AV-unprocessed.smi:1997|AV-procd|sdf|8087|dock7
  -GOLD-   2272010303D 1   1.00000     0.00000
 Structure written by MMmdl.
 37 39  0  0  0  0  0  0  0  0  1 V2000
  150.2488  137.9477  157.2863 O   0  0  0  0  0  0  0  0  0  0  0  0
  150.7083  139.0610  157.5420 C   0  0  0  0  0  0  0  0  0  0  0  0
  151.6941  139.3136  158.4209 N   0  0  0  0  0  0  0  0  0  0  0  0
  152.3933  138.3952  159.2477 C   0  0  0  0  0  0  0  0  0  0  0  0
  152.4979  137.0854  158.9846 N   0  0  0  0  0  0  0  0  0  0  0  0
  153.2268  136.4181  159.9592 N   0  0  0  0  0  0  0  0  0  0  0  0
  153.6496  137.2386  160.9285 C   0  0  0  0  0  0  0  0  0  0  0  0
  154.4465  136.7521  162.0927 C   0  0  0  0  0  0  0  0  0  0  0  0
  153.8573  136.7494  163.4847 C   0  0  0  0  0  0  0  0  0  0  0  0
  154.9738  137.7032  163.1450 C   0  0  0  0  0  0  0  0  0  0  0  0
  153.1900  138.9252  160.7187 S   0  0  0  0  0  0  0  0  0  0  0  0
  150.2741  140.1913  156.9635 N   0  0  0  0  0  0  0  0  0  0  0  0
  149.2153  140.2770  155.9548 C   0  0  1  0  0  0  0  0  0  0  0  0
  148.7146  141.7396  155.9277 C   0  0  0  0  0  0  0  0  0  0  0  0
  147.2963  141.9004  155.3532 C   0  0  0  0  0  0  0  0  0  0  0  0
  147.1519  141.5330  153.8685 C   0  0  0  0  0  0  0  0  0  0  0  0
  147.4641  140.0580  153.5633 C   0  0  0  0  0  0  0  0  0  0  0  0
  148.8970  139.7960  153.5322 N   0  0  0  0  0  0  0  0  0  0  0  0
  149.7578  139.9000  154.5561 C   0  0  0  0  0  0  0  0  0  0  0  0
  150.9601  139.7039  154.3799 O   0  0  0  0  0  0  0  0  0  0  0  0
  151.9690  140.2796  158.5194 H   0  0  0  0  0  0  0  0  0  0  0  0
  155.0765  135.9130  161.8039 H   0  0  0  0  0  0  0  0  0  0  0  0
  152.8614  137.1689  163.6134 H   0  0  0  0  0  0  0  0  0  0  0  0
  154.0947  135.9050  164.1282 H   0  0  0  0  0  0  0  0  0  0  0  0
  155.9567  137.4948  163.5623 H   0  0  0  0  0  0  0  0  0  0  0  0
  154.7173  138.7575  163.0630 H   0  0  0  0  0  0  0  0  0  0  0  0
  150.7163  141.0592  157.2274 H   0  0  0  0  0  0  0  0  0  0  0  0
  148.4019  139.6054  156.2352 H   0  0  0  0  0  0  0  0  0  0  0  0
  148.6887  142.1251  156.9484 H   0  0  0  0  0  0  0  0  0  0  0  0
  149.4145  142.3834  155.3918 H   0  0  0  0  0  0  0  0  0  0  0  0
  146.5978  141.3058  155.9433 H   0  0  0  0  0  0  0  0  0  0  0  0
  146.9853  142.9374  155.4836 H   0  0  0  0  0  0  0  0  0  0  0  0
  146.1235  141.7368  153.5686 H   0  0  0  0  0  0  0  0  0  0  0  0
  147.7759  142.1849  153.2556 H   0  0  0  0  0  0  0  0  0  0  0  0
  146.9676  139.3932  154.2717 H   0  0  0  0  0  0  0  0  0  0  0  0
  147.0707  139.8052  152.5784 H   0  0  0  0  0  0  0  0  0  0  0  0
  149.2822  139.5368  152.6355 H   0  0  0  0  0  0  0  0  0  0  0  0
  1  2  2  0  0  0  0
  2  3  1  0  0  0  0
  2 12  1  0  0  0  0
  3  4  1  0  0  0  0
  3 21  1  0  0  0  0
  4 11  1  0  0  0  0
  4  5  2  0  0  0  0
  5  6  1  0  0  0  0
  6  7  2  0  0  0  0
  7  8  1  0  0  0  0
  7 11  1  0  0  0  0
  8 10  1  0  0  0  0
  8  9  1  0  0  0  0
  8 22  1  0  0  0  0
  9 10  1  0  0  0  0
  9 23  1  0  0  0  0
  9 24  1  0  0  0  0
 10 25  1  0  0  0  0
 10 26  1  0  0  0  0
 12 13  1  0  0  0  0
 12 27  1  0  0  0  0
 13 19  1  0  0  0  0
 13 14  1  0  0  0  0
 13 28  1  0  0  0  0
 14 15  1  0  0  0  0
 14 29  1  0  0  0  0
 14 30  1  0  0  0  0
 15 16  1  0  0  0  0
 15 31  1  0  0  0  0
 15 32  1  0  0  0  0
 16 17  1  0  0  0  0
 16 33  1  0  0  0  0
 16 34  1  0  0  0  0
 17 18  1  0  0  0  0
 17 35  1  0  0  0  0
 17 36  1  0  0  0  0
 18 19  1  0  0  0  0
 18 37  1  0  0  0  0
 19 20  2  0  0  0  0
M  END
> <s_m_source_file>
AV-unprocessed.smi

> <i_m_source_file_index>
1997

> <i_lp_mmshare_version>
43012

> <i_f3d_flags>
0

> <s_epik_input>
W0NIMl0xW0NIMl1bQ0hdMWMoczIpbm5jMltOSF1DKD1PKVtOSF1bQ0BASF0zW0NIMl1bQ0gyXVtDSDJdW0NIMl1bTkhdQzM9Tw==

> <s_epik_cmdline>
J2VwaWtfcHl0aG9uJywgJy1waCcsICc3LjAnLCAnLXRuJywgJzgnLCAnLW1hJywgJzIwMCcsICctbWV0YWxfYmluZGluZycsICctaW1hZScsICc8aW5maWxlLm1hZT4nLCAnLW9tYWUnLCAnPG91dGZpbGUubWFlPic=

> <r_lp_tautomer_probability>
1

> <r_epik_Ionization_Penalty>
0.000421558

> <r_epik_Ionization_Penalty_Charging>
0

> <r_epik_Ionization_Penalty_Neutral>
0.000421558

> <r_epik_State_Penalty>
-0

> <r_epik_Charging_Adjusted_Penalty>
0

> <i_epik_Tot_Q>
0

> <i_epik_Tot_abs_Q>
0

> <r_epik_Metal_State_Penalty>
0.200761

> <b_epik_Metal_Only>
0

> <s_lp_Force_Field>
OPLS_2005

> <r_lp_Energy>
8.5849

> <b_lp_Chiralities_Consistent>
1

> <s_lp_Variant>
AV-unprocessed.smi:1997-2

> <Gold.Version>
5.8.1

> <Gold.Id.Protein>
6NUR|6NUR_protein|mol2

> <Gold.PLP.Fitness>
35.2111

> <Gold.PLP.PLP>
-27.3783

> <Gold.PLP.part.hbond>
-3.2789

> <Gold.PLP.part.metal>
0.0000

> <Gold.PLP.part.buried>
-2.8955

> <Gold.PLP.part.nonpolar>
-20.4613

> <Gold.PLP.part.repulsive>
0.3577

> <Gold.PLP.ligand.clash>
0.0000

> <Gold.PLP.ligand.torsion>
0.4606

> <Gold.PLP.Chemscore.Hbond>
2.8760

> <Gold.PLP.Chemscore.CHOScore>
0.0000

> <Gold.PLP.Chemscore.Metal>
0.0000

> <Gold.Chemscore.Hbonds>
donor molecule, donor type, donor heavy atom, donor atom, acceptor molecule, acceptor atom, score
      L1  H    18    37       P1  7957  0.91
      P1  H  6896  6908       L1     6  0.90
      P1  H  7989  7998       L1    20  1.00

> <Gold.PLP.Chemscore.Internal.Correction>
0.1258

> <Gold.Rescore>
     Score         DG    S(hbond)    S(metal)    S(lipo)     H(rot)  DE(clash)    DE(int)     intcor
     15.23     -16.88       2.38        0.00      57.73       1.29       0.03       1.61       ----

> <Gold.Chemscore.Fitness>
15.2350

> <Gold.Chemscore.DG>
-16.8785

> <Gold.Chemscore.ZeroCoef>
-5.4800

> <Gold.Chemscore.Hbond>
2.3761

> <Gold.Chemscore.Metal>
0.0000

> <Gold.Chemscore.Lipo>
57.7308

> <Gold.Chemscore.Internal_Hbond>
0.0000

> <Gold.Chemscore.DEClash>
0.0309

> <Gold.Chemscore.DEInternal>
1.6126

> <Gold.Chemscore.Rot>
1.2860

> <Gold.Chemscore.Internal.Correction>
   9.000000E+99

> <Gold.Chemscore.Hbonds>
donor molecule, donor type, donor heavy atom, donor atom, acceptor molecule, acceptor atom, score
      L1  H    18    37       P1  7957  0.88
      P1  H  6896  6908       L1     6  0.18
      P1  H  7989  7998       L1    20  0.81

> <Gold.Chemscore.Hbond.Weighted>
-7.9362

> <Gold.Chemscore.Metal.Weighted>
-0.0000

> <Gold.Chemscore.Lipo.Weighted>
-6.7545

> <Gold.Chemscore.Internal_Hbond.Weighted>
0.0000

> <Gold.Chemscore.DEClash.Weighted>
0.0309

> <Gold.Chemscore.DEInternal.Weighted>
1.6126

> <Gold.Chemscore.Rot.Weighted>
3.2923

> <Gold.Chemscore.Internal.Correction.Weighted>
   9.000000E+99

> <Gold.Protein.RotatedTorsions>
[ 6907 6896 6895 6894 ] final  -79.48 input  -60.11 | X-H torsion
[ 7974 7965 7964 7962 ] final   12.76 input  175.53 | X-H torsion
[ 8008 7997 7996 7995 ] final   41.15 input   59.86 | X-H torsion
[ 10167 10162 10161 10158 ] final   60.76 input  -65.29 | X-H torsion
[ 10718 10713 10712 10709 ] final -125.68 input   66.30 | X-H torsion
[ 10763 10752 10751 10750 ] final -127.12 input  -60.55 | X-H torsion
[ 11005 11000 10999 10996 ] final  127.51 input  -57.11 | X-H torsion

> <Gold.Protein.ActiveResidues>
 VAL166  LYS551  ARG553  GLY616  TRP617  ASP618  TYR619  PRO620  LYS621  CYS622 
 ASP623  PHE694  ASN695  SER759  ASP760  ASP761  ALA762  ILE779  LEU786  VAL792 
 PHE793  MET794  SER795  GLU796  ALA797  LYS798  CYS799  TRP800  GLU811  SER814 

> <Gold.Protein.RotatedAtoms>
  150.6949  134.4114  159.5163 H   0  0  0  0  0  0  0  0  0  0  0  0  # atno 6907 bound_to 6896
  152.1872  134.8701  160.0530 H   0  0  0  0  0  0  0  0  0  0  0  0  # atno 6908 bound_to 6896
  151.9669  133.3678  159.4093 H   0  0  0  0  0  0  0  0  0  0  0  0  # atno 6909 bound_to 6896
  146.2344  139.9290  142.8499 H   0  0  0  0  0  0  0  0  0  0  0  0  # atno 7974 bound_to 7965
  155.2648  140.3362  155.4270 H   0  0  0  0  0  0  0  0  0  0  0  0  # atno 8008 bound_to 7997
  156.2158  140.1788  156.7633 H   0  0  0  0  0  0  0  0  0  0  0  0  # atno 8009 bound_to 7997
  154.5752  140.0663  156.9008 H   0  0  0  0  0  0  0  0  0  0  0  0  # atno 8010 bound_to 7997
  140.1621  144.4360  150.6704 H   0  0  0  0  0  0  0  0  0  0  0  0  # atno 10167 bound_to 10162
  156.1697  130.6659  151.0163 H   0  0  0  0  0  0  0  0  0  0  0  0  # atno 10718 bound_to 10713
  154.8750  135.3972  154.3542 H   0  0  0  0  0  0  0  0  0  0  0  0  # atno 10763 bound_to 10752
  153.4324  135.7025  153.6227 H   0  0  0  0  0  0  0  0  0  0  0  0  # atno 10764 bound_to 10752
  153.4843  135.3762  155.2428 H   0  0  0  0  0  0  0  0  0  0  0  0  # atno 10765 bound_to 10752
  139.9511  134.9621  156.8866 H   0  0  0  0  0  0  0  0  0  0  0  0  # atno 11005 bound_to 11000
  145.2063  140.9876  143.4126 LP  0  0  0  0  0  0  0  0  0  0  0  0  # atno 17320 bound_to 7965
  144.9730  139.3861  143.6300 LP  0  0  0  0  0  0  0  0  0  0  0  0  # atno 17321 bound_to 7965
  140.6636  143.2260  151.5796 LP  0  0  0  0  0  0  0  0  0  0  0  0  # atno 17342 bound_to 10162
  139.5376  144.2736  152.1285 LP  0  0  0  0  0  0  0  0  0  0  0  0  # atno 17343 bound_to 10162
  157.6794  131.0842  150.7410 LP  0  0  0  0  0  0  0  0  0  0  0  0  # atno 17370 bound_to 10713
  156.7470  130.4757  149.5465 LP  0  0  0  0  0  0  0  0  0  0  0  0  # atno 17371 bound_to 10713
  140.5716  134.0438  155.7432 LP  0  0  0  0  0  0  0  0  0  0  0  0  # atno 17394 bound_to 11000
  141.1174  133.9517  157.2795 LP  0  0  0  0  0  0  0  0  0  0  0  0  # atno 17395 bound_to 11000

$$$$
