AV-unprocessed.smi:1439|AV-procd|sdf|5870|dock3
  -GOLD-   22720 5543D 1   1.00000     0.00000
 Structure written by MMmdl.
 36 37  0  0  0  0  0  0  0  0  1 V2000
  147.3271  136.6657  154.0523 N   0  0  0  0  0  0  0  0  0  0  0  0
  146.5418  137.7460  154.0307 C   0  0  0  0  0  0  0  0  0  0  0  0
  145.6748  137.9454  154.8789 O   0  0  0  0  0  0  0  0  0  0  0  0
  146.7571  138.7448  152.8925 C   0  0  0  0  0  0  0  0  0  0  0  0
  147.0653  140.1063  153.4449 C   0  0  0  0  0  0  0  0  0  0  0  0
  146.3359  141.2559  153.2549 C   0  0  0  0  0  0  0  0  0  0  0  0
  147.0440  142.6239  154.0691 S   0  0  0  0  0  0  0  0  0  0  0  0
  148.3317  141.5623  154.6418 C   0  0  0  0  0  0  0  0  0  0  0  0
  149.4398  141.9116  155.4526 N   0  0  0  0  0  0  0  0  0  0  0  0
  150.5688  141.2111  155.6580 C   0  0  0  0  0  0  0  0  0  0  0  0
  150.8160  140.1208  155.1425 O   0  0  0  0  0  0  0  0  0  0  0  0
  151.5821  141.8675  156.6019 C   0  0  0  0  0  0  0  0  0  0  0  0
  151.0782  142.0016  158.0513 C   0  0  0  0  0  0  0  0  0  0  0  0
  151.8962  143.0132  158.8678 C   0  0  1  0  0  0  0  0  0  0  0  0
  151.8150  144.4438  158.3395 C   0  0  0  0  0  0  0  0  0  0  0  0
  152.1607  145.2419  159.5757 C   0  0  0  0  0  0  0  0  0  0  0  0
  151.4609  144.4410  160.6706 C   0  0  0  0  0  0  0  0  0  0  0  0
  151.4156  143.0932  160.2075 O   0  0  0  0  0  0  0  0  0  0  0  0
  148.2035  140.2975  154.2371 N   0  0  0  0  0  0  0  0  0  0  0  0
  147.2217  135.9847  154.7902 H   0  0  0  0  0  0  0  0  0  0  0  0
  148.0266  136.5364  153.3356 H   0  0  0  0  0  0  0  0  0  0  0  0
  147.5617  138.3928  152.2451 H   0  0  0  0  0  0  0  0  0  0  0  0
  145.8598  138.7794  152.2735 H   0  0  0  0  0  0  0  0  0  0  0  0
  145.4247  141.3777  152.6879 H   0  0  0  0  0  0  0  0  0  0  0  0
  149.3642  142.7947  155.9360 H   0  0  0  0  0  0  0  0  0  0  0  0
  152.4992  141.2780  156.5807 H   0  0  0  0  0  0  0  0  0  0  0  0
  151.8354  142.8552  156.2137 H   0  0  0  0  0  0  0  0  0  0  0  0
  150.0334  142.3154  158.0440 H   0  0  0  0  0  0  0  0  0  0  0  0
  151.1065  141.0307  158.5485 H   0  0  0  0  0  0  0  0  0  0  0  0
  152.9435  142.7086  158.9047 H   0  0  0  0  0  0  0  0  0  0  0  0
  152.4929  144.6290  157.5058 H   0  0  0  0  0  0  0  0  0  0  0  0
  150.8002  144.6800  158.0158 H   0  0  0  0  0  0  0  0  0  0  0  0
  153.2398  145.2352  159.7352 H   0  0  0  0  0  0  0  0  0  0  0  0
  151.8280  146.2790  159.5261 H   0  0  0  0  0  0  0  0  0  0  0  0
  151.9742  144.5150  161.6296 H   0  0  0  0  0  0  0  0  0  0  0  0
  150.4376  144.7928  160.8062 H   0  0  0  0  0  0  0  0  0  0  0  0
  1  2  1  0  0  0  0
  1 20  1  0  0  0  0
  1 21  1  0  0  0  0
  2  3  2  0  0  0  0
  2  4  1  0  0  0  0
  4  5  1  0  0  0  0
  4 22  1  0  0  0  0
  4 23  1  0  0  0  0
  5 19  1  0  0  0  0
  5  6  2  0  0  0  0
  6  7  1  0  0  0  0
  6 24  1  0  0  0  0
  7  8  1  0  0  0  0
  8  9  1  0  0  0  0
  8 19  2  0  0  0  0
  9 10  1  0  0  0  0
  9 25  1  0  0  0  0
 10 11  2  0  0  0  0
 10 12  1  0  0  0  0
 12 13  1  0  0  0  0
 12 26  1  0  0  0  0
 12 27  1  0  0  0  0
 13 14  1  0  0  0  0
 13 28  1  0  0  0  0
 13 29  1  0  0  0  0
 14 18  1  0  0  0  0
 14 15  1  0  0  0  0
 14 30  1  0  0  0  0
 15 16  1  0  0  0  0
 15 31  1  0  0  0  0
 15 32  1  0  0  0  0
 16 17  1  0  0  0  0
 16 33  1  0  0  0  0
 16 34  1  0  0  0  0
 17 18  1  0  0  0  0
 17 35  1  0  0  0  0
 17 36  1  0  0  0  0
M  END
> <s_m_source_file>
AV-unprocessed.smi

> <i_m_source_file_index>
1439

> <i_lp_mmshare_version>
43012

> <i_f3d_flags>
0

> <s_epik_input>
W05IMl1DKD1PKVtDSDJdYzFbY0hdc2MobjEpW05IXUMoPU8pW0NIMl1bQ0gyXVtDQEBIXTJbQ0gyXVtDSDJdW0NIMl1PMg==

> <s_epik_cmdline>
J2VwaWtfcHl0aG9uJywgJy1waCcsICc3LjAnLCAnLXRuJywgJzgnLCAnLW1hJywgJzIwMCcsICctbWV0YWxfYmluZGluZycsICctaW1hZScsICc8aW5maWxlLm1hZT4nLCAnLW9tYWUnLCAnPG91dGZpbGUubWFlPic=

> <r_lp_tautomer_probability>
1

> <r_epik_Ionization_Penalty>
0.000300833

> <r_epik_Ionization_Penalty_Charging>
0

> <r_epik_Ionization_Penalty_Neutral>
0.000300833

> <r_epik_State_Penalty>
-0

> <r_epik_Charging_Adjusted_Penalty>
0

> <i_epik_Tot_Q>
0

> <i_epik_Tot_abs_Q>
0

> <r_epik_Metal_State_Penalty>
0.167159

> <b_epik_Metal_Only>
0

> <s_lp_Force_Field>
OPLS_2005

> <r_lp_Energy>
15.0487

> <b_lp_Chiralities_Consistent>
1

> <s_lp_Variant>
AV-unprocessed.smi:1439-2

> <Gold.Version>
5.8.1

> <Gold.Id.Protein>
6NUR|6NUR_protein|mol2

> <Gold.PLP.Fitness>
44.6477

> <Gold.PLP.PLP>
-34.5564

> <Gold.PLP.part.hbond>
-3.7198

> <Gold.PLP.part.metal>
0.0000

> <Gold.PLP.part.buried>
-2.3928

> <Gold.PLP.part.nonpolar>
-28.8953

> <Gold.PLP.part.repulsive>
0.4298

> <Gold.PLP.ligand.clash>
0.0000

> <Gold.PLP.ligand.torsion>
0.1627

> <Gold.PLP.Chemscore.Hbond>
2.8320

> <Gold.PLP.Chemscore.CHOScore>
0.6329

> <Gold.PLP.Chemscore.Metal>
0.0000

> <Gold.Chemscore.Hbonds>
donor molecule, donor type, donor heavy atom, donor atom, acceptor molecule, acceptor atom, score
      L1  H     1    21       P1  7948  1.00
      L1  H     9    25       P1  8028  0.85
      P1  H  7989  7998       L1    11  0.75
      L1  C     6    24       P1 10175  0.27

> <Gold.PLP.Chemscore.Internal.Correction>
0.0221

> <Gold.Rescore>
     Score         DG    S(hbond)    S(metal)    S(lipo)     H(rot)  DE(clash)    DE(int)     intcor
     13.59     -17.11       2.11        0.00      95.22       2.56       1.74       1.78       ----

> <Gold.Chemscore.Fitness>
13.5922

> <Gold.Chemscore.DG>
-17.1133

> <Gold.Chemscore.ZeroCoef>
-5.4800

> <Gold.Chemscore.Hbond>
2.1096

> <Gold.Chemscore.Metal>
0.0000

> <Gold.Chemscore.Lipo>
95.2175

> <Gold.Chemscore.Internal_Hbond>
0.0000

> <Gold.Chemscore.DEClash>
1.7401

> <Gold.Chemscore.DEInternal>
1.7811

> <Gold.Chemscore.Rot>
2.5598

> <Gold.Chemscore.Internal.Correction>
   9.000000E+99

> <Gold.Chemscore.Hbonds>
donor molecule, donor type, donor heavy atom, donor atom, acceptor molecule, acceptor atom, score
      L1  H     1    21       P1  7948  1.00
      L1  H     9    25       P1  8028  0.80
      P1  H  7989  7998       L1    11  0.09

> <Gold.Chemscore.Hbond.Weighted>
-7.0461

> <Gold.Chemscore.Metal.Weighted>
-0.0000

> <Gold.Chemscore.Lipo.Weighted>
-11.1404

> <Gold.Chemscore.Internal_Hbond.Weighted>
0.0000

> <Gold.Chemscore.DEClash.Weighted>
1.7401

> <Gold.Chemscore.DEInternal.Weighted>
1.7811

> <Gold.Chemscore.Rot.Weighted>
6.5532

> <Gold.Chemscore.Internal.Correction.Weighted>
   9.000000E+99

> <Gold.Protein.RotatedTorsions>
[ 6907 6896 6895 6894 ] final   -0.39 input  -60.11 | X-H torsion
[ 7974 7965 7964 7962 ] final   43.97 input  175.53 | X-H torsion
[ 8008 7997 7996 7995 ] final    5.89 input   59.86 | X-H torsion
[ 10167 10162 10161 10158 ] final  121.55 input  -65.29 | X-H torsion
[ 10718 10713 10712 10709 ] final -142.19 input   66.30 | X-H torsion
[ 10763 10752 10751 10750 ] final   73.65 input  -60.55 | X-H torsion
[ 11005 11000 10999 10996 ] final   15.15 input  -57.11 | X-H torsion

> <Gold.Protein.ActiveResidues>
 VAL166  LYS551  ARG553  GLY616  TRP617  ASP618  TYR619  PRO620  LYS621  CYS622 
 ASP623  PHE694  ASN695  SER759  ASP760  ASP761  ALA762  ILE779  LEU786  VAL792 
 PHE793  MET794  SER795  GLU796  ALA797  LYS798  CYS799  TRP800  GLU811  SER814 

> <Gold.Protein.RotatedAtoms>
  151.5631  135.1065  159.9977 H   0  0  0  0  0  0  0  0  0  0  0  0  # atno 6907 bound_to 6896
  152.4437  133.7492  159.6695 H   0  0  0  0  0  0  0  0  0  0  0  0  # atno 6908 bound_to 6896
  150.8348  133.7963  159.3108 H   0  0  0  0  0  0  0  0  0  0  0  0  # atno 6909 bound_to 6896
  146.0609  139.5126  142.9659 H   0  0  0  0  0  0  0  0  0  0  0  0  # atno 7974 bound_to 7965
  154.7341  140.2736  155.6430 H   0  0  0  0  0  0  0  0  0  0  0  0  # atno 8008 bound_to 7997
  156.2857  140.2710  156.1975 H   0  0  0  0  0  0  0  0  0  0  0  0  # atno 8009 bound_to 7997
  155.0343  140.0371  157.2475 H   0  0  0  0  0  0  0  0  0  0  0  0  # atno 8010 bound_to 7997
  139.5913  144.7026  151.3284 H   0  0  0  0  0  0  0  0  0  0  0  0  # atno 10167 bound_to 10162
  156.3430  130.7647  151.1787 H   0  0  0  0  0  0  0  0  0  0  0  0  # atno 10718 bound_to 10713
  153.0535  135.5055  154.7925 H   0  0  0  0  0  0  0  0  0  0  0  0  # atno 10763 bound_to 10752
  154.6769  135.2962  154.9669 H   0  0  0  0  0  0  0  0  0  0  0  0  # atno 10764 bound_to 10752
  154.0468  135.6709  153.4848 H   0  0  0  0  0  0  0  0  0  0  0  0  # atno 10765 bound_to 10752
  140.4615  134.1123  155.7717 H   0  0  0  0  0  0  0  0  0  0  0  0  # atno 11005 bound_to 11000
  145.6562  141.0251  143.1733 LP  0  0  0  0  0  0  0  0  0  0  0  0  # atno 17320 bound_to 7965
  144.7174  139.8148  143.7394 LP  0  0  0  0  0  0  0  0  0  0  0  0  # atno 17321 bound_to 7965
  140.7175  143.7226  150.7684 LP  0  0  0  0  0  0  0  0  0  0  0  0  # atno 17342 bound_to 10162
  140.0782  143.4994  152.2544 LP  0  0  0  0  0  0  0  0  0  0  0  0  # atno 17343 bound_to 10162
  157.7450  131.0449  150.4816 LP  0  0  0  0  0  0  0  0  0  0  0  0  # atno 17370 bound_to 10713
  156.5000  130.4115  149.6359 LP  0  0  0  0  0  0  0  0  0  0  0  0  # atno 17371 bound_to 10713
  141.1619  133.8777  157.1824 LP  0  0  0  0  0  0  0  0  0  0  0  0  # atno 17394 bound_to 11000
  139.9942  135.0053  157.0045 LP  0  0  0  0  0  0  0  0  0  0  0  0  # atno 17395 bound_to 11000

$$$$
