AV-unprocessed.smi:1584|AV-procd|sdf|6368|dock10
  -GOLD-   22720 6593D 1   1.00000     0.00000
 Structure written by MMmdl.
 39 40  0  0  0  0  0  0  0  0  1 V2000
  145.1976  135.2893  153.9141 C   0  0  0  0  0  0  0  0  0  0  0  0
  146.0990  135.5409  152.6968 C   0  0  1  0  0  0  0  0  0  0  0  0
  145.3007  135.5091  151.3791 C   0  0  0  0  0  0  0  0  0  0  0  0
  145.2095  134.1704  150.8230 N   0  0  0  0  0  0  0  0  0  0  0  0
  144.0775  133.4405  150.5262 C   0  0  0  0  0  0  0  0  0  0  0  0
  144.4887  132.2453  150.0098 C   0  0  0  0  0  0  0  0  0  0  0  0
  145.9083  132.3380  150.0330 C   0  0  0  0  0  0  0  0  0  0  0  0
  146.3368  133.4912  150.5206 N   0  0  0  0  0  0  0  0  0  0  0  0
  146.7691  136.8319  152.8402 N   0  0  0  0  0  0  0  0  0  0  0  0
  146.2183  137.9500  153.3369 C   0  0  0  0  0  0  0  0  0  0  0  0
  145.0410  138.0274  153.6894 O   0  0  0  0  0  0  0  0  0  0  0  0
  147.1461  139.1657  153.4590 C   0  0  1  0  0  0  0  0  0  0  0  0
  146.5160  140.2509  154.3403 C   0  0  0  0  0  0  0  0  0  0  0  0
  147.4304  141.4819  154.3900 C   0  0  0  0  0  0  0  0  0  0  0  0
  148.8392  141.1591  154.6592 N   0  0  0  0  0  0  0  0  0  0  0  0
  149.6609  142.2919  155.0888 C   0  0  0  0  0  0  0  0  0  0  0  0
  149.3993  139.9403  154.4658 C   0  0  0  0  0  0  0  0  0  0  0  0
  150.5992  139.7294  154.6446 O   0  0  0  0  0  0  0  0  0  0  0  0
  148.5142  138.7569  154.0402 C   0  0  0  0  0  0  0  0  0  0  0  0
  144.6991  134.3226  153.8387 H   0  0  0  0  0  0  0  0  0  0  0  0
  144.4267  136.0555  154.0031 H   0  0  0  0  0  0  0  0  0  0  0  0
  145.7765  135.2887  154.8382 H   0  0  0  0  0  0  0  0  0  0  0  0
  146.8402  134.7401  152.6586 H   0  0  0  0  0  0  0  0  0  0  0  0
  144.2879  135.8805  151.5420 H   0  0  0  0  0  0  0  0  0  0  0  0
  145.7569  136.1656  150.6368 H   0  0  0  0  0  0  0  0  0  0  0  0
  143.0854  133.8301  150.7001 H   0  0  0  0  0  0  0  0  0  0  0  0
  143.8700  131.4295  149.6668 H   0  0  0  0  0  0  0  0  0  0  0  0
  146.6352  131.6072  149.7112 H   0  0  0  0  0  0  0  0  0  0  0  0
  147.7414  136.8678  152.5707 H   0  0  0  0  0  0  0  0  0  0  0  0
  147.3040  139.5821  152.4620 H   0  0  0  0  0  0  0  0  0  0  0  0
  145.5331  140.5364  153.9626 H   0  0  0  0  0  0  0  0  0  0  0  0
  146.3631  139.8728  155.3528 H   0  0  0  0  0  0  0  0  0  0  0  0
  147.3842  142.0078  153.4355 H   0  0  0  0  0  0  0  0  0  0  0  0
  147.0533  142.1729  155.1453 H   0  0  0  0  0  0  0  0  0  0  0  0
  150.5050  142.4371  154.4127 H   0  0  0  0  0  0  0  0  0  0  0  0
  150.0521  142.1206  156.0926 H   0  0  0  0  0  0  0  0  0  0  0  0
  149.0982  143.2259  155.1072 H   0  0  0  0  0  0  0  0  0  0  0  0
  148.3816  138.1262  154.9209 H   0  0  0  0  0  0  0  0  0  0  0  0
  149.0588  138.1552  153.3112 H   0  0  0  0  0  0  0  0  0  0  0  0
  1  2  1  0  0  0  0
  1 20  1  0  0  0  0
  1 21  1  0  0  0  0
  1 22  1  0  0  0  0
  2  3  1  0  0  0  0
  2  9  1  0  0  0  0
  2 23  1  0  0  0  0
  3  4  1  0  0  0  0
  3 24  1  0  0  0  0
  3 25  1  0  0  0  0
  4  8  1  0  0  0  0
  4  5  1  0  0  0  0
  5  6  2  0  0  0  0
  5 26  1  0  0  0  0
  6  7  1  0  0  0  0
  6 27  1  0  0  0  0
  7  8  2  0  0  0  0
  7 28  1  0  0  0  0
  9 10  1  0  0  0  0
  9 29  1  0  0  0  0
 10 11  2  0  0  0  0
 10 12  1  0  0  0  0
 12 19  1  0  0  0  0
 12 13  1  0  0  0  0
 12 30  1  0  0  0  0
 13 14  1  0  0  0  0
 13 31  1  0  0  0  0
 13 32  1  0  0  0  0
 14 15  1  0  0  0  0
 14 33  1  0  0  0  0
 14 34  1  0  0  0  0
 15 16  1  0  0  0  0
 15 17  1  0  0  0  0
 16 35  1  0  0  0  0
 16 36  1  0  0  0  0
 16 37  1  0  0  0  0
 17 18  2  0  0  0  0
 17 19  1  0  0  0  0
 19 38  1  0  0  0  0
 19 39  1  0  0  0  0
M  END
> <s_m_source_file>
AV-unprocessed.smi

> <i_m_source_file_index>
1584

> <i_lp_mmshare_version>
43012

> <i_f3d_flags>
0

> <s_epik_input>
bjFbY0hdW2NIXVtjSF1uMVtDSDJdW0NAQEhdKFtDSDNdKVtOSF1DKD1PKVtDQEBIXTJbQ0gyXVtDSDJdTihbQ0gzXSlDKD1PKVtDSDJdMg==

> <s_epik_cmdline>
J2VwaWtfcHl0aG9uJywgJy1waCcsICc3LjAnLCAnLXRuJywgJzgnLCAnLW1hJywgJzIwMCcsICctbWV0YWxfYmluZGluZycsICctaW1hZScsICc8aW5maWxlLm1hZT4nLCAnLW9tYWUnLCAnPG91dGZpbGUubWFlPic=

> <r_lp_tautomer_probability>
1

> <r_epik_Ionization_Penalty>
0.000299422

> <r_epik_Ionization_Penalty_Charging>
0

> <r_epik_Ionization_Penalty_Neutral>
0.000299422

> <r_epik_State_Penalty>
-0

> <r_epik_Charging_Adjusted_Penalty>
0

> <i_epik_Tot_Q>
0

> <i_epik_Tot_abs_Q>
0

> <r_epik_Metal_State_Penalty>
-0

> <b_epik_Metal_Only>
0

> <s_lp_Force_Field>
OPLS_2005

> <r_lp_Energy>
13.2703

> <b_lp_Chiralities_Consistent>
1

> <s_lp_Variant>
AV-unprocessed.smi:1584-4

> <Gold.Version>
5.8.1

> <Gold.Id.Protein>
6NUR|6NUR_protein|mol2

> <Gold.PLP.Fitness>
39.1095

> <Gold.PLP.PLP>
-29.2130

> <Gold.PLP.part.hbond>
-1.7820

> <Gold.PLP.part.metal>
0.0000

> <Gold.PLP.part.buried>
-1.5639

> <Gold.PLP.part.nonpolar>
-27.5329

> <Gold.PLP.part.repulsive>
0.8615

> <Gold.PLP.ligand.clash>
0.0000

> <Gold.PLP.ligand.torsion>
1.0517

> <Gold.PLP.Chemscore.Hbond>
1.9920

> <Gold.PLP.Chemscore.CHOScore>
2.0000

> <Gold.PLP.Chemscore.Metal>
0.0000

> <Gold.Chemscore.Hbonds>
donor molecule, donor type, donor heavy atom, donor atom, acceptor molecule, acceptor atom, score
      L1  H     9    29       P1  7948  0.99
      P1  H  7989  7998       L1    18  1.00
      L1  C     5    26       P1 10186  1.00
      L1  C     7    28       P1 10747  1.00

> <Gold.PLP.Chemscore.Internal.Correction>
0.0240

> <Gold.Rescore>
     Score         DG    S(hbond)    S(metal)    S(lipo)     H(rot)  DE(clash)    DE(int)     intcor
     11.62     -15.52       1.95        0.00      66.80       1.67       1.52       2.39       ----

> <Gold.Chemscore.Fitness>
11.6176

> <Gold.Chemscore.DG>
-15.5246

> <Gold.Chemscore.ZeroCoef>
-5.4800

> <Gold.Chemscore.Hbond>
1.9499

> <Gold.Chemscore.Metal>
0.0000

> <Gold.Chemscore.Lipo>
66.8016

> <Gold.Chemscore.Internal_Hbond>
0.0000

> <Gold.Chemscore.DEClash>
1.5164

> <Gold.Chemscore.DEInternal>
2.3905

> <Gold.Chemscore.Rot>
1.6734

> <Gold.Chemscore.Internal.Correction>
   9.000000E+99

> <Gold.Chemscore.Hbonds>
donor molecule, donor type, donor heavy atom, donor atom, acceptor molecule, acceptor atom, score
      L1  H     9    29       P1  7948  0.88
      P1  H  7989  7998       L1    18  0.70

> <Gold.Chemscore.Hbond.Weighted>
-6.5128

> <Gold.Chemscore.Metal.Weighted>
-0.0000

> <Gold.Chemscore.Lipo.Weighted>
-7.8158

> <Gold.Chemscore.Internal_Hbond.Weighted>
0.0000

> <Gold.Chemscore.DEClash.Weighted>
1.5164

> <Gold.Chemscore.DEInternal.Weighted>
2.3905

> <Gold.Chemscore.Rot.Weighted>
4.2840

> <Gold.Chemscore.Internal.Correction.Weighted>
   9.000000E+99

> <Gold.Protein.RotatedTorsions>
[ 6907 6896 6895 6894 ] final   42.79 input  -60.11 | X-H torsion
[ 7974 7965 7964 7962 ] final -127.85 input  175.53 | X-H torsion
[ 8008 7997 7996 7995 ] final  -70.74 input   59.86 | X-H torsion
[ 10167 10162 10161 10158 ] final  172.43 input  -65.29 | X-H torsion
[ 10718 10713 10712 10709 ] final   84.24 input   66.30 | X-H torsion
[ 10763 10752 10751 10750 ] final   36.42 input  -60.55 | X-H torsion
[ 11005 11000 10999 10996 ] final -104.11 input  -57.11 | X-H torsion

> <Gold.Protein.ActiveResidues>
 VAL166  LYS551  ARG553  GLY616  TRP617  ASP618  TYR619  PRO620  LYS621  CYS622 
 ASP623  PHE694  ASN695  SER759  ASP760  ASP761  ALA762  ILE779  LEU786  VAL792 
 PHE793  MET794  SER795  GLU796  ALA797  LYS798  CYS799  TRP800  GLU811  SER814 

> <Gold.Protein.RotatedAtoms>
  152.2122  134.8491  160.0495 H   0  0  0  0  0  0  0  0  0  0  0  0  # atno 6907 bound_to 6896
  151.9305  133.3605  159.3937 H   0  0  0  0  0  0  0  0  0  0  0  0  # atno 6908 bound_to 6896
  150.6979  134.4467  159.5361 H   0  0  0  0  0  0  0  0  0  0  0  0  # atno 6909 bound_to 6896
  144.9730  140.7564  143.4659 H   0  0  0  0  0  0  0  0  0  0  0  0  # atno 7974 bound_to 7965
  154.5035  140.0828  156.7846 H   0  0  0  0  0  0  0  0  0  0  0  0  # atno 8008 bound_to 7997
  155.3948  140.3434  155.4235 H   0  0  0  0  0  0  0  0  0  0  0  0  # atno 8009 bound_to 7997
  156.1486  140.1551  156.8794 H   0  0  0  0  0  0  0  0  0  0  0  0  # atno 8010 bound_to 7997
  139.5076  144.3375  152.0051 H   0  0  0  0  0  0  0  0  0  0  0  0  # atno 10167 bound_to 10162
  157.6894  131.0125  150.2644 H   0  0  0  0  0  0  0  0  0  0  0  0  # atno 10718 bound_to 10713
  153.0078  135.6306  154.1982 H   0  0  0  0  0  0  0  0  0  0  0  0  # atno 10763 bound_to 10752
  154.1725  135.2817  155.3078 H   0  0  0  0  0  0  0  0  0  0  0  0  # atno 10764 bound_to 10752
  154.5897  135.5621  153.7326 H   0  0  0  0  0  0  0  0  0  0  0  0  # atno 10765 bound_to 10752
  141.1115  133.8696  157.1570 H   0  0  0  0  0  0  0  0  0  0  0  0  # atno 11005 bound_to 11000
  145.2531  139.2023  143.4931 LP  0  0  0  0  0  0  0  0  0  0  0  0  # atno 17320 bound_to 7965
  146.3387  140.2448  142.8596 LP  0  0  0  0  0  0  0  0  0  0  0  0  # atno 17321 bound_to 7965
  140.2813  144.3856  150.6118 LP  0  0  0  0  0  0  0  0  0  0  0  0  # atno 17342 bound_to 10162
  140.6016  143.2167  151.7062 LP  0  0  0  0  0  0  0  0  0  0  0  0  # atno 17343 bound_to 10162
  156.3217  130.3787  149.7569 LP  0  0  0  0  0  0  0  0  0  0  0  0  # atno 17370 bound_to 10713
  156.5137  130.8183  151.3178 LP  0  0  0  0  0  0  0  0  0  0  0  0  # atno 17371 bound_to 10713
  140.0012  135.0027  157.0194 LP  0  0  0  0  0  0  0  0  0  0  0  0  # atno 17394 bound_to 11000
  140.4761  134.1336  155.7210 LP  0  0  0  0  0  0  0  0  0  0  0  0  # atno 17395 bound_to 11000

$$$$
