AV-unprocessed.smi:1165|AV-procd|sdf|4931|dock5
  -GOLD-   22720 3513D 1   1.00000     0.00000
 Structure written by MMmdl.
 40 41  0  0  0  0  0  0  0  0  2 V2000
  151.5649  141.2571  156.5603 C   0  0  0  0  0  0  0  0  0  0  0  0
  150.8812  139.9831  156.0512 C   0  0  2  0  0  0  0  0  0  0  0  0
  151.4541  138.7189  156.7164 C   0  0  0  0  0  0  0  0  0  0  0  0
  150.8854  137.5051  156.1124 N   0  0  0  0  0  0  0  0  0  0  0  0
  151.0963  136.0042  156.9724 S   0  0  0  0  0  0  0  0  0  0  0  0
  150.5204  134.9737  156.0949 O   0  0  0  0  0  0  0  0  0  0  0  0
  152.5302  135.8959  157.2927 O   0  0  0  0  0  0  0  0  0  0  0  0
  150.1551  136.3173  158.2647 N   0  5  0  0  0  0  0  0  0  0  0  0
  148.7098  136.4739  158.1345 C   0  0  0  0  0  0  0  0  0  0  0  0
  148.1091  137.0263  159.4450 C   0  0  0  0  0  0  0  0  0  0  0  0
  147.4285  135.9807  160.3227 C   0  0  0  0  0  0  0  0  0  0  0  0
  146.8336  136.3393  161.5521 C   0  0  0  0  0  0  0  0  0  0  0  0
  146.2244  135.3375  162.3317 C   0  0  0  0  0  0  0  0  0  0  0  0
  146.2376  134.0134  161.8507 C   0  0  0  0  0  0  0  0  0  0  0  0
  146.8095  133.6536  160.6817 N   0  0  0  0  0  0  0  0  0  0  0  0
  147.3898  134.6213  159.9393 C   0  0  0  0  0  0  0  0  0  0  0  0
  151.0162  137.4860  154.6435 C   0  0  0  0  0  0  0  0  0  0  0  0
  150.4757  138.7839  154.0163 C   0  0  1  0  0  0  0  0  0  0  0  0
  148.9379  138.8538  153.9996 C   0  0  0  0  0  0  0  0  0  0  0  0
  151.0639  139.9226  154.6410 O   0  0  0  0  0  0  0  0  0  0  0  0
  151.4484  141.3609  157.6393 H   0  0  0  0  0  0  0  0  0  0  0  0
  151.1350  142.1434  156.0934 H   0  0  0  0  0  0  0  0  0  0  0  0
  152.6323  141.2482  156.3379 H   0  0  0  0  0  0  0  0  0  0  0  0
  149.8183  140.0616  156.2799 H   0  0  0  0  0  0  0  0  0  0  0  0
  152.5395  138.6864  156.6147 H   0  0  0  0  0  0  0  0  0  0  0  0
  151.2327  138.7413  157.7831 H   0  0  0  0  0  0  0  0  0  0  0  0
  148.4406  137.1399  157.3141 H   0  0  0  0  0  0  0  0  0  0  0  0
  148.2334  135.5194  157.9095 H   0  0  0  0  0  0  0  0  0  0  0  0
  148.9031  137.4916  160.0297 H   0  0  0  0  0  0  0  0  0  0  0  0
  147.3992  137.8245  159.2230 H   0  0  0  0  0  0  0  0  0  0  0  0
  146.8396  137.3656  161.8892 H   0  0  0  0  0  0  0  0  0  0  0  0
  145.7560  135.5797  163.2740 H   0  0  0  0  0  0  0  0  0  0  0  0
  145.7786  133.2206  162.4224 H   0  0  0  0  0  0  0  0  0  0  0  0
  147.8369  134.3007  159.0098 H   0  0  0  0  0  0  0  0  0  0  0  0
  152.0708  137.3654  154.3933 H   0  0  0  0  0  0  0  0  0  0  0  0
  150.4984  136.6255  154.2208 H   0  0  0  0  0  0  0  0  0  0  0  0
  150.8026  138.8092  152.9766 H   0  0  0  0  0  0  0  0  0  0  0  0
  148.5228  138.0490  153.3925 H   0  0  0  0  0  0  0  0  0  0  0  0
  148.5944  139.7978  153.5765 H   0  0  0  0  0  0  0  0  0  0  0  0
  148.5092  138.7551  154.9966 H   0  0  0  0  0  0  0  0  0  0  0  0
  1  2  1  0  0  0  0
  1 21  1  0  0  0  0
  1 22  1  0  0  0  0
  1 23  1  0  0  0  0
  2 20  1  0  0  0  0
  2  3  1  0  0  0  0
  2 24  1  0  0  0  0
  3  4  1  0  0  0  0
  3 25  1  0  0  0  0
  3 26  1  0  0  0  0
  4  5  1  0  0  0  0
  4 17  1  0  0  0  0
  5  6  2  0  0  0  0
  5  7  2  0  0  0  0
  5  8  1  0  0  0  0
  8  9  1  0  0  0  0
  9 10  1  0  0  0  0
  9 27  1  0  0  0  0
  9 28  1  0  0  0  0
 10 11  1  0  0  0  0
 10 29  1  0  0  0  0
 10 30  1  0  0  0  0
 11 16  1  0  0  0  0
 11 12  2  0  0  0  0
 12 13  1  0  0  0  0
 12 31  1  0  0  0  0
 13 14  2  0  0  0  0
 13 32  1  0  0  0  0
 14 15  1  0  0  0  0
 14 33  1  0  0  0  0
 15 16  2  0  0  0  0
 16 34  1  0  0  0  0
 17 18  1  0  0  0  0
 17 35  1  0  0  0  0
 17 36  1  0  0  0  0
 18 19  1  0  0  0  0
 18 20  1  0  0  0  0
 18 37  1  0  0  0  0
 19 38  1  0  0  0  0
 19 39  1  0  0  0  0
 19 40  1  0  0  0  0
M  CHG  1   8  -1
M  END
> <s_m_source_file>
AV-unprocessed.smi

> <i_m_source_file_index>
1165

> <i_lp_mmshare_version>
43012

> <i_f3d_flags>
0

> <s_epik_input>
W0NIM11bQ0BASF0xW0NIMl1OKFtDSDJdW0NASF0oTzEpW0NIM10pUyg9TykoPU8pW05IXVtDSDJdW0NIMl1jMltjSF1bY0hdW2NIXW5bY0hdMg==

> <s_epik_cmdline>
J2VwaWtfcHl0aG9uJywgJy1waCcsICc3LjAnLCAnLXRuJywgJzgnLCAnLW1hJywgJzIwMCcsICctbWV0YWxfYmluZGluZycsICctaW1hZScsICc8aW5maWxlLm1hZT4nLCAnLW9tYWUnLCAnPG91dGZpbGUubWFlPic=

> <r_epik_Ionization_Penalty>
1.23471

> <r_epik_Ionization_Penalty_Charging>
1.20871

> <r_epik_Ionization_Penalty_Neutral>
0.025996

> <r_epik_State_Penalty>
1.46261

> <r_epik_Charging_Adjusted_Penalty>
2.67132

> <i_epik_Tot_Q>
-1

> <i_epik_Tot_abs_Q>
1

> <r_epik_Metal_State_Penalty>
0.521406

> <b_epik_Metal_Only>
0

> <s_lp_Force_Field>
OPLS_2005

> <r_lp_Energy>
7.90597

> <b_lp_Chiralities_Consistent>
1

> <s_lp_Variant>
AV-unprocessed.smi:1165-4

> <Gold.Version>
5.8.1

> <Gold.Id.Protein>
6NUR|6NUR_protein|mol2

> <Gold.PLP.Fitness>
44.6480

> <Gold.PLP.PLP>
-34.9112

> <Gold.PLP.part.hbond>
-3.0000

> <Gold.PLP.part.metal>
0.0000

> <Gold.PLP.part.buried>
-5.7533

> <Gold.PLP.part.nonpolar>
-27.0152

> <Gold.PLP.part.repulsive>
0.1067

> <Gold.PLP.ligand.clash>
0.0000

> <Gold.PLP.ligand.torsion>
1.4684

> <Gold.PLP.Chemscore.Hbond>
3.6960

> <Gold.PLP.Chemscore.CHOScore>
0.0000

> <Gold.PLP.Chemscore.Metal>
0.0000

> <Gold.Chemscore.Hbonds>
donor molecule, donor type, donor heavy atom, donor atom, acceptor molecule, acceptor atom, score
      P1  H  6896  6909       L1     8  1.29
      P1  H  7989  7998       L1    20  1.00
      P1  H 10752 10765       L1     7  0.28

> <Gold.PLP.Chemscore.Internal.Correction>
1.5856

> <Gold.Rescore>
     Score         DG    S(hbond)    S(metal)    S(lipo)     H(rot)  DE(clash)    DE(int)     intcor
     17.58     -19.32       2.26        0.00      86.02       1.47       0.11       1.62       ----

> <Gold.Chemscore.Fitness>
17.5812

> <Gold.Chemscore.DG>
-19.3156

> <Gold.Chemscore.ZeroCoef>
-5.4800

> <Gold.Chemscore.Hbond>
2.2584

> <Gold.Chemscore.Metal>
0.0000

> <Gold.Chemscore.Lipo>
86.0157

> <Gold.Chemscore.Internal_Hbond>
0.0000

> <Gold.Chemscore.DEClash>
0.1105

> <Gold.Chemscore.DEInternal>
1.6238

> <Gold.Chemscore.Rot>
1.4731

> <Gold.Chemscore.Internal.Correction>
   9.000000E+99

> <Gold.Chemscore.Hbonds>
donor molecule, donor type, donor heavy atom, donor atom, acceptor molecule, acceptor atom, score
      P1  H  6896  6909       L1     8  0.21
      P1  H  7989  7998       L1    20  0.64
      P1  H 10752 10765       L1     7  0.20

> <Gold.Chemscore.Hbond.Weighted>
-7.5429

> <Gold.Chemscore.Metal.Weighted>
-0.0000

> <Gold.Chemscore.Lipo.Weighted>
-10.0638

> <Gold.Chemscore.Internal_Hbond.Weighted>
0.0000

> <Gold.Chemscore.DEClash.Weighted>
0.1105

> <Gold.Chemscore.DEInternal.Weighted>
1.6238

> <Gold.Chemscore.Rot.Weighted>
3.7712

> <Gold.Chemscore.Internal.Correction.Weighted>
   9.000000E+99

> <Gold.Protein.RotatedTorsions>
[ 6907 6896 6895 6894 ] final   78.51 input  -60.11 | X-H torsion
[ 7974 7965 7964 7962 ] final  122.37 input  175.53 | X-H torsion
[ 8008 7997 7996 7995 ] final   -4.25 input   59.86 | X-H torsion
[ 10167 10162 10161 10158 ] final   45.70 input  -65.29 | X-H torsion
[ 10718 10713 10712 10709 ] final -164.22 input   66.30 | X-H torsion
[ 10763 10752 10751 10750 ] final -108.25 input  -60.55 | X-H torsion
[ 11005 11000 10999 10996 ] final  172.56 input  -57.11 | X-H torsion

> <Gold.Protein.ActiveResidues>
 VAL166  LYS551  ARG553  GLY616  TRP617  ASP618  TYR619  PRO620  LYS621  CYS622 
 ASP623  PHE694  ASN695  SER759  ASP760  ASP761  ALA762  ILE779  LEU786  VAL792 
 PHE793  MET794  SER795  GLU796  ALA797  LYS798  CYS799  TRP800  GLU811  SER814 

> <Gold.Protein.RotatedAtoms>
  152.5162  134.3654  159.9299 H   0  0  0  0  0  0  0  0  0  0  0  0  # atno 6907 bound_to 6896
  151.3607  133.3884  159.2697 H   0  0  0  0  0  0  0  0  0  0  0  0  # atno 6908 bound_to 6896
  150.9654  134.9055  159.7814 H   0  0  0  0  0  0  0  0  0  0  0  0  # atno 6909 bound_to 6896
  145.1084  139.3470  143.4776 H   0  0  0  0  0  0  0  0  0  0  0  0  # atno 7974 bound_to 7965
  154.6163  140.2489  155.7605 H   0  0  0  0  0  0  0  0  0  0  0  0  # atno 8008 bound_to 7997
  156.2401  140.2936  156.0369 H   0  0  0  0  0  0  0  0  0  0  0  0  # atno 8009 bound_to 7997
  155.1970  140.0393  157.2901 H   0  0  0  0  0  0  0  0  0  0  0  0  # atno 8010 bound_to 7997
  140.3215  144.2700  150.6182 H   0  0  0  0  0  0  0  0  0  0  0  0  # atno 10167 bound_to 10162
  156.6358  130.8948  151.2986 H   0  0  0  0  0  0  0  0  0  0  0  0  # atno 10718 bound_to 10713
  154.8124  135.4645  154.0552 H   0  0  0  0  0  0  0  0  0  0  0  0  # atno 10763 bound_to 10752
  153.1972  135.6863  153.8284 H   0  0  0  0  0  0  0  0  0  0  0  0  # atno 10764 bound_to 10752
  153.7781  135.3260  155.3339 H   0  0  0  0  0  0  0  0  0  0  0  0  # atno 10765 bound_to 10752
  140.3310  134.7357  157.4134 H   0  0  0  0  0  0  0  0  0  0  0  0  # atno 11005 bound_to 11000
  146.3527  140.0991  142.8609 LP  0  0  0  0  0  0  0  0  0  0  0  0  # atno 17320 bound_to 7965
  145.0875  140.9262  143.4788 LP  0  0  0  0  0  0  0  0  0  0  0  0  # atno 17321 bound_to 7965
  140.5479  143.2211  151.7976 LP  0  0  0  0  0  0  0  0  0  0  0  0  # atno 17342 bound_to 10162
  139.4873  144.4515  151.9649 LP  0  0  0  0  0  0  0  0  0  0  0  0  # atno 17343 bound_to 10162
  157.7186  130.9529  150.1350 LP  0  0  0  0  0  0  0  0  0  0  0  0  # atno 17370 bound_to 10713
  156.2198  130.3673  149.8570 LP  0  0  0  0  0  0  0  0  0  0  0  0  # atno 17371 bound_to 10713
  140.0860  134.5665  155.8491 LP  0  0  0  0  0  0  0  0  0  0  0  0  # atno 17394 bound_to 11000
  141.2063  133.6654  156.6235 LP  0  0  0  0  0  0  0  0  0  0  0  0  # atno 17395 bound_to 11000

$$$$
