AV-unprocessed.smi:2300|AV-procd|sdf|9233|dock8
  -GOLD-   2272012453D 1   1.00000     0.00000
 Structure written by MMmdl.
 51 52  0  0  0  0  0  0  0  0  1 V2000
  157.3807  136.7052  165.6103 C   0  0  0  0  0  0  0  0  0  0  0  0
  156.4486  137.8573  165.2483 C   0  0  0  0  0  0  0  0  0  0  0  0
  155.8102  138.4299  166.1308 O   0  0  0  0  0  0  0  0  0  0  0  0
  156.3740  138.1847  163.9492 N   0  0  0  0  0  0  0  0  0  0  0  0
  155.5335  139.2422  163.3981 C   0  0  0  0  0  0  0  0  0  0  0  0
  154.8926  138.8235  162.0642 C   0  0  1  0  0  0  0  0  0  0  0  0
  154.3683  140.0378  161.2751 C   0  0  0  0  0  0  0  0  0  0  0  0
  153.8538  139.6174  159.9735 N   0  0  0  0  0  0  0  0  0  0  0  0
  153.0899  140.5454  159.2344 C   0  0  0  0  0  0  0  0  0  0  0  0
  152.7848  141.8215  159.7637 C   0  0  0  0  0  0  0  0  0  0  0  0
  152.0204  142.6862  158.9518 C   0  0  0  0  0  0  0  0  0  0  0  0
  151.6432  144.0835  159.4231 C   0  0  0  0  0  0  0  0  0  0  0  0
  152.1928  145.1701  158.4861 C   0  0  0  0  0  0  0  0  0  0  0  0
  152.0421  144.3184  160.8884 C   0  0  0  0  0  0  0  0  0  0  0  0
  151.5969  142.3133  157.7236 N   0  0  0  0  0  0  0  0  0  0  0  0
  151.9392  141.0908  157.3102 C   0  0  0  0  0  0  0  0  0  0  0  0
  151.4584  140.6737  155.9265 C   0  0  0  0  0  0  0  0  0  0  0  0
  149.9326  140.7925  155.7893 C   0  0  0  0  0  0  0  0  0  0  0  0
  151.9925  139.2900  155.5242 C   0  0  0  0  0  0  0  0  0  0  0  0
  152.6579  140.1976  157.9976 N   0  0  0  0  0  0  0  0  0  0  0  0
  154.8022  138.8168  159.2043 C   0  0  0  0  0  0  0  0  0  0  0  0
  155.3371  137.6545  160.0581 C   0  0  0  0  0  0  0  0  0  0  0  0
  155.8767  138.1578  161.2757 O   0  0  0  0  0  0  0  0  0  0  0  0
  158.0358  136.4440  164.7783 H   0  0  0  0  0  0  0  0  0  0  0  0
  156.7994  135.8228  165.8790 H   0  0  0  0  0  0  0  0  0  0  0  0
  158.0055  136.9766  166.4617 H   0  0  0  0  0  0  0  0  0  0  0  0
  156.9294  137.6556  163.2926 H   0  0  0  0  0  0  0  0  0  0  0  0
  154.7619  139.5126  164.1212 H   0  0  0  0  0  0  0  0  0  0  0  0
  156.1472  140.1322  163.2556 H   0  0  0  0  0  0  0  0  0  0  0  0
  154.0637  138.1409  162.2622 H   0  0  0  0  0  0  0  0  0  0  0  0
  153.5801  140.5270  161.8491 H   0  0  0  0  0  0  0  0  0  0  0  0
  155.1662  140.7672  161.1283 H   0  0  0  0  0  0  0  0  0  0  0  0
  153.1309  142.1366  160.7367 H   0  0  0  0  0  0  0  0  0  0  0  0
  150.5556  144.1533  159.3795 H   0  0  0  0  0  0  0  0  0  0  0  0
  151.8452  145.0171  157.4639 H   0  0  0  0  0  0  0  0  0  0  0  0
  153.2831  145.1713  158.4707 H   0  0  0  0  0  0  0  0  0  0  0  0
  151.8655  146.1612  158.8011 H   0  0  0  0  0  0  0  0  0  0  0  0
  151.5869  143.5734  161.5416 H   0  0  0  0  0  0  0  0  0  0  0  0
  151.7161  145.3006  161.2309 H   0  0  0  0  0  0  0  0  0  0  0  0
  153.1229  144.2632  161.0224 H   0  0  0  0  0  0  0  0  0  0  0  0
  151.8834  141.3813  155.2119 H   0  0  0  0  0  0  0  0  0  0  0  0
  149.5982  141.8068  156.0086 H   0  0  0  0  0  0  0  0  0  0  0  0
  149.4167  140.1164  156.4719 H   0  0  0  0  0  0  0  0  0  0  0  0
  149.6105  140.5504  154.7764 H   0  0  0  0  0  0  0  0  0  0  0  0
  153.0819  139.2642  155.5639 H   0  0  0  0  0  0  0  0  0  0  0  0
  151.6922  139.0344  154.5079 H   0  0  0  0  0  0  0  0  0  0  0  0
  151.6163  138.5095  156.1865 H   0  0  0  0  0  0  0  0  0  0  0  0
  154.3500  138.4124  158.3000 H   0  0  0  0  0  0  0  0  0  0  0  0
  155.6265  139.4575  158.8884 H   0  0  0  0  0  0  0  0  0  0  0  0
  154.5478  136.9310  160.2691 H   0  0  0  0  0  0  0  0  0  0  0  0
  156.1195  137.1217  159.5175 H   0  0  0  0  0  0  0  0  0  0  0  0
  1  2  1  0  0  0  0
  1 24  1  0  0  0  0
  1 25  1  0  0  0  0
  1 26  1  0  0  0  0
  2  3  2  0  0  0  0
  2  4  1  0  0  0  0
  4  5  1  0  0  0  0
  4 27  1  0  0  0  0
  5  6  1  0  0  0  0
  5 28  1  0  0  0  0
  5 29  1  0  0  0  0
  6 23  1  0  0  0  0
  6  7  1  0  0  0  0
  6 30  1  0  0  0  0
  7  8  1  0  0  0  0
  7 31  1  0  0  0  0
  7 32  1  0  0  0  0
  8  9  1  0  0  0  0
  8 21  1  0  0  0  0
  9 20  1  0  0  0  0
  9 10  2  0  0  0  0
 10 11  1  0  0  0  0
 10 33  1  0  0  0  0
 11 12  1  0  0  0  0
 11 15  2  0  0  0  0
 12 13  1  0  0  0  0
 12 14  1  0  0  0  0
 12 34  1  0  0  0  0
 13 35  1  0  0  0  0
 13 36  1  0  0  0  0
 13 37  1  0  0  0  0
 14 38  1  0  0  0  0
 14 39  1  0  0  0  0
 14 40  1  0  0  0  0
 15 16  1  0  0  0  0
 16 17  1  0  0  0  0
 16 20  2  0  0  0  0
 17 18  1  0  0  0  0
 17 19  1  0  0  0  0
 17 41  1  0  0  0  0
 18 42  1  0  0  0  0
 18 43  1  0  0  0  0
 18 44  1  0  0  0  0
 19 45  1  0  0  0  0
 19 46  1  0  0  0  0
 19 47  1  0  0  0  0
 21 22  1  0  0  0  0
 21 48  1  0  0  0  0
 21 49  1  0  0  0  0
 22 23  1  0  0  0  0
 22 50  1  0  0  0  0
 22 51  1  0  0  0  0
M  END
> <s_m_source_file>
AV-unprocessed.smi

> <i_m_source_file_index>
2300

> <i_lp_mmshare_version>
43012

> <i_f3d_flags>
0

> <s_epik_input>
W0NIM11DKD1PKVtOSF1bQ0gyXVtDQEBIXTFbQ0gyXU4oW0NIMl1bQ0gyXU8xKWMyW2NIXWMoW0NIXShbQ0gzXSlbQ0gzXSluYyhuMilbQ0hdKFtDSDNdKVtDSDNd

> <s_epik_cmdline>
J2VwaWtfcHl0aG9uJywgJy1waCcsICc3LjAnLCAnLXRuJywgJzgnLCAnLW1hJywgJzIwMCcsICctbWV0YWxfYmluZGluZycsICctaW1hZScsICc8aW5maWxlLm1hZT4nLCAnLW9tYWUnLCAnPG91dGZpbGUubWFlPic=

> <r_lp_tautomer_probability>
1

> <r_epik_Ionization_Penalty>
0.0035465

> <r_epik_Ionization_Penalty_Charging>
0

> <r_epik_Ionization_Penalty_Neutral>
0.0035465

> <r_epik_State_Penalty>
0.00247846

> <r_epik_Charging_Adjusted_Penalty>
0.00247846

> <i_epik_Tot_Q>
0

> <i_epik_Tot_abs_Q>
0

> <r_epik_Metal_State_Penalty>
-0

> <b_epik_Metal_Only>
0

> <s_lp_Force_Field>
OPLS_2005

> <r_lp_Energy>
1.47364

> <b_lp_Chiralities_Consistent>
1

> <s_lp_Variant>
AV-unprocessed.smi:2300-2

> <Gold.Version>
5.8.1

> <Gold.Id.Protein>
6NUR|6NUR_protein|mol2

> <Gold.PLP.Fitness>
40.1073

> <Gold.PLP.PLP>
-38.7890

> <Gold.PLP.part.hbond>
-1.4147

> <Gold.PLP.part.metal>
0.0000

> <Gold.PLP.part.buried>
-4.2310

> <Gold.PLP.part.nonpolar>
-30.8499

> <Gold.PLP.part.repulsive>
0.1552

> <Gold.PLP.ligand.clash>
0.0000

> <Gold.PLP.ligand.torsion>
0.6905

> <Gold.PLP.Chemscore.Hbond>
0.7415

> <Gold.PLP.Chemscore.CHOScore>
0.0000

> <Gold.PLP.Chemscore.Metal>
0.0000

> <Gold.Chemscore.Hbonds>
donor molecule, donor type, donor heavy atom, donor atom, acceptor molecule, acceptor atom, score
      P1  H  7997  8010       L1    20  0.73

> <Gold.PLP.Chemscore.Internal.Correction>
0.4747

> <Gold.Rescore>
     Score         DG    S(hbond)    S(metal)    S(lipo)     H(rot)  DE(clash)    DE(int)     intcor
     13.23     -13.92       0.22        0.00     105.50       1.82       0.05       0.64       ----

> <Gold.Chemscore.Fitness>
13.2347

> <Gold.Chemscore.DG>
-13.9227

> <Gold.Chemscore.ZeroCoef>
-5.4800

> <Gold.Chemscore.Hbond>
0.2236

> <Gold.Chemscore.Metal>
0.0000

> <Gold.Chemscore.Lipo>
105.5020

> <Gold.Chemscore.Internal_Hbond>
0.0000

> <Gold.Chemscore.DEClash>
0.0528

> <Gold.Chemscore.DEInternal>
0.6352

> <Gold.Chemscore.Rot>
1.8156

> <Gold.Chemscore.Internal.Correction>
   9.000000E+99

> <Gold.Chemscore.Hbonds>
donor molecule, donor type, donor heavy atom, donor atom, acceptor molecule, acceptor atom, score
      P1  H  7997  8010       L1    20  0.09

> <Gold.Chemscore.Hbond.Weighted>
-0.7470

> <Gold.Chemscore.Metal.Weighted>
-0.0000

> <Gold.Chemscore.Lipo.Weighted>
-12.3437

> <Gold.Chemscore.Internal_Hbond.Weighted>
0.0000

> <Gold.Chemscore.DEClash.Weighted>
0.0528

> <Gold.Chemscore.DEInternal.Weighted>
0.6352

> <Gold.Chemscore.Rot.Weighted>
4.6481

> <Gold.Chemscore.Internal.Correction.Weighted>
   9.000000E+99

> <Gold.Protein.RotatedTorsions>
[ 6907 6896 6895 6894 ] final   59.11 input  -60.11 | X-H torsion
[ 7974 7965 7964 7962 ] final   27.98 input  175.53 | X-H torsion
[ 8008 7997 7996 7995 ] final   44.34 input   59.86 | X-H torsion
[ 10167 10162 10161 10158 ] final  108.47 input  -65.29 | X-H torsion
[ 10718 10713 10712 10709 ] final  -10.64 input   66.30 | X-H torsion
[ 10763 10752 10751 10750 ] final -167.55 input  -60.55 | X-H torsion
[ 11005 11000 10999 10996 ] final  -94.54 input  -57.11 | X-H torsion

> <Gold.Protein.ActiveResidues>
 VAL166  LYS551  ARG553  GLY616  TRP617  ASP618  TYR619  PRO620  LYS621  CYS622 
 ASP623  PHE694  ASN695  SER759  ASP760  ASP761  ALA762  ILE779  LEU786  VAL792 
 PHE793  MET794  SER795  GLU796  ALA797  LYS798  CYS799  TRP800  GLU811  SER814 

> <Gold.Protein.RotatedAtoms>
  152.3885  134.6479  160.0116 H   0  0  0  0  0  0  0  0  0  0  0  0  # atno 6907 bound_to 6896
  151.6720  133.3308  159.3207 H   0  0  0  0  0  0  0  0  0  0  0  0  # atno 6908 bound_to 6896
  150.7806  134.6791  159.6478 H   0  0  0  0  0  0  0  0  0  0  0  0  # atno 6909 bound_to 6896
  146.1754  139.7118  142.8938 H   0  0  0  0  0  0  0  0  0  0  0  0  # atno 7974 bound_to 7965
  155.3176  140.3395  155.4242 H   0  0  0  0  0  0  0  0  0  0  0  0  # atno 8008 bound_to 7997
  156.1925  140.1703  156.8102 H   0  0  0  0  0  0  0  0  0  0  0  0  # atno 8009 bound_to 7997
  154.5459  140.0715  156.8571 H   0  0  0  0  0  0  0  0  0  0  0  0  # atno 8010 bound_to 7997
  139.6843  144.7115  151.1459 H   0  0  0  0  0  0  0  0  0  0  0  0  # atno 10167 bound_to 10162
  156.6706  130.5008  149.6001 H   0  0  0  0  0  0  0  0  0  0  0  0  # atno 10718 bound_to 10713
  154.6721  135.2941  154.9728 H   0  0  0  0  0  0  0  0  0  0  0  0  # atno 10763 bound_to 10752
  154.0752  135.6612  153.4834 H   0  0  0  0  0  0  0  0  0  0  0  0  # atno 10764 bound_to 10752
  153.0493  135.5184  154.7722 H   0  0  0  0  0  0  0  0  0  0  0  0  # atno 10765 bound_to 10752
  141.1467  133.7963  157.0311 H   0  0  0  0  0  0  0  0  0  0  0  0  # atno 11005 bound_to 11000
  145.4225  141.0408  143.2956 LP  0  0  0  0  0  0  0  0  0  0  0  0  # atno 17320 bound_to 7965
  144.8229  139.5761  143.6979 LP  0  0  0  0  0  0  0  0  0  0  0  0  # atno 17321 bound_to 7965
  140.7662  143.5652  150.9055 LP  0  0  0  0  0  0  0  0  0  0  0  0  # atno 17342 bound_to 10162
  139.9326  143.6475  152.3073 LP  0  0  0  0  0  0  0  0  0  0  0  0  # atno 17343 bound_to 10162
  156.1942  130.6579  151.1095 LP  0  0  0  0  0  0  0  0  0  0  0  0  # atno 17370 bound_to 10713
  157.7078  131.0748  150.6605 LP  0  0  0  0  0  0  0  0  0  0  0  0  # atno 17371 bound_to 10713
  140.0753  134.9679  157.1535 LP  0  0  0  0  0  0  0  0  0  0  0  0  # atno 17394 bound_to 11000
  140.3653  134.2450  155.7183 LP  0  0  0  0  0  0  0  0  0  0  0  0  # atno 17395 bound_to 11000

$$$$
