AV-unprocessed.smi:65|AV-procd|sdf|614|dock8
  -GOLD-   2262016503D 1   1.00000     0.00000
 Structure written by MMmdl.
 25 26  0  0  0  0  0  0  0  0  1 V2000
  149.1978  142.1320  156.2338 N   0  0  0  0  0  0  0  0  0  0  0  0
  150.1793  141.7606  157.1196 C   0  0  0  0  0  0  0  0  0  0  0  0
  150.3156  140.4527  157.3466 N   0  0  0  0  0  0  0  0  0  0  0  0
  151.2781  140.0867  158.2206 C   0  0  0  0  0  0  0  0  0  0  0  0
  152.0996  141.0361  158.8619 C   0  0  0  0  0  0  0  0  0  0  0  0
  151.8697  142.3899  158.5375 C   0  0  0  0  0  0  0  0  0  0  0  0
  152.6370  143.3893  159.1554 N   0  0  0  0  0  0  0  0  0  0  0  0
  152.7693  143.2203  160.6001 C   0  0  0  0  0  0  0  0  0  0  0  0
  152.3156  144.5361  161.2372 C   0  0  0  0  0  0  0  0  0  0  0  0
  152.6035  145.5535  160.1400 C   0  0  2  0  0  0  0  0  0  0  0  0
  151.8338  146.7292  160.2744 O   0  0  0  0  0  0  0  0  0  0  0  0
  152.2565  144.7715  158.8748 C   0  0  0  0  0  0  0  0  0  0  0  0
  150.8959  142.7459  157.6644 N   0  0  0  0  0  0  0  0  0  0  0  0
  149.0441  143.1067  156.0207 H   0  0  0  0  0  0  0  0  0  0  0  0
  148.6180  141.4337  155.7915 H   0  0  0  0  0  0  0  0  0  0  0  0
  151.3929  139.0301  158.4116 H   0  0  0  0  0  0  0  0  0  0  0  0
  152.8652  140.7389  159.5636 H   0  0  0  0  0  0  0  0  0  0  0  0
  152.1963  142.3751  160.9849 H   0  0  0  0  0  0  0  0  0  0  0  0
  153.8200  143.0341  160.8249 H   0  0  0  0  0  0  0  0  0  0  0  0
  151.2437  144.4915  161.4376 H   0  0  0  0  0  0  0  0  0  0  0  0
  152.8272  144.7561  162.1745 H   0  0  0  0  0  0  0  0  0  0  0  0
  153.6647  145.8078  160.1412 H   0  0  0  0  0  0  0  0  0  0  0  0
  151.7549  147.1355  159.4248 H   0  0  0  0  0  0  0  0  0  0  0  0
  152.7974  145.1550  158.0095 H   0  0  0  0  0  0  0  0  0  0  0  0
  151.1902  144.8554  158.6616 H   0  0  0  0  0  0  0  0  0  0  0  0
  1  2  1  0  0  0  0
  1 14  1  0  0  0  0
  1 15  1  0  0  0  0
  2 13  1  0  0  0  0
  2  3  2  0  0  0  0
  3  4  1  0  0  0  0
  4  5  2  0  0  0  0
  4 16  1  0  0  0  0
  5  6  1  0  0  0  0
  5 17  1  0  0  0  0
  6  7  1  0  0  0  0
  6 13  2  0  0  0  0
  7 12  1  0  0  0  0
  7  8  1  0  0  0  0
  8  9  1  0  0  0  0
  8 18  1  0  0  0  0
  8 19  1  0  0  0  0
  9 10  1  0  0  0  0
  9 20  1  0  0  0  0
  9 21  1  0  0  0  0
 10 11  1  0  0  0  0
 10 12  1  0  0  0  0
 10 22  1  0  0  0  0
 11 23  1  0  0  0  0
 12 24  1  0  0  0  0
 12 25  1  0  0  0  0
M  END
> <s_m_source_file>
AV-unprocessed.smi

> <i_m_source_file_index>
65

> <i_lp_mmshare_version>
43012

> <i_f3d_flags>
0

> <s_epik_input>
W05IMl1jMW5bY0hdW2NIXWMobjEpTjJbQ0gyXVtDSDJdW0NAQEhdKFtPSF0pW0NIMl0y

> <s_epik_cmdline>
J2VwaWtfcHl0aG9uJywgJy1waCcsICc3LjAnLCAnLXRuJywgJzgnLCAnLW1hJywgJzIwMCcsICctbWV0YWxfYmluZGluZycsICctaW1hZScsICc8aW5maWxlLm1hZT4nLCAnLW9tYWUnLCAnPG91dGZpbGUubWFlPic=

> <r_lp_tautomer_probability>
1

> <r_epik_Ionization_Penalty>
0.99295

> <r_epik_Ionization_Penalty_Charging>
0

> <r_epik_Ionization_Penalty_Neutral>
0.99295

> <r_epik_State_Penalty>
0.750885

> <r_epik_Charging_Adjusted_Penalty>
0.750885

> <i_epik_Tot_Q>
0

> <i_epik_Tot_abs_Q>
0

> <r_epik_Metal_State_Penalty>
0.338511

> <b_epik_Metal_Only>
0

> <s_lp_Force_Field>
OPLS_2005

> <r_lp_Energy>
21.5088

> <b_lp_Chiralities_Consistent>
1

> <s_lp_Variant>
AV-unprocessed.smi:65-4

> <Gold.Version>
5.8.1

> <Gold.Id.Protein>
6NUR|6NUR_protein|mol2

> <Gold.PLP.Fitness>
32.5204

> <Gold.PLP.PLP>
-29.8061

> <Gold.PLP.part.hbond>
-3.9682

> <Gold.PLP.part.metal>
0.0000

> <Gold.PLP.part.buried>
-5.7811

> <Gold.PLP.part.nonpolar>
-20.0912

> <Gold.PLP.part.repulsive>
0.2978

> <Gold.PLP.ligand.clash>
0.0000

> <Gold.PLP.ligand.torsion>
0.1758

> <Gold.PLP.Chemscore.Hbond>
1.0000

> <Gold.PLP.Chemscore.CHOScore>
0.0000

> <Gold.PLP.Chemscore.Metal>
0.0000

> <Gold.Chemscore.Hbonds>
donor molecule, donor type, donor heavy atom, donor atom, acceptor molecule, acceptor atom, score
      L1  H     1    14       P1  8028  1.00

> <Gold.PLP.Chemscore.Internal.Correction>
0.0659

> <Gold.Rescore>
     Score         DG    S(hbond)    S(metal)    S(lipo)     H(rot)  DE(clash)    DE(int)     intcor
     11.28     -12.02       1.00        0.00      61.26       1.55       0.67       0.07       ----

> <Gold.Chemscore.Fitness>
11.2786

> <Gold.Chemscore.DG>
-12.0181

> <Gold.Chemscore.ZeroCoef>
-5.4800

> <Gold.Chemscore.Hbond>
0.9992

> <Gold.Chemscore.Metal>
0.0000

> <Gold.Chemscore.Lipo>
61.2637

> <Gold.Chemscore.Internal_Hbond>
0.0000

> <Gold.Chemscore.DEClash>
0.6665

> <Gold.Chemscore.DEInternal>
0.0729

> <Gold.Chemscore.Rot>
1.5496

> <Gold.Chemscore.Internal.Correction>
   9.000000E+99

> <Gold.Chemscore.Hbonds>
donor molecule, donor type, donor heavy atom, donor atom, acceptor molecule, acceptor atom, score
      L1  H     1    14       P1  8028  1.00

> <Gold.Chemscore.Hbond.Weighted>
-3.3372

> <Gold.Chemscore.Metal.Weighted>
-0.0000

> <Gold.Chemscore.Lipo.Weighted>
-7.1679

> <Gold.Chemscore.Internal_Hbond.Weighted>
0.0000

> <Gold.Chemscore.DEClash.Weighted>
0.6665

> <Gold.Chemscore.DEInternal.Weighted>
0.0729

> <Gold.Chemscore.Rot.Weighted>
3.9670

> <Gold.Chemscore.Internal.Correction.Weighted>
   9.000000E+99

> <Gold.Protein.RotatedTorsions>
[ 6907 6896 6895 6894 ] final   62.63 input  -60.11 | X-H torsion
[ 7974 7965 7964 7962 ] final -177.16 input  175.53 | X-H torsion
[ 8008 7997 7996 7995 ] final  103.88 input   59.86 | X-H torsion
[ 10167 10162 10161 10158 ] final  164.40 input  -65.29 | X-H torsion
[ 10718 10713 10712 10709 ] final  119.12 input   66.30 | X-H torsion
[ 10763 10752 10751 10750 ] final   29.89 input  -60.55 | X-H torsion
[ 11005 11000 10999 10996 ] final -178.75 input  -57.11 | X-H torsion

> <Gold.Protein.ActiveResidues>
 VAL166  LYS551  ARG553  GLY616  TRP617  ASP618  TYR619  PRO620  LYS621  CYS622 
 ASP623  PHE694  ASN695  SER759  ASP760  ASP761  ALA762  ILE779  LEU786  VAL792 
 PHE793  MET794  SER795  GLU796  ALA797  LYS798  CYS799  TRP800  GLU811  SER814 

> <Gold.Protein.RotatedAtoms>
  152.4187  134.5994  159.9995 H   0  0  0  0  0  0  0  0  0  0  0  0  # atno 6907 bound_to 6896
  151.6150  133.3338  159.3083 H   0  0  0  0  0  0  0  0  0  0  0  0  # atno 6908 bound_to 6896
  150.8076  134.7249  159.6724 H   0  0  0  0  0  0  0  0  0  0  0  0  # atno 6909 bound_to 6896
  144.7127  140.1061  143.6414 H   0  0  0  0  0  0  0  0  0  0  0  0  # atno 7974 bound_to 7965
  156.1523  140.3157  155.8669 H   0  0  0  0  0  0  0  0  0  0  0  0  # atno 8008 bound_to 7997
  155.3946  140.0496  157.3056 H   0  0  0  0  0  0  0  0  0  0  0  0  # atno 8009 bound_to 7997
  154.5070  140.2150  155.9243 H   0  0  0  0  0  0  0  0  0  0  0  0  # atno 8010 bound_to 7997
  139.4888  144.4239  151.9153 H   0  0  0  0  0  0  0  0  0  0  0  0  # atno 10167 bound_to 10162
  157.5983  131.1055  150.7852 H   0  0  0  0  0  0  0  0  0  0  0  0  # atno 10718 bound_to 10713
  153.0403  135.6478  154.0960 H   0  0  0  0  0  0  0  0  0  0  0  0  # atno 10763 bound_to 10752
  154.0668  135.2883  155.3317 H   0  0  0  0  0  0  0  0  0  0  0  0  # atno 10764 bound_to 10752
  154.6621  135.5387  153.8096 H   0  0  0  0  0  0  0  0  0  0  0  0  # atno 10765 bound_to 10752
  140.4263  134.6560  157.4689 H   0  0  0  0  0  0  0  0  0  0  0  0  # atno 11005 bound_to 11000
  145.9495  139.2724  143.1220 LP  0  0  0  0  0  0  0  0  0  0  0  0  # atno 17320 bound_to 7965
  145.9338  140.9029  143.0343 LP  0  0  0  0  0  0  0  0  0  0  0  0  # atno 17321 bound_to 7965
  140.3684  144.2886  150.5923 LP  0  0  0  0  0  0  0  0  0  0  0  0  # atno 17342 bound_to 10162
  140.5341  143.2237  151.8192 LP  0  0  0  0  0  0  0  0  0  0  0  0  # atno 17343 bound_to 10162
  156.8257  130.4999  149.5337 LP  0  0  0  0  0  0  0  0  0  0  0  0  # atno 17370 bound_to 10713
  156.1051  130.5998  150.9957 LP  0  0  0  0  0  0  0  0  0  0  0  0  # atno 17371 bound_to 10713
  140.0165  134.6611  155.9302 LP  0  0  0  0  0  0  0  0  0  0  0  0  # atno 17394 bound_to 11000
  141.1764  133.6541  156.4844 LP  0  0  0  0  0  0  0  0  0  0  0  0  # atno 17395 bound_to 11000

$$$$
