AV-unprocessed.smi:244|AV-procd|sdf|1875|dock5
  -GOLD-   2262020513D 1   1.00000     0.00000
 Structure written by MMmdl.
 56 60  0  0  0  0  0  0  0  0  1 V2000
  152.0271  138.4760  157.7907 C   0  0  0  0  0  0  0  0  0  0  0  0
  151.6268  138.8814  159.1335 N   0  0  0  0  0  0  0  0  0  0  0  0
  152.7669  139.2797  159.9642 C   0  0  0  0  0  0  0  0  0  0  0  0
  153.3514  140.6475  159.5553 C   0  0  0  0  0  0  0  0  0  0  0  0
  152.2574  141.7201  159.5744 C   0  0  1  0  0  0  0  0  0  0  0  0
  152.7809  142.9661  159.1269 O   0  0  0  0  0  0  0  0  0  0  0  0
  151.8013  143.9983  159.1904 C   0  0  0  0  0  0  0  0  0  0  0  0
  150.6111  143.6355  158.2866 C   0  0  0  0  0  0  0  0  0  0  0  0
  150.0718  142.3297  158.6559 N   0  0  0  0  0  0  0  0  0  0  0  0
  148.9521  142.0171  157.9664 C   0  0  0  0  0  0  0  0  0  0  0  0
  147.7295  142.1659  158.5423 N   0  0  0  0  0  0  0  0  0  0  0  0
  146.6259  141.8891  157.8409 C   0  0  0  0  0  0  0  0  0  0  0  0
  146.5222  141.4705  156.5772 N   0  0  0  0  0  0  0  0  0  0  0  0
  147.7500  141.3229  156.0007 C   0  0  0  0  0  0  0  0  0  0  0  0
  149.0053  141.5647  156.6231 C   0  0  0  0  0  0  0  0  0  0  0  0
  150.0395  141.3035  155.7345 N   0  0  0  0  0  0  0  0  0  0  0  0
  149.4285  140.9284  154.6437 C   0  0  0  0  0  0  0  0  0  0  0  0
  148.0527  140.9327  154.7078 N   0  0  0  0  0  0  0  0  0  0  0  0
  147.1289  140.5815  153.6408 C   0  0  0  0  0  0  0  0  0  0  0  0
  146.8286  139.0645  153.5285 C   0  0  0  0  0  0  0  0  0  0  0  0
  148.0964  138.4371  153.4605 O   0  0  0  0  0  0  0  0  0  0  0  0
  146.0735  138.5061  154.7545 C   0  0  0  0  0  0  0  0  0  0  0  0
  145.7064  137.0218  154.5760 C   0  0  0  0  0  0  0  0  0  0  0  0
  144.9509  136.8462  153.3830 O   0  0  0  0  0  0  0  0  0  0  0  0
  145.6743  137.2039  152.2110 C   0  0  0  0  0  0  0  0  0  0  0  0
  146.0383  138.6991  152.2529 C   0  0  0  0  0  0  0  0  0  0  0  0
  151.0986  141.2857  158.6563 C   0  0  2  0  0  0  0  0  0  0  0  0
  150.5742  139.9017  159.1225 C   0  0  0  0  0  0  0  0  0  0  0  0
  152.7445  137.6566  157.8419 H   0  0  0  0  0  0  0  0  0  0  0  0
  152.4851  139.2891  157.2288 H   0  0  0  0  0  0  0  0  0  0  0  0
  151.1625  138.1223  157.2285 H   0  0  0  0  0  0  0  0  0  0  0  0
  152.4310  139.3291  161.0007 H   0  0  0  0  0  0  0  0  0  0  0  0
  153.5372  138.5088  159.9274 H   0  0  0  0  0  0  0  0  0  0  0  0
  154.1521  140.9246  160.2413 H   0  0  0  0  0  0  0  0  0  0  0  0
  153.8049  140.5899  158.5656 H   0  0  0  0  0  0  0  0  0  0  0  0
  151.8984  141.8331  160.5997 H   0  0  0  0  0  0  0  0  0  0  0  0
  151.4758  144.1443  160.2216 H   0  0  0  0  0  0  0  0  0  0  0  0
  152.2504  144.9359  158.8629 H   0  0  0  0  0  0  0  0  0  0  0  0
  149.8335  144.3959  158.3717 H   0  0  0  0  0  0  0  0  0  0  0  0
  150.9357  143.6219  157.2450 H   0  0  0  0  0  0  0  0  0  0  0  0
  145.6920  142.0284  158.3651 H   0  0  0  0  0  0  0  0  0  0  0  0
  149.9684  140.6506  153.7501 H   0  0  0  0  0  0  0  0  0  0  0  0
  146.2036  141.1367  153.8021 H   0  0  0  0  0  0  0  0  0  0  0  0
  147.5429  140.9516  152.7015 H   0  0  0  0  0  0  0  0  0  0  0  0
  148.6923  139.0120  153.0048 H   0  0  0  0  0  0  0  0  0  0  0  0
  146.6621  138.6427  155.6626 H   0  0  0  0  0  0  0  0  0  0  0  0
  145.1472  139.0608  154.9035 H   0  0  0  0  0  0  0  0  0  0  0  0
  146.5979  136.3936  154.5509 H   0  0  0  0  0  0  0  0  0  0  0  0
  145.1075  136.6831  155.4215 H   0  0  0  0  0  0  0  0  0  0  0  0
  146.5652  136.5816  152.1149 H   0  0  0  0  0  0  0  0  0  0  0  0
  145.0520  136.9977  151.3401 H   0  0  0  0  0  0  0  0  0  0  0  0
  145.1077  139.2648  152.2173 H   0  0  0  0  0  0  0  0  0  0  0  0
  146.6008  138.9756  151.3602 H   0  0  0  0  0  0  0  0  0  0  0  0
  151.4752  141.2018  157.6362 H   0  0  0  0  0  0  0  0  0  0  0  0
  149.7598  139.5528  158.4867 H   0  0  0  0  0  0  0  0  0  0  0  0
  150.1644  139.9868  160.1299 H   0  0  0  0  0  0  0  0  0  0  0  0
  1  2  1  0  0  0  0
  1 29  1  0  0  0  0
  1 30  1  0  0  0  0
  1 31  1  0  0  0  0
  2 28  1  0  0  0  0
  2  3  1  0  0  0  0
  3  4  1  0  0  0  0
  3 32  1  0  0  0  0
  3 33  1  0  0  0  0
  4  5  1  0  0  0  0
  4 34  1  0  0  0  0
  4 35  1  0  0  0  0
  5 27  1  0  0  0  0
  5  6  1  0  0  0  0
  5 36  1  0  0  0  0
  6  7  1  0  0  0  0
  7  8  1  0  0  0  0
  7 37  1  0  0  0  0
  7 38  1  0  0  0  0
  8  9  1  0  0  0  0
  8 39  1  0  0  0  0
  8 40  1  0  0  0  0
  9 10  1  0  0  0  0
  9 27  1  0  0  0  0
 10 15  1  0  0  0  0
 10 11  2  0  0  0  0
 11 12  1  0  0  0  0
 12 13  2  0  0  0  0
 12 41  1  0  0  0  0
 13 14  1  0  0  0  0
 14 18  1  0  0  0  0
 14 15  2  0  0  0  0
 15 16  1  0  0  0  0
 16 17  2  0  0  0  0
 17 18  1  0  0  0  0
 17 42  1  0  0  0  0
 18 19  1  0  0  0  0
 19 20  1  0  0  0  0
 19 43  1  0  0  0  0
 19 44  1  0  0  0  0
 20 26  1  0  0  0  0
 20 21  1  0  0  0  0
 20 22  1  0  0  0  0
 21 45  1  0  0  0  0
 22 23  1  0  0  0  0
 22 46  1  0  0  0  0
 22 47  1  0  0  0  0
 23 24  1  0  0  0  0
 23 48  1  0  0  0  0
 23 49  1  0  0  0  0
 24 25  1  0  0  0  0
 25 26  1  0  0  0  0
 25 50  1  0  0  0  0
 25 51  1  0  0  0  0
 26 52  1  0  0  0  0
 26 53  1  0  0  0  0
 27 28  1  0  0  0  0
 27 54  1  0  0  0  0
 28 55  1  0  0  0  0
 28 56  1  0  0  0  0
M  END
> <s_m_source_file>
AV-unprocessed.smi

> <i_m_source_file_index>
244

> <i_lp_mmshare_version>
43012

> <i_f3d_flags>
0

> <s_epik_input>
W0NIMl0xW0NIMl1OKFtDSDNdKVtDSDJdW0NAQEhdKFtDQEhdMTIpTihbQ0gyXVtDSDJdTzIpYyhuW2NIXW4zKWMoYzM0KW5bY0hdbjRbQ0gyXUM1KFtPSF0pW0NIMl1bQ0gyXU9bQ0gyXVtDSDJdNQ==

> <s_epik_cmdline>
J2VwaWtfcHl0aG9uJywgJy1waCcsICc3LjAnLCAnLXRuJywgJzgnLCAnLW1hJywgJzIwMCcsICctbWV0YWxfYmluZGluZycsICctaW1hZScsICc8aW5maWxlLm1hZT4nLCAnLW9tYWUnLCAnPG91dGZpbGUubWFlPic=

> <r_lp_tautomer_probability>
1

> <r_epik_Ionization_Penalty>
2.27765

> <r_epik_Ionization_Penalty_Charging>
0

> <r_epik_Ionization_Penalty_Neutral>
2.27765

> <r_epik_State_Penalty>
2.4114

> <r_epik_Charging_Adjusted_Penalty>
2.4114

> <i_epik_Tot_Q>
0

> <i_epik_Tot_abs_Q>
0

> <r_epik_Metal_State_Penalty>
2.39769

> <b_epik_Metal_Only>
0

> <s_lp_Force_Field>
OPLS_2005

> <r_lp_Energy>
45.6912

> <b_lp_Chiralities_Consistent>
1

> <s_lp_Variant>
AV-unprocessed.smi:244-12

> <Gold.Version>
5.8.1

> <Gold.Id.Protein>
6NUR|6NUR_protein|mol2

> <Gold.PLP.Fitness>
43.1379

> <Gold.PLP.PLP>
-39.1278

> <Gold.PLP.part.hbond>
-2.8882

> <Gold.PLP.part.metal>
0.0000

> <Gold.PLP.part.buried>
-1.3535

> <Gold.PLP.part.nonpolar>
-35.3108

> <Gold.PLP.part.repulsive>
0.4625

> <Gold.PLP.ligand.clash>
0.0000

> <Gold.PLP.ligand.torsion>
0.7241

> <Gold.PLP.Chemscore.Hbond>
0.9440

> <Gold.PLP.Chemscore.CHOScore>
0.8401

> <Gold.PLP.Chemscore.Metal>
0.0000

> <Gold.Chemscore.Hbonds>
donor molecule, donor type, donor heavy atom, donor atom, acceptor molecule, acceptor atom, score
      L1  H    21    45       P1  7957  0.34
      L1  C    17    42       P1  7957  0.63

> <Gold.PLP.Chemscore.Internal.Correction>
0.1060

> <Gold.Rescore>
     Score         DG    S(hbond)    S(metal)    S(lipo)     H(rot)  DE(clash)    DE(int)     intcor
     13.78     -15.07       0.99        0.00      98.66       2.06       0.79       0.49       ----

> <Gold.Chemscore.Fitness>
13.7821

> <Gold.Chemscore.DG>
-15.0687

> <Gold.Chemscore.ZeroCoef>
-5.4800

> <Gold.Chemscore.Hbond>
0.9947

> <Gold.Chemscore.Metal>
0.0000

> <Gold.Chemscore.Lipo>
98.6564

> <Gold.Chemscore.Internal_Hbond>
0.0000

> <Gold.Chemscore.DEClash>
0.7919

> <Gold.Chemscore.DEInternal>
0.4947

> <Gold.Chemscore.Rot>
2.0611

> <Gold.Chemscore.Internal.Correction>
   9.000000E+99

> <Gold.Chemscore.Hbonds>
donor molecule, donor type, donor heavy atom, donor atom, acceptor molecule, acceptor atom, score
      L1  H    21    45       P1  7957  0.34

> <Gold.Chemscore.Hbond.Weighted>
-3.3224

> <Gold.Chemscore.Metal.Weighted>
-0.0000

> <Gold.Chemscore.Lipo.Weighted>
-11.5428

> <Gold.Chemscore.Internal_Hbond.Weighted>
0.0000

> <Gold.Chemscore.DEClash.Weighted>
0.7919

> <Gold.Chemscore.DEInternal.Weighted>
0.4947

> <Gold.Chemscore.Rot.Weighted>
5.2765

> <Gold.Chemscore.Internal.Correction.Weighted>
   9.000000E+99

> <Gold.Protein.RotatedTorsions>
[ 6907 6896 6895 6894 ] final   -6.85 input  -60.11 | X-H torsion
[ 7974 7965 7964 7962 ] final  -39.96 input  175.53 | X-H torsion
[ 8008 7997 7996 7995 ] final  -24.39 input   59.86 | X-H torsion
[ 10167 10162 10161 10158 ] final -110.37 input  -65.29 | X-H torsion
[ 10718 10713 10712 10709 ] final  174.74 input   66.30 | X-H torsion
[ 10763 10752 10751 10750 ] final  179.56 input  -60.55 | X-H torsion
[ 11005 11000 10999 10996 ] final  132.15 input  -57.11 | X-H torsion

> <Gold.Protein.ActiveResidues>
 VAL166  LYS551  ARG553  GLY616  TRP617  ASP618  TYR619  PRO620  LYS621  CYS622 
 ASP623  PHE694  ASN695  SER759  ASP760  ASP761  ALA762  ILE779  LEU786  VAL792 
 PHE793  MET794  SER795  GLU796  ALA797  LYS798  CYS799  TRP800  GLU811  SER814 

> <Gold.Protein.RotatedAtoms>
  151.4589  135.1036  159.9718 H   0  0  0  0  0  0  0  0  0  0  0  0  # atno 6907 bound_to 6896
  152.4860  133.8371  159.7144 H   0  0  0  0  0  0  0  0  0  0  0  0  # atno 6908 bound_to 6896
  150.8971  133.7107  159.2916 H   0  0  0  0  0  0  0  0  0  0  0  0  # atno 6909 bound_to 6896
  146.0348  140.6685  142.9115 H   0  0  0  0  0  0  0  0  0  0  0  0  # atno 7974 bound_to 7965
  154.4532  140.1955  156.0457 H   0  0  0  0  0  0  0  0  0  0  0  0  # atno 8008 bound_to 7997
  156.0691  140.3287  155.7526 H   0  0  0  0  0  0  0  0  0  0  0  0  # atno 8009 bound_to 7997
  155.5291  140.0576  157.2883 H   0  0  0  0  0  0  0  0  0  0  0  0  # atno 8010 bound_to 7997
  140.1452  143.4246  152.1534 H   0  0  0  0  0  0  0  0  0  0  0  0  # atno 10167 bound_to 10162
  156.9452  131.0014  151.2960 H   0  0  0  0  0  0  0  0  0  0  0  0  # atno 10718 bound_to 10713
  154.5222  135.2794  155.1252 H   0  0  0  0  0  0  0  0  0  0  0  0  # atno 10763 bound_to 10752
  154.2805  135.6286  153.5349 H   0  0  0  0  0  0  0  0  0  0  0  0  # atno 10764 bound_to 10752
  152.9939  135.5650  154.5714 H   0  0  0  0  0  0  0  0  0  0  0  0  # atno 10765 bound_to 10752
  139.9772  134.9559  156.9540 H   0  0  0  0  0  0  0  0  0  0  0  0  # atno 11005 bound_to 11000
  144.7047  140.3801  143.7128 LP  0  0  0  0  0  0  0  0  0  0  0  0  # atno 17320 bound_to 7965
  145.6982  139.1655  143.2608 LP  0  0  0  0  0  0  0  0  0  0  0  0  # atno 17321 bound_to 7965
  139.5453  144.7292  151.4604 LP  0  0  0  0  0  0  0  0  0  0  0  0  # atno 17342 bound_to 10162
  140.6736  143.8238  150.7030 LP  0  0  0  0  0  0  0  0  0  0  0  0  # atno 17343 bound_to 10162
  157.5758  130.8342  149.8454 LP  0  0  0  0  0  0  0  0  0  0  0  0  # atno 17370 bound_to 10713
  156.0387  130.3744  150.1493 LP  0  0  0  0  0  0  0  0  0  0  0  0  # atno 17371 bound_to 10713
  140.5169  134.0946  155.7283 LP  0  0  0  0  0  0  0  0  0  0  0  0  # atno 17394 bound_to 11000
  141.1448  133.9074  157.2241 LP  0  0  0  0  0  0  0  0  0  0  0  0  # atno 17395 bound_to 11000

$$$$
