AV-unprocessed.smi:2169|AV-procd|sdf|8823|dock2
  -GOLD-   2272012 13D 1   1.00000     0.00000
 Structure written by MMmdl.
 45 46  0  0  0  0  0  0  0  0  2 V2000
  151.8079  140.8120  157.8227 C   0  0  0  0  0  0  0  0  0  0  0  0
  150.8908  139.9682  156.4698 S   0  0  0  0  0  0  0  0  0  0  0  0
  151.7510  139.9461  155.2768 O   0  0  0  0  0  0  0  0  0  0  0  0
  150.3481  138.7083  157.0004 O   0  0  0  0  0  0  0  0  0  0  0  0
  149.5503  141.0279  156.1399 N   0  0  0  0  0  0  0  0  0  0  0  0
  149.4012  141.6342  154.8016 C   0  0  0  0  0  0  0  0  0  0  0  0
  148.3407  140.9026  153.9595 C   0  0  0  0  0  0  0  0  0  0  0  0
  146.9980  140.8103  154.7044 C   0  0  0  0  0  0  0  0  0  0  0  0
  146.0224  140.0470  153.9317 N   0  0  0  0  0  0  0  0  0  0  0  0
  146.0297  138.7156  153.7793 C   0  0  0  0  0  0  0  0  0  0  0  0
  146.8617  137.9654  154.2905 O   0  0  0  0  0  0  0  0  0  0  0  0
  145.0237  138.2975  152.9985 N   0  0  0  0  0  0  0  0  0  0  0  0
  144.7700  136.9069  152.6412 C   0  0  0  0  0  0  0  0  0  0  0  0
  145.8486  136.3595  151.6915 C   0  0  0  0  0  0  0  0  0  0  0  0
  145.4141  135.0762  151.0113 C   0  0  0  0  0  0  0  0  0  0  0  0
  146.2957  133.9768  150.9132 C   0  0  0  0  0  0  0  0  0  0  0  0
  145.8613  132.7974  150.2727 C   0  0  0  0  0  0  0  0  0  0  0  0
  144.5552  132.7444  149.7439 C   0  0  0  0  0  0  0  0  0  0  0  0
  143.7404  133.8166  149.8561 N   0  3  0  0  0  0  0  0  0  0  0  0
  144.1185  134.9636  150.4623 C   0  0  0  0  0  0  0  0  0  0  0  0
  147.2195  140.1392  156.0677 C   0  0  0  0  0  0  0  0  0  0  0  0
  148.2881  140.8784  156.8918 C   0  0  0  0  0  0  0  0  0  0  0  0
  152.6754  140.2107  158.0931 H   0  0  0  0  0  0  0  0  0  0  0  0
  151.1663  140.9174  158.6957 H   0  0  0  0  0  0  0  0  0  0  0  0
  152.1477  141.7904  157.4877 H   0  0  0  0  0  0  0  0  0  0  0  0
  149.1085  142.6772  154.9279 H   0  0  0  0  0  0  0  0  0  0  0  0
  150.3580  141.6451  154.2804 H   0  0  0  0  0  0  0  0  0  0  0  0
  148.2092  141.4280  153.0129 H   0  0  0  0  0  0  0  0  0  0  0  0
  148.6927  139.9035  153.7044 H   0  0  0  0  0  0  0  0  0  0  0  0
  146.6120  141.8176  154.8745 H   0  0  0  0  0  0  0  0  0  0  0  0
  145.2950  140.5747  153.4715 H   0  0  0  0  0  0  0  0  0  0  0  0
  144.3893  138.9889  152.6254 H   0  0  0  0  0  0  0  0  0  0  0  0
  144.7085  136.2981  153.5450 H   0  0  0  0  0  0  0  0  0  0  0  0
  143.7914  136.8534  152.1632 H   0  0  0  0  0  0  0  0  0  0  0  0
  146.0920  137.1043  150.9325 H   0  0  0  0  0  0  0  0  0  0  0  0
  146.7727  136.1659  152.2380 H   0  0  0  0  0  0  0  0  0  0  0  0
  147.2938  134.0347  151.3227 H   0  0  0  0  0  0  0  0  0  0  0  0
  146.5210  131.9459  150.1888 H   0  0  0  0  0  0  0  0  0  0  0  0
  144.1411  131.8840  149.2385 H   0  0  0  0  0  0  0  0  0  0  0  0
  143.3790  135.7509  150.4882 H   0  0  0  0  0  0  0  0  0  0  0  0
  146.2833  140.1163  156.6270 H   0  0  0  0  0  0  0  0  0  0  0  0
  147.5138  139.0997  155.9267 H   0  0  0  0  0  0  0  0  0  0  0  0
  148.4654  140.3610  157.8343 H   0  0  0  0  0  0  0  0  0  0  0  0
  147.9237  141.8729  157.1517 H   0  0  0  0  0  0  0  0  0  0  0  0
  142.7992  133.7576  149.4665 H   0  0  0  0  0  0  0  0  0  0  0  0
  1  2  1  0  0  0  0
  1 23  1  0  0  0  0
  1 24  1  0  0  0  0
  1 25  1  0  0  0  0
  2  3  2  0  0  0  0
  2  4  2  0  0  0  0
  2  5  1  0  0  0  0
  5 22  1  0  0  0  0
  5  6  1  0  0  0  0
  6  7  1  0  0  0  0
  6 26  1  0  0  0  0
  6 27  1  0  0  0  0
  7  8  1  0  0  0  0
  7 28  1  0  0  0  0
  7 29  1  0  0  0  0
  8  9  1  0  0  0  0
  8 21  1  0  0  0  0
  8 30  1  0  0  0  0
  9 10  1  0  0  0  0
  9 31  1  0  0  0  0
 10 11  2  0  0  0  0
 10 12  1  0  0  0  0
 12 13  1  0  0  0  0
 12 32  1  0  0  0  0
 13 14  1  0  0  0  0
 13 33  1  0  0  0  0
 13 34  1  0  0  0  0
 14 15  1  0  0  0  0
 14 35  1  0  0  0  0
 14 36  1  0  0  0  0
 15 20  1  0  0  0  0
 15 16  2  0  0  0  0
 16 17  1  0  0  0  0
 16 37  1  0  0  0  0
 17 18  2  0  0  0  0
 17 38  1  0  0  0  0
 18 19  1  0  0  0  0
 18 39  1  0  0  0  0
 19 20  2  0  0  0  0
 19 45  1  0  0  0  0
 20 40  1  0  0  0  0
 21 22  1  0  0  0  0
 21 41  1  0  0  0  0
 21 42  1  0  0  0  0
 22 43  1  0  0  0  0
 22 44  1  0  0  0  0
M  CHG  1  19   1
M  END
> <s_m_source_file>
AV-unprocessed.smi

> <i_m_source_file_index>
2169

> <i_lp_mmshare_version>
43012

> <i_f3d_flags>
0

> <s_epik_input>
W0NIM11TKD1PKSg9TylOMVtDSDJdW0NIMl1bQ0hdKFtDSDJdW0NIMl0xKVtOSF1DKD1PKVtOSF1bQ0gyXVtDSDJdYzJbY0hdW2NIXVtjSF1uW2NIXTI=

> <s_epik_cmdline>
J2VwaWtfcHl0aG9uJywgJy1waCcsICc3LjAnLCAnLXRuJywgJzgnLCAnLW1hJywgJzIwMCcsICctbWV0YWxfYmluZGluZycsICctaW1hZScsICc8aW5maWxlLm1hZT4nLCAnLW9tYWUnLCAnPG91dGZpbGUubWFlPic=

> <r_epik_Ionization_Penalty>
2.21124

> <r_epik_Ionization_Penalty_Charging>
2.21119

> <r_epik_Ionization_Penalty_Neutral>
4.90089e-05

> <r_epik_State_Penalty>
2.35542

> <r_epik_Charging_Adjusted_Penalty>
4.56661

> <i_epik_Tot_Q>
1

> <i_epik_Tot_abs_Q>
1

> <r_epik_Metal_State_Penalty>
2.36951

> <b_epik_Metal_Only>
0

> <s_lp_Force_Field>
OPLS_2005

> <r_lp_Energy>
3.64161

> <b_lp_Chiralities_Consistent>
1

> <s_lp_Variant>
AV-unprocessed.smi:2169-2

> <Gold.Version>
5.8.1

> <Gold.Id.Protein>
6NUR|6NUR_protein|mol2

> <Gold.PLP.Fitness>
47.7077

> <Gold.PLP.PLP>
-34.2664

> <Gold.PLP.part.hbond>
-4.0000

> <Gold.PLP.part.metal>
0.0000

> <Gold.PLP.part.buried>
-1.8897

> <Gold.PLP.part.nonpolar>
-27.7555

> <Gold.PLP.part.repulsive>
0.1937

> <Gold.PLP.ligand.clash>
0.0000

> <Gold.PLP.ligand.torsion>
1.5027

> <Gold.PLP.Chemscore.Hbond>
4.7920

> <Gold.PLP.Chemscore.CHOScore>
0.0000

> <Gold.PLP.Chemscore.Metal>
0.0000

> <Gold.Chemscore.Hbonds>
donor molecule, donor type, donor heavy atom, donor atom, acceptor molecule, acceptor atom, score
      L1  H     9    31       P1 10175  0.93
      L1  H    12    32       P1 10175  1.00
      L1  H    19    45       P1 10186  1.86
      P1  H  7989  7998       L1     3  0.96

> <Gold.PLP.Chemscore.Internal.Correction>
2.0708

> <Gold.Rescore>
     Score         DG    S(hbond)    S(metal)    S(lipo)     H(rot)  DE(clash)    DE(int)     intcor
     20.09     -22.96       3.78        0.00      79.45       1.73       0.10       2.77       ----

> <Gold.Chemscore.Fitness>
20.0912

> <Gold.Chemscore.DG>
-22.9636

> <Gold.Chemscore.ZeroCoef>
-5.4800

> <Gold.Chemscore.Hbond>
3.7774

> <Gold.Chemscore.Metal>
0.0000

> <Gold.Chemscore.Lipo>
79.4457

> <Gold.Chemscore.Internal_Hbond>
0.0000

> <Gold.Chemscore.DEClash>
0.0982

> <Gold.Chemscore.DEInternal>
2.7741

> <Gold.Chemscore.Rot>
1.7297

> <Gold.Chemscore.Internal.Correction>
   9.000000E+99

> <Gold.Chemscore.Hbonds>
donor molecule, donor type, donor heavy atom, donor atom, acceptor molecule, acceptor atom, score
      L1  H     9    31       P1 10175  0.87
      L1  H    12    32       P1 10175  0.99
      L1  H    19    45       P1 10186  0.89
      P1  H  7989  7998       L1     3  0.89

> <Gold.Chemscore.Hbond.Weighted>
-12.6164

> <Gold.Chemscore.Metal.Weighted>
-0.0000

> <Gold.Chemscore.Lipo.Weighted>
-9.2951

> <Gold.Chemscore.Internal_Hbond.Weighted>
0.0000

> <Gold.Chemscore.DEClash.Weighted>
0.0982

> <Gold.Chemscore.DEInternal.Weighted>
2.7741

> <Gold.Chemscore.Rot.Weighted>
4.4280

> <Gold.Chemscore.Internal.Correction.Weighted>
   9.000000E+99

> <Gold.Protein.RotatedTorsions>
[ 6907 6896 6895 6894 ] final  -59.22 input  -60.11 | X-H torsion
[ 7974 7965 7964 7962 ] final  -50.87 input  175.53 | X-H torsion
[ 8008 7997 7996 7995 ] final  -69.54 input   59.86 | X-H torsion
[ 10167 10162 10161 10158 ] final  127.40 input  -65.29 | X-H torsion
[ 10718 10713 10712 10709 ] final  122.15 input   66.30 | X-H torsion
[ 10763 10752 10751 10750 ] final  -17.39 input  -60.55 | X-H torsion
[ 11005 11000 10999 10996 ] final  -27.62 input  -57.11 | X-H torsion

> <Gold.Protein.ActiveResidues>
 VAL166  LYS551  ARG553  GLY616  TRP617  ASP618  TYR619  PRO620  LYS621  CYS622 
 ASP623  PHE694  ASN695  SER759  ASP760  ASP761  ALA762  ILE779  LEU786  VAL792 
 PHE793  MET794  SER795  GLU796  ALA797  LYS798  CYS799  TRP800  GLU811  SER814 

> <Gold.Protein.RotatedAtoms>
  150.7947  134.6997  159.6542 H   0  0  0  0  0  0  0  0  0  0  0  0  # atno 6907 bound_to 6896
  152.4057  134.6207  160.0060 H   0  0  0  0  0  0  0  0  0  0  0  0  # atno 6908 bound_to 6896
  151.6465  133.3286  159.3178 H   0  0  0  0  0  0  0  0  0  0  0  0  # atno 6909 bound_to 6896
  145.9252  140.7799  142.9627 H   0  0  0  0  0  0  0  0  0  0  0  0  # atno 7974 bound_to 7965
  154.4946  140.0851  156.7669 H   0  0  0  0  0  0  0  0  0  0  0  0  # atno 8008 bound_to 7997
  155.4147  140.3443  155.4248 H   0  0  0  0  0  0  0  0  0  0  0  0  # atno 8009 bound_to 7997
  156.1377  140.1520  156.8957 H   0  0  0  0  0  0  0  0  0  0  0  0  # atno 8010 bound_to 7997
  139.5580  144.6862  151.4124 H   0  0  0  0  0  0  0  0  0  0  0  0  # atno 10167 bound_to 10162
  157.5764  131.1079  150.8271 H   0  0  0  0  0  0  0  0  0  0  0  0  # atno 10718 bound_to 10713
  153.5732  135.7007  153.5495 H   0  0  0  0  0  0  0  0  0  0  0  0  # atno 10763 bound_to 10752
  153.3326  135.4043  155.1507 H   0  0  0  0  0  0  0  0  0  0  0  0  # atno 10764 bound_to 10752
  154.8630  135.3722  154.5256 H   0  0  0  0  0  0  0  0  0  0  0  0  # atno 10765 bound_to 10752
  140.9135  133.7445  156.0703 H   0  0  0  0  0  0  0  0  0  0  0  0  # atno 11005 bound_to 11000
  144.6757  140.2038  143.7384 LP  0  0  0  0  0  0  0  0  0  0  0  0  # atno 17320 bound_to 7965
  145.8499  139.2170  143.1778 LP  0  0  0  0  0  0  0  0  0  0  0  0  # atno 17321 bound_to 7965
  140.6856  143.7981  150.7182 LP  0  0  0  0  0  0  0  0  0  0  0  0  # atno 17342 bound_to 10162
  140.1447  143.4410  152.2170 LP  0  0  0  0  0  0  0  0  0  0  0  0  # atno 17343 bound_to 10162
  156.8728  130.5152  149.5295 LP  0  0  0  0  0  0  0  0  0  0  0  0  # atno 17370 bound_to 10713
  156.0809  130.5819  150.9561 LP  0  0  0  0  0  0  0  0  0  0  0  0  # atno 17371 bound_to 10713
  140.8079  134.3433  157.5420 LP  0  0  0  0  0  0  0  0  0  0  0  0  # atno 17394 bound_to 11000
  139.8762  134.9237  156.3331 LP  0  0  0  0  0  0  0  0  0  0  0  0  # atno 17395 bound_to 11000

$$$$
