AV-unprocessed.smi:3311|AV-procd|sdf|12721|dock8
  -GOLD-   2272019 63D 1   1.00000     0.00000
 Structure written by MMmdl.
 44 45  0  0  0  0  0  0  0  0  2 V2000
  147.8095  132.2857  153.4529 C   0  0  0  0  0  0  0  0  0  0  0  0
  147.9586  133.5401  154.3329 C   0  0  2  0  0  0  0  0  0  0  0  0
  147.2197  134.6545  153.6995 N   0  3  0  0  0  0  0  0  0  0  0  0
  145.8612  134.3124  153.2234 C   0  0  0  0  0  0  0  0  0  0  0  0
  145.7250  134.4524  151.6878 C   0  0  0  0  0  0  0  0  0  0  0  0
  146.3557  135.6680  151.3298 O   0  0  0  0  0  0  0  0  0  0  0  0
  146.3986  133.3032  150.8980 C   0  0  0  0  0  0  0  0  0  0  0  0
  145.6416  131.9712  151.0431 C   0  0  0  0  0  0  0  0  0  0  0  0
  144.1723  132.1194  150.6182 C   0  0  0  0  0  0  0  0  0  0  0  0
  143.4752  133.2495  151.3918 C   0  0  0  0  0  0  0  0  0  0  0  0
  144.2438  134.5771  151.2594 C   0  0  0  0  0  0  0  0  0  0  0  0
  149.4402  133.9363  154.5782 C   0  0  1  0  0  0  0  0  0  0  0  0
  149.6054  135.3981  155.0359 C   0  0  0  0  0  0  0  0  0  0  0  0
  150.0945  133.0432  155.5263 N   0  0  0  0  0  0  0  0  0  0  0  0
  150.8039  133.3736  156.6630 C   0  0  0  0  0  0  0  0  0  0  0  0
  151.2257  132.2075  157.2349 C   0  0  0  0  0  0  0  0  0  0  0  0
  150.7157  131.2015  156.3678 C   0  0  0  0  0  0  0  0  0  0  0  0
  150.0380  131.7036  155.3485 N   0  0  0  0  0  0  0  0  0  0  0  0
  148.2484  131.4050  153.9224 H   0  0  0  0  0  0  0  0  0  0  0  0
  148.2912  132.4214  152.4841 H   0  0  0  0  0  0  0  0  0  0  0  0
  146.7583  132.0587  153.2720 H   0  0  0  0  0  0  0  0  0  0  0  0
  147.4966  133.3101  155.2948 H   0  0  0  0  0  0  0  0  0  0  0  0
  147.1442  135.4120  154.3639 H   0  0  0  0  0  0  0  0  0  0  0  0
  145.6336  133.2948  153.5406 H   0  0  0  0  0  0  0  0  0  0  0  0
  145.1367  134.9599  153.7195 H   0  0  0  0  0  0  0  0  0  0  0  0
  147.2893  135.5675  151.4421 H   0  0  0  0  0  0  0  0  0  0  0  0
  146.4316  133.5641  149.8388 H   0  0  0  0  0  0  0  0  0  0  0  0
  147.4379  133.1741  151.2014 H   0  0  0  0  0  0  0  0  0  0  0  0
  146.1242  131.2051  150.4355 H   0  0  0  0  0  0  0  0  0  0  0  0
  145.6949  131.6195  152.0736 H   0  0  0  0  0  0  0  0  0  0  0  0
  144.1223  132.3273  149.5485 H   0  0  0  0  0  0  0  0  0  0  0  0
  143.6427  131.1792  150.7744 H   0  0  0  0  0  0  0  0  0  0  0  0
  142.4578  133.3756  151.0202 H   0  0  0  0  0  0  0  0  0  0  0  0
  143.3805  132.9724  152.4419 H   0  0  0  0  0  0  0  0  0  0  0  0
  143.7431  135.3541  151.8390 H   0  0  0  0  0  0  0  0  0  0  0  0
  144.1916  134.8996  150.2180 H   0  0  0  0  0  0  0  0  0  0  0  0
  149.9746  133.8294  153.6328 H   0  0  0  0  0  0  0  0  0  0  0  0
  149.2613  136.0979  154.2744 H   0  0  0  0  0  0  0  0  0  0  0  0
  150.6527  135.6292  155.2328 H   0  0  0  0  0  0  0  0  0  0  0  0
  149.0448  135.5979  155.9498 H   0  0  0  0  0  0  0  0  0  0  0  0
  150.9494  134.3995  156.9677 H   0  0  0  0  0  0  0  0  0  0  0  0
  151.8084  132.0905  158.1365 H   0  0  0  0  0  0  0  0  0  0  0  0
  150.8166  130.1291  156.4482 H   0  0  0  0  0  0  0  0  0  0  0  0
  147.7535  134.9790  152.9060 H   0  0  0  0  0  0  0  0  0  0  0  0
  1  2  1  0  0  0  0
  1 19  1  0  0  0  0
  1 20  1  0  0  0  0
  1 21  1  0  0  0  0
  2  3  1  0  0  0  0
  2 12  1  0  0  0  0
  2 22  1  0  0  0  0
  3  4  1  0  0  0  0
  3 23  1  0  0  0  0
  3 44  1  0  0  0  0
  4  5  1  0  0  0  0
  4 24  1  0  0  0  0
  4 25  1  0  0  0  0
  5 11  1  0  0  0  0
  5  6  1  0  0  0  0
  5  7  1  0  0  0  0
  6 26  1  0  0  0  0
  7  8  1  0  0  0  0
  7 27  1  0  0  0  0
  7 28  1  0  0  0  0
  8  9  1  0  0  0  0
  8 29  1  0  0  0  0
  8 30  1  0  0  0  0
  9 10  1  0  0  0  0
  9 31  1  0  0  0  0
  9 32  1  0  0  0  0
 10 11  1  0  0  0  0
 10 33  1  0  0  0  0
 10 34  1  0  0  0  0
 11 35  1  0  0  0  0
 11 36  1  0  0  0  0
 12 13  1  0  0  0  0
 12 14  1  0  0  0  0
 12 37  1  0  0  0  0
 13 38  1  0  0  0  0
 13 39  1  0  0  0  0
 13 40  1  0  0  0  0
 14 18  1  0  0  0  0
 14 15  1  0  0  0  0
 15 16  2  0  0  0  0
 15 41  1  0  0  0  0
 16 17  1  0  0  0  0
 16 42  1  0  0  0  0
 17 18  2  0  0  0  0
 17 43  1  0  0  0  0
M  CHG  1   3   1
M  END
> <s_m_source_file>
AV-unprocessed.smi

> <i_m_source_file_index>
3311

> <i_lp_mmshare_version>
43012

> <i_f3d_flags>
0

> <s_epik_input>
bjFbY0hdW2NIXVtjSF1uMVtDQEBIXShbQ0gzXSlbQ0BIXShbQ0gzXSlbTkhdW0NIMl1DMihbT0hdKVtDSDJdW0NIMl1bQ0gyXVtDSDJdW0NIMl0y

> <s_epik_cmdline>
J2VwaWtfcHl0aG9uJywgJy1waCcsICc3LjAnLCAnLXRuJywgJzgnLCAnLW1hJywgJzIwMCcsICctbWV0YWxfYmluZGluZycsICctaW1hZScsICc8aW5maWxlLm1hZT4nLCAnLW9tYWUnLCAnPG91dGZpbGUubWFlPic=

> <r_lp_tautomer_probability>
1

> <r_epik_Ionization_Penalty>
0.0141403

> <r_epik_Ionization_Penalty_Charging>
0.0141276

> <r_epik_Ionization_Penalty_Neutral>
1.27139e-05

> <r_epik_State_Penalty>
0.0110334

> <r_epik_Charging_Adjusted_Penalty>
0.025161

> <i_epik_Tot_Q>
1

> <i_epik_Tot_abs_Q>
1

> <r_epik_Metal_State_Penalty>
0.0110573

> <b_epik_Metal_Only>
0

> <s_lp_Force_Field>
OPLS_2005

> <r_lp_Energy>
22.4961

> <b_lp_Chiralities_Consistent>
1

> <s_lp_Variant>
AV-unprocessed.smi:3311-3

> <Gold.Version>
5.8.1

> <Gold.Id.Protein>
6NUR|6NUR_protein|mol2

> <Gold.PLP.Fitness>
42.2516

> <Gold.PLP.PLP>
-35.1766

> <Gold.PLP.part.hbond>
-2.0000

> <Gold.PLP.part.metal>
0.0000

> <Gold.PLP.part.buried>
-4.6587

> <Gold.PLP.part.nonpolar>
-28.6699

> <Gold.PLP.part.repulsive>
0.0000

> <Gold.PLP.ligand.clash>
0.0000

> <Gold.PLP.ligand.torsion>
1.0331

> <Gold.PLP.Chemscore.Hbond>
3.0000

> <Gold.PLP.Chemscore.CHOScore>
0.0000

> <Gold.PLP.Chemscore.Metal>
0.0000

> <Gold.Chemscore.Hbonds>
donor molecule, donor type, donor heavy atom, donor atom, acceptor molecule, acceptor atom, score
      L1  H     3    44       P1  7948  2.00
      L1  H     6    26       P1  7948  1.00

> <Gold.PLP.Chemscore.Internal.Correction>
0.1412

> <Gold.Rescore>
     Score         DG    S(hbond)    S(metal)    S(lipo)     H(rot)  DE(clash)    DE(int)     intcor
     14.48     -16.48       1.98        0.00      84.35       2.14       0.01       1.98       ----

> <Gold.Chemscore.Fitness>
14.4845

> <Gold.Chemscore.DG>
-16.4751

> <Gold.Chemscore.ZeroCoef>
-5.4800

> <Gold.Chemscore.Hbond>
1.9793

> <Gold.Chemscore.Metal>
0.0000

> <Gold.Chemscore.Lipo>
84.3483

> <Gold.Chemscore.Internal_Hbond>
0.0000

> <Gold.Chemscore.DEClash>
0.0075

> <Gold.Chemscore.DEInternal>
1.9832

> <Gold.Chemscore.Rot>
2.1424

> <Gold.Chemscore.Internal.Correction>
   9.000000E+99

> <Gold.Chemscore.Hbonds>
donor molecule, donor type, donor heavy atom, donor atom, acceptor molecule, acceptor atom, score
      L1  H     3    44       P1  7948  0.94
      L1  H     6    26       P1  7948  0.94

> <Gold.Chemscore.Hbond.Weighted>
-6.6110

> <Gold.Chemscore.Metal.Weighted>
-0.0000

> <Gold.Chemscore.Lipo.Weighted>
-9.8688

> <Gold.Chemscore.Internal_Hbond.Weighted>
0.0000

> <Gold.Chemscore.DEClash.Weighted>
0.0075

> <Gold.Chemscore.DEInternal.Weighted>
1.9832

> <Gold.Chemscore.Rot.Weighted>
5.4846

> <Gold.Chemscore.Internal.Correction.Weighted>
   9.000000E+99

> <Gold.Protein.RotatedTorsions>
[ 6907 6896 6895 6894 ] final  -94.63 input  -60.11 | X-H torsion
[ 7974 7965 7964 7962 ] final  -57.28 input  175.53 | X-H torsion
[ 8008 7997 7996 7995 ] final   93.22 input   59.86 | X-H torsion
[ 10167 10162 10161 10158 ] final    1.21 input  -65.29 | X-H torsion
[ 10718 10713 10712 10709 ] final   24.50 input   66.30 | X-H torsion
[ 10763 10752 10751 10750 ] final -142.03 input  -60.55 | X-H torsion
[ 11005 11000 10999 10996 ] final   33.56 input  -57.11 | X-H torsion

> <Gold.Protein.ActiveResidues>
 VAL166  LYS551  ARG553  GLY616  TRP617  ASP618  TYR619  PRO620  LYS621  CYS622 
 ASP623  PHE694  ASN695  SER759  ASP760  ASP761  ALA762  ILE779  LEU786  VAL792 
 PHE793  MET794  SER795  GLU796  ALA797  LYS798  CYS799  TRP800  GLU811  SER814 

> <Gold.Protein.RotatedAtoms>
  150.6946  134.1782  159.4238 H   0  0  0  0  0  0  0  0  0  0  0  0  # atno 6907 bound_to 6896
  151.9757  135.0052  160.0564 H   0  0  0  0  0  0  0  0  0  0  0  0  # atno 6908 bound_to 6896
  152.1801  133.4666  159.4990 H   0  0  0  0  0  0  0  0  0  0  0  0  # atno 6909 bound_to 6896
  145.8529  140.8340  142.9976 H   0  0  0  0  0  0  0  0  0  0  0  0  # atno 7974 bound_to 7965
  156.0443  140.3315  155.7279 H   0  0  0  0  0  0  0  0  0  0  0  0  # atno 8008 bound_to 7997
  155.5697  140.0627  157.2827 H   0  0  0  0  0  0  0  0  0  0  0  0  # atno 8009 bound_to 7997
  154.4407  140.1863  156.0855 H   0  0  0  0  0  0  0  0  0  0  0  0  # atno 8010 bound_to 7997
  140.6693  143.7092  150.7891 H   0  0  0  0  0  0  0  0  0  0  0  0  # atno 10167 bound_to 10162
  157.1806  130.6801  149.6112 H   0  0  0  0  0  0  0  0  0  0  0  0  # atno 10718 bound_to 10713
  154.8524  135.3507  154.5963 H   0  0  0  0  0  0  0  0  0  0  0  0  # atno 10763 bound_to 10752
  153.6572  135.6991  153.5194 H   0  0  0  0  0  0  0  0  0  0  0  0  # atno 10764 bound_to 10752
  153.2846  135.4253  155.1068 H   0  0  0  0  0  0  0  0  0  0  0  0  # atno 10765 bound_to 10752
  140.2618  134.3183  155.7855 H   0  0  0  0  0  0  0  0  0  0  0  0  # atno 11005 bound_to 11000
  144.6728  140.0979  143.7462 LP  0  0  0  0  0  0  0  0  0  0  0  0  # atno 17320 bound_to 7965
  145.9337  139.2623  143.1310 LP  0  0  0  0  0  0  0  0  0  0  0  0  # atno 17321 bound_to 7965
  140.0775  143.5001  152.2548 LP  0  0  0  0  0  0  0  0  0  0  0  0  # atno 17342 bound_to 10162
  139.5955  144.7565  151.3297 LP  0  0  0  0  0  0  0  0  0  0  0  0  # atno 17343 bound_to 10162
  155.9725  130.4648  150.6230 LP  0  0  0  0  0  0  0  0  0  0  0  0  # atno 17370 bound_to 10713
  157.3956  131.0802  151.1355 LP  0  0  0  0  0  0  0  0  0  0  0  0  # atno 17371 bound_to 10713
  141.2189  133.7414  156.9199 LP  0  0  0  0  0  0  0  0  0  0  0  0  # atno 17394 bound_to 11000
  140.1457  134.9264  157.2526 LP  0  0  0  0  0  0  0  0  0  0  0  0  # atno 17395 bound_to 11000

$$$$
