AV-unprocessed.smi:1867|AV-procd|sdf|7572|dock4
  -GOLD-   22720 9283D 1   1.00000     0.00000
 Structure written by MMmdl.
 53 56  0  0  0  0  0  0  0  0  3 V2000
  145.6752  138.2708  153.8401 O   0  0  0  0  0  0  0  0  0  0  0  0
  146.5009  137.7724  153.0793 C   0  0  0  0  0  0  0  0  0  0  0  0
  147.8179  138.0595  153.0818 N   0  0  0  0  0  0  0  0  0  0  0  0
  148.5202  139.0064  153.8762 C   0  0  0  0  0  0  0  0  0  0  0  0
  148.0104  140.2800  154.2341 C   0  0  0  0  0  0  0  0  0  0  0  0
  148.7994  141.1499  155.0142 C   0  0  0  0  0  0  0  0  0  0  0  0
  150.0926  140.7447  155.4179 C   0  0  0  0  0  0  0  0  0  0  0  0
  150.9501  141.5315  156.1999 N   0  0  0  0  0  0  0  0  0  0  0  0
  150.4520  142.8537  156.5438 C   0  0  0  0  0  0  0  0  0  0  0  0
  151.3205  143.3289  157.7116 C   0  0  0  0  0  0  0  0  0  0  0  0
  151.9099  142.0475  158.3128 C   0  0  0  0  0  0  0  0  0  0  0  0
  151.3465  140.9129  157.4534 C   0  0  0  0  0  0  0  0  0  0  0  0
  150.5444  139.5272  155.0461 N   0  3  0  0  0  0  0  0  0  0  0  0
  149.8212  138.6636  154.3009 C   0  0  0  0  0  0  0  0  0  0  0  0
  146.1371  136.8468  152.1735 N   0  0  0  0  0  0  0  0  0  0  0  0
  144.7999  136.3107  151.9093 C   0  0  2  0  0  0  0  0  0  0  0  0
  144.0727  135.8748  153.1752 C   0  0  0  0  0  0  0  0  0  0  0  0
  142.9765  134.9473  152.6425 C   0  0  0  0  0  0  0  0  0  0  0  0
  143.4824  134.3721  151.3723 N   0  3  2  0  0  0  0  0  0  0  0  0
  143.5024  132.8849  151.3495 C   0  0  0  0  0  0  0  0  0  0  0  0
  144.3771  132.3644  150.1997 C   0  0  0  0  0  0  0  0  0  0  0  0
  145.8425  132.8117  150.3580 C   0  0  0  0  0  0  0  0  0  0  0  0
  145.9826  134.0805  151.2207 C   0  0  0  0  0  0  0  0  0  0  0  0
  144.7768  135.0358  151.0422 C   0  0  2  0  0  0  0  0  0  0  0  0
  148.3911  137.5086  152.4601 H   0  0  0  0  0  0  0  0  0  0  0  0
  147.0349  140.6159  153.9189 H   0  0  0  0  0  0  0  0  0  0  0  0
  148.4078  142.1164  155.2959 H   0  0  0  0  0  0  0  0  0  0  0  0
  150.5225  143.5317  155.6925 H   0  0  0  0  0  0  0  0  0  0  0  0
  149.4069  142.8101  156.8517 H   0  0  0  0  0  0  0  0  0  0  0  0
  152.1234  143.9733  157.3509 H   0  0  0  0  0  0  0  0  0  0  0  0
  150.7393  143.8984  158.4374 H   0  0  0  0  0  0  0  0  0  0  0  0
  152.9984  142.0717  158.2448 H   0  0  0  0  0  0  0  0  0  0  0  0
  151.6460  141.9226  159.3633 H   0  0  0  0  0  0  0  0  0  0  0  0
  150.4832  140.4615  157.9447 H   0  0  0  0  0  0  0  0  0  0  0  0
  152.0876  140.1303  157.2881 H   0  0  0  0  0  0  0  0  0  0  0  0
  150.3046  137.7247  154.0728 H   0  0  0  0  0  0  0  0  0  0  0  0
  146.8805  136.4646  151.6060 H   0  0  0  0  0  0  0  0  0  0  0  0
  144.1849  137.0772  151.4329 H   0  0  0  0  0  0  0  0  0  0  0  0
  144.7460  135.3144  153.8258 H   0  0  0  0  0  0  0  0  0  0  0  0
  143.6739  136.7131  153.7473 H   0  0  0  0  0  0  0  0  0  0  0  0
  142.6974  134.1912  153.3776 H   0  0  0  0  0  0  0  0  0  0  0  0
  142.0792  135.5233  152.4140 H   0  0  0  0  0  0  0  0  0  0  0  0
  143.8871  132.4988  152.2951 H   0  0  0  0  0  0  0  0  0  0  0  0
  142.4803  132.5181  151.2511 H   0  0  0  0  0  0  0  0  0  0  0  0
  144.3244  131.2769  150.1407 H   0  0  0  0  0  0  0  0  0  0  0  0
  143.9806  132.7398  149.2553 H   0  0  0  0  0  0  0  0  0  0  0  0
  146.4316  132.0118  150.8080 H   0  0  0  0  0  0  0  0  0  0  0  0
  146.2699  132.9820  149.3692 H   0  0  0  0  0  0  0  0  0  0  0  0
  146.0629  133.7945  152.2705 H   0  0  0  0  0  0  0  0  0  0  0  0
  146.9204  134.5767  150.9702 H   0  0  0  0  0  0  0  0  0  0  0  0
  144.7440  135.3268  149.9912 H   0  0  0  0  0  0  0  0  0  0  0  0
  142.8333  134.6606  150.6540 H   0  0  0  0  0  0  0  0  0  0  0  0
  151.4799  139.2472  155.3426 H   0  0  0  0  0  0  0  0  0  0  0  0
  1  2  2  0  0  0  0
  2  3  1  0  0  0  0
  2 15  1  0  0  0  0
  3  4  1  0  0  0  0
  3 25  1  0  0  0  0
  4 14  1  0  0  0  0
  4  5  2  0  0  0  0
  5  6  1  0  0  0  0
  5 26  1  0  0  0  0
  6  7  2  0  0  0  0
  6 27  1  0  0  0  0
  7  8  1  0  0  0  0
  7 13  1  0  0  0  0
  8 12  1  0  0  0  0
  8  9  1  0  0  0  0
  9 10  1  0  0  0  0
  9 28  1  0  0  0  0
  9 29  1  0  0  0  0
 10 11  1  0  0  0  0
 10 30  1  0  0  0  0
 10 31  1  0  0  0  0
 11 12  1  0  0  0  0
 11 32  1  0  0  0  0
 11 33  1  0  0  0  0
 12 34  1  0  0  0  0
 12 35  1  0  0  0  0
 13 14  2  0  0  0  0
 13 53  1  0  0  0  0
 14 36  1  0  0  0  0
 15 16  1  0  0  0  0
 15 37  1  0  0  0  0
 16 24  1  0  0  0  0
 16 17  1  0  0  0  0
 16 38  1  0  0  0  0
 17 18  1  0  0  0  0
 17 39  1  0  0  0  0
 17 40  1  0  0  0  0
 18 19  1  0  0  0  0
 18 41  1  0  0  0  0
 18 42  1  0  0  0  0
 19 24  1  0  0  0  0
 19 20  1  0  0  0  0
 19 52  1  0  0  0  0
 20 21  1  0  0  0  0
 20 43  1  0  0  0  0
 20 44  1  0  0  0  0
 21 22  1  0  0  0  0
 21 45  1  0  0  0  0
 21 46  1  0  0  0  0
 22 23  1  0  0  0  0
 22 47  1  0  0  0  0
 22 48  1  0  0  0  0
 23 24  1  0  0  0  0
 23 49  1  0  0  0  0
 23 50  1  0  0  0  0
 24 51  1  0  0  0  0
M  CHG  1  13   1
M  CHG  1  19   1
M  END
> <s_m_source_file>
AV-unprocessed.smi

> <i_m_source_file_index>
1867

> <i_lp_mmshare_version>
43012

> <i_f3d_flags>
0

> <s_epik_input>
W0NIMl0xW0NIMl1bQ0gyXVtDSDJdW0NASF0oTjEyKVtDQEBIXShbQ0gyXVtDSDJdMilbTkhdQyg9TylbTkhdYzNbY0hdW2NIXWMobltjSF0zKU40W0NIMl1bQ0gyXVtDSDJdW0NIMl00

> <s_epik_cmdline>
J2VwaWtfcHl0aG9uJywgJy1waCcsICc3LjAnLCAnLXRuJywgJzgnLCAnLW1hJywgJzIwMCcsICctbWV0YWxfYmluZGluZycsICctaW1hZScsICc8aW5maWxlLm1hZT4nLCAnLW9tYWUnLCAnPG91dGZpbGUubWFlPic=

> <r_lp_tautomer_probability>
0.999994

> <r_epik_Ionization_Penalty>
1.27347

> <r_epik_Ionization_Penalty_Charging>
1.27345

> <r_epik_Ionization_Penalty_Neutral>
1.96458e-05

> <r_epik_State_Penalty>
1.34393

> <r_epik_Charging_Adjusted_Penalty>
2.61738

> <i_epik_Tot_Q>
2

> <i_epik_Tot_abs_Q>
2

> <r_epik_Metal_State_Penalty>
1.41094

> <b_epik_Metal_Only>
0

> <s_lp_Force_Field>
OPLS_2005

> <r_lp_Energy>
89.9373

> <b_lp_Chiralities_Consistent>
1

> <s_lp_Variant>
AV-unprocessed.smi:1867-13

> <Gold.Version>
5.8.1

> <Gold.Id.Protein>
6NUR|6NUR_protein|mol2

> <Gold.PLP.Fitness>
49.2726

> <Gold.PLP.PLP>
-40.6087

> <Gold.PLP.part.hbond>
-3.1071

> <Gold.PLP.part.metal>
0.0000

> <Gold.PLP.part.buried>
-1.4080

> <Gold.PLP.part.nonpolar>
-37.6673

> <Gold.PLP.part.repulsive>
0.4105

> <Gold.PLP.ligand.clash>
0.0000

> <Gold.PLP.ligand.torsion>
0.4140

> <Gold.PLP.Chemscore.Hbond>
3.1571

> <Gold.PLP.Chemscore.CHOScore>
0.0000

> <Gold.PLP.Chemscore.Metal>
0.0000

> <Gold.Chemscore.Hbonds>
donor molecule, donor type, donor heavy atom, donor atom, acceptor molecule, acceptor atom, score
      L1  H     3    25       P1  7948  0.93
      L1  H    15    37       P1  7948  0.64
      L1  H    19    52       P1 10186  1.42

> <Gold.PLP.Chemscore.Internal.Correction>
0.0208

> <Gold.Rescore>
     Score         DG    S(hbond)    S(metal)    S(lipo)     H(rot)  DE(clash)    DE(int)     intcor
     18.98     -20.78       1.85        0.00     104.13       1.20       0.07       1.73       ----

> <Gold.Chemscore.Fitness>
18.9775

> <Gold.Chemscore.DG>
-20.7785

> <Gold.Chemscore.ZeroCoef>
-5.4800

> <Gold.Chemscore.Hbond>
1.8486

> <Gold.Chemscore.Metal>
0.0000

> <Gold.Chemscore.Lipo>
104.1314

> <Gold.Chemscore.Internal_Hbond>
0.0000

> <Gold.Chemscore.DEClash>
0.0714

> <Gold.Chemscore.DEInternal>
1.7296

> <Gold.Chemscore.Rot>
1.1950

> <Gold.Chemscore.Internal.Correction>
   9.000000E+99

> <Gold.Chemscore.Hbonds>
donor molecule, donor type, donor heavy atom, donor atom, acceptor molecule, acceptor atom, score
      L1  H     3    25       P1  7948  0.88
      L1  H    15    37       P1  7948  0.63
      L1  H    19    52       P1 10186  0.15

> <Gold.Chemscore.Hbond.Weighted>
-6.1744

> <Gold.Chemscore.Metal.Weighted>
-0.0000

> <Gold.Chemscore.Lipo.Weighted>
-12.1834

> <Gold.Chemscore.Internal_Hbond.Weighted>
0.0000

> <Gold.Chemscore.DEClash.Weighted>
0.0714

> <Gold.Chemscore.DEInternal.Weighted>
1.7296

> <Gold.Chemscore.Rot.Weighted>
3.0593

> <Gold.Chemscore.Internal.Correction.Weighted>
   9.000000E+99

> <Gold.Protein.RotatedTorsions>
[ 6907 6896 6895 6894 ] final   41.46 input  -60.11 | X-H torsion
[ 7974 7965 7964 7962 ] final   48.34 input  175.53 | X-H torsion
[ 8008 7997 7996 7995 ] final  125.99 input   59.86 | X-H torsion
[ 10167 10162 10161 10158 ] final  -41.08 input  -65.29 | X-H torsion
[ 10718 10713 10712 10709 ] final -156.88 input   66.30 | X-H torsion
[ 10763 10752 10751 10750 ] final -176.83 input  -60.55 | X-H torsion
[ 11005 11000 10999 10996 ] final  -68.25 input  -57.11 | X-H torsion

> <Gold.Protein.ActiveResidues>
 VAL166  LYS551  ARG553  GLY616  TRP617  ASP618  TYR619  PRO620  LYS621  CYS622 
 ASP623  PHE694  ASN695  SER759  ASP760  ASP761  ALA762  ILE779  LEU786  VAL792 
 PHE793  MET794  SER795  GLU796  ALA797  LYS798  CYS799  TRP800  GLU811  SER814 

> <Gold.Protein.RotatedAtoms>
  152.1955  134.8634  160.0513 H   0  0  0  0  0  0  0  0  0  0  0  0  # atno 6907 bound_to 6896
  151.9507  133.3660  159.4007 H   0  0  0  0  0  0  0  0  0  0  0  0  # atno 6908 bound_to 6896
  150.6944  134.4267  159.5273 H   0  0  0  0  0  0  0  0  0  0  0  0  # atno 6909 bound_to 6896
  146.0213  139.4655  142.9895 H   0  0  0  0  0  0  0  0  0  0  0  0  # atno 7974 bound_to 7965
  156.2851  140.2703  156.2039 H   0  0  0  0  0  0  0  0  0  0  0  0  # atno 8008 bound_to 7997
  155.0333  140.0386  157.2500 H   0  0  0  0  0  0  0  0  0  0  0  0  # atno 8009 bound_to 7997
  154.7336  140.2711  155.6440 H   0  0  0  0  0  0  0  0  0  0  0  0  # atno 8010 bound_to 7997
  140.7014  143.3115  151.3016 H   0  0  0  0  0  0  0  0  0  0  0  0  # atno 10167 bound_to 10162
  156.5326  130.8527  151.2721 H   0  0  0  0  0  0  0  0  0  0  0  0  # atno 10718 bound_to 10713
  154.5676  135.2825  155.0859 H   0  0  0  0  0  0  0  0  0  0  0  0  # atno 10763 bound_to 10752
  154.2244  135.6385  153.5158 H   0  0  0  0  0  0  0  0  0  0  0  0  # atno 10764 bound_to 10752
  153.0047  135.5522  154.6289 H   0  0  0  0  0  0  0  0  0  0  0  0  # atno 10765 bound_to 10752
  141.1527  133.6737  156.6418 H   0  0  0  0  0  0  0  0  0  0  0  0  # atno 11005 bound_to 11000
  145.7188  141.0082  143.1413 LP  0  0  0  0  0  0  0  0  0  0  0  0  # atno 17320 bound_to 7965
  144.6991  139.8846  143.7449 LP  0  0  0  0  0  0  0  0  0  0  0  0  # atno 17321 bound_to 7965
  139.6540  144.0311  152.2646 LP  0  0  0  0  0  0  0  0  0  0  0  0  # atno 17342 bound_to 10162
  139.9856  144.6398  150.7861 LP  0  0  0  0  0  0  0  0  0  0  0  0  # atno 17343 bound_to 10162
  157.7419  130.9879  150.2478 LP  0  0  0  0  0  0  0  0  0  0  0  0  # atno 17370 bound_to 10713
  156.3046  130.3763  149.7718 LP  0  0  0  0  0  0  0  0  0  0  0  0  # atno 17371 bound_to 10713
  140.3388  134.7867  157.4382 LP  0  0  0  0  0  0  0  0  0  0  0  0  # atno 17394 bound_to 11000
  140.0955  134.5543  155.8402 LP  0  0  0  0  0  0  0  0  0  0  0  0  # atno 17395 bound_to 11000

$$$$
