AV-unprocessed.smi:2143|AV-procd|sdf|8727|dock9
  -GOLD-   2272011493D 1   1.00000     0.00000
 Structure written by MMmdl.
 44 45  0  0  0  0  0  0  0  0  1 V2000
  152.2558  143.9314  160.4315 C   0  0  0  0  0  0  0  0  0  0  0  0
  152.6867  142.7083  159.6007 C   0  0  1  0  0  0  0  0  0  0  0  0
  153.1629  141.5878  160.5465 C   0  0  0  0  0  0  0  0  0  0  0  0
  153.6370  140.3517  159.7749 C   0  0  0  0  0  0  0  0  0  0  0  0
  152.5249  139.8270  158.8626 C   0  0  0  0  0  0  0  0  0  0  0  0
  152.0360  140.9177  157.8894 C   0  0  1  0  0  0  0  0  0  0  0  0
  150.9509  140.3802  157.0701 N   0  0  0  0  0  0  0  0  0  0  0  0
  151.0024  140.1804  155.7444 C   0  0  0  0  0  0  0  0  0  0  0  0
  151.9884  140.4511  155.0575 O   0  0  0  0  0  0  0  0  0  0  0  0
  149.7348  139.6023  155.1009 C   0  0  0  0  0  0  0  0  0  0  0  0
  148.5801  140.5044  155.1999 N   0  0  0  0  0  0  0  0  0  0  0  0
  148.0595  141.0804  154.0556 C   0  0  0  0  0  0  0  0  0  0  0  0
  146.9892  141.9046  154.0574 C   0  0  0  0  0  0  0  0  0  0  0  0
  146.3069  142.2438  155.3003 C   0  0  0  0  0  0  0  0  0  0  0  0
  145.3171  142.9752  155.3437 O   0  0  0  0  0  0  0  0  0  0  0  0
  146.8689  141.6530  156.4576 N   0  0  0  0  0  0  0  0  0  0  0  0
  146.2500  141.9128  157.7409 C   0  0  0  0  0  0  0  0  0  0  0  0
  147.9790  140.7797  156.4470 C   0  0  0  0  0  0  0  0  0  0  0  0
  148.4129  140.2647  157.4807 O   0  0  0  0  0  0  0  0  0  0  0  0
  151.5746  142.1965  158.6406 C   0  0  2  0  0  0  0  0  0  0  0  0
  151.1206  143.2896  157.6483 C   0  0  0  0  0  0  0  0  0  0  0  0
  151.3481  143.7253  160.9991 H   0  0  0  0  0  0  0  0  0  0  0  0
  152.0732  144.8050  159.8068 H   0  0  0  0  0  0  0  0  0  0  0  0
  153.0326  144.2138  161.1427 H   0  0  0  0  0  0  0  0  0  0  0  0
  153.5417  143.0111  158.9941 H   0  0  0  0  0  0  0  0  0  0  0  0
  153.9761  141.9508  161.1760 H   0  0  0  0  0  0  0  0  0  0  0  0
  152.3538  141.3063  161.2222 H   0  0  0  0  0  0  0  0  0  0  0  0
  154.5168  140.6008  159.1801 H   0  0  0  0  0  0  0  0  0  0  0  0
  153.9436  139.5725  160.4732 H   0  0  0  0  0  0  0  0  0  0  0  0
  152.8905  138.9619  158.3081 H   0  0  0  0  0  0  0  0  0  0  0  0
  151.6918  139.4729  159.4718 H   0  0  0  0  0  0  0  0  0  0  0  0
  152.8668  141.1961  157.2378 H   0  0  0  0  0  0  0  0  0  0  0  0
  150.0980  140.1348  157.5518 H   0  0  0  0  0  0  0  0  0  0  0  0
  149.9277  139.3581  154.0545 H   0  0  0  0  0  0  0  0  0  0  0  0
  149.5093  138.6527  155.5882 H   0  0  0  0  0  0  0  0  0  0  0  0
  148.5271  140.8563  153.1077 H   0  0  0  0  0  0  0  0  0  0  0  0
  146.6305  142.3161  153.1253 H   0  0  0  0  0  0  0  0  0  0  0  0
  147.0385  142.0823  158.4763 H   0  0  0  0  0  0  0  0  0  0  0  0
  145.6547  141.0327  157.9890 H   0  0  0  0  0  0  0  0  0  0  0  0
  145.6285  142.8069  157.6950 H   0  0  0  0  0  0  0  0  0  0  0  0
  150.7092  141.9290  159.2496 H   0  0  0  0  0  0  0  0  0  0  0  0
  151.9549  143.6414  157.0411 H   0  0  0  0  0  0  0  0  0  0  0  0
  150.6934  144.1501  158.1612 H   0  0  0  0  0  0  0  0  0  0  0  0
  150.3484  142.9288  156.9693 H   0  0  0  0  0  0  0  0  0  0  0  0
  1  2  1  0  0  0  0
  1 22  1  0  0  0  0
  1 23  1  0  0  0  0
  1 24  1  0  0  0  0
  2 20  1  0  0  0  0
  2  3  1  0  0  0  0
  2 25  1  0  0  0  0
  3  4  1  0  0  0  0
  3 26  1  0  0  0  0
  3 27  1  0  0  0  0
  4  5  1  0  0  0  0
  4 28  1  0  0  0  0
  4 29  1  0  0  0  0
  5  6  1  0  0  0  0
  5 30  1  0  0  0  0
  5 31  1  0  0  0  0
  6  7  1  0  0  0  0
  6 20  1  0  0  0  0
  6 32  1  0  0  0  0
  7  8  1  0  0  0  0
  7 33  1  0  0  0  0
  8  9  2  0  0  0  0
  8 10  1  0  0  0  0
 10 11  1  0  0  0  0
 10 34  1  0  0  0  0
 10 35  1  0  0  0  0
 11 18  1  0  0  0  0
 11 12  1  0  0  0  0
 12 13  2  0  0  0  0
 12 36  1  0  0  0  0
 13 14  1  0  0  0  0
 13 37  1  0  0  0  0
 14 15  2  0  0  0  0
 14 16  1  0  0  0  0
 16 17  1  0  0  0  0
 16 18  1  0  0  0  0
 17 38  1  0  0  0  0
 17 39  1  0  0  0  0
 17 40  1  0  0  0  0
 18 19  2  0  0  0  0
 20 21  1  0  0  0  0
 20 41  1  0  0  0  0
 21 42  1  0  0  0  0
 21 43  1  0  0  0  0
 21 44  1  0  0  0  0
M  END
> <s_m_source_file>
AV-unprocessed.smi

> <i_m_source_file_index>
2143

> <i_lp_mmshare_version>
43012

> <i_f3d_flags>
0

> <s_epik_input>
W0NIM11bQ0BASF0xW0NIMl1bQ0gyXVtDSDJdW0NASF0oW0NASF0xW0NIM10pW05IXUMoPU8pW0NIMl1uMltjSF1bY0hdYyg9TyluKFtDSDNdKWMyPU8=

> <s_epik_cmdline>
J2VwaWtfcHl0aG9uJywgJy1waCcsICc3LjAnLCAnLXRuJywgJzgnLCAnLW1hJywgJzIwMCcsICctbWV0YWxfYmluZGluZycsICctaW1hZScsICc8aW5maWxlLm1hZT4nLCAnLW9tYWUnLCAnPG91dGZpbGUubWFlPic=

> <r_lp_tautomer_probability>
1

> <r_epik_Ionization_Penalty>
3.18445e-08

> <r_epik_Ionization_Penalty_Charging>
1.27977e-08

> <r_epik_Ionization_Penalty_Neutral>
1.90469e-08

> <r_epik_State_Penalty>
-0

> <r_epik_Charging_Adjusted_Penalty>
1.27977e-08

> <i_epik_Tot_Q>
0

> <i_epik_Tot_abs_Q>
0

> <r_epik_Metal_State_Penalty>
-0

> <b_epik_Metal_Only>
0

> <s_lp_Force_Field>
OPLS_2005

> <r_lp_Energy>
20.3985

> <b_lp_Chiralities_Consistent>
1

> <s_lp_Variant>
AV-unprocessed.smi:2143-6

> <Gold.Version>
5.8.1

> <Gold.Id.Protein>
6NUR|6NUR_protein|mol2

> <Gold.PLP.Fitness>
45.9435

> <Gold.PLP.PLP>
-40.7868

> <Gold.PLP.part.hbond>
-1.0000

> <Gold.PLP.part.metal>
0.0000

> <Gold.PLP.part.buried>
-5.7753

> <Gold.PLP.part.nonpolar>
-34.0720

> <Gold.PLP.part.repulsive>
0.3107

> <Gold.PLP.ligand.clash>
0.0000

> <Gold.PLP.ligand.torsion>
0.1017

> <Gold.PLP.Chemscore.Hbond>
0.7840

> <Gold.PLP.Chemscore.CHOScore>
1.0000

> <Gold.PLP.Chemscore.Metal>
0.0000

> <Gold.Chemscore.Hbonds>
donor molecule, donor type, donor heavy atom, donor atom, acceptor molecule, acceptor atom, score
      P1  H  7989  7998       L1     9  0.69
      L1  C    12    36       P1  7957  1.00

> <Gold.PLP.Chemscore.Internal.Correction>
0.0082

> <Gold.Rescore>
     Score         DG    S(hbond)    S(metal)    S(lipo)     H(rot)  DE(clash)    DE(int)     intcor
     14.23     -16.07       0.85        0.00      99.45       1.51       0.02       1.81       ----

> <Gold.Chemscore.Fitness>
14.2317

> <Gold.Chemscore.DG>
-16.0655

> <Gold.Chemscore.ZeroCoef>
-5.4800

> <Gold.Chemscore.Hbond>
0.8453

> <Gold.Chemscore.Metal>
0.0000

> <Gold.Chemscore.Lipo>
99.4502

> <Gold.Chemscore.Internal_Hbond>
0.0000

> <Gold.Chemscore.DEClash>
0.0243

> <Gold.Chemscore.DEInternal>
1.8094

> <Gold.Chemscore.Rot>
1.5131

> <Gold.Chemscore.Internal.Correction>
   9.000000E+99

> <Gold.Chemscore.Hbonds>
donor molecule, donor type, donor heavy atom, donor atom, acceptor molecule, acceptor atom, score
      P1  H  7989  7998       L1     9  0.63

> <Gold.Chemscore.Hbond.Weighted>
-2.8233

> <Gold.Chemscore.Metal.Weighted>
-0.0000

> <Gold.Chemscore.Lipo.Weighted>
-11.6357

> <Gold.Chemscore.Internal_Hbond.Weighted>
0.0000

> <Gold.Chemscore.DEClash.Weighted>
0.0243

> <Gold.Chemscore.DEInternal.Weighted>
1.8094

> <Gold.Chemscore.Rot.Weighted>
3.8734

> <Gold.Chemscore.Internal.Correction.Weighted>
   9.000000E+99

> <Gold.Protein.RotatedTorsions>
[ 6907 6896 6895 6894 ] final  -98.28 input  -60.11 | X-H torsion
[ 7974 7965 7964 7962 ] final  162.39 input  175.53 | X-H torsion
[ 8008 7997 7996 7995 ] final  -23.75 input   59.86 | X-H torsion
[ 10167 10162 10161 10158 ] final -165.01 input  -65.29 | X-H torsion
[ 10718 10713 10712 10709 ] final -163.66 input   66.30 | X-H torsion
[ 10763 10752 10751 10750 ] final  141.70 input  -60.55 | X-H torsion
[ 11005 11000 10999 10996 ] final   24.70 input  -57.11 | X-H torsion

> <Gold.Protein.ActiveResidues>
 VAL166  LYS551  ARG553  GLY616  TRP617  ASP618  TYR619  PRO620  LYS621  CYS622 
 ASP623  PHE694  ASN695  SER759  ASP760  ASP761  ALA762  ILE779  LEU786  VAL792 
 PHE793  MET794  SER795  GLU796  ALA797  LYS798  CYS799  TRP800  GLU811  SER814 

> <Gold.Protein.RotatedAtoms>
  150.7042  134.1219  159.4037 H   0  0  0  0  0  0  0  0  0  0  0  0  # atno 6907 bound_to 6896
  151.9206  135.0298  160.0531 H   0  0  0  0  0  0  0  0  0  0  0  0  # atno 6908 bound_to 6896
  152.2260  133.4985  159.5225 H   0  0  0  0  0  0  0  0  0  0  0  0  # atno 6909 bound_to 6896
  144.7639  139.8034  143.6322 H   0  0  0  0  0  0  0  0  0  0  0  0  # atno 7974 bound_to 7965
  154.4567  140.1972  156.0359 H   0  0  0  0  0  0  0  0  0  0  0  0  # atno 8008 bound_to 7997
  156.0760  140.3278  155.7607 H   0  0  0  0  0  0  0  0  0  0  0  0  # atno 8009 bound_to 7997
  155.5187  140.0568  157.2901 H   0  0  0  0  0  0  0  0  0  0  0  0  # atno 8010 bound_to 7997
  139.6211  144.0622  152.1933 H   0  0  0  0  0  0  0  0  0  0  0  0  # atno 10167 bound_to 10162
  156.6279  130.8917  151.2971 H   0  0  0  0  0  0  0  0  0  0  0  0  # atno 10718 bound_to 10713
  153.9436  135.2977  155.3441 H   0  0  0  0  0  0  0  0  0  0  0  0  # atno 10763 bound_to 10752
  154.7464  135.5001  153.9215 H   0  0  0  0  0  0  0  0  0  0  0  0  # atno 10764 bound_to 10752
  153.1030  135.6739  153.9745 H   0  0  0  0  0  0  0  0  0  0  0  0  # atno 10765 bound_to 10752
  140.3559  134.2178  155.7676 H   0  0  0  0  0  0  0  0  0  0  0  0  # atno 11005 bound_to 11000
  146.1728  139.4885  142.9917 LP  0  0  0  0  0  0  0  0  0  0  0  0  # atno 17320 bound_to 7965
  145.6532  141.0258  143.1749 LP  0  0  0  0  0  0  0  0  0  0  0  0  # atno 17321 bound_to 7965
  140.0264  144.6114  150.7523 LP  0  0  0  0  0  0  0  0  0  0  0  0  # atno 17342 bound_to 10162
  140.7382  143.2776  151.3695 LP  0  0  0  0  0  0  0  0  0  0  0  0  # atno 17343 bound_to 10162
  157.7209  130.9557  150.1434 LP  0  0  0  0  0  0  0  0  0  0  0  0  # atno 17370 bound_to 10713
  156.2259  130.3678  149.8502 LP  0  0  0  0  0  0  0  0  0  0  0  0  # atno 17371 bound_to 10713
  141.1998  133.8001  157.0517 LP  0  0  0  0  0  0  0  0  0  0  0  0  # atno 17394 bound_to 11000
  140.0665  134.9726  157.1395 LP  0  0  0  0  0  0  0  0  0  0  0  0  # atno 17395 bound_to 11000

$$$$
