AV-unprocessed.smi:1499|AV-procd|sdf|6062|dock9
  -GOLD-   22720 6183D 1   1.00000     0.00000
 Structure written by MMmdl.
 40 41  0  0  0  0  0  0  0  0  1 V2000
  150.4504  141.0596  157.4693 C   0  0  0  0  0  0  0  0  0  0  0  0
  150.6031  141.3706  155.9725 C   0  0  0  0  0  0  0  0  0  0  0  0
  150.9530  140.1846  155.1923 N   0  0  0  0  0  0  0  0  0  0  0  0
  152.1949  139.6135  155.7235 C   0  0  0  0  0  0  0  0  0  0  0  0
  152.6019  138.3658  154.9152 C   0  0  0  0  0  0  0  0  0  0  0  0
  151.5177  137.3759  154.9988 N   0  0  0  0  0  0  0  0  0  0  0  0
  151.5332  136.2147  155.7001 C   0  0  0  0  0  0  0  0  0  0  0  0
  152.2741  136.0318  156.6668 O   0  0  0  0  0  0  0  0  0  0  0  0
  150.6240  135.3104  155.2883 N   0  0  0  0  0  0  0  0  0  0  0  0
  150.4025  134.0058  155.7985 C   0  0  0  0  0  0  0  0  0  0  0  0
  150.5861  133.6258  157.1535 C   0  0  0  0  0  0  0  0  0  0  0  0
  150.2998  132.3457  157.3359 N   0  0  0  0  0  0  0  0  0  0  0  0
  149.9300  131.8902  156.1124 N   0  0  0  0  0  0  0  0  0  0  0  0
  149.5394  130.5015  155.9491 C   0  0  0  0  0  0  0  0  0  0  0  0
  148.3634  130.1498  156.8617 C   0  0  0  0  0  0  0  0  0  0  0  0
  147.3094  129.5557  156.2960 N   0  0  0  0  0  0  0  0  0  0  0  0
  148.4069  130.4102  158.0622 O   0  0  0  0  0  0  0  0  0  0  0  0
  149.9808  132.8798  155.1500 C   0  0  0  0  0  0  0  0  0  0  0  0
  150.2896  137.9342  154.4255 C   0  0  0  0  0  0  0  0  0  0  0  0
  149.8813  139.1813  155.2340 C   0  0  0  0  0  0  0  0  0  0  0  0
  150.0640  141.9297  158.0001 H   0  0  0  0  0  0  0  0  0  0  0  0
  151.4001  140.7969  157.9347 H   0  0  0  0  0  0  0  0  0  0  0  0
  149.7524  140.2378  157.6330 H   0  0  0  0  0  0  0  0  0  0  0  0
  149.6472  141.7559  155.6149 H   0  0  0  0  0  0  0  0  0  0  0  0
  151.3376  142.1620  155.8158 H   0  0  0  0  0  0  0  0  0  0  0  0
  152.9914  140.3566  155.6665 H   0  0  0  0  0  0  0  0  0  0  0  0
  152.0704  139.3559  156.7767 H   0  0  0  0  0  0  0  0  0  0  0  0
  152.7667  138.6318  153.8698 H   0  0  0  0  0  0  0  0  0  0  0  0
  153.5626  138.0012  155.2781 H   0  0  0  0  0  0  0  0  0  0  0  0
  150.0383  135.5842  154.5130 H   0  0  0  0  0  0  0  0  0  0  0  0
  150.9111  134.2225  157.9933 H   0  0  0  0  0  0  0  0  0  0  0  0
  149.2610  130.3370  154.9072 H   0  0  0  0  0  0  0  0  0  0  0  0
  150.3914  129.8527  156.1590 H   0  0  0  0  0  0  0  0  0  0  0  0
  146.5069  129.3111  156.8586 H   0  0  0  0  0  0  0  0  0  0  0  0
  147.3165  129.3593  155.3057 H   0  0  0  0  0  0  0  0  0  0  0  0
  149.7151  132.6900  154.1205 H   0  0  0  0  0  0  0  0  0  0  0  0
  150.4639  138.1996  153.3814 H   0  0  0  0  0  0  0  0  0  0  0  0
  149.4680  137.2169  154.4135 H   0  0  0  0  0  0  0  0  0  0  0  0
  149.6633  138.9055  156.2671 H   0  0  0  0  0  0  0  0  0  0  0  0
  148.9649  139.5897  154.8097 H   0  0  0  0  0  0  0  0  0  0  0  0
  1  2  1  0  0  0  0
  1 21  1  0  0  0  0
  1 22  1  0  0  0  0
  1 23  1  0  0  0  0
  2  3  1  0  0  0  0
  2 24  1  0  0  0  0
  2 25  1  0  0  0  0
  3 20  1  0  0  0  0
  3  4  1  0  0  0  0
  4  5  1  0  0  0  0
  4 26  1  0  0  0  0
  4 27  1  0  0  0  0
  5  6  1  0  0  0  0
  5 28  1  0  0  0  0
  5 29  1  0  0  0  0
  6  7  1  0  0  0  0
  6 19  1  0  0  0  0
  7  8  2  0  0  0  0
  7  9  1  0  0  0  0
  9 10  1  0  0  0  0
  9 30  1  0  0  0  0
 10 18  2  0  0  0  0
 10 11  1  0  0  0  0
 11 12  2  0  0  0  0
 11 31  1  0  0  0  0
 12 13  1  0  0  0  0
 13 14  1  0  0  0  0
 13 18  1  0  0  0  0
 14 15  1  0  0  0  0
 14 32  1  0  0  0  0
 14 33  1  0  0  0  0
 15 16  1  0  0  0  0
 15 17  2  0  0  0  0
 16 34  1  0  0  0  0
 16 35  1  0  0  0  0
 18 36  1  0  0  0  0
 19 20  1  0  0  0  0
 19 37  1  0  0  0  0
 19 38  1  0  0  0  0
 20 39  1  0  0  0  0
 20 40  1  0  0  0  0
M  END
> <s_m_source_file>
AV-unprocessed.smi

> <i_m_source_file_index>
1499

> <i_lp_mmshare_version>
43012

> <i_f3d_flags>
0

> <s_epik_input>
W0NIM11bQ0gyXU4xW0NIMl1bQ0gyXU4oW0NIMl1bQ0gyXTEpQyg9TylbTkhdYzJbY0hdbm4oW2NIXTIpW0NIMl1DKD1PKVtOSDJd

> <s_epik_cmdline>
J2VwaWtfcHl0aG9uJywgJy1waCcsICc3LjAnLCAnLXRuJywgJzgnLCAnLW1hJywgJzIwMCcsICctbWV0YWxfYmluZGluZycsICctaW1hZScsICc8aW5maWxlLm1hZT4nLCAnLW9tYWUnLCAnPG91dGZpbGUubWFlPic=

> <r_lp_tautomer_probability>
1

> <r_epik_Ionization_Penalty>
0.431808

> <r_epik_Ionization_Penalty_Charging>
0

> <r_epik_Ionization_Penalty_Neutral>
0.431808

> <r_epik_State_Penalty>
0.433198

> <r_epik_Charging_Adjusted_Penalty>
0.433198

> <i_epik_Tot_Q>
0

> <i_epik_Tot_abs_Q>
0

> <r_epik_Metal_State_Penalty>
0.433196

> <b_epik_Metal_Only>
0

> <s_lp_Force_Field>
OPLS_2005

> <r_lp_Energy>
45.1289

> <b_lp_Chiralities_Consistent>
1

> <s_lp_Variant>
AV-unprocessed.smi:1499-2

> <Gold.Version>
5.8.1

> <Gold.Id.Protein>
6NUR|6NUR_protein|mol2

> <Gold.PLP.Fitness>
46.0514

> <Gold.PLP.PLP>
-35.2549

> <Gold.PLP.part.hbond>
-5.0000

> <Gold.PLP.part.metal>
0.0000

> <Gold.PLP.part.buried>
-1.2568

> <Gold.PLP.part.nonpolar>
-30.6214

> <Gold.PLP.part.repulsive>
0.2069

> <Gold.PLP.ligand.clash>
0.0000

> <Gold.PLP.ligand.torsion>
0.6318

> <Gold.PLP.Chemscore.Hbond>
4.0000

> <Gold.PLP.Chemscore.CHOScore>
0.0000

> <Gold.PLP.Chemscore.Metal>
0.0000

> <Gold.Chemscore.Hbonds>
donor molecule, donor type, donor heavy atom, donor atom, acceptor molecule, acceptor atom, score
      P1  H  7989  7998       L1     3  0.95

> <Gold.PLP.Chemscore.Internal.Correction>
0.0602

> <Gold.Rescore>
     Score         DG    S(hbond)    S(metal)    S(lipo)     H(rot)  DE(clash)    DE(int)     intcor
     13.01     -15.95       2.39        0.00      61.39       1.83       0.14       2.80       ----

> <Gold.Chemscore.Fitness>
13.0137

> <Gold.Chemscore.DG>
-15.9519

> <Gold.Chemscore.ZeroCoef>
-5.4800

> <Gold.Chemscore.Hbond>
2.3894

> <Gold.Chemscore.Metal>
0.0000

> <Gold.Chemscore.Lipo>
61.3897

> <Gold.Chemscore.Internal_Hbond>
0.0000

> <Gold.Chemscore.DEClash>
0.1375

> <Gold.Chemscore.DEInternal>
2.8008

> <Gold.Chemscore.Rot>
1.8325

> <Gold.Chemscore.Internal.Correction>
   9.000000E+99

> <Gold.Chemscore.Hbonds>
donor molecule, donor type, donor heavy atom, donor atom, acceptor molecule, acceptor atom, score
      P1  H  7989  7998       L1     3  0.10

> <Gold.Chemscore.Hbond.Weighted>
-7.9806

> <Gold.Chemscore.Metal.Weighted>
-0.0000

> <Gold.Chemscore.Lipo.Weighted>
-7.1826

> <Gold.Chemscore.Internal_Hbond.Weighted>
0.0000

> <Gold.Chemscore.DEClash.Weighted>
0.1375

> <Gold.Chemscore.DEInternal.Weighted>
2.8008

> <Gold.Chemscore.Rot.Weighted>
4.6912

> <Gold.Chemscore.Internal.Correction.Weighted>
   9.000000E+99

> <Gold.Protein.RotatedTorsions>
[ 6907 6896 6895 6894 ] final  156.36 input  -60.11 | X-H torsion
[ 7974 7965 7964 7962 ] final  167.66 input  175.53 | X-H torsion
[ 8008 7997 7996 7995 ] final  -82.57 input   59.86 | X-H torsion
[ 10167 10162 10161 10158 ] final  160.32 input  -65.29 | X-H torsion
[ 10718 10713 10712 10709 ] final   35.88 input   66.30 | X-H torsion
[ 10763 10752 10751 10750 ] final -138.12 input  -60.55 | X-H torsion
[ 11005 11000 10999 10996 ] final  122.66 input  -57.11 | X-H torsion

> <Gold.Protein.ActiveResidues>
 VAL166  LYS551  ARG553  GLY616  TRP617  ASP618  TYR619  PRO620  LYS621  CYS622 
 ASP623  PHE694  ASN695  SER759  ASP760  ASP761  ALA762  ILE779  LEU786  VAL792 
 PHE793  MET794  SER795  GLU796  ALA797  LYS798  CYS799  TRP800  GLU811  SER814 

> <Gold.Protein.RotatedAtoms>
  152.0308  133.3936  159.4296 H   0  0  0  0  0  0  0  0  0  0  0  0  # atno 6907 bound_to 6896
  150.6882  134.3523  159.4923 H   0  0  0  0  0  0  0  0  0  0  0  0  # atno 6908 bound_to 6896
  152.1309  134.9135  160.0609 H   0  0  0  0  0  0  0  0  0  0  0  0  # atno 6909 bound_to 6896
  144.7416  139.8793  143.6395 H   0  0  0  0  0  0  0  0  0  0  0  0  # atno 7974 bound_to 7965
  154.6100  140.0631  156.9481 H   0  0  0  0  0  0  0  0  0  0  0  0  # atno 8008 bound_to 7997
  155.1989  140.3313  155.4328 H   0  0  0  0  0  0  0  0  0  0  0  0  # atno 8009 bound_to 7997
  156.2371  140.1868  156.7074 H   0  0  0  0  0  0  0  0  0  0  0  0  # atno 8010 bound_to 7997
  139.4839  144.4646  151.8659 H   0  0  0  0  0  0  0  0  0  0  0  0  # atno 10167 bound_to 10162
  157.3281  130.7483  149.6829 H   0  0  0  0  0  0  0  0  0  0  0  0  # atno 10718 bound_to 10713
  154.8645  135.3621  154.5334 H   0  0  0  0  0  0  0  0  0  0  0  0  # atno 10763 bound_to 10752
  153.5959  135.7014  153.5409 H   0  0  0  0  0  0  0  0  0  0  0  0  # atno 10764 bound_to 10752
  153.3333  135.4118  155.1475 H   0  0  0  0  0  0  0  0  0  0  0  0  # atno 10765 bound_to 10752
  139.9278  134.9641  156.8142 H   0  0  0  0  0  0  0  0  0  0  0  0  # atno 11005 bound_to 11000
  146.1223  139.4243  143.0221 LP  0  0  0  0  0  0  0  0  0  0  0  0  # atno 17320 bound_to 7965
  145.7287  141.0050  143.1363 LP  0  0  0  0  0  0  0  0  0  0  0  0  # atno 17321 bound_to 7965
  140.4110  144.2369  150.5889 LP  0  0  0  0  0  0  0  0  0  0  0  0  # atno 17342 bound_to 10162
  140.4966  143.2330  151.8740 LP  0  0  0  0  0  0  0  0  0  0  0  0  # atno 17343 bound_to 10162
  155.9693  130.4203  150.4416 LP  0  0  0  0  0  0  0  0  0  0  0  0  # atno 17370 bound_to 10713
  157.2444  131.0532  151.2417 LP  0  0  0  0  0  0  0  0  0  0  0  0  # atno 17371 bound_to 10713
  140.6287  133.9926  155.7652 LP  0  0  0  0  0  0  0  0  0  0  0  0  # atno 17394 bound_to 11000
  141.0847  134.0008  157.3331 LP  0  0  0  0  0  0  0  0  0  0  0  0  # atno 17395 bound_to 11000

$$$$
