AV-unprocessed.smi:3237|AV-procd|sdf|12365|dock1
  -GOLD-   2272018223D 1   1.00000     0.00000
 Structure written by MMmdl.
 37 39  0  0  0  0  0  0  0  0  2 V2000
  153.2845  138.5450  158.0210 C   0  0  0  0  0  0  0  0  0  0  0  0
  152.4923  138.1064  156.8374 C   0  0  0  0  0  0  0  0  0  0  0  0
  151.6999  137.0191  156.5998 C   0  0  0  0  0  0  0  0  0  0  0  0
  151.2551  137.2348  155.2627 C   0  0  0  0  0  0  0  0  0  0  0  0
  150.3936  136.3898  154.5162 N   0  0  0  0  0  0  0  0  0  0  0  0
  149.9711  135.1510  154.8195 C   0  0  0  0  0  0  0  0  0  0  0  0
  150.2757  134.5192  155.8308 O   0  0  0  0  0  0  0  0  0  0  0  0
  149.1583  134.6679  153.8689 N   0  0  0  0  0  0  0  0  0  0  0  0
  148.5326  133.3505  153.9051 C   0  0  2  0  0  0  0  0  0  0  0  0
  149.5035  132.1904  154.1029 C   0  0  0  0  0  0  0  0  0  0  0  0
  148.6974  130.9926  153.5883 C   0  0  0  0  0  0  0  0  0  0  0  0
  147.7528  131.5185  152.5710 N   0  3  1  0  0  0  0  0  0  0  0  0
  146.3656  131.0360  152.7468 C   0  0  0  0  0  0  0  0  0  0  0  0
  146.1209  129.6687  152.1541 C   0  0  0  0  0  0  0  0  0  0  0  0
  145.6035  130.9041  151.4499 C   0  0  0  0  0  0  0  0  0  0  0  0
  147.8716  132.9934  152.5745 C   0  0  0  0  0  0  0  0  0  0  0  0
  151.7348  138.3481  154.7399 N   0  0  0  0  0  0  0  0  0  0  0  0
  152.5297  138.9142  155.7435 O   0  0  0  0  0  0  0  0  0  0  0  0
  153.1283  137.8734  158.8653 H   0  0  0  0  0  0  0  0  0  0  0  0
  152.9942  139.5493  158.3300 H   0  0  0  0  0  0  0  0  0  0  0  0
  154.3497  138.5560  157.7897 H   0  0  0  0  0  0  0  0  0  0  0  0
  151.4853  136.2119  157.2837 H   0  0  0  0  0  0  0  0  0  0  0  0
  150.0578  136.7801  153.6481 H   0  0  0  0  0  0  0  0  0  0  0  0
  148.9582  135.2520  153.0699 H   0  0  0  0  0  0  0  0  0  0  0  0
  147.7750  133.3261  154.6914 H   0  0  0  0  0  0  0  0  0  0  0  0
  150.3950  132.3319  153.4896 H   0  0  0  0  0  0  0  0  0  0  0  0
  149.8208  132.0712  155.1394 H   0  0  0  0  0  0  0  0  0  0  0  0
  149.3379  130.2186  153.1648 H   0  0  0  0  0  0  0  0  0  0  0  0
  148.1464  130.5450  154.4173 H   0  0  0  0  0  0  0  0  0  0  0  0
  145.8567  131.3429  153.6592 H   0  0  0  0  0  0  0  0  0  0  0  0
  146.9610  129.1458  151.7001 H   0  0  0  0  0  0  0  0  0  0  0  0
  145.3881  129.0320  152.6455 H   0  0  0  0  0  0  0  0  0  0  0  0
  144.5303  131.0814  151.4781 H   0  0  0  0  0  0  0  0  0  0  0  0
  146.0998  131.2014  150.5277 H   0  0  0  0  0  0  0  0  0  0  0  0
  146.9135  133.4971  152.4367 H   0  0  0  0  0  0  0  0  0  0  0  0
  148.5153  133.2788  151.7410 H   0  0  0  0  0  0  0  0  0  0  0  0
  148.0658  131.1997  151.6650 H   0  0  0  0  0  0  0  0  0  0  0  0
  1  2  1  0  0  0  0
  1 19  1  0  0  0  0
  1 20  1  0  0  0  0
  1 21  1  0  0  0  0
  2 18  1  0  0  0  0
  2  3  2  0  0  0  0
  3  4  1  0  0  0  0
  3 22  1  0  0  0  0
  4  5  1  0  0  0  0
  4 17  2  0  0  0  0
  5  6  1  0  0  0  0
  5 23  1  0  0  0  0
  6  7  2  0  0  0  0
  6  8  1  0  0  0  0
  8  9  1  0  0  0  0
  8 24  1  0  0  0  0
  9 16  1  0  0  0  0
  9 10  1  0  0  0  0
  9 25  1  0  0  0  0
 10 11  1  0  0  0  0
 10 26  1  0  0  0  0
 10 27  1  0  0  0  0
 11 12  1  0  0  0  0
 11 28  1  0  0  0  0
 11 29  1  0  0  0  0
 12 13  1  0  0  0  0
 12 16  1  0  0  0  0
 12 37  1  0  0  0  0
 13 15  1  0  0  0  0
 13 14  1  0  0  0  0
 13 30  1  0  0  0  0
 14 15  1  0  0  0  0
 14 31  1  0  0  0  0
 14 32  1  0  0  0  0
 15 33  1  0  0  0  0
 15 34  1  0  0  0  0
 16 35  1  0  0  0  0
 16 36  1  0  0  0  0
 17 18  1  0  0  0  0
M  CHG  1  12   1
M  END
> <s_m_source_file>
AV-unprocessed.smi

> <i_m_source_file_index>
3237

> <i_lp_mmshare_version>
43012

> <i_f3d_flags>
0

> <s_epik_input>
W0NIM11jMVtjSF1jKG5vMSlbTkhdQyg9TylbTkhdW0NAQEhdMltDSDJdW0NIMl1OKFtDSDJdMilbQ0hdM1tDSDJdW0NIMl0z

> <s_epik_cmdline>
J2VwaWtfcHl0aG9uJywgJy1waCcsICc3LjAnLCAnLXRuJywgJzgnLCAnLW1hJywgJzIwMCcsICctbWV0YWxfYmluZGluZycsICctaW1hZScsICc8aW5maWxlLm1hZT4nLCAnLW9tYWUnLCAnPG91dGZpbGUubWFlPic=

> <r_epik_Ionization_Penalty>
0.000720579

> <r_epik_Ionization_Penalty_Charging>
0.000680516

> <r_epik_Ionization_Penalty_Neutral>
4.00628e-05

> <r_epik_State_Penalty>
0.000432256

> <r_epik_Charging_Adjusted_Penalty>
0.00111277

> <i_epik_Tot_Q>
1

> <i_epik_Tot_abs_Q>
1

> <r_epik_Metal_State_Penalty>
0.0255091

> <b_epik_Metal_Only>
0

> <s_lp_Force_Field>
OPLS_2005

> <r_lp_Energy>
36.5214

> <b_lp_Chiralities_Consistent>
1

> <s_lp_Variant>
AV-unprocessed.smi:3237-3

> <Gold.Version>
5.8.1

> <Gold.Id.Protein>
6NUR|6NUR_protein|mol2

> <Gold.PLP.Fitness>
37.3416

> <Gold.PLP.PLP>
-28.4304

> <Gold.PLP.part.hbond>
-4.0662

> <Gold.PLP.part.metal>
0.0000

> <Gold.PLP.part.buried>
-3.1961

> <Gold.PLP.part.nonpolar>
-21.3277

> <Gold.PLP.part.repulsive>
0.2196

> <Gold.PLP.ligand.clash>
0.0000

> <Gold.PLP.ligand.torsion>
0.7188

> <Gold.PLP.Chemscore.Hbond>
3.0271

> <Gold.PLP.Chemscore.CHOScore>
0.0000

> <Gold.PLP.Chemscore.Metal>
0.0000

> <Gold.Chemscore.Hbonds>
donor molecule, donor type, donor heavy atom, donor atom, acceptor molecule, acceptor atom, score
      L1  H     5    23       P1  7948  0.60
      L1  H     8    24       P1  7948  0.98
      L1  H    12    37       P1 10747  1.00
      P1  H  7997  8010       L1    18  0.37

> <Gold.PLP.Chemscore.Internal.Correction>
1.2676

> <Gold.Rescore>
     Score         DG    S(hbond)    S(metal)    S(lipo)     H(rot)  DE(clash)    DE(int)     intcor
     14.36     -17.38       2.55        0.00      56.45       1.26       0.05       2.98       ----

> <Gold.Chemscore.Fitness>
14.3605

> <Gold.Chemscore.DG>
-17.3838

> <Gold.Chemscore.ZeroCoef>
-5.4800

> <Gold.Chemscore.Hbond>
2.5519

> <Gold.Chemscore.Metal>
0.0000

> <Gold.Chemscore.Lipo>
56.4473

> <Gold.Chemscore.Internal_Hbond>
0.0000

> <Gold.Chemscore.DEClash>
0.0456

> <Gold.Chemscore.DEInternal>
2.9777

> <Gold.Chemscore.Rot>
1.2593

> <Gold.Chemscore.Internal.Correction>
   9.000000E+99

> <Gold.Chemscore.Hbonds>
donor molecule, donor type, donor heavy atom, donor atom, acceptor molecule, acceptor atom, score
      L1  H     5    23       P1  7948  0.13
      L1  H     8    24       P1  7948  0.32
      L1  H    12    37       P1 10747  1.00
      P1  H  7997  8010       L1    18  0.06

> <Gold.Chemscore.Hbond.Weighted>
-8.5232

> <Gold.Chemscore.Metal.Weighted>
-0.0000

> <Gold.Chemscore.Lipo.Weighted>
-6.6043

> <Gold.Chemscore.Internal_Hbond.Weighted>
0.0000

> <Gold.Chemscore.DEClash.Weighted>
0.0456

> <Gold.Chemscore.DEInternal.Weighted>
2.9777

> <Gold.Chemscore.Rot.Weighted>
3.2237

> <Gold.Chemscore.Internal.Correction.Weighted>
   9.000000E+99

> <Gold.Protein.RotatedTorsions>
[ 6907 6896 6895 6894 ] final -107.15 input  -60.11 | X-H torsion
[ 7974 7965 7964 7962 ] final   97.30 input  175.53 | X-H torsion
[ 8008 7997 7996 7995 ] final   75.54 input   59.86 | X-H torsion
[ 10167 10162 10161 10158 ] final   74.15 input  -65.29 | X-H torsion
[ 10718 10713 10712 10709 ] final   22.06 input   66.30 | X-H torsion
[ 10763 10752 10751 10750 ] final  161.13 input  -60.55 | X-H torsion
[ 11005 11000 10999 10996 ] final   22.47 input  -57.11 | X-H torsion

> <Gold.Protein.ActiveResidues>
 VAL166  LYS551  ARG553  GLY616  TRP617  ASP618  TYR619  PRO620  LYS621  CYS622 
 ASP623  PHE694  ASN695  SER759  ASP760  ASP761  ALA762  ILE779  LEU786  VAL792 
 PHE793  MET794  SER795  GLU796  ALA797  LYS798  CYS799  TRP800  GLU811  SER814 

> <Gold.Protein.RotatedAtoms>
  150.7428  133.9870  159.3594 H   0  0  0  0  0  0  0  0  0  0  0  0  # atno 6907 bound_to 6896
  151.7815  135.0758  160.0384 H   0  0  0  0  0  0  0  0  0  0  0  0  # atno 6908 bound_to 6896
  152.3271  133.5880  159.5820 H   0  0  0  0  0  0  0  0  0  0  0  0  # atno 6909 bound_to 6896
  145.4273  139.2314  143.3163 H   0  0  0  0  0  0  0  0  0  0  0  0  # atno 7974 bound_to 7965
  155.8143  140.3472  155.5476 H   0  0  0  0  0  0  0  0  0  0  0  0  # atno 8008 bound_to 7997
  155.8408  140.0941  157.1756 H   0  0  0  0  0  0  0  0  0  0  0  0  # atno 8009 bound_to 7997
  154.4005  140.1395  156.3714 H   0  0  0  0  0  0  0  0  0  0  0  0  # atno 8010 bound_to 7997
  140.0168  144.5571  150.7614 H   0  0  0  0  0  0  0  0  0  0  0  0  # atno 10167 bound_to 10162
  157.1471  130.6658  149.6000 H   0  0  0  0  0  0  0  0  0  0  0  0  # atno 10718 bound_to 10713
  154.2582  135.2769  155.2789 H   0  0  0  0  0  0  0  0  0  0  0  0  # atno 10763 bound_to 10752
  154.5406  135.5703  153.6840 H   0  0  0  0  0  0  0  0  0  0  0  0  # atno 10764 bound_to 10752
  152.9967  135.6250  154.2732 H   0  0  0  0  0  0  0  0  0  0  0  0  # atno 10765 bound_to 10752
  140.3802  134.1929  155.7664 H   0  0  0  0  0  0  0  0  0  0  0  0  # atno 11005 bound_to 11000
  146.2625  140.5005  142.8847 LP  0  0  0  0  0  0  0  0  0  0  0  0  # atno 17320 bound_to 7965
  144.8206  140.6543  143.6355 LP  0  0  0  0  0  0  0  0  0  0  0  0  # atno 17321 bound_to 7965
  140.7359  143.2746  151.3781 LP  0  0  0  0  0  0  0  0  0  0  0  0  # atno 17342 bound_to 10162
  139.6167  144.0989  152.2352 LP  0  0  0  0  0  0  0  0  0  0  0  0  # atno 17343 bound_to 10162
  155.9777  130.4757  150.6612 LP  0  0  0  0  0  0  0  0  0  0  0  0  # atno 17370 bound_to 10713
  157.4254  131.0842  151.1090 LP  0  0  0  0  0  0  0  0  0  0  0  0  # atno 17371 bound_to 10713
  141.1926  133.8170  157.0833 LP  0  0  0  0  0  0  0  0  0  0  0  0  # atno 17394 bound_to 11000
  140.0484  134.9818  157.1092 LP  0  0  0  0  0  0  0  0  0  0  0  0  # atno 17395 bound_to 11000

$$$$
