AV-unprocessed.smi:21|AV-procd|sdf|134|dock9
  -GOLD-   2262015323D 1   1.00000     0.00000
 Structure written by MMmdl.
 62 65  0  0  0  0  0  0  0  0  2 V2000
  143.4189  132.7061  150.6045 C   0  0  0  0  0  0  0  0  0  0  0  0
  143.7574  133.2661  151.8634 O   0  0  0  0  0  0  0  0  0  0  0  0
  145.0195  133.9179  151.8759 C   0  0  2  0  0  0  0  0  0  0  0  0
  146.1474  132.8795  151.9242 C   0  0  0  0  0  0  0  0  0  0  0  0
  146.9786  133.1998  153.1778 C   0  0  1  0  0  0  0  0  0  0  0  0
  148.4990  133.0104  152.9797 C   0  0  0  0  0  0  0  0  0  0  0  0
  149.0030  131.7863  153.6081 N   0  0  0  0  0  0  0  0  0  0  0  0
  148.3677  130.5191  153.2654 C   0  0  0  0  0  0  0  0  0  0  0  0
  149.8465  131.8652  154.6799 C   0  0  0  0  0  0  0  0  0  0  0  0
  150.3007  130.7042  155.2262 N   0  0  0  0  0  0  0  0  0  0  0  0
  151.1288  130.7121  156.2732 C   0  0  0  0  0  0  0  0  0  0  0  0
  151.6318  131.7577  156.9274 N   0  0  0  0  0  0  0  0  0  0  0  0
  151.1904  132.9305  156.3925 C   0  0  0  0  0  0  0  0  0  0  0  0
  150.3038  133.0788  155.2849 C   0  0  0  0  0  0  0  0  0  0  0  0
  150.0966  134.4347  155.0459 N   0  0  0  0  0  0  0  0  0  0  0  0
  150.8108  135.0443  155.9509 C   0  0  0  0  0  0  0  0  0  0  0  0
  151.5097  134.2148  156.7953 N   0  0  0  0  0  0  0  0  0  0  0  0
  152.3858  134.6138  157.8832 C   0  0  0  0  0  0  0  0  0  0  0  0
  152.0124  135.9971  158.4780 C   0  0  1  0  0  0  0  0  0  0  0  0
  150.5410  136.0284  158.9526 C   0  0  0  0  0  0  0  0  0  0  0  0
  150.3328  135.1475  160.0367 O   0  0  0  0  0  0  0  0  0  0  0  0
  152.9889  136.4782  159.5866 C   0  0  1  0  0  0  0  0  0  0  0  0
  154.4684  136.1906  159.3623 C   0  0  0  0  0  0  0  0  0  0  0  0
  155.1299  137.2661  160.2115 C   0  0  0  0  0  0  0  0  0  0  0  0
  154.3190  138.4031  159.9651 O   0  0  0  0  0  0  0  0  0  0  0  0
  152.9589  137.9855  159.8977 C   0  0  0  0  0  0  0  0  0  0  0  0
  146.6293  134.5936  153.5242 N   0  3  2  0  0  0  0  0  0  0  0  0
  146.9039  134.9732  154.9280 C   0  0  0  0  0  0  0  0  0  0  0  0
  145.2187  134.7735  153.1327 C   0  0  0  0  0  0  0  0  0  0  0  0
  145.1452  134.5275  150.9790 H   0  0  0  0  0  0  0  0  0  0  0  0
  146.6243  132.5638  153.9912 H   0  0  0  0  0  0  0  0  0  0  0  0
  142.4535  132.2055  150.6771 H   0  0  0  0  0  0  0  0  0  0  0  0
  144.1563  131.9663  150.2910 H   0  0  0  0  0  0  0  0  0  0  0  0
  143.3408  133.4716  149.8319 H   0  0  0  0  0  0  0  0  0  0  0  0
  145.7700  131.8567  151.9575 H   0  0  0  0  0  0  0  0  0  0  0  0
  146.7499  132.9682  151.0196 H   0  0  0  0  0  0  0  0  0  0  0  0
  148.7273  132.9872  151.9135 H   0  0  0  0  0  0  0  0  0  0  0  0
  149.0513  133.8677  153.3641 H   0  0  0  0  0  0  0  0  0  0  0  0
  149.1165  129.7435  153.1034 H   0  0  0  0  0  0  0  0  0  0  0  0
  147.7864  130.6053  152.3473 H   0  0  0  0  0  0  0  0  0  0  0  0
  147.6909  130.1992  154.0581 H   0  0  0  0  0  0  0  0  0  0  0  0
  151.4321  129.7420  156.6390 H   0  0  0  0  0  0  0  0  0  0  0  0
  150.8544  136.1214  156.0207 H   0  0  0  0  0  0  0  0  0  0  0  0
  152.3424  133.8409  158.6503 H   0  0  0  0  0  0  0  0  0  0  0  0
  153.4048  134.6067  157.4987 H   0  0  0  0  0  0  0  0  0  0  0  0
  152.0955  136.7227  157.6673 H   0  0  0  0  0  0  0  0  0  0  0  0
  150.2590  137.0248  159.2918 H   0  0  0  0  0  0  0  0  0  0  0  0
  149.8642  135.7670  158.1389 H   0  0  0  0  0  0  0  0  0  0  0  0
  149.4023  135.0436  160.1660 H   0  0  0  0  0  0  0  0  0  0  0  0
  152.7127  135.9822  160.5181 H   0  0  0  0  0  0  0  0  0  0  0  0
  154.7552  135.1814  159.6596 H   0  0  0  0  0  0  0  0  0  0  0  0
  154.7574  136.3322  158.3220 H   0  0  0  0  0  0  0  0  0  0  0  0
  155.0905  137.0087  161.2714 H   0  0  0  0  0  0  0  0  0  0  0  0
  156.1695  137.4435  159.9353 H   0  0  0  0  0  0  0  0  0  0  0  0
  152.4294  138.5773  159.1520 H   0  0  0  0  0  0  0  0  0  0  0  0
  152.4736  138.1673  160.8575 H   0  0  0  0  0  0  0  0  0  0  0  0
  146.3528  134.3397  155.6243 H   0  0  0  0  0  0  0  0  0  0  0  0
  146.6100  136.0085  155.1038 H   0  0  0  0  0  0  0  0  0  0  0  0
  147.9658  134.8871  155.1573 H   0  0  0  0  0  0  0  0  0  0  0  0
  144.9746  135.8234  152.9677 H   0  0  0  0  0  0  0  0  0  0  0  0
  144.5778  134.4022  153.9347 H   0  0  0  0  0  0  0  0  0  0  0  0
  147.1785  135.1916  152.9234 H   0  0  0  0  0  0  0  0  0  0  0  0
  1  2  1  0  0  0  0
  1 32  1  0  0  0  0
  1 33  1  0  0  0  0
  1 34  1  0  0  0  0
  2  3  1  0  0  0  0
  3 30  1  0  0  0  0
  3 29  1  0  0  0  0
  3  4  1  0  0  0  0
  4  5  1  0  0  0  0
  4 35  1  0  0  0  0
  4 36  1  0  0  0  0
  5 31  1  0  0  0  0
  5  6  1  0  0  0  0
  5 27  1  0  0  0  0
  6  7  1  0  0  0  0
  6 37  1  0  0  0  0
  6 38  1  0  0  0  0
  7  8  1  0  0  0  0
  7  9  1  0  0  0  0
  8 39  1  0  0  0  0
  8 40  1  0  0  0  0
  8 41  1  0  0  0  0
  9 14  1  0  0  0  0
  9 10  2  0  0  0  0
 10 11  1  0  0  0  0
 11 12  2  0  0  0  0
 11 42  1  0  0  0  0
 12 13  1  0  0  0  0
 13 17  1  0  0  0  0
 13 14  2  0  0  0  0
 14 15  1  0  0  0  0
 15 16  2  0  0  0  0
 16 17  1  0  0  0  0
 16 43  1  0  0  0  0
 17 18  1  0  0  0  0
 18 19  1  0  0  0  0
 18 44  1  0  0  0  0
 18 45  1  0  0  0  0
 19 20  1  0  0  0  0
 19 22  1  0  0  0  0
 19 46  1  0  0  0  0
 20 21  1  0  0  0  0
 20 47  1  0  0  0  0
 20 48  1  0  0  0  0
 21 49  1  0  0  0  0
 22 26  1  0  0  0  0
 22 23  1  0  0  0  0
 22 50  1  0  0  0  0
 23 24  1  0  0  0  0
 23 51  1  0  0  0  0
 23 52  1  0  0  0  0
 24 25  1  0  0  0  0
 24 53  1  0  0  0  0
 24 54  1  0  0  0  0
 25 26  1  0  0  0  0
 26 55  1  0  0  0  0
 26 56  1  0  0  0  0
 27 28  1  0  0  0  0
 27 29  1  0  0  0  0
 27 62  1  0  0  0  0
 28 57  1  0  0  0  0
 28 58  1  0  0  0  0
 28 59  1  0  0  0  0
 29 60  1  0  0  0  0
 29 61  1  0  0  0  0
M  CHG  1  27   1
M  END
> <s_m_source_file>
AV-unprocessed.smi

> <i_m_source_file_index>
21

> <i_lp_mmshare_version>
43012

> <i_f3d_flags>
0

> <s_epik_input>
W0NIM11PW0NASF0xW0NIMl1bQ0BIXShOKFtDSDNdKVtDSDJdMSlbQ0gyXU4oW0NIM10pYyhuW2NIXW4yKWMoYzIzKW5bY0hdbjNbQ0gyXVtDQEhdKFtDSDJdW09IXSlbQ0BASF00W0NIMl1bQ0gyXU9bQ0gyXTQ=

> <s_epik_cmdline>
J2VwaWtfcHl0aG9uJywgJy1waCcsICc3LjAnLCAnLXRuJywgJzgnLCAnLW1hJywgJzIwMCcsICctbWV0YWxfYmluZGluZycsICctaW1hZScsICc8aW5maWxlLm1hZT4nLCAnLW9tYWUnLCAnPG91dGZpbGUubWFlPic=

> <r_lp_tautomer_probability>
1

> <r_epik_Ionization_Penalty>
0.0157465

> <r_epik_Ionization_Penalty_Charging>
0.015354

> <r_epik_Ionization_Penalty_Neutral>
0.000392529

> <r_epik_State_Penalty>
0.0120612

> <r_epik_Charging_Adjusted_Penalty>
0.0274152

> <i_epik_Tot_Q>
1

> <i_epik_Tot_abs_Q>
1

> <r_epik_Metal_State_Penalty>
0.0121253

> <b_epik_Metal_Only>
0

> <s_lp_Force_Field>
OPLS_2005

> <r_lp_Energy>
60.5183

> <b_lp_Chiralities_Consistent>
1

> <s_lp_Variant>
AV-unprocessed.smi:21-14

> <Gold.Version>
5.8.1

> <Gold.Id.Protein>
6NUR|6NUR_protein|mol2

> <Gold.PLP.Fitness>
50.6380

> <Gold.PLP.PLP>
-38.1647

> <Gold.PLP.part.hbond>
-3.9686

> <Gold.PLP.part.metal>
0.0000

> <Gold.PLP.part.buried>
-4.2941

> <Gold.PLP.part.nonpolar>
-31.9425

> <Gold.PLP.part.repulsive>
0.3286

> <Gold.PLP.ligand.clash>
0.0000

> <Gold.PLP.ligand.torsion>
1.4643

> <Gold.PLP.Chemscore.Hbond>
4.9913

> <Gold.PLP.Chemscore.CHOScore>
0.0000

> <Gold.PLP.Chemscore.Metal>
0.0000

> <Gold.Chemscore.Hbonds>
donor molecule, donor type, donor heavy atom, donor atom, acceptor molecule, acceptor atom, score
      L1  H    27    62       P1  7948  0.68

> <Gold.PLP.Chemscore.Internal.Correction>
0.4282

> <Gold.Rescore>
     Score         DG    S(hbond)    S(metal)    S(lipo)     H(rot)  DE(clash)    DE(int)     intcor
     14.81     -19.26       3.60        0.00      82.24       3.08       1.36       3.09       ----

> <Gold.Chemscore.Fitness>
14.8111

> <Gold.Chemscore.DG>
-19.2557

> <Gold.Chemscore.ZeroCoef>
-5.4800

> <Gold.Chemscore.Hbond>
3.6012

> <Gold.Chemscore.Metal>
0.0000

> <Gold.Chemscore.Lipo>
82.2382

> <Gold.Chemscore.Internal_Hbond>
0.0000

> <Gold.Chemscore.DEClash>
1.3561

> <Gold.Chemscore.DEInternal>
3.0884

> <Gold.Chemscore.Rot>
3.0758

> <Gold.Chemscore.Internal.Correction>
   9.000000E+99

> <Gold.Chemscore.Hbonds>
donor molecule, donor type, donor heavy atom, donor atom, acceptor molecule, acceptor atom, score
      L1  H    27    62       P1  7948  0.33

> <Gold.Chemscore.Hbond.Weighted>
-12.0279

> <Gold.Chemscore.Metal.Weighted>
-0.0000

> <Gold.Chemscore.Lipo.Weighted>
-9.6219

> <Gold.Chemscore.Internal_Hbond.Weighted>
0.0000

> <Gold.Chemscore.DEClash.Weighted>
1.3561

> <Gold.Chemscore.DEInternal.Weighted>
3.0884

> <Gold.Chemscore.Rot.Weighted>
7.8741

> <Gold.Chemscore.Internal.Correction.Weighted>
   9.000000E+99

> <Gold.Protein.RotatedTorsions>
[ 6907 6896 6895 6894 ] final -159.23 input  -60.11 | X-H torsion
[ 7974 7965 7964 7962 ] final  112.30 input  175.53 | X-H torsion
[ 8008 7997 7996 7995 ] final  -98.43 input   59.86 | X-H torsion
[ 10167 10162 10161 10158 ] final  -44.01 input  -65.29 | X-H torsion
[ 10718 10713 10712 10709 ] final  128.88 input   66.30 | X-H torsion
[ 10763 10752 10751 10750 ] final  -10.90 input  -60.55 | X-H torsion
[ 11005 11000 10999 10996 ] final    9.85 input  -57.11 | X-H torsion

> <Gold.Protein.ActiveResidues>
 VAL166  LYS551  ARG553  GLY616  TRP617  ASP618  TYR619  PRO620  LYS621  CYS622 
 ASP623  PHE694  ASN695  SER759  ASP760  ASP761  ALA762  ILE779  LEU786  VAL792 
 PHE793  MET794  SER795  GLU796  ALA797  LYS798  CYS799  TRP800  GLU811  SER814 

> <Gold.Protein.RotatedAtoms>
  151.3304  133.4003  159.2661 H   0  0  0  0  0  0  0  0  0  0  0  0  # atno 6907 bound_to 6896
  150.9960  134.9285  159.7937 H   0  0  0  0  0  0  0  0  0  0  0  0  # atno 6908 bound_to 6896
  152.5261  134.3269  159.9221 H   0  0  0  0  0  0  0  0  0  0  0  0  # atno 6909 bound_to 6896
  145.2313  139.2818  143.4166 H   0  0  0  0  0  0  0  0  0  0  0  0  # atno 7974 bound_to 7965
  154.8011  140.0455  157.1273 H   0  0  0  0  0  0  0  0  0  0  0  0  # atno 8008 bound_to 7997
  154.9478  140.3061  155.5070 H   0  0  0  0  0  0  0  0  0  0  0  0  # atno 8009 bound_to 7997
  156.2961  140.2293  156.4553 H   0  0  0  0  0  0  0  0  0  0  0  0  # atno 8010 bound_to 7997
  140.6913  143.2953  151.3433 H   0  0  0  0  0  0  0  0  0  0  0  0  # atno 10167 bound_to 10162
  157.5205  131.1098  150.9160 H   0  0  0  0  0  0  0  0  0  0  0  0  # atno 10718 bound_to 10713
  153.4760  135.7017  153.5966 H   0  0  0  0  0  0  0  0  0  0  0  0  # atno 10763 bound_to 10752
  153.4199  135.3828  155.2105 H   0  0  0  0  0  0  0  0  0  0  0  0  # atno 10764 bound_to 10752
  154.8723  135.3925  154.4203 H   0  0  0  0  0  0  0  0  0  0  0  0  # atno 10765 bound_to 10752
  140.5211  134.0558  155.7845 H   0  0  0  0  0  0  0  0  0  0  0  0  # atno 11005 bound_to 11000
  146.3352  140.2649  142.8603 LP  0  0  0  0  0  0  0  0  0  0  0  0  # atno 17320 bound_to 7965
  144.9673  140.8335  143.5476 LP  0  0  0  0  0  0  0  0  0  0  0  0  # atno 17321 bound_to 7965
  139.6319  144.0705  152.2483 LP  0  0  0  0  0  0  0  0  0  0  0  0  # atno 17342 bound_to 10162
  140.0182  144.6173  150.7589 LP  0  0  0  0  0  0  0  0  0  0  0  0  # atno 17343 bound_to 10162
  156.9772  130.5513  149.5294 LP  0  0  0  0  0  0  0  0  0  0  0  0  # atno 17370 bound_to 10713
  156.0350  130.5438  150.8631 LP  0  0  0  0  0  0  0  0  0  0  0  0  # atno 17371 bound_to 10713
  141.1333  133.9264  157.2487 LP  0  0  0  0  0  0  0  0  0  0  0  0  # atno 17394 bound_to 11000
  139.9605  135.0155  156.9248 LP  0  0  0  0  0  0  0  0  0  0  0  0  # atno 17395 bound_to 11000

$$$$
