AV-unprocessed.smi:561|AV-procd|sdf|2943|dock2
  -GOLD-   2262023443D 1   1.00000     0.00000
 Structure written by MMmdl.
 35 36  0  0  0  0  0  0  0  0  2 V2000
  150.4798  139.0026  158.0528 C   0  0  0  0  0  0  0  0  0  0  0  0
  151.6504  138.0230  158.2187 C   0  0  1  0  0  0  0  0  0  0  0  0
  152.4530  137.8746  156.9026 C   0  0  0  0  0  0  0  0  0  0  0  0
  151.7932  138.4473  155.7337 N   0  0  0  0  0  0  0  0  0  0  0  0
  151.1662  137.7580  154.7006 C   0  0  0  0  0  0  0  0  0  0  0  0
  150.7062  138.7047  153.8139 C   0  0  0  0  0  0  0  0  0  0  0  0
  151.0448  139.9769  154.2683 N   0  0  0  0  0  0  0  0  0  0  0  0
  151.6861  139.7449  155.4068 C   0  0  0  0  0  0  0  0  0  0  0  0
  152.5353  138.5155  159.2799 N   0  5  0  0  0  0  0  0  0  0  0  0
  153.4214  139.5471  159.1599 C   0  0  0  0  0  0  0  0  0  0  0  0
  154.5657  139.4795  158.6913 O   0  0  0  0  0  0  0  0  0  0  0  0
  152.9817  140.8943  159.6276 C   0  0  0  0  0  0  0  0  0  0  0  0
  153.2997  141.2752  160.8251 N   0  0  0  0  0  0  0  0  0  0  0  0
  152.9170  142.4972  161.3392 N   0  0  0  0  0  0  0  0  0  0  0  0
  153.1248  142.6153  162.7823 C   0  0  0  0  0  0  0  0  0  0  0  0
  152.4158  143.5185  160.5984 C   0  0  0  0  0  0  0  0  0  0  0  0
  152.0579  144.6004  161.0646 O   0  0  0  0  0  0  0  0  0  0  0  0
  152.3332  143.2874  159.0871 C   0  0  0  0  0  0  0  0  0  0  0  0
  152.1527  141.7993  158.7318 C   0  0  0  0  0  0  0  0  0  0  0  0
  149.7969  138.6666  157.2724 H   0  0  0  0  0  0  0  0  0  0  0  0
  150.8282  140.0001  157.7823 H   0  0  0  0  0  0  0  0  0  0  0  0
  149.9048  139.0878  158.9755 H   0  0  0  0  0  0  0  0  0  0  0  0
  151.2259  137.0459  158.4557 H   0  0  0  0  0  0  0  0  0  0  0  0
  153.4230  138.3623  157.0074 H   0  0  0  0  0  0  0  0  0  0  0  0
  152.6620  136.8230  156.6999 H   0  0  0  0  0  0  0  0  0  0  0  0
  151.0968  136.6803  154.6905 H   0  0  0  0  0  0  0  0  0  0  0  0
  150.1653  138.5685  152.8891 H   0  0  0  0  0  0  0  0  0  0  0  0
  152.0887  140.5377  156.0199 H   0  0  0  0  0  0  0  0  0  0  0  0
  152.8734  143.5968  163.1862 H   0  0  0  0  0  0  0  0  0  0  0  0
  154.1697  142.4216  163.0278 H   0  0  0  0  0  0  0  0  0  0  0  0
  152.5154  141.8796  163.3085 H   0  0  0  0  0  0  0  0  0  0  0  0
  151.5245  143.8803  158.6588 H   0  0  0  0  0  0  0  0  0  0  0  0
  153.2607  143.6577  158.6485 H   0  0  0  0  0  0  0  0  0  0  0  0
  152.4296  141.6706  157.6848 H   0  0  0  0  0  0  0  0  0  0  0  0
  151.1017  141.5190  158.8100 H   0  0  0  0  0  0  0  0  0  0  0  0
  1  2  1  0  0  0  0
  1 20  1  0  0  0  0
  1 21  1  0  0  0  0
  1 22  1  0  0  0  0
  2  3  1  0  0  0  0
  2  9  1  0  0  0  0
  2 23  1  0  0  0  0
  3  4  1  0  0  0  0
  3 24  1  0  0  0  0
  3 25  1  0  0  0  0
  4  8  1  0  0  0  0
  4  5  1  0  0  0  0
  5  6  2  0  0  0  0
  5 26  1  0  0  0  0
  6  7  1  0  0  0  0
  6 27  1  0  0  0  0
  7  8  2  0  0  0  0
  8 28  1  0  0  0  0
  9 10  1  0  0  0  0
 10 11  2  0  0  0  0
 10 12  1  0  0  0  0
 12 19  1  0  0  0  0
 12 13  2  0  0  0  0
 13 14  1  0  0  0  0
 14 15  1  0  0  0  0
 14 16  1  0  0  0  0
 15 29  1  0  0  0  0
 15 30  1  0  0  0  0
 15 31  1  0  0  0  0
 16 17  2  0  0  0  0
 16 18  1  0  0  0  0
 18 19  1  0  0  0  0
 18 32  1  0  0  0  0
 18 33  1  0  0  0  0
 19 34  1  0  0  0  0
 19 35  1  0  0  0  0
M  CHG  1   9  -1
M  END
> <s_m_source_file>
AV-unprocessed.smi

> <i_m_source_file_index>
561

> <i_lp_mmshare_version>
43012

> <i_f3d_flags>
0

> <s_epik_input>
W2NIXTFuW2NIXVtjSF1uMVtDSDJdW0NAQEhdKFtDSDNdKVtOSF1DKD1PKUMyPU5OKFtDSDNdKUMoPU8pW0NIMl1bQ0gyXTI=

> <s_epik_cmdline>
J2VwaWtfcHl0aG9uJywgJy1waCcsICc3LjAnLCAnLXRuJywgJzgnLCAnLW1hJywgJzIwMCcsICctbWV0YWxfYmluZGluZycsICctaW1hZScsICc8aW5maWxlLm1hZT4nLCAnLW9tYWUnLCAnPG91dGZpbGUubWFlPic=

> <r_lp_tautomer_probability>
1

> <r_epik_Ionization_Penalty>
6.06239

> <r_epik_Ionization_Penalty_Charging>
6.06239

> <r_epik_Ionization_Penalty_Neutral>
3.91387e-09

> <r_epik_State_Penalty>
5.76729

> <r_epik_Charging_Adjusted_Penalty>
11.8297

> <i_epik_Tot_Q>
-1

> <i_epik_Tot_abs_Q>
1

> <r_epik_Metal_State_Penalty>
2.02369

> <b_epik_Metal_Only>
1

> <s_epik_Chemistry_Notes>
This compound has an imine and may undergo hydrolysis.

> <s_lp_Force_Field>
OPLS_2005

> <r_lp_Energy>
27.3289

> <b_lp_Chiralities_Consistent>
1

> <s_lp_Variant>
AV-unprocessed.smi:561-8

> <Gold.Version>
5.8.1

> <Gold.Id.Protein>
6NUR|6NUR_protein|mol2

> <Gold.PLP.Fitness>
42.4264

> <Gold.PLP.PLP>
-37.9640

> <Gold.PLP.part.hbond>
-1.8328

> <Gold.PLP.part.metal>
0.0000

> <Gold.PLP.part.buried>
-5.8985

> <Gold.PLP.part.nonpolar>
-30.4586

> <Gold.PLP.part.repulsive>
0.2897

> <Gold.PLP.ligand.clash>
0.0000

> <Gold.PLP.ligand.torsion>
3.2691

> <Gold.PLP.Chemscore.Hbond>
2.0000

> <Gold.PLP.Chemscore.CHOScore>
1.6469

> <Gold.PLP.Chemscore.Metal>
0.0000

> <Gold.Chemscore.Hbonds>
donor molecule, donor type, donor heavy atom, donor atom, acceptor molecule, acceptor atom, score
      P1  H  7989  7998       L1     7  0.46
      P1  H  7997  8008       L1    11  1.00
      L1  C     6    27       P1  7948  0.39
      L1  C     6    27       P1  7957  1.00

> <Gold.PLP.Chemscore.Internal.Correction>
0.0600

> <Gold.Rescore>
     Score         DG    S(hbond)    S(metal)    S(lipo)     H(rot)  DE(clash)    DE(int)     intcor
     12.52     -15.89       1.99        0.00      68.99       1.68       0.00       3.37       ----

> <Gold.Chemscore.Fitness>
12.5210

> <Gold.Chemscore.DG>
-15.8926

> <Gold.Chemscore.ZeroCoef>
-5.4800

> <Gold.Chemscore.Hbond>
1.9880

> <Gold.Chemscore.Metal>
0.0000

> <Gold.Chemscore.Lipo>
68.9941

> <Gold.Chemscore.Internal_Hbond>
0.0000

> <Gold.Chemscore.DEClash>
0.0015

> <Gold.Chemscore.DEInternal>
3.3701

> <Gold.Chemscore.Rot>
1.6796

> <Gold.Chemscore.Internal.Correction>
   9.000000E+99

> <Gold.Chemscore.Hbonds>
donor molecule, donor type, donor heavy atom, donor atom, acceptor molecule, acceptor atom, score
      P1  H  7989  7998       L1     7  0.40
      P1  H  7997  8008       L1    11  0.96

> <Gold.Chemscore.Hbond.Weighted>
-6.6400

> <Gold.Chemscore.Metal.Weighted>
-0.0000

> <Gold.Chemscore.Lipo.Weighted>
-8.0723

> <Gold.Chemscore.Internal_Hbond.Weighted>
0.0000

> <Gold.Chemscore.DEClash.Weighted>
0.0015

> <Gold.Chemscore.DEInternal.Weighted>
3.3701

> <Gold.Chemscore.Rot.Weighted>
4.2997

> <Gold.Chemscore.Internal.Correction.Weighted>
   9.000000E+99

> <Gold.Protein.RotatedTorsions>
[ 6907 6896 6895 6894 ] final  128.81 input  -60.11 | X-H torsion
[ 7974 7965 7964 7962 ] final   83.90 input  175.53 | X-H torsion
[ 8008 7997 7996 7995 ] final -132.32 input   59.86 | X-H torsion
[ 10167 10162 10161 10158 ] final  163.86 input  -65.29 | X-H torsion
[ 10718 10713 10712 10709 ] final  -76.22 input   66.30 | X-H torsion
[ 10763 10752 10751 10750 ] final  -15.61 input  -60.55 | X-H torsion
[ 11005 11000 10999 10996 ] final  141.69 input  -57.11 | X-H torsion

> <Gold.Protein.ActiveResidues>
 VAL166  LYS551  ARG553  GLY616  TRP617  ASP618  TYR619  PRO620  LYS621  CYS622 
 ASP623  PHE694  ASN695  SER759  ASP760  ASP761  ALA762  ILE779  LEU786  VAL792 
 PHE793  MET794  SER795  GLU796  ALA797  LYS798  CYS799  TRP800  GLU811  SER814 

> <Gold.Protein.RotatedAtoms>
  152.3684  133.6386  159.6067 H   0  0  0  0  0  0  0  0  0  0  0  0  # atno 6907 bound_to 6896
  150.7650  133.9311  159.3436 H   0  0  0  0  0  0  0  0  0  0  0  0  # atno 6908 bound_to 6896
  151.7137  135.0909  160.0323 H   0  0  0  0  0  0  0  0  0  0  0  0  # atno 6909 bound_to 6896
  145.6058  139.2360  143.2220 H   0  0  0  0  0  0  0  0  0  0  0  0  # atno 7974 bound_to 7965
  155.3269  140.0465  157.3041 H   0  0  0  0  0  0  0  0  0  0  0  0  # atno 8008 bound_to 7997
  154.5349  140.2269  155.8705 H   0  0  0  0  0  0  0  0  0  0  0  0  # atno 8009 bound_to 7997
  156.1825  140.3070  155.9182 H   0  0  0  0  0  0  0  0  0  0  0  0  # atno 8010 bound_to 7997
  139.4880  144.4294  151.9089 H   0  0  0  0  0  0  0  0  0  0  0  0  # atno 10167 bound_to 10162
  156.0182  130.4460  150.3161 H   0  0  0  0  0  0  0  0  0  0  0  0  # atno 10718 bound_to 10713
  153.5459  135.7012  153.5614 H   0  0  0  0  0  0  0  0  0  0  0  0  # atno 10763 bound_to 10752
  153.3559  135.3982  155.1682 H   0  0  0  0  0  0  0  0  0  0  0  0  # atno 10764 bound_to 10752
  154.8667  135.3777  154.4967 H   0  0  0  0  0  0  0  0  0  0  0  0  # atno 10765 bound_to 10752
  140.0420  134.9300  157.0861 H   0  0  0  0  0  0  0  0  0  0  0  0  # atno 11005 bound_to 11000
  146.1542  140.6882  142.9308 LP  0  0  0  0  0  0  0  0  0  0  0  0  # atno 17320 bound_to 7965
  144.7290  140.4615  143.6951 LP  0  0  0  0  0  0  0  0  0  0  0  0  # atno 17321 bound_to 7965
  140.3741  144.2819  150.5916 LP  0  0  0  0  0  0  0  0  0  0  0  0  # atno 17342 bound_to 10162
  140.5293  143.2247  151.8265 LP  0  0  0  0  0  0  0  0  0  0  0  0  # atno 17343 bound_to 10162
  157.1262  131.0260  151.2988 LP  0  0  0  0  0  0  0  0  0  0  0  0  # atno 17370 bound_to 10713
  157.4588  130.7641  149.7217 LP  0  0  0  0  0  0  0  0  0  0  0  0  # atno 17371 bound_to 10713
  140.4054  134.2038  155.7163 LP  0  0  0  0  0  0  0  0  0  0  0  0  # atno 17394 bound_to 11000
  141.1888  133.8252  157.0981 LP  0  0  0  0  0  0  0  0  0  0  0  0  # atno 17395 bound_to 11000

$$$$
