AV-unprocessed.smi:244|AV-procd|sdf|1868|dock5
  -GOLD-   2262020503D 1   1.00000     0.00000
 Structure written by MMmdl.
 57 61  0  0  0  0  0  0  0  0  2 V2000
  144.1950  135.3165  150.7428 C   0  0  0  0  0  0  0  0  0  0  0  0
  144.6233  133.9499  151.1093 N   0  3  1  0  0  0  0  0  0  0  0  0
  144.0012  132.9110  150.2521 C   0  0  0  0  0  0  0  0  0  0  0  0
  144.3418  131.5048  150.7682 C   0  0  0  0  0  0  0  0  0  0  0  0
  145.8697  131.3083  150.8791 C   0  0  2  0  0  0  0  0  0  0  0  0
  146.2241  130.0220  151.3916 O   0  0  0  0  0  0  0  0  0  0  0  0
  145.9214  129.8246  152.7714 C   0  0  0  0  0  0  0  0  0  0  0  0
  146.5881  130.9171  153.6195 C   0  0  0  0  0  0  0  0  0  0  0  0
  146.2055  132.2378  153.1340 N   0  0  0  0  0  0  0  0  0  0  0  0
  146.6017  133.2269  153.9637 C   0  0  0  0  0  0  0  0  0  0  0  0
  145.6258  133.9617  154.5504 N   0  0  0  0  0  0  0  0  0  0  0  0
  145.9509  134.9674  155.3688 C   0  0  0  0  0  0  0  0  0  0  0  0
  147.1642  135.3973  155.7216 N   0  0  0  0  0  0  0  0  0  0  0  0
  148.1466  134.6622  155.1257 C   0  0  0  0  0  0  0  0  0  0  0  0
  147.9561  133.5660  154.2393 C   0  0  0  0  0  0  0  0  0  0  0  0
  149.1859  133.0661  153.8294 N   0  0  0  0  0  0  0  0  0  0  0  0
  150.0555  133.8177  154.4481 C   0  0  0  0  0  0  0  0  0  0  0  0
  149.5178  134.8098  155.2374 N   0  0  0  0  0  0  0  0  0  0  0  0
  150.2486  135.7901  156.0259 C   0  0  0  0  0  0  0  0  0  0  0  0
  150.8389  136.9561  155.1939 C   0  0  0  0  0  0  0  0  0  0  0  0
  151.6180  136.3964  154.1507 O   0  0  0  0  0  0  0  0  0  0  0  0
  149.7053  137.7890  154.5621 C   0  0  0  0  0  0  0  0  0  0  0  0
  150.2315  139.0598  153.8720 C   0  0  0  0  0  0  0  0  0  0  0  0
  150.9897  139.8338  154.7934 O   0  0  0  0  0  0  0  0  0  0  0  0
  152.1484  139.1533  155.2591 C   0  0  0  0  0  0  0  0  0  0  0  0
  151.7445  137.8851  156.0321 C   0  0  0  0  0  0  0  0  0  0  0  0
  146.5258  132.4310  151.7164 C   0  0  2  0  0  0  0  0  0  0  0  0
  146.1006  133.8120  151.1554 C   0  0  0  0  0  0  0  0  0  0  0  0
  144.5223  135.5724  149.7343 H   0  0  0  0  0  0  0  0  0  0  0  0
  144.6114  136.0486  151.4356 H   0  0  0  0  0  0  0  0  0  0  0  0
  143.1087  135.4033  150.7835 H   0  0  0  0  0  0  0  0  0  0  0  0
  142.9183  133.0419  150.2441 H   0  0  0  0  0  0  0  0  0  0  0  0
  144.3427  133.0303  149.2226 H   0  0  0  0  0  0  0  0  0  0  0  0
  143.8584  131.3723  151.7354 H   0  0  0  0  0  0  0  0  0  0  0  0
  143.9168  130.7509  150.1051 H   0  0  0  0  0  0  0  0  0  0  0  0
  146.2798  131.3561  149.8696 H   0  0  0  0  0  0  0  0  0  0  0  0
  144.8442  129.8070  152.9349 H   0  0  0  0  0  0  0  0  0  0  0  0
  146.2917  128.8445  153.0723 H   0  0  0  0  0  0  0  0  0  0  0  0
  146.2998  130.8035  154.6655 H   0  0  0  0  0  0  0  0  0  0  0  0
  147.6716  130.8031  153.5709 H   0  0  0  0  0  0  0  0  0  0  0  0
  145.1212  135.5071  155.8010 H   0  0  0  0  0  0  0  0  0  0  0  0
  151.1208  133.6752  154.3372 H   0  0  0  0  0  0  0  0  0  0  0  0
  149.5806  136.1758  156.7976 H   0  0  0  0  0  0  0  0  0  0  0  0
  151.0474  135.2666  156.5532 H   0  0  0  0  0  0  0  0  0  0  0  0
  151.1452  136.4917  153.3379 H   0  0  0  0  0  0  0  0  0  0  0  0
  149.1358  137.1861  153.8533 H   0  0  0  0  0  0  0  0  0  0  0  0
  149.0024  138.0883  155.3408 H   0  0  0  0  0  0  0  0  0  0  0  0
  150.8379  138.8132  152.9992 H   0  0  0  0  0  0  0  0  0  0  0  0
  149.3960  139.6617  153.5144 H   0  0  0  0  0  0  0  0  0  0  0  0
  152.8032  138.9110  154.4207 H   0  0  0  0  0  0  0  0  0  0  0  0
  152.7088  139.8230  155.9114 H   0  0  0  0  0  0  0  0  0  0  0  0
  151.2125  138.1843  156.9362 H   0  0  0  0  0  0  0  0  0  0  0  0
  152.6413  137.3605  156.3635 H   0  0  0  0  0  0  0  0  0  0  0  0
  147.6083  132.3425  151.6128 H   0  0  0  0  0  0  0  0  0  0  0  0
  146.4961  133.9311  150.1453 H   0  0  0  0  0  0  0  0  0  0  0  0
  146.5351  134.6236  151.7404 H   0  0  0  0  0  0  0  0  0  0  0  0
  144.2903  133.7900  152.0499 H   0  0  0  0  0  0  0  0  0  0  0  0
  1  2  1  0  0  0  0
  1 29  1  0  0  0  0
  1 30  1  0  0  0  0
  1 31  1  0  0  0  0
  2 28  1  0  0  0  0
  2  3  1  0  0  0  0
  2 57  1  0  0  0  0
  3  4  1  0  0  0  0
  3 32  1  0  0  0  0
  3 33  1  0  0  0  0
  4  5  1  0  0  0  0
  4 34  1  0  0  0  0
  4 35  1  0  0  0  0
  5 27  1  0  0  0  0
  5  6  1  0  0  0  0
  5 36  1  0  0  0  0
  6  7  1  0  0  0  0
  7  8  1  0  0  0  0
  7 37  1  0  0  0  0
  7 38  1  0  0  0  0
  8  9  1  0  0  0  0
  8 39  1  0  0  0  0
  8 40  1  0  0  0  0
  9 10  1  0  0  0  0
  9 27  1  0  0  0  0
 10 15  1  0  0  0  0
 10 11  2  0  0  0  0
 11 12  1  0  0  0  0
 12 13  2  0  0  0  0
 12 41  1  0  0  0  0
 13 14  1  0  0  0  0
 14 18  1  0  0  0  0
 14 15  2  0  0  0  0
 15 16  1  0  0  0  0
 16 17  2  0  0  0  0
 17 18  1  0  0  0  0
 17 42  1  0  0  0  0
 18 19  1  0  0  0  0
 19 20  1  0  0  0  0
 19 43  1  0  0  0  0
 19 44  1  0  0  0  0
 20 26  1  0  0  0  0
 20 21  1  0  0  0  0
 20 22  1  0  0  0  0
 21 45  1  0  0  0  0
 22 23  1  0  0  0  0
 22 46  1  0  0  0  0
 22 47  1  0  0  0  0
 23 24  1  0  0  0  0
 23 48  1  0  0  0  0
 23 49  1  0  0  0  0
 24 25  1  0  0  0  0
 25 26  1  0  0  0  0
 25 50  1  0  0  0  0
 25 51  1  0  0  0  0
 26 52  1  0  0  0  0
 26 53  1  0  0  0  0
 27 28  1  0  0  0  0
 27 54  1  0  0  0  0
 28 55  1  0  0  0  0
 28 56  1  0  0  0  0
M  CHG  1   2   1
M  END
> <s_m_source_file>
AV-unprocessed.smi

> <i_m_source_file_index>
244

> <i_lp_mmshare_version>
43012

> <i_f3d_flags>
0

> <s_epik_input>
W0NIMl0xW0NIMl1OKFtDSDNdKVtDSDJdW0NAQEhdKFtDQEhdMTIpTihbQ0gyXVtDSDJdTzIpYyhuW2NIXW4zKWMoYzM0KW5bY0hdbjRbQ0gyXUM1KFtPSF0pW0NIMl1bQ0gyXU9bQ0gyXVtDSDJdNQ==

> <s_epik_cmdline>
J2VwaWtfcHl0aG9uJywgJy1waCcsICc3LjAnLCAnLXRuJywgJzgnLCAnLW1hJywgJzIwMCcsICctbWV0YWxfYmluZGluZycsICctaW1hZScsICc8aW5maWxlLm1hZT4nLCAnLW9tYWUnLCAnPG91dGZpbGUubWFlPic=

> <r_lp_tautomer_probability>
1

> <r_epik_Ionization_Penalty>
0.0136215

> <r_epik_Ionization_Penalty_Charging>
0.0131385

> <r_epik_Ionization_Penalty_Neutral>
0.000483022

> <r_epik_State_Penalty>
0.0104001

> <r_epik_Charging_Adjusted_Penalty>
0.0235387

> <i_epik_Tot_Q>
1

> <i_epik_Tot_abs_Q>
1

> <r_epik_Metal_State_Penalty>
0.0104469

> <b_epik_Metal_Only>
0

> <s_lp_Force_Field>
OPLS_2005

> <r_lp_Energy>
48.7962

> <b_lp_Chiralities_Consistent>
1

> <s_lp_Variant>
AV-unprocessed.smi:244-5

> <Gold.Version>
5.8.1

> <Gold.Id.Protein>
6NUR|6NUR_protein|mol2

> <Gold.PLP.Fitness>
45.4609

> <Gold.PLP.PLP>
-38.7209

> <Gold.PLP.part.hbond>
-3.0000

> <Gold.PLP.part.metal>
0.0000

> <Gold.PLP.part.buried>
-6.2197

> <Gold.PLP.part.nonpolar>
-31.9012

> <Gold.PLP.part.repulsive>
0.9533

> <Gold.PLP.ligand.clash>
0.0000

> <Gold.PLP.ligand.torsion>
0.3213

> <Gold.PLP.Chemscore.Hbond>
2.4160

> <Gold.PLP.Chemscore.CHOScore>
0.0000

> <Gold.PLP.Chemscore.Metal>
0.0000

> <Gold.Chemscore.Hbonds>
donor molecule, donor type, donor heavy atom, donor atom, acceptor molecule, acceptor atom, score
      L1  H    21    45       P1  7949  0.85
      P1  H  7989  7998       L1    24  0.60
      P1  H 10752 10763       L1    21  0.96

> <Gold.PLP.Chemscore.Internal.Correction>
0.1345

> <Gold.Rescore>
     Score         DG    S(hbond)    S(metal)    S(lipo)     H(rot)  DE(clash)    DE(int)     intcor
     15.02     -16.45       1.36        0.00     100.81       2.09       0.41       1.03       ----

> <Gold.Chemscore.Fitness>
15.0159

> <Gold.Chemscore.DG>
-16.4537

> <Gold.Chemscore.ZeroCoef>
-5.4800

> <Gold.Chemscore.Hbond>
1.3569

> <Gold.Chemscore.Metal>
0.0000

> <Gold.Chemscore.Lipo>
100.8089

> <Gold.Chemscore.Internal_Hbond>
0.0000

> <Gold.Chemscore.DEClash>
0.4117

> <Gold.Chemscore.DEInternal>
1.0262

> <Gold.Chemscore.Rot>
2.0911

> <Gold.Chemscore.Internal.Correction>
   9.000000E+99

> <Gold.Chemscore.Hbonds>
donor molecule, donor type, donor heavy atom, donor atom, acceptor molecule, acceptor atom, score
      L1  H    21    45       P1  7949  0.38
      P1  H  7989  7998       L1    24  0.02
      P1  H 10752 10763       L1    21  0.91

> <Gold.Chemscore.Hbond.Weighted>
-4.5322

> <Gold.Chemscore.Metal.Weighted>
-0.0000

> <Gold.Chemscore.Lipo.Weighted>
-11.7946

> <Gold.Chemscore.Internal_Hbond.Weighted>
0.0000

> <Gold.Chemscore.DEClash.Weighted>
0.4117

> <Gold.Chemscore.DEInternal.Weighted>
1.0262

> <Gold.Chemscore.Rot.Weighted>
5.3531

> <Gold.Chemscore.Internal.Correction.Weighted>
   9.000000E+99

> <Gold.Protein.RotatedTorsions>
[ 6907 6896 6895 6894 ] final  -17.31 input  -60.11 | X-H torsion
[ 7974 7965 7964 7962 ] final  111.96 input  175.53 | X-H torsion
[ 8008 7997 7996 7995 ] final  -84.36 input   59.86 | X-H torsion
[ 10167 10162 10161 10158 ] final  -83.14 input  -65.29 | X-H torsion
[ 10718 10713 10712 10709 ] final   82.36 input   66.30 | X-H torsion
[ 10763 10752 10751 10750 ] final   41.02 input  -60.55 | X-H torsion
[ 11005 11000 10999 10996 ] final  172.42 input  -57.11 | X-H torsion

> <Gold.Protein.ActiveResidues>
 VAL166  LYS551  ARG553  GLY616  TRP617  ASP618  TYR619  PRO620  LYS621  CYS622 
 ASP623  PHE694  ASN695  SER759  ASP760  ASP761  ALA762  ILE779  LEU786  VAL792 
 PHE793  MET794  SER795  GLU796  ALA797  LYS798  CYS799  TRP800  GLU811  SER814 

> <Gold.Protein.RotatedAtoms>
  151.2952  135.0753  159.9218 H   0  0  0  0  0  0  0  0  0  0  0  0  # atno 6907 bound_to 6896
  152.5308  133.9890  159.7852 H   0  0  0  0  0  0  0  0  0  0  0  0  # atno 6908 bound_to 6896
  151.0167  133.5863  159.2706 H   0  0  0  0  0  0  0  0  0  0  0  0  # atno 6909 bound_to 6896
  145.2356  139.2800  143.4145 H   0  0  0  0  0  0  0  0  0  0  0  0  # atno 7974 bound_to 7965
  154.6290  140.0606  156.9708 H   0  0  0  0  0  0  0  0  0  0  0  0  # atno 8008 bound_to 7997
  155.1696  140.3290  155.4377 H   0  0  0  0  0  0  0  0  0  0  0  0  # atno 8009 bound_to 7997
  156.2472  140.1916  156.6799 H   0  0  0  0  0  0  0  0  0  0  0  0  # atno 8010 bound_to 7997
  140.4254  143.2568  151.8833 H   0  0  0  0  0  0  0  0  0  0  0  0  # atno 10167 bound_to 10162
  157.6855  131.0044  150.2363 H   0  0  0  0  0  0  0  0  0  0  0  0  # atno 10718 bound_to 10713
  152.9920  135.6174  154.2720 H   0  0  0  0  0  0  0  0  0  0  0  0  # atno 10763 bound_to 10752
  154.2452  135.2787  155.2840 H   0  0  0  0  0  0  0  0  0  0  0  0  # atno 10764 bound_to 10752
  154.5335  135.5781  153.6836 H   0  0  0  0  0  0  0  0  0  0  0  0  # atno 10765 bound_to 10752
  140.3295  134.7369  157.4124 H   0  0  0  0  0  0  0  0  0  0  0  0  # atno 11005 bound_to 11000
  146.3342  140.2705  142.8605 LP  0  0  0  0  0  0  0  0  0  0  0  0  # atno 17320 bound_to 7965
  144.9636  140.8299  143.5498 LP  0  0  0  0  0  0  0  0  0  0  0  0  # atno 17321 bound_to 7965
  139.4783  144.5392  151.8552 LP  0  0  0  0  0  0  0  0  0  0  0  0  # atno 17342 bound_to 10162
  140.4487  144.1885  150.5896 LP  0  0  0  0  0  0  0  0  0  0  0  0  # atno 17343 bound_to 10162
  156.2986  130.3755  149.7772 LP  0  0  0  0  0  0  0  0  0  0  0  0  # atno 17370 bound_to 10713
  156.5409  130.8299  151.3269 LP  0  0  0  0  0  0  0  0  0  0  0  0  # atno 17371 bound_to 10713
  140.0873  134.5650  155.8480 LP  0  0  0  0  0  0  0  0  0  0  0  0  # atno 17394 bound_to 11000
  141.2067  133.6657  156.6257 LP  0  0  0  0  0  0  0  0  0  0  0  0  # atno 17395 bound_to 11000

$$$$
