AV-unprocessed.smi:13|AV-procd|sdf|69|dock7
  -GOLD-   2262015193D 1   1.00000     0.00000
 Structure written by MMmdl.
 54 58  0  0  0  0  0  0  0  0  1 V2000
  152.2782  144.1513  157.9828 C   0  0  0  0  0  0  0  0  0  0  0  0
  151.0751  143.2000  158.0295 C   0  0  0  0  0  0  0  0  0  0  0  0
  150.0494  143.8360  158.9670 C   0  0  0  0  0  0  0  0  0  0  0  0
  150.5374  142.7410  156.6652 C   0  0  0  0  0  0  0  0  0  0  0  0
  151.3463  141.5441  156.8275 N   0  0  0  0  0  0  0  0  0  0  0  0
  150.7533  140.3434  156.3542 C   0  0  0  0  0  0  0  0  0  0  0  0
  150.6870  140.1939  155.0074 N   0  0  0  0  0  0  0  0  0  0  0  0
  150.1579  139.0971  154.4586 C   0  0  0  0  0  0  0  0  0  0  0  0
  149.6383  138.0303  155.0652 N   0  0  0  0  0  0  0  0  0  0  0  0
  149.6945  138.1632  156.4200 C   0  0  0  0  0  0  0  0  0  0  0  0
  150.2287  139.2716  157.1384 C   0  0  0  0  0  0  0  0  0  0  0  0
  150.1120  139.0403  158.5050 N   0  0  0  0  0  0  0  0  0  0  0  0
  149.5448  137.8686  158.5880 C   0  0  0  0  0  0  0  0  0  0  0  0
  149.2526  137.2729  157.3828 N   0  0  0  0  0  0  0  0  0  0  0  0
  148.6187  135.9789  157.1821 C   0  0  0  0  0  0  0  0  0  0  0  0
  149.5662  134.9252  156.5641 C   0  0  1  0  0  0  0  0  0  0  0  0
  150.6913  134.7681  157.4118 O   0  0  0  0  0  0  0  0  0  0  0  0
  148.9262  133.5570  156.3508 C   0  0  0  0  0  0  0  0  0  0  0  0
  149.6685  133.0238  155.1339 C   0  0  0  0  0  0  0  0  0  0  0  0
  149.7982  134.1768  154.3192 O   0  0  0  0  0  0  0  0  0  0  0  0
  150.0657  135.2995  155.1545 C   0  0  0  0  0  0  0  0  0  0  0  0
  151.3622  141.7036  158.2764 C   0  0  1  0  0  0  0  0  0  0  0  0
  152.6817  141.2207  158.8791 C   0  0  2  0  0  0  0  0  0  0  0  0
  152.7058  139.7290  159.2115 C   0  0  0  0  0  0  0  0  0  0  0  0
  153.7450  139.6285  160.3159 C   0  0  0  0  0  0  0  0  0  0  0  0
  153.8908  141.0674  160.8197 C   0  0  0  0  0  0  0  0  0  0  0  0
  152.8684  141.8012  160.1596 O   0  0  0  0  0  0  0  0  0  0  0  0
  151.9903  145.1423  157.6309 H   0  0  0  0  0  0  0  0  0  0  0  0
  153.0549  143.7878  157.3091 H   0  0  0  0  0  0  0  0  0  0  0  0
  152.7327  144.2710  158.9668 H   0  0  0  0  0  0  0  0  0  0  0  0
  149.1474  143.2280  159.0435 H   0  0  0  0  0  0  0  0  0  0  0  0
  149.7436  144.8226  158.6177 H   0  0  0  0  0  0  0  0  0  0  0  0
  150.4478  143.9495  159.9757 H   0  0  0  0  0  0  0  0  0  0  0  0
  149.4622  142.5593  156.6595 H   0  0  0  0  0  0  0  0  0  0  0  0
  150.8480  143.3649  155.8267 H   0  0  0  0  0  0  0  0  0  0  0  0
  150.1495  139.0718  153.3788 H   0  0  0  0  0  0  0  0  0  0  0  0
  149.3162  137.4060  159.5371 H   0  0  0  0  0  0  0  0  0  0  0  0
  148.2463  135.6284  158.1457 H   0  0  0  0  0  0  0  0  0  0  0  0
  147.7412  136.1194  156.5495 H   0  0  0  0  0  0  0  0  0  0  0  0
  151.4737  134.8503  156.8881 H   0  0  0  0  0  0  0  0  0  0  0  0
  148.9884  132.8992  157.2191 H   0  0  0  0  0  0  0  0  0  0  0  0
  147.8722  133.6692  156.0939 H   0  0  0  0  0  0  0  0  0  0  0  0
  150.6568  132.6511  155.4077 H   0  0  0  0  0  0  0  0  0  0  0  0
  149.1261  132.2281  154.6231 H   0  0  0  0  0  0  0  0  0  0  0  0
  149.5458  136.1684  154.7498 H   0  0  0  0  0  0  0  0  0  0  0  0
  151.1334  135.5247  155.1411 H   0  0  0  0  0  0  0  0  0  0  0  0
  150.4981  141.2370  158.7500 H   0  0  0  0  0  0  0  0  0  0  0  0
  153.5340  141.4800  158.2478 H   0  0  0  0  0  0  0  0  0  0  0  0
  151.7345  139.4121  159.5942 H   0  0  0  0  0  0  0  0  0  0  0  0
  152.9431  139.1082  158.3472 H   0  0  0  0  0  0  0  0  0  0  0  0
  153.4145  138.9515  161.1043 H   0  0  0  0  0  0  0  0  0  0  0  0
  154.6967  139.2595  159.9321 H   0  0  0  0  0  0  0  0  0  0  0  0
  153.7885  141.1445  161.9023 H   0  0  0  0  0  0  0  0  0  0  0  0
  154.8633  141.4746  160.5395 H   0  0  0  0  0  0  0  0  0  0  0  0
  1  2  1  0  0  0  0
  1 28  1  0  0  0  0
  1 29  1  0  0  0  0
  1 30  1  0  0  0  0
  2 22  1  0  0  0  0
  2  3  1  0  0  0  0
  2  4  1  0  0  0  0
  3 31  1  0  0  0  0
  3 32  1  0  0  0  0
  3 33  1  0  0  0  0
  4  5  1  0  0  0  0
  4 34  1  0  0  0  0
  4 35  1  0  0  0  0
  5  6  1  0  0  0  0
  5 22  1  0  0  0  0
  6 11  1  0  0  0  0
  6  7  2  0  0  0  0
  7  8  1  0  0  0  0
  8  9  2  0  0  0  0
  8 36  1  0  0  0  0
  9 10  1  0  0  0  0
 10 14  1  0  0  0  0
 10 11  2  0  0  0  0
 11 12  1  0  0  0  0
 12 13  2  0  0  0  0
 13 14  1  0  0  0  0
 13 37  1  0  0  0  0
 14 15  1  0  0  0  0
 15 16  1  0  0  0  0
 15 38  1  0  0  0  0
 15 39  1  0  0  0  0
 16 21  1  0  0  0  0
 16 17  1  0  0  0  0
 16 18  1  0  0  0  0
 17 40  1  0  0  0  0
 18 19  1  0  0  0  0
 18 41  1  0  0  0  0
 18 42  1  0  0  0  0
 19 20  1  0  0  0  0
 19 43  1  0  0  0  0
 19 44  1  0  0  0  0
 20 21  1  0  0  0  0
 21 45  1  0  0  0  0
 21 46  1  0  0  0  0
 22 23  1  0  0  0  0
 22 47  1  0  0  0  0
 23 27  1  0  0  0  0
 23 24  1  0  0  0  0
 23 48  1  0  0  0  0
 24 25  1  0  0  0  0
 24 49  1  0  0  0  0
 24 50  1  0  0  0  0
 25 26  1  0  0  0  0
 25 51  1  0  0  0  0
 25 52  1  0  0  0  0
 26 27  1  0  0  0  0
 26 53  1  0  0  0  0
 26 54  1  0  0  0  0
M  END
> <s_m_source_file>
AV-unprocessed.smi

> <i_m_source_file_index>
13

> <i_lp_mmshare_version>
43012

> <i_f3d_flags>
0

> <s_epik_input>
TzFbQ0gyXVtDSDJdW0NIMl1bQ0BIXTFbQ0BASF0yTihbQ0gyXUMyKFtDSDNdKVtDSDNdKWMobltjSF1uMyljKGMzNCluW2NIXW40W0NIMl1bQ0BAXTUoW09IXSlbQ0gyXVtDSDJdT1tDSDJdNQ==

> <s_epik_cmdline>
J2VwaWtfcHl0aG9uJywgJy1waCcsICc3LjAnLCAnLXRuJywgJzgnLCAnLW1hJywgJzIwMCcsICctbWV0YWxfYmluZGluZycsICctaW1hZScsICc8aW5maWxlLm1hZT4nLCAnLW9tYWUnLCAnPG91dGZpbGUubWFlPic=

> <r_lp_tautomer_probability>
1

> <r_epik_Ionization_Penalty>
0.00202764

> <r_epik_Ionization_Penalty_Charging>
0

> <r_epik_Ionization_Penalty_Neutral>
0.00202764

> <r_epik_State_Penalty>
0.00134017

> <r_epik_Charging_Adjusted_Penalty>
0.00134017

> <i_epik_Tot_Q>
0

> <i_epik_Tot_abs_Q>
0

> <r_epik_Metal_State_Penalty>
-0

> <b_epik_Metal_Only>
0

> <s_lp_Force_Field>
OPLS_2005

> <r_lp_Energy>
60.4132

> <b_lp_Chiralities_Consistent>
1

> <s_lp_Variant>
AV-unprocessed.smi:13-1

> <Gold.Version>
5.8.1

> <Gold.Id.Protein>
6NUR|6NUR_protein|mol2

> <Gold.PLP.Fitness>
42.5447

> <Gold.PLP.PLP>
-35.8194

> <Gold.PLP.part.hbond>
-2.0000

> <Gold.PLP.part.metal>
0.0000

> <Gold.PLP.part.buried>
-4.3506

> <Gold.PLP.part.nonpolar>
-30.2151

> <Gold.PLP.part.repulsive>
0.3915

> <Gold.PLP.ligand.clash>
0.0000

> <Gold.PLP.ligand.torsion>
0.4850

> <Gold.PLP.Chemscore.Hbond>
1.4142

> <Gold.PLP.Chemscore.CHOScore>
1.0000

> <Gold.PLP.Chemscore.Metal>
0.0000

> <Gold.Chemscore.Hbonds>
donor molecule, donor type, donor heavy atom, donor atom, acceptor molecule, acceptor atom, score
      P1  H  6896  6907       L1    17  0.43
      P1  H  7989  7998       L1     7  1.00
      L1  C     8    36       P1  7957  1.00

> <Gold.PLP.Chemscore.Internal.Correction>
0.4527

> <Gold.Rescore>
     Score         DG    S(hbond)    S(metal)    S(lipo)     H(rot)  DE(clash)    DE(int)     intcor
      9.90     -14.94       1.35        0.00      92.77       2.30       0.67       4.37       ----

> <Gold.Chemscore.Fitness>
9.8997

> <Gold.Chemscore.DG>
-14.9395

> <Gold.Chemscore.ZeroCoef>
-5.4800

> <Gold.Chemscore.Hbond>
1.3451

> <Gold.Chemscore.Metal>
0.0000

> <Gold.Chemscore.Lipo>
92.7670

> <Gold.Chemscore.Internal_Hbond>
0.0000

> <Gold.Chemscore.DEClash>
0.6733

> <Gold.Chemscore.DEInternal>
4.3665

> <Gold.Chemscore.Rot>
2.2996

> <Gold.Chemscore.Internal.Correction>
   9.000000E+99

> <Gold.Chemscore.Hbonds>
donor molecule, donor type, donor heavy atom, donor atom, acceptor molecule, acceptor atom, score
      P1  H  6896  6907       L1    17  0.40
      P1  H  7989  7998       L1     7  0.25

> <Gold.Chemscore.Hbond.Weighted>
-4.4927

> <Gold.Chemscore.Metal.Weighted>
-0.0000

> <Gold.Chemscore.Lipo.Weighted>
-10.8537

> <Gold.Chemscore.Internal_Hbond.Weighted>
0.0000

> <Gold.Chemscore.DEClash.Weighted>
0.6733

> <Gold.Chemscore.DEInternal.Weighted>
4.3665

> <Gold.Chemscore.Rot.Weighted>
5.8869

> <Gold.Chemscore.Internal.Correction.Weighted>
   9.000000E+99

> <Gold.Protein.RotatedTorsions>
[ 6907 6896 6895 6894 ] final -110.83 input  -60.11 | X-H torsion
[ 7974 7965 7964 7962 ] final   62.25 input  175.53 | X-H torsion
[ 8008 7997 7996 7995 ] final -117.96 input   59.86 | X-H torsion
[ 10167 10162 10161 10158 ] final   69.43 input  -65.29 | X-H torsion
[ 10718 10713 10712 10709 ] final  -90.80 input   66.30 | X-H torsion
[ 10763 10752 10751 10750 ] final  130.84 input  -60.55 | X-H torsion
[ 11005 11000 10999 10996 ] final  154.83 input  -57.11 | X-H torsion

> <Gold.Protein.ActiveResidues>
 VAL166  LYS551  ARG553  GLY616  TRP617  ASP618  TYR619  PRO620  LYS621  CYS622 
 ASP623  PHE694  ASN695  SER759  ASP760  ASP761  ALA762  ILE779  LEU786  VAL792 
 PHE793  MET794  SER795  GLU796  ALA797  LYS798  CYS799  TRP800  GLU811  SER814 

> <Gold.Protein.RotatedAtoms>
  150.7650  133.9325  159.3430 H   0  0  0  0  0  0  0  0  0  0  0  0  # atno 6907 bound_to 6896
  151.7225  135.0889  160.0296 H   0  0  0  0  0  0  0  0  0  0  0  0  # atno 6908 bound_to 6896
  152.3641  133.6297  159.6073 H   0  0  0  0  0  0  0  0  0  0  0  0  # atno 6909 bound_to 6896
  145.8754  139.3406  143.0737 H   0  0  0  0  0  0  0  0  0  0  0  0  # atno 7974 bound_to 7965
  155.0920  140.0395  157.2671 H   0  0  0  0  0  0  0  0  0  0  0  0  # atno 8008 bound_to 7997
  154.6824  140.2636  155.6869 H   0  0  0  0  0  0  0  0  0  0  0  0  # atno 8009 bound_to 7997
  156.2700  140.2776  156.1374 H   0  0  0  0  0  0  0  0  0  0  0  0  # atno 8010 bound_to 7997
  140.0679  144.5177  150.7248 H   0  0  0  0  0  0  0  0  0  0  0  0  # atno 10167 bound_to 10162
  155.9990  130.4924  150.5378 H   0  0  0  0  0  0  0  0  0  0  0  0  # atno 10718 bound_to 10713
  153.7647  135.3191  155.3342 H   0  0  0  0  0  0  0  0  0  0  0  0  # atno 10763 bound_to 10752
  154.8218  135.4598  154.0803 H   0  0  0  0  0  0  0  0  0  0  0  0  # atno 10764 bound_to 10752
  153.2045  135.6927  153.8274 H   0  0  0  0  0  0  0  0  0  0  0  0  # atno 10765 bound_to 10752
  140.1525  134.8665  157.2473 H   0  0  0  0  0  0  0  0  0  0  0  0  # atno 11005 bound_to 11000
  145.9087  140.9195  143.0465 LP  0  0  0  0  0  0  0  0  0  0  0  0  # atno 17320 bound_to 7965
  144.6726  140.1130  143.7454 LP  0  0  0  0  0  0  0  0  0  0  0  0  # atno 17321 bound_to 7965
  140.7140  143.2528  151.4493 LP  0  0  0  0  0  0  0  0  0  0  0  0  # atno 17342 bound_to 10162
  139.5854  144.1617  152.2021 LP  0  0  0  0  0  0  0  0  0  0  0  0  # atno 17343 bound_to 10162
  157.3319  131.0701  151.1854 LP  0  0  0  0  0  0  0  0  0  0  0  0  # atno 17370 bound_to 10713
  157.2732  130.6714  149.6030 LP  0  0  0  0  0  0  0  0  0  0  0  0  # atno 17371 bound_to 10713
  140.2587  134.3597  155.7414 LP  0  0  0  0  0  0  0  0  0  0  0  0  # atno 17394 bound_to 11000
  141.2200  133.7357  156.9046 LP  0  0  0  0  0  0  0  0  0  0  0  0  # atno 17395 bound_to 11000

$$$$
