AV-unprocessed.smi:285|AV-procd|sdf|2170|dock1
  -GOLD-   2262021533D 1   1.00000     0.00000
 Structure written by MMmdl.
 31 33  0  0  0  0  0  0  0  0  1 V2000
  155.3686  137.6485  162.4255 N   0  0  0  0  0  0  0  0  0  0  0  0
  155.0751  138.3318  161.3105 C   0  0  0  0  0  0  0  0  0  0  0  0
  155.3002  137.7384  160.1150 N   0  0  0  0  0  0  0  0  0  0  0  0
  155.0201  138.4000  158.9875 C   0  0  0  0  0  0  0  0  0  0  0  0
  154.5231  139.6311  158.8422 N   0  0  0  0  0  0  0  0  0  0  0  0
  154.2924  140.2287  160.0484 C   0  0  0  0  0  0  0  0  0  0  0  0
  154.5432  139.6459  161.3255 C   0  0  0  0  0  0  0  0  0  0  0  0
  154.1978  140.5352  162.3354 N   0  0  0  0  0  0  0  0  0  0  0  0
  153.7719  141.5728  161.6707 C   0  0  0  0  0  0  0  0  0  0  0  0
  153.1764  143.1290  162.5936 Br  0  0  0  0  0  0  0  0  0  0  0  0
  153.7876  141.4903  160.2966 N   0  0  0  0  0  0  0  0  0  0  0  0
  153.3669  142.5105  159.2872 C   0  0  1  0  0  0  0  0  0  0  0  0
  152.1936  142.0011  158.4557 C   0  0  0  0  0  0  0  0  0  0  0  0
  151.4737  143.2994  158.1694 C   0  0  1  0  0  0  0  0  0  0  0  0
  150.1190  143.0640  157.8449 O   0  0  0  0  0  0  0  0  0  0  0  0
  151.6372  144.0441  159.4992 C   0  0  2  0  0  0  0  0  0  0  0  0
  151.5621  145.5720  159.3545 C   0  0  0  0  0  0  0  0  0  0  0  0
  151.6047  146.1851  160.6251 O   0  0  0  0  0  0  0  0  0  0  0  0
  152.9360  143.6593  159.9542 O   0  0  0  0  0  0  0  0  0  0  0  0
  155.2115  138.0701  163.3297 H   0  0  0  0  0  0  0  0  0  0  0  0
  155.7472  136.7147  162.3598 H   0  0  0  0  0  0  0  0  0  0  0  0
  155.2239  137.8674  158.0702 H   0  0  0  0  0  0  0  0  0  0  0  0
  154.2526  142.7405  158.6954 H   0  0  0  0  0  0  0  0  0  0  0  0
  152.5364  141.4742  157.5648 H   0  0  0  0  0  0  0  0  0  0  0  0
  151.5723  141.3322  159.0543 H   0  0  0  0  0  0  0  0  0  0  0  0
  151.9710  143.8346  157.3589 H   0  0  0  0  0  0  0  0  0  0  0  0
  149.8362  143.7303  157.2368 H   0  0  0  0  0  0  0  0  0  0  0  0
  150.8951  143.6798  160.2122 H   0  0  0  0  0  0  0  0  0  0  0  0
  152.3645  145.9508  158.7207 H   0  0  0  0  0  0  0  0  0  0  0  0
  150.6189  145.8577  158.8878 H   0  0  0  0  0  0  0  0  0  0  0  0
  152.4675  146.0610  160.9903 H   0  0  0  0  0  0  0  0  0  0  0  0
  1  2  1  0  0  0  0
  1 20  1  0  0  0  0
  1 21  1  0  0  0  0
  2  7  1  0  0  0  0
  2  3  2  0  0  0  0
  3  4  1  0  0  0  0
  4  5  2  0  0  0  0
  4 22  1  0  0  0  0
  5  6  1  0  0  0  0
  6 11  1  0  0  0  0
  6  7  2  0  0  0  0
  7  8  1  0  0  0  0
  8  9  2  0  0  0  0
  9 10  1  0  0  0  0
  9 11  1  0  0  0  0
 11 12  1  0  0  0  0
 12 19  1  0  0  0  0
 12 13  1  0  0  0  0
 12 23  1  0  0  0  0
 13 14  1  0  0  0  0
 13 24  1  0  0  0  0
 13 25  1  0  0  0  0
 14 15  1  0  0  0  0
 14 16  1  0  0  0  0
 14 26  1  0  0  0  0
 15 27  1  0  0  0  0
 16 17  1  0  0  0  0
 16 19  1  0  0  0  0
 16 28  1  0  0  0  0
 17 18  1  0  0  0  0
 17 29  1  0  0  0  0
 17 30  1  0  0  0  0
 18 31  1  0  0  0  0
M  END
> <s_m_source_file>
AV-unprocessed.smi

> <i_m_source_file_index>
285

> <i_lp_mmshare_version>
43012

> <i_f3d_flags>
0

> <s_epik_input>
bjFbY0hdbmMoW05IMl0pYyhjMTIpbmMoQnIpbjJbQ0BASF0zW0NIMl1bQ0BASF0oW09IXSlbQ0BIXShPMylbQ0gyXVtPSF0=

> <s_epik_cmdline>
J2VwaWtfcHl0aG9uJywgJy1waCcsICc3LjAnLCAnLXRuJywgJzgnLCAnLW1hJywgJzIwMCcsICctbWV0YWxfYmluZGluZycsICctaW1hZScsICc8aW5maWxlLm1hZT4nLCAnLW9tYWUnLCAnPG91dGZpbGUubWFlPic=

> <r_lp_tautomer_probability>
1

> <r_epik_Ionization_Penalty>
0.000103242

> <r_epik_Ionization_Penalty_Charging>
0

> <r_epik_Ionization_Penalty_Neutral>
0.000103242

> <r_epik_State_Penalty>
-0

> <r_epik_Charging_Adjusted_Penalty>
0

> <i_epik_Tot_Q>
0

> <i_epik_Tot_abs_Q>
0

> <r_epik_Metal_State_Penalty>
-0

> <b_epik_Metal_Only>
0

> <s_epik_Chemistry_Notes>
This compound contains an acetal/aminal-like group ( X-CH(R)-Y where X, Y are N, S, or O) that may be acid/base labile, releasing an aldehyde.

> <s_lp_Force_Field>
OPLS_2005

> <r_lp_Energy>
32.6465

> <b_lp_Chiralities_Consistent>
1

> <s_lp_Variant>
AV-unprocessed.smi:285-6

> <Gold.Version>
5.8.1

> <Gold.Id.Protein>
6NUR|6NUR_protein|mol2

> <Gold.PLP.Fitness>
41.9163

> <Gold.PLP.PLP>
-35.9832

> <Gold.PLP.part.hbond>
-4.7772

> <Gold.PLP.part.metal>
0.0000

> <Gold.PLP.part.buried>
-3.8389

> <Gold.PLP.part.nonpolar>
-27.4182

> <Gold.PLP.part.repulsive>
0.0000

> <Gold.PLP.ligand.clash>
0.0000

> <Gold.PLP.ligand.torsion>
0.0378

> <Gold.PLP.Chemscore.Hbond>
2.0000

> <Gold.PLP.Chemscore.CHOScore>
0.0000

> <Gold.PLP.Chemscore.Metal>
0.0000

> <Gold.Chemscore.Hbonds>
donor molecule, donor type, donor heavy atom, donor atom, acceptor molecule, acceptor atom, score
      L1  H    15    27       P1  8028  0.89
      P1  H  7997  8010       L1     5  1.00

> <Gold.PLP.Chemscore.Internal.Correction>
0.0086

> <Gold.Rescore>
     Score         DG    S(hbond)    S(metal)    S(lipo)     H(rot)  DE(clash)    DE(int)     intcor
      8.62     -10.47       1.64        0.00      62.93       3.06       0.24       1.61       ----

> <Gold.Chemscore.Fitness>
8.6212

> <Gold.Chemscore.DG>
-10.4714

> <Gold.Chemscore.ZeroCoef>
-5.4800

> <Gold.Chemscore.Hbond>
1.6360

> <Gold.Chemscore.Metal>
0.0000

> <Gold.Chemscore.Lipo>
62.9272

> <Gold.Chemscore.Internal_Hbond>
0.0000

> <Gold.Chemscore.DEClash>
0.2440

> <Gold.Chemscore.DEInternal>
1.6063

> <Gold.Chemscore.Rot>
3.0607

> <Gold.Chemscore.Internal.Correction>
   9.000000E+99

> <Gold.Chemscore.Hbonds>
donor molecule, donor type, donor heavy atom, donor atom, acceptor molecule, acceptor atom, score
      L1  H    15    27       P1  8028  0.75
      P1  H  7997  8010       L1     5  0.30

> <Gold.Chemscore.Hbond.Weighted>
-5.4643

> <Gold.Chemscore.Metal.Weighted>
-0.0000

> <Gold.Chemscore.Lipo.Weighted>
-7.3625

> <Gold.Chemscore.Internal_Hbond.Weighted>
0.0000

> <Gold.Chemscore.DEClash.Weighted>
0.2440

> <Gold.Chemscore.DEInternal.Weighted>
1.6063

> <Gold.Chemscore.Rot.Weighted>
7.8354

> <Gold.Chemscore.Internal.Correction.Weighted>
   9.000000E+99

> <Gold.Protein.RotatedTorsions>
[ 6907 6896 6895 6894 ] final  103.10 input  -60.11 | X-H torsion
[ 7974 7965 7964 7962 ] final -152.25 input  175.53 | X-H torsion
[ 8008 7997 7996 7995 ] final   -0.73 input   59.86 | X-H torsion
[ 10167 10162 10161 10158 ] final   84.54 input  -65.29 | X-H torsion
[ 10718 10713 10712 10709 ] final  111.92 input   66.30 | X-H torsion
[ 10763 10752 10751 10750 ] final   64.27 input  -60.55 | X-H torsion
[ 11005 11000 10999 10996 ] final   50.28 input  -57.11 | X-H torsion

> <Gold.Protein.ActiveResidues>
 VAL166  LYS551  ARG553  GLY616  TRP617  ASP618  TYR619  PRO620  LYS621  CYS622 
 ASP623  PHE694  ASN695  SER759  ASP760  ASP761  ALA762  ILE779  LEU786  VAL792 
 PHE793  MET794  SER795  GLU796  ALA797  LYS798  CYS799  TRP800  GLU811  SER814 

> <Gold.Protein.RotatedAtoms>
  152.5305  133.9876  159.7835 H   0  0  0  0  0  0  0  0  0  0  0  0  # atno 6907 bound_to 6896
  151.0118  133.5950  159.2689 H   0  0  0  0  0  0  0  0  0  0  0  0  # atno 6908 bound_to 6896
  151.3022  135.0778  159.9296 H   0  0  0  0  0  0  0  0  0  0  0  0  # atno 6909 bound_to 6896
  144.7804  140.4687  143.5843 H   0  0  0  0  0  0  0  0  0  0  0  0  # atno 7974 bound_to 7965
  154.6547  140.2577  155.7175 H   0  0  0  0  0  0  0  0  0  0  0  0  # atno 8008 bound_to 7997
  156.2591  140.2861  156.0916 H   0  0  0  0  0  0  0  0  0  0  0  0  # atno 8009 bound_to 7997
  155.1398  140.0380  157.2786 H   0  0  0  0  0  0  0  0  0  0  0  0  # atno 8010 bound_to 7997
  139.9070  144.6295  150.8577 H   0  0  0  0  0  0  0  0  0  0  0  0  # atno 10167 bound_to 10162
  157.6420  131.0959  150.6819 H   0  0  0  0  0  0  0  0  0  0  0  0  # atno 10718 bound_to 10713
  153.0049  135.5399  154.6484 H   0  0  0  0  0  0  0  0  0  0  0  0  # atno 10763 bound_to 10752
  154.5722  135.2842  155.0818 H   0  0  0  0  0  0  0  0  0  0  0  0  # atno 10764 bound_to 10752
  154.1979  135.6489  153.5131 H   0  0  0  0  0  0  0  0  0  0  0  0  # atno 10765 bound_to 10752
  140.1031  134.5055  155.8745 H   0  0  0  0  0  0  0  0  0  0  0  0  # atno 11005 bound_to 11000
  145.6066  139.1509  143.3099 LP  0  0  0  0  0  0  0  0  0  0  0  0  # atno 17320 bound_to 7965
  146.2009  140.6184  142.9103 LP  0  0  0  0  0  0  0  0  0  0  0  0  # atno 17321 bound_to 7965
  140.7694  143.3394  151.2240 LP  0  0  0  0  0  0  0  0  0  0  0  0  # atno 17342 bound_to 10162
  139.6976  143.9587  152.2890 LP  0  0  0  0  0  0  0  0  0  0  0  0  # atno 17343 bound_to 10162
  156.7142  130.4661  149.5539 LP  0  0  0  0  0  0  0  0  0  0  0  0  # atno 17370 bound_to 10713
  156.1709  130.6436  151.0836 LP  0  0  0  0  0  0  0  0  0  0  0  0  # atno 17371 bound_to 10713
  141.2111  133.6702  156.6557 LP  0  0  0  0  0  0  0  0  0  0  0  0  # atno 17394 bound_to 11000
  140.3193  134.8021  157.4239 LP  0  0  0  0  0  0  0  0  0  0  0  0  # atno 17395 bound_to 11000

$$$$
