AV-unprocessed.smi:281|AV-procd|sdf|2107|dock4
  -GOLD-   2262021403D 1   1.00000     0.00000
 Structure written by MMmdl.
 55 59  0  0  0  0  0  0  0  0  1 V2000
  148.4268  142.1761  154.0483 C   0  0  0  0  0  0  0  0  0  0  0  0
  148.9986  140.8430  154.5406 C   0  0  2  0  0  0  0  0  0  0  0  0
  147.9505  139.7179  154.5045 C   0  0  0  0  0  0  0  0  0  0  0  0
  148.5119  138.5020  155.0775 N   0  0  0  0  0  0  0  0  0  0  0  0
  147.8482  137.3529  154.7968 C   0  0  0  0  0  0  0  0  0  0  0  0
  148.2510  136.1826  155.3602 N   0  0  0  0  0  0  0  0  0  0  0  0
  147.6069  135.0447  155.0853 C   0  0  0  0  0  0  0  0  0  0  0  0
  146.5571  134.8526  154.2848 N   0  0  0  0  0  0  0  0  0  0  0  0
  146.1504  136.0217  153.7124 C   0  0  0  0  0  0  0  0  0  0  0  0
  146.7348  137.3046  153.9111 C   0  0  0  0  0  0  0  0  0  0  0  0
  146.0657  138.2517  153.1447 N   0  0  0  0  0  0  0  0  0  0  0  0
  145.1359  137.5696  152.5341 C   0  0  0  0  0  0  0  0  0  0  0  0
  145.1090  136.2235  152.8227 N   0  0  0  0  0  0  0  0  0  0  0  0
  144.1925  135.2313  152.2810 C   0  0  0  0  0  0  0  0  0  0  0  0
  144.8308  134.3056  151.2184 C   0  0  2  0  0  0  0  0  0  0  0  0
  145.1214  135.0616  150.0556 O   0  0  0  0  0  0  0  0  0  0  0  0
  143.9188  133.1508  150.8228 C   0  0  0  0  0  0  0  0  0  0  0  0
  144.9050  132.0571  150.4372 C   0  0  0  0  0  0  0  0  0  0  0  0
  145.9294  132.2020  151.4055 O   0  0  0  0  0  0  0  0  0  0  0  0
  146.1201  133.5886  151.6715 C   0  0  0  0  0  0  0  0  0  0  0  0
  149.0489  138.6855  156.4227 C   0  0  0  0  0  0  0  0  0  0  0  0
  150.0552  139.8648  156.4653 C   0  0  1  0  0  0  0  0  0  0  0  0
  150.3864  140.2267  157.9075 C   0  0  0  0  0  0  0  0  0  0  0  0
  151.5930  139.3532  158.2082 C   0  0  0  0  0  0  0  0  0  0  0  0
  152.3510  139.4231  157.0134 O   0  0  0  0  0  0  0  0  0  0  0  0
  151.4779  139.5849  155.8969 C   0  0  1  0  0  0  0  0  0  0  0  0
  151.6499  138.3834  154.9513 C   0  0  0  0  0  0  0  0  0  0  0  0
  149.4509  141.0228  155.8815 O   0  0  0  0  0  0  0  0  0  0  0  0
  148.0752  142.0957  153.0196 H   0  0  0  0  0  0  0  0  0  0  0  0
  149.1842  142.9597  154.0805 H   0  0  0  0  0  0  0  0  0  0  0  0
  147.5876  142.4979  154.6658 H   0  0  0  0  0  0  0  0  0  0  0  0
  149.8424  140.5776  153.9029 H   0  0  0  0  0  0  0  0  0  0  0  0
  147.0707  140.0039  155.0823 H   0  0  0  0  0  0  0  0  0  0  0  0
  147.6175  139.5613  153.4791 H   0  0  0  0  0  0  0  0  0  0  0  0
  147.9890  134.1615  155.5757 H   0  0  0  0  0  0  0  0  0  0  0  0
  144.4431  138.0342  151.8480 H   0  0  0  0  0  0  0  0  0  0  0  0
  143.8058  134.6392  153.1115 H   0  0  0  0  0  0  0  0  0  0  0  0
  143.3349  135.7544  151.8557 H   0  0  0  0  0  0  0  0  0  0  0  0
  145.6381  134.5276  149.4718 H   0  0  0  0  0  0  0  0  0  0  0  0
  143.3377  132.8156  151.6828 H   0  0  0  0  0  0  0  0  0  0  0  0
  143.2171  133.3977  150.0250 H   0  0  0  0  0  0  0  0  0  0  0  0
  144.4638  131.0605  150.4635 H   0  0  0  0  0  0  0  0  0  0  0  0
  145.3134  132.2296  149.4401 H   0  0  0  0  0  0  0  0  0  0  0  0
  147.0033  133.9530  151.1444 H   0  0  0  0  0  0  0  0  0  0  0  0
  146.3062  133.7030  152.7389 H   0  0  0  0  0  0  0  0  0  0  0  0
  148.2124  138.8917  157.0924 H   0  0  0  0  0  0  0  0  0  0  0  0
  149.5195  137.7684  156.7791 H   0  0  0  0  0  0  0  0  0  0  0  0
  150.6812  141.2752  157.9759 H   0  0  0  0  0  0  0  0  0  0  0  0
  149.5611  140.0696  158.6029 H   0  0  0  0  0  0  0  0  0  0  0  0
  152.1655  139.7019  159.0678 H   0  0  0  0  0  0  0  0  0  0  0  0
  151.2932  138.3202  158.3897 H   0  0  0  0  0  0  0  0  0  0  0  0
  151.8290  140.4777  155.3781 H   0  0  0  0  0  0  0  0  0  0  0  0
  151.0417  138.4866  154.0533 H   0  0  0  0  0  0  0  0  0  0  0  0
  151.3838  137.4449  155.4372 H   0  0  0  0  0  0  0  0  0  0  0  0
  152.6878  138.2977  154.6290 H   0  0  0  0  0  0  0  0  0  0  0  0
  1  2  1  0  0  0  0
  1 29  1  0  0  0  0
  1 30  1  0  0  0  0
  1 31  1  0  0  0  0
  2 28  1  0  0  0  0
  2  3  1  0  0  0  0
  2 32  1  0  0  0  0
  3  4  1  0  0  0  0
  3 33  1  0  0  0  0
  3 34  1  0  0  0  0
  4  5  1  0  0  0  0
  4 21  1  0  0  0  0
  5 10  1  0  0  0  0
  5  6  2  0  0  0  0
  6  7  1  0  0  0  0
  7  8  2  0  0  0  0
  7 35  1  0  0  0  0
  8  9  1  0  0  0  0
  9 13  1  0  0  0  0
  9 10  2  0  0  0  0
 10 11  1  0  0  0  0
 11 12  2  0  0  0  0
 12 13  1  0  0  0  0
 12 36  1  0  0  0  0
 13 14  1  0  0  0  0
 14 15  1  0  0  0  0
 14 37  1  0  0  0  0
 14 38  1  0  0  0  0
 15 20  1  0  0  0  0
 15 16  1  0  0  0  0
 15 17  1  0  0  0  0
 16 39  1  0  0  0  0
 17 18  1  0  0  0  0
 17 40  1  0  0  0  0
 17 41  1  0  0  0  0
 18 19  1  0  0  0  0
 18 42  1  0  0  0  0
 18 43  1  0  0  0  0
 19 20  1  0  0  0  0
 20 44  1  0  0  0  0
 20 45  1  0  0  0  0
 21 22  1  0  0  0  0
 21 46  1  0  0  0  0
 21 47  1  0  0  0  0
 22 26  1  0  0  0  0
 22 23  1  0  0  0  0
 22 28  1  0  0  0  0
 23 24  1  0  0  0  0
 23 48  1  0  0  0  0
 23 49  1  0  0  0  0
 24 25  1  0  0  0  0
 24 50  1  0  0  0  0
 24 51  1  0  0  0  0
 25 26  1  0  0  0  0
 26 27  1  0  0  0  0
 26 52  1  0  0  0  0
 27 53  1  0  0  0  0
 27 54  1  0  0  0  0
 27 55  1  0  0  0  0
M  END
> <s_m_source_file>
AV-unprocessed.smi

> <i_m_source_file_index>
281

> <i_lp_mmshare_version>
43012

> <i_f3d_flags>
0

> <s_epik_input>
W0NIM11bQ0BASF0xT1tDSDJdW0NIMl1bQ0BAXTEyW0NIMl1OKFtDSDJdW0NASF0oTzIpW0NIM10pYyhuW2NIXW4zKWMoYzM0KW5bY0hdbjRbQ0gyXVtDQEBdNShbT0hdKVtDSDJdW0NIMl1PW0NIMl01

> <s_epik_cmdline>
J2VwaWtfcHl0aG9uJywgJy1waCcsICc3LjAnLCAnLXRuJywgJzgnLCAnLW1hJywgJzIwMCcsICctbWV0YWxfYmluZGluZycsICctaW1hZScsICc8aW5maWxlLm1hZT4nLCAnLW9tYWUnLCAnPG91dGZpbGUubWFlPic=

> <r_lp_tautomer_probability>
1

> <r_epik_Ionization_Penalty>
0.00571331

> <r_epik_Ionization_Penalty_Charging>
0

> <r_epik_Ionization_Penalty_Neutral>
0.00571331

> <r_epik_State_Penalty>
0.00399586

> <r_epik_Charging_Adjusted_Penalty>
0.00399586

> <i_epik_Tot_Q>
0

> <i_epik_Tot_abs_Q>
0

> <r_epik_Metal_State_Penalty>
-0

> <b_epik_Metal_Only>
0

> <s_lp_Force_Field>
OPLS_2005

> <r_lp_Energy>
55.2886

> <b_lp_Chiralities_Consistent>
1

> <s_lp_Variant>
AV-unprocessed.smi:281-7

> <Gold.Version>
5.8.1

> <Gold.Id.Protein>
6NUR|6NUR_protein|mol2

> <Gold.PLP.Fitness>
43.1257

> <Gold.PLP.PLP>
-32.4572

> <Gold.PLP.part.hbond>
-2.0000

> <Gold.PLP.part.metal>
0.0000

> <Gold.PLP.part.buried>
-1.6703

> <Gold.PLP.part.nonpolar>
-27.9520

> <Gold.PLP.part.repulsive>
0.7165

> <Gold.PLP.ligand.clash>
0.0721

> <Gold.PLP.ligand.torsion>
0.5907

> <Gold.PLP.Chemscore.Hbond>
2.0000

> <Gold.PLP.Chemscore.CHOScore>
1.8430

> <Gold.PLP.Chemscore.Metal>
0.0000

> <Gold.Chemscore.Hbonds>
donor molecule, donor type, donor heavy atom, donor atom, acceptor molecule, acceptor atom, score
      L1  H    16    39       P1  7921  0.61
      P1  H  7997  8010       L1    25  0.67
      L1  C    12    36       P1 10171  1.00
      L1  C    12    36       P1 10175  0.62

> <Gold.PLP.Chemscore.Internal.Correction>
0.3928

> <Gold.Rescore>
     Score         DG    S(hbond)    S(metal)    S(lipo)     H(rot)  DE(clash)    DE(int)     intcor
     13.63     -16.48       1.96        0.00      83.97       2.09       0.82       2.03       ----

> <Gold.Chemscore.Fitness>
13.6271

> <Gold.Chemscore.DG>
-16.4846

> <Gold.Chemscore.ZeroCoef>
-5.4800

> <Gold.Chemscore.Hbond>
1.9574

> <Gold.Chemscore.Metal>
0.0000

> <Gold.Chemscore.Lipo>
83.9675

> <Gold.Chemscore.Internal_Hbond>
0.0000

> <Gold.Chemscore.DEClash>
0.8225

> <Gold.Chemscore.DEInternal>
2.0349

> <Gold.Chemscore.Rot>
2.0927

> <Gold.Chemscore.Internal.Correction>
   9.000000E+99

> <Gold.Chemscore.Hbonds>
donor molecule, donor type, donor heavy atom, donor atom, acceptor molecule, acceptor atom, score
      L1  H    16    39       P1  7921  0.56
      P1  H  7997  8010       L1    25  0.52

> <Gold.Chemscore.Hbond.Weighted>
-6.5377

> <Gold.Chemscore.Metal.Weighted>
-0.0000

> <Gold.Chemscore.Lipo.Weighted>
-9.8242

> <Gold.Chemscore.Internal_Hbond.Weighted>
0.0000

> <Gold.Chemscore.DEClash.Weighted>
0.8225

> <Gold.Chemscore.DEInternal.Weighted>
2.0349

> <Gold.Chemscore.Rot.Weighted>
5.3573

> <Gold.Chemscore.Internal.Correction.Weighted>
   9.000000E+99

> <Gold.Protein.RotatedTorsions>
[ 6907 6896 6895 6894 ] final -176.94 input  -60.11 | X-H torsion
[ 7974 7965 7964 7962 ] final  146.50 input  175.53 | X-H torsion
[ 8008 7997 7996 7995 ] final   67.16 input   59.86 | X-H torsion
[ 10167 10162 10161 10158 ] final   94.97 input  -65.29 | X-H torsion
[ 10718 10713 10712 10709 ] final -155.82 input   66.30 | X-H torsion
[ 10763 10752 10751 10750 ] final  -10.59 input  -60.55 | X-H torsion
[ 11005 11000 10999 10996 ] final  164.66 input  -57.11 | X-H torsion

> <Gold.Protein.ActiveResidues>
 VAL166  LYS551  ARG553  GLY616  TRP617  ASP618  TYR619  PRO620  LYS621  CYS622 
 ASP623  PHE694  ASN695  SER759  ASP760  ASP761  ALA762  ILE779  LEU786  VAL792 
 PHE793  MET794  SER795  GLU796  ALA797  LYS798  CYS799  TRP800  GLU811  SER814 

> <Gold.Protein.RotatedAtoms>
  151.6130  133.3345  159.3071 H   0  0  0  0  0  0  0  0  0  0  0  0  # atno 6907 bound_to 6896
  150.8146  134.7325  159.6730 H   0  0  0  0  0  0  0  0  0  0  0  0  # atno 6908 bound_to 6896
  152.4243  134.5903  160.0024 H   0  0  0  0  0  0  0  0  0  0  0  0  # atno 6909 bound_to 6896
  144.8666  139.5913  143.5906 H   0  0  0  0  0  0  0  0  0  0  0  0  # atno 7974 bound_to 7965
  155.6886  140.3496  155.4884 H   0  0  0  0  0  0  0  0  0  0  0  0  # atno 8008 bound_to 7997
  155.9544  140.1125  157.0972 H   0  0  0  0  0  0  0  0  0  0  0  0  # atno 8009 bound_to 7997
  154.4129  140.1188  156.5082 H   0  0  0  0  0  0  0  0  0  0  0  0  # atno 8010 bound_to 7997
  139.8032  144.6805  150.9737 H   0  0  0  0  0  0  0  0  0  0  0  0  # atno 10167 bound_to 10162
  156.5181  130.8465  151.2671 H   0  0  0  0  0  0  0  0  0  0  0  0  # atno 10718 bound_to 10713
  153.4713  135.7017  153.5991 H   0  0  0  0  0  0  0  0  0  0  0  0  # atno 10763 bound_to 10752
  153.4244  135.3817  155.2131 H   0  0  0  0  0  0  0  0  0  0  0  0  # atno 10764 bound_to 10752
  154.8725  135.3935  154.4152 H   0  0  0  0  0  0  0  0  0  0  0  0  # atno 10765 bound_to 10752
  140.2482  134.7998  157.3476 H   0  0  0  0  0  0  0  0  0  0  0  0  # atno 11005 bound_to 11000
  146.2900  139.7112  142.9168 LP  0  0  0  0  0  0  0  0  0  0  0  0  # atno 17320 bound_to 7965
  145.4210  141.0406  143.2964 LP  0  0  0  0  0  0  0  0  0  0  0  0  # atno 17321 bound_to 7965
  140.7820  143.4260  151.0768 LP  0  0  0  0  0  0  0  0  0  0  0  0  # atno 17342 bound_to 10162
  139.7930  143.8191  152.3154 LP  0  0  0  0  0  0  0  0  0  0  0  0  # atno 17343 bound_to 10162
  157.7441  130.9927  150.2645 LP  0  0  0  0  0  0  0  0  0  0  0  0  # atno 17370 bound_to 10713
  156.3176  130.3781  149.7604 LP  0  0  0  0  0  0  0  0  0  0  0  0  # atno 17371 bound_to 10713
  140.1584  134.4759  155.7911 LP  0  0  0  0  0  0  0  0  0  0  0  0  # atno 17394 bound_to 11000
  141.2204  133.6891  156.7502 LP  0  0  0  0  0  0  0  0  0  0  0  0  # atno 17395 bound_to 11000

$$$$
