AV-unprocessed.smi:72|AV-procd|sdf|674|dock3
  -GOLD-   2262016583D 1   1.00000     0.00000
 Structure written by MMmdl.
 29 30  0  0  0  0  0  0  0  0  1 V2000
  152.1884  136.2725  155.9810 N   0  0  0  0  0  0  0  0  0  0  0  0
  151.6166  137.3733  155.6448 C   0  0  0  0  0  0  0  0  0  0  0  0
  150.9586  137.6067  154.4288 N   0  0  0  0  0  0  0  0  0  0  0  0
  150.3911  138.7575  154.2390 C   0  0  0  0  0  0  0  0  0  0  0  0
  150.3719  139.7989  155.2607 N   0  0  0  0  0  0  0  0  0  0  0  0
  149.7368  141.1600  155.0052 C   0  0  1  0  0  0  0  0  0  0  0  0
  149.2051  141.1976  153.7081 O   0  0  0  0  0  0  0  0  0  0  0  0
  147.7811  141.1072  153.7140 C   0  0  1  0  0  0  0  0  0  0  0  0
  147.3213  139.6317  153.6705 C   0  0  0  0  0  0  0  0  0  0  0  0
  147.8651  138.9928  152.5352 O   0  0  0  0  0  0  0  0  0  0  0  0
  147.4381  141.8578  155.0047 C   0  0  1  0  0  0  0  0  0  0  0  0
  146.1649  141.5246  155.5224 O   0  0  0  0  0  0  0  0  0  0  0  0
  148.5562  141.4622  155.9606 C   0  0  2  0  0  0  0  0  0  0  0  0
  148.8385  142.5476  156.8209 O   0  0  0  0  0  0  0  0  0  0  0  0
  151.1293  139.6121  156.4466 C   0  0  0  0  0  0  0  0  0  0  0  0
  151.2728  140.4966  157.2899 O   0  0  0  0  0  0  0  0  0  0  0  0
  151.6919  138.3941  156.5999 N   0  0  0  0  0  0  0  0  0  0  0  0
  150.5664  141.8649  155.0824 H   0  0  0  0  0  0  0  0  0  0  0  0
  147.3700  141.6387  152.8546 H   0  0  0  0  0  0  0  0  0  0  0  0
  147.4739  142.9298  154.8019 H   0  0  0  0  0  0  0  0  0  0  0  0
  148.2830  140.5689  156.5245 H   0  0  0  0  0  0  0  0  0  0  0  0
  152.5982  136.3513  156.9002 H   0  0  0  0  0  0  0  0  0  0  0  0
  149.8943  139.0078  153.3015 H   0  0  0  0  0  0  0  0  0  0  0  0
  147.5758  139.0861  154.5777 H   0  0  0  0  0  0  0  0  0  0  0  0
  146.2383  139.5725  153.5647 H   0  0  0  0  0  0  0  0  0  0  0  0
  148.5086  139.5659  152.1470 H   0  0  0  0  0  0  0  0  0  0  0  0
  146.1653  141.7036  156.4505 H   0  0  0  0  0  0  0  0  0  0  0  0
  148.8387  143.3414  156.3071 H   0  0  0  0  0  0  0  0  0  0  0  0
  152.2144  138.2267  157.4473 H   0  0  0  0  0  0  0  0  0  0  0  0
  1  2  2  0  0  0  0
  1 22  1  0  0  0  0
  2 17  1  0  0  0  0
  2  3  1  0  0  0  0
  3  4  2  0  0  0  0
  4  5  1  0  0  0  0
  4 23  1  0  0  0  0
  5  6  1  0  0  0  0
  5 15  1  0  0  0  0
  6 18  1  0  0  0  0
  6 13  1  0  0  0  0
  6  7  1  0  0  0  0
  7  8  1  0  0  0  0
  8 19  1  0  0  0  0
  8  9  1  0  0  0  0
  8 11  1  0  0  0  0
  9 10  1  0  0  0  0
  9 24  1  0  0  0  0
  9 25  1  0  0  0  0
 10 26  1  0  0  0  0
 11 20  1  0  0  0  0
 11 12  1  0  0  0  0
 11 13  1  0  0  0  0
 12 27  1  0  0  0  0
 13 21  1  0  0  0  0
 13 14  1  0  0  0  0
 14 28  1  0  0  0  0
 15 16  2  0  0  0  0
 15 17  1  0  0  0  0
 17 29  1  0  0  0  0
M  END
> <s_m_source_file>
AV-unprocessed.smi

> <i_m_source_file_index>
72

> <i_lp_mmshare_version>
43012

> <i_f3d_flags>
0

> <s_epik_input>
W05IMl1jMW5bY0hdbihjKD1PKW4xKVtDQEBIXTJPW0NASF0oW0NIMl1bT0hdKVtDQEBIXShbT0hdKVtDQEhdMltPSF0=

> <s_epik_cmdline>
J2VwaWtfcHl0aG9uJywgJy1waCcsICc3LjAnLCAnLXRuJywgJzgnLCAnLW1hJywgJzIwMCcsICctbWV0YWxfYmluZGluZycsICctaW1hZScsICc8aW5maWxlLm1hZT4nLCAnLW9tYWUnLCAnPG91dGZpbGUubWFlPic=

> <r_lp_tautomer_probability>
7.17554e-07

> <r_epik_Ionization_Penalty>
0.0066451

> <r_epik_Ionization_Penalty_Charging>
0.00663793

> <r_epik_Ionization_Penalty_Neutral>
7.17052e-06

> <r_epik_State_Penalty>
0.419231

> <r_epik_Charging_Adjusted_Penalty>
0.425868

> <i_epik_Tot_Q>
0

> <i_epik_Tot_abs_Q>
0

> <r_epik_Metal_State_Penalty>
1.44144

> <b_epik_Metal_Only>
0

> <s_epik_Chemistry_Notes>
This compound contains an acetal/aminal-like group ( X-CH(R)-Y where X, Y are N, S, or O) that may be acid/base labile, releasing an aldehyde.

> <s_lp_Force_Field>
OPLS_2005

> <r_lp_Energy>
41.469

> <b_lp_Chiralities_Consistent>
1

> <s_lp_Variant>
AV-unprocessed.smi:72-12

> <Gold.Version>
5.8.1

> <Gold.Id.Protein>
6NUR|6NUR_protein|mol2

> <Gold.PLP.Fitness>
39.5252

> <Gold.PLP.PLP>
-24.8874

> <Gold.PLP.part.hbond>
-5.4157

> <Gold.PLP.part.metal>
0.0000

> <Gold.PLP.part.buried>
-4.5306

> <Gold.PLP.part.nonpolar>
-18.0235

> <Gold.PLP.part.repulsive>
2.3697

> <Gold.PLP.ligand.clash>
0.0000

> <Gold.PLP.ligand.torsion>
0.1094

> <Gold.PLP.Chemscore.Hbond>
3.9193

> <Gold.PLP.Chemscore.CHOScore>
1.0000

> <Gold.PLP.Chemscore.Metal>
0.0000

> <Gold.Chemscore.Hbonds>
donor molecule, donor type, donor heavy atom, donor atom, acceptor molecule, acceptor atom, score
      L1  H    10    26       P1  7957  1.00
      L1  H    14    28       P1  8028  0.98
      P1  H  8011  8017       L1     7  0.93
      P1  H 10752 10764       L1     1  1.00
      L1  C     4    23       P1  7957  1.00

> <Gold.PLP.Chemscore.Internal.Correction>
0.0987

> <Gold.Rescore>
     Score         DG    S(hbond)    S(metal)    S(lipo)     H(rot)  DE(clash)    DE(int)     intcor
      8.65      -8.89       3.37        0.00      21.69       4.06       0.19       0.05       ----

> <Gold.Chemscore.Fitness>
8.6483

> <Gold.Chemscore.DG>
-8.8903

> <Gold.Chemscore.ZeroCoef>
-5.4800

> <Gold.Chemscore.Hbond>
3.3731

> <Gold.Chemscore.Metal>
0.0000

> <Gold.Chemscore.Lipo>
21.6900

> <Gold.Chemscore.Internal_Hbond>
0.0000

> <Gold.Chemscore.DEClash>
0.1889

> <Gold.Chemscore.DEInternal>
0.0531

> <Gold.Chemscore.Rot>
4.0600

> <Gold.Chemscore.Internal.Correction>
   9.000000E+99

> <Gold.Chemscore.Hbonds>
donor molecule, donor type, donor heavy atom, donor atom, acceptor molecule, acceptor atom, score
      L1  H    10    26       P1  7957  0.92
      L1  H    14    28       P1  8028  0.89
      P1  H  8011  8017       L1     7  0.66
      P1  H 10752 10764       L1     1  0.74

> <Gold.Chemscore.Hbond.Weighted>
-11.2662

> <Gold.Chemscore.Metal.Weighted>
-0.0000

> <Gold.Chemscore.Lipo.Weighted>
-2.5377

> <Gold.Chemscore.Internal_Hbond.Weighted>
0.0000

> <Gold.Chemscore.DEClash.Weighted>
0.1889

> <Gold.Chemscore.DEInternal.Weighted>
0.0531

> <Gold.Chemscore.Rot.Weighted>
10.3936

> <Gold.Chemscore.Internal.Correction.Weighted>
   9.000000E+99

> <Gold.Protein.RotatedTorsions>
[ 6907 6896 6895 6894 ] final  -54.59 input  -60.11 | X-H torsion
[ 7974 7965 7964 7962 ] final  172.41 input  175.53 | X-H torsion
[ 8008 7997 7996 7995 ] final -133.70 input   59.86 | X-H torsion
[ 10167 10162 10161 10158 ] final   89.96 input  -65.29 | X-H torsion
[ 10718 10713 10712 10709 ] final -174.42 input   66.30 | X-H torsion
[ 10763 10752 10751 10750 ] final  -32.41 input  -60.55 | X-H torsion
[ 11005 11000 10999 10996 ] final   48.28 input  -57.11 | X-H torsion

> <Gold.Protein.ActiveResidues>
 VAL166  LYS551  ARG553  GLY616  TRP617  ASP618  TYR619  PRO620  LYS621  CYS622 
 ASP623  PHE694  ASN695  SER759  ASP760  ASP761  ALA762  ILE779  LEU786  VAL792 
 PHE793  MET794  SER795  GLU796  ALA797  LYS798  CYS799  TRP800  GLU811  SER814 

> <Gold.Protein.RotatedAtoms>
  150.8324  134.7583  159.6864 H   0  0  0  0  0  0  0  0  0  0  0  0  # atno 6907 bound_to 6896
  152.4427  134.5555  159.9889 H   0  0  0  0  0  0  0  0  0  0  0  0  # atno 6908 bound_to 6896
  151.5713  133.3352  159.3026 H   0  0  0  0  0  0  0  0  0  0  0  0  # atno 6909 bound_to 6896
  144.7269  139.9495  143.6431 H   0  0  0  0  0  0  0  0  0  0  0  0  # atno 7974 bound_to 7965
  155.3499  140.0477  157.3046 H   0  0  0  0  0  0  0  0  0  0  0  0  # atno 8008 bound_to 7997
  154.5233  140.2232  155.8901 H   0  0  0  0  0  0  0  0  0  0  0  0  # atno 8009 bound_to 7997
  156.1712  140.3095  155.8984 H   0  0  0  0  0  0  0  0  0  0  0  0  # atno 8010 bound_to 7997
  139.8520  144.6588  150.9158 H   0  0  0  0  0  0  0  0  0  0  0  0  # atno 10167 bound_to 10162
  156.7848  130.9496  151.3120 H   0  0  0  0  0  0  0  0  0  0  0  0  # atno 10718 bound_to 10713
  153.8133  135.6880  153.4838 H   0  0  0  0  0  0  0  0  0  0  0  0  # atno 10763 bound_to 10752
  153.1615  135.4578  154.9776 H   0  0  0  0  0  0  0  0  0  0  0  0  # atno 10764 bound_to 10752
  154.7958  135.3318  154.7611 H   0  0  0  0  0  0  0  0  0  0  0  0  # atno 10765 bound_to 10752
  140.1204  134.4837  155.8602 H   0  0  0  0  0  0  0  0  0  0  0  0  # atno 11005 bound_to 11000
  146.0723  139.3711  143.0515 LP  0  0  0  0  0  0  0  0  0  0  0  0  # atno 17320 bound_to 7965
  145.7952  140.9796  143.1028 LP  0  0  0  0  0  0  0  0  0  0  0  0  # atno 17321 bound_to 7965
  140.7786  143.3819  151.1462 LP  0  0  0  0  0  0  0  0  0  0  0  0  # atno 17342 bound_to 10162
  139.7456  143.8857  152.3062 LP  0  0  0  0  0  0  0  0  0  0  0  0  # atno 17343 bound_to 10162
  157.6629  130.8982  149.9869 LP  0  0  0  0  0  0  0  0  0  0  0  0  # atno 17370 bound_to 10713
  156.1196  130.3646  149.9910 LP  0  0  0  0  0  0  0  0  0  0  0  0  # atno 17371 bound_to 10713
  141.2150  133.6758  156.6878 LP  0  0  0  0  0  0  0  0  0  0  0  0  # atno 17394 bound_to 11000
  140.2973  134.8192  157.4067 LP  0  0  0  0  0  0  0  0  0  0  0  0  # atno 17395 bound_to 11000

$$$$
