AV-unprocessed.smi:1511|AV-procd|sdf|6099|dock3
  -GOLD-   22720 6233D 1   1.00000     0.00000
 Structure written by MMmdl.
 32 33  0  0  0  0  0  0  0  0  1 V2000
  150.5093  141.6584  158.5428 O   0  0  0  0  0  0  0  0  0  0  0  0
  151.1213  142.2917  157.6831 C   0  0  0  0  0  0  0  0  0  0  0  0
  151.9492  143.5132  158.0788 C   0  0  0  0  0  0  0  0  0  0  0  0
  151.9656  143.6640  159.5232 N   0  0  0  0  0  0  0  0  0  0  0  0
  151.6178  144.7690  160.2723 C   0  0  0  0  0  0  0  0  0  0  0  0
  151.8215  144.4513  161.5844 C   0  0  0  0  0  0  0  0  0  0  0  0
  152.3013  143.1125  161.5376 C   0  0  0  0  0  0  0  0  0  0  0  0
  152.3871  142.6438  160.3030 N   0  0  0  0  0  0  0  0  0  0  0  0
  151.0811  142.0016  156.3733 N   0  0  0  0  0  0  0  0  0  0  0  0
  150.2183  141.0019  155.7537 C   0  0  0  0  0  0  0  0  0  0  0  0
  150.8409  139.5961  155.8555 C   0  0  1  0  0  0  0  0  0  0  0  0
  152.2267  139.5128  155.1870 C   0  0  0  0  0  0  0  0  0  0  0  0
  152.8687  138.1709  155.5552 C   0  0  0  0  0  0  0  0  0  0  0  0
  152.2852  137.7893  157.2493 S   0  0  0  0  0  0  0  0  0  0  0  0
  151.6540  136.4609  157.2490 O   0  0  0  0  0  0  0  0  0  0  0  0
  153.3362  138.1284  158.2206 O   0  0  0  0  0  0  0  0  0  0  0  0
  150.9886  139.0823  157.2987 C   0  0  0  0  0  0  0  0  0  0  0  0
  152.9748  143.4026  157.7243 H   0  0  0  0  0  0  0  0  0  0  0  0
  151.5421  144.4150  157.6183 H   0  0  0  0  0  0  0  0  0  0  0  0
  151.2644  145.6804  159.8125 H   0  0  0  0  0  0  0  0  0  0  0  0
  151.6552  145.0801  162.4463 H   0  0  0  0  0  0  0  0  0  0  0  0
  152.5894  142.4724  162.3586 H   0  0  0  0  0  0  0  0  0  0  0  0
  151.6236  142.5815  155.7490 H   0  0  0  0  0  0  0  0  0  0  0  0
  149.2587  141.0179  156.2710 H   0  0  0  0  0  0  0  0  0  0  0  0
  150.0071  141.2511  154.7125 H   0  0  0  0  0  0  0  0  0  0  0  0
  150.1894  138.8963  155.3292 H   0  0  0  0  0  0  0  0  0  0  0  0
  152.1629  139.6397  154.1060 H   0  0  0  0  0  0  0  0  0  0  0  0
  152.8561  140.3194  155.5658 H   0  0  0  0  0  0  0  0  0  0  0  0
  152.5191  137.3793  154.8920 H   0  0  0  0  0  0  0  0  0  0  0  0
  153.9581  138.1955  155.5267 H   0  0  0  0  0  0  0  0  0  0  0  0
  151.3335  139.8750  157.9634 H   0  0  0  0  0  0  0  0  0  0  0  0
  150.0633  138.6701  157.7025 H   0  0  0  0  0  0  0  0  0  0  0  0
  1  2  2  0  0  0  0
  2  3  1  0  0  0  0
  2  9  1  0  0  0  0
  3  4  1  0  0  0  0
  3 18  1  0  0  0  0
  3 19  1  0  0  0  0
  4  8  1  0  0  0  0
  4  5  1  0  0  0  0
  5  6  2  0  0  0  0
  5 20  1  0  0  0  0
  6  7  1  0  0  0  0
  6 21  1  0  0  0  0
  7  8  2  0  0  0  0
  7 22  1  0  0  0  0
  9 10  1  0  0  0  0
  9 23  1  0  0  0  0
 10 11  1  0  0  0  0
 10 24  1  0  0  0  0
 10 25  1  0  0  0  0
 11 17  1  0  0  0  0
 11 12  1  0  0  0  0
 11 26  1  0  0  0  0
 12 13  1  0  0  0  0
 12 27  1  0  0  0  0
 12 28  1  0  0  0  0
 13 14  1  0  0  0  0
 13 29  1  0  0  0  0
 13 30  1  0  0  0  0
 14 15  2  0  0  0  0
 14 16  2  0  0  0  0
 14 17  1  0  0  0  0
 17 31  1  0  0  0  0
 17 32  1  0  0  0  0
M  END
> <s_m_source_file>
AV-unprocessed.smi

> <i_m_source_file_index>
1511

> <i_lp_mmshare_version>
43012

> <i_f3d_flags>
0

> <s_epik_input>
bjFbY0hdW2NIXVtjSF1uMVtDSDJdQyg9TylbTkhdW0NIMl1bQ0BASF0oW0NIMl0yKVtDSDJdW0NIMl1TMig9Tyk9Tw==

> <s_epik_cmdline>
J2VwaWtfcHl0aG9uJywgJy1waCcsICc3LjAnLCAnLXRuJywgJzgnLCAnLW1hJywgJzIwMCcsICctbWV0YWxfYmluZGluZycsICctaW1hZScsICc8aW5maWxlLm1hZT4nLCAnLW9tYWUnLCAnPG91dGZpbGUubWFlPic=

> <r_lp_tautomer_probability>
1

> <r_epik_Ionization_Penalty>
1.34373e-05

> <r_epik_Ionization_Penalty_Charging>
0

> <r_epik_Ionization_Penalty_Neutral>
1.34373e-05

> <r_epik_State_Penalty>
-0

> <r_epik_Charging_Adjusted_Penalty>
0

> <i_epik_Tot_Q>
0

> <i_epik_Tot_abs_Q>
0

> <r_epik_Metal_State_Penalty>
-0

> <b_epik_Metal_Only>
0

> <s_lp_Force_Field>
OPLS_2005

> <r_lp_Energy>
3.15153

> <b_lp_Chiralities_Consistent>
1

> <s_lp_Variant>
AV-unprocessed.smi:1511-2

> <Gold.Version>
5.8.1

> <Gold.Id.Protein>
6NUR|6NUR_protein|mol2

> <Gold.PLP.Fitness>
39.4609

> <Gold.PLP.PLP>
-34.4351

> <Gold.PLP.part.hbond>
-2.0000

> <Gold.PLP.part.metal>
0.0000

> <Gold.PLP.part.buried>
-0.3896

> <Gold.PLP.part.nonpolar>
-30.6948

> <Gold.PLP.part.repulsive>
0.1294

> <Gold.PLP.ligand.clash>
0.0000

> <Gold.PLP.ligand.torsion>
0.2153

> <Gold.PLP.Chemscore.Hbond>
1.8160

> <Gold.PLP.Chemscore.CHOScore>
0.0000

> <Gold.PLP.Chemscore.Metal>
0.0000

> <Gold.PLP.Chemscore.Internal.Correction>
0.0085

> <Gold.Rescore>
     Score         DG    S(hbond)    S(metal)    S(lipo)     H(rot)  DE(clash)    DE(int)     intcor
     12.26     -16.43       1.75        0.00      83.36       1.82       1.71       2.45       ----

> <Gold.Chemscore.Fitness>
12.2593

> <Gold.Chemscore.DG>
-16.4282

> <Gold.Chemscore.ZeroCoef>
-5.4800

> <Gold.Chemscore.Hbond>
1.7511

> <Gold.Chemscore.Metal>
0.0000

> <Gold.Chemscore.Lipo>
83.3608

> <Gold.Chemscore.Internal_Hbond>
0.0000

> <Gold.Chemscore.DEClash>
1.7148

> <Gold.Chemscore.DEInternal>
2.4542

> <Gold.Chemscore.Rot>
1.8178

> <Gold.Chemscore.Internal.Correction>
   9.000000E+99

> <Gold.Chemscore.Hbond.Weighted>
-5.8487

> <Gold.Chemscore.Metal.Weighted>
-0.0000

> <Gold.Chemscore.Lipo.Weighted>
-9.7532

> <Gold.Chemscore.Internal_Hbond.Weighted>
0.0000

> <Gold.Chemscore.DEClash.Weighted>
1.7148

> <Gold.Chemscore.DEInternal.Weighted>
2.4542

> <Gold.Chemscore.Rot.Weighted>
4.6537

> <Gold.Chemscore.Internal.Correction.Weighted>
   9.000000E+99

> <Gold.Protein.RotatedTorsions>
[ 6907 6896 6895 6894 ] final  -26.17 input  -60.11 | X-H torsion
[ 7974 7965 7964 7962 ] final  -39.21 input  175.53 | X-H torsion
[ 8008 7997 7996 7995 ] final  145.89 input   59.86 | X-H torsion
[ 10167 10162 10161 10158 ] final -160.51 input  -65.29 | X-H torsion
[ 10718 10713 10712 10709 ] final   42.04 input   66.30 | X-H torsion
[ 10763 10752 10751 10750 ] final -143.37 input  -60.55 | X-H torsion
[ 11005 11000 10999 10996 ] final -108.93 input  -57.11 | X-H torsion

> <Gold.Protein.ActiveResidues>
 VAL166  LYS551  ARG553  GLY616  TRP617  ASP618  TYR619  PRO620  LYS621  CYS622 
 ASP623  PHE694  ASN695  SER759  ASP760  ASP761  ALA762  ILE779  LEU786  VAL792 
 PHE793  MET794  SER795  GLU796  ALA797  LYS798  CYS799  TRP800  GLU811  SER814 

> <Gold.Protein.RotatedAtoms>
  151.1648  135.0290  159.8725 H   0  0  0  0  0  0  0  0  0  0  0  0  # atno 6907 bound_to 6896
  152.5450  134.1238  159.8420 H   0  0  0  0  0  0  0  0  0  0  0  0  # atno 6908 bound_to 6896
  151.1337  133.4973  159.2631 H   0  0  0  0  0  0  0  0  0  0  0  0  # atno 6909 bound_to 6896
  146.0417  140.6600  142.9084 H   0  0  0  0  0  0  0  0  0  0  0  0  # atno 7974 bound_to 7965
  156.2871  140.2197  156.5287 H   0  0  0  0  0  0  0  0  0  0  0  0  # atno 8008 bound_to 7997
  154.7467  140.0483  157.0880 H   0  0  0  0  0  0  0  0  0  0  0  0  # atno 8009 bound_to 7997
  155.0162  140.3119  155.4814 H   0  0  0  0  0  0  0  0  0  0  0  0  # atno 8010 bound_to 7997
  139.6534  144.0043  152.2177 H   0  0  0  0  0  0  0  0  0  0  0  0  # atno 10167 bound_to 10162
  157.4003  130.7856  149.7343 H   0  0  0  0  0  0  0  0  0  0  0  0  # atno 10718 bound_to 10713
  154.8472  135.3470  154.6176 H   0  0  0  0  0  0  0  0  0  0  0  0  # atno 10763 bound_to 10752
  153.6785  135.6981  153.5130 H   0  0  0  0  0  0  0  0  0  0  0  0  # atno 10764 bound_to 10752
  153.2687  135.4300  155.0922 H   0  0  0  0  0  0  0  0  0  0  0  0  # atno 10765 bound_to 10752
  141.0875  133.9113  157.2152 H   0  0  0  0  0  0  0  0  0  0  0  0  # atno 11005 bound_to 11000
  144.7078  140.3919  143.7105 LP  0  0  0  0  0  0  0  0  0  0  0  0  # atno 17320 bound_to 7965
  145.6874  139.1631  143.2666 LP  0  0  0  0  0  0  0  0  0  0  0  0  # atno 17321 bound_to 7965
  139.9763  144.6459  150.7942 LP  0  0  0  0  0  0  0  0  0  0  0  0  # atno 17342 bound_to 10162
  140.7548  143.3034  151.3023 LP  0  0  0  0  0  0  0  0  0  0  0  0  # atno 17343 bound_to 10162
  155.9821  130.4012  150.3432 LP  0  0  0  0  0  0  0  0  0  0  0  0  # atno 17370 bound_to 10713
  157.1559  131.0333  151.2863 LP  0  0  0  0  0  0  0  0  0  0  0  0  # atno 17371 bound_to 10713
  139.9695  135.0132  156.9476 LP  0  0  0  0  0  0  0  0  0  0  0  0  # atno 17394 bound_to 11000
  140.5329  134.0796  155.7320 LP  0  0  0  0  0  0  0  0  0  0  0  0  # atno 17395 bound_to 11000

$$$$
