AV-unprocessed.smi:2003|AV-procd|sdf|8117|dock4
  -GOLD-   2272010353D 1   1.00000     0.00000
 Structure written by MMmdl.
 43 44  0  0  0  0  0  0  0  0  1 V2000
  153.3678  141.6674  161.1800 C   0  0  0  0  0  0  0  0  0  0  0  0
  152.6231  142.3349  160.0618 C   0  0  0  0  0  0  0  0  0  0  0  0
  151.9861  141.7229  158.9432 C   0  0  0  0  0  0  0  0  0  0  0  0
  151.4772  142.7955  158.2631 C   0  0  0  0  0  0  0  0  0  0  0  0
  150.7652  142.8146  157.1051 N   0  0  0  0  0  0  0  0  0  0  0  0
  150.3225  141.7776  156.3731 C   0  0  0  0  0  0  0  0  0  0  0  0
  150.4935  140.5878  156.6393 O   0  0  0  0  0  0  0  0  0  0  0  0
  149.6531  142.2006  155.2937 N   0  0  0  0  0  0  0  0  0  0  0  0
  149.0311  141.3226  154.3092 C   0  0  0  0  0  0  0  0  0  0  0  0
  147.5221  141.1220  154.5957 C   0  0  2  0  0  0  0  0  0  0  0  0
  146.9677  140.1155  153.5618 C   0  0  0  0  0  0  0  0  0  0  0  0
  146.7507  142.3825  154.6626 N   0  0  0  0  0  0  0  0  0  0  0  0
  145.4233  142.1994  155.2577 C   0  0  0  0  0  0  0  0  0  0  0  0
  144.6161  143.5077  155.3145 C   0  0  0  0  0  0  0  0  0  0  0  0
  144.4972  144.0533  154.0073 O   0  0  0  0  0  0  0  0  0  0  0  0
  145.7636  144.3100  153.4147 C   0  0  0  0  0  0  0  0  0  0  0  0
  146.5787  143.0070  153.3478 C   0  0  0  0  0  0  0  0  0  0  0  0
  151.7997  143.9481  158.9442 N   0  0  0  0  0  0  0  0  0  0  0  0
  151.4850  145.3264  158.6223 C   0  0  0  0  0  0  0  0  0  0  0  0
  152.5087  143.6582  160.0565 N   0  0  0  0  0  0  0  0  0  0  0  0
  153.3714  140.5841  161.0591 H   0  0  0  0  0  0  0  0  0  0  0  0
  152.9119  141.8915  162.1446 H   0  0  0  0  0  0  0  0  0  0  0  0
  154.4054  142.0004  161.2143 H   0  0  0  0  0  0  0  0  0  0  0  0
  151.9259  140.6728  158.7005 H   0  0  0  0  0  0  0  0  0  0  0  0
  150.5378  143.7339  156.7558 H   0  0  0  0  0  0  0  0  0  0  0  0
  149.5507  143.1943  155.1465 H   0  0  0  0  0  0  0  0  0  0  0  0
  149.1667  141.7535  153.3158 H   0  0  0  0  0  0  0  0  0  0  0  0
  149.5574  140.3681  154.2808 H   0  0  0  0  0  0  0  0  0  0  0  0
  147.4554  140.6353  155.5700 H   0  0  0  0  0  0  0  0  0  0  0  0
  147.6210  139.2480  153.4641 H   0  0  0  0  0  0  0  0  0  0  0  0
  146.8719  140.5677  152.5742 H   0  0  0  0  0  0  0  0  0  0  0  0
  145.9918  139.7265  153.8505 H   0  0  0  0  0  0  0  0  0  0  0  0
  144.8636  141.4533  154.6914 H   0  0  0  0  0  0  0  0  0  0  0  0
  145.5083  141.8241  156.2763 H   0  0  0  0  0  0  0  0  0  0  0  0
  143.6192  143.3213  155.7143 H   0  0  0  0  0  0  0  0  0  0  0  0
  145.0968  144.2295  155.9769 H   0  0  0  0  0  0  0  0  0  0  0  0
  145.6127  144.7135  152.4133 H   0  0  0  0  0  0  0  0  0  0  0  0
  146.2957  145.0698  153.9892 H   0  0  0  0  0  0  0  0  0  0  0  0
  147.5457  143.2486  152.9093 H   0  0  0  0  0  0  0  0  0  0  0  0
  146.0890  142.3081  152.6678 H   0  0  0  0  0  0  0  0  0  0  0  0
  151.9504  145.5956  157.6738 H   0  0  0  0  0  0  0  0  0  0  0  0
  151.8525  145.9967  159.4006 H   0  0  0  0  0  0  0  0  0  0  0  0
  150.4045  145.4447  158.5363 H   0  0  0  0  0  0  0  0  0  0  0  0
  1  2  1  0  0  0  0
  1 21  1  0  0  0  0
  1 22  1  0  0  0  0
  1 23  1  0  0  0  0
  2 20  2  0  0  0  0
  2  3  1  0  0  0  0
  3  4  2  0  0  0  0
  3 24  1  0  0  0  0
  4  5  1  0  0  0  0
  4 18  1  0  0  0  0
  5  6  1  0  0  0  0
  5 25  1  0  0  0  0
  6  7  2  0  0  0  0
  6  8  1  0  0  0  0
  8  9  1  0  0  0  0
  8 26  1  0  0  0  0
  9 10  1  0  0  0  0
  9 27  1  0  0  0  0
  9 28  1  0  0  0  0
 10 11  1  0  0  0  0
 10 12  1  0  0  0  0
 10 29  1  0  0  0  0
 11 30  1  0  0  0  0
 11 31  1  0  0  0  0
 11 32  1  0  0  0  0
 12 17  1  0  0  0  0
 12 13  1  0  0  0  0
 13 14  1  0  0  0  0
 13 33  1  0  0  0  0
 13 34  1  0  0  0  0
 14 15  1  0  0  0  0
 14 35  1  0  0  0  0
 14 36  1  0  0  0  0
 15 16  1  0  0  0  0
 16 17  1  0  0  0  0
 16 37  1  0  0  0  0
 16 38  1  0  0  0  0
 17 39  1  0  0  0  0
 17 40  1  0  0  0  0
 18 19  1  0  0  0  0
 18 20  1  0  0  0  0
 19 41  1  0  0  0  0
 19 42  1  0  0  0  0
 19 43  1  0  0  0  0
M  END
> <s_m_source_file>
AV-unprocessed.smi

> <i_m_source_file_index>
2003

> <i_lp_mmshare_version>
43012

> <i_f3d_flags>
0

> <s_epik_input>
W0NIM11jMVtjSF1jKG4objEpW0NIM10pW05IXUMoPU8pW05IXVtDSDJdW0NASF0oW0NIM10pTjJbQ0gyXVtDSDJdT1tDSDJdW0NIMl0y

> <s_epik_cmdline>
J2VwaWtfcHl0aG9uJywgJy1waCcsICc3LjAnLCAnLXRuJywgJzgnLCAnLW1hJywgJzIwMCcsICctbWV0YWxfYmluZGluZycsICctaW1hZScsICc8aW5maWxlLm1hZT4nLCAnLW9tYWUnLCAnPG91dGZpbGUubWFlPic=

> <r_lp_tautomer_probability>
1

> <r_epik_Ionization_Penalty>
0.233974

> <r_epik_Ionization_Penalty_Charging>
0

> <r_epik_Ionization_Penalty_Neutral>
0.233974

> <r_epik_State_Penalty>
0.224627

> <r_epik_Charging_Adjusted_Penalty>
0.224627

> <i_epik_Tot_Q>
0

> <i_epik_Tot_abs_Q>
0

> <r_epik_Metal_State_Penalty>
0.224624

> <b_epik_Metal_Only>
0

> <s_lp_Force_Field>
OPLS_2005

> <r_lp_Energy>
33.8314

> <b_lp_Chiralities_Consistent>
1

> <s_lp_Variant>
AV-unprocessed.smi:2003-1

> <Gold.Version>
5.8.1

> <Gold.Id.Protein>
6NUR|6NUR_protein|mol2

> <Gold.PLP.Fitness>
46.1670

> <Gold.PLP.PLP>
-41.6963

> <Gold.PLP.part.hbond>
-2.0000

> <Gold.PLP.part.metal>
0.0000

> <Gold.PLP.part.buried>
-6.9801

> <Gold.PLP.part.nonpolar>
-33.2749

> <Gold.PLP.part.repulsive>
0.5618

> <Gold.PLP.ligand.clash>
0.0000

> <Gold.PLP.ligand.torsion>
0.3015

> <Gold.PLP.Chemscore.Hbond>
1.6739

> <Gold.PLP.Chemscore.CHOScore>
0.0000

> <Gold.PLP.Chemscore.Metal>
0.0000

> <Gold.Chemscore.Hbonds>
donor molecule, donor type, donor heavy atom, donor atom, acceptor molecule, acceptor atom, score
      L1  H     5    25       P1  8028  0.46
      L1  H     8    26       P1  8028  1.00

> <Gold.PLP.Chemscore.Internal.Correction>
0.0520

> <Gold.Rescore>
     Score         DG    S(hbond)    S(metal)    S(lipo)     H(rot)  DE(clash)    DE(int)     intcor
     15.17     -16.86       1.76        0.00      79.67       1.49       0.21       1.48       ----

> <Gold.Chemscore.Fitness>
15.1706

> <Gold.Chemscore.DG>
-16.8620

> <Gold.Chemscore.ZeroCoef>
-5.4800

> <Gold.Chemscore.Hbond>
1.7619

> <Gold.Chemscore.Metal>
0.0000

> <Gold.Chemscore.Lipo>
79.6706

> <Gold.Chemscore.Internal_Hbond>
0.0000

> <Gold.Chemscore.DEClash>
0.2116

> <Gold.Chemscore.DEInternal>
1.4799

> <Gold.Chemscore.Rot>
1.4938

> <Gold.Chemscore.Internal.Correction>
   9.000000E+99

> <Gold.Chemscore.Hbonds>
donor molecule, donor type, donor heavy atom, donor atom, acceptor molecule, acceptor atom, score
      L1  H     5    25       P1  8028  0.45
      L1  H     8    26       P1  8028  0.94

> <Gold.Chemscore.Hbond.Weighted>
-5.8847

> <Gold.Chemscore.Metal.Weighted>
-0.0000

> <Gold.Chemscore.Lipo.Weighted>
-9.3215

> <Gold.Chemscore.Internal_Hbond.Weighted>
0.0000

> <Gold.Chemscore.DEClash.Weighted>
0.2116

> <Gold.Chemscore.DEInternal.Weighted>
1.4799

> <Gold.Chemscore.Rot.Weighted>
3.8242

> <Gold.Chemscore.Internal.Correction.Weighted>
   9.000000E+99

> <Gold.Protein.RotatedTorsions>
[ 6907 6896 6895 6894 ] final -176.50 input  -60.11 | X-H torsion
[ 7974 7965 7964 7962 ] final  -99.94 input  175.53 | X-H torsion
[ 8008 7997 7996 7995 ] final  134.79 input   59.86 | X-H torsion
[ 10167 10162 10161 10158 ] final  -57.20 input  -65.29 | X-H torsion
[ 10718 10713 10712 10709 ] final  161.98 input   66.30 | X-H torsion
[ 10763 10752 10751 10750 ] final -148.91 input  -60.55 | X-H torsion
[ 11005 11000 10999 10996 ] final -123.11 input  -57.11 | X-H torsion

> <Gold.Protein.ActiveResidues>
 VAL166  LYS551  ARG553  GLY616  TRP617  ASP618  TYR619  PRO620  LYS621  CYS622 
 ASP623  PHE694  ASN695  SER759  ASP760  ASP761  ALA762  ILE779  LEU786  VAL792 
 PHE793  MET794  SER795  GLU796  ALA797  LYS798  CYS799  TRP800  GLU811  SER814 

> <Gold.Protein.RotatedAtoms>
  151.6058  133.3352  159.3056 H   0  0  0  0  0  0  0  0  0  0  0  0  # atno 6907 bound_to 6896
  150.8183  134.7381  159.6761 H   0  0  0  0  0  0  0  0  0  0  0  0  # atno 6908 bound_to 6896
  152.4278  134.5841  160.0007 H   0  0  0  0  0  0  0  0  0  0  0  0  # atno 6909 bound_to 6896
  145.3010  140.9377  143.2823 H   0  0  0  0  0  0  0  0  0  0  0  0  # atno 7974 bound_to 7965
  156.3000  140.2487  156.3476 H   0  0  0  0  0  0  0  0  0  0  0  0  # atno 8008 bound_to 7997
  154.8996  140.0406  157.1905 H   0  0  0  0  0  0  0  0  0  0  0  0  # atno 8009 bound_to 7997
  154.8514  140.2906  155.5600 H   0  0  0  0  0  0  0  0  0  0  0  0  # atno 8010 bound_to 7997
  140.6272  143.2443  151.5333 H   0  0  0  0  0  0  0  0  0  0  0  0  # atno 10167 bound_to 10162
  157.1289  131.0511  151.2381 H   0  0  0  0  0  0  0  0  0  0  0  0  # atno 10718 bound_to 10713
  154.8206  135.3322  154.7048 H   0  0  0  0  0  0  0  0  0  0  0  0  # atno 10763 bound_to 10752
  153.7681  135.6927  153.4916 H   0  0  0  0  0  0  0  0  0  0  0  0  # atno 10764 bound_to 10752
  153.2063  135.4498  155.0276 H   0  0  0  0  0  0  0  0  0  0  0  0  # atno 10765 bound_to 10752
  140.9944  134.0493  157.3616 H   0  0  0  0  0  0  0  0  0  0  0  0  # atno 11005 bound_to 11000
  144.9094  139.4548  143.6594 LP  0  0  0  0  0  0  0  0  0  0  0  0  # atno 17320 bound_to 7965
  146.3152  139.7893  142.8989 LP  0  0  0  0  0  0  0  0  0  0  0  0  # atno 17321 bound_to 7965
  139.5491  144.2443  152.1497 LP  0  0  0  0  0  0  0  0  0  0  0  0  # atno 17342 bound_to 10162
  140.1678  144.4965  150.6596 LP  0  0  0  0  0  0  0  0  0  0  0  0  # atno 17343 bound_to 10162
  157.4410  130.7544  149.7069 LP  0  0  0  0  0  0  0  0  0  0  0  0  # atno 17370 bound_to 10713
  155.9812  130.4021  150.3484 LP  0  0  0  0  0  0  0  0  0  0  0  0  # atno 17371 bound_to 10713
  139.9007  135.0163  156.7256 LP  0  0  0  0  0  0  0  0  0  0  0  0  # atno 17394 bound_to 11000
  140.6990  133.9323  155.8012 LP  0  0  0  0  0  0  0  0  0  0  0  0  # atno 17395 bound_to 11000

$$$$
