AV-unprocessed.smi:910|AV-procd|sdf|4129|dock2
  -GOLD-   22720 2 33D 1   1.00000     0.00000
 Structure written by MMmdl.
 47 48  0  0  0  0  0  0  0  0  2 V2000
  146.7260  132.8728  151.7256 C   0  0  0  0  0  0  0  0  0  0  0  0
  145.9885  134.1746  151.7268 C   0  0  0  0  0  0  0  0  0  0  0  0
  146.4922  135.4473  151.8503 N   0  3  0  0  0  0  0  0  0  0  0  0
  145.4959  136.3326  151.8030 C   0  0  0  0  0  0  0  0  0  0  0  0
  145.5989  137.7434  151.8971 N   0  0  0  0  0  0  0  0  0  0  0  0
  146.5244  138.4445  152.5725 C   0  0  0  0  0  0  0  0  0  0  0  0
  147.4498  137.9512  153.2184 O   0  0  0  0  0  0  0  0  0  0  0  0
  146.3143  139.7643  152.4677 N   0  0  0  0  0  0  0  0  0  0  0  0
  147.1017  140.7956  153.1361 C   0  0  0  0  0  0  0  0  0  0  0  0
  147.5202  140.3602  154.5480 C   0  0  0  0  0  0  0  0  0  0  0  0
  148.9369  140.2777  154.5916 O   0  0  0  0  0  0  0  0  0  0  0  0
  149.4626  139.6227  155.7404 C   0  0  1  0  0  0  0  0  0  0  0  0
  149.6078  138.1085  155.4812 C   0  0  0  0  0  0  0  0  0  0  0  0
  150.6420  137.8168  154.3815 C   0  0  0  0  0  0  0  0  0  0  0  0
  152.0005  138.4530  154.7124 C   0  0  0  0  0  0  0  0  0  0  0  0
  151.8649  139.9626  154.9689 C   0  0  0  0  0  0  0  0  0  0  0  0
  150.8306  140.2584  156.0737 C   0  0  1  0  0  0  0  0  0  0  0  0
  150.7107  141.7642  156.3582 C   0  0  0  0  0  0  0  0  0  0  0  0
  144.3061  135.6950  151.6475 O   0  0  0  0  0  0  0  0  0  0  0  0
  144.6281  134.3530  151.6039 C   0  0  0  0  0  0  0  0  0  0  0  0
  143.5036  133.3873  151.4380 C   0  0  0  0  0  0  0  0  0  0  0  0
  146.5353  132.3131  152.6414 H   0  0  0  0  0  0  0  0  0  0  0  0
  147.8027  133.0271  151.6506 H   0  0  0  0  0  0  0  0  0  0  0  0
  146.4231  132.2476  150.8855 H   0  0  0  0  0  0  0  0  0  0  0  0
  147.4794  135.6452  151.9594 H   0  0  0  0  0  0  0  0  0  0  0  0
  145.5306  140.0841  151.9169 H   0  0  0  0  0  0  0  0  0  0  0  0
  147.9806  141.0418  152.5384 H   0  0  0  0  0  0  0  0  0  0  0  0
  146.4993  141.7025  153.1931 H   0  0  0  0  0  0  0  0  0  0  0  0
  147.1562  141.0760  155.2864 H   0  0  0  0  0  0  0  0  0  0  0  0
  147.0734  139.3946  154.7839 H   0  0  0  0  0  0  0  0  0  0  0  0
  148.7985  139.7810  156.5920 H   0  0  0  0  0  0  0  0  0  0  0  0
  149.9201  137.6169  156.4034 H   0  0  0  0  0  0  0  0  0  0  0  0
  148.6481  137.6654  155.2173 H   0  0  0  0  0  0  0  0  0  0  0  0
  150.7575  136.7397  154.2572 H   0  0  0  0  0  0  0  0  0  0  0  0
  150.2805  138.2001  153.4266 H   0  0  0  0  0  0  0  0  0  0  0  0
  152.4244  137.9699  155.5938 H   0  0  0  0  0  0  0  0  0  0  0  0
  152.7019  138.2762  153.8964 H   0  0  0  0  0  0  0  0  0  0  0  0
  152.8361  140.3720  155.2487 H   0  0  0  0  0  0  0  0  0  0  0  0
  151.5753  140.4645  154.0447 H   0  0  0  0  0  0  0  0  0  0  0  0
  151.1918  139.7910  156.9909 H   0  0  0  0  0  0  0  0  0  0  0  0
  150.3753  142.3126  155.4773 H   0  0  0  0  0  0  0  0  0  0  0  0
  151.6704  142.1821  156.6629 H   0  0  0  0  0  0  0  0  0  0  0  0
  149.9982  141.9563  157.1609 H   0  0  0  0  0  0  0  0  0  0  0  0
  143.4472  133.0344  150.4082 H   0  0  0  0  0  0  0  0  0  0  0  0
  142.5489  133.8493  151.6901 H   0  0  0  0  0  0  0  0  0  0  0  0
  143.6385  132.5206  152.0853 H   0  0  0  0  0  0  0  0  0  0  0  0
  144.8897  138.2713  151.4102 H   0  0  0  0  0  0  0  0  0  0  0  0
  1 22  1  0  0  0  0
  1 23  1  0  0  0  0
  1 24  1  0  0  0  0
  1  2  1  0  0  0  0
  2  3  1  0  0  0  0
  2 20  2  0  0  0  0
  3 25  1  0  0  0  0
  3  4  2  0  0  0  0
  4 19  1  0  0  0  0
  4  5  1  0  0  0  0
  5  6  1  0  0  0  0
  5 47  1  0  0  0  0
  6  8  1  0  0  0  0
  6  7  2  0  0  0  0
  8  9  1  0  0  0  0
  8 26  1  0  0  0  0
  9 10  1  0  0  0  0
  9 27  1  0  0  0  0
  9 28  1  0  0  0  0
 10 11  1  0  0  0  0
 10 29  1  0  0  0  0
 10 30  1  0  0  0  0
 11 12  1  0  0  0  0
 12 17  1  0  0  0  0
 12 13  1  0  0  0  0
 12 31  1  0  0  0  0
 13 14  1  0  0  0  0
 13 32  1  0  0  0  0
 13 33  1  0  0  0  0
 14 15  1  0  0  0  0
 14 34  1  0  0  0  0
 14 35  1  0  0  0  0
 15 16  1  0  0  0  0
 15 36  1  0  0  0  0
 15 37  1  0  0  0  0
 16 17  1  0  0  0  0
 16 38  1  0  0  0  0
 16 39  1  0  0  0  0
 17 18  1  0  0  0  0
 17 40  1  0  0  0  0
 18 41  1  0  0  0  0
 18 42  1  0  0  0  0
 18 43  1  0  0  0  0
 19 20  1  0  0  0  0
 20 21  1  0  0  0  0
 21 44  1  0  0  0  0
 21 45  1  0  0  0  0
 21 46  1  0  0  0  0
M  CHG  1   3   1
M  END
> <s_m_source_file>
AV-unprocessed.smi

> <i_m_source_file_index>
910

> <i_lp_mmshare_version>
43012

> <i_f3d_flags>
0

> <s_epik_input>
W0NIM11jMW5jKG9jMVtDSDNdKVtOSF1DKD1PKVtOSF1bQ0gyXVtDSDJdT1tDQEBIXTJbQ0gyXVtDSDJdW0NIMl1bQ0gyXVtDQEhdMltDSDNd

> <s_epik_cmdline>
J2VwaWtfcHl0aG9uJywgJy1waCcsICc3LjAnLCAnLXRuJywgJzgnLCAnLW1hJywgJzIwMCcsICctbWV0YWxfYmluZGluZycsICctaW1hZScsICc8aW5maWxlLm1hZT4nLCAnLW9tYWUnLCAnPG91dGZpbGUubWFlPic=

> <r_epik_Ionization_Penalty>
7.32931

> <r_epik_Ionization_Penalty_Charging>
7.12214

> <r_epik_Ionization_Penalty_Neutral>
0.207166

> <r_epik_State_Penalty>
2.61278

> <r_epik_Charging_Adjusted_Penalty>
9.73492

> <i_epik_Tot_Q>
1

> <i_epik_Tot_abs_Q>
1

> <r_epik_Metal_State_Penalty>
2.64585

> <b_epik_Metal_Only>
0

> <s_lp_Force_Field>
OPLS_2005

> <r_lp_Energy>
17.2334

> <b_lp_Chiralities_Consistent>
1

> <s_lp_Variant>
AV-unprocessed.smi:910-14

> <Gold.Version>
5.8.1

> <Gold.Id.Protein>
6NUR|6NUR_protein|mol2

> <Gold.PLP.Fitness>
41.6426

> <Gold.PLP.PLP>
-32.9724

> <Gold.PLP.part.hbond>
-3.0000

> <Gold.PLP.part.metal>
0.0000

> <Gold.PLP.part.buried>
-4.7139

> <Gold.PLP.part.nonpolar>
-30.4272

> <Gold.PLP.part.repulsive>
3.5559

> <Gold.PLP.ligand.clash>
0.0000

> <Gold.PLP.ligand.torsion>
1.1478

> <Gold.PLP.Chemscore.Hbond>
3.6240

> <Gold.PLP.Chemscore.CHOScore>
0.0000

> <Gold.PLP.Chemscore.Metal>
0.0000

> <Gold.Chemscore.Hbonds>
donor molecule, donor type, donor heavy atom, donor atom, acceptor molecule, acceptor atom, score
      L1  H     3    25       P1  7948  2.00
      L1  H     5    47       P1 10171  0.99
      L1  H     8    26       P1 10175  0.62

> <Gold.PLP.Chemscore.Internal.Correction>
0.0939

> <Gold.Rescore>
     Score         DG    S(hbond)    S(metal)    S(lipo)     H(rot)  DE(clash)    DE(int)     intcor
     12.65     -18.21       2.33        0.00      79.45       1.69       2.72       2.84       ----

> <Gold.Chemscore.Fitness>
12.6517

> <Gold.Chemscore.DG>
-18.2143

> <Gold.Chemscore.ZeroCoef>
-5.4800

> <Gold.Chemscore.Hbond>
2.3286

> <Gold.Chemscore.Metal>
0.0000

> <Gold.Chemscore.Lipo>
79.4520

> <Gold.Chemscore.Internal_Hbond>
0.0000

> <Gold.Chemscore.DEClash>
2.7195

> <Gold.Chemscore.DEInternal>
2.8431

> <Gold.Chemscore.Rot>
1.6949

> <Gold.Chemscore.Internal.Correction>
   9.000000E+99

> <Gold.Chemscore.Hbonds>
donor molecule, donor type, donor heavy atom, donor atom, acceptor molecule, acceptor atom, score
      L1  H     3    25       P1  7948  0.96
      L1  H     5    47       P1 10171  0.94
      L1  H     8    26       P1 10175  0.27

> <Gold.Chemscore.Hbond.Weighted>
-7.7774

> <Gold.Chemscore.Metal.Weighted>
-0.0000

> <Gold.Chemscore.Lipo.Weighted>
-9.2959

> <Gold.Chemscore.Internal_Hbond.Weighted>
0.0000

> <Gold.Chemscore.DEClash.Weighted>
2.7195

> <Gold.Chemscore.DEInternal.Weighted>
2.8431

> <Gold.Chemscore.Rot.Weighted>
4.3390

> <Gold.Chemscore.Internal.Correction.Weighted>
   9.000000E+99

> <Gold.Protein.RotatedTorsions>
[ 6907 6896 6895 6894 ] final  -81.43 input  -60.11 | X-H torsion
[ 7974 7965 7964 7962 ] final -153.36 input  175.53 | X-H torsion
[ 8008 7997 7996 7995 ] final   28.13 input   59.86 | X-H torsion
[ 10167 10162 10161 10158 ] final  -95.12 input  -65.29 | X-H torsion
[ 10718 10713 10712 10709 ] final    0.36 input   66.30 | X-H torsion
[ 10763 10752 10751 10750 ] final   -5.62 input  -60.55 | X-H torsion
[ 11005 11000 10999 10996 ] final -171.98 input  -57.11 | X-H torsion

> <Gold.Protein.ActiveResidues>
 VAL166  LYS551  ARG553  GLY616  TRP617  ASP618  TYR619  PRO620  LYS621  CYS622 
 ASP623  PHE694  ASN695  SER759  ASP760  ASP761  ALA762  ILE779  LEU786  VAL792 
 PHE793  MET794  SER795  GLU796  ALA797  LYS798  CYS799  TRP800  GLU811  SER814 

> <Gold.Protein.RotatedAtoms>
  150.6912  134.3818  159.5037 H   0  0  0  0  0  0  0  0  0  0  0  0  # atno 6907 bound_to 6896
  152.1619  134.8902  160.0550 H   0  0  0  0  0  0  0  0  0  0  0  0  # atno 6908 bound_to 6896
  151.9961  133.3773  159.4200 H   0  0  0  0  0  0  0  0  0  0  0  0  # atno 6909 bound_to 6896
  144.7745  140.4536  143.5883 H   0  0  0  0  0  0  0  0  0  0  0  0  # atno 7974 bound_to 7965
  155.0538  140.3182  155.4683 H   0  0  0  0  0  0  0  0  0  0  0  0  # atno 8008 bound_to 7997
  156.2828  140.2141  156.5608 H   0  0  0  0  0  0  0  0  0  0  0  0  # atno 8009 bound_to 7997
  154.7188  140.0491  157.0608 H   0  0  0  0  0  0  0  0  0  0  0  0  # atno 8010 bound_to 7997
  140.3074  143.3125  152.0184 H   0  0  0  0  0  0  0  0  0  0  0  0  # atno 10167 bound_to 10162
  156.8322  130.5492  149.5685 H   0  0  0  0  0  0  0  0  0  0  0  0  # atno 10718 bound_to 10713
  153.4011  135.7005  153.6426 H   0  0  0  0  0  0  0  0  0  0  0  0  # atno 10763 bound_to 10752
  153.4959  135.3663  155.2516 H   0  0  0  0  0  0  0  0  0  0  0  0  # atno 10764 bound_to 10752
  154.8710  135.4100  154.3346 H   0  0  0  0  0  0  0  0  0  0  0  0  # atno 10765 bound_to 10752
  140.5021  134.5883  157.4991 H   0  0  0  0  0  0  0  0  0  0  0  0  # atno 11005 bound_to 11000
  145.6227  139.1526  143.3013 LP  0  0  0  0  0  0  0  0  0  0  0  0  # atno 17320 bound_to 7965
  146.1915  140.6336  142.9143 LP  0  0  0  0  0  0  0  0  0  0  0  0  # atno 17321 bound_to 7965
  139.4901  144.6410  151.6876 LP  0  0  0  0  0  0  0  0  0  0  0  0  # atno 17342 bound_to 10162
  140.5598  144.0287  150.6164 LP  0  0  0  0  0  0  0  0  0  0  0  0  # atno 17343 bound_to 10162
  156.0927  130.5909  150.9761 LP  0  0  0  0  0  0  0  0  0  0  0  0  # atno 17370 bound_to 10713
  157.6400  131.0911  150.8270 LP  0  0  0  0  0  0  0  0  0  0  0  0  # atno 17371 bound_to 10713
  139.9707  134.7297  156.0047 LP  0  0  0  0  0  0  0  0  0  0  0  0  # atno 17394 bound_to 11000
  141.1430  133.6561  156.3785 LP  0  0  0  0  0  0  0  0  0  0  0  0  # atno 17395 bound_to 11000

$$$$
