AV-unprocessed.smi:3314|AV-procd|sdf|12733|dock4
  -GOLD-   2272019 73D 1   1.00000     0.00000
 Structure written by MMmdl.
 38 39  0  0  0  0  0  0  0  0  2 V2000
  151.7996  145.8792  160.1704 C   0  0  0  0  0  0  0  0  0  0  0  0
  151.9233  144.4816  159.6004 C   0  0  0  0  0  0  0  0  0  0  0  0
  152.7498  143.5205  160.2132 C   0  0  0  0  0  0  0  0  0  0  0  0
  152.8195  142.2378  159.6352 C   0  0  0  0  0  0  0  0  0  0  0  0
  153.6893  141.1565  160.2410 C   0  0  0  0  0  0  0  0  0  0  0  0
  152.1316  141.8910  158.5260 N   0  0  0  0  0  0  0  0  0  0  0  0
  151.3308  142.8082  157.9292 C   0  0  0  0  0  0  0  0  0  0  0  0
  150.5671  142.5441  156.7619 N   0  0  0  0  0  0  0  0  0  0  0  0
  150.1788  141.3522  156.2711 C   0  0  0  0  0  0  0  0  0  0  0  0
  150.4292  140.2659  156.7953 O   0  0  0  0  0  0  0  0  0  0  0  0
  149.3652  141.4146  154.9640 C   0  0  2  0  0  0  0  0  0  0  0  0
  147.8796  141.0035  155.1035 C   0  0  0  0  0  0  0  0  0  0  0  0
  147.7396  139.5421  155.3106 N   0  3  1  0  0  0  0  0  0  0  0  0
  146.3338  139.1232  155.4922 C   0  0  0  0  0  0  0  0  0  0  0  0
  148.4274  138.7897  154.2378 C   0  0  0  0  0  0  0  0  0  0  0  0
  149.9021  139.2141  154.1492 C   0  0  0  0  0  0  0  0  0  0  0  0
  149.9859  140.6247  153.9453 O   0  0  0  0  0  0  0  0  0  0  0  0
  151.2070  144.1187  158.4421 C   0  0  0  0  0  0  0  0  0  0  0  0
  152.4318  146.0068  161.0496 H   0  0  0  0  0  0  0  0  0  0  0  0
  150.7677  146.0781  160.4604 H   0  0  0  0  0  0  0  0  0  0  0  0
  152.0965  146.6190  159.4268 H   0  0  0  0  0  0  0  0  0  0  0  0
  153.3151  143.7596  161.1023 H   0  0  0  0  0  0  0  0  0  0  0  0
  154.1534  141.4948  161.1680 H   0  0  0  0  0  0  0  0  0  0  0  0
  154.4810  140.8745  159.5465 H   0  0  0  0  0  0  0  0  0  0  0  0
  153.0944  140.2702  160.4635 H   0  0  0  0  0  0  0  0  0  0  0  0
  150.2767  143.3586  156.2406 H   0  0  0  0  0  0  0  0  0  0  0  0
  149.3950  142.4518  154.6275 H   0  0  0  0  0  0  0  0  0  0  0  0
  147.4131  141.5403  155.9311 H   0  0  0  0  0  0  0  0  0  0  0  0
  147.3360  141.2913  154.2021 H   0  0  0  0  0  0  0  0  0  0  0  0
  145.7475  139.3160  154.5927 H   0  0  0  0  0  0  0  0  0  0  0  0
  145.8763  139.6632  156.3219 H   0  0  0  0  0  0  0  0  0  0  0  0
  146.2770  138.0576  155.7166 H   0  0  0  0  0  0  0  0  0  0  0  0
  148.3614  137.7193  154.4357 H   0  0  0  0  0  0  0  0  0  0  0  0
  147.9280  138.9709  153.2846 H   0  0  0  0  0  0  0  0  0  0  0  0
  150.4482  138.9128  155.0440 H   0  0  0  0  0  0  0  0  0  0  0  0
  150.3837  138.7121  153.3100 H   0  0  0  0  0  0  0  0  0  0  0  0
  150.5666  144.8410  157.9564 H   0  0  0  0  0  0  0  0  0  0  0  0
  148.2206  139.3263  156.1730 H   0  0  0  0  0  0  0  0  0  0  0  0
  1  2  1  0  0  0  0
  1 19  1  0  0  0  0
  1 20  1  0  0  0  0
  1 21  1  0  0  0  0
  2 18  1  0  0  0  0
  2  3  2  0  0  0  0
  3  4  1  0  0  0  0
  3 22  1  0  0  0  0
  4  5  1  0  0  0  0
  4  6  2  0  0  0  0
  5 23  1  0  0  0  0
  5 24  1  0  0  0  0
  5 25  1  0  0  0  0
  6  7  1  0  0  0  0
  7  8  1  0  0  0  0
  7 18  2  0  0  0  0
  8  9  1  0  0  0  0
  8 26  1  0  0  0  0
  9 10  2  0  0  0  0
  9 11  1  0  0  0  0
 11 17  1  0  0  0  0
 11 12  1  0  0  0  0
 11 27  1  0  0  0  0
 12 13  1  0  0  0  0
 12 28  1  0  0  0  0
 12 29  1  0  0  0  0
 13 14  1  0  0  0  0
 13 15  1  0  0  0  0
 13 38  1  0  0  0  0
 14 30  1  0  0  0  0
 14 31  1  0  0  0  0
 14 32  1  0  0  0  0
 15 16  1  0  0  0  0
 15 33  1  0  0  0  0
 15 34  1  0  0  0  0
 16 17  1  0  0  0  0
 16 35  1  0  0  0  0
 16 36  1  0  0  0  0
 18 37  1  0  0  0  0
M  CHG  1  13   1
M  END
> <s_m_source_file>
AV-unprocessed.smi

> <i_m_source_file_index>
3314

> <i_lp_mmshare_version>
43012

> <i_f3d_flags>
0

> <s_epik_input>
W0NIM11jMVtjSF1jKFtDSDNdKW5jKFtjSF0xKVtOSF1DKD1PKVtDQEBIXTJbQ0gyXU4oW0NIM10pW0NIMl1bQ0gyXU8y

> <s_epik_cmdline>
J2VwaWtfcHl0aG9uJywgJy1waCcsICc3LjAnLCAnLXRuJywgJzgnLCAnLW1hJywgJzIwMCcsICctbWV0YWxfYmluZGluZycsICctaW1hZScsICc8aW5maWxlLm1hZT4nLCAnLW9tYWUnLCAnPG91dGZpbGUubWFlPic=

> <r_epik_Ionization_Penalty>
0.32442

> <r_epik_Ionization_Penalty_Charging>
0.314023

> <r_epik_Ionization_Penalty_Neutral>
0.0103972

> <r_epik_State_Penalty>
0.29453

> <r_epik_Charging_Adjusted_Penalty>
0.608553

> <i_epik_Tot_Q>
1

> <i_epik_Tot_abs_Q>
1

> <r_epik_Metal_State_Penalty>
0.286909

> <b_epik_Metal_Only>
0

> <s_lp_Force_Field>
OPLS_2005

> <r_lp_Energy>
14.9445

> <b_lp_Chiralities_Consistent>
1

> <s_lp_Variant>
AV-unprocessed.smi:3314-3

> <Gold.Version>
5.8.1

> <Gold.Id.Protein>
6NUR|6NUR_protein|mol2

> <Gold.PLP.Fitness>
42.3435

> <Gold.PLP.PLP>
-37.8059

> <Gold.PLP.part.hbond>
-2.0000

> <Gold.PLP.part.metal>
0.0000

> <Gold.PLP.part.buried>
-4.6757

> <Gold.PLP.part.nonpolar>
-33.2264

> <Gold.PLP.part.repulsive>
1.6995

> <Gold.PLP.ligand.clash>
0.0000

> <Gold.PLP.ligand.torsion>
0.1770

> <Gold.PLP.Chemscore.Hbond>
1.6231

> <Gold.PLP.Chemscore.CHOScore>
0.0000

> <Gold.PLP.Chemscore.Metal>
0.0000

> <Gold.Chemscore.Hbonds>
donor molecule, donor type, donor heavy atom, donor atom, acceptor molecule, acceptor atom, score
      L1  H     8    26       P1  8028  1.00
      P1  H  7989  7998       L1    17  0.64
      P1  H  8011  8017       L1    17  0.03

> <Gold.PLP.Chemscore.Internal.Correction>
0.0223

> <Gold.Rescore>
     Score         DG    S(hbond)    S(metal)    S(lipo)     H(rot)  DE(clash)    DE(int)     intcor
     15.83     -18.74       1.44        0.00      94.18       1.00       0.18       2.73       ----

> <Gold.Chemscore.Fitness>
15.8294

> <Gold.Chemscore.DG>
-18.7402

> <Gold.Chemscore.ZeroCoef>
-5.4800

> <Gold.Chemscore.Hbond>
1.4376

> <Gold.Chemscore.Metal>
0.0000

> <Gold.Chemscore.Lipo>
94.1765

> <Gold.Chemscore.Internal_Hbond>
0.0000

> <Gold.Chemscore.DEClash>
0.1794

> <Gold.Chemscore.DEInternal>
2.7314

> <Gold.Chemscore.Rot>
1.0000

> <Gold.Chemscore.Internal.Correction>
   9.000000E+99

> <Gold.Chemscore.Hbonds>
donor molecule, donor type, donor heavy atom, donor atom, acceptor molecule, acceptor atom, score
      L1  H     8    26       P1  8028  0.91
      P1  H  7989  7998       L1    17  0.32

> <Gold.Chemscore.Hbond.Weighted>
-4.8016

> <Gold.Chemscore.Metal.Weighted>
-0.0000

> <Gold.Chemscore.Lipo.Weighted>
-11.0186

> <Gold.Chemscore.Internal_Hbond.Weighted>
0.0000

> <Gold.Chemscore.DEClash.Weighted>
0.1794

> <Gold.Chemscore.DEInternal.Weighted>
2.7314

> <Gold.Chemscore.Rot.Weighted>
2.5600

> <Gold.Chemscore.Internal.Correction.Weighted>
   9.000000E+99

> <Gold.Protein.RotatedTorsions>
[ 6907 6896 6895 6894 ] final   12.32 input  -60.11 | X-H torsion
[ 7974 7965 7964 7962 ] final  -41.80 input  175.53 | X-H torsion
[ 8008 7997 7996 7995 ] final  -41.49 input   59.86 | X-H torsion
[ 10167 10162 10161 10158 ] final -103.81 input  -65.29 | X-H torsion
[ 10718 10713 10712 10709 ] final  123.44 input   66.30 | X-H torsion
[ 10763 10752 10751 10750 ] final  -77.95 input  -60.55 | X-H torsion
[ 11005 11000 10999 10996 ] final   72.10 input  -57.11 | X-H torsion

> <Gold.Protein.ActiveResidues>
 VAL166  LYS551  ARG553  GLY616  TRP617  ASP618  TYR619  PRO620  LYS621  CYS622 
 ASP623  PHE694  ASN695  SER759  ASP760  ASP761  ALA762  ILE779  LEU786  VAL792 
 PHE793  MET794  SER795  GLU796  ALA797  LYS798  CYS799  TRP800  GLU811  SER814 

> <Gold.Protein.RotatedAtoms>
  151.7684  135.0792  160.0355 H   0  0  0  0  0  0  0  0  0  0  0  0  # atno 6907 bound_to 6896
  152.3305  133.5949  159.5815 H   0  0  0  0  0  0  0  0  0  0  0  0  # atno 6908 bound_to 6896
  150.7420  133.9791  159.3612 H   0  0  0  0  0  0  0  0  0  0  0  0  # atno 6909 bound_to 6896
  146.0176  140.6889  142.9194 H   0  0  0  0  0  0  0  0  0  0  0  0  # atno 7974 bound_to 7965
  154.4004  140.1498  156.3199 H   0  0  0  0  0  0  0  0  0  0  0  0  # atno 8008 bound_to 7997
  155.8539  140.3456  155.5690 H   0  0  0  0  0  0  0  0  0  0  0  0  # atno 8009 bound_to 7997
  155.7954  140.0862  157.1976 H   0  0  0  0  0  0  0  0  0  0  0  0  # atno 8010 bound_to 7997
  140.2160  143.3711  152.1010 H   0  0  0  0  0  0  0  0  0  0  0  0  # atno 10167 bound_to 10162
  157.5664  131.1086  150.8446 H   0  0  0  0  0  0  0  0  0  0  0  0  # atno 10718 bound_to 10713
  154.5196  135.5746  153.6670 H   0  0  0  0  0  0  0  0  0  0  0  0  # atno 10763 bound_to 10752
  152.9914  135.6178  154.2772 H   0  0  0  0  0  0  0  0  0  0  0  0  # atno 10764 bound_to 10752
  154.2692  135.2854  155.2725 H   0  0  0  0  0  0  0  0  0  0  0  0  # atno 10765 bound_to 10752
  139.9508  134.7230  156.0867 H   0  0  0  0  0  0  0  0  0  0  0  0  # atno 11005 bound_to 11000
  144.6977  140.3509  143.7182 LP  0  0  0  0  0  0  0  0  0  0  0  0  # atno 17320 bound_to 7965
  145.7244  139.1718  143.2466 LP  0  0  0  0  0  0  0  0  0  0  0  0  # atno 17321 bound_to 7965
  139.5162  144.6973  151.5593 LP  0  0  0  0  0  0  0  0  0  0  0  0  # atno 17342 bound_to 10162
  140.6289  143.9114  150.6588 LP  0  0  0  0  0  0  0  0  0  0  0  0  # atno 17343 bound_to 10162
  156.8929  130.5219  149.5285 LP  0  0  0  0  0  0  0  0  0  0  0  0  # atno 17370 bound_to 10713
  156.0712  130.5745  150.9387 LP  0  0  0  0  0  0  0  0  0  0  0  0  # atno 17371 bound_to 10713
  141.1171  133.6624  156.3120 LP  0  0  0  0  0  0  0  0  0  0  0  0  # atno 17394 bound_to 11000
  140.5723  134.5828  157.5460 LP  0  0  0  0  0  0  0  0  0  0  0  0  # atno 17395 bound_to 11000

$$$$
