AV-unprocessed.smi:36|AV-procd|sdf|302|dock5
  -GOLD-   2262016103D 1   1.00000     0.00000
 Structure written by MMmdl.
 63 66  0  0  0  0  0  0  0  0  2 V2000
  147.7321  136.6636  162.2754 C   0  0  0  0  0  0  0  0  0  0  0  0
  146.4225  136.0776  161.7227 C   0  0  0  0  0  0  0  0  0  0  0  0
  145.5558  135.5487  162.8778 C   0  0  0  0  0  0  0  0  0  0  0  0
  145.6513  137.1606  160.9505 C   0  0  0  0  0  0  0  0  0  0  0  0
  146.8235  134.6340  160.5376 Si  0  0  0  0  0  0  0  0  0  0  0  0
  147.8655  133.3019  161.4034 C   0  0  0  0  0  0  0  0  0  0  0  0
  145.2339  133.8583  159.8431 C   0  0  0  0  0  0  0  0  0  0  0  0
  147.7238  135.2564  159.2479 O   0  0  0  0  0  0  0  0  0  0  0  0
  148.0630  134.5089  158.0991 C   0  0  0  0  0  0  0  0  0  0  0  0
  149.1505  135.2530  157.3144 C   0  0  1  0  0  0  0  0  0  0  0  0
  150.4075  135.1067  157.9673 O   0  0  0  0  0  0  0  0  0  0  0  0
  151.4446  135.1856  157.0329 C   0  0  2  0  0  0  0  0  0  0  0  0
  152.2231  136.4330  157.2984 N   0  0  0  0  0  0  0  0  0  0  0  0
  152.9745  137.1555  156.4420 C   0  0  0  0  0  0  0  0  0  0  0  0
  153.5794  138.2400  156.9220 N   0  0  0  0  0  0  0  0  0  0  0  0
  153.1754  138.2220  158.2489 C   0  0  0  0  0  0  0  0  0  0  0  0
  153.4504  139.0840  159.3458 C   0  0  0  0  0  0  0  0  0  0  0  0
  154.2255  140.1734  159.2323 N   0  5  0  0  0  0  0  0  0  0  0  0
  154.1376  141.1653  160.1543 C   0  0  0  0  0  0  0  0  0  0  0  0
  154.7525  141.2661  161.2183 O   0  0  0  0  0  0  0  0  0  0  0  0
  153.1088  142.2087  159.8101 C   0  0  0  0  0  0  0  0  0  0  0  0
  152.5110  142.2073  158.5291 C   0  0  0  0  0  0  0  0  0  0  0  0
  151.5239  143.1560  158.1983 C   0  0  0  0  0  0  0  0  0  0  0  0
  151.1170  144.1112  159.1484 C   0  0  0  0  0  0  0  0  0  0  0  0
  151.6957  144.1146  160.4313 C   0  0  0  0  0  0  0  0  0  0  0  0
  152.6828  143.1662  160.7630 C   0  0  0  0  0  0  0  0  0  0  0  0
  152.8713  138.7713  160.5333 N   0  0  0  0  0  0  0  0  0  0  0  0
  152.0945  137.6867  160.6425 C   0  0  0  0  0  0  0  0  0  0  0  0
  151.7614  136.7927  159.7056 N   0  0  0  0  0  0  0  0  0  0  0  0
  152.3293  137.1040  158.5041 C   0  0  0  0  0  0  0  0  0  0  0  0
  150.8063  135.2461  155.6404 C   0  0  0  0  0  0  0  0  0  0  0  0
  149.4170  134.7046  155.9119 C   0  0  2  0  0  0  0  0  0  0  0  0
  148.4898  135.1793  154.9568 O   0  0  0  0  0  0  0  0  0  0  0  0
  147.5375  137.4924  162.9570 H   0  0  0  0  0  0  0  0  0  0  0  0
  148.3677  137.0406  161.4737 H   0  0  0  0  0  0  0  0  0  0  0  0
  148.3034  135.9144  162.8240 H   0  0  0  0  0  0  0  0  0  0  0  0
  146.0814  134.7862  163.4530 H   0  0  0  0  0  0  0  0  0  0  0  0
  144.6326  135.1019  162.5069 H   0  0  0  0  0  0  0  0  0  0  0  0
  145.2816  136.3483  163.5667 H   0  0  0  0  0  0  0  0  0  0  0  0
  145.3866  137.9970  161.5986 H   0  0  0  0  0  0  0  0  0  0  0  0
  144.7268  136.7642  160.5295 H   0  0  0  0  0  0  0  0  0  0  0  0
  146.2438  137.5596  160.1269 H   0  0  0  0  0  0  0  0  0  0  0  0
  147.3494  132.8883  162.2695 H   0  0  0  0  0  0  0  0  0  0  0  0
  148.8177  133.7015  161.7514 H   0  0  0  0  0  0  0  0  0  0  0  0
  148.0889  132.4725  160.7327 H   0  0  0  0  0  0  0  0  0  0  0  0
  144.5966  133.4716  160.6378 H   0  0  0  0  0  0  0  0  0  0  0  0
  145.4533  133.0282  159.1726 H   0  0  0  0  0  0  0  0  0  0  0  0
  144.6474  134.5833  159.2793 H   0  0  0  0  0  0  0  0  0  0  0  0
  148.4346  133.5352  158.4190 H   0  0  0  0  0  0  0  0  0  0  0  0
  147.1831  134.3336  157.4795 H   0  0  0  0  0  0  0  0  0  0  0  0
  148.9210  136.3193  157.2695 H   0  0  0  0  0  0  0  0  0  0  0  0
  152.1447  134.3606  157.1682 H   0  0  0  0  0  0  0  0  0  0  0  0
  153.0858  136.8705  155.4065 H   0  0  0  0  0  0  0  0  0  0  0  0
  152.8101  141.4788  157.7893 H   0  0  0  0  0  0  0  0  0  0  0  0
  151.0773  143.1482  157.2152 H   0  0  0  0  0  0  0  0  0  0  0  0
  150.3588  144.8372  158.8955 H   0  0  0  0  0  0  0  0  0  0  0  0
  151.3799  144.8426  161.1640 H   0  0  0  0  0  0  0  0  0  0  0  0
  153.1055  143.1784  161.7574 H   0  0  0  0  0  0  0  0  0  0  0  0
  151.6783  137.5103  161.6231 H   0  0  0  0  0  0  0  0  0  0  0  0
  150.7617  136.2812  155.2957 H   0  0  0  0  0  0  0  0  0  0  0  0
  151.3746  134.6572  154.9197 H   0  0  0  0  0  0  0  0  0  0  0  0
  149.4310  133.6138  155.9164 H   0  0  0  0  0  0  0  0  0  0  0  0
  148.8540  135.0488  154.0946 H   0  0  0  0  0  0  0  0  0  0  0  0
  1  2  1  0  0  0  0
  1 34  1  0  0  0  0
  1 35  1  0  0  0  0
  1 36  1  0  0  0  0
  2  3  1  0  0  0  0
  2  4  1  0  0  0  0
  2  5  1  0  0  0  0
  3 37  1  0  0  0  0
  3 38  1  0  0  0  0
  3 39  1  0  0  0  0
  4 40  1  0  0  0  0
  4 41  1  0  0  0  0
  4 42  1  0  0  0  0
  5  6  1  0  0  0  0
  5  7  1  0  0  0  0
  5  8  1  0  0  0  0
  6 43  1  0  0  0  0
  6 44  1  0  0  0  0
  6 45  1  0  0  0  0
  7 46  1  0  0  0  0
  7 47  1  0  0  0  0
  7 48  1  0  0  0  0
  8  9  1  0  0  0  0
  9 10  1  0  0  0  0
  9 49  1  0  0  0  0
  9 50  1  0  0  0  0
 10 32  1  0  0  0  0
 10 11  1  0  0  0  0
 10 51  1  0  0  0  0
 11 12  1  0  0  0  0
 12 13  1  0  0  0  0
 12 31  1  0  0  0  0
 12 52  1  0  0  0  0
 13 30  1  0  0  0  0
 13 14  1  0  0  0  0
 14 15  2  0  0  0  0
 14 53  1  0  0  0  0
 15 16  1  0  0  0  0
 16 30  2  0  0  0  0
 16 17  1  0  0  0  0
 17 18  1  0  0  0  0
 17 27  2  0  0  0  0
 18 19  1  0  0  0  0
 19 20  2  0  0  0  0
 19 21  1  0  0  0  0
 21 26  1  0  0  0  0
 21 22  2  0  0  0  0
 22 23  1  0  0  0  0
 22 54  1  0  0  0  0
 23 24  2  0  0  0  0
 23 55  1  0  0  0  0
 24 25  1  0  0  0  0
 24 56  1  0  0  0  0
 25 26  2  0  0  0  0
 25 57  1  0  0  0  0
 26 58  1  0  0  0  0
 27 28  1  0  0  0  0
 28 29  2  0  0  0  0
 28 59  1  0  0  0  0
 29 30  1  0  0  0  0
 31 32  1  0  0  0  0
 31 60  1  0  0  0  0
 31 61  1  0  0  0  0
 32 33  1  0  0  0  0
 32 62  1  0  0  0  0
 33 63  1  0  0  0  0
M  CHG  1  18  -1
M  END
> <s_m_source_file>
AV-unprocessed.smi

> <i_m_source_file_index>
36

> <i_lp_mmshare_version>
43012

> <i_f3d_flags>
0

> <s_epik_input>
W0NIM11DKFtDSDNdKShbQ0gzXSlbU2ldKFtDSDNdKShbQ0gzXSlPW0NIMl1bQ0BASF0xT1tDQEhdKFtDSDJdW0NASF0xW09IXSluKFtjSF1uMiljKGMyMyluW2NIXW5jM1tOSF1DKD1PKWM0W2NIXVtjSF1bY0hdW2NIXVtjSF00

> <s_epik_cmdline>
J2VwaWtfcHl0aG9uJywgJy1waCcsICc3LjAnLCAnLXRuJywgJzgnLCAnLW1hJywgJzIwMCcsICctbWV0YWxfYmluZGluZycsICctaW1hZScsICc8aW5maWxlLm1hZT4nLCAnLW9tYWUnLCAnPG91dGZpbGUubWFlPic=

> <r_lp_tautomer_probability>
1

> <r_epik_Ionization_Penalty>
4.75685

> <r_epik_Ionization_Penalty_Charging>
3.55822

> <r_epik_Ionization_Penalty_Neutral>
1.19863

> <r_epik_State_Penalty>
3.564

> <r_epik_Charging_Adjusted_Penalty>
7.12222

> <i_epik_Tot_Q>
-1

> <i_epik_Tot_abs_Q>
1

> <r_epik_Metal_State_Penalty>
0.523258

> <b_epik_Metal_Only>
1

> <s_epik_Chemistry_Notes>
This compound contains an acetal/aminal-like group ( X-CH(R)-Y where X, Y are N, S, or O) that may be acid/base labile, releasing an aldehyde.

> <s_lp_Force_Field>
OPLS_2005

> <r_lp_Energy>
39.042

> <b_lp_Chiralities_Consistent>
1

> <s_lp_Variant>
AV-unprocessed.smi:36-24

> <Gold.Version>
5.8.1

> <Gold.Id.Protein>
6NUR|6NUR_protein|mol2

> <Gold.PLP.Fitness>
59.3445

> <Gold.PLP.PLP>
-50.5777

> <Gold.PLP.part.hbond>
-4.9870

> <Gold.PLP.part.metal>
0.0000

> <Gold.PLP.part.buried>
-5.5049

> <Gold.PLP.part.nonpolar>
-39.9708

> <Gold.PLP.part.repulsive>
0.0000

> <Gold.PLP.ligand.clash>
0.0000

> <Gold.PLP.ligand.torsion>
1.7544

> <Gold.PLP.Chemscore.Hbond>
3.9760

> <Gold.PLP.Chemscore.CHOScore>
0.0000

> <Gold.PLP.Chemscore.Metal>
0.0000

> <Gold.Chemscore.Hbonds>
donor molecule, donor type, donor heavy atom, donor atom, acceptor molecule, acceptor atom, score
      P1  H  6896  6907       L1    29  1.00
      P1  H  6896  6909       L1    11  0.08
      P1  H  7997  8010       L1    18  1.38

> <Gold.PLP.Chemscore.Internal.Correction>
0.3476

> <Gold.Rescore>
     Score         DG    S(hbond)    S(metal)    S(lipo)     H(rot)  DE(clash)    DE(int)     intcor
     15.42     -19.25       2.07        0.00     117.00       2.67       0.60       3.23       ----

> <Gold.Chemscore.Fitness>
15.4212

> <Gold.Chemscore.DG>
-19.2469

> <Gold.Chemscore.ZeroCoef>
-5.4800

> <Gold.Chemscore.Hbond>
2.0699

> <Gold.Chemscore.Metal>
0.0000

> <Gold.Chemscore.Lipo>
117.0007

> <Gold.Chemscore.Internal_Hbond>
0.0000

> <Gold.Chemscore.DEClash>
0.5994

> <Gold.Chemscore.DEInternal>
3.2264

> <Gold.Chemscore.Rot>
2.6702

> <Gold.Chemscore.Internal.Correction>
   9.000000E+99

> <Gold.Chemscore.Hbonds>
donor molecule, donor type, donor heavy atom, donor atom, acceptor molecule, acceptor atom, score
      L1  H    33    63       P1  7948  0.01
      P1  H  6896  6907       L1    29  0.90
      P1  H  6896  6909       L1    11  0.05
      P1  H  7997  8010       L1    18  0.40

> <Gold.Chemscore.Hbond.Weighted>
-6.9136

> <Gold.Chemscore.Metal.Weighted>
-0.0000

> <Gold.Chemscore.Lipo.Weighted>
-13.6891

> <Gold.Chemscore.Internal_Hbond.Weighted>
0.0000

> <Gold.Chemscore.DEClash.Weighted>
0.5994

> <Gold.Chemscore.DEInternal.Weighted>
3.2264

> <Gold.Chemscore.Rot.Weighted>
6.8358

> <Gold.Chemscore.Internal.Correction.Weighted>
   9.000000E+99

> <Gold.Protein.RotatedTorsions>
[ 6907 6896 6895 6894 ] final  -14.87 input  -60.11 | X-H torsion
[ 7974 7965 7964 7962 ] final -120.87 input  175.53 | X-H torsion
[ 8008 7997 7996 7995 ] final   -5.01 input   59.86 | X-H torsion
[ 10167 10162 10161 10158 ] final  -75.32 input  -65.29 | X-H torsion
[ 10718 10713 10712 10709 ] final -129.18 input   66.30 | X-H torsion
[ 10763 10752 10751 10750 ] final   36.92 input  -60.55 | X-H torsion
[ 11005 11000 10999 10996 ] final -146.28 input  -57.11 | X-H torsion

> <Gold.Protein.ActiveResidues>
 VAL166  LYS551  ARG553  GLY616  TRP617  ASP618  TYR619  PRO620  LYS621  CYS622 
 ASP623  PHE694  ASN695  SER759  ASP760  ASP761  ALA762  ILE779  LEU786  VAL792 
 PHE793  MET794  SER795  GLU796  ALA797  LYS798  CYS799  TRP800  GLU811  SER814 

> <Gold.Protein.RotatedAtoms>
  151.3327  135.0845  159.9343 H   0  0  0  0  0  0  0  0  0  0  0  0  # atno 6907 bound_to 6896
  152.5231  133.9527  159.7690 H   0  0  0  0  0  0  0  0  0  0  0  0  # atno 6908 bound_to 6896
  150.9868  133.6136  159.2744 H   0  0  0  0  0  0  0  0  0  0  0  0  # atno 6909 bound_to 6896
  145.0466  140.8186  143.4234 H   0  0  0  0  0  0  0  0  0  0  0  0  # atno 7974 bound_to 7965
  154.6083  140.2469  155.7702 H   0  0  0  0  0  0  0  0  0  0  0  0  # atno 8008 bound_to 7997
  156.2355  140.2952  156.0251 H   0  0  0  0  0  0  0  0  0  0  0  0  # atno 8009 bound_to 7997
  155.2094  140.0397  157.2921 H   0  0  0  0  0  0  0  0  0  0  0  0  # atno 8010 bound_to 7997
  140.4953  143.2372  151.7841 H   0  0  0  0  0  0  0  0  0  0  0  0  # atno 10167 bound_to 10162
  156.2022  130.6865  151.0553 H   0  0  0  0  0  0  0  0  0  0  0  0  # atno 10718 bound_to 10713
  153.0057  135.6292  154.2063 H   0  0  0  0  0  0  0  0  0  0  0  0  # atno 10763 bound_to 10752
  154.1806  135.2813  155.3055 H   0  0  0  0  0  0  0  0  0  0  0  0  # atno 10764 bound_to 10752
  154.5837  135.5639  153.7270 H   0  0  0  0  0  0  0  0  0  0  0  0  # atno 10765 bound_to 10752
  140.7836  134.3050  157.5037 H   0  0  0  0  0  0  0  0  0  0  0  0  # atno 11005 bound_to 11000
  145.1580  139.2475  143.5406 LP  0  0  0  0  0  0  0  0  0  0  0  0  # atno 17320 bound_to 7965
  146.3514  140.1300  142.8597 LP  0  0  0  0  0  0  0  0  0  0  0  0  # atno 17321 bound_to 7965
  139.4860  144.4595  151.9557 LP  0  0  0  0  0  0  0  0  0  0  0  0  # atno 17342 bound_to 10162
  140.3683  144.2887  150.5923 LP  0  0  0  0  0  0  0  0  0  0  0  0  # atno 17343 bound_to 10162
  157.6992  131.0782  150.6873 LP  0  0  0  0  0  0  0  0  0  0  0  0  # atno 17370 bound_to 10713
  156.6931  130.4601  149.5594 LP  0  0  0  0  0  0  0  0  0  0  0  0  # atno 17371 bound_to 10713
  139.8739  134.9333  156.3576 LP  0  0  0  0  0  0  0  0  0  0  0  0  # atno 17394 bound_to 11000
  140.9459  133.7483  156.0207 LP  0  0  0  0  0  0  0  0  0  0  0  0  # atno 17395 bound_to 11000

$$$$
