AV-unprocessed.smi:786|AV-procd|sdf|3723|dock7
  -GOLD-   22720 1153D 1   1.00000     0.00000
 Structure written by MMmdl.
 38 39  0  0  0  0  0  0  0  0  2 V2000
  155.3959  140.4672  161.2264 O   0  0  0  0  0  0  0  0  0  0  0  0
  155.2639  139.6457  160.0111 S   0  0  0  0  0  0  0  0  0  0  0  0
  156.4986  139.3838  159.2574 O   0  0  0  0  0  0  0  0  0  0  0  0
  154.6406  137.9894  160.5823 C   0  0  0  0  0  0  0  0  0  0  0  0
  154.2267  137.9559  162.0706 C   0  0  0  0  0  0  0  0  0  0  0  0
  155.4068  138.3438  162.9772 C   0  0  0  0  0  0  0  0  0  0  0  0
  155.0158  138.2572  164.4615 C   0  0  0  0  0  0  0  0  0  0  0  0
  154.5537  136.9471  164.7680 O   0  0  0  0  0  0  0  0  0  0  0  0
  153.3863  136.5915  164.0354 C   0  0  0  0  0  0  0  0  0  0  0  0
  153.6907  136.5857  162.5283 C   0  0  0  0  0  0  0  0  0  0  0  0
  154.0777  140.1482  159.0171 N   0  5  0  0  0  0  0  0  0  0  0  0
  152.7761  140.5565  159.5295 C   0  0  0  0  0  0  0  0  0  0  0  0
  152.9033  141.8236  160.4063 C   0  0  0  0  0  0  0  0  0  0  0  0
  152.1236  143.0411  159.9130 C   0  0  0  0  0  0  0  0  0  0  0  0
  152.6279  143.8446  158.8645 C   0  0  0  0  0  0  0  0  0  0  0  0
  151.8665  144.9477  158.4326 C   0  0  0  0  0  0  0  0  0  0  0  0
  150.6303  145.2042  159.0553 C   0  0  0  0  0  0  0  0  0  0  0  0
  150.2093  144.3427  160.0874 C   0  0  0  0  0  0  0  0  0  0  0  0
  150.9316  143.2840  160.5099 N   0  0  0  0  0  0  0  0  0  0  0  0
  153.7945  137.7185  159.9509 H   0  0  0  0  0  0  0  0  0  0  0  0
  155.4178  137.2539  160.3777 H   0  0  0  0  0  0  0  0  0  0  0  0
  153.4444  138.6996  162.2268 H   0  0  0  0  0  0  0  0  0  0  0  0
  156.2522  137.6811  162.7871 H   0  0  0  0  0  0  0  0  0  0  0  0
  155.7445  139.3534  162.7431 H   0  0  0  0  0  0  0  0  0  0  0  0
  155.8778  138.4836  165.0892 H   0  0  0  0  0  0  0  0  0  0  0  0
  154.2447  138.9885  164.7064 H   0  0  0  0  0  0  0  0  0  0  0  0
  153.0591  135.6020  164.3547 H   0  0  0  0  0  0  0  0  0  0  0  0
  152.5747  137.2840  164.2645 H   0  0  0  0  0  0  0  0  0  0  0  0
  152.7881  136.3133  161.9850 H   0  0  0  0  0  0  0  0  0  0  0  0
  154.4265  135.8098  162.3133 H   0  0  0  0  0  0  0  0  0  0  0  0
  152.0607  140.7568  158.7314 H   0  0  0  0  0  0  0  0  0  0  0  0
  152.3300  139.7617  160.1278 H   0  0  0  0  0  0  0  0  0  0  0  0
  152.5542  141.5899  161.4126 H   0  0  0  0  0  0  0  0  0  0  0  0
  153.9552  142.0919  160.5174 H   0  0  0  0  0  0  0  0  0  0  0  0
  153.5800  143.6222  158.4052 H   0  0  0  0  0  0  0  0  0  0  0  0
  152.2247  145.5858  157.6385 H   0  0  0  0  0  0  0  0  0  0  0  0
  150.0206  146.0423  158.7523 H   0  0  0  0  0  0  0  0  0  0  0  0
  149.2684  144.5105  160.5897 H   0  0  0  0  0  0  0  0  0  0  0  0
  1  2  2  0  0  0  0
  2  3  2  0  0  0  0
  2  4  1  0  0  0  0
  2 11  1  0  0  0  0
  4  5  1  0  0  0  0
  4 20  1  0  0  0  0
  4 21  1  0  0  0  0
  5 10  1  0  0  0  0
  5  6  1  0  0  0  0
  5 22  1  0  0  0  0
  6  7  1  0  0  0  0
  6 23  1  0  0  0  0
  6 24  1  0  0  0  0
  7  8  1  0  0  0  0
  7 25  1  0  0  0  0
  7 26  1  0  0  0  0
  8  9  1  0  0  0  0
  9 10  1  0  0  0  0
  9 27  1  0  0  0  0
  9 28  1  0  0  0  0
 10 29  1  0  0  0  0
 10 30  1  0  0  0  0
 11 12  1  0  0  0  0
 12 13  1  0  0  0  0
 12 31  1  0  0  0  0
 12 32  1  0  0  0  0
 13 14  1  0  0  0  0
 13 33  1  0  0  0  0
 13 34  1  0  0  0  0
 14 19  1  0  0  0  0
 14 15  2  0  0  0  0
 15 16  1  0  0  0  0
 15 35  1  0  0  0  0
 16 17  2  0  0  0  0
 16 36  1  0  0  0  0
 17 18  1  0  0  0  0
 17 37  1  0  0  0  0
 18 19  2  0  0  0  0
 18 38  1  0  0  0  0
M  CHG  1  11  -1
M  END
> <s_m_source_file>
AV-unprocessed.smi

> <i_m_source_file_index>
786

> <i_lp_mmshare_version>
43012

> <i_f3d_flags>
0

> <s_epik_input>
W0NIMl0xW0NIMl1PW0NIMl1bQ0gyXVtDSF0xW0NIMl1TKD1PKSg9TylbTkhdW0NIMl1bQ0gyXWMyW2NIXVtjSF1bY0hdW2NIXW4y

> <s_epik_cmdline>
J2VwaWtfcHl0aG9uJywgJy1waCcsICc3LjAnLCAnLXRuJywgJzgnLCAnLW1hJywgJzIwMCcsICctbWV0YWxfYmluZGluZycsICctaW1hZScsICc8aW5maWxlLm1hZT4nLCAnLW9tYWUnLCAnPG91dGZpbGUubWFlPic=

> <r_epik_Ionization_Penalty>
6.60618

> <r_epik_Ionization_Penalty_Charging>
6.53386

> <r_epik_Ionization_Penalty_Neutral>
0.0723214

> <r_epik_State_Penalty>
6.55045

> <r_epik_Charging_Adjusted_Penalty>
13.0843

> <i_epik_Tot_Q>
-1

> <i_epik_Tot_abs_Q>
1

> <r_epik_Metal_State_Penalty>
2.49618

> <b_epik_Metal_Only>
1

> <s_lp_Force_Field>
OPLS_2005

> <r_lp_Energy>
5.55421

> <b_lp_Chiralities_Consistent>
1

> <s_lp_Variant>
AV-unprocessed.smi:786-3

> <Gold.Version>
5.8.1

> <Gold.Id.Protein>
6NUR|6NUR_protein|mol2

> <Gold.PLP.Fitness>
48.7919

> <Gold.PLP.PLP>
-44.3601

> <Gold.PLP.part.hbond>
-3.4839

> <Gold.PLP.part.metal>
0.0000

> <Gold.PLP.part.buried>
-5.3073

> <Gold.PLP.part.nonpolar>
-35.6524

> <Gold.PLP.part.repulsive>
0.2566

> <Gold.PLP.ligand.clash>
0.0000

> <Gold.PLP.ligand.torsion>
1.3326

> <Gold.PLP.Chemscore.Hbond>
2.0000

> <Gold.PLP.Chemscore.CHOScore>
0.0000

> <Gold.PLP.Chemscore.Metal>
0.0000

> <Gold.Chemscore.Hbonds>
donor molecule, donor type, donor heavy atom, donor atom, acceptor molecule, acceptor atom, score
      P1  H  7997  8008       L1    11  1.92

> <Gold.PLP.Chemscore.Internal.Correction>
1.0970

> <Gold.Rescore>
     Score         DG    S(hbond)    S(metal)    S(lipo)     H(rot)  DE(clash)    DE(int)     intcor
     13.51     -17.20       0.63        0.00     116.51       1.57       1.24       2.45       ----

> <Gold.Chemscore.Fitness>
13.5095

> <Gold.Chemscore.DG>
-17.2007

> <Gold.Chemscore.ZeroCoef>
-5.4800

> <Gold.Chemscore.Hbond>
0.6343

> <Gold.Chemscore.Metal>
0.0000

> <Gold.Chemscore.Lipo>
116.5079

> <Gold.Chemscore.Internal_Hbond>
0.0000

> <Gold.Chemscore.DEClash>
1.2383

> <Gold.Chemscore.DEInternal>
2.4529

> <Gold.Chemscore.Rot>
1.5740

> <Gold.Chemscore.Internal.Correction>
   9.000000E+99

> <Gold.Chemscore.Hbonds>
donor molecule, donor type, donor heavy atom, donor atom, acceptor molecule, acceptor atom, score
      P1  H  7997  8008       L1    11  0.36

> <Gold.Chemscore.Hbond.Weighted>
-2.1186

> <Gold.Chemscore.Metal.Weighted>
-0.0000

> <Gold.Chemscore.Lipo.Weighted>
-13.6314

> <Gold.Chemscore.Internal_Hbond.Weighted>
0.0000

> <Gold.Chemscore.DEClash.Weighted>
1.2383

> <Gold.Chemscore.DEInternal.Weighted>
2.4529

> <Gold.Chemscore.Rot.Weighted>
4.0293

> <Gold.Chemscore.Internal.Correction.Weighted>
   9.000000E+99

> <Gold.Protein.RotatedTorsions>
[ 6907 6896 6895 6894 ] final   17.26 input  -60.11 | X-H torsion
[ 7974 7965 7964 7962 ] final   65.25 input  175.53 | X-H torsion
[ 8008 7997 7996 7995 ] final -106.50 input   59.86 | X-H torsion
[ 10167 10162 10161 10158 ] final  -43.29 input  -65.29 | X-H torsion
[ 10718 10713 10712 10709 ] final   82.85 input   66.30 | X-H torsion
[ 10763 10752 10751 10750 ] final -167.49 input  -60.55 | X-H torsion
[ 11005 11000 10999 10996 ] final -144.57 input  -57.11 | X-H torsion

> <Gold.Protein.ActiveResidues>
 VAL166  LYS551  ARG553  GLY616  TRP617  ASP618  TYR619  PRO620  LYS621  CYS622 
 ASP623  PHE694  ASN695  SER759  ASP760  ASP761  ALA762  ILE779  LEU786  VAL792 
 PHE793  MET794  SER795  GLU796  ALA797  LYS798  CYS799  TRP800  GLU811  SER814 

> <Gold.Protein.RotatedAtoms>
  151.8468  135.0571  160.0454 H   0  0  0  0  0  0  0  0  0  0  0  0  # atno 6907 bound_to 6896
  152.2767  133.5428  159.5481 H   0  0  0  0  0  0  0  0  0  0  0  0  # atno 6908 bound_to 6896
  150.7173  134.0538  159.3849 H   0  0  0  0  0  0  0  0  0  0  0  0  # atno 6909 bound_to 6896
  145.8406  139.3193  143.0933 H   0  0  0  0  0  0  0  0  0  0  0  0  # atno 7974 bound_to 7965
  154.9155  140.0409  157.1969 H   0  0  0  0  0  0  0  0  0  0  0  0  # atno 8008 bound_to 7997
  154.8306  140.2898  155.5703 H   0  0  0  0  0  0  0  0  0  0  0  0  # atno 8009 bound_to 7997
  156.2986  140.2501  156.3230 H   0  0  0  0  0  0  0  0  0  0  0  0  # atno 8010 bound_to 7997
  140.6939  143.2991  151.3331 H   0  0  0  0  0  0  0  0  0  0  0  0  # atno 10167 bound_to 10162
  157.6866  131.0065  150.2436 H   0  0  0  0  0  0  0  0  0  0  0  0  # atno 10718 bound_to 10713
  154.6727  135.2942  154.9720 H   0  0  0  0  0  0  0  0  0  0  0  0  # atno 10763 bound_to 10752
  154.0742  135.6613  153.4832 H   0  0  0  0  0  0  0  0  0  0  0  0  # atno 10764 bound_to 10752
  153.0496  135.5182  154.7731 H   0  0  0  0  0  0  0  0  0  0  0  0  # atno 10765 bound_to 10752
  140.8010  134.2856  157.4978 H   0  0  0  0  0  0  0  0  0  0  0  0  # atno 11005 bound_to 11000
  145.9469  140.8938  143.0279 LP  0  0  0  0  0  0  0  0  0  0  0  0  # atno 17320 bound_to 7965
  144.6734  140.1626  143.7421 LP  0  0  0  0  0  0  0  0  0  0  0  0  # atno 17321 bound_to 7965
  139.6372  144.0609  152.2525 LP  0  0  0  0  0  0  0  0  0  0  0  0  # atno 17342 bound_to 10162
  140.0102  144.6229  150.7654 LP  0  0  0  0  0  0  0  0  0  0  0  0  # atno 17343 bound_to 10162
  156.3046  130.3763  149.7718 LP  0  0  0  0  0  0  0  0  0  0  0  0  # atno 17370 bound_to 10713
  156.5338  130.8269  151.3246 LP  0  0  0  0  0  0  0  0  0  0  0  0  # atno 17371 bound_to 10713
  139.8721  134.9430  156.3839 LP  0  0  0  0  0  0  0  0  0  0  0  0  # atno 17394 bound_to 11000
  140.9294  133.7590  156.0006 LP  0  0  0  0  0  0  0  0  0  0  0  0  # atno 17395 bound_to 11000

$$$$
