AV-unprocessed.smi:475|AV-procd|sdf|2668|dock9
  -GOLD-   2262023 83D 1   1.00000     0.00000
 Structure written by MMmdl.
 40 42  0  0  0  0  0  0  0  0  2 V2000
  153.0518  137.8084  160.2295 C   0  0  0  0  0  0  0  0  0  0  0  0
  152.2598  137.8269  159.0554 O   0  0  0  0  0  0  0  0  0  0  0  0
  151.6122  139.0726  158.8553 C   0  0  0  0  0  0  0  0  0  0  0  0
  152.1739  139.7591  157.6020 C   0  0  0  0  0  0  0  0  0  0  0  0
  151.6061  141.1002  157.3994 N   0  0  0  0  0  0  0  0  0  0  0  0
  150.7284  141.5494  156.4598 C   0  0  0  0  0  0  0  0  0  0  0  0
  150.0064  140.5913  155.1675 S   0  0  0  0  0  0  0  0  0  0  0  0
  148.7317  141.6557  154.4273 C   0  0  0  0  0  0  0  0  0  0  0  0
  147.4251  141.6682  155.2277 C   0  0  0  0  0  0  0  0  0  0  0  0
  147.2549  140.9013  156.1763 O   0  0  0  0  0  0  0  0  0  0  0  0
  146.4001  142.6197  154.8108 C   0  0  0  0  0  0  0  0  0  0  0  0
  146.1328  143.2257  153.6124 C   0  0  0  0  0  0  0  0  0  0  0  0
  144.9961  144.0694  153.7952 C   0  0  0  0  0  0  0  0  0  0  0  0
  144.5952  143.9604  155.0986 C   0  0  0  0  0  0  0  0  0  0  0  0
  145.4572  143.0752  155.7096 N   0  0  0  0  0  0  0  0  0  0  0  0
  150.5080  142.8720  156.6976 N   0  3  0  0  0  0  0  0  0  0  0  0
  151.2517  143.2756  157.8078 C   0  0  0  0  0  0  0  0  0  0  0  0
  151.3561  144.5154  158.4311 C   0  0  0  0  0  0  0  0  0  0  0  0
  152.2057  144.5893  159.5544 C   0  0  0  0  0  0  0  0  0  0  0  0
  152.9094  143.4591  160.0187 C   0  0  0  0  0  0  0  0  0  0  0  0
  152.7969  142.2077  159.3779 C   0  0  0  0  0  0  0  0  0  0  0  0
  151.9575  142.1426  158.2658 C   0  0  0  0  0  0  0  0  0  0  0  0
  145.4080  142.7964  156.6796 H   0  0  0  0  0  0  0  0  0  0  0  0
  153.5242  136.8319  160.3368 H   0  0  0  0  0  0  0  0  0  0  0  0
  152.4450  137.9884  161.1178 H   0  0  0  0  0  0  0  0  0  0  0  0
  153.8404  138.5607  160.1852 H   0  0  0  0  0  0  0  0  0  0  0  0
  150.5379  138.9206  158.7410 H   0  0  0  0  0  0  0  0  0  0  0  0
  151.7600  139.7132  159.7262 H   0  0  0  0  0  0  0  0  0  0  0  0
  153.2606  139.8302  157.6474 H   0  0  0  0  0  0  0  0  0  0  0  0
  151.9441  139.1648  156.7171 H   0  0  0  0  0  0  0  0  0  0  0  0
  149.1166  142.6729  154.3524 H   0  0  0  0  0  0  0  0  0  0  0  0
  148.5226  141.3079  153.4156 H   0  0  0  0  0  0  0  0  0  0  0  0
  146.6910  143.0820  152.6990 H   0  0  0  0  0  0  0  0  0  0  0  0
  144.5223  144.6907  153.0495 H   0  0  0  0  0  0  0  0  0  0  0  0
  143.7864  144.4241  155.6439 H   0  0  0  0  0  0  0  0  0  0  0  0
  150.8161  145.3821  158.0792 H   0  0  0  0  0  0  0  0  0  0  0  0
  152.3181  145.5312  160.0719 H   0  0  0  0  0  0  0  0  0  0  0  0
  153.5485  143.5528  160.8849 H   0  0  0  0  0  0  0  0  0  0  0  0
  153.3366  141.3477  159.7458 H   0  0  0  0  0  0  0  0  0  0  0  0
  149.8933  143.4528  156.1423 H   0  0  0  0  0  0  0  0  0  0  0  0
  1  2  1  0  0  0  0
  1 24  1  0  0  0  0
  1 25  1  0  0  0  0
  1 26  1  0  0  0  0
  2  3  1  0  0  0  0
  3  4  1  0  0  0  0
  3 27  1  0  0  0  0
  3 28  1  0  0  0  0
  4  5  1  0  0  0  0
  4 29  1  0  0  0  0
  4 30  1  0  0  0  0
  5 22  1  0  0  0  0
  5  6  1  0  0  0  0
  6  7  1  0  0  0  0
  6 16  2  0  0  0  0
  7  8  1  0  0  0  0
  8  9  1  0  0  0  0
  8 31  1  0  0  0  0
  8 32  1  0  0  0  0
  9 10  2  0  0  0  0
  9 11  1  0  0  0  0
 11 15  1  0  0  0  0
 11 12  2  0  0  0  0
 12 13  1  0  0  0  0
 12 33  1  0  0  0  0
 13 14  2  0  0  0  0
 13 34  1  0  0  0  0
 14 15  1  0  0  0  0
 14 35  1  0  0  0  0
 15 23  1  0  0  0  0
 16 17  1  0  0  0  0
 16 40  1  0  0  0  0
 17 22  2  0  0  0  0
 17 18  1  0  0  0  0
 18 19  2  0  0  0  0
 18 36  1  0  0  0  0
 19 20  1  0  0  0  0
 19 37  1  0  0  0  0
 20 21  2  0  0  0  0
 20 38  1  0  0  0  0
 21 22  1  0  0  0  0
 21 39  1  0  0  0  0
M  CHG  1  16   1
M  END
> <s_m_source_file>
AV-unprocessed.smi

> <i_m_source_file_index>
475

> <i_lp_mmshare_version>
43012

> <i_f3d_flags>
0

> <s_epik_input>
W2NIXTFbY0hdW2NIXVtjSF1jKGMxMiluKFtDSDJdW0NIMl1PW0NIM10pYyhuMilTW0NIMl1DKD1PKWMzW2NIXVtjSF1bY0hdW25IXTM=

> <s_epik_cmdline>
J2VwaWtfcHl0aG9uJywgJy1waCcsICc3LjAnLCAnLXRuJywgJzgnLCAnLW1hJywgJzIwMCcsICctbWV0YWxfYmluZGluZycsICctaW1hZScsICc8aW5maWxlLm1hZT4nLCAnLW9tYWUnLCAnPG91dGZpbGUubWFlPic=

> <r_lp_tautomer_probability>
0.9999

> <r_epik_Ionization_Penalty>
2.12955

> <r_epik_Ionization_Penalty_Charging>
2.12955

> <r_epik_Ionization_Penalty_Neutral>
1.90655e-06

> <r_epik_State_Penalty>
2.26782

> <r_epik_Charging_Adjusted_Penalty>
4.39737

> <i_epik_Tot_Q>
1

> <i_epik_Tot_abs_Q>
1

> <r_epik_Metal_State_Penalty>
2.28582

> <b_epik_Metal_Only>
0

> <s_lp_Force_Field>
OPLS_2005

> <r_lp_Energy>
16.0961

> <b_lp_Chiralities_Consistent>
1

> <s_lp_Variant>
AV-unprocessed.smi:475-2

> <Gold.Version>
5.8.1

> <Gold.Id.Protein>
6NUR|6NUR_protein|mol2

> <Gold.PLP.Fitness>
53.7470

> <Gold.PLP.PLP>
-49.5981

> <Gold.PLP.part.hbond>
-1.0000

> <Gold.PLP.part.metal>
0.0000

> <Gold.PLP.part.buried>
-5.5257

> <Gold.PLP.part.nonpolar>
-43.3305

> <Gold.PLP.part.repulsive>
0.1066

> <Gold.PLP.ligand.clash>
0.0000

> <Gold.PLP.ligand.torsion>
0.9880

> <Gold.PLP.Chemscore.Hbond>
2.0000

> <Gold.PLP.Chemscore.CHOScore>
0.0000

> <Gold.PLP.Chemscore.Metal>
0.0000

> <Gold.Chemscore.Hbonds>
donor molecule, donor type, donor heavy atom, donor atom, acceptor molecule, acceptor atom, score
      L1  H    16    40       P1  8028  2.00

> <Gold.PLP.Chemscore.Internal.Correction>
0.1249

> <Gold.Rescore>
     Score         DG    S(hbond)    S(metal)    S(lipo)     H(rot)  DE(clash)    DE(int)     intcor
     17.07     -18.13       1.00        0.00     125.66       2.10       0.07       0.98       ----

> <Gold.Chemscore.Fitness>
17.0737

> <Gold.Chemscore.DG>
-18.1310

> <Gold.Chemscore.ZeroCoef>
-5.4800

> <Gold.Chemscore.Hbond>
0.9990

> <Gold.Chemscore.Metal>
0.0000

> <Gold.Chemscore.Lipo>
125.6588

> <Gold.Chemscore.Internal_Hbond>
0.0000

> <Gold.Chemscore.DEClash>
0.0723

> <Gold.Chemscore.DEInternal>
0.9850

> <Gold.Chemscore.Rot>
2.1046

> <Gold.Chemscore.Internal.Correction>
   9.000000E+99

> <Gold.Chemscore.Hbonds>
donor molecule, donor type, donor heavy atom, donor atom, acceptor molecule, acceptor atom, score
      L1  H    16    40       P1  8028  1.00

> <Gold.Chemscore.Hbond.Weighted>
-3.3367

> <Gold.Chemscore.Metal.Weighted>
-0.0000

> <Gold.Chemscore.Lipo.Weighted>
-14.7021

> <Gold.Chemscore.Internal_Hbond.Weighted>
0.0000

> <Gold.Chemscore.DEClash.Weighted>
0.0723

> <Gold.Chemscore.DEInternal.Weighted>
0.9850

> <Gold.Chemscore.Rot.Weighted>
5.3878

> <Gold.Chemscore.Internal.Correction.Weighted>
   9.000000E+99

> <Gold.Protein.RotatedTorsions>
[ 6907 6896 6895 6894 ] final -139.01 input  -60.11 | X-H torsion
[ 7974 7965 7964 7962 ] final  -69.46 input  175.53 | X-H torsion
[ 8008 7997 7996 7995 ] final  -42.09 input   59.86 | X-H torsion
[ 10167 10162 10161 10158 ] final  154.59 input  -65.29 | X-H torsion
[ 10718 10713 10712 10709 ] final -116.15 input   66.30 | X-H torsion
[ 10763 10752 10751 10750 ] final -111.29 input  -60.55 | X-H torsion
[ 11005 11000 10999 10996 ] final   -2.31 input  -57.11 | X-H torsion

> <Gold.Protein.ActiveResidues>
 VAL166  LYS551  ARG553  GLY616  TRP617  ASP618  TYR619  PRO620  LYS621  CYS622 
 ASP623  PHE694  ASN695  SER759  ASP760  ASP761  ALA762  ILE779  LEU786  VAL792 
 PHE793  MET794  SER795  GLU796  ALA797  LYS798  CYS799  TRP800  GLU811  SER814 

> <Gold.Protein.RotatedAtoms>
  151.0423  133.5696  159.2649 H   0  0  0  0  0  0  0  0  0  0  0  0  # atno 6907 bound_to 6896
  151.2737  135.0692  159.9153 H   0  0  0  0  0  0  0  0  0  0  0  0  # atno 6908 bound_to 6896
  152.5366  134.0149  159.8009 H   0  0  0  0  0  0  0  0  0  0  0  0  # atno 6909 bound_to 6896
  145.7035  140.9107  143.0718 H   0  0  0  0  0  0  0  0  0  0  0  0  # atno 7974 bound_to 7965
  154.4000  140.1482  156.3298 H   0  0  0  0  0  0  0  0  0  0  0  0  # atno 8008 bound_to 7997
  155.8453  140.3460  155.5637 H   0  0  0  0  0  0  0  0  0  0  0  0  # atno 8009 bound_to 7997
  155.8043  140.0874  157.1930 H   0  0  0  0  0  0  0  0  0  0  0  0  # atno 8010 bound_to 7997
  139.4823  144.5173  151.7931 H   0  0  0  0  0  0  0  0  0  0  0  0  # atno 10167 bound_to 10162
  156.0944  130.6120  150.8999 H   0  0  0  0  0  0  0  0  0  0  0  0  # atno 10718 bound_to 10713
  154.8292  135.4533  154.1016 H   0  0  0  0  0  0  0  0  0  0  0  0  # atno 10763 bound_to 10752
  153.2304  135.6905  153.7903 H   0  0  0  0  0  0  0  0  0  0  0  0  # atno 10764 bound_to 10752
  153.7288  135.3330  155.3258 H   0  0  0  0  0  0  0  0  0  0  0  0  # atno 10765 bound_to 10752
  140.6569  133.9354  155.8413 H   0  0  0  0  0  0  0  0  0  0  0  0  # atno 11005 bound_to 11000
  144.6962  139.8979  143.7457 LP  0  0  0  0  0  0  0  0  0  0  0  0  # atno 17320 bound_to 7965
  146.0777  139.3764  143.0484 LP  0  0  0  0  0  0  0  0  0  0  0  0  # atno 17321 bound_to 7965
  140.4683  144.1623  150.5914 LP  0  0  0  0  0  0  0  0  0  0  0  0  # atno 17342 bound_to 10162
  140.4410  143.2526  151.9473 LP  0  0  0  0  0  0  0  0  0  0  0  0  # atno 17343 bound_to 10162
  157.6101  131.0937  150.8809 LP  0  0  0  0  0  0  0  0  0  0  0  0  # atno 17370 bound_to 10713
  156.8950  130.5226  149.5285 LP  0  0  0  0  0  0  0  0  0  0  0  0  # atno 17371 bound_to 10713
  141.0494  134.0506  157.3802 LP  0  0  0  0  0  0  0  0  0  0  0  0  # atno 17394 bound_to 11000
  139.9026  135.0170  156.7340 LP  0  0  0  0  0  0  0  0  0  0  0  0  # atno 17395 bound_to 11000

$$$$
