AV-unprocessed.smi:2774|AV-procd|sdf|10687|dock2
  -GOLD-   2272015133D 1   1.00000     0.00000
 Structure written by MMmdl.
 34 35  0  0  0  0  0  0  0  0  1 V2000
  149.4045  141.8475  154.8670 O   0  0  0  0  0  0  0  0  0  0  0  0
  150.3058  141.3793  155.8513 C   0  0  1  0  0  0  0  0  0  0  0  0
  149.6394  141.4692  157.2381 C   0  0  0  0  0  0  0  0  0  0  0  0
  149.6346  142.8386  157.7592 N   0  0  0  0  0  0  0  0  0  0  0  0
  150.8647  143.2753  158.4246 C   0  0  1  0  0  0  0  0  0  0  0  0
  150.6192  144.4938  159.3457 C   0  0  0  0  0  0  0  0  0  0  0  0
  151.9023  144.9964  160.0281 C   0  0  0  0  0  0  0  0  0  0  0  0
  152.5534  143.9316  160.9200 C   0  0  0  0  0  0  0  0  0  0  0  0
  153.0575  142.4904  159.9457 S   0  0  0  0  0  0  0  0  0  0  0  0
  151.4457  142.0901  159.2183 C   0  0  0  0  0  0  0  0  0  0  0  0
  150.8928  140.0062  155.5455 C   0  0  0  0  0  0  0  0  0  0  0  0
  152.0795  139.5528  156.1639 C   0  0  0  0  0  0  0  0  0  0  0  0
  152.5698  138.2753  155.8279 C   0  0  0  0  0  0  0  0  0  0  0  0
  151.9614  137.4558  154.9441 N   0  0  0  0  0  0  0  0  0  0  0  0
  150.8286  137.8941  154.3549 C   0  0  0  0  0  0  0  0  0  0  0  0
  150.2558  139.1543  154.6188 C   0  0  0  0  0  0  0  0  0  0  0  0
  149.1921  142.7473  155.0622 H   0  0  0  0  0  0  0  0  0  0  0  0
  151.1346  142.0884  155.8402 H   0  0  0  0  0  0  0  0  0  0  0  0
  148.6114  141.1138  157.1588 H   0  0  0  0  0  0  0  0  0  0  0  0
  150.1496  140.7900  157.9200 H   0  0  0  0  0  0  0  0  0  0  0  0
  149.4035  143.4819  157.0085 H   0  0  0  0  0  0  0  0  0  0  0  0
  151.5927  143.5569  157.6624 H   0  0  0  0  0  0  0  0  0  0  0  0
  150.2037  145.3248  158.7772 H   0  0  0  0  0  0  0  0  0  0  0  0
  149.8767  144.2418  160.1044 H   0  0  0  0  0  0  0  0  0  0  0  0
  152.6149  145.3289  159.2725 H   0  0  0  0  0  0  0  0  0  0  0  0
  151.6669  145.8733  160.6319 H   0  0  0  0  0  0  0  0  0  0  0  0
  153.4319  144.3415  161.4185 H   0  0  0  0  0  0  0  0  0  0  0  0
  151.8615  143.6116  161.6998 H   0  0  0  0  0  0  0  0  0  0  0  0
  150.7641  141.7879  160.0146 H   0  0  0  0  0  0  0  0  0  0  0  0
  151.5767  141.2253  158.5666 H   0  0  0  0  0  0  0  0  0  0  0  0
  152.6116  140.1688  156.8735 H   0  0  0  0  0  0  0  0  0  0  0  0
  153.4764  137.9025  156.2811 H   0  0  0  0  0  0  0  0  0  0  0  0
  150.3637  137.2203  153.6504 H   0  0  0  0  0  0  0  0  0  0  0  0
  149.3487  139.4583  154.1171 H   0  0  0  0  0  0  0  0  0  0  0  0
  1  2  1  0  0  0  0
  1 17  1  0  0  0  0
  2  3  1  0  0  0  0
  2 11  1  0  0  0  0
  2 18  1  0  0  0  0
  3  4  1  0  0  0  0
  3 19  1  0  0  0  0
  3 20  1  0  0  0  0
  4  5  1  0  0  0  0
  4 21  1  0  0  0  0
  5 10  1  0  0  0  0
  5  6  1  0  0  0  0
  5 22  1  0  0  0  0
  6  7  1  0  0  0  0
  6 23  1  0  0  0  0
  6 24  1  0  0  0  0
  7  8  1  0  0  0  0
  7 25  1  0  0  0  0
  7 26  1  0  0  0  0
  8  9  1  0  0  0  0
  8 27  1  0  0  0  0
  8 28  1  0  0  0  0
  9 10  1  0  0  0  0
 10 29  1  0  0  0  0
 10 30  1  0  0  0  0
 11 16  1  0  0  0  0
 11 12  2  0  0  0  0
 12 13  1  0  0  0  0
 12 31  1  0  0  0  0
 13 14  2  0  0  0  0
 13 32  1  0  0  0  0
 14 15  1  0  0  0  0
 15 16  2  0  0  0  0
 15 33  1  0  0  0  0
 16 34  1  0  0  0  0
M  END
> <s_m_source_file>
AV-unprocessed.smi

> <i_m_source_file_index>
2774

> <i_lp_mmshare_version>
43012

> <i_f3d_flags>
0

> <s_epik_input>
W2NIXTFbY0hdbltjSF1bY0hdYzFbQ0BIXShbT0hdKVtDSDJdW05IXVtDQEBIXTJbQ0gyXVtDSDJdW0NIMl1TW0NIMl0y

> <s_epik_cmdline>
J2VwaWtfcHl0aG9uJywgJy1waCcsICc3LjAnLCAnLXRuJywgJzgnLCAnLW1hJywgJzIwMCcsICctbWV0YWxfYmluZGluZycsICctaW1hZScsICc8aW5maWxlLm1hZT4nLCAnLW9tYWUnLCAnPG91dGZpbGUubWFlPic=

> <r_epik_Ionization_Penalty>
2.08116

> <r_epik_Ionization_Penalty_Charging>
0

> <r_epik_Ionization_Penalty_Neutral>
2.08116

> <r_epik_State_Penalty>
2.1944

> <r_epik_Charging_Adjusted_Penalty>
2.1944

> <i_epik_Tot_Q>
0

> <i_epik_Tot_abs_Q>
0

> <r_epik_Metal_State_Penalty>
2.1769

> <b_epik_Metal_Only>
0

> <s_lp_Force_Field>
OPLS_2005

> <r_lp_Energy>
17.4731

> <b_lp_Chiralities_Consistent>
1

> <s_lp_Variant>
AV-unprocessed.smi:2774-8

> <Gold.Version>
5.8.1

> <Gold.Id.Protein>
6NUR|6NUR_protein|mol2

> <Gold.PLP.Fitness>
49.6398

> <Gold.PLP.PLP>
-40.2683

> <Gold.PLP.part.hbond>
-4.7572

> <Gold.PLP.part.metal>
0.0000

> <Gold.PLP.part.buried>
-2.0192

> <Gold.PLP.part.nonpolar>
-32.9544

> <Gold.PLP.part.repulsive>
0.1002

> <Gold.PLP.ligand.clash>
0.0000

> <Gold.PLP.ligand.torsion>
0.9733

> <Gold.PLP.Chemscore.Hbond>
2.6763

> <Gold.PLP.Chemscore.CHOScore>
1.0702

> <Gold.PLP.Chemscore.Metal>
0.0000

> <Gold.Chemscore.Hbonds>
donor molecule, donor type, donor heavy atom, donor atom, acceptor molecule, acceptor atom, score
      L1  H     1    17       P1  8028  0.89
      L1  H     4    21       P1  8028  1.00
      P1  H 10752 10765       L1    14  0.70
      L1  C    15    33       P1  7948  0.80
      L1  C    15    33       P1  7949  0.31

> <Gold.PLP.Chemscore.Internal.Correction>
0.0787

> <Gold.Rescore>
     Score         DG    S(hbond)    S(metal)    S(lipo)     H(rot)  DE(clash)    DE(int)     intcor
     21.55     -22.10       2.49        0.00     112.48       1.89       0.07       0.49       ----

> <Gold.Chemscore.Fitness>
21.5506

> <Gold.Chemscore.DG>
-22.1024

> <Gold.Chemscore.ZeroCoef>
-5.4800

> <Gold.Chemscore.Hbond>
2.4875

> <Gold.Chemscore.Metal>
0.0000

> <Gold.Chemscore.Lipo>
112.4765

> <Gold.Chemscore.Internal_Hbond>
0.0000

> <Gold.Chemscore.DEClash>
0.0662

> <Gold.Chemscore.DEInternal>
0.4856

> <Gold.Chemscore.Rot>
1.8928

> <Gold.Chemscore.Internal.Correction>
   9.000000E+99

> <Gold.Chemscore.Hbonds>
donor molecule, donor type, donor heavy atom, donor atom, acceptor molecule, acceptor atom, score
      L1  H     1    17       P1  8028  0.86
      L1  H     4    21       P1  8028  0.91
      P1  H 10752 10765       L1    14  0.64

> <Gold.Chemscore.Hbond.Weighted>
-8.3082

> <Gold.Chemscore.Metal.Weighted>
-0.0000

> <Gold.Chemscore.Lipo.Weighted>
-13.1597

> <Gold.Chemscore.Internal_Hbond.Weighted>
0.0000

> <Gold.Chemscore.DEClash.Weighted>
0.0662

> <Gold.Chemscore.DEInternal.Weighted>
0.4856

> <Gold.Chemscore.Rot.Weighted>
4.8455

> <Gold.Chemscore.Internal.Correction.Weighted>
   9.000000E+99

> <Gold.Protein.RotatedTorsions>
[ 6907 6896 6895 6894 ] final  -73.44 input  -60.11 | X-H torsion
[ 7974 7965 7964 7962 ] final  119.62 input  175.53 | X-H torsion
[ 8008 7997 7996 7995 ] final -109.81 input   59.86 | X-H torsion
[ 10167 10162 10161 10158 ] final  -16.92 input  -65.29 | X-H torsion
[ 10718 10713 10712 10709 ] final   14.20 input   66.30 | X-H torsion
[ 10763 10752 10751 10750 ] final  171.10 input  -60.55 | X-H torsion
[ 11005 11000 10999 10996 ] final   25.55 input  -57.11 | X-H torsion

> <Gold.Protein.ActiveResidues>
 VAL166  LYS551  ARG553  GLY616  TRP617  ASP618  TYR619  PRO620  LYS621  CYS622 
 ASP623  PHE694  ASN695  SER759  ASP760  ASP761  ALA762  ILE779  LEU786  VAL792 
 PHE793  MET794  SER795  GLU796  ALA797  LYS798  CYS799  TRP800  GLU811  SER814 

> <Gold.Protein.RotatedAtoms>
  150.7130  134.5016  159.5563 H   0  0  0  0  0  0  0  0  0  0  0  0  # atno 6907 bound_to 6896
  152.2612  134.8029  160.0439 H   0  0  0  0  0  0  0  0  0  0  0  0  # atno 6908 bound_to 6896
  151.8742  133.3446  159.3781 H   0  0  0  0  0  0  0  0  0  0  0  0  # atno 6909 bound_to 6896
  145.1410  139.3268  143.4616 H   0  0  0  0  0  0  0  0  0  0  0  0  # atno 7974 bound_to 7965
  154.9650  140.0398  157.2208 H   0  0  0  0  0  0  0  0  0  0  0  0  # atno 8008 bound_to 7997
  154.7854  140.2826  155.6010 H   0  0  0  0  0  0  0  0  0  0  0  0  # atno 8009 bound_to 7997
  156.2942  140.2583  156.2689 H   0  0  0  0  0  0  0  0  0  0  0  0  # atno 8010 bound_to 7997
  140.7240  143.5068  150.9800 H   0  0  0  0  0  0  0  0  0  0  0  0  # atno 10167 bound_to 10162
  157.0357  130.6211  149.5742 H   0  0  0  0  0  0  0  0  0  0  0  0  # atno 10718 bound_to 10713
  154.4071  135.2755  155.2060 H   0  0  0  0  0  0  0  0  0  0  0  0  # atno 10763 bound_to 10752
  154.4062  135.6033  153.5929 H   0  0  0  0  0  0  0  0  0  0  0  0  # atno 10764 bound_to 10752
  152.9831  135.5938  154.4347 H   0  0  0  0  0  0  0  0  0  0  0  0  # atno 10765 bound_to 10752
  140.3466  134.2275  155.7684 H   0  0  0  0  0  0  0  0  0  0  0  0  # atno 11005 bound_to 11000
  146.3505  140.1447  142.8593 LP  0  0  0  0  0  0  0  0  0  0  0  0  # atno 17320 bound_to 7965
  145.0532  140.9033  143.4983 LP  0  0  0  0  0  0  0  0  0  0  0  0  # atno 17321 bound_to 7965
  139.8779  143.7109  152.3160 LP  0  0  0  0  0  0  0  0  0  0  0  0  # atno 17342 bound_to 10162
  139.7381  144.7566  151.0696 LP  0  0  0  0  0  0  0  0  0  0  0  0  # atno 17343 bound_to 10162
  156.0054  130.5140  150.7813 LP  0  0  0  0  0  0  0  0  0  0  0  0  # atno 17370 bound_to 10713
  157.5143  131.0927  151.0159 LP  0  0  0  0  0  0  0  0  0  0  0  0  # atno 17371 bound_to 10713
  141.2024  133.7939  157.0393 LP  0  0  0  0  0  0  0  0  0  0  0  0  # atno 17394 bound_to 11000
  140.0737  134.9687  157.1510 LP  0  0  0  0  0  0  0  0  0  0  0  0  # atno 17395 bound_to 11000

$$$$
