AV-unprocessed.smi:155|AV-procd|sdf|1275|dock8
  -GOLD-   2262018543D 1   1.00000     0.00000
 Structure written by MMmdl.
 63 66  0  0  0  0  0  0  0  0  2 V2000
  145.6680  130.5984  151.7914 C   0  0  0  0  0  0  0  0  0  0  0  0
  146.5353  131.7771  151.5666 N   0  3  0  0  0  0  0  0  0  0  0  0
  145.9377  132.7097  150.5854 C   0  0  0  0  0  0  0  0  0  0  0  0
  146.9348  132.4686  152.8186 C   0  0  0  0  0  0  0  0  0  0  0  0
  147.9736  131.6747  153.6446 C   0  0  0  0  0  0  0  0  0  0  0  0
  148.6324  132.4924  154.6664 N   0  0  0  0  0  0  0  0  0  0  0  0
  149.3059  131.6516  155.6650 C   0  0  0  0  0  0  0  0  0  0  0  0
  150.2671  132.3742  156.6346 C   0  0  0  0  0  0  0  0  0  0  0  0
  149.8430  133.7819  157.0769 C   0  0  0  0  0  0  0  0  0  0  0  0
  150.2017  134.7806  156.0743 N   0  0  0  0  0  0  0  0  0  0  0  0
  150.3754  136.0143  156.5934 C   0  0  0  0  0  0  0  0  0  0  0  0
  150.4759  136.1747  157.9391 N   0  0  0  0  0  0  0  0  0  0  0  0
  150.6550  137.3969  158.4505 C   0  0  0  0  0  0  0  0  0  0  0  0
  150.7600  138.5640  157.8097 N   0  0  0  0  0  0  0  0  0  0  0  0
  150.6613  138.3990  156.4587 C   0  0  0  0  0  0  0  0  0  0  0  0
  150.4680  137.1681  155.7735 C   0  0  0  0  0  0  0  0  0  0  0  0
  150.4162  137.3850  154.4028 N   0  0  0  0  0  0  0  0  0  0  0  0
  150.5788  138.6748  154.2825 C   0  0  0  0  0  0  0  0  0  0  0  0
  150.7444  139.3596  155.4658 N   0  0  0  0  0  0  0  0  0  0  0  0
  150.9565  140.7886  155.6233 C   0  0  0  0  0  0  0  0  0  0  0  0
  150.2293  141.4032  156.8403 C   0  0  2  0  0  0  0  0  0  0  0  0
  149.0142  142.0104  156.4465 O   0  0  0  0  0  0  0  0  0  0  0  0
  151.0726  142.3890  157.6804 C   0  0  2  0  0  0  0  0  0  0  0  0
  150.3266  143.1487  158.7766 C   0  0  0  0  0  0  0  0  0  0  0  0
  151.2375  144.3365  159.0459 C   0  0  0  0  0  0  0  0  0  0  0  0
  152.1406  144.4121  157.8085 C   0  0  0  0  0  0  0  0  0  0  0  0
  151.6395  143.4345  156.9072 O   0  0  0  0  0  0  0  0  0  0  0  0
  149.4474  134.7881  154.8263 C   0  0  0  0  0  0  0  0  0  0  0  0
  149.5429  133.4606  154.0551 C   0  0  0  0  0  0  0  0  0  0  0  0
  144.7480  130.8796  152.3059 H   0  0  0  0  0  0  0  0  0  0  0  0
  146.1769  129.8399  152.3839 H   0  0  0  0  0  0  0  0  0  0  0  0
  145.3974  130.1336  150.8426 H   0  0  0  0  0  0  0  0  0  0  0  0
  145.0145  133.1442  150.9711 H   0  0  0  0  0  0  0  0  0  0  0  0
  145.7090  132.1951  149.6515 H   0  0  0  0  0  0  0  0  0  0  0  0
  146.6272  133.5216  150.3514 H   0  0  0  0  0  0  0  0  0  0  0  0
  147.3847  133.4293  152.5632 H   0  0  0  0  0  0  0  0  0  0  0  0
  146.0434  132.7161  153.3965 H   0  0  0  0  0  0  0  0  0  0  0  0
  147.5373  130.7876  154.1056 H   0  0  0  0  0  0  0  0  0  0  0  0
  148.7206  131.3032  152.9416 H   0  0  0  0  0  0  0  0  0  0  0  0
  148.5438  131.1430  156.2545 H   0  0  0  0  0  0  0  0  0  0  0  0
  149.8761  130.8726  155.1586 H   0  0  0  0  0  0  0  0  0  0  0  0
  150.3738  131.7478  157.5207 H   0  0  0  0  0  0  0  0  0  0  0  0
  151.2665  132.4219  156.1997 H   0  0  0  0  0  0  0  0  0  0  0  0
  148.7728  133.8169  157.2858 H   0  0  0  0  0  0  0  0  0  0  0  0
  150.3524  134.0209  158.0121 H   0  0  0  0  0  0  0  0  0  0  0  0
  150.7254  137.4469  159.5269 H   0  0  0  0  0  0  0  0  0  0  0  0
  150.5900  139.1654  153.3200 H   0  0  0  0  0  0  0  0  0  0  0  0
  152.0299  140.9668  155.7000 H   0  0  0  0  0  0  0  0  0  0  0  0
  150.6316  141.2876  154.7095 H   0  0  0  0  0  0  0  0  0  0  0  0
  149.9513  140.5756  157.4938 H   0  0  0  0  0  0  0  0  0  0  0  0
  149.2016  142.8956  156.1736 H   0  0  0  0  0  0  0  0  0  0  0  0
  151.8952  141.8362  158.1390 H   0  0  0  0  0  0  0  0  0  0  0  0
  149.3627  143.5087  158.4153 H   0  0  0  0  0  0  0  0  0  0  0  0
  150.1475  142.5406  159.6637 H   0  0  0  0  0  0  0  0  0  0  0  0
  150.6614  145.2515  159.1875 H   0  0  0  0  0  0  0  0  0  0  0  0
  151.8369  144.1757  159.9427 H   0  0  0  0  0  0  0  0  0  0  0  0
  152.1360  145.3998  157.3471 H   0  0  0  0  0  0  0  0  0  0  0  0
  153.1706  144.1642  158.0692 H   0  0  0  0  0  0  0  0  0  0  0  0
  148.4043  135.0445  155.0193 H   0  0  0  0  0  0  0  0  0  0  0  0
  149.8471  135.5817  154.1928 H   0  0  0  0  0  0  0  0  0  0  0  0
  150.5650  133.0858  153.9821 H   0  0  0  0  0  0  0  0  0  0  0  0
  149.2274  133.6724  153.0331 H   0  0  0  0  0  0  0  0  0  0  0  0
  147.3867  131.4361  151.1432 H   0  0  0  0  0  0  0  0  0  0  0  0
  1  2  1  0  0  0  0
  1 30  1  0  0  0  0
  1 31  1  0  0  0  0
  1 32  1  0  0  0  0
  2  3  1  0  0  0  0
  2  4  1  0  0  0  0
  2 63  1  0  0  0  0
  3 33  1  0  0  0  0
  3 34  1  0  0  0  0
  3 35  1  0  0  0  0
  4  5  1  0  0  0  0
  4 36  1  0  0  0  0
  4 37  1  0  0  0  0
  5  6  1  0  0  0  0
  5 38  1  0  0  0  0
  5 39  1  0  0  0  0
  6 29  1  0  0  0  0
  6  7  1  0  0  0  0
  7  8  1  0  0  0  0
  7 40  1  0  0  0  0
  7 41  1  0  0  0  0
  8  9  1  0  0  0  0
  8 42  1  0  0  0  0
  8 43  1  0  0  0  0
  9 10  1  0  0  0  0
  9 44  1  0  0  0  0
  9 45  1  0  0  0  0
 10 11  1  0  0  0  0
 10 28  1  0  0  0  0
 11 16  1  0  0  0  0
 11 12  2  0  0  0  0
 12 13  1  0  0  0  0
 13 14  2  0  0  0  0
 13 46  1  0  0  0  0
 14 15  1  0  0  0  0
 15 19  1  0  0  0  0
 15 16  2  0  0  0  0
 16 17  1  0  0  0  0
 17 18  2  0  0  0  0
 18 19  1  0  0  0  0
 18 47  1  0  0  0  0
 19 20  1  0  0  0  0
 20 21  1  0  0  0  0
 20 48  1  0  0  0  0
 20 49  1  0  0  0  0
 21 22  1  0  0  0  0
 21 23  1  0  0  0  0
 21 50  1  0  0  0  0
 22 51  1  0  0  0  0
 23 27  1  0  0  0  0
 23 24  1  0  0  0  0
 23 52  1  0  0  0  0
 24 25  1  0  0  0  0
 24 53  1  0  0  0  0
 24 54  1  0  0  0  0
 25 26  1  0  0  0  0
 25 55  1  0  0  0  0
 25 56  1  0  0  0  0
 26 27  1  0  0  0  0
 26 57  1  0  0  0  0
 26 58  1  0  0  0  0
 28 29  1  0  0  0  0
 28 59  1  0  0  0  0
 28 60  1  0  0  0  0
 29 61  1  0  0  0  0
 29 62  1  0  0  0  0
M  CHG  1   2   1
M  END
> <s_m_source_file>
AV-unprocessed.smi

> <i_m_source_file_index>
155

> <i_lp_mmshare_version>
43012

> <i_f3d_flags>
0

> <s_epik_input>
W0NIM11OKFtDSDNdKVtDSDJdW0NIMl1OMVtDSDJdW0NIMl1bQ0gyXU4oW0NIMl1bQ0gyXTEpYyhuW2NIXW4yKWMoYzIzKW5bY0hdbjNbQ0gyXVtDQEhdKFtPSF0pW0NAQEhdNFtDSDJdW0NIMl1bQ0gyXU80

> <s_epik_cmdline>
J2VwaWtfcHl0aG9uJywgJy1waCcsICc3LjAnLCAnLXRuJywgJzgnLCAnLW1hJywgJzIwMCcsICctbWV0YWxfYmluZGluZycsICctaW1hZScsICc8aW5maWxlLm1hZT4nLCAnLW9tYWUnLCAnPG91dGZpbGUubWFlPic=

> <r_lp_tautomer_probability>
1

> <r_epik_Ionization_Penalty>
0.0599493

> <r_epik_Ionization_Penalty_Charging>
0.00816363

> <r_epik_Ionization_Penalty_Neutral>
0.0517857

> <r_epik_State_Penalty>
0.460607

> <r_epik_Charging_Adjusted_Penalty>
0.468771

> <i_epik_Tot_Q>
1

> <i_epik_Tot_abs_Q>
1

> <r_epik_Metal_State_Penalty>
0.45965

> <b_epik_Metal_Only>
0

> <s_lp_Force_Field>
OPLS_2005

> <r_lp_Energy>
61.9788

> <b_lp_Chiralities_Consistent>
1

> <s_lp_Variant>
AV-unprocessed.smi:155-9

> <Gold.Version>
5.8.1

> <Gold.Id.Protein>
6NUR|6NUR_protein|mol2

> <Gold.PLP.Fitness>
52.3622

> <Gold.PLP.PLP>
-45.4920

> <Gold.PLP.part.hbond>
-3.0000

> <Gold.PLP.part.metal>
0.0000

> <Gold.PLP.part.buried>
-5.3484

> <Gold.PLP.part.nonpolar>
-39.0505

> <Gold.PLP.part.repulsive>
0.4409

> <Gold.PLP.ligand.clash>
0.0000

> <Gold.PLP.ligand.torsion>
1.8085

> <Gold.PLP.Chemscore.Hbond>
2.3713

> <Gold.PLP.Chemscore.CHOScore>
1.0000

> <Gold.PLP.Chemscore.Metal>
0.0000

> <Gold.Chemscore.Hbonds>
donor molecule, donor type, donor heavy atom, donor atom, acceptor molecule, acceptor atom, score
      L1  H     2    63       P1 10747  1.00
      L1  H    22    51       P1  8028  1.00
      P1  H  6896  6907       L1    12  0.41
      L1  C    18    47       P1  7957  1.00

> <Gold.PLP.Chemscore.Internal.Correction>
0.3733

> <Gold.Rescore>
     Score         DG    S(hbond)    S(metal)    S(lipo)     H(rot)  DE(clash)    DE(int)     intcor
     14.69     -17.96       2.29        0.00     106.52       2.99       0.21       3.06       ----

> <Gold.Chemscore.Fitness>
14.6901

> <Gold.Chemscore.DG>
-17.9626

> <Gold.Chemscore.ZeroCoef>
-5.4800

> <Gold.Chemscore.Hbond>
2.2947

> <Gold.Chemscore.Metal>
0.0000

> <Gold.Chemscore.Lipo>
106.5215

> <Gold.Chemscore.Internal_Hbond>
0.0000

> <Gold.Chemscore.DEClash>
0.2098

> <Gold.Chemscore.DEInternal>
3.0628

> <Gold.Chemscore.Rot>
2.9862

> <Gold.Chemscore.Internal.Correction>
   9.000000E+99

> <Gold.Chemscore.Hbonds>
donor molecule, donor type, donor heavy atom, donor atom, acceptor molecule, acceptor atom, score
      L1  H     2    63       P1 10747  1.00
      L1  H    22    51       P1  8028  0.99
      P1  H  6896  6907       L1    12  0.21

> <Gold.Chemscore.Hbond.Weighted>
-7.6644

> <Gold.Chemscore.Metal.Weighted>
-0.0000

> <Gold.Chemscore.Lipo.Weighted>
-12.4630

> <Gold.Chemscore.Internal_Hbond.Weighted>
0.0000

> <Gold.Chemscore.DEClash.Weighted>
0.2098

> <Gold.Chemscore.DEInternal.Weighted>
3.0628

> <Gold.Chemscore.Rot.Weighted>
7.6448

> <Gold.Chemscore.Internal.Correction.Weighted>
   9.000000E+99

> <Gold.Protein.RotatedTorsions>
[ 6907 6896 6895 6894 ] final  -54.86 input  -60.11 | X-H torsion
[ 7974 7965 7964 7962 ] final   29.11 input  175.53 | X-H torsion
[ 8008 7997 7996 7995 ] final -175.48 input   59.86 | X-H torsion
[ 10167 10162 10161 10158 ] final  -92.49 input  -65.29 | X-H torsion
[ 10718 10713 10712 10709 ] final  121.33 input   66.30 | X-H torsion
[ 10763 10752 10751 10750 ] final  178.10 input  -60.55 | X-H torsion
[ 11005 11000 10999 10996 ] final  -93.34 input  -57.11 | X-H torsion

> <Gold.Protein.ActiveResidues>
 VAL166  LYS551  ARG553  GLY616  TRP617  ASP618  TYR619  PRO620  LYS621  CYS622 
 ASP623  PHE694  ASN695  SER759  ASP760  ASP761  ALA762  ILE779  LEU786  VAL792 
 PHE793  MET794  SER795  GLU796  ALA797  LYS798  CYS799  TRP800  GLU811  SER814 

> <Gold.Protein.RotatedAtoms>
  150.8301  134.7550  159.6846 H   0  0  0  0  0  0  0  0  0  0  0  0  # atno 6907 bound_to 6896
  152.4407  134.5594  159.9899 H   0  0  0  0  0  0  0  0  0  0  0  0  # atno 6908 bound_to 6896
  151.5757  133.3346  159.3034 H   0  0  0  0  0  0  0  0  0  0  0  0  # atno 6909 bound_to 6896
  146.1690  139.6965  142.8981 H   0  0  0  0  0  0  0  0  0  0  0  0  # atno 7974 bound_to 7965
  155.9831  140.1185  157.0708 H   0  0  0  0  0  0  0  0  0  0  0  0  # atno 8008 bound_to 7997
  154.4188  140.1140  156.5530 H   0  0  0  0  0  0  0  0  0  0  0  0  # atno 8009 bound_to 7997
  155.6444  140.3473  155.4728 H   0  0  0  0  0  0  0  0  0  0  0  0  # atno 8010 bound_to 7997
  140.3343  143.2977  151.9907 H   0  0  0  0  0  0  0  0  0  0  0  0  # atno 10167 bound_to 10162
  157.5825  131.1073  150.8159 H   0  0  0  0  0  0  0  0  0  0  0  0  # atno 10718 bound_to 10713
  154.5032  135.2784  155.1403 H   0  0  0  0  0  0  0  0  0  0  0  0  # atno 10763 bound_to 10752
  154.3028  135.6244  153.5436 H   0  0  0  0  0  0  0  0  0  0  0  0  # atno 10764 bound_to 10752
  152.9906  135.5701  154.5480 H   0  0  0  0  0  0  0  0  0  0  0  0  # atno 10765 bound_to 10752
  141.1499  133.7881  157.0146 H   0  0  0  0  0  0  0  0  0  0  0  0  # atno 11005 bound_to 11000
  145.4390  141.0421  143.2868 LP  0  0  0  0  0  0  0  0  0  0  0  0  # atno 17320 bound_to 7965
  144.8135  139.5919  143.7019 LP  0  0  0  0  0  0  0  0  0  0  0  0  # atno 17321 bound_to 7965
  139.4851  144.6210  151.7256 LP  0  0  0  0  0  0  0  0  0  0  0  0  # atno 17342 bound_to 10162
  140.5369  144.0642  150.6073 LP  0  0  0  0  0  0  0  0  0  0  0  0  # atno 17343 bound_to 10162
  156.8601  130.5110  149.5304 LP  0  0  0  0  0  0  0  0  0  0  0  0  # atno 17370 bound_to 10713
  156.0872  130.5867  150.9669 LP  0  0  0  0  0  0  0  0  0  0  0  0  # atno 17371 bound_to 10713
  140.0855  134.9623  157.1693 LP  0  0  0  0  0  0  0  0  0  0  0  0  # atno 17394 bound_to 11000
  140.3517  134.2591  155.7197 LP  0  0  0  0  0  0  0  0  0  0  0  0  # atno 17395 bound_to 11000

$$$$
