AV-unprocessed.smi:1727|AV-procd|sdf|6966|dock3
  -GOLD-   22720 8183D 1   1.00000     0.00000
 Structure written by MMmdl.
 50 52  0  0  0  0  0  0  0  0  2 V2000
  149.8712  140.6424  157.4853 C   0  0  0  0  0  0  0  0  0  0  0  0
  150.8662  140.2153  156.4038 C   0  0  0  0  0  0  0  0  0  0  0  0
  151.2485  141.0671  155.6017 O   0  0  0  0  0  0  0  0  0  0  0  0
  151.2880  138.9285  156.3617 N   0  0  0  0  0  0  0  0  0  0  0  0
  150.8137  137.8495  157.2371 C   0  0  0  0  0  0  0  0  0  0  0  0
  149.9481  136.8827  156.4098 C   0  0  0  0  0  0  0  0  0  0  0  0
  150.7246  136.3397  155.1876 C   0  0  0  0  0  0  0  0  0  0  0  0
  149.8382  135.5857  154.3064 N   0  0  0  0  0  0  0  0  0  0  0  0
  149.4961  134.3000  154.4691 C   0  0  0  0  0  0  0  0  0  0  0  0
  149.8947  133.5988  155.3990 O   0  0  0  0  0  0  0  0  0  0  0  0
  148.6528  133.8935  153.5057 N   0  0  0  0  0  0  0  0  0  0  0  0
  148.0410  132.6159  153.3715 C   0  0  0  0  0  0  0  0  0  0  0  0
  148.5592  131.4843  154.0520 C   0  0  0  0  0  0  0  0  0  0  0  0
  147.9829  130.2166  153.8478 C   0  0  0  0  0  0  0  0  0  0  0  0
  146.9060  130.0957  152.9531 C   0  0  0  0  0  0  0  0  0  0  0  0
  146.4435  131.1887  152.3116 N   0  3  0  0  0  0  0  0  0  0  0  0
  146.9461  132.4380  152.4767 C   0  0  0  0  0  0  0  0  0  0  0  0
  146.3504  133.4919  151.7467 N   0  0  0  0  0  0  0  0  0  0  0  0
  145.4035  133.2043  150.6753 C   0  0  0  0  0  0  0  0  0  0  0  0
  144.7157  134.5359  150.3869 C   0  0  0  0  0  0  0  0  0  0  0  0
  144.6435  135.1738  151.7711 C   0  0  0  0  0  0  0  0  0  0  0  0
  145.9249  134.6923  152.4603 C   0  0  0  0  0  0  0  0  0  0  0  0
  151.3937  137.4815  154.3925 C   0  0  0  0  0  0  0  0  0  0  0  0
  152.1867  138.4211  155.3184 C   0  0  0  0  0  0  0  0  0  0  0  0
  148.9510  140.0612  157.4169 H   0  0  0  0  0  0  0  0  0  0  0  0
  149.6089  141.6947  157.3717 H   0  0  0  0  0  0  0  0  0  0  0  0
  150.3013  140.5124  158.4787 H   0  0  0  0  0  0  0  0  0  0  0  0
  151.6738  137.3188  157.6477 H   0  0  0  0  0  0  0  0  0  0  0  0
  150.2524  138.2016  158.1013 H   0  0  0  0  0  0  0  0  0  0  0  0
  149.6116  136.0585  157.0396 H   0  0  0  0  0  0  0  0  0  0  0  0
  149.0492  137.4038  156.0765 H   0  0  0  0  0  0  0  0  0  0  0  0
  151.5166  135.6799  155.5477 H   0  0  0  0  0  0  0  0  0  0  0  0
  149.4604  136.0832  153.5133 H   0  0  0  0  0  0  0  0  0  0  0  0
  148.3315  134.6033  152.8636 H   0  0  0  0  0  0  0  0  0  0  0  0
  149.4088  131.5664  154.7134 H   0  0  0  0  0  0  0  0  0  0  0  0
  148.3709  129.3487  154.3608 H   0  0  0  0  0  0  0  0  0  0  0  0
  146.4062  129.1646  152.7284 H   0  0  0  0  0  0  0  0  0  0  0  0
  145.9080  132.8097  149.7928 H   0  0  0  0  0  0  0  0  0  0  0  0
  144.6624  132.4747  151.0047 H   0  0  0  0  0  0  0  0  0  0  0  0
  145.3380  135.1437  149.7285 H   0  0  0  0  0  0  0  0  0  0  0  0
  143.7385  134.4175  149.9177 H   0  0  0  0  0  0  0  0  0  0  0  0
  144.5635  136.2608  151.7364 H   0  0  0  0  0  0  0  0  0  0  0  0
  143.7727  134.7906  152.3047 H   0  0  0  0  0  0  0  0  0  0  0  0
  145.7569  134.5041  153.5217 H   0  0  0  0  0  0  0  0  0  0  0  0
  146.7040  135.4497  152.3683 H   0  0  0  0  0  0  0  0  0  0  0  0
  152.0536  137.0691  153.6282 H   0  0  0  0  0  0  0  0  0  0  0  0
  150.6345  138.0613  153.8649 H   0  0  0  0  0  0  0  0  0  0  0  0
  152.6468  139.2178  154.7322 H   0  0  0  0  0  0  0  0  0  0  0  0
  153.0131  137.8813  155.7832 H   0  0  0  0  0  0  0  0  0  0  0  0
  145.6609  131.0680  151.6684 H   0  0  0  0  0  0  0  0  0  0  0  0
  1  2  1  0  0  0  0
  1 25  1  0  0  0  0
  1 26  1  0  0  0  0
  1 27  1  0  0  0  0
  2  3  2  0  0  0  0
  2  4  1  0  0  0  0
  4 24  1  0  0  0  0
  4  5  1  0  0  0  0
  5  6  1  0  0  0  0
  5 28  1  0  0  0  0
  5 29  1  0  0  0  0
  6  7  1  0  0  0  0
  6 30  1  0  0  0  0
  6 31  1  0  0  0  0
  7  8  1  0  0  0  0
  7 23  1  0  0  0  0
  7 32  1  0  0  0  0
  8  9  1  0  0  0  0
  8 33  1  0  0  0  0
  9 10  2  0  0  0  0
  9 11  1  0  0  0  0
 11 12  1  0  0  0  0
 11 34  1  0  0  0  0
 12 17  1  0  0  0  0
 12 13  2  0  0  0  0
 13 14  1  0  0  0  0
 13 35  1  0  0  0  0
 14 15  2  0  0  0  0
 14 36  1  0  0  0  0
 15 16  1  0  0  0  0
 15 37  1  0  0  0  0
 16 17  2  0  0  0  0
 16 50  1  0  0  0  0
 17 18  1  0  0  0  0
 18 22  1  0  0  0  0
 18 19  1  0  0  0  0
 19 20  1  0  0  0  0
 19 38  1  0  0  0  0
 19 39  1  0  0  0  0
 20 21  1  0  0  0  0
 20 40  1  0  0  0  0
 20 41  1  0  0  0  0
 21 22  1  0  0  0  0
 21 42  1  0  0  0  0
 21 43  1  0  0  0  0
 22 44  1  0  0  0  0
 22 45  1  0  0  0  0
 23 24  1  0  0  0  0
 23 46  1  0  0  0  0
 23 47  1  0  0  0  0
 24 48  1  0  0  0  0
 24 49  1  0  0  0  0
M  CHG  1  16   1
M  END
> <s_m_source_file>
AV-unprocessed.smi

> <i_m_source_file_index>
1727

> <i_lp_mmshare_version>
43012

> <i_f3d_flags>
0

> <s_epik_input>
W0NIM11DKD1PKU4xW0NIMl1bQ0gyXVtDSF0oW0NIMl1bQ0gyXTEpW05IXUMoPU8pW05IXWMyW2NIXVtjSF1bY0hdbmMyTjNbQ0gyXVtDSDJdW0NIMl1bQ0gyXTM=

> <s_epik_cmdline>
J2VwaWtfcHl0aG9uJywgJy1waCcsICc3LjAnLCAnLXRuJywgJzgnLCAnLW1hJywgJzIwMCcsICctbWV0YWxfYmluZGluZycsICctaW1hZScsICc8aW5maWxlLm1hZT4nLCAnLW9tYWUnLCAnPG91dGZpbGUubWFlPic=

> <r_lp_tautomer_probability>
0.999994

> <r_epik_Ionization_Penalty>
1.09439

> <r_epik_Ionization_Penalty_Charging>
1.09437

> <r_epik_Ionization_Penalty_Neutral>
2.13526e-05

> <r_epik_State_Penalty>
1.15094

> <r_epik_Charging_Adjusted_Penalty>
2.24531

> <i_epik_Tot_Q>
1

> <i_epik_Tot_abs_Q>
1

> <r_epik_Metal_State_Penalty>
1.23914

> <b_epik_Metal_Only>
0

> <s_lp_Force_Field>
OPLS_2005

> <r_lp_Energy>
56.6798

> <b_lp_Chiralities_Consistent>
1

> <s_lp_Variant>
AV-unprocessed.smi:1727-2

> <Gold.Version>
5.8.1

> <Gold.Id.Protein>
6NUR|6NUR_protein|mol2

> <Gold.PLP.Fitness>
41.0166

> <Gold.PLP.PLP>
-34.8031

> <Gold.PLP.part.hbond>
-3.8877

> <Gold.PLP.part.metal>
0.0000

> <Gold.PLP.part.buried>
-1.5155

> <Gold.PLP.part.nonpolar>
-29.4406

> <Gold.PLP.part.repulsive>
0.2799

> <Gold.PLP.ligand.clash>
0.0000

> <Gold.PLP.ligand.torsion>
0.5961

> <Gold.PLP.Chemscore.Hbond>
2.3396

> <Gold.PLP.Chemscore.CHOScore>
0.0000

> <Gold.PLP.Chemscore.Metal>
0.0000

> <Gold.Chemscore.Hbonds>
donor molecule, donor type, donor heavy atom, donor atom, acceptor molecule, acceptor atom, score
      L1  H     8    33       P1  7948  1.00
      L1  H    11    34       P1  7948  0.83
      P1  H  7989  7998       L1     3  0.45

> <Gold.PLP.Chemscore.Internal.Correction>
0.3868

> <Gold.Rescore>
     Score         DG    S(hbond)    S(metal)    S(lipo)     H(rot)  DE(clash)    DE(int)     intcor
     13.68     -16.05       1.60        0.00      71.52       1.22       0.39       1.98       ----

> <Gold.Chemscore.Fitness>
13.6825

> <Gold.Chemscore.DG>
-16.0498

> <Gold.Chemscore.ZeroCoef>
-5.4800

> <Gold.Chemscore.Hbond>
1.5959

> <Gold.Chemscore.Metal>
0.0000

> <Gold.Chemscore.Lipo>
71.5242

> <Gold.Chemscore.Internal_Hbond>
0.0000

> <Gold.Chemscore.DEClash>
0.3875

> <Gold.Chemscore.DEInternal>
1.9798

> <Gold.Chemscore.Rot>
1.2222

> <Gold.Chemscore.Internal.Correction>
   9.000000E+99

> <Gold.Chemscore.Hbonds>
donor molecule, donor type, donor heavy atom, donor atom, acceptor molecule, acceptor atom, score
      L1  H     8    33       P1  7948  0.54
      L1  H    11    34       P1  7948  0.32
      P1  H  7989  7998       L1     3  0.45

> <Gold.Chemscore.Hbond.Weighted>
-5.3304

> <Gold.Chemscore.Metal.Weighted>
-0.0000

> <Gold.Chemscore.Lipo.Weighted>
-8.3683

> <Gold.Chemscore.Internal_Hbond.Weighted>
0.0000

> <Gold.Chemscore.DEClash.Weighted>
0.3875

> <Gold.Chemscore.DEInternal.Weighted>
1.9798

> <Gold.Chemscore.Rot.Weighted>
3.1289

> <Gold.Chemscore.Internal.Correction.Weighted>
   9.000000E+99

> <Gold.Protein.RotatedTorsions>
[ 6907 6896 6895 6894 ] final  149.35 input  -60.11 | X-H torsion
[ 7974 7965 7964 7962 ] final   29.08 input  175.53 | X-H torsion
[ 8008 7997 7996 7995 ] final   61.00 input   59.86 | X-H torsion
[ 10167 10162 10161 10158 ] final  128.90 input  -65.29 | X-H torsion
[ 10718 10713 10712 10709 ] final  155.09 input   66.30 | X-H torsion
[ 10763 10752 10751 10750 ] final  113.16 input  -60.55 | X-H torsion
[ 11005 11000 10999 10996 ] final  144.58 input  -57.11 | X-H torsion

> <Gold.Protein.ActiveResidues>
 VAL166  LYS551  ARG553  GLY616  TRP617  ASP618  TYR619  PRO620  LYS621  CYS622 
 ASP623  PHE694  ASN695  SER759  ASP760  ASP761  ALA762  ILE779  LEU786  VAL792 
 PHE793  MET794  SER795  GLU796  ALA797  LYS798  CYS799  TRP800  GLU811  SER814 

> <Gold.Protein.RotatedAtoms>
  152.1292  133.4398  159.4712 H   0  0  0  0  0  0  0  0  0  0  0  0  # atno 6907 bound_to 6896
  150.6877  134.2441  159.4493 H   0  0  0  0  0  0  0  0  0  0  0  0  # atno 6908 bound_to 6896
  152.0324  134.9759  160.0623 H   0  0  0  0  0  0  0  0  0  0  0  0  # atno 6909 bound_to 6896
  146.1692  139.6969  142.8979 H   0  0  0  0  0  0  0  0  0  0  0  0  # atno 7974 bound_to 7965
  155.5914  140.3493  155.4567 H   0  0  0  0  0  0  0  0  0  0  0  0  # atno 8008 bound_to 7997
  156.0298  140.1272  157.0294 H   0  0  0  0  0  0  0  0  0  0  0  0  # atno 8009 bound_to 7997
  154.4348  140.1045  156.6069 H   0  0  0  0  0  0  0  0  0  0  0  0  # atno 8010 bound_to 7997
  139.5504  144.6808  151.4342 H   0  0  0  0  0  0  0  0  0  0  0  0  # atno 10167 bound_to 10162
  157.2230  131.0722  151.1900 H   0  0  0  0  0  0  0  0  0  0  0  0  # atno 10718 bound_to 10713
  153.4884  135.3664  155.2479 H   0  0  0  0  0  0  0  0  0  0  0  0  # atno 10763 bound_to 10752
  154.8753  135.3971  154.3618 H   0  0  0  0  0  0  0  0  0  0  0  0  # atno 10764 bound_to 10752
  153.4233  135.7081  153.6345 H   0  0  0  0  0  0  0  0  0  0  0  0  # atno 10765 bound_to 10752
  140.0644  134.9187  157.1239 H   0  0  0  0  0  0  0  0  0  0  0  0  # atno 11005 bound_to 11000
  145.4386  141.0420  143.2870 LP  0  0  0  0  0  0  0  0  0  0  0  0  # atno 17320 bound_to 7965
  144.8137  139.5915  143.7018 LP  0  0  0  0  0  0  0  0  0  0  0  0  # atno 17321 bound_to 7965
  140.6765  143.8179  150.7065 LP  0  0  0  0  0  0  0  0  0  0  0  0  # atno 17342 bound_to 10162
  140.1619  143.4268  152.2061 LP  0  0  0  0  0  0  0  0  0  0  0  0  # atno 17343 bound_to 10162
  157.3556  130.7105  149.6469 LP  0  0  0  0  0  0  0  0  0  0  0  0  # atno 17370 bound_to 10713
  155.9681  130.4240  150.4588 LP  0  0  0  0  0  0  0  0  0  0  0  0  # atno 17371 bound_to 10713
  140.3722  134.2378  155.7177 LP  0  0  0  0  0  0  0  0  0  0  0  0  # atno 17394 bound_to 11000
  141.1986  133.8030  157.0573 LP  0  0  0  0  0  0  0  0  0  0  0  0  # atno 17395 bound_to 11000

$$$$
