AV-unprocessed.smi:522|AV-procd|sdf|2802|dock4
  -GOLD-   2262023273D 1   1.00000     0.00000
 Structure written by MMmdl.
 41 42  0  0  0  0  0  0  0  0  1 V2000
  153.5907  138.3769  154.4266 C   0  0  0  0  0  0  0  0  0  0  0  0
  152.9506  139.4280  155.1274 O   0  0  0  0  0  0  0  0  0  0  0  0
  151.5692  139.1822  155.3349 C   0  0  0  0  0  0  0  0  0  0  0  0
  151.2137  139.4147  156.8098 C   0  0  0  0  0  0  0  0  0  0  0  0
  151.2912  140.8216  157.1746 N   0  0  0  0  0  0  0  0  0  0  0  0
  150.6759  141.8774  156.5868 C   0  0  0  0  0  0  0  0  0  0  0  0
  149.6140  141.6867  155.1896 S   0  0  0  0  0  0  0  0  0  0  0  0
  148.0980  141.1974  156.0726 C   0  0  0  0  0  0  0  0  0  0  0  0
  146.8546  141.9641  155.5994 C   0  0  0  0  0  0  0  0  0  0  0  0
  146.6369  142.0560  154.3904 O   0  0  0  0  0  0  0  0  0  0  0  0
  146.0100  142.5793  156.6556 C   0  0  0  0  0  0  0  0  0  0  0  0
  146.1875  142.2234  158.0285 C   0  0  0  0  0  0  0  0  0  0  0  0
  146.3389  141.9504  159.1433 N   0  0  0  0  0  0  0  0  0  0  0  0
  145.0382  143.4871  156.3703 C   0  0  0  0  0  0  0  0  0  0  0  0
  144.6578  143.9940  154.9844 C   0  0  0  0  0  0  0  0  0  0  0  0
  144.2590  144.0554  157.3630 N   0  0  0  0  0  0  0  0  0  0  0  0
  150.9204  143.0676  157.1366 N   0  0  0  0  0  0  0  0  0  0  0  0
  151.7770  142.7550  158.1735 C   0  0  0  0  0  0  0  0  0  0  0  0
  152.3994  143.5852  159.1332 C   0  0  0  0  0  0  0  0  0  0  0  0
  153.2483  143.0304  160.1132 C   0  0  0  0  0  0  0  0  0  0  0  0
  153.4860  141.6411  160.1482 C   0  0  0  0  0  0  0  0  0  0  0  0
  152.8757  140.7962  159.2014 C   0  0  0  0  0  0  0  0  0  0  0  0
  152.0296  141.3554  158.2251 C   0  0  0  0  0  0  0  0  0  0  0  0
  154.6448  138.6175  154.2883 H   0  0  0  0  0  0  0  0  0  0  0  0
  153.1461  138.2316  153.4412 H   0  0  0  0  0  0  0  0  0  0  0  0
  153.5297  137.4395  154.9811 H   0  0  0  0  0  0  0  0  0  0  0  0
  150.9738  139.8429  154.7034 H   0  0  0  0  0  0  0  0  0  0  0  0
  151.3268  138.1564  155.0525 H   0  0  0  0  0  0  0  0  0  0  0  0
  150.2163  139.0330  157.0266 H   0  0  0  0  0  0  0  0  0  0  0  0
  151.8961  138.8544  157.4496 H   0  0  0  0  0  0  0  0  0  0  0  0
  147.9450  140.1251  155.9498 H   0  0  0  0  0  0  0  0  0  0  0  0
  148.2386  141.3832  157.1374 H   0  0  0  0  0  0  0  0  0  0  0  0
  144.3961  143.1626  154.3287 H   0  0  0  0  0  0  0  0  0  0  0  0
  145.4831  144.5486  154.5373 H   0  0  0  0  0  0  0  0  0  0  0  0
  143.7973  144.6638  155.0192 H   0  0  0  0  0  0  0  0  0  0  0  0
  144.3822  143.8177  158.3372 H   0  0  0  0  0  0  0  0  0  0  0  0
  143.5347  144.7291  157.1570 H   0  0  0  0  0  0  0  0  0  0  0  0
  152.2242  144.6507  159.1143 H   0  0  0  0  0  0  0  0  0  0  0  0
  153.7198  143.6740  160.8415 H   0  0  0  0  0  0  0  0  0  0  0  0
  154.1373  141.2243  160.9025 H   0  0  0  0  0  0  0  0  0  0  0  0
  153.0562  139.7317  159.2247 H   0  0  0  0  0  0  0  0  0  0  0  0
  1  2  1  0  0  0  0
  1 24  1  0  0  0  0
  1 25  1  0  0  0  0
  1 26  1  0  0  0  0
  2  3  1  0  0  0  0
  3  4  1  0  0  0  0
  3 27  1  0  0  0  0
  3 28  1  0  0  0  0
  4  5  1  0  0  0  0
  4 29  1  0  0  0  0
  4 30  1  0  0  0  0
  5 23  1  0  0  0  0
  5  6  1  0  0  0  0
  6  7  1  0  0  0  0
  6 17  2  0  0  0  0
  7  8  1  0  0  0  0
  8  9  1  0  0  0  0
  8 31  1  0  0  0  0
  8 32  1  0  0  0  0
  9 10  2  0  0  0  0
  9 11  1  0  0  0  0
 11 12  1  0  0  0  0
 11 14  2  0  0  0  0
 12 13  3  0  0  0  0
 14 15  1  0  0  0  0
 14 16  1  0  0  0  0
 15 33  1  0  0  0  0
 15 34  1  0  0  0  0
 15 35  1  0  0  0  0
 16 36  1  0  0  0  0
 16 37  1  0  0  0  0
 17 18  1  0  0  0  0
 18 23  2  0  0  0  0
 18 19  1  0  0  0  0
 19 20  2  0  0  0  0
 19 38  1  0  0  0  0
 20 21  1  0  0  0  0
 20 39  1  0  0  0  0
 21 22  2  0  0  0  0
 21 40  1  0  0  0  0
 22 23  1  0  0  0  0
 22 41  1  0  0  0  0
M  END
> <s_m_source_file>
AV-unprocessed.smi

> <i_m_source_file_index>
522

> <i_lp_mmshare_version>
43012

> <i_f3d_flags>
0

> <s_epik_input>
W2NIXTFbY0hdW2NIXVtjSF1jKGMxMiluKFtDSDJdW0NIMl1PW0NIM10pYyhuMilTW0NIMl1DKD1PKS9DKEMjTik9QygvW0NIM10pW05IMl0=

> <s_epik_cmdline>
J2VwaWtfcHl0aG9uJywgJy1waCcsICc3LjAnLCAnLXRuJywgJzgnLCAnLW1hJywgJzIwMCcsICctbWV0YWxfYmluZGluZycsICctaW1hZScsICc8aW5maWxlLm1hZT4nLCAnLW9tYWUnLCAnPG91dGZpbGUubWFlPic=

> <r_lp_tautomer_probability>
0.5

> <r_epik_Ionization_Penalty>
0.0129021

> <r_epik_Ionization_Penalty_Charging>
0

> <r_epik_Ionization_Penalty_Neutral>
0.0129021

> <r_epik_State_Penalty>
0.42069

> <r_epik_Charging_Adjusted_Penalty>
0.42069

> <i_epik_Tot_Q>
0

> <i_epik_Tot_abs_Q>
0

> <r_epik_Metal_State_Penalty>
0.41068

> <b_epik_Metal_Only>
0

> <s_lp_Force_Field>
OPLS_2005

> <r_lp_Energy>
16.5573

> <b_lp_Chiralities_Consistent>
1

> <s_lp_Variant>
AV-unprocessed.smi:522-2

> <Gold.Version>
5.8.1

> <Gold.Id.Protein>
6NUR|6NUR_protein|mol2

> <Gold.PLP.Fitness>
44.9006

> <Gold.PLP.PLP>
-41.5040

> <Gold.PLP.part.hbond>
-2.5027

> <Gold.PLP.part.metal>
0.0000

> <Gold.PLP.part.buried>
-5.9484

> <Gold.PLP.part.nonpolar>
-35.1576

> <Gold.PLP.part.repulsive>
1.1458

> <Gold.PLP.ligand.clash>
0.0000

> <Gold.PLP.ligand.torsion>
1.2297

> <Gold.PLP.Chemscore.Hbond>
1.9120

> <Gold.PLP.Chemscore.CHOScore>
0.0000

> <Gold.PLP.Chemscore.Metal>
0.0000

> <Gold.Chemscore.Hbonds>
donor molecule, donor type, donor heavy atom, donor atom, acceptor molecule, acceptor atom, score
      P1  H  6934  6946       L1    13  0.94
      P1  H  7997  8008       L1     2  1.00

> <Gold.PLP.Chemscore.Internal.Correction>
0.1200

> <Gold.Rescore>
     Score         DG    S(hbond)    S(metal)    S(lipo)     H(rot)  DE(clash)    DE(int)     intcor
     13.84     -16.79       1.49        0.00     105.18       2.33       0.33       2.61       ----

> <Gold.Chemscore.Fitness>
13.8421

> <Gold.Chemscore.DG>
-16.7898

> <Gold.Chemscore.ZeroCoef>
-5.4800

> <Gold.Chemscore.Hbond>
1.4862

> <Gold.Chemscore.Metal>
0.0000

> <Gold.Chemscore.Lipo>
105.1783

> <Gold.Chemscore.Internal_Hbond>
0.0000

> <Gold.Chemscore.DEClash>
0.3342

> <Gold.Chemscore.DEInternal>
2.6135

> <Gold.Chemscore.Rot>
2.3280

> <Gold.Chemscore.Internal.Correction>
   9.000000E+99

> <Gold.Chemscore.Hbonds>
donor molecule, donor type, donor heavy atom, donor atom, acceptor molecule, acceptor atom, score
      P1  H  6934  6946       L1    13  0.89
      P1  H  7997  8008       L1     2  0.26

> <Gold.Chemscore.Hbond.Weighted>
-4.9638

> <Gold.Chemscore.Metal.Weighted>
-0.0000

> <Gold.Chemscore.Lipo.Weighted>
-12.3059

> <Gold.Chemscore.Internal_Hbond.Weighted>
0.0000

> <Gold.Chemscore.DEClash.Weighted>
0.3342

> <Gold.Chemscore.DEInternal.Weighted>
2.6135

> <Gold.Chemscore.Rot.Weighted>
5.9598

> <Gold.Chemscore.Internal.Correction.Weighted>
   9.000000E+99

> <Gold.Protein.RotatedTorsions>
[ 6907 6896 6895 6894 ] final   45.59 input  -60.11 | X-H torsion
[ 7974 7965 7964 7962 ] final  173.67 input  175.53 | X-H torsion
[ 8008 7997 7996 7995 ] final  -21.64 input   59.86 | X-H torsion
[ 10167 10162 10161 10158 ] final  141.57 input  -65.29 | X-H torsion
[ 10718 10713 10712 10709 ] final -143.89 input   66.30 | X-H torsion
[ 10763 10752 10751 10750 ] final  -89.27 input  -60.55 | X-H torsion
[ 11005 11000 10999 10996 ] final   46.03 input  -57.11 | X-H torsion

> <Gold.Protein.ActiveResidues>
 VAL166  LYS551  ARG553  GLY616  TRP617  ASP618  TYR619  PRO620  LYS621  CYS622 
 ASP623  PHE694  ASN695  SER759  ASP760  ASP761  ALA762  ILE779  LEU786  VAL792 
 PHE793  MET794  SER795  GLU796  ALA797  LYS798  CYS799  TRP800  GLU811  SER814 

> <Gold.Protein.RotatedAtoms>
  152.2464  134.8177  160.0452 H   0  0  0  0  0  0  0  0  0  0  0  0  # atno 6907 bound_to 6896
  151.8873  133.3503  159.3794 H   0  0  0  0  0  0  0  0  0  0  0  0  # atno 6908 bound_to 6896
  150.7070  134.4885  159.5548 H   0  0  0  0  0  0  0  0  0  0  0  0  # atno 6909 bound_to 6896
  144.7238  139.9682  143.6436 H   0  0  0  0  0  0  0  0  0  0  0  0  # atno 7974 bound_to 7965
  154.4693  140.2029  156.0037 H   0  0  0  0  0  0  0  0  0  0  0  0  # atno 8008 bound_to 7997
  156.0982  140.3248  155.7877 H   0  0  0  0  0  0  0  0  0  0  0  0  # atno 8009 bound_to 7997
  155.4842  140.0541  157.2953 H   0  0  0  0  0  0  0  0  0  0  0  0  # atno 8010 bound_to 7997
  139.5017  144.6163  151.6156 H   0  0  0  0  0  0  0  0  0  0  0  0  # atno 10167 bound_to 10162
  156.3634  130.7750  151.1921 H   0  0  0  0  0  0  0  0  0  0  0  0  # atno 10718 bound_to 10713
  154.6534  135.5347  153.7930 H   0  0  0  0  0  0  0  0  0  0  0  0  # atno 10763 bound_to 10752
  153.0399  135.6488  154.0982 H   0  0  0  0  0  0  0  0  0  0  0  0  # atno 10764 bound_to 10752
  154.0897  135.2941  155.3254 H   0  0  0  0  0  0  0  0  0  0  0  0  # atno 10765 bound_to 10752
  140.1405  134.4589  155.8453 H   0  0  0  0  0  0  0  0  0  0  0  0  # atno 11005 bound_to 11000
  146.0584  139.3579  143.0597 LP  0  0  0  0  0  0  0  0  0  0  0  0  # atno 17320 bound_to 7965
  145.8125  140.9719  143.0941 LP  0  0  0  0  0  0  0  0  0  0  0  0  # atno 17321 bound_to 7965
  140.5852  143.9877  150.6291 LP  0  0  0  0  0  0  0  0  0  0  0  0  # atno 17342 bound_to 10162
  140.3039  143.3242  152.0945 LP  0  0  0  0  0  0  0  0  0  0  0  0  # atno 17343 bound_to 10162
  157.7476  131.0393  150.4545 LP  0  0  0  0  0  0  0  0  0  0  0  0  # atno 17370 bound_to 10713
  156.4760  130.4063  149.6490 LP  0  0  0  0  0  0  0  0  0  0  0  0  # atno 17371 bound_to 10713
  141.2185  133.6831  156.7238 LP  0  0  0  0  0  0  0  0  0  0  0  0  # atno 17394 bound_to 11000
  140.2728  134.8379  157.3862 LP  0  0  0  0  0  0  0  0  0  0  0  0  # atno 17395 bound_to 11000

$$$$
