AV-unprocessed.smi:1295|AV-procd|sdf|5410|dock2
  -GOLD-   22720 4563D 1   1.00000     0.00000
 Structure written by MMmdl.
 42 43  0  0  0  0  0  0  0  0  2 V2000
  150.4198  135.2515  154.9738 C   0  0  0  0  0  0  0  0  0  0  0  0
  150.3506  136.5873  155.6824 C   0  0  0  0  0  0  0  0  0  0  0  0
  149.8158  136.6524  156.8418 N   0  0  0  0  0  0  0  0  0  0  0  0
  149.7532  137.8891  157.5058 C   0  0  0  0  0  0  0  0  0  0  0  0
  149.1101  137.8705  158.8821 C   0  0  0  0  0  0  0  0  0  0  0  0
  150.2493  139.0236  156.9335 C   0  0  0  0  0  0  0  0  0  0  0  0
  150.2147  140.3882  157.6211 C   0  0  0  0  0  0  0  0  0  0  0  0
  151.5772  141.0308  157.8890 C   0  0  0  0  0  0  0  0  0  0  0  0
  152.6109  140.4762  157.5163 O   0  0  0  0  0  0  0  0  0  0  0  0
  151.5570  142.2075  158.5340 N   0  0  0  0  0  0  0  0  0  0  0  0
  152.7169  143.0404  158.8562 C   0  0  1  0  0  0  0  0  0  0  0  0
  152.5879  144.4021  158.1445 C   0  0  0  0  0  0  0  0  0  0  0  0
  151.4625  145.2655  158.7415 C   0  0  0  0  0  0  0  0  0  0  0  0
  151.6477  145.4507  160.2550 C   0  0  0  0  0  0  0  0  0  0  0  0
  151.7585  144.0973  160.9755 C   0  0  0  0  0  0  0  0  0  0  0  0
  152.8898  143.2297  160.3853 C   0  0  1  0  0  0  0  0  0  0  0  0
  153.0401  141.9015  161.1464 C   0  0  0  0  0  0  0  0  0  0  0  0
  150.8501  138.9070  155.5924 C   0  0  0  0  0  0  0  0  0  0  0  0
  151.2992  139.9013  155.0236 O   0  0  0  0  0  0  0  0  0  0  0  0
  150.8829  137.6700  155.0194 N   0  5  0  0  0  0  0  0  0  0  0  0
  149.8186  134.5017  155.4898 H   0  0  0  0  0  0  0  0  0  0  0  0
  151.4508  134.8991  154.9371 H   0  0  0  0  0  0  0  0  0  0  0  0
  150.0479  135.3422  153.9527 H   0  0  0  0  0  0  0  0  0  0  0  0
  149.8325  138.1590  159.6458 H   0  0  0  0  0  0  0  0  0  0  0  0
  148.7392  136.8755  159.1307 H   0  0  0  0  0  0  0  0  0  0  0  0
  148.2662  138.5591  158.9226 H   0  0  0  0  0  0  0  0  0  0  0  0
  149.6205  141.0605  157.0012 H   0  0  0  0  0  0  0  0  0  0  0  0
  149.6731  140.3368  158.5658 H   0  0  0  0  0  0  0  0  0  0  0  0
  150.6556  142.5723  158.8053 H   0  0  0  0  0  0  0  0  0  0  0  0
  153.6186  142.5615  158.4706 H   0  0  0  0  0  0  0  0  0  0  0  0
  153.5325  144.9408  158.2302 H   0  0  0  0  0  0  0  0  0  0  0  0
  152.4204  144.2552  157.0766 H   0  0  0  0  0  0  0  0  0  0  0  0
  151.4404  146.2378  158.2488 H   0  0  0  0  0  0  0  0  0  0  0  0
  150.4952  144.8013  158.5450 H   0  0  0  0  0  0  0  0  0  0  0  0
  152.5462  146.0395  160.4435 H   0  0  0  0  0  0  0  0  0  0  0  0
  150.8138  146.0218  160.6641 H   0  0  0  0  0  0  0  0  0  0  0  0
  151.9365  144.2670  162.0378 H   0  0  0  0  0  0  0  0  0  0  0  0
  150.8077  143.5671  160.9059 H   0  0  0  0  0  0  0  0  0  0  0  0
  153.8223  143.7769  160.5321 H   0  0  0  0  0  0  0  0  0  0  0  0
  152.1265  141.3079  161.1081 H   0  0  0  0  0  0  0  0  0  0  0  0
  153.2719  142.0772  162.1971 H   0  0  0  0  0  0  0  0  0  0  0  0
  153.8468  141.2995  160.7275 H   0  0  0  0  0  0  0  0  0  0  0  0
  1  2  1  0  0  0  0
  1 21  1  0  0  0  0
  1 22  1  0  0  0  0
  1 23  1  0  0  0  0
  2 20  1  0  0  0  0
  2  3  2  0  0  0  0
  3  4  1  0  0  0  0
  4  5  1  0  0  0  0
  4  6  2  0  0  0  0
  5 24  1  0  0  0  0
  5 25  1  0  0  0  0
  5 26  1  0  0  0  0
  6  7  1  0  0  0  0
  6 18  1  0  0  0  0
  7  8  1  0  0  0  0
  7 27  1  0  0  0  0
  7 28  1  0  0  0  0
  8  9  2  0  0  0  0
  8 10  1  0  0  0  0
 10 11  1  0  0  0  0
 10 29  1  0  0  0  0
 11 16  1  0  0  0  0
 11 12  1  0  0  0  0
 11 30  1  0  0  0  0
 12 13  1  0  0  0  0
 12 31  1  0  0  0  0
 12 32  1  0  0  0  0
 13 14  1  0  0  0  0
 13 33  1  0  0  0  0
 13 34  1  0  0  0  0
 14 15  1  0  0  0  0
 14 35  1  0  0  0  0
 14 36  1  0  0  0  0
 15 16  1  0  0  0  0
 15 37  1  0  0  0  0
 15 38  1  0  0  0  0
 16 17  1  0  0  0  0
 16 39  1  0  0  0  0
 17 40  1  0  0  0  0
 17 41  1  0  0  0  0
 17 42  1  0  0  0  0
 18 19  2  0  0  0  0
 18 20  1  0  0  0  0
M  CHG  1  20  -1
M  END
> <s_m_source_file>
AV-unprocessed.smi

> <i_m_source_file_index>
1295

> <i_lp_mmshare_version>
43012

> <i_f3d_flags>
0

> <s_epik_input>
W0NIM11jMW5jKFtDSDNdKWMoYyg9TylbbkhdMSlbQ0gyXUMoPU8pW05IXVtDQEBIXTJbQ0gyXVtDSDJdW0NIMl1bQ0gyXVtDQEhdMltDSDNd

> <s_epik_cmdline>
J2VwaWtfcHl0aG9uJywgJy1waCcsICc3LjAnLCAnLXRuJywgJzgnLCAnLW1hJywgJzIwMCcsICctbWV0YWxfYmluZGluZycsICctaW1hZScsICc8aW5maWxlLm1hZT4nLCAnLW9tYWUnLCAnPG91dGZpbGUubWFlPic=

> <r_lp_tautomer_probability>
0.839158

> <r_epik_Ionization_Penalty>
6.67742

> <r_epik_Ionization_Penalty_Charging>
7.78154e-08

> <r_epik_Ionization_Penalty_Neutral>
6.67742

> <r_epik_State_Penalty>
4.51991

> <r_epik_Charging_Adjusted_Penalty>
4.51991

> <i_epik_Tot_Q>
-1

> <i_epik_Tot_abs_Q>
1

> <r_epik_Metal_State_Penalty>
0.853272

> <b_epik_Metal_Only>
1

> <s_lp_Force_Field>
OPLS_2005

> <r_lp_Energy>
15.7399

> <b_lp_Chiralities_Consistent>
1

> <s_lp_Variant>
AV-unprocessed.smi:1295-10

> <Gold.Version>
5.8.1

> <Gold.Id.Protein>
6NUR|6NUR_protein|mol2

> <Gold.PLP.Fitness>
46.1123

> <Gold.PLP.PLP>
-40.5335

> <Gold.PLP.part.hbond>
-2.0000

> <Gold.PLP.part.metal>
0.0000

> <Gold.PLP.part.buried>
-4.0363

> <Gold.PLP.part.nonpolar>
-34.6054

> <Gold.PLP.part.repulsive>
0.2558

> <Gold.PLP.ligand.clash>
0.0000

> <Gold.PLP.ligand.torsion>
0.0105

> <Gold.PLP.Chemscore.Hbond>
1.8640

> <Gold.PLP.Chemscore.CHOScore>
0.0000

> <Gold.PLP.Chemscore.Metal>
0.0000

> <Gold.Chemscore.Hbonds>
donor molecule, donor type, donor heavy atom, donor atom, acceptor molecule, acceptor atom, score
      P1  H  7989  7998       L1    19  1.00
      P1  H  7997  8009       L1     9  0.86

> <Gold.PLP.Chemscore.Internal.Correction>
0.0078

> <Gold.Rescore>
     Score         DG    S(hbond)    S(metal)    S(lipo)     H(rot)  DE(clash)    DE(int)     intcor
     20.28     -20.42       1.88        0.00     105.70       1.45       0.03       0.12       ----

> <Gold.Chemscore.Fitness>
20.2750

> <Gold.Chemscore.DG>
-20.4220

> <Gold.Chemscore.ZeroCoef>
-5.4800

> <Gold.Chemscore.Hbond>
1.8784

> <Gold.Chemscore.Metal>
0.0000

> <Gold.Chemscore.Lipo>
105.7046

> <Gold.Chemscore.Internal_Hbond>
0.0000

> <Gold.Chemscore.DEClash>
0.0270

> <Gold.Chemscore.DEInternal>
0.1199

> <Gold.Chemscore.Rot>
1.4450

> <Gold.Chemscore.Internal.Correction>
   9.000000E+99

> <Gold.Chemscore.Hbonds>
donor molecule, donor type, donor heavy atom, donor atom, acceptor molecule, acceptor atom, score
      P1  H  7989  7998       L1    19  1.00
      P1  H  7997  8009       L1     9  0.82

> <Gold.Chemscore.Hbond.Weighted>
-6.2737

> <Gold.Chemscore.Metal.Weighted>
-0.0000

> <Gold.Chemscore.Lipo.Weighted>
-12.3674

> <Gold.Chemscore.Internal_Hbond.Weighted>
0.0000

> <Gold.Chemscore.DEClash.Weighted>
0.0270

> <Gold.Chemscore.DEInternal.Weighted>
0.1199

> <Gold.Chemscore.Rot.Weighted>
3.6992

> <Gold.Chemscore.Internal.Correction.Weighted>
   9.000000E+99

> <Gold.Protein.RotatedTorsions>
[ 6907 6896 6895 6894 ] final   91.44 input  -60.11 | X-H torsion
[ 7974 7965 7964 7962 ] final   -7.42 input  175.53 | X-H torsion
[ 8008 7997 7996 7995 ] final  179.81 input   59.86 | X-H torsion
[ 10167 10162 10161 10158 ] final  -45.84 input  -65.29 | X-H torsion
[ 10718 10713 10712 10709 ] final   13.94 input   66.30 | X-H torsion
[ 10763 10752 10751 10750 ] final  -12.83 input  -60.55 | X-H torsion
[ 11005 11000 10999 10996 ] final -133.32 input  -57.11 | X-H torsion

> <Gold.Protein.ActiveResidues>
 VAL166  LYS551  ARG553  GLY616  TRP617  ASP618  TYR619  PRO620  LYS621  CYS622 
 ASP623  PHE694  ASN695  SER759  ASP760  ASP761  ALA762  ILE779  LEU786  VAL792 
 PHE793  MET794  SER795  GLU796  ALA797  LYS798  CYS799  TRP800  GLU811  SER814 

> <Gold.Protein.RotatedAtoms>
  152.5450  134.1657  159.8575 H   0  0  0  0  0  0  0  0  0  0  0  0  # atno 6907 bound_to 6896
  151.1671  133.4801  159.2601 H   0  0  0  0  0  0  0  0  0  0  0  0  # atno 6908 bound_to 6896
  151.1313  135.0143  159.8639 H   0  0  0  0  0  0  0  0  0  0  0  0  # atno 6909 bound_to 6896
  146.2307  140.2317  142.8340 H   0  0  0  0  0  0  0  0  0  0  0  0  # atno 7974 bound_to 7965
  156.0391  140.1299  157.0175 H   0  0  0  0  0  0  0  0  0  0  0  0  # atno 8008 bound_to 7997
  154.4383  140.1034  156.6282 H   0  0  0  0  0  0  0  0  0  0  0  0  # atno 8009 bound_to 7997
  155.5693  140.3466  155.4513 H   0  0  0  0  0  0  0  0  0  0  0  0  # atno 8010 bound_to 7997
  140.6842  143.2859  151.3697 H   0  0  0  0  0  0  0  0  0  0  0  0  # atno 10167 bound_to 10162
  157.0320  130.6196  149.5737 H   0  0  0  0  0  0  0  0  0  0  0  0  # atno 10718 bound_to 10713
  153.5042  135.7017  153.5815 H   0  0  0  0  0  0  0  0  0  0  0  0  # atno 10763 bound_to 10752
  153.3933  135.3890  155.1938 H   0  0  0  0  0  0  0  0  0  0  0  0  # atno 10764 bound_to 10752
  154.8708  135.3863  154.4516 H   0  0  0  0  0  0  0  0  0  0  0  0  # atno 10765 bound_to 10752
  140.9091  134.1591  157.4403 H   0  0  0  0  0  0  0  0  0  0  0  0  # atno 11005 bound_to 11000
  144.9553  140.8220  143.5547 LP  0  0  0  0  0  0  0  0  0  0  0  0  # atno 17320 bound_to 7965
  145.2282  139.2127  143.5057 LP  0  0  0  0  0  0  0  0  0  0  0  0  # atno 17321 bound_to 7965
  139.6187  144.0951  152.2370 LP  0  0  0  0  0  0  0  0  0  0  0  0  # atno 17342 bound_to 10162
  140.0389  144.6023  150.7427 LP  0  0  0  0  0  0  0  0  0  0  0  0  # atno 17343 bound_to 10162
  156.0066  130.5154  150.7851 LP  0  0  0  0  0  0  0  0  0  0  0  0  # atno 17370 bound_to 10713
  157.5170  131.0929  151.0126 LP  0  0  0  0  0  0  0  0  0  0  0  0  # atno 17371 bound_to 10713
  139.8754  134.9929  156.5617 LP  0  0  0  0  0  0  0  0  0  0  0  0  # atno 17394 bound_to 11000
  140.8133  133.8412  155.8829 LP  0  0  0  0  0  0  0  0  0  0  0  0  # atno 17395 bound_to 11000

$$$$
