AV-unprocessed.smi:196|AV-procd|sdf|1532|dock6
  -GOLD-   2262019383D 1   1.00000     0.00000
 Structure written by MMmdl.
 47 50  0  0  0  0  0  0  0  0  1 V2000
  147.9288  139.5714  154.0075 C   0  0  0  0  0  0  0  0  0  0  0  0
  147.9115  138.2204  154.7393 C   0  0  2  0  0  0  0  0  0  0  0  0
  147.3175  138.4175  156.0188 O   0  0  0  0  0  0  0  0  0  0  0  0
  147.8247  137.4363  156.9045 C   0  0  0  0  0  0  0  0  0  0  0  0
  149.3004  137.4032  156.5372 C   0  0  0  0  0  0  0  0  0  0  0  0
  149.2874  137.5491  155.0160 C   0  0  1  0  0  0  0  0  0  0  0  0
  149.2515  136.2477  154.4554 O   0  0  0  0  0  0  0  0  0  0  0  0
  150.5357  138.2821  154.4571 C   0  0  0  0  0  0  0  0  0  0  0  0
  151.2079  139.1157  155.4425 N   0  0  0  0  0  0  0  0  0  0  0  0
  152.5063  138.9879  155.8842 C   0  0  0  0  0  0  0  0  0  0  0  0
  152.8808  139.8636  156.7767 N   0  0  0  0  0  0  0  0  0  0  0  0
  151.7520  140.6490  156.9704 C   0  0  0  0  0  0  0  0  0  0  0  0
  151.4583  141.7698  157.7899 C   0  0  0  0  0  0  0  0  0  0  0  0
  152.3807  142.3187  158.6144 N   0  0  0  0  0  0  0  0  0  0  0  0
  153.1776  141.3595  159.3764 C   0  0  0  0  0  0  0  0  0  0  0  0
  152.8597  141.6298  160.8430 C   0  0  1  0  0  0  0  0  0  0  0  0
  153.8511  141.2736  161.6593 F   0  0  0  0  0  0  0  0  0  0  0  0
  152.6062  143.1298  160.8476 C   0  0  0  0  0  0  0  0  0  0  0  0
  151.8663  143.3601  159.5189 C   0  0  1  0  0  0  0  0  0  0  0  0
  152.0574  144.7978  159.0028 C   0  0  0  0  0  0  0  0  0  0  0  0
  152.6261  144.9857  157.8078 N   0  0  0  0  0  0  0  0  0  0  0  0
  151.6795  145.7445  159.6893 O   0  0  0  0  0  0  0  0  0  0  0  0
  150.2049  142.2929  157.7281 N   0  0  0  0  0  0  0  0  0  0  0  0
  149.2973  141.7542  156.9082 C   0  0  0  0  0  0  0  0  0  0  0  0
  149.4315  140.7145  156.0816 N   0  0  0  0  0  0  0  0  0  0  0  0
  150.6881  140.1878  156.1465 C   0  0  0  0  0  0  0  0  0  0  0  0
  151.9621  141.0899  161.1479 H   0  0  0  0  0  0  0  0  0  0  0  0
  150.7981  143.2145  159.6927 H   0  0  0  0  0  0  0  0  0  0  0  0
  148.3635  139.4790  153.0121 H   0  0  0  0  0  0  0  0  0  0  0  0
  148.4942  140.3218  154.5605 H   0  0  0  0  0  0  0  0  0  0  0  0
  146.9152  139.9536  153.8856 H   0  0  0  0  0  0  0  0  0  0  0  0
  147.2634  137.5389  154.1847 H   0  0  0  0  0  0  0  0  0  0  0  0
  147.6542  137.7070  157.9466 H   0  0  0  0  0  0  0  0  0  0  0  0
  147.3463  136.4751  156.7099 H   0  0  0  0  0  0  0  0  0  0  0  0
  149.7882  138.2658  156.9927 H   0  0  0  0  0  0  0  0  0  0  0  0
  149.8114  136.5076  156.8932 H   0  0  0  0  0  0  0  0  0  0  0  0
  148.9683  136.3150  153.5562 H   0  0  0  0  0  0  0  0  0  0  0  0
  151.2587  137.5639  154.0681 H   0  0  0  0  0  0  0  0  0  0  0  0
  150.2576  138.9243  153.6210 H   0  0  0  0  0  0  0  0  0  0  0  0
  153.1740  138.2213  155.5181 H   0  0  0  0  0  0  0  0  0  0  0  0
  152.9960  140.3167  159.1096 H   0  0  0  0  0  0  0  0  0  0  0  0
  154.2288  141.5657  159.1712 H   0  0  0  0  0  0  0  0  0  0  0  0
  152.0279  143.4525  161.7140 H   0  0  0  0  0  0  0  0  0  0  0  0
  153.5588  143.6632  160.8620 H   0  0  0  0  0  0  0  0  0  0  0  0
  152.7604  145.9231  157.4563 H   0  0  0  0  0  0  0  0  0  0  0  0
  152.9215  144.1896  157.2616 H   0  0  0  0  0  0  0  0  0  0  0  0
  148.3248  142.2242  156.9143 H   0  0  0  0  0  0  0  0  0  0  0  0
  1  2  1  0  0  0  0
  1 29  1  0  0  0  0
  1 30  1  0  0  0  0
  1 31  1  0  0  0  0
  2  6  1  0  0  0  0
  2  3  1  0  0  0  0
  2 32  1  0  0  0  0
  3  4  1  0  0  0  0
  4  5  1  0  0  0  0
  4 33  1  0  0  0  0
  4 34  1  0  0  0  0
  5  6  1  0  0  0  0
  5 35  1  0  0  0  0
  5 36  1  0  0  0  0
  6  7  1  0  0  0  0
  6  8  1  0  0  0  0
  7 37  1  0  0  0  0
  8  9  1  0  0  0  0
  8 38  1  0  0  0  0
  8 39  1  0  0  0  0
  9 26  1  0  0  0  0
  9 10  1  0  0  0  0
 10 11  2  0  0  0  0
 10 40  1  0  0  0  0
 11 12  1  0  0  0  0
 12 26  2  0  0  0  0
 12 13  1  0  0  0  0
 13 14  1  0  0  0  0
 13 23  2  0  0  0  0
 14 19  1  0  0  0  0
 14 15  1  0  0  0  0
 15 16  1  0  0  0  0
 15 41  1  0  0  0  0
 15 42  1  0  0  0  0
 16 27  1  0  0  0  0
 16 17  1  0  0  0  0
 16 18  1  0  0  0  0
 18 19  1  0  0  0  0
 18 43  1  0  0  0  0
 18 44  1  0  0  0  0
 19 28  1  0  0  0  0
 19 20  1  0  0  0  0
 20 21  1  0  0  0  0
 20 22  2  0  0  0  0
 21 45  1  0  0  0  0
 21 46  1  0  0  0  0
 23 24  1  0  0  0  0
 24 25  2  0  0  0  0
 24 47  1  0  0  0  0
 25 26  1  0  0  0  0
M  END
> <s_m_source_file>
AV-unprocessed.smi

> <i_m_source_file_index>
196

> <i_lp_mmshare_version>
43012

> <i_f3d_flags>
0

> <s_epik_input>
W0NIMl0xW0NIMl1PW0NAQEhdKFtDSDNdKVtDQEBdMShbT0hdKVtDSDJdbihbY0hdbjIpYyhjMjMpbltjSF1uYzNONFtDSDJdW0NASF0oRilbQ0gyXVtDQEhdNEMoPU8pW05IMl0=

> <s_epik_cmdline>
J2VwaWtfcHl0aG9uJywgJy1waCcsICc3LjAnLCAnLXRuJywgJzgnLCAnLW1hJywgJzIwMCcsICctbWV0YWxfYmluZGluZycsICctaW1hZScsICc8aW5maWxlLm1hZT4nLCAnLW9tYWUnLCAnPG91dGZpbGUubWFlPic=

> <r_lp_tautomer_probability>
1

> <r_epik_Ionization_Penalty>
0.000857933

> <r_epik_Ionization_Penalty_Charging>
0

> <r_epik_Ionization_Penalty_Neutral>
0.000857933

> <r_epik_State_Penalty>
0.000462053

> <r_epik_Charging_Adjusted_Penalty>
0.000462053

> <i_epik_Tot_Q>
0

> <i_epik_Tot_abs_Q>
0

> <r_epik_Metal_State_Penalty>
-0

> <b_epik_Metal_Only>
0

> <s_lp_Force_Field>
OPLS_2005

> <r_lp_Energy>
45.3025

> <b_lp_Chiralities_Consistent>
1

> <s_lp_Variant>
AV-unprocessed.smi:196-5

> <Gold.Version>
5.8.1

> <Gold.Id.Protein>
6NUR|6NUR_protein|mol2

> <Gold.PLP.Fitness>
46.5701

> <Gold.PLP.PLP>
-41.0119

> <Gold.PLP.part.hbond>
-3.0000

> <Gold.PLP.part.metal>
0.0000

> <Gold.PLP.part.buried>
-0.3717

> <Gold.PLP.part.nonpolar>
-37.0481

> <Gold.PLP.part.repulsive>
0.4072

> <Gold.PLP.ligand.clash>
0.0000

> <Gold.PLP.ligand.torsion>
1.0627

> <Gold.PLP.Chemscore.Hbond>
2.0000

> <Gold.PLP.Chemscore.CHOScore>
0.5343

> <Gold.PLP.Chemscore.Metal>
0.0000

> <Gold.Chemscore.Hbonds>
donor molecule, donor type, donor heavy atom, donor atom, acceptor molecule, acceptor atom, score
      L1  H     7    37       P1  7948  1.00
      P1  H  7997  8009       L1    11  1.00
      L1  C    24    47       P1  8028  0.10

> <Gold.PLP.Chemscore.Internal.Correction>
0.0806

> <Gold.Rescore>
     Score         DG    S(hbond)    S(metal)    S(lipo)     H(rot)  DE(clash)    DE(int)     intcor
      7.13     -12.08       1.92        0.00      68.24       3.04       0.96       3.98       ----

> <Gold.Chemscore.Fitness>
7.1321

> <Gold.Chemscore.DG>
-12.0759

> <Gold.Chemscore.ZeroCoef>
-5.4800

> <Gold.Chemscore.Hbond>
1.9155

> <Gold.Chemscore.Metal>
0.0000

> <Gold.Chemscore.Lipo>
68.2370

> <Gold.Chemscore.Internal_Hbond>
0.0000

> <Gold.Chemscore.DEClash>
0.9614

> <Gold.Chemscore.DEInternal>
3.9824

> <Gold.Chemscore.Rot>
3.0413

> <Gold.Chemscore.Internal.Correction>
   9.000000E+99

> <Gold.Chemscore.Hbonds>
donor molecule, donor type, donor heavy atom, donor atom, acceptor molecule, acceptor atom, score
      L1  H     7    37       P1  7948  0.99
      P1  H  7997  8009       L1    11  0.76

> <Gold.Chemscore.Hbond.Weighted>
-6.3978

> <Gold.Chemscore.Metal.Weighted>
-0.0000

> <Gold.Chemscore.Lipo.Weighted>
-7.9837

> <Gold.Chemscore.Internal_Hbond.Weighted>
0.0000

> <Gold.Chemscore.DEClash.Weighted>
0.9614

> <Gold.Chemscore.DEInternal.Weighted>
3.9824

> <Gold.Chemscore.Rot.Weighted>
7.7856

> <Gold.Chemscore.Internal.Correction.Weighted>
   9.000000E+99

> <Gold.Protein.RotatedTorsions>
[ 6907 6896 6895 6894 ] final  105.97 input  -60.11 | X-H torsion
[ 7974 7965 7964 7962 ] final  -56.60 input  175.53 | X-H torsion
[ 8008 7997 7996 7995 ] final  171.13 input   59.86 | X-H torsion
[ 10167 10162 10161 10158 ] final -111.89 input  -65.29 | X-H torsion
[ 10718 10713 10712 10709 ] final -179.80 input   66.30 | X-H torsion
[ 10763 10752 10751 10750 ] final   27.88 input  -60.55 | X-H torsion
[ 11005 11000 10999 10996 ] final -129.46 input  -57.11 | X-H torsion

> <Gold.Protein.ActiveResidues>
 VAL166  LYS551  ARG553  GLY616  TRP617  ASP618  TYR619  PRO620  LYS621  CYS622 
 ASP623  PHE694  ASN695  SER759  ASP760  ASP761  ALA762  ILE779  LEU786  VAL792 
 PHE793  MET794  SER795  GLU796  ALA797  LYS798  CYS799  TRP800  GLU811  SER814 

> <Gold.Protein.RotatedAtoms>
  152.5211  133.9450  159.7644 H   0  0  0  0  0  0  0  0  0  0  0  0  # atno 6907 bound_to 6896
  150.9772  133.6275  159.2735 H   0  0  0  0  0  0  0  0  0  0  0  0  # atno 6908 bound_to 6896
  151.3465  135.0881  159.9441 H   0  0  0  0  0  0  0  0  0  0  0  0  # atno 6909 bound_to 6896
  145.8608  140.8287  142.9938 H   0  0  0  0  0  0  0  0  0  0  0  0  # atno 7974 bound_to 7965
  156.1300  140.1520  156.9079 H   0  0  0  0  0  0  0  0  0  0  0  0  # atno 8008 bound_to 7997
  154.4901  140.0853  156.7616 H   0  0  0  0  0  0  0  0  0  0  0  0  # atno 8009 bound_to 7997
  155.4273  140.3425  155.4279 H   0  0  0  0  0  0  0  0  0  0  0  0  # atno 8010 bound_to 7997
  140.1286  143.4380  152.1642 H   0  0  0  0  0  0  0  0  0  0  0  0  # atno 10167 bound_to 10162
  156.8644  130.9762  151.3080 H   0  0  0  0  0  0  0  0  0  0  0  0  # atno 10718 bound_to 10713
  153.0527  135.6526  154.0653 H   0  0  0  0  0  0  0  0  0  0  0  0  # atno 10763 bound_to 10752
  154.0338  135.2909  155.3366 H   0  0  0  0  0  0  0  0  0  0  0  0  # atno 10764 bound_to 10752
  154.6825  135.5314  153.8349 H   0  0  0  0  0  0  0  0  0  0  0  0  # atno 10765 bound_to 10752
  140.9429  134.1169  157.4134 H   0  0  0  0  0  0  0  0  0  0  0  0  # atno 11005 bound_to 11000
  144.6726  140.1092  143.7456 LP  0  0  0  0  0  0  0  0  0  0  0  0  # atno 17320 bound_to 7965
  145.9250  139.2570  143.1358 LP  0  0  0  0  0  0  0  0  0  0  0  0  # atno 17321 bound_to 7965
  139.5531  144.7353  151.4375 LP  0  0  0  0  0  0  0  0  0  0  0  0  # atno 17342 bound_to 10162
  140.6830  143.8038  150.7147 LP  0  0  0  0  0  0  0  0  0  0  0  0  # atno 17343 bound_to 10162
  157.6232  130.8671  149.9143 LP  0  0  0  0  0  0  0  0  0  0  0  0  # atno 17370 bound_to 10713
  156.0759  130.3679  150.0678 LP  0  0  0  0  0  0  0  0  0  0  0  0  # atno 17371 bound_to 10713
  139.8825  135.0042  156.6236 LP  0  0  0  0  0  0  0  0  0  0  0  0  # atno 17394 bound_to 11000
  140.7709  133.8739  155.8491 LP  0  0  0  0  0  0  0  0  0  0  0  0  # atno 17395 bound_to 11000

$$$$
