AV-unprocessed.smi:560|AV-procd|sdf|2931|dock8
  -GOLD-   2262023423D 1   1.00000     0.00000
 Structure written by MMmdl.
 42 43  0  0  0  0  0  0  0  0  2 V2000
  150.0972  138.9793  157.4114 C   0  0  0  0  0  0  0  0  0  0  0  0
  150.8518  139.9645  156.4954 C   0  0  1  0  0  0  0  0  0  0  0  0
  150.1197  140.2275  155.1693 C   0  0  0  0  0  0  0  0  0  0  0  0
  150.6249  139.9039  154.0939 O   0  0  0  0  0  0  0  0  0  0  0  0
  148.9207  140.8251  155.2626 N   0  0  0  0  0  0  0  0  0  0  0  0
  148.0438  141.1453  154.1372 C   0  0  2  0  0  0  0  0  0  0  0  0
  146.8681  142.0481  154.5611 C   0  0  0  0  0  0  0  0  0  0  0  0
  145.8531  141.2950  155.4380 C   0  0  0  0  0  0  0  0  0  0  0  0
  145.3514  140.0769  154.7477 N   0  3  2  0  0  0  0  0  0  0  0  0
  144.2628  139.3923  155.4919 C   0  0  0  0  0  0  0  0  0  0  0  0
  143.1540  140.3479  155.9450 C   0  0  0  0  0  0  0  0  0  0  0  0
  142.5016  141.0113  154.9878 N   0  0  0  0  0  0  0  0  0  0  0  0
  142.8973  140.4983  157.1380 O   0  0  0  0  0  0  0  0  0  0  0  0
  146.4606  139.1561  154.3899 C   0  0  0  0  0  0  0  0  0  0  0  0
  147.5021  139.8556  153.4964 C   0  0  0  0  0  0  0  0  0  0  0  0
  151.1497  141.2230  157.1701 N   0  0  0  0  0  0  0  0  0  0  0  0
  151.9397  141.4227  158.2842 C   0  0  0  0  0  0  0  0  0  0  0  0
  151.9624  142.7643  158.5372 C   0  0  0  0  0  0  0  0  0  0  0  0
  151.1542  143.3162  157.5051 C   0  0  0  0  0  0  0  0  0  0  0  0
  150.6771  142.3947  156.6848 N   0  0  0  0  0  0  0  0  0  0  0  0
  149.9363  138.0231  156.9123 H   0  0  0  0  0  0  0  0  0  0  0  0
  149.1210  139.3627  157.7115 H   0  0  0  0  0  0  0  0  0  0  0  0
  150.6662  138.7808  158.3199 H   0  0  0  0  0  0  0  0  0  0  0  0
  151.8074  139.5006  156.2463 H   0  0  0  0  0  0  0  0  0  0  0  0
  148.5789  141.0477  156.1860 H   0  0  0  0  0  0  0  0  0  0  0  0
  148.6396  141.6707  153.3884 H   0  0  0  0  0  0  0  0  0  0  0  0
  147.2294  142.9340  155.0842 H   0  0  0  0  0  0  0  0  0  0  0  0
  146.3605  142.4148  153.6679 H   0  0  0  0  0  0  0  0  0  0  0  0
  146.3088  141.0163  156.3894 H   0  0  0  0  0  0  0  0  0  0  0  0
  145.0238  141.9628  155.6730 H   0  0  0  0  0  0  0  0  0  0  0  0
  143.7891  138.6493  154.8490 H   0  0  0  0  0  0  0  0  0  0  0  0
  144.6757  138.8514  156.3451 H   0  0  0  0  0  0  0  0  0  0  0  0
  141.7583  141.6516  155.2274 H   0  0  0  0  0  0  0  0  0  0  0  0
  142.7521  140.8670  154.0196 H   0  0  0  0  0  0  0  0  0  0  0  0
  146.9297  138.7789  155.3000 H   0  0  0  0  0  0  0  0  0  0  0  0
  146.0626  138.2910  153.8586 H   0  0  0  0  0  0  0  0  0  0  0  0
  147.0395  140.1010  152.5392 H   0  0  0  0  0  0  0  0  0  0  0  0
  148.3217  139.1726  153.2691 H   0  0  0  0  0  0  0  0  0  0  0  0
  152.4157  140.6020  158.8000 H   0  0  0  0  0  0  0  0  0  0  0  0
  152.4801  143.2745  159.3357 H   0  0  0  0  0  0  0  0  0  0  0  0
  150.9054  144.3517  157.3255 H   0  0  0  0  0  0  0  0  0  0  0  0
  144.9425  140.3810  153.8750 H   0  0  0  0  0  0  0  0  0  0  0  0
  1  2  1  0  0  0  0
  1 21  1  0  0  0  0
  1 22  1  0  0  0  0
  1 23  1  0  0  0  0
  2  3  1  0  0  0  0
  2 16  1  0  0  0  0
  2 24  1  0  0  0  0
  3  4  2  0  0  0  0
  3  5  1  0  0  0  0
  5  6  1  0  0  0  0
  5 25  1  0  0  0  0
  6 15  1  0  0  0  0
  6  7  1  0  0  0  0
  6 26  1  0  0  0  0
  7  8  1  0  0  0  0
  7 27  1  0  0  0  0
  7 28  1  0  0  0  0
  8  9  1  0  0  0  0
  8 29  1  0  0  0  0
  8 30  1  0  0  0  0
  9 10  1  0  0  0  0
  9 14  1  0  0  0  0
  9 42  1  0  0  0  0
 10 11  1  0  0  0  0
 10 31  1  0  0  0  0
 10 32  1  0  0  0  0
 11 12  1  0  0  0  0
 11 13  2  0  0  0  0
 12 33  1  0  0  0  0
 12 34  1  0  0  0  0
 14 15  1  0  0  0  0
 14 35  1  0  0  0  0
 14 36  1  0  0  0  0
 15 37  1  0  0  0  0
 15 38  1  0  0  0  0
 16 20  1  0  0  0  0
 16 17  1  0  0  0  0
 17 18  2  0  0  0  0
 17 39  1  0  0  0  0
 18 19  1  0  0  0  0
 18 40  1  0  0  0  0
 19 20  2  0  0  0  0
 19 41  1  0  0  0  0
M  CHG  1   9   1
M  END
> <s_m_source_file>
AV-unprocessed.smi

> <i_m_source_file_index>
560

> <i_lp_mmshare_version>
43012

> <i_f3d_flags>
0

> <s_epik_input>
bjFbY0hdW2NIXVtjSF1uMVtDQEhdKFtDSDNdKUMoPU8pW05IXVtDSF0yW0NIMl1bQ0gyXU4oW0NIMl1bQ0gyXTIpW0NIMl1DKD1PKVtOSDJd

> <s_epik_cmdline>
J2VwaWtfcHl0aG9uJywgJy1waCcsICc3LjAnLCAnLXRuJywgJzgnLCAnLW1hJywgJzIwMCcsICctbWV0YWxfYmluZGluZycsICctaW1hZScsICc8aW5maWxlLm1hZT4nLCAnLW9tYWUnLCAnPG91dGZpbGUubWFlPic=

> <r_lp_tautomer_probability>
1

> <r_epik_Ionization_Penalty>
1.02943

> <r_epik_Ionization_Penalty_Charging>
1.02936

> <r_epik_Ionization_Penalty_Neutral>
7.4537e-05

> <r_epik_State_Penalty>
1.08036

> <r_epik_Charging_Adjusted_Penalty>
2.10972

> <i_epik_Tot_Q>
1

> <i_epik_Tot_abs_Q>
1

> <r_epik_Metal_State_Penalty>
1.09347

> <b_epik_Metal_Only>
0

> <s_lp_Force_Field>
OPLS_2005

> <r_lp_Energy>
15.8217

> <b_lp_Chiralities_Consistent>
1

> <s_lp_Variant>
AV-unprocessed.smi:560-6

> <Gold.Version>
5.8.1

> <Gold.Id.Protein>
6NUR|6NUR_protein|mol2

> <Gold.PLP.Fitness>
40.5169

> <Gold.PLP.PLP>
-27.1957

> <Gold.PLP.part.hbond>
-3.6966

> <Gold.PLP.part.metal>
0.0000

> <Gold.PLP.part.buried>
-3.3549

> <Gold.PLP.part.nonpolar>
-21.5374

> <Gold.PLP.part.repulsive>
0.5550

> <Gold.PLP.ligand.clash>
0.0000

> <Gold.PLP.ligand.torsion>
0.1976

> <Gold.PLP.Chemscore.Hbond>
4.0000

> <Gold.PLP.Chemscore.CHOScore>
0.5294

> <Gold.PLP.Chemscore.Metal>
0.0000

> <Gold.Chemscore.Hbonds>
donor molecule, donor type, donor heavy atom, donor atom, acceptor molecule, acceptor atom, score
      L1  H     9    42       P1 10175  2.00
      L1  H    12    34       P1 10175  1.00
      P1  H  7989  7998       L1     4  0.96
      L1  C    19    41       P1  8028  0.57

> <Gold.PLP.Chemscore.Internal.Correction>
0.1282

> <Gold.Rescore>
     Score         DG    S(hbond)    S(metal)    S(lipo)     H(rot)  DE(clash)    DE(int)     intcor
     13.83     -15.45       2.81        0.00      60.35       2.52       0.08       1.55       ----

> <Gold.Chemscore.Fitness>
13.8281

> <Gold.Chemscore.DG>
-15.4521

> <Gold.Chemscore.ZeroCoef>
-5.4800

> <Gold.Chemscore.Hbond>
2.8063

> <Gold.Chemscore.Metal>
0.0000

> <Gold.Chemscore.Lipo>
60.3532

> <Gold.Chemscore.Internal_Hbond>
0.0000

> <Gold.Chemscore.DEClash>
0.0779

> <Gold.Chemscore.DEInternal>
1.5461

> <Gold.Chemscore.Rot>
2.5243

> <Gold.Chemscore.Internal.Correction>
   9.000000E+99

> <Gold.Chemscore.Hbonds>
donor molecule, donor type, donor heavy atom, donor atom, acceptor molecule, acceptor atom, score
      L1  H     9    42       P1 10175  0.99
      L1  H    12    34       P1 10175  0.40
      P1  H  7989  7998       L1     4  0.85

> <Gold.Chemscore.Hbond.Weighted>
-9.3730

> <Gold.Chemscore.Metal.Weighted>
-0.0000

> <Gold.Chemscore.Lipo.Weighted>
-7.0613

> <Gold.Chemscore.Internal_Hbond.Weighted>
0.0000

> <Gold.Chemscore.DEClash.Weighted>
0.0779

> <Gold.Chemscore.DEInternal.Weighted>
1.5461

> <Gold.Chemscore.Rot.Weighted>
6.4622

> <Gold.Chemscore.Internal.Correction.Weighted>
   9.000000E+99

> <Gold.Protein.RotatedTorsions>
[ 6907 6896 6895 6894 ] final  -43.12 input  -60.11 | X-H torsion
[ 7974 7965 7964 7962 ] final  -93.28 input  175.53 | X-H torsion
[ 8008 7997 7996 7995 ] final  -80.65 input   59.86 | X-H torsion
[ 10167 10162 10161 10158 ] final   36.34 input  -65.29 | X-H torsion
[ 10718 10713 10712 10709 ] final  142.19 input   66.30 | X-H torsion
[ 10763 10752 10751 10750 ] final  173.67 input  -60.55 | X-H torsion
[ 11005 11000 10999 10996 ] final  176.97 input  -57.11 | X-H torsion

> <Gold.Protein.ActiveResidues>
 VAL166  LYS551  ARG553  GLY616  TRP617  ASP618  TYR619  PRO620  LYS621  CYS622 
 ASP623  PHE694  ASN695  SER759  ASP760  ASP761  ALA762  ILE779  LEU786  VAL792 
 PHE793  MET794  SER795  GLU796  ALA797  LYS798  CYS799  TRP800  GLU811  SER814 

> <Gold.Protein.RotatedAtoms>
  150.9475  134.8879  159.7650 H   0  0  0  0  0  0  0  0  0  0  0  0  # atno 6907 bound_to 6896
  152.5106  134.3853  159.9375 H   0  0  0  0  0  0  0  0  0  0  0  0  # atno 6908 bound_to 6896
  151.3871  133.3761  159.2751 H   0  0  0  0  0  0  0  0  0  0  0  0  # atno 6909 bound_to 6896
  145.3886  140.9526  143.2353 H   0  0  0  0  0  0  0  0  0  0  0  0  # atno 7974 bound_to 7965
  154.5904  140.0660  156.9230 H   0  0  0  0  0  0  0  0  0  0  0  0  # atno 8008 bound_to 7997
  155.2306  140.3337  155.4285 H   0  0  0  0  0  0  0  0  0  0  0  0  # atno 8009 bound_to 7997
  156.2252  140.1816  156.7366 H   0  0  0  0  0  0  0  0  0  0  0  0  # atno 8010 bound_to 7997
  140.4137  144.1557  150.6141 H   0  0  0  0  0  0  0  0  0  0  0  0  # atno 10167 bound_to 10162
  157.3834  131.0995  151.0716 H   0  0  0  0  0  0  0  0  0  0  0  0  # atno 10718 bound_to 10713
  154.4432  135.2762  155.1833 H   0  0  0  0  0  0  0  0  0  0  0  0  # atno 10763 bound_to 10752
  154.3690  135.6113  153.5734 H   0  0  0  0  0  0  0  0  0  0  0  0  # atno 10764 bound_to 10752
  152.9842  135.5853  154.4763 H   0  0  0  0  0  0  0  0  0  0  0  0  # atno 10765 bound_to 10752
  140.3790  134.6963  157.4439 H   0  0  0  0  0  0  0  0  0  0  0  0  # atno 11005 bound_to 11000
  144.8456  139.5402  143.6880 LP  0  0  0  0  0  0  0  0  0  0  0  0  # atno 17320 bound_to 7965
  146.2808  139.6872  142.9230 LP  0  0  0  0  0  0  0  0  0  0  0  0  # atno 17321 bound_to 7965
  140.4610  143.2449  151.9220 LP  0  0  0  0  0  0  0  0  0  0  0  0  # atno 17342 bound_to 10162
  139.4782  144.5468  151.8446 LP  0  0  0  0  0  0  0  0  0  0  0  0  # atno 17343 bound_to 10162
  157.1776  130.6295  149.5661 LP  0  0  0  0  0  0  0  0  0  0  0  0  # atno 17370 bound_to 10713
  155.9781  130.4764  150.6635 LP  0  0  0  0  0  0  0  0  0  0  0  0  # atno 17371 bound_to 10713
  140.0493  134.6154  155.8881 LP  0  0  0  0  0  0  0  0  0  0  0  0  # atno 17394 bound_to 11000
  141.1930  133.6577  156.5526 LP  0  0  0  0  0  0  0  0  0  0  0  0  # atno 17395 bound_to 11000

$$$$
