AV-unprocessed.smi:2061|AV-procd|sdf|8363|dock7
  -GOLD-   2272011 33D 1   1.00000     0.00000
 Structure written by MMmdl.
 45 46  0  0  0  0  0  0  0  0  1 V2000
  137.9876  137.4822  153.9524 C   0  0  0  0  0  0  0  0  0  0  0  0
  139.4626  137.5548  154.1516 C   0  0  0  0  0  0  0  0  0  0  0  0
  140.4034  138.4824  153.8023 C   0  0  0  0  0  0  0  0  0  0  0  0
  141.6083  137.9184  154.2998 C   0  0  0  0  0  0  0  0  0  0  0  0
  142.8471  138.5889  154.1354 N   0  0  0  0  0  0  0  0  0  0  0  0
  143.8767  138.6317  154.9981 C   0  0  0  0  0  0  0  0  0  0  0  0
  143.8991  138.0847  156.1009 O   0  0  0  0  0  0  0  0  0  0  0  0
  144.8909  139.3585  154.5061 N   0  0  0  0  0  0  0  0  0  0  0  0
  146.1630  139.6126  155.1792 C   0  0  0  0  0  0  0  0  0  0  0  0
  147.3949  139.2936  154.2850 C   0  0  1  0  0  0  0  0  0  0  0  0
  147.3302  140.1693  153.0075 C   0  0  0  0  0  0  0  0  0  0  0  0
  148.6857  139.4221  155.0031 N   0  0  0  0  0  0  0  0  0  0  0  0
  149.0900  140.8181  155.1959 C   0  0  0  0  0  0  0  0  0  0  0  0
  150.4163  140.9565  155.9647 C   0  0  2  0  0  0  0  0  0  0  0  0
  150.8613  142.4179  156.0867 C   0  0  0  0  0  0  0  0  0  0  0  0
  151.4389  140.2409  155.2804 O   0  0  0  0  0  0  0  0  0  0  0  0
  151.1445  138.8673  155.0380 C   0  0  1  0  0  0  0  0  0  0  0  0
  151.2529  138.0218  156.3187 C   0  0  0  0  0  0  0  0  0  0  0  0
  149.7848  138.7248  154.3250 C   0  0  0  0  0  0  0  0  0  0  0  0
  141.4201  136.7522  154.8984 N   0  0  0  0  0  0  0  0  0  0  0  0
  140.0440  136.5129  154.8056 O   0  0  0  0  0  0  0  0  0  0  0  0
  137.5886  138.4499  153.6476 H   0  0  0  0  0  0  0  0  0  0  0  0
  137.4858  137.1845  154.8734 H   0  0  0  0  0  0  0  0  0  0  0  0
  137.7382  136.7546  153.1800 H   0  0  0  0  0  0  0  0  0  0  0  0
  140.2507  139.4130  153.2758 H   0  0  0  0  0  0  0  0  0  0  0  0
  142.9618  139.0893  153.2665 H   0  0  0  0  0  0  0  0  0  0  0  0
  144.7767  139.7707  153.5918 H   0  0  0  0  0  0  0  0  0  0  0  0
  146.2264  140.6381  155.5472 H   0  0  0  0  0  0  0  0  0  0  0  0
  146.1345  138.9730  156.0589 H   0  0  0  0  0  0  0  0  0  0  0  0
  147.2929  138.2561  153.9628 H   0  0  0  0  0  0  0  0  0  0  0  0
  146.3646  140.1088  152.5075 H   0  0  0  0  0  0  0  0  0  0  0  0
  148.0528  139.8588  152.2545 H   0  0  0  0  0  0  0  0  0  0  0  0
  147.5122  141.2191  153.2401 H   0  0  0  0  0  0  0  0  0  0  0  0
  149.1718  141.3159  154.2283 H   0  0  0  0  0  0  0  0  0  0  0  0
  148.3392  141.3599  155.7675 H   0  0  0  0  0  0  0  0  0  0  0  0
  150.2977  140.5514  156.9700 H   0  0  0  0  0  0  0  0  0  0  0  0
  150.1146  143.0139  156.6118 H   0  0  0  0  0  0  0  0  0  0  0  0
  151.0178  142.8657  155.1049 H   0  0  0  0  0  0  0  0  0  0  0  0
  151.7970  142.4950  156.6409 H   0  0  0  0  0  0  0  0  0  0  0  0
  151.9158  138.5075  154.3566 H   0  0  0  0  0  0  0  0  0  0  0  0
  151.1465  136.9608  156.0915 H   0  0  0  0  0  0  0  0  0  0  0  0
  150.4824  138.2763  157.0461 H   0  0  0  0  0  0  0  0  0  0  0  0
  152.2232  138.1611  156.7955 H   0  0  0  0  0  0  0  0  0  0  0  0
  149.5801  137.6597  154.2413 H   0  0  0  0  0  0  0  0  0  0  0  0
  149.8789  139.1062  153.3070 H   0  0  0  0  0  0  0  0  0  0  0  0
  1  2  1  0  0  0  0
  1 22  1  0  0  0  0
  1 23  1  0  0  0  0
  1 24  1  0  0  0  0
  2 21  1  0  0  0  0
  2  3  2  0  0  0  0
  3  4  1  0  0  0  0
  3 25  1  0  0  0  0
  4  5  1  0  0  0  0
  4 20  2  0  0  0  0
  5  6  1  0  0  0  0
  5 26  1  0  0  0  0
  6  7  2  0  0  0  0
  6  8  1  0  0  0  0
  8  9  1  0  0  0  0
  8 27  1  0  0  0  0
  9 10  1  0  0  0  0
  9 28  1  0  0  0  0
  9 29  1  0  0  0  0
 10 11  1  0  0  0  0
 10 12  1  0  0  0  0
 10 30  1  0  0  0  0
 11 31  1  0  0  0  0
 11 32  1  0  0  0  0
 11 33  1  0  0  0  0
 12 19  1  0  0  0  0
 12 13  1  0  0  0  0
 13 14  1  0  0  0  0
 13 34  1  0  0  0  0
 13 35  1  0  0  0  0
 14 15  1  0  0  0  0
 14 16  1  0  0  0  0
 14 36  1  0  0  0  0
 15 37  1  0  0  0  0
 15 38  1  0  0  0  0
 15 39  1  0  0  0  0
 16 17  1  0  0  0  0
 17 18  1  0  0  0  0
 17 19  1  0  0  0  0
 17 40  1  0  0  0  0
 18 41  1  0  0  0  0
 18 42  1  0  0  0  0
 18 43  1  0  0  0  0
 19 44  1  0  0  0  0
 19 45  1  0  0  0  0
 20 21  1  0  0  0  0
M  END
> <s_m_source_file>
AV-unprocessed.smi

> <i_m_source_file_index>
2061

> <i_lp_mmshare_version>
43012

> <i_f3d_flags>
0

> <s_epik_input>
W0NIM11jMVtjSF1jKG5vMSlbTkhdQyg9TylbTkhdW0NIMl1bQ0BIXShbQ0gzXSlOMltDSDJdW0NAQEhdKFtDSDNdKU9bQ0BASF0oW0NIM10pW0NIMl0y

> <s_epik_cmdline>
J2VwaWtfcHl0aG9uJywgJy1waCcsICc3LjAnLCAnLXRuJywgJzgnLCAnLW1hJywgJzIwMCcsICctbWV0YWxfYmluZGluZycsICctaW1hZScsICc8aW5maWxlLm1hZT4nLCAnLW9tYWUnLCAnPG91dGZpbGUubWFlPic=

> <r_epik_Ionization_Penalty>
0.214073

> <r_epik_Ionization_Penalty_Charging>
0

> <r_epik_Ionization_Penalty_Neutral>
0.214073

> <r_epik_State_Penalty>
0.204211

> <r_epik_Charging_Adjusted_Penalty>
0.204211

> <i_epik_Tot_Q>
0

> <i_epik_Tot_abs_Q>
0

> <r_epik_Metal_State_Penalty>
0.217067

> <b_epik_Metal_Only>
0

> <s_lp_Force_Field>
OPLS_2005

> <r_lp_Energy>
29.4213

> <b_lp_Chiralities_Consistent>
1

> <s_lp_Variant>
AV-unprocessed.smi:2061-4

> <Gold.Version>
5.8.1

> <Gold.Id.Protein>
6NUR|6NUR_protein|mol2

> <Gold.PLP.Fitness>
41.5913

> <Gold.PLP.PLP>
-30.6447

> <Gold.PLP.part.hbond>
-4.3040

> <Gold.PLP.part.metal>
0.0000

> <Gold.PLP.part.buried>
-4.0824

> <Gold.PLP.part.nonpolar>
-22.3326

> <Gold.PLP.part.repulsive>
0.2373

> <Gold.PLP.ligand.clash>
0.0000

> <Gold.PLP.ligand.torsion>
0.5399

> <Gold.PLP.Chemscore.Hbond>
4.0000

> <Gold.PLP.Chemscore.CHOScore>
0.0000

> <Gold.PLP.Chemscore.Metal>
0.0000

> <Gold.Chemscore.Hbonds>
donor molecule, donor type, donor heavy atom, donor atom, acceptor molecule, acceptor atom, score
      L1  H     5    26       P1 10175  0.94
      L1  H     8    27       P1 10175  0.91
      P1  H  7989  7998       L1    16  0.99
      P1  H 11000 11005       L1    21  0.67

> <Gold.PLP.Chemscore.Internal.Correction>
0.0264

> <Gold.Rescore>
     Score         DG    S(hbond)    S(metal)    S(lipo)     H(rot)  DE(clash)    DE(int)     intcor
     17.16     -19.62       2.71        0.00      77.34       1.55       2.08       0.39       ----

> <Gold.Chemscore.Fitness>
17.1620

> <Gold.Chemscore.DG>
-19.6244

> <Gold.Chemscore.ZeroCoef>
-5.4800

> <Gold.Chemscore.Hbond>
2.7118

> <Gold.Chemscore.Metal>
0.0000

> <Gold.Chemscore.Lipo>
77.3364

> <Gold.Chemscore.Internal_Hbond>
0.0000

> <Gold.Chemscore.DEClash>
2.0765

> <Gold.Chemscore.DEInternal>
0.3859

> <Gold.Chemscore.Rot>
1.5474

> <Gold.Chemscore.Internal.Correction>
   9.000000E+99

> <Gold.Chemscore.Hbonds>
donor molecule, donor type, donor heavy atom, donor atom, acceptor molecule, acceptor atom, score
      L1  H     5    26       P1 10175  0.91
      L1  H     8    27       P1 10175  0.90
      P1  H  7989  7998       L1    16  0.22
      P1  H 11000 11005       L1    21  0.13

> <Gold.Chemscore.Hbond.Weighted>
-9.0573

> <Gold.Chemscore.Metal.Weighted>
-0.0000

> <Gold.Chemscore.Lipo.Weighted>
-9.0484

> <Gold.Chemscore.Internal_Hbond.Weighted>
0.0000

> <Gold.Chemscore.DEClash.Weighted>
2.0765

> <Gold.Chemscore.DEInternal.Weighted>
0.3859

> <Gold.Chemscore.Rot.Weighted>
3.9612

> <Gold.Chemscore.Internal.Correction.Weighted>
   9.000000E+99

> <Gold.Protein.RotatedTorsions>
[ 6907 6896 6895 6894 ] final  168.55 input  -60.11 | X-H torsion
[ 7974 7965 7964 7962 ] final  -38.59 input  175.53 | X-H torsion
[ 8008 7997 7996 7995 ] final   33.91 input   59.86 | X-H torsion
[ 10167 10162 10161 10158 ] final  -55.57 input  -65.29 | X-H torsion
[ 10718 10713 10712 10709 ] final   89.81 input   66.30 | X-H torsion
[ 10763 10752 10751 10750 ] final  -79.23 input  -60.55 | X-H torsion
[ 11005 11000 10999 10996 ] final   73.86 input  -57.11 | X-H torsion

> <Gold.Protein.ActiveResidues>
 VAL166  LYS551  ARG553  GLY616  TRP617  ASP618  TYR619  PRO620  LYS621  CYS622 
 ASP623  PHE694  ASN695  SER759  ASP760  ASP761  ALA762  ILE779  LEU786  VAL792 
 PHE793  MET794  SER795  GLU796  ALA797  LYS798  CYS799  TRP800  GLU811  SER814 

> <Gold.Protein.RotatedAtoms>
  151.8459  133.3431  159.3657 H   0  0  0  0  0  0  0  0  0  0  0  0  # atno 6907 bound_to 6896
  150.7221  134.5346  159.5726 H   0  0  0  0  0  0  0  0  0  0  0  0  # atno 6908 bound_to 6896
  152.2829  134.7809  160.0444 H   0  0  0  0  0  0  0  0  0  0  0  0  # atno 6909 bound_to 6896
  146.0473  140.6529  142.9058 H   0  0  0  0  0  0  0  0  0  0  0  0  # atno 7974 bound_to 7965
  155.1462  140.3270  155.4441 H   0  0  0  0  0  0  0  0  0  0  0  0  # atno 8008 bound_to 7997
  156.2589  140.1985  156.6526 H   0  0  0  0  0  0  0  0  0  0  0  0  # atno 8009 bound_to 7997
  154.6506  140.0559  156.9937 H   0  0  0  0  0  0  0  0  0  0  0  0  # atno 8010 bound_to 7997
  140.6367  143.2486  151.5099 H   0  0  0  0  0  0  0  0  0  0  0  0  # atno 10167 bound_to 10162
  157.6957  131.0347  150.3483 H   0  0  0  0  0  0  0  0  0  0  0  0  # atno 10718 bound_to 10713
  154.5359  135.5703  153.6798 H   0  0  0  0  0  0  0  0  0  0  0  0  # atno 10763 bound_to 10752
  152.9951  135.6216  154.2566 H   0  0  0  0  0  0  0  0  0  0  0  0  # atno 10764 bound_to 10752
  154.2495  135.2859  155.2802 H   0  0  0  0  0  0  0  0  0  0  0  0  # atno 10765 bound_to 10752
  139.9419  134.7383  156.1077 H   0  0  0  0  0  0  0  0  0  0  0  0  # atno 11005 bound_to 11000
  144.7104  140.4018  143.7085 LP  0  0  0  0  0  0  0  0  0  0  0  0  # atno 17320 bound_to 7965
  145.6784  139.1613  143.2715 LP  0  0  0  0  0  0  0  0  0  0  0  0  # atno 17321 bound_to 7965
  139.5577  144.2233  152.1640 LP  0  0  0  0  0  0  0  0  0  0  0  0  # atno 17342 bound_to 10162
  140.1492  144.5130  150.6697 LP  0  0  0  0  0  0  0  0  0  0  0  0  # atno 17343 bound_to 10162
  156.3934  130.3902  149.7013 LP  0  0  0  0  0  0  0  0  0  0  0  0  # atno 17370 bound_to 10713
  156.4355  130.7835  151.2856 LP  0  0  0  0  0  0  0  0  0  0  0  0  # atno 17371 bound_to 10713
  141.1057  133.6661  156.2857 LP  0  0  0  0  0  0  0  0  0  0  0  0  # atno 17394 bound_to 11000
  140.5930  134.5631  157.5503 LP  0  0  0  0  0  0  0  0  0  0  0  0  # atno 17395 bound_to 11000

$$$$
