AV-unprocessed.smi:3136|AV-procd|sdf|11950|dock1
  -GOLD-   2272017343D 1   1.00000     0.00000
 Structure written by MMmdl.
 40 40  0  0  0  0  0  0  0  0  2 V2000
  145.9095  132.4532  150.5542 C   0  0  0  0  0  0  0  0  0  0  0  0
  146.5064  133.0882  151.8172 C   0  0  0  0  0  0  0  0  0  0  0  0
  146.6992  134.5246  151.6551 N   0  0  0  0  0  0  0  0  0  0  0  0
  145.7425  135.3961  151.3004 C   0  0  0  0  0  0  0  0  0  0  0  0
  144.5810  135.0640  151.0626 O   0  0  0  0  0  0  0  0  0  0  0  0
  146.1663  136.8645  151.2003 C   0  0  0  0  0  0  0  0  0  0  0  0
  145.6675  137.7093  152.3843 C   0  0  0  0  0  0  0  0  0  0  0  0
  146.3440  139.0225  152.4209 N   0  3  0  0  0  0  0  0  0  0  0  0
  147.3827  139.1666  153.4684 C   0  0  2  0  0  0  0  0  0  0  0  0
  146.7831  138.7105  154.8089 C   0  0  0  0  0  0  0  0  0  0  0  0
  147.9165  140.6251  153.5176 C   0  0  1  0  0  0  0  0  0  0  0  0
  146.8268  141.6658  153.8403 C   0  0  0  0  0  0  0  0  0  0  0  0
  149.0205  140.7543  154.4628 N   0  0  0  0  0  0  0  0  0  0  0  0
  149.1708  141.6467  155.5070 C   0  0  0  0  0  0  0  0  0  0  0  0
  150.3440  141.3457  156.1369 C   0  0  0  0  0  0  0  0  0  0  0  0
  150.8455  140.2344  155.4047 C   0  0  0  0  0  0  0  0  0  0  0  0
  150.0484  139.8779  154.4107 N   0  0  0  0  0  0  0  0  0  0  0  0
  145.7414  131.3862  150.7006 H   0  0  0  0  0  0  0  0  0  0  0  0
  146.5749  132.5678  149.6981 H   0  0  0  0  0  0  0  0  0  0  0  0
  144.9517  132.9079  150.2988 H   0  0  0  0  0  0  0  0  0  0  0  0
  145.8348  132.9282  152.6609 H   0  0  0  0  0  0  0  0  0  0  0  0
  147.4500  132.6051  152.0759 H   0  0  0  0  0  0  0  0  0  0  0  0
  147.6279  134.8808  151.8292 H   0  0  0  0  0  0  0  0  0  0  0  0
  147.2559  136.9115  151.1549 H   0  0  0  0  0  0  0  0  0  0  0  0
  145.7936  137.2746  150.2610 H   0  0  0  0  0  0  0  0  0  0  0  0
  144.5905  137.8683  152.3123 H   0  0  0  0  0  0  0  0  0  0  0  0
  145.8514  137.1795  153.3191 H   0  0  0  0  0  0  0  0  0  0  0  0
  146.7759  139.1934  151.5235 H   0  0  0  0  0  0  0  0  0  0  0  0
  148.2119  138.4940  153.2404 H   0  0  0  0  0  0  0  0  0  0  0  0
  147.5369  138.6669  155.5949 H   0  0  0  0  0  0  0  0  0  0  0  0
  146.3566  137.7101  154.7257 H   0  0  0  0  0  0  0  0  0  0  0  0
  145.9903  139.3824  155.1403 H   0  0  0  0  0  0  0  0  0  0  0  0
  148.3063  140.8751  152.5287 H   0  0  0  0  0  0  0  0  0  0  0  0
  146.0848  141.7301  153.0451 H   0  0  0  0  0  0  0  0  0  0  0  0
  147.2577  142.6617  153.9500 H   0  0  0  0  0  0  0  0  0  0  0  0
  146.3030  141.4261  154.7658 H   0  0  0  0  0  0  0  0  0  0  0  0
  148.4378  142.4116  155.7170 H   0  0  0  0  0  0  0  0  0  0  0  0
  150.7766  141.8415  156.9935 H   0  0  0  0  0  0  0  0  0  0  0  0
  151.7559  139.6767  155.5683 H   0  0  0  0  0  0  0  0  0  0  0  0
  145.6383  139.7280  152.5763 H   0  0  0  0  0  0  0  0  0  0  0  0
  1  2  1  0  0  0  0
  1 18  1  0  0  0  0
  1 19  1  0  0  0  0
  1 20  1  0  0  0  0
  2  3  1  0  0  0  0
  2 21  1  0  0  0  0
  2 22  1  0  0  0  0
  3  4  1  0  0  0  0
  3 23  1  0  0  0  0
  4  5  2  0  0  0  0
  4  6  1  0  0  0  0
  6  7  1  0  0  0  0
  6 24  1  0  0  0  0
  6 25  1  0  0  0  0
  7  8  1  0  0  0  0
  7 26  1  0  0  0  0
  7 27  1  0  0  0  0
  8  9  1  0  0  0  0
  8 28  1  0  0  0  0
  8 40  1  0  0  0  0
  9 10  1  0  0  0  0
  9 11  1  0  0  0  0
  9 29  1  0  0  0  0
 10 30  1  0  0  0  0
 10 31  1  0  0  0  0
 10 32  1  0  0  0  0
 11 12  1  0  0  0  0
 11 13  1  0  0  0  0
 11 33  1  0  0  0  0
 12 34  1  0  0  0  0
 12 35  1  0  0  0  0
 12 36  1  0  0  0  0
 13 17  1  0  0  0  0
 13 14  1  0  0  0  0
 14 15  2  0  0  0  0
 14 37  1  0  0  0  0
 15 16  1  0  0  0  0
 15 38  1  0  0  0  0
 16 17  2  0  0  0  0
 16 39  1  0  0  0  0
M  CHG  1   8   1
M  END
> <s_m_source_file>
AV-unprocessed.smi

> <i_m_source_file_index>
3136

> <i_lp_mmshare_version>
43012

> <i_f3d_flags>
0

> <s_epik_input>
W0NIM11bQ0gyXVtOSF1DKD1PKVtDSDJdW0NIMl1bTkhdW0NASF0oW0NIM10pW0NASF0oW0NIM10pbjFbY0hdW2NIXVtjSF1uMQ==

> <s_epik_cmdline>
J2VwaWtfcHl0aG9uJywgJy1waCcsICc3LjAnLCAnLXRuJywgJzgnLCAnLW1hJywgJzIwMCcsICctbWV0YWxfYmluZGluZycsICctaW1hZScsICc8aW5maWxlLm1hZT4nLCAnLW9tYWUnLCAnPG91dGZpbGUubWFlPic=

> <r_lp_tautomer_probability>
1

> <r_epik_Ionization_Penalty>
0.00463447

> <r_epik_Ionization_Penalty_Charging>
0.00462393

> <r_epik_Ionization_Penalty_Neutral>
1.05394e-05

> <r_epik_State_Penalty>
-0

> <r_epik_Charging_Adjusted_Penalty>
0.00462393

> <i_epik_Tot_Q>
1

> <i_epik_Tot_abs_Q>
1

> <r_epik_Metal_State_Penalty>
-0

> <b_epik_Metal_Only>
0

> <s_lp_Force_Field>
OPLS_2005

> <r_lp_Energy>
10.6492

> <b_lp_Chiralities_Consistent>
1

> <s_lp_Variant>
AV-unprocessed.smi:3136-3

> <Gold.Version>
5.8.1

> <Gold.Id.Protein>
6NUR|6NUR_protein|mol2

> <Gold.PLP.Fitness>
41.1729

> <Gold.PLP.PLP>
-30.4209

> <Gold.PLP.part.hbond>
-3.0000

> <Gold.PLP.part.metal>
0.0000

> <Gold.PLP.part.buried>
4.4422

> <Gold.PLP.part.nonpolar>
-32.4487

> <Gold.PLP.part.repulsive>
0.9847

> <Gold.PLP.ligand.clash>
0.0000

> <Gold.PLP.ligand.torsion>
0.6955

> <Gold.PLP.Chemscore.Hbond>
2.9840

> <Gold.PLP.Chemscore.CHOScore>
0.9949

> <Gold.PLP.Chemscore.Metal>
0.0000

> <Gold.Chemscore.Hbonds>
donor molecule, donor type, donor heavy atom, donor atom, acceptor molecule, acceptor atom, score
      L1  H     3    23       P1  7948  1.00
      L1  H     8    40       P1 10175  1.69
      L1  C    14    37       P1  8028  0.90

> <Gold.PLP.Chemscore.Internal.Correction>
0.2064

> <Gold.Rescore>
     Score         DG    S(hbond)    S(metal)    S(lipo)     H(rot)  DE(clash)    DE(int)     intcor
     11.92     -14.12       1.80        0.00      73.02       2.32       1.16       1.04       ----

> <Gold.Chemscore.Fitness>
11.9157

> <Gold.Chemscore.DG>
-14.1218

> <Gold.Chemscore.ZeroCoef>
-5.4800

> <Gold.Chemscore.Hbond>
1.8044

> <Gold.Chemscore.Metal>
0.0000

> <Gold.Chemscore.Lipo>
73.0221

> <Gold.Chemscore.Internal_Hbond>
0.0000

> <Gold.Chemscore.DEClash>
1.1642

> <Gold.Chemscore.DEInternal>
1.0420

> <Gold.Chemscore.Rot>
2.3159

> <Gold.Chemscore.Internal.Correction>
   9.000000E+99

> <Gold.Chemscore.Hbonds>
donor molecule, donor type, donor heavy atom, donor atom, acceptor molecule, acceptor atom, score
      L1  H     3    23       P1  7948  0.64
      L1  H     8    40       P1 10175  0.79

> <Gold.Chemscore.Hbond.Weighted>
-6.0268

> <Gold.Chemscore.Metal.Weighted>
-0.0000

> <Gold.Chemscore.Lipo.Weighted>
-8.5436

> <Gold.Chemscore.Internal_Hbond.Weighted>
0.0000

> <Gold.Chemscore.DEClash.Weighted>
1.1642

> <Gold.Chemscore.DEInternal.Weighted>
1.0420

> <Gold.Chemscore.Rot.Weighted>
5.9286

> <Gold.Chemscore.Internal.Correction.Weighted>
   9.000000E+99

> <Gold.Protein.RotatedTorsions>
[ 6907 6896 6895 6894 ] final   73.90 input  -60.11 | X-H torsion
[ 7974 7965 7964 7962 ] final  173.17 input  175.53 | X-H torsion
[ 8008 7997 7996 7995 ] final -129.88 input   59.86 | X-H torsion
[ 10167 10162 10161 10158 ] final -110.24 input  -65.29 | X-H torsion
[ 10718 10713 10712 10709 ] final  -28.33 input   66.30 | X-H torsion
[ 10763 10752 10751 10750 ] final   46.06 input  -60.55 | X-H torsion
[ 11005 11000 10999 10996 ] final  -27.98 input  -57.11 | X-H torsion

> <Gold.Protein.ActiveResidues>
 VAL166  LYS551  ARG553  GLY616  TRP617  ASP618  TYR619  PRO620  LYS621  CYS622 
 ASP623  PHE694  ASN695  SER759  ASP760  ASP761  ALA762  ILE779  LEU786  VAL792 
 PHE793  MET794  SER795  GLU796  ALA797  LYS798  CYS799  TRP800  GLU811  SER814 

> <Gold.Protein.RotatedAtoms>
  152.4947  134.4353  159.9525 H   0  0  0  0  0  0  0  0  0  0  0  0  # atno 6907 bound_to 6896
  151.4334  133.3658  159.2779 H   0  0  0  0  0  0  0  0  0  0  0  0  # atno 6908 bound_to 6896
  150.9139  134.8579  159.7503 H   0  0  0  0  0  0  0  0  0  0  0  0  # atno 6909 bound_to 6896
  144.7250  139.9608  143.6434 H   0  0  0  0  0  0  0  0  0  0  0  0  # atno 7974 bound_to 7965
  155.2866  140.0446  157.3020 H   0  0  0  0  0  0  0  0  0  0  0  0  # atno 8008 bound_to 7997
  154.5566  140.2333  155.8369 H   0  0  0  0  0  0  0  0  0  0  0  0  # atno 8009 bound_to 7997
  156.2012  140.3025  155.9538 H   0  0  0  0  0  0  0  0  0  0  0  0  # atno 8010 bound_to 7997
  140.1466  143.4234  152.1524 H   0  0  0  0  0  0  0  0  0  0  0  0  # atno 10167 bound_to 10162
  156.4266  130.4437  149.7146 H   0  0  0  0  0  0  0  0  0  0  0  0  # atno 10718 bound_to 10713
  152.9815  135.6020  154.3539 H   0  0  0  0  0  0  0  0  0  0  0  0  # atno 10763 bound_to 10752
  154.3226  135.2769  155.2514 H   0  0  0  0  0  0  0  0  0  0  0  0  # atno 10764 bound_to 10752
  154.4673  135.5950  153.6353 H   0  0  0  0  0  0  0  0  0  0  0  0  # atno 10765 bound_to 10752
  140.9167  133.7425  156.0745 H   0  0  0  0  0  0  0  0  0  0  0  0  # atno 11005 bound_to 11000
  146.0639  139.3631  143.0564 LP  0  0  0  0  0  0  0  0  0  0  0  0  # atno 17320 bound_to 7965
  145.8057  140.9750  143.0975 LP  0  0  0  0  0  0  0  0  0  0  0  0  # atno 17321 bound_to 7965
  139.5446  144.7287  151.4624 LP  0  0  0  0  0  0  0  0  0  0  0  0  # atno 17342 bound_to 10162
  140.6728  143.8256  150.7020 LP  0  0  0  0  0  0  0  0  0  0  0  0  # atno 17343 bound_to 10162
  156.4066  130.7701  151.2712 LP  0  0  0  0  0  0  0  0  0  0  0  0  # atno 17370 bound_to 10713
  157.7508  131.0224  150.3790 LP  0  0  0  0  0  0  0  0  0  0  0  0  # atno 17371 bound_to 10713
  140.8040  134.3476  157.5431 LP  0  0  0  0  0  0  0  0  0  0  0  0  # atno 17394 bound_to 11000
  139.8767  134.9215  156.3276 LP  0  0  0  0  0  0  0  0  0  0  0  0  # atno 17395 bound_to 11000

$$$$
