AV-unprocessed.smi:3210|AV-procd|sdf|12272|dock5
  -GOLD-   2272018103D 1   1.00000     0.00000
 Structure written by MMmdl.
 35 36  0  0  0  0  0  0  0  0  2 V2000
  146.9163  138.8252  154.5678 O   0  0  0  0  0  0  0  0  0  0  0  0
  147.4018  138.9380  153.4414 C   0  0  0  0  0  0  0  0  0  0  0  0
  146.5089  138.9250  152.1990 C   0  0  0  0  0  0  0  0  0  0  0  0
  146.6906  137.7033  151.3884 N   0  3  0  0  0  0  0  0  0  0  0  0
  145.7443  136.6189  151.7126 C   0  0  0  0  0  0  0  0  0  0  0  0
  145.5879  135.6529  150.5294 C   0  0  0  0  0  0  0  0  0  0  0  0
  144.6918  134.5565  150.8422 N   0  0  0  0  0  0  0  0  0  0  0  0
  144.4397  133.4165  150.1077 C   0  0  0  0  0  0  0  0  0  0  0  0
  143.5193  132.6832  150.8001 C   0  0  0  0  0  0  0  0  0  0  0  0
  143.2616  133.4692  151.9579 C   0  0  0  0  0  0  0  0  0  0  0  0
  143.9642  134.5907  151.9793 N   0  0  0  0  0  0  0  0  0  0  0  0
  148.7170  139.0800  153.2181 N   0  0  0  0  0  0  0  0  0  0  0  0
  149.7419  139.1184  154.2538 C   0  0  0  0  0  0  0  0  0  0  0  0
  150.8849  138.1399  154.0613 C   0  0  0  0  0  0  0  0  0  0  0  0
  151.3708  137.2971  155.2168 C   0  0  0  0  0  0  0  0  0  0  0  0
  152.2444  138.3992  154.6673 C   0  0  0  0  0  0  0  0  0  0  0  0
  145.4665  139.0011  152.5113 H   0  0  0  0  0  0  0  0  0  0  0  0
  146.7340  139.8011  151.5891 H   0  0  0  0  0  0  0  0  0  0  0  0
  146.5810  137.9494  150.4148 H   0  0  0  0  0  0  0  0  0  0  0  0
  146.1025  136.0787  152.5900 H   0  0  0  0  0  0  0  0  0  0  0  0
  144.7797  137.0563  151.9737 H   0  0  0  0  0  0  0  0  0  0  0  0
  145.1999  136.1770  149.6546 H   0  0  0  0  0  0  0  0  0  0  0  0
  146.5569  135.2386  150.2473 H   0  0  0  0  0  0  0  0  0  0  0  0
  144.9299  133.2227  149.1650 H   0  0  0  0  0  0  0  0  0  0  0  0
  143.0927  131.7311  150.5209 H   0  0  0  0  0  0  0  0  0  0  0  0
  142.5896  133.2600  152.7771 H   0  0  0  0  0  0  0  0  0  0  0  0
  149.0337  139.1651  152.2627 H   0  0  0  0  0  0  0  0  0  0  0  0
  150.1419  140.1319  154.2952 H   0  0  0  0  0  0  0  0  0  0  0  0
  149.2854  138.9331  155.2272 H   0  0  0  0  0  0  0  0  0  0  0  0
  150.8773  137.6394  153.0946 H   0  0  0  0  0  0  0  0  0  0  0  0
  150.9140  137.4584  156.1912 H   0  0  0  0  0  0  0  0  0  0  0  0
  151.6609  136.2705  155.0023 H   0  0  0  0  0  0  0  0  0  0  0  0
  153.1171  138.1072  154.0866 H   0  0  0  0  0  0  0  0  0  0  0  0
  152.3676  139.2922  155.2766 H   0  0  0  0  0  0  0  0  0  0  0  0
  147.6324  137.3662  151.5292 H   0  0  0  0  0  0  0  0  0  0  0  0
  1  2  2  0  0  0  0
  2  3  1  0  0  0  0
  2 12  1  0  0  0  0
  3  4  1  0  0  0  0
  3 17  1  0  0  0  0
  3 18  1  0  0  0  0
  4  5  1  0  0  0  0
  4 19  1  0  0  0  0
  4 35  1  0  0  0  0
  5  6  1  0  0  0  0
  5 20  1  0  0  0  0
  5 21  1  0  0  0  0
  6  7  1  0  0  0  0
  6 22  1  0  0  0  0
  6 23  1  0  0  0  0
  7 11  1  0  0  0  0
  7  8  1  0  0  0  0
  8  9  2  0  0  0  0
  8 24  1  0  0  0  0
  9 10  1  0  0  0  0
  9 25  1  0  0  0  0
 10 11  2  0  0  0  0
 10 26  1  0  0  0  0
 12 13  1  0  0  0  0
 12 27  1  0  0  0  0
 13 14  1  0  0  0  0
 13 28  1  0  0  0  0
 13 29  1  0  0  0  0
 14 16  1  0  0  0  0
 14 15  1  0  0  0  0
 14 30  1  0  0  0  0
 15 16  1  0  0  0  0
 15 31  1  0  0  0  0
 15 32  1  0  0  0  0
 16 33  1  0  0  0  0
 16 34  1  0  0  0  0
M  CHG  1   4   1
M  END
> <s_m_source_file>
AV-unprocessed.smi

> <i_m_source_file_index>
3210

> <i_lp_mmshare_version>
43012

> <i_f3d_flags>
0

> <s_epik_input>
W0NIMl0xW0NIMl1bQ0hdMVtDSDJdW05IXUMoPU8pW0NIMl1bTkhdW0NIMl1bQ0gyXW4yW2NIXVtjSF1bY0hdbjI=

> <s_epik_cmdline>
J2VwaWtfcHl0aG9uJywgJy1waCcsICc3LjAnLCAnLXRuJywgJzgnLCAnLW1hJywgJzIwMCcsICctbWV0YWxfYmluZGluZycsICctaW1hZScsICc8aW5maWxlLm1hZT4nLCAnLW9tYWUnLCAnPG91dGZpbGUubWFlPic=

> <r_lp_tautomer_probability>
1

> <r_epik_Ionization_Penalty>
0.20724

> <r_epik_Ionization_Penalty_Charging>
0.207237

> <r_epik_Ionization_Penalty_Neutral>
3.19342e-06

> <r_epik_State_Penalty>
0.197611

> <r_epik_Charging_Adjusted_Penalty>
0.404848

> <i_epik_Tot_Q>
1

> <i_epik_Tot_abs_Q>
1

> <r_epik_Metal_State_Penalty>
0.197786

> <b_epik_Metal_Only>
0

> <s_lp_Force_Field>
OPLS_2005

> <r_lp_Energy>
10.8837

> <b_lp_Chiralities_Consistent>
1

> <s_lp_Variant>
AV-unprocessed.smi:3210-1

> <Gold.Version>
5.8.1

> <Gold.Id.Protein>
6NUR|6NUR_protein|mol2

> <Gold.PLP.Fitness>
48.0393

> <Gold.PLP.PLP>
-34.3365

> <Gold.PLP.part.hbond>
-2.4145

> <Gold.PLP.part.metal>
0.0000

> <Gold.PLP.part.buried>
-3.0893

> <Gold.PLP.part.nonpolar>
-30.0362

> <Gold.PLP.part.repulsive>
0.5554

> <Gold.PLP.ligand.clash>
0.0000

> <Gold.PLP.ligand.torsion>
0.9999

> <Gold.PLP.Chemscore.Hbond>
3.0000

> <Gold.PLP.Chemscore.CHOScore>
2.0000

> <Gold.PLP.Chemscore.Metal>
0.0000

> <Gold.Chemscore.Hbonds>
donor molecule, donor type, donor heavy atom, donor atom, acceptor molecule, acceptor atom, score
      L1  H     4    35       P1  7948  2.00
      L1  H    12    27       P1  7957  0.94
      L1  C     8    24       P1  7921  1.00
      L1  C    10    26       P1 10957  1.00

> <Gold.PLP.Chemscore.Internal.Correction>
0.7026

> <Gold.Rescore>
     Score         DG    S(hbond)    S(metal)    S(lipo)     H(rot)  DE(clash)    DE(int)     intcor
     13.72     -14.99       1.97        0.00      77.02       2.37       0.07       1.20       ----

> <Gold.Chemscore.Fitness>
13.7190

> <Gold.Chemscore.DG>
-14.9947

> <Gold.Chemscore.ZeroCoef>
-5.4800

> <Gold.Chemscore.Hbond>
1.9683

> <Gold.Chemscore.Metal>
0.0000

> <Gold.Chemscore.Lipo>
77.0237

> <Gold.Chemscore.Internal_Hbond>
0.0000

> <Gold.Chemscore.DEClash>
0.0712

> <Gold.Chemscore.DEInternal>
1.2045

> <Gold.Chemscore.Rot>
2.3715

> <Gold.Chemscore.Internal.Correction>
   9.000000E+99

> <Gold.Chemscore.Hbonds>
donor molecule, donor type, donor heavy atom, donor atom, acceptor molecule, acceptor atom, score
      L1  H     4    35       P1  7948  1.00
      L1  H    12    27       P1  7957  0.84

> <Gold.Chemscore.Hbond.Weighted>
-6.5741

> <Gold.Chemscore.Metal.Weighted>
-0.0000

> <Gold.Chemscore.Lipo.Weighted>
-9.0118

> <Gold.Chemscore.Internal_Hbond.Weighted>
0.0000

> <Gold.Chemscore.DEClash.Weighted>
0.0712

> <Gold.Chemscore.DEInternal.Weighted>
1.2045

> <Gold.Chemscore.Rot.Weighted>
6.0712

> <Gold.Chemscore.Internal.Correction.Weighted>
   9.000000E+99

> <Gold.Protein.RotatedTorsions>
[ 6907 6896 6895 6894 ] final  -16.78 input  -60.11 | X-H torsion
[ 7974 7965 7964 7962 ] final  -84.02 input  175.53 | X-H torsion
[ 8008 7997 7996 7995 ] final  -85.21 input   59.86 | X-H torsion
[ 10167 10162 10161 10158 ] final  -21.57 input  -65.29 | X-H torsion
[ 10718 10713 10712 10709 ] final  -24.43 input   66.30 | X-H torsion
[ 10763 10752 10751 10750 ] final  122.06 input  -60.55 | X-H torsion
[ 11005 11000 10999 10996 ] final   -6.26 input  -57.11 | X-H torsion

> <Gold.Protein.ActiveResidues>
 VAL166  LYS551  ARG553  GLY616  TRP617  ASP618  TYR619  PRO620  LYS621  CYS622 
 ASP623  PHE694  ASN695  SER759  ASP760  ASP761  ALA762  ILE779  LEU786  VAL792 
 PHE793  MET794  SER795  GLU796  ALA797  LYS798  CYS799  TRP800  GLU811  SER814 

> <Gold.Protein.RotatedAtoms>
  151.3034  135.0775  159.9246 H   0  0  0  0  0  0  0  0  0  0  0  0  # atno 6907 bound_to 6896
  152.5293  133.9810  159.7817 H   0  0  0  0  0  0  0  0  0  0  0  0  # atno 6908 bound_to 6896
  151.0101  133.5922  159.2714 H   0  0  0  0  0  0  0  0  0  0  0  0  # atno 6909 bound_to 6896
  145.5122  140.9539  143.1701 H   0  0  0  0  0  0  0  0  0  0  0  0  # atno 7974 bound_to 7965
  154.6382  140.0594  156.9814 H   0  0  0  0  0  0  0  0  0  0  0  0  # atno 8008 bound_to 7997
  155.1558  140.3278  155.4403 H   0  0  0  0  0  0  0  0  0  0  0  0  # atno 8009 bound_to 7997
  156.2518  140.1939  156.6667 H   0  0  0  0  0  0  0  0  0  0  0  0  # atno 8010 bound_to 7997
  140.7282  143.4615  151.0373 H   0  0  0  0  0  0  0  0  0  0  0  0  # atno 10167 bound_to 10162
  156.4778  130.4538  149.6830 H   0  0  0  0  0  0  0  0  0  0  0  0  # atno 10718 bound_to 10713
  153.6239  135.3408  155.3020 H   0  0  0  0  0  0  0  0  0  0  0  0  # atno 10763 bound_to 10752
  154.8594  135.4279  154.2178 H   0  0  0  0  0  0  0  0  0  0  0  0  # atno 10764 bound_to 10752
  153.3057  135.7028  153.7234 H   0  0  0  0  0  0  0  0  0  0  0  0  # atno 10765 bound_to 10752
  140.7001  133.8997  155.8677 H   0  0  0  0  0  0  0  0  0  0  0  0  # atno 11005 bound_to 11000
  144.7721  139.6711  143.7190 LP  0  0  0  0  0  0  0  0  0  0  0  0  # atno 17320 bound_to 7965
  146.2159  139.5549  142.9650 LP  0  0  0  0  0  0  0  0  0  0  0  0  # atno 17321 bound_to 7965
  139.8300  143.7704  152.3179 LP  0  0  0  0  0  0  0  0  0  0  0  0  # atno 17342 bound_to 10162
  139.7816  144.7442  151.0080 LP  0  0  0  0  0  0  0  0  0  0  0  0  # atno 17343 bound_to 10162
  156.3552  130.7453  151.2418 LP  0  0  0  0  0  0  0  0  0  0  0  0  # atno 17370 bound_to 10713
  157.7486  131.0366  150.4415 LP  0  0  0  0  0  0  0  0  0  0  0  0  # atno 17371 bound_to 10713
  141.0171  134.0940  157.4160 LP  0  0  0  0  0  0  0  0  0  0  0  0  # atno 17394 bound_to 11000
  139.8899  135.0108  156.6707 LP  0  0  0  0  0  0  0  0  0  0  0  0  # atno 17395 bound_to 11000

$$$$
