AV-unprocessed.smi:2083|AV-procd|sdf|8490|dock10
  -GOLD-   2272011193D 1   1.00000     0.00000
 Structure written by MMmdl.
 45 46  0  0  0  0  0  0  0  0  2 V2000
  151.2345  141.8841  156.9378 C   0  0  0  0  0  0  0  0  0  0  0  0
  150.9065  140.7759  155.9969 C   0  0  0  0  0  0  0  0  0  0  0  0
  149.7252  140.2550  155.5491 C   0  0  0  0  0  0  0  0  0  0  0  0
  150.1444  139.2147  154.6783 C   0  0  0  0  0  0  0  0  0  0  0  0
  149.1955  138.4083  153.9997 N   0  0  0  0  0  0  0  0  0  0  0  0
  147.8571  138.4502  154.1106 C   0  0  0  0  0  0  0  0  0  0  0  0
  147.2276  139.2045  154.8529 O   0  0  0  0  0  0  0  0  0  0  0  0
  147.2726  137.5529  153.3037 N   0  0  0  0  0  0  0  0  0  0  0  0
  145.8312  137.3566  153.1775 C   0  0  0  0  0  0  0  0  0  0  0  0
  145.4340  136.5126  151.9330 C   0  0  2  0  0  0  0  0  0  0  0  0
  143.8999  136.3332  151.8765 C   0  0  0  0  0  0  0  0  0  0  0  0
  146.1064  135.1730  151.8556 N   0  3  1  0  0  0  0  0  0  0  0  0
  146.0992  134.4683  153.1696 C   0  0  0  0  0  0  0  0  0  0  0  0
  146.9642  133.2002  153.1364 C   0  0  0  0  0  0  0  0  0  0  0  0
  146.4790  132.2456  152.0421 C   0  0  0  0  0  0  0  0  0  0  0  0
  146.4675  132.9695  150.6883 C   0  0  1  0  0  0  0  0  0  0  0  0
  145.9673  132.0487  149.5659 C   0  0  0  0  0  0  0  0  0  0  0  0
  145.6323  134.2646  150.7694 C   0  0  0  0  0  0  0  0  0  0  0  0
  151.4619  139.1112  154.5985 N   0  0  0  0  0  0  0  0  0  0  0  0
  151.9573  140.1111  155.4440 O   0  0  0  0  0  0  0  0  0  0  0  0
  150.3370  142.4369  157.2160 H   0  0  0  0  0  0  0  0  0  0  0  0
  151.9354  142.5844  156.4831 H   0  0  0  0  0  0  0  0  0  0  0  0
  151.6877  141.4943  157.8492 H   0  0  0  0  0  0  0  0  0  0  0  0
  148.7248  140.5690  155.8069 H   0  0  0  0  0  0  0  0  0  0  0  0
  149.5775  137.7343  153.3530 H   0  0  0  0  0  0  0  0  0  0  0  0
  147.8647  136.9731  152.7266 H   0  0  0  0  0  0  0  0  0  0  0  0
  145.4869  136.8901  154.1018 H   0  0  0  0  0  0  0  0  0  0  0  0
  145.3660  138.3418  153.1270 H   0  0  0  0  0  0  0  0  0  0  0  0
  145.7431  137.0793  151.0532 H   0  0  0  0  0  0  0  0  0  0  0  0
  143.3809  137.2915  151.8604 H   0  0  0  0  0  0  0  0  0  0  0  0
  143.5380  135.7789  152.7430 H   0  0  0  0  0  0  0  0  0  0  0  0
  143.5717  135.7993  150.9864 H   0  0  0  0  0  0  0  0  0  0  0  0
  146.4705  135.1147  153.9628 H   0  0  0  0  0  0  0  0  0  0  0  0
  145.0730  134.2098  153.4367 H   0  0  0  0  0  0  0  0  0  0  0  0
  148.0067  133.4685  152.9601 H   0  0  0  0  0  0  0  0  0  0  0  0
  146.9322  132.7013  154.1055 H   0  0  0  0  0  0  0  0  0  0  0  0
  147.1260  131.3686  151.9995 H   0  0  0  0  0  0  0  0  0  0  0  0
  145.4776  131.8858  152.2836 H   0  0  0  0  0  0  0  0  0  0  0  0
  147.4951  133.2482  150.4485 H   0  0  0  0  0  0  0  0  0  0  0  0
  144.9371  131.7358  149.7389 H   0  0  0  0  0  0  0  0  0  0  0  0
  146.5801  131.1497  149.4926 H   0  0  0  0  0  0  0  0  0  0  0  0
  146.0046  132.5505  148.5985 H   0  0  0  0  0  0  0  0  0  0  0  0
  144.5775  134.0311  150.9240 H   0  0  0  0  0  0  0  0  0  0  0  0
  145.7199  134.7530  149.7997 H   0  0  0  0  0  0  0  0  0  0  0  0
  147.0731  135.3665  151.6367 H   0  0  0  0  0  0  0  0  0  0  0  0
  1  2  1  0  0  0  0
  1 21  1  0  0  0  0
  1 22  1  0  0  0  0
  1 23  1  0  0  0  0
  2 20  1  0  0  0  0
  2  3  2  0  0  0  0
  3  4  1  0  0  0  0
  3 24  1  0  0  0  0
  4  5  1  0  0  0  0
  4 19  2  0  0  0  0
  5  6  1  0  0  0  0
  5 25  1  0  0  0  0
  6  7  2  0  0  0  0
  6  8  1  0  0  0  0
  8  9  1  0  0  0  0
  8 26  1  0  0  0  0
  9 10  1  0  0  0  0
  9 27  1  0  0  0  0
  9 28  1  0  0  0  0
 10 11  1  0  0  0  0
 10 12  1  0  0  0  0
 10 29  1  0  0  0  0
 11 30  1  0  0  0  0
 11 31  1  0  0  0  0
 11 32  1  0  0  0  0
 12 18  1  0  0  0  0
 12 13  1  0  0  0  0
 12 45  1  0  0  0  0
 13 14  1  0  0  0  0
 13 33  1  0  0  0  0
 13 34  1  0  0  0  0
 14 15  1  0  0  0  0
 14 35  1  0  0  0  0
 14 36  1  0  0  0  0
 15 16  1  0  0  0  0
 15 37  1  0  0  0  0
 15 38  1  0  0  0  0
 16 17  1  0  0  0  0
 16 18  1  0  0  0  0
 16 39  1  0  0  0  0
 17 40  1  0  0  0  0
 17 41  1  0  0  0  0
 17 42  1  0  0  0  0
 18 43  1  0  0  0  0
 18 44  1  0  0  0  0
 19 20  1  0  0  0  0
M  CHG  1  12   1
M  END
> <s_m_source_file>
AV-unprocessed.smi

> <i_m_source_file_index>
2083

> <i_lp_mmshare_version>
43012

> <i_f3d_flags>
0

> <s_epik_input>
W0NIM11jMVtjSF1jKG5vMSlbTkhdQyg9TylbTkhdW0NIMl1bQ0BIXShbQ0gzXSlOMltDSDJdW0NIMl1bQ0gyXVtDQEBIXShbQ0gzXSlbQ0gyXTI=

> <s_epik_cmdline>
J2VwaWtfcHl0aG9uJywgJy1waCcsICc3LjAnLCAnLXRuJywgJzgnLCAnLW1hJywgJzIwMCcsICctbWV0YWxfYmluZGluZycsICctaW1hZScsICc8aW5maWxlLm1hZT4nLCAnLW9tYWUnLCAnPG91dGZpbGUubWFlPic=

> <r_epik_Ionization_Penalty>
0.00216453

> <r_epik_Ionization_Penalty_Charging>
0.00212879

> <r_epik_Ionization_Penalty_Neutral>
3.57418e-05

> <r_epik_State_Penalty>
0.00146033

> <r_epik_Charging_Adjusted_Penalty>
0.00358912

> <i_epik_Tot_Q>
1

> <i_epik_Tot_abs_Q>
1

> <r_epik_Metal_State_Penalty>
0.0215827

> <b_epik_Metal_Only>
0

> <s_lp_Force_Field>
OPLS_2005

> <r_lp_Energy>
19.0311

> <b_lp_Chiralities_Consistent>
1

> <s_lp_Variant>
AV-unprocessed.smi:2083-1

> <Gold.Version>
5.8.1

> <Gold.Id.Protein>
6NUR|6NUR_protein|mol2

> <Gold.PLP.Fitness>
44.2283

> <Gold.PLP.PLP>
-34.0222

> <Gold.PLP.part.hbond>
-5.3788

> <Gold.PLP.part.metal>
0.0000

> <Gold.PLP.part.buried>
-3.8947

> <Gold.PLP.part.nonpolar>
-25.0075

> <Gold.PLP.part.repulsive>
0.2948

> <Gold.PLP.ligand.clash>
0.0000

> <Gold.PLP.ligand.torsion>
0.2909

> <Gold.PLP.Chemscore.Hbond>
3.5756

> <Gold.PLP.Chemscore.CHOScore>
0.0000

> <Gold.PLP.Chemscore.Metal>
0.0000

> <Gold.Chemscore.Hbonds>
donor molecule, donor type, donor heavy atom, donor atom, acceptor molecule, acceptor atom, score
      L1  H     5    25       P1  7948  0.55
      L1  H     8    26       P1  7948  1.00
      L1  H    12    45       P1  7948  1.95

> <Gold.PLP.Chemscore.Internal.Correction>
0.0609

> <Gold.Rescore>
     Score         DG    S(hbond)    S(metal)    S(lipo)     H(rot)  DE(clash)    DE(int)     intcor
     16.80     -18.48       2.48        0.00      74.25       1.55       0.03       1.65       ----

> <Gold.Chemscore.Fitness>
16.8016

> <Gold.Chemscore.DG>
-18.4777

> <Gold.Chemscore.ZeroCoef>
-5.4800

> <Gold.Chemscore.Hbond>
2.4767

> <Gold.Chemscore.Metal>
0.0000

> <Gold.Chemscore.Lipo>
74.2465

> <Gold.Chemscore.Internal_Hbond>
0.0000

> <Gold.Chemscore.DEClash>
0.0311

> <Gold.Chemscore.DEInternal>
1.6450

> <Gold.Chemscore.Rot>
1.5474

> <Gold.Chemscore.Internal.Correction>
   9.000000E+99

> <Gold.Chemscore.Hbonds>
donor molecule, donor type, donor heavy atom, donor atom, acceptor molecule, acceptor atom, score
      L1  H     5    25       P1  7948  0.48
      L1  H     8    26       P1  7948  0.97
      L1  H    12    45       P1  7948  0.90

> <Gold.Chemscore.Hbond.Weighted>
-8.2721

> <Gold.Chemscore.Metal.Weighted>
-0.0000

> <Gold.Chemscore.Lipo.Weighted>
-8.6868

> <Gold.Chemscore.Internal_Hbond.Weighted>
0.0000

> <Gold.Chemscore.DEClash.Weighted>
0.0311

> <Gold.Chemscore.DEInternal.Weighted>
1.6450

> <Gold.Chemscore.Rot.Weighted>
3.9612

> <Gold.Chemscore.Internal.Correction.Weighted>
   9.000000E+99

> <Gold.Protein.RotatedTorsions>
[ 6907 6896 6895 6894 ] final -130.58 input  -60.11 | X-H torsion
[ 7974 7965 7964 7962 ] final   65.67 input  175.53 | X-H torsion
[ 8008 7997 7996 7995 ] final  -10.12 input   59.86 | X-H torsion
[ 10167 10162 10161 10158 ] final  -18.73 input  -65.29 | X-H torsion
[ 10718 10713 10712 10709 ] final -126.70 input   66.30 | X-H torsion
[ 10763 10752 10751 10750 ] final  154.46 input  -60.55 | X-H torsion
[ 11005 11000 10999 10996 ] final  160.73 input  -57.11 | X-H torsion

> <Gold.Protein.ActiveResidues>
 VAL166  LYS551  ARG553  GLY616  TRP617  ASP618  TYR619  PRO620  LYS621  CYS622 
 ASP623  PHE694  ASN695  SER759  ASP760  ASP761  ALA762  ILE779  LEU786  VAL792 
 PHE793  MET794  SER795  GLU796  ALA797  LYS798  CYS799  TRP800  GLU811  SER814 

> <Gold.Protein.RotatedAtoms>
  150.9413  133.6653  159.2789 H   0  0  0  0  0  0  0  0  0  0  0  0  # atno 6907 bound_to 6896
  151.4041  135.0974  159.9574 H   0  0  0  0  0  0  0  0  0  0  0  0  # atno 6908 bound_to 6896
  152.5071  133.8901  159.7444 H   0  0  0  0  0  0  0  0  0  0  0  0  # atno 6909 bound_to 6896
  145.8357  139.3165  143.0961 H   0  0  0  0  0  0  0  0  0  0  0  0  # atno 7974 bound_to 7965
  154.5584  140.2337  155.8374 H   0  0  0  0  0  0  0  0  0  0  0  0  # atno 8008 bound_to 7997
  156.2008  140.3053  155.9482 H   0  0  0  0  0  0  0  0  0  0  0  0  # atno 8009 bound_to 7997
  155.2936  140.0428  157.3015 H   0  0  0  0  0  0  0  0  0  0  0  0  # atno 8010 bound_to 7997
  140.7261  143.4887  151.0020 H   0  0  0  0  0  0  0  0  0  0  0  0  # atno 10167 bound_to 10162
  156.1789  130.6718  151.0278 H   0  0  0  0  0  0  0  0  0  0  0  0  # atno 10718 bound_to 10713
  154.1526  135.2814  155.3131 H   0  0  0  0  0  0  0  0  0  0  0  0  # atno 10763 bound_to 10752
  154.6206  135.5468  153.7574 H   0  0  0  0  0  0  0  0  0  0  0  0  # atno 10764 bound_to 10752
  153.0216  135.6438  154.1670 H   0  0  0  0  0  0  0  0  0  0  0  0  # atno 10765 bound_to 10752
  140.2088  134.8283  157.3098 H   0  0  0  0  0  0  0  0  0  0  0  0  # atno 11005 bound_to 11000
  145.9522  140.8900  143.0253 LP  0  0  0  0  0  0  0  0  0  0  0  0  # atno 17320 bound_to 7965
  144.6736  140.1695  143.7415 LP  0  0  0  0  0  0  0  0  0  0  0  0  # atno 17321 bound_to 7965
  139.8590  143.7339  152.3174 LP  0  0  0  0  0  0  0  0  0  0  0  0  # atno 17342 bound_to 10162
  139.7548  144.7524  151.0453 LP  0  0  0  0  0  0  0  0  0  0  0  0  # atno 17343 bound_to 10162
  157.6854  131.0826  150.7256 LP  0  0  0  0  0  0  0  0  0  0  0  0  # atno 17370 bound_to 10713
  156.7313  130.4710  149.5499 LP  0  0  0  0  0  0  0  0  0  0  0  0  # atno 17371 bound_to 10713
  140.1973  134.4298  155.7682 LP  0  0  0  0  0  0  0  0  0  0  0  0  # atno 17394 bound_to 11000
  141.2226  133.7055  156.8126 LP  0  0  0  0  0  0  0  0  0  0  0  0  # atno 17395 bound_to 11000

$$$$
