AV-unprocessed.smi:1978|AV-procd|sdf|8009|dock9
  -GOLD-   2272010193D 1   1.00000     0.00000
 Structure written by MMmdl.
 44 45  0  0  0  0  0  0  0  0  3 V2000
  153.2369  142.0756  161.3881 C   0  0  0  0  0  0  0  0  0  0  0  0
  152.9987  141.3653  160.0999 C   0  0  0  0  0  0  0  0  0  0  0  0
  152.0658  141.5174  159.1134 C   0  0  0  0  0  0  0  0  0  0  0  0
  152.4181  140.5072  158.1788 C   0  0  0  0  0  0  0  0  0  0  0  0
  151.6676  140.3317  156.9861 N   0  0  0  0  0  0  0  0  0  0  0  0
  152.0215  139.6994  155.8524 C   0  0  0  0  0  0  0  0  0  0  0  0
  153.1453  139.1946  155.7432 O   0  0  0  0  0  0  0  0  0  0  0  0
  151.0239  139.7078  154.9265 N   0  5  0  0  0  0  0  0  0  0  0  0
  150.5408  138.5240  154.2162 C   0  0  0  0  0  0  0  0  0  0  0  0
  149.1780  138.0491  154.8121 C   0  0  1  0  0  0  0  0  0  0  0  0
  148.0275  138.9182  154.2163 C   0  0  0  0  0  0  0  0  0  0  0  0
  148.9964  136.5633  154.6160 N   0  3  1  0  0  0  0  0  0  0  0  0
  150.1452  135.7198  155.0828 C   0  0  0  0  0  0  0  0  0  0  0  0
  150.0558  134.3025  154.4921 C   0  0  0  0  0  0  0  0  0  0  0  0
  148.7255  133.6293  154.8475 C   0  0  0  0  0  0  0  0  0  0  0  0
  147.5492  134.5404  154.4643 C   0  0  0  0  0  0  0  0  0  0  0  0
  147.6917  135.9622  155.0500 C   0  0  1  0  0  0  0  0  0  0  0  0
  147.4824  135.9690  156.5842 C   0  0  0  0  0  0  0  0  0  0  0  0
  153.4723  139.8023  158.5622 N   0  0  0  0  0  0  0  0  0  0  0  0
  153.8495  140.3484  159.7947 O   0  0  0  0  0  0  0  0  0  0  0  0
  152.7292  143.0400  161.4003 H   0  0  0  0  0  0  0  0  0  0  0  0
  154.3014  142.2527  161.5431 H   0  0  0  0  0  0  0  0  0  0  0  0
  152.8657  141.4870  162.2269 H   0  0  0  0  0  0  0  0  0  0  0  0
  151.2604  142.2351  159.0698 H   0  0  0  0  0  0  0  0  0  0  0  0
  150.7393  140.7271  156.9943 H   0  0  0  0  0  0  0  0  0  0  0  0
  150.4178  138.7084  153.1482 H   0  0  0  0  0  0  0  0  0  0  0  0
  151.2689  137.7163  154.2803 H   0  0  0  0  0  0  0  0  0  0  0  0
  149.1839  138.2180  155.8905 H   0  0  0  0  0  0  0  0  0  0  0  0
  148.1833  139.9871  154.3775 H   0  0  0  0  0  0  0  0  0  0  0  0
  147.0636  138.7129  154.6755 H   0  0  0  0  0  0  0  0  0  0  0  0
  147.9100  138.7696  153.1409 H   0  0  0  0  0  0  0  0  0  0  0  0
  151.1079  136.1346  154.7893 H   0  0  0  0  0  0  0  0  0  0  0  0
  150.1715  135.6835  156.1716 H   0  0  0  0  0  0  0  0  0  0  0  0
  150.1589  134.3561  153.4075 H   0  0  0  0  0  0  0  0  0  0  0  0
  150.8872  133.6951  154.8510 H   0  0  0  0  0  0  0  0  0  0  0  0
  148.6409  132.6723  154.3316 H   0  0  0  0  0  0  0  0  0  0  0  0
  148.6982  133.4032  155.9136 H   0  0  0  0  0  0  0  0  0  0  0  0
  147.4929  134.6071  153.3768 H   0  0  0  0  0  0  0  0  0  0  0  0
  146.6098  134.0906  154.7876 H   0  0  0  0  0  0  0  0  0  0  0  0
  146.8783  136.5302  154.6009 H   0  0  0  0  0  0  0  0  0  0  0  0
  146.4654  135.6630  156.8308 H   0  0  0  0  0  0  0  0  0  0  0  0
  147.6390  136.9510  157.0264 H   0  0  0  0  0  0  0  0  0  0  0  0
  148.1519  135.2841  157.1021 H   0  0  0  0  0  0  0  0  0  0  0  0
  148.9895  136.4644  153.6108 H   0  0  0  0  0  0  0  0  0  0  0  0
  1  2  1  0  0  0  0
  1 21  1  0  0  0  0
  1 22  1  0  0  0  0
  1 23  1  0  0  0  0
  2 20  1  0  0  0  0
  2  3  2  0  0  0  0
  3  4  1  0  0  0  0
  3 24  1  0  0  0  0
  4  5  1  0  0  0  0
  4 19  2  0  0  0  0
  5  6  1  0  0  0  0
  5 25  1  0  0  0  0
  6  7  2  0  0  0  0
  6  8  1  0  0  0  0
  8  9  1  0  0  0  0
  9 10  1  0  0  0  0
  9 26  1  0  0  0  0
  9 27  1  0  0  0  0
 10 11  1  0  0  0  0
 10 12  1  0  0  0  0
 10 28  1  0  0  0  0
 11 29  1  0  0  0  0
 11 30  1  0  0  0  0
 11 31  1  0  0  0  0
 12 17  1  0  0  0  0
 12 13  1  0  0  0  0
 12 44  1  0  0  0  0
 13 14  1  0  0  0  0
 13 32  1  0  0  0  0
 13 33  1  0  0  0  0
 14 15  1  0  0  0  0
 14 34  1  0  0  0  0
 14 35  1  0  0  0  0
 15 16  1  0  0  0  0
 15 36  1  0  0  0  0
 15 37  1  0  0  0  0
 16 17  1  0  0  0  0
 16 38  1  0  0  0  0
 16 39  1  0  0  0  0
 17 18  1  0  0  0  0
 17 40  1  0  0  0  0
 18 41  1  0  0  0  0
 18 42  1  0  0  0  0
 18 43  1  0  0  0  0
 19 20  1  0  0  0  0
M  CHG  1   8  -1
M  CHG  1  12   1
M  END
> <s_m_source_file>
AV-unprocessed.smi

> <i_m_source_file_index>
1978

> <i_lp_mmshare_version>
43012

> <i_f3d_flags>
0

> <s_epik_input>
W0NIM11jMVtjSF1jKG5vMSlbTkhdQyg9TylbTkhdW0NIMl1bQ0BIXShbQ0gzXSlOMltDSDJdW0NIMl1bQ0gyXVtDSDJdW0NASF0yW0NIM10=

> <s_epik_cmdline>
J2VwaWtfcHl0aG9uJywgJy1waCcsICc3LjAnLCAnLXRuJywgJzgnLCAnLW1hJywgJzIwMCcsICctbWV0YWxfYmluZGluZycsICctaW1hZScsICc8aW5maWxlLm1hZT4nLCAnLW9tYWUnLCAnPG91dGZpbGUubWFlPic=

> <r_epik_Ionization_Penalty>
6.7666

> <r_epik_Ionization_Penalty_Charging>
6.7666

> <r_epik_Ionization_Penalty_Neutral>
5.77131e-06

> <r_epik_State_Penalty>
6.79217

> <r_epik_Charging_Adjusted_Penalty>
13.5588

> <i_epik_Tot_Q>
0

> <i_epik_Tot_abs_Q>
2

> <r_epik_Metal_State_Penalty>
2.72569

> <b_epik_Metal_Only>
1

> <s_lp_Force_Field>
OPLS_2005

> <r_lp_Energy>
25.8375

> <b_lp_Chiralities_Consistent>
1

> <s_lp_Variant>
AV-unprocessed.smi:1978-18

> <Gold.Version>
5.8.1

> <Gold.Id.Protein>
6NUR|6NUR_protein|mol2

> <Gold.PLP.Fitness>
43.3507

> <Gold.PLP.PLP>
-32.2669

> <Gold.PLP.part.hbond>
-3.7947

> <Gold.PLP.part.metal>
0.0000

> <Gold.PLP.part.buried>
-5.3235

> <Gold.PLP.part.nonpolar>
-22.8197

> <Gold.PLP.part.repulsive>
0.1764

> <Gold.PLP.ligand.clash>
0.0000

> <Gold.PLP.ligand.torsion>
0.9439

> <Gold.PLP.Chemscore.Hbond>
4.2800

> <Gold.PLP.Chemscore.CHOScore>
0.0000

> <Gold.PLP.Chemscore.Metal>
0.0000

> <Gold.Chemscore.Hbonds>
donor molecule, donor type, donor heavy atom, donor atom, acceptor molecule, acceptor atom, score
      L1  H    12    44       P1  7948  2.00
      P1  H  7989  7998       L1     8  1.00
      P1  H  7997  8008       L1     7  0.53
      P1  H  7997  8010       L1    19  0.88

> <Gold.PLP.Chemscore.Internal.Correction>
0.1315

> <Gold.Rescore>
     Score         DG    S(hbond)    S(metal)    S(lipo)     H(rot)  DE(clash)    DE(int)     intcor
     16.05     -18.31       2.53        0.00      70.65       1.52       0.06       2.20       ----

> <Gold.Chemscore.Fitness>
16.0507

> <Gold.Chemscore.DG>
-18.3117

> <Gold.Chemscore.ZeroCoef>
-5.4800

> <Gold.Chemscore.Hbond>
2.5313

> <Gold.Chemscore.Metal>
0.0000

> <Gold.Chemscore.Lipo>
70.6493

> <Gold.Chemscore.Internal_Hbond>
0.0000

> <Gold.Chemscore.DEClash>
0.0628

> <Gold.Chemscore.DEInternal>
2.1983

> <Gold.Chemscore.Rot>
1.5190

> <Gold.Chemscore.Internal.Correction>
   9.000000E+99

> <Gold.Chemscore.Hbonds>
donor molecule, donor type, donor heavy atom, donor atom, acceptor molecule, acceptor atom, score
      L1  H    12    44       P1  7948  1.00
      P1  H  7989  7998       L1     8  0.22
      P1  H  7997  8008       L1     7  0.51
      P1  H  7997  8010       L1    19  0.43

> <Gold.Chemscore.Hbond.Weighted>
-8.4544

> <Gold.Chemscore.Metal.Weighted>
-0.0000

> <Gold.Chemscore.Lipo.Weighted>
-8.2660

> <Gold.Chemscore.Internal_Hbond.Weighted>
0.0000

> <Gold.Chemscore.DEClash.Weighted>
0.0628

> <Gold.Chemscore.DEInternal.Weighted>
2.1983

> <Gold.Chemscore.Rot.Weighted>
3.8886

> <Gold.Chemscore.Internal.Correction.Weighted>
   9.000000E+99

> <Gold.Protein.RotatedTorsions>
[ 6907 6896 6895 6894 ] final   34.26 input  -60.11 | X-H torsion
[ 7974 7965 7964 7962 ] final  -45.98 input  175.53 | X-H torsion
[ 8008 7997 7996 7995 ] final    5.88 input   59.86 | X-H torsion
[ 10167 10162 10161 10158 ] final  -13.55 input  -65.29 | X-H torsion
[ 10718 10713 10712 10709 ] final -151.19 input   66.30 | X-H torsion
[ 10763 10752 10751 10750 ] final  150.46 input  -60.55 | X-H torsion
[ 11005 11000 10999 10996 ] final   49.37 input  -57.11 | X-H torsion

> <Gold.Protein.ActiveResidues>
 VAL166  LYS551  ARG553  GLY616  TRP617  ASP618  TYR619  PRO620  LYS621  CYS622 
 ASP623  PHE694  ASN695  SER759  ASP760  ASP761  ALA762  ILE779  LEU786  VAL792 
 PHE793  MET794  SER795  GLU796  ALA797  LYS798  CYS799  TRP800  GLU811  SER814 

> <Gold.Protein.RotatedAtoms>
  152.0999  134.9349  160.0569 H   0  0  0  0  0  0  0  0  0  0  0  0  # atno 6907 bound_to 6896
  152.0568  133.4039  159.4409 H   0  0  0  0  0  0  0  0  0  0  0  0  # atno 6908 bound_to 6896
  150.6839  134.3166  159.4812 H   0  0  0  0  0  0  0  0  0  0  0  0  # atno 6909 bound_to 6896
  145.9765  140.7328  142.9384 H   0  0  0  0  0  0  0  0  0  0  0  0  # atno 7974 bound_to 7965
  154.7339  140.2736  155.6431 H   0  0  0  0  0  0  0  0  0  0  0  0  # atno 8008 bound_to 7997
  156.2857  140.2710  156.1973 H   0  0  0  0  0  0  0  0  0  0  0  0  # atno 8009 bound_to 7997
  155.0345  140.0371  157.2476 H   0  0  0  0  0  0  0  0  0  0  0  0  # atno 8010 bound_to 7997
  140.7184  143.5414  150.9405 H   0  0  0  0  0  0  0  0  0  0  0  0  # atno 10167 bound_to 10162
  156.4560  130.8190  151.2421 H   0  0  0  0  0  0  0  0  0  0  0  0  # atno 10718 bound_to 10713
  154.0879  135.2854  155.3277 H   0  0  0  0  0  0  0  0  0  0  0  0  # atno 10763 bound_to 10752
  154.6640  135.5324  153.8057 H   0  0  0  0  0  0  0  0  0  0  0  0  # atno 10764 bound_to 10752
  153.0424  135.6541  154.1049 H   0  0  0  0  0  0  0  0  0  0  0  0  # atno 10765 bound_to 10752
  140.1109  134.4956  155.8678 H   0  0  0  0  0  0  0  0  0  0  0  0  # atno 11005 bound_to 11000
  144.6850  140.2837  143.7288 LP  0  0  0  0  0  0  0  0  0  0  0  0  # atno 17320 bound_to 7965
  145.7831  139.1898  143.2146 LP  0  0  0  0  0  0  0  0  0  0  0  0  # atno 17321 bound_to 7965
  139.9137  143.6690  152.3110 LP  0  0  0  0  0  0  0  0  0  0  0  0  # atno 17342 bound_to 10162
  139.7082  144.7624  151.1157 LP  0  0  0  0  0  0  0  0  0  0  0  0  # atno 17343 bound_to 10162
  157.7500  131.0122  150.3377 LP  0  0  0  0  0  0  0  0  0  0  0  0  # atno 17370 bound_to 10713
  156.3766  130.3873  149.7134 LP  0  0  0  0  0  0  0  0  0  0  0  0  # atno 17371 bound_to 10713
  141.2130  133.6727  156.6703 LP  0  0  0  0  0  0  0  0  0  0  0  0  # atno 17394 bound_to 11000
  140.3092  134.8100  157.4162 LP  0  0  0  0  0  0  0  0  0  0  0  0  # atno 17395 bound_to 11000

$$$$
