AV-unprocessed.smi:33|AV-procd|sdf|212|dock7
  -GOLD-   2262015513D 1   1.00000     0.00000
 Structure written by MMmdl.
 67 72  0  0  0  0  0  0  0  0  1 V2000
  151.1263  143.2694  158.0131 O   0  0  0  0  0  0  0  0  0  0  0  0
  151.6421  142.2767  158.5309 C   0  0  0  0  0  0  0  0  0  0  0  0
  151.5540  141.0354  158.0147 O   0  0  0  0  0  0  0  0  0  0  0  0
  150.8452  140.8173  156.8061 C   0  0  0  0  0  0  0  0  0  0  0  0
  151.2191  139.4403  156.2445 C   0  0  1  0  0  0  0  0  0  0  0  0
  150.7826  138.4045  157.1112 O   0  0  0  0  0  0  0  0  0  0  0  0
  150.7228  137.2149  156.3880 C   0  0  1  0  0  0  0  0  0  0  0  0
  149.5500  136.4294  156.8762 N   0  0  0  0  0  0  0  0  0  0  0  0
  148.2215  136.7880  156.8235 C   0  0  0  0  0  0  0  0  0  0  0  0
  147.3881  135.9285  157.3447 N   0  0  0  0  0  0  0  0  0  0  0  0
  148.2047  134.8943  157.7840 C   0  0  0  0  0  0  0  0  0  0  0  0
  147.9657  133.6582  158.4429 C   0  0  0  0  0  0  0  0  0  0  0  0
  146.7276  133.2430  158.8013 N   0  0  0  0  0  0  0  0  0  0  0  0
  146.5155  132.9120  160.2177 C   0  0  0  0  0  0  0  0  0  0  0  0
  145.6307  132.1129  160.5300 O   0  0  0  0  0  0  0  0  0  0  0  0
  147.4004  133.5037  161.2781 C   0  0  0  0  0  0  0  0  0  0  0  0
  147.7298  134.8763  161.2397 C   0  0  0  0  0  0  0  0  0  0  0  0
  148.5707  135.4323  162.2233 C   0  0  0  0  0  0  0  0  0  0  0  0
  149.1021  134.6163  163.2401 C   0  0  0  0  0  0  0  0  0  0  0  0
  148.8007  133.2413  163.2678 C   0  0  0  0  0  0  0  0  0  0  0  0
  147.9600  132.6847  162.2848 C   0  0  0  0  0  0  0  0  0  0  0  0
  145.7119  133.1582  157.7408 C   0  0  0  0  0  0  0  0  0  0  0  0
  144.5178  133.2393  158.0364 O   0  0  0  0  0  0  0  0  0  0  0  0
  146.1188  133.0329  156.2996 C   0  0  0  0  0  0  0  0  0  0  0  0
  145.3789  133.6982  155.2973 C   0  0  0  0  0  0  0  0  0  0  0  0
  145.7439  133.5719  153.9429 C   0  0  0  0  0  0  0  0  0  0  0  0
  146.8392  132.7652  153.5801 C   0  0  0  0  0  0  0  0  0  0  0  0
  147.5642  132.0770  154.5715 C   0  0  0  0  0  0  0  0  0  0  0  0
  147.2003  132.2033  155.9261 C   0  0  0  0  0  0  0  0  0  0  0  0
  149.0351  132.8717  158.7311 N   0  0  0  0  0  0  0  0  0  0  0  0
  150.2643  133.2748  158.3972 C   0  0  0  0  0  0  0  0  0  0  0  0
  150.6360  134.4027  157.7877 N   0  0  0  0  0  0  0  0  0  0  0  0
  149.5641  135.1948  157.4937 C   0  0  0  0  0  0  0  0  0  0  0  0
  150.5537  137.5739  154.9009 C   0  0  2  0  0  0  0  0  0  0  0  0
  151.6360  137.1083  154.1202 O   0  0  0  0  0  0  0  0  0  0  0  0
  150.5412  139.0965  154.9172 C   0  0  1  0  0  0  0  0  0  0  0  0
  149.2796  139.5303  154.8982 F   0  0  0  0  0  0  0  0  0  0  0  0
  152.4272  142.3235  159.7982 C   0  0  0  0  0  0  0  0  0  0  0  0
  153.5097  141.4305  159.9759 C   0  0  0  0  0  0  0  0  0  0  0  0
  154.2716  141.4536  161.1604 C   0  0  0  0  0  0  0  0  0  0  0  0
  153.9594  142.3689  162.1824 C   0  0  0  0  0  0  0  0  0  0  0  0
  152.8837  143.2610  162.0188 C   0  0  0  0  0  0  0  0  0  0  0  0
  152.1214  143.2403  160.8344 C   0  0  0  0  0  0  0  0  0  0  0  0
  149.7681  140.8808  156.9692 H   0  0  0  0  0  0  0  0  0  0  0  0
  151.1188  141.5977  156.0948 H   0  0  0  0  0  0  0  0  0  0  0  0
  152.3008  139.3614  156.1204 H   0  0  0  0  0  0  0  0  0  0  0  0
  151.5923  136.5891  156.5959 H   0  0  0  0  0  0  0  0  0  0  0  0
  147.8877  137.7200  156.3909 H   0  0  0  0  0  0  0  0  0  0  0  0
  147.3276  135.5123  160.4642 H   0  0  0  0  0  0  0  0  0  0  0  0
  148.8087  136.4855  162.1967 H   0  0  0  0  0  0  0  0  0  0  0  0
  149.7464  135.0434  163.9944 H   0  0  0  0  0  0  0  0  0  0  0  0
  149.2154  132.6129  164.0419 H   0  0  0  0  0  0  0  0  0  0  0  0
  147.7405  131.6268  162.3127 H   0  0  0  0  0  0  0  0  0  0  0  0
  144.5360  134.3195  155.5638 H   0  0  0  0  0  0  0  0  0  0  0  0
  145.1819  134.0932  153.1821 H   0  0  0  0  0  0  0  0  0  0  0  0
  147.1185  132.6687  152.5413 H   0  0  0  0  0  0  0  0  0  0  0  0
  148.3988  131.4508  154.2930 H   0  0  0  0  0  0  0  0  0  0  0  0
  147.7614  131.6662  156.6776 H   0  0  0  0  0  0  0  0  0  0  0  0
  151.0652  132.5987  158.6576 H   0  0  0  0  0  0  0  0  0  0  0  0
  149.6256  137.1649  154.4975 H   0  0  0  0  0  0  0  0  0  0  0  0
  151.3314  136.9730  153.2357 H   0  0  0  0  0  0  0  0  0  0  0  0
  151.0385  139.5502  154.0590 H   0  0  0  0  0  0  0  0  0  0  0  0
  153.7690  140.7195  159.2047 H   0  0  0  0  0  0  0  0  0  0  0  0
  155.0972  140.7684  161.2838 H   0  0  0  0  0  0  0  0  0  0  0  0
  154.5439  142.3866  163.0905 H   0  0  0  0  0  0  0  0  0  0  0  0
  152.6425  143.9639  162.8026 H   0  0  0  0  0  0  0  0  0  0  0  0
  151.3029  143.9390  160.7413 H   0  0  0  0  0  0  0  0  0  0  0  0
  1  2  2  0  0  0  0
  2  3  1  0  0  0  0
  2 38  1  0  0  0  0
  3  4  1  0  0  0  0
  4  5  1  0  0  0  0
  4 44  1  0  0  0  0
  4 45  1  0  0  0  0
  5 36  1  0  0  0  0
  5  6  1  0  0  0  0
  5 46  1  0  0  0  0
  6  7  1  0  0  0  0
  7  8  1  0  0  0  0
  7 34  1  0  0  0  0
  7 47  1  0  0  0  0
  8 33  1  0  0  0  0
  8  9  1  0  0  0  0
  9 10  2  0  0  0  0
  9 48  1  0  0  0  0
 10 11  1  0  0  0  0
 11 33  2  0  0  0  0
 11 12  1  0  0  0  0
 12 13  1  0  0  0  0
 12 30  2  0  0  0  0
 13 14  1  0  0  0  0
 13 22  1  0  0  0  0
 14 15  2  0  0  0  0
 14 16  1  0  0  0  0
 16 21  1  0  0  0  0
 16 17  2  0  0  0  0
 17 18  1  0  0  0  0
 17 49  1  0  0  0  0
 18 19  2  0  0  0  0
 18 50  1  0  0  0  0
 19 20  1  0  0  0  0
 19 51  1  0  0  0  0
 20 21  2  0  0  0  0
 20 52  1  0  0  0  0
 21 53  1  0  0  0  0
 22 23  2  0  0  0  0
 22 24  1  0  0  0  0
 24 29  1  0  0  0  0
 24 25  2  0  0  0  0
 25 26  1  0  0  0  0
 25 54  1  0  0  0  0
 26 27  2  0  0  0  0
 26 55  1  0  0  0  0
 27 28  1  0  0  0  0
 27 56  1  0  0  0  0
 28 29  2  0  0  0  0
 28 57  1  0  0  0  0
 29 58  1  0  0  0  0
 30 31  1  0  0  0  0
 31 32  2  0  0  0  0
 31 59  1  0  0  0  0
 32 33  1  0  0  0  0
 34 35  1  0  0  0  0
 34 36  1  0  0  0  0
 34 60  1  0  0  0  0
 35 61  1  0  0  0  0
 36 37  1  0  0  0  0
 36 62  1  0  0  0  0
 38 43  1  0  0  0  0
 38 39  2  0  0  0  0
 39 40  1  0  0  0  0
 39 63  1  0  0  0  0
 40 41  2  0  0  0  0
 40 64  1  0  0  0  0
 41 42  1  0  0  0  0
 41 65  1  0  0  0  0
 42 43  2  0  0  0  0
 42 66  1  0  0  0  0
 43 67  1  0  0  0  0
M  END
> <s_m_source_file>
AV-unprocessed.smi

> <i_m_source_file_index>
33

> <i_lp_mmshare_version>
43012

> <i_f3d_flags>
0

> <s_epik_input>
W2NIXTFbY0hdW2NIXVtjSF1bY0hdYzFDKD1PKU9bQ0gyXVtDQEBIXTJPW0NASF0oW0NAQEhdKFtPSF0pW0NAQEhdMkYpbihbY0hdbjMpYyhjMzQpbltjSF1uYzROKEMoPU8pYzVbY0hdW2NIXVtjSF1bY0hdW2NIXTUpQyg9TyljNltjSF1bY0hdW2NIXVtjSF1bY0hdNg==

> <s_epik_cmdline>
J2VwaWtfcHl0aG9uJywgJy1waCcsICc3LjAnLCAnLXRuJywgJzgnLCAnLW1hJywgJzIwMCcsICctbWV0YWxfYmluZGluZycsICctaW1hZScsICc8aW5maWxlLm1hZT4nLCAnLW9tYWUnLCAnPG91dGZpbGUubWFlPic=

> <r_lp_tautomer_probability>
1

> <r_epik_Ionization_Penalty>
0.00067664

> <r_epik_Ionization_Penalty_Charging>
0

> <r_epik_Ionization_Penalty_Neutral>
0.00067664

> <r_epik_State_Penalty>
0.000428095

> <r_epik_Charging_Adjusted_Penalty>
0.000428095

> <i_epik_Tot_Q>
0

> <i_epik_Tot_abs_Q>
0

> <r_epik_Metal_State_Penalty>
-0

> <b_epik_Metal_Only>
0

> <s_epik_Chemistry_Notes>
This compound has an ester and may undergo hydrolysis at high or low pH. This compound contains an acetal/aminal-like group ( X-CH(R)-Y where X, Y are N, S, or O) that may be acid/base labile, releasing an aldehyde.

> <s_lp_Force_Field>
OPLS_2005

> <r_lp_Energy>
68.7921

> <b_lp_Chiralities_Consistent>
1

> <s_lp_Variant>
AV-unprocessed.smi:33-14

> <Gold.Version>
5.8.1

> <Gold.Id.Protein>
6NUR|6NUR_protein|mol2

> <Gold.PLP.Fitness>
64.0355

> <Gold.PLP.PLP>
-60.7664

> <Gold.PLP.part.hbond>
-3.0432

> <Gold.PLP.part.metal>
0.0000

> <Gold.PLP.part.buried>
-5.7020

> <Gold.PLP.part.nonpolar>
-50.5657

> <Gold.PLP.part.repulsive>
0.1602

> <Gold.PLP.ligand.clash>
0.0000

> <Gold.PLP.ligand.torsion>
3.3580

> <Gold.PLP.Chemscore.Hbond>
1.8000

> <Gold.PLP.Chemscore.CHOScore>
0.0000

> <Gold.PLP.Chemscore.Metal>
0.0000

> <Gold.Chemscore.Hbonds>
donor molecule, donor type, donor heavy atom, donor atom, acceptor molecule, acceptor atom, score
      L1  H    35    61       P1  7949  1.00
      P1  H 10752 10764       L1    35  0.75

> <Gold.PLP.Chemscore.Internal.Correction>
4.5850

> <Gold.Rescore>
     Score         DG    S(hbond)    S(metal)    S(lipo)     H(rot)  DE(clash)    DE(int)     intcor
     14.54     -19.65       0.94        0.00     149.50       2.52       0.06       5.05       ----

> <Gold.Chemscore.Fitness>
14.5430

> <Gold.Chemscore.DG>
-19.6534

> <Gold.Chemscore.ZeroCoef>
-5.4800

> <Gold.Chemscore.Hbond>
0.9416

> <Gold.Chemscore.Metal>
0.0000

> <Gold.Chemscore.Lipo>
149.5028

> <Gold.Chemscore.Internal_Hbond>
0.0000

> <Gold.Chemscore.DEClash>
0.0609

> <Gold.Chemscore.DEInternal>
5.0495

> <Gold.Chemscore.Rot>
2.5247

> <Gold.Chemscore.Internal.Correction>
   9.000000E+99

> <Gold.Chemscore.Hbonds>
donor molecule, donor type, donor heavy atom, donor atom, acceptor molecule, acceptor atom, score
      L1  H    35    61       P1  7949  0.70
      P1  H 10752 10764       L1    35  0.09

> <Gold.Chemscore.Hbond.Weighted>
-3.1448

> <Gold.Chemscore.Metal.Weighted>
-0.0000

> <Gold.Chemscore.Lipo.Weighted>
-17.4918

> <Gold.Chemscore.Internal_Hbond.Weighted>
0.0000

> <Gold.Chemscore.DEClash.Weighted>
0.0609

> <Gold.Chemscore.DEInternal.Weighted>
5.0495

> <Gold.Chemscore.Rot.Weighted>
6.4633

> <Gold.Chemscore.Internal.Correction.Weighted>
   9.000000E+99

> <Gold.Protein.RotatedTorsions>
[ 6907 6896 6895 6894 ] final   13.31 input  -60.11 | X-H torsion
[ 7974 7965 7964 7962 ] final   45.54 input  175.53 | X-H torsion
[ 8008 7997 7996 7995 ] final  -48.77 input   59.86 | X-H torsion
[ 10167 10162 10161 10158 ] final  160.79 input  -65.29 | X-H torsion
[ 10718 10713 10712 10709 ] final  -92.59 input   66.30 | X-H torsion
[ 10763 10752 10751 10750 ] final  -92.90 input  -60.55 | X-H torsion
[ 11005 11000 10999 10996 ] final -106.56 input  -57.11 | X-H torsion

> <Gold.Protein.ActiveResidues>
 VAL166  LYS551  ARG553  GLY616  TRP617  ASP618  TYR619  PRO620  LYS621  CYS622 
 ASP623  PHE694  ASN695  SER759  ASP760  ASP761  ALA762  ILE779  LEU786  VAL792 
 PHE793  MET794  SER795  GLU796  ALA797  LYS798  CYS799  TRP800  GLU811  SER814 

> <Gold.Protein.RotatedAtoms>
  151.7842  135.0753  160.0377 H   0  0  0  0  0  0  0  0  0  0  0  0  # atno 6907 bound_to 6896
  152.3202  133.5841  159.5747 H   0  0  0  0  0  0  0  0  0  0  0  0  # atno 6908 bound_to 6896
  150.7365  133.9939  159.3658 H   0  0  0  0  0  0  0  0  0  0  0  0  # atno 6909 bound_to 6896
  146.0471  139.4953  142.9742 H   0  0  0  0  0  0  0  0  0  0  0  0  # atno 7974 bound_to 7965
  154.4034  140.1313  156.4394 H   0  0  0  0  0  0  0  0  0  0  0  0  # atno 8008 bound_to 7997
  155.7474  140.3488  155.5113 H   0  0  0  0  0  0  0  0  0  0  0  0  # atno 8009 bound_to 7997
  155.8982  140.1015  157.1359 H   0  0  0  0  0  0  0  0  0  0  0  0  # atno 8010 bound_to 7997
  139.4843  144.4599  151.8718 H   0  0  0  0  0  0  0  0  0  0  0  0  # atno 10167 bound_to 10162
  156.0004  130.4993  150.5649 H   0  0  0  0  0  0  0  0  0  0  0  0  # atno 10718 bound_to 10713
  154.6906  135.5214  153.8388 H   0  0  0  0  0  0  0  0  0  0  0  0  # atno 10763 bound_to 10752
  153.0630  135.6575  154.0429 H   0  0  0  0  0  0  0  0  0  0  0  0  # atno 10764 bound_to 10752
  154.0304  135.2986  155.3349 H   0  0  0  0  0  0  0  0  0  0  0  0  # atno 10765 bound_to 10752
  141.0998  133.8904  157.1871 H   0  0  0  0  0  0  0  0  0  0  0  0  # atno 11005 bound_to 11000
  145.6787  141.0197  143.1618 LP  0  0  0  0  0  0  0  0  0  0  0  0  # atno 17320 bound_to 7965
  144.7103  139.8396  143.7416 LP  0  0  0  0  0  0  0  0  0  0  0  0  # atno 17321 bound_to 7965
  140.4061  144.2430  150.5890 LP  0  0  0  0  0  0  0  0  0  0  0  0  # atno 17342 bound_to 10162
  140.5011  143.2318  151.8677 LP  0  0  0  0  0  0  0  0  0  0  0  0  # atno 17343 bound_to 10162
  157.3553  131.0740  151.1680 LP  0  0  0  0  0  0  0  0  0  0  0  0  # atno 17370 bound_to 10713
  157.2483  130.6602  149.5920 LP  0  0  0  0  0  0  0  0  0  0  0  0  # atno 17371 bound_to 10713
  139.9846  135.0086  156.9832 LP  0  0  0  0  0  0  0  0  0  0  0  0  # atno 17394 bound_to 11000
  140.5050  134.1059  155.7258 LP  0  0  0  0  0  0  0  0  0  0  0  0  # atno 17395 bound_to 11000

$$$$
