AV-unprocessed.smi:3209|AV-procd|sdf|12268|dock5
  -GOLD-   2272018103D 1   1.00000     0.00000
 Structure written by MMmdl.
 37 39  0  0  0  0  0  0  0  0  2 V2000
  148.9416  144.8991  160.9077 C   0  0  0  0  0  0  0  0  0  0  0  0
  150.1001  144.7121  159.9895 C   0  0  0  0  0  0  0  0  0  0  0  0
  150.0384  144.0024  158.8597 N   0  0  0  0  0  0  0  0  0  0  0  0
  151.2568  143.9742  158.1742 C   0  0  0  0  0  0  0  0  0  0  0  0
  151.3690  143.2207  156.8840 C   0  0  0  0  0  0  0  0  0  0  0  0
  150.5035  141.9535  156.8761 C   0  0  0  0  0  0  0  0  0  0  0  0
  149.1162  142.2609  156.4733 N   0  3  0  0  0  0  0  0  0  0  0  0
  148.4747  141.2253  155.6340 C   0  0  2  0  0  0  0  0  0  0  0  0
  148.6128  141.4663  154.1147 C   0  0  0  0  0  0  0  0  0  0  0  0
  147.1555  141.3660  153.6230 C   0  0  2  0  0  0  0  0  0  0  0  0
  146.4073  142.6513  154.0178 C   0  0  0  0  0  0  0  0  0  0  0  0
  146.2619  142.4992  155.5428 C   0  0  0  0  0  0  0  0  0  0  0  0
  146.9445  141.1423  155.8239 C   0  0  1  0  0  0  0  0  0  0  0  0
  146.5497  140.3468  154.5836 C   0  0  0  0  0  0  0  0  0  0  0  0
  152.2508  144.6777  158.8079 C   0  0  0  0  0  0  0  0  0  0  0  0
  151.6906  145.4014  160.2905 S   0  0  0  0  0  0  0  0  0  0  0  0
  148.0043  144.8575  160.3521 H   0  0  0  0  0  0  0  0  0  0  0  0
  149.0087  145.8669  161.4046 H   0  0  0  0  0  0  0  0  0  0  0  0
  148.9368  144.1151  161.6652 H   0  0  0  0  0  0  0  0  0  0  0  0
  151.0787  143.8660  156.0536 H   0  0  0  0  0  0  0  0  0  0  0  0
  152.4100  142.9500  156.7025 H   0  0  0  0  0  0  0  0  0  0  0  0
  150.9298  141.2190  156.1917 H   0  0  0  0  0  0  0  0  0  0  0  0
  150.4949  141.5019  157.8690 H   0  0  0  0  0  0  0  0  0  0  0  0
  148.5669  142.3644  157.3147 H   0  0  0  0  0  0  0  0  0  0  0  0
  148.9078  140.2569  155.8911 H   0  0  0  0  0  0  0  0  0  0  0  0
  149.0561  142.4320  153.8673 H   0  0  0  0  0  0  0  0  0  0  0  0
  149.2328  140.6914  153.6619 H   0  0  0  0  0  0  0  0  0  0  0  0
  147.0652  141.1160  152.5654 H   0  0  0  0  0  0  0  0  0  0  0  0
  146.9521  143.5537  153.7373 H   0  0  0  0  0  0  0  0  0  0  0  0
  145.4267  142.6922  153.5417 H   0  0  0  0  0  0  0  0  0  0  0  0
  146.7115  143.3277  156.0900 H   0  0  0  0  0  0  0  0  0  0  0  0
  145.2073  142.4610  155.8188 H   0  0  0  0  0  0  0  0  0  0  0  0
  146.6454  140.6896  156.7700 H   0  0  0  0  0  0  0  0  0  0  0  0
  145.4705  140.2312  154.4673 H   0  0  0  0  0  0  0  0  0  0  0  0
  147.0219  139.3643  154.5262 H   0  0  0  0  0  0  0  0  0  0  0  0
  153.2753  144.8152  158.4952 H   0  0  0  0  0  0  0  0  0  0  0  0
  149.1037  143.1371  155.9710 H   0  0  0  0  0  0  0  0  0  0  0  0
  1  2  1  0  0  0  0
  1 17  1  0  0  0  0
  1 18  1  0  0  0  0
  1 19  1  0  0  0  0
  2 16  1  0  0  0  0
  2  3  2  0  0  0  0
  3  4  1  0  0  0  0
  4  5  1  0  0  0  0
  4 15  2  0  0  0  0
  5  6  1  0  0  0  0
  5 20  1  0  0  0  0
  5 21  1  0  0  0  0
  6  7  1  0  0  0  0
  6 22  1  0  0  0  0
  6 23  1  0  0  0  0
  7  8  1  0  0  0  0
  7 24  1  0  0  0  0
  7 37  1  0  0  0  0
  8 13  1  0  0  0  0
  8  9  1  0  0  0  0
  8 25  1  0  0  0  0
  9 10  1  0  0  0  0
  9 26  1  0  0  0  0
  9 27  1  0  0  0  0
 10 14  1  0  0  0  0
 10 11  1  0  0  0  0
 10 28  1  0  0  0  0
 11 12  1  0  0  0  0
 11 29  1  0  0  0  0
 11 30  1  0  0  0  0
 12 13  1  0  0  0  0
 12 31  1  0  0  0  0
 12 32  1  0  0  0  0
 13 14  1  0  0  0  0
 13 33  1  0  0  0  0
 14 34  1  0  0  0  0
 14 35  1  0  0  0  0
 15 16  1  0  0  0  0
 15 36  1  0  0  0  0
M  CHG  1   7   1
M  END
> <s_m_source_file>
AV-unprocessed.smi

> <i_m_source_file_index>
3209

> <i_lp_mmshare_version>
43012

> <i_f3d_flags>
0

> <s_epik_input>
W0NIM11jMW5jKFtjSF1zMSlbQ0gyXVtDSDJdW05IXVtDQEhdKFtDSDJdW0NASF0yMylbQ0BIXShbQ0gyXTMpW0NIMl1bQ0gyXTI=

> <s_epik_cmdline>
J2VwaWtfcHl0aG9uJywgJy1waCcsICc3LjAnLCAnLXRuJywgJzgnLCAnLW1hJywgJzIwMCcsICctbWV0YWxfYmluZGluZycsICctaW1hZScsICc8aW5maWxlLm1hZT4nLCAnLW9tYWUnLCAnPG91dGZpbGUubWFlPic=

> <r_lp_tautomer_probability>
1

> <r_epik_Ionization_Penalty>
0.000342479

> <r_epik_Ionization_Penalty_Charging>
0.000317129

> <r_epik_Ionization_Penalty_Neutral>
2.535e-05

> <r_epik_State_Penalty>
-0

> <r_epik_Charging_Adjusted_Penalty>
0.000317129

> <i_epik_Tot_Q>
1

> <i_epik_Tot_abs_Q>
1

> <r_epik_Metal_State_Penalty>
-0

> <b_epik_Metal_Only>
0

> <s_lp_Force_Field>
OPLS_2005

> <r_lp_Energy>
49.3093

> <b_lp_Chiralities_Consistent>
1

> <s_lp_Variant>
AV-unprocessed.smi:3209-1

> <Gold.Version>
5.8.1

> <Gold.Id.Protein>
6NUR|6NUR_protein|mol2

> <Gold.PLP.Fitness>
41.7484

> <Gold.PLP.PLP>
-38.0465

> <Gold.PLP.part.hbond>
-0.9892

> <Gold.PLP.part.metal>
0.0000

> <Gold.PLP.part.buried>
-4.5990

> <Gold.PLP.part.nonpolar>
-32.3733

> <Gold.PLP.part.repulsive>
0.3021

> <Gold.PLP.ligand.clash>
0.0000

> <Gold.PLP.ligand.torsion>
1.1575

> <Gold.PLP.Chemscore.Hbond>
2.0000

> <Gold.PLP.Chemscore.CHOScore>
0.0000

> <Gold.PLP.Chemscore.Metal>
0.0000

> <Gold.Chemscore.Hbonds>
donor molecule, donor type, donor heavy atom, donor atom, acceptor molecule, acceptor atom, score
      L1  H     7    37       P1  8028  2.00

> <Gold.PLP.Chemscore.Internal.Correction>
0.0168

> <Gold.Rescore>
     Score         DG    S(hbond)    S(metal)    S(lipo)     H(rot)  DE(clash)    DE(int)     intcor
     16.52     -17.96       0.93        0.00     108.77       1.31       0.33       1.11       ----

> <Gold.Chemscore.Fitness>
16.5191

> <Gold.Chemscore.DG>
-17.9578

> <Gold.Chemscore.ZeroCoef>
-5.4800

> <Gold.Chemscore.Hbond>
0.9303

> <Gold.Chemscore.Metal>
0.0000

> <Gold.Chemscore.Lipo>
108.7734

> <Gold.Chemscore.Internal_Hbond>
0.0000

> <Gold.Chemscore.DEClash>
0.3270

> <Gold.Chemscore.DEInternal>
1.1117

> <Gold.Chemscore.Rot>
1.3108

> <Gold.Chemscore.Internal.Correction>
   9.000000E+99

> <Gold.Chemscore.Hbonds>
donor molecule, donor type, donor heavy atom, donor atom, acceptor molecule, acceptor atom, score
      L1  H     7    37       P1  8028  0.99

> <Gold.Chemscore.Hbond.Weighted>
-3.1070

> <Gold.Chemscore.Metal.Weighted>
-0.0000

> <Gold.Chemscore.Lipo.Weighted>
-12.7265

> <Gold.Chemscore.Internal_Hbond.Weighted>
0.0000

> <Gold.Chemscore.DEClash.Weighted>
0.3270

> <Gold.Chemscore.DEInternal.Weighted>
1.1117

> <Gold.Chemscore.Rot.Weighted>
3.3558

> <Gold.Chemscore.Internal.Correction.Weighted>
   9.000000E+99

> <Gold.Protein.RotatedTorsions>
[ 6907 6896 6895 6894 ] final   61.97 input  -60.11 | X-H torsion
[ 7974 7965 7964 7962 ] final   37.05 input  175.53 | X-H torsion
[ 8008 7997 7996 7995 ] final  -91.15 input   59.86 | X-H torsion
[ 10167 10162 10161 10158 ] final  162.77 input  -65.29 | X-H torsion
[ 10718 10713 10712 10709 ] final -166.43 input   66.30 | X-H torsion
[ 10763 10752 10751 10750 ] final   45.86 input  -60.55 | X-H torsion
[ 11005 11000 10999 10996 ] final  121.52 input  -57.11 | X-H torsion

> <Gold.Protein.ActiveResidues>
 VAL166  LYS551  ARG553  GLY616  TRP617  ASP618  TYR619  PRO620  LYS621  CYS622 
 ASP623  PHE694  ASN695  SER759  ASP760  ASP761  ALA762  ILE779  LEU786  VAL792 
 PHE793  MET794  SER795  GLU796  ALA797  LYS798  CYS799  TRP800  GLU811  SER814 

> <Gold.Protein.RotatedAtoms>
  152.4133  134.6086  160.0019 H   0  0  0  0  0  0  0  0  0  0  0  0  # atno 6907 bound_to 6896
  151.6257  133.3330  159.3105 H   0  0  0  0  0  0  0  0  0  0  0  0  # atno 6908 bound_to 6896
  150.8023  134.7164  159.6678 H   0  0  0  0  0  0  0  0  0  0  0  0  # atno 6909 bound_to 6896
  146.1166  139.5941  142.9317 H   0  0  0  0  0  0  0  0  0  0  0  0  # atno 7974 bound_to 7965
  154.7072  140.0522  157.0515 H   0  0  0  0  0  0  0  0  0  0  0  0  # atno 8008 bound_to 7997
  155.0603  140.3189  155.4644 H   0  0  0  0  0  0  0  0  0  0  0  0  # atno 8009 bound_to 7997
  156.2778  140.2100  156.5730 H   0  0  0  0  0  0  0  0  0  0  0  0  # atno 8010 bound_to 7997
  139.4865  144.4404  151.8958 H   0  0  0  0  0  0  0  0  0  0  0  0  # atno 10167 bound_to 10162
  156.6677  130.9071  151.3039 H   0  0  0  0  0  0  0  0  0  0  0  0  # atno 10718 bound_to 10713
  152.9818  135.6026  154.3505 H   0  0  0  0  0  0  0  0  0  0  0  0  # atno 10763 bound_to 10752
  154.3195  135.2770  155.2528 H   0  0  0  0  0  0  0  0  0  0  0  0  # atno 10764 bound_to 10752
  154.4701  135.5944  153.6372 H   0  0  0  0  0  0  0  0  0  0  0  0  # atno 10765 bound_to 10752
  139.9229  134.9639  156.7971 H   0  0  0  0  0  0  0  0  0  0  0  0  # atno 11005 bound_to 11000
  145.5554  141.0409  143.2255 LP  0  0  0  0  0  0  0  0  0  0  0  0  # atno 17320 bound_to 7965
  144.7559  139.7077  143.7254 LP  0  0  0  0  0  0  0  0  0  0  0  0  # atno 17321 bound_to 7965
  140.3856  144.2681  150.5904 LP  0  0  0  0  0  0  0  0  0  0  0  0  # atno 17342 bound_to 10162
  140.5193  143.2270  151.8413 LP  0  0  0  0  0  0  0  0  0  0  0  0  # atno 17343 bound_to 10162
  157.7088  130.9416  150.1019 LP  0  0  0  0  0  0  0  0  0  0  0  0  # atno 17370 bound_to 10713
  156.1962  130.3657  149.8846 LP  0  0  0  0  0  0  0  0  0  0  0  0  # atno 17371 bound_to 10713
  140.6420  133.9809  155.7712 LP  0  0  0  0  0  0  0  0  0  0  0  0  # atno 17394 bound_to 11000
  141.0765  134.0127  157.3450 LP  0  0  0  0  0  0  0  0  0  0  0  0  # atno 17395 bound_to 11000

$$$$
