AV-unprocessed.smi:3220|AV-procd|sdf|12299|dock3
  -GOLD-   2272018143D 1   1.00000     0.00000
 Structure written by MMmdl.
 33 34  0  0  0  0  0  0  0  0  1 V2000
  150.8632  140.4536  157.4911 C   0  0  0  0  0  0  0  0  0  0  0  0
  150.8376  141.7893  156.7358 C   0  0  2  0  0  0  0  0  0  0  0  0
  150.5598  142.9696  157.6914 C   0  0  0  0  0  0  0  0  0  0  0  0
  151.4605  142.9959  158.8302 N   0  0  0  0  0  0  0  0  0  0  0  0
  152.8116  142.7204  158.8619 C   0  0  0  0  0  0  0  0  0  0  0  0
  153.2240  142.8595  160.1561 C   0  0  0  0  0  0  0  0  0  0  0  0
  152.0388  143.2318  160.8499 C   0  0  0  0  0  0  0  0  0  0  0  0
  150.9860  143.3169  160.0530 N   0  0  0  0  0  0  0  0  0  0  0  0
  149.8214  141.7204  155.6861 N   0  0  0  0  0  0  0  0  0  0  0  0
  149.7399  140.7795  154.7320 C   0  0  0  0  0  0  0  0  0  0  0  0
  150.5189  139.8299  154.6457 O   0  0  0  0  0  0  0  0  0  0  0  0
  148.6047  140.9398  153.7160 C   0  0  1  0  0  0  0  0  0  0  0  0
  147.4166  139.9913  153.9629 C   0  0  0  0  0  0  0  0  0  0  0  0
  146.2998  140.9180  154.4029 C   0  0  0  0  0  0  0  0  0  0  0  0
  146.6697  142.2130  153.6947 C   0  0  0  0  0  0  0  0  0  0  0  0
  148.0801  142.2605  153.8371 O   0  0  0  0  0  0  0  0  0  0  0  0
  151.6246  140.4593  158.2716 H   0  0  0  0  0  0  0  0  0  0  0  0
  151.0904  139.6265  156.8177 H   0  0  0  0  0  0  0  0  0  0  0  0
  149.9031  140.2451  157.9646 H   0  0  0  0  0  0  0  0  0  0  0  0
  151.8248  141.9234  156.2895 H   0  0  0  0  0  0  0  0  0  0  0  0
  150.6386  143.9196  157.1607 H   0  0  0  0  0  0  0  0  0  0  0  0
  149.5390  142.9114  158.0722 H   0  0  0  0  0  0  0  0  0  0  0  0
  153.3585  142.4437  157.9727 H   0  0  0  0  0  0  0  0  0  0  0  0
  154.2198  142.7155  160.5482 H   0  0  0  0  0  0  0  0  0  0  0  0
  151.9130  143.4423  161.9017 H   0  0  0  0  0  0  0  0  0  0  0  0
  149.1299  142.4561  155.6774 H   0  0  0  0  0  0  0  0  0  0  0  0
  148.9812  140.7996  152.7011 H   0  0  0  0  0  0  0  0  0  0  0  0
  147.1443  139.4951  153.0307 H   0  0  0  0  0  0  0  0  0  0  0  0
  147.6137  139.2118  154.7005 H   0  0  0  0  0  0  0  0  0  0  0  0
  145.3082  140.5519  154.1359 H   0  0  0  0  0  0  0  0  0  0  0  0
  146.3346  141.0606  155.4839 H   0  0  0  0  0  0  0  0  0  0  0  0
  146.4093  142.1679  152.6362 H   0  0  0  0  0  0  0  0  0  0  0  0
  146.1909  143.0884  154.1341 H   0  0  0  0  0  0  0  0  0  0  0  0
  1  2  1  0  0  0  0
  1 17  1  0  0  0  0
  1 18  1  0  0  0  0
  1 19  1  0  0  0  0
  2  3  1  0  0  0  0
  2  9  1  0  0  0  0
  2 20  1  0  0  0  0
  3  4  1  0  0  0  0
  3 21  1  0  0  0  0
  3 22  1  0  0  0  0
  4  8  1  0  0  0  0
  4  5  1  0  0  0  0
  5  6  2  0  0  0  0
  5 23  1  0  0  0  0
  6  7  1  0  0  0  0
  6 24  1  0  0  0  0
  7  8  2  0  0  0  0
  7 25  1  0  0  0  0
  9 10  1  0  0  0  0
  9 26  1  0  0  0  0
 10 11  2  0  0  0  0
 10 12  1  0  0  0  0
 12 16  1  0  0  0  0
 12 13  1  0  0  0  0
 12 27  1  0  0  0  0
 13 14  1  0  0  0  0
 13 28  1  0  0  0  0
 13 29  1  0  0  0  0
 14 15  1  0  0  0  0
 14 30  1  0  0  0  0
 14 31  1  0  0  0  0
 15 16  1  0  0  0  0
 15 32  1  0  0  0  0
 15 33  1  0  0  0  0
M  END
> <s_m_source_file>
AV-unprocessed.smi

> <i_m_source_file_index>
3220

> <i_lp_mmshare_version>
43012

> <i_f3d_flags>
0

> <s_epik_input>
bjFbY0hdW2NIXVtjSF1uMVtDSDJdW0NAQEhdKFtDSDNdKVtOSF1DKD1PKVtDQEBIXTJbQ0gyXVtDSDJdW0NIMl1PMg==

> <s_epik_cmdline>
J2VwaWtfcHl0aG9uJywgJy1waCcsICc3LjAnLCAnLXRuJywgJzgnLCAnLW1hJywgJzIwMCcsICctbWV0YWxfYmluZGluZycsICctaW1hZScsICc8aW5maWxlLm1hZT4nLCAnLW9tYWUnLCAnPG91dGZpbGUubWFlPic=

> <r_lp_tautomer_probability>
1

> <r_epik_Ionization_Penalty>
0.00033363

> <r_epik_Ionization_Penalty_Charging>
0

> <r_epik_Ionization_Penalty_Neutral>
0.00033363

> <r_epik_State_Penalty>
-0

> <r_epik_Charging_Adjusted_Penalty>
0

> <i_epik_Tot_Q>
0

> <i_epik_Tot_abs_Q>
0

> <r_epik_Metal_State_Penalty>
-0

> <b_epik_Metal_Only>
0

> <s_lp_Force_Field>
OPLS_2005

> <r_lp_Energy>
17.4241

> <b_lp_Chiralities_Consistent>
1

> <s_lp_Variant>
AV-unprocessed.smi:3220-3

> <Gold.Version>
5.8.1

> <Gold.Id.Protein>
6NUR|6NUR_protein|mol2

> <Gold.PLP.Fitness>
40.9813

> <Gold.PLP.PLP>
-33.8411

> <Gold.PLP.part.hbond>
-4.8334

> <Gold.PLP.part.metal>
0.0000

> <Gold.PLP.part.buried>
-2.0346

> <Gold.PLP.part.nonpolar>
-29.6741

> <Gold.PLP.part.repulsive>
4.1361

> <Gold.PLP.ligand.clash>
0.0000

> <Gold.PLP.ligand.torsion>
0.7236

> <Gold.PLP.Chemscore.Hbond>
2.8497

> <Gold.PLP.Chemscore.CHOScore>
0.0000

> <Gold.PLP.Chemscore.Metal>
0.0000

> <Gold.Chemscore.Hbonds>
donor molecule, donor type, donor heavy atom, donor atom, acceptor molecule, acceptor atom, score
      L1  H     9    26       P1  8028  0.34
      P1  H  7989  7998       L1    11  0.45

> <Gold.PLP.Chemscore.Internal.Correction>
0.0382

> <Gold.Rescore>
     Score         DG    S(hbond)    S(metal)    S(lipo)     H(rot)  DE(clash)    DE(int)     intcor
     14.62     -18.16       2.15        0.00      82.39       1.62       2.20       1.34       ----

> <Gold.Chemscore.Fitness>
14.6183

> <Gold.Chemscore.DG>
-18.1564

> <Gold.Chemscore.ZeroCoef>
-5.4800

> <Gold.Chemscore.Hbond>
2.1522

> <Gold.Chemscore.Metal>
0.0000

> <Gold.Chemscore.Lipo>
82.3927

> <Gold.Chemscore.Internal_Hbond>
0.0000

> <Gold.Chemscore.DEClash>
2.2024

> <Gold.Chemscore.DEInternal>
1.3357

> <Gold.Chemscore.Rot>
1.6219

> <Gold.Chemscore.Internal.Correction>
   9.000000E+99

> <Gold.Chemscore.Hbonds>
donor molecule, donor type, donor heavy atom, donor atom, acceptor molecule, acceptor atom, score
      L1  H     9    26       P1  8028  0.33
      P1  H  7989  7998       L1    11  0.02

> <Gold.Chemscore.Hbond.Weighted>
-7.1884

> <Gold.Chemscore.Metal.Weighted>
-0.0000

> <Gold.Chemscore.Lipo.Weighted>
-9.6399

> <Gold.Chemscore.Internal_Hbond.Weighted>
0.0000

> <Gold.Chemscore.DEClash.Weighted>
2.2024

> <Gold.Chemscore.DEInternal.Weighted>
1.3357

> <Gold.Chemscore.Rot.Weighted>
4.1520

> <Gold.Chemscore.Internal.Correction.Weighted>
   9.000000E+99

> <Gold.Protein.RotatedTorsions>
[ 6907 6896 6895 6894 ] final  -35.58 input  -60.11 | X-H torsion
[ 7974 7965 7964 7962 ] final   71.07 input  175.53 | X-H torsion
[ 8008 7997 7996 7995 ] final  101.65 input   59.86 | X-H torsion
[ 10167 10162 10161 10158 ] final  -14.09 input  -65.29 | X-H torsion
[ 10718 10713 10712 10709 ] final -155.43 input   66.30 | X-H torsion
[ 10763 10752 10751 10750 ] final -105.67 input  -60.55 | X-H torsion
[ 11005 11000 10999 10996 ] final -108.66 input  -57.11 | X-H torsion

> <Gold.Protein.ActiveResidues>
 VAL166  LYS551  ARG553  GLY616  TRP617  ASP618  TYR619  PRO620  LYS621  CYS622 
 ASP623  PHE694  ASN695  SER759  ASP760  ASP761  ALA762  ILE779  LEU786  VAL792 
 PHE793  MET794  SER795  GLU796  ALA797  LYS798  CYS799  TRP800  GLU811  SER814 

> <Gold.Protein.RotatedAtoms>
  151.0380  134.9587  159.8146 H   0  0  0  0  0  0  0  0  0  0  0  0  # atno 6907 bound_to 6896
  152.5358  134.2695  159.8976 H   0  0  0  0  0  0  0  0  0  0  0  0  # atno 6908 bound_to 6896
  151.2706  133.4214  159.2655 H   0  0  0  0  0  0  0  0  0  0  0  0  # atno 6909 bound_to 6896
  145.7703  139.2840  143.1325 H   0  0  0  0  0  0  0  0  0  0  0  0  # atno 7974 bound_to 7965
  156.1319  140.3194  155.8362 H   0  0  0  0  0  0  0  0  0  0  0  0  # atno 8008 bound_to 7997
  155.4316  140.0519  157.3035 H   0  0  0  0  0  0  0  0  0  0  0  0  # atno 8009 bound_to 7997
  154.4906  140.2090  155.9570 H   0  0  0  0  0  0  0  0  0  0  0  0  # atno 8010 bound_to 7997
  140.7195  143.5358  150.9467 H   0  0  0  0  0  0  0  0  0  0  0  0  # atno 10167 bound_to 10162
  156.5128  130.8442  151.2653 H   0  0  0  0  0  0  0  0  0  0  0  0  # atno 10718 bound_to 10713
  154.7962  135.4740  154.0166 H   0  0  0  0  0  0  0  0  0  0  0  0  # atno 10763 bound_to 10752
  153.1707  135.6824  153.8619 H   0  0  0  0  0  0  0  0  0  0  0  0  # atno 10764 bound_to 10752
  153.8202  135.3205  155.3387 H   0  0  0  0  0  0  0  0  0  0  0  0  # atno 10765 bound_to 10752
  141.0890  133.9089  157.2120 H   0  0  0  0  0  0  0  0  0  0  0  0  # atno 11005 bound_to 11000
  146.0176  140.8378  142.9939 LP  0  0  0  0  0  0  0  0  0  0  0  0  # atno 17320 bound_to 7965
  144.6814  140.2581  143.7322 LP  0  0  0  0  0  0  0  0  0  0  0  0  # atno 17321 bound_to 7965
  139.9079  143.6756  152.3120 LP  0  0  0  0  0  0  0  0  0  0  0  0  # atno 17342 bound_to 10162
  139.7128  144.7617  151.1083 LP  0  0  0  0  0  0  0  0  0  0  0  0  # atno 17343 bound_to 10162
  157.7448  130.9944  150.2706 LP  0  0  0  0  0  0  0  0  0  0  0  0  # atno 17370 bound_to 10713
  156.3224  130.3788  149.7563 LP  0  0  0  0  0  0  0  0  0  0  0  0  # atno 17371 bound_to 10713
  139.9712  135.0127  156.9517 LP  0  0  0  0  0  0  0  0  0  0  0  0  # atno 17394 bound_to 11000
  140.5297  134.0826  155.7312 LP  0  0  0  0  0  0  0  0  0  0  0  0  # atno 17395 bound_to 11000

$$$$
