AV-unprocessed.smi:2973|AV-procd|sdf|11342|dock2
  -GOLD-   2272016253D 1   1.00000     0.00000
 Structure written by MMmdl.
 50 52  0  0  0  0  0  0  0  0  2 V2000
  149.5975  141.7066  156.1353 C   0  0  0  0  0  0  0  0  0  0  0  0
  150.8634  141.7783  157.0155 C   0  0  1  0  0  0  0  0  0  0  0  0
  150.5725  142.5838  158.3007 C   0  0  0  0  0  0  0  0  0  0  0  0
  151.8245  142.7399  159.1784 C   0  0  0  0  0  0  0  0  0  0  0  0
  152.4315  141.3754  159.5328 C   0  0  0  0  0  0  0  0  0  0  0  0
  152.7425  140.5681  158.2627 C   0  0  0  0  0  0  0  0  0  0  0  0
  151.4926  140.3943  157.3662 C   0  0  1  0  0  0  0  0  0  0  0  0
  150.5340  139.4924  157.9831 N   0  0  0  0  0  0  0  0  0  0  0  0
  150.3580  138.3617  157.2880 C   0  0  0  0  0  0  0  0  0  0  0  0
  149.6166  137.4370  157.6155 O   0  0  0  0  0  0  0  0  0  0  0  0
  151.1329  138.4156  156.1896 N   0  0  0  0  0  0  0  0  0  0  0  0
  151.2352  137.3392  155.1924 C   0  0  0  0  0  0  0  0  0  0  0  0
  149.9477  136.5211  154.9876 C   0  0  0  0  0  0  0  0  0  0  0  0
  148.8717  137.1117  154.9023 O   0  0  0  0  0  0  0  0  0  0  0  0
  150.0475  135.1834  154.9016 N   0  0  0  0  0  0  0  0  0  0  0  0
  148.9343  134.2682  154.6883 C   0  0  0  0  0  0  0  0  0  0  0  0
  149.2059  133.3167  153.5111 C   0  0  0  0  0  0  0  0  0  0  0  0
  147.9426  132.9810  152.7435 C   0  0  0  0  0  0  0  0  0  0  0  0
  147.3560  131.6974  152.7852 C   0  0  0  0  0  0  0  0  0  0  0  0
  146.1741  131.4565  152.0539 C   0  0  0  0  0  0  0  0  0  0  0  0
  145.6049  132.5023  151.2980 C   0  0  0  0  0  0  0  0  0  0  0  0
  146.2333  133.7643  151.2917 C   0  0  0  0  0  0  0  0  0  0  0  0
  147.3643  133.9560  152.0056 N   0  3  0  0  0  0  0  0  0  0  0  0
  151.8331  139.5576  156.1394 C   0  0  0  0  0  0  0  0  0  0  0  0
  152.6384  139.8976  155.2724 O   0  0  0  0  0  0  0  0  0  0  0  0
  148.7923  141.1634  156.6306 H   0  0  0  0  0  0  0  0  0  0  0  0
  149.7926  141.2177  155.1808 H   0  0  0  0  0  0  0  0  0  0  0  0
  149.2257  142.7064  155.9095 H   0  0  0  0  0  0  0  0  0  0  0  0
  151.6074  142.3414  156.4492 H   0  0  0  0  0  0  0  0  0  0  0  0
  150.1916  143.5723  158.0417 H   0  0  0  0  0  0  0  0  0  0  0  0
  149.7848  142.0949  158.8753 H   0  0  0  0  0  0  0  0  0  0  0  0
  152.5655  143.3441  158.6534 H   0  0  0  0  0  0  0  0  0  0  0  0
  151.5736  143.2828  160.0903 H   0  0  0  0  0  0  0  0  0  0  0  0
  153.3424  141.5147  160.1156 H   0  0  0  0  0  0  0  0  0  0  0  0
  151.7420  140.8186  160.1686 H   0  0  0  0  0  0  0  0  0  0  0  0
  153.5267  141.0817  157.7039 H   0  0  0  0  0  0  0  0  0  0  0  0
  153.1559  139.5968  158.5399 H   0  0  0  0  0  0  0  0  0  0  0  0
  150.0668  139.7043  158.8528 H   0  0  0  0  0  0  0  0  0  0  0  0
  151.5339  137.7533  154.2279 H   0  0  0  0  0  0  0  0  0  0  0  0
  152.0363  136.6538  155.4743 H   0  0  0  0  0  0  0  0  0  0  0  0
  150.9664  134.7728  154.9847 H   0  0  0  0  0  0  0  0  0  0  0  0
  148.7900  133.6942  155.6042 H   0  0  0  0  0  0  0  0  0  0  0  0
  148.0142  134.8323  154.5262 H   0  0  0  0  0  0  0  0  0  0  0  0
  149.9254  133.7603  152.8213 H   0  0  0  0  0  0  0  0  0  0  0  0
  149.6592  132.3938  153.8755 H   0  0  0  0  0  0  0  0  0  0  0  0
  147.8030  130.9068  153.3703 H   0  0  0  0  0  0  0  0  0  0  0  0
  145.7091  130.4816  152.0736 H   0  0  0  0  0  0  0  0  0  0  0  0
  144.6997  132.3381  150.7318 H   0  0  0  0  0  0  0  0  0  0  0  0
  145.8676  134.6201  150.7432 H   0  0  0  0  0  0  0  0  0  0  0  0
  147.8017  134.8777  151.9883 H   0  0  0  0  0  0  0  0  0  0  0  0
  1  2  1  0  0  0  0
  1 26  1  0  0  0  0
  1 27  1  0  0  0  0
  1 28  1  0  0  0  0
  2  7  1  0  0  0  0
  2  3  1  0  0  0  0
  2 29  1  0  0  0  0
  3  4  1  0  0  0  0
  3 30  1  0  0  0  0
  3 31  1  0  0  0  0
  4  5  1  0  0  0  0
  4 32  1  0  0  0  0
  4 33  1  0  0  0  0
  5  6  1  0  0  0  0
  5 34  1  0  0  0  0
  5 35  1  0  0  0  0
  6  7  1  0  0  0  0
  6 36  1  0  0  0  0
  6 37  1  0  0  0  0
  7 24  1  0  0  0  0
  7  8  1  0  0  0  0
  8  9  1  0  0  0  0
  8 38  1  0  0  0  0
  9 10  2  0  0  0  0
  9 11  1  0  0  0  0
 11 12  1  0  0  0  0
 11 24  1  0  0  0  0
 12 13  1  0  0  0  0
 12 39  1  0  0  0  0
 12 40  1  0  0  0  0
 13 14  2  0  0  0  0
 13 15  1  0  0  0  0
 15 16  1  0  0  0  0
 15 41  1  0  0  0  0
 16 17  1  0  0  0  0
 16 42  1  0  0  0  0
 16 43  1  0  0  0  0
 17 18  1  0  0  0  0
 17 44  1  0  0  0  0
 17 45  1  0  0  0  0
 18 23  1  0  0  0  0
 18 19  2  0  0  0  0
 19 20  1  0  0  0  0
 19 46  1  0  0  0  0
 20 21  2  0  0  0  0
 20 47  1  0  0  0  0
 21 22  1  0  0  0  0
 21 48  1  0  0  0  0
 22 23  2  0  0  0  0
 22 49  1  0  0  0  0
 23 50  1  0  0  0  0
 24 25  2  0  0  0  0
M  CHG  1  23   1
M  END
> <s_m_source_file>
AV-unprocessed.smi

> <i_m_source_file_index>
2973

> <i_lp_mmshare_version>
43012

> <i_f3d_flags>
0

> <s_epik_input>
W0NIMl0xW0NIMl1bQ0gyXVtDSDJdW0NAQEhdKFtDSDNdKVtDQF0xMltOSF1DKD1PKU4oQzI9TylbQ0gyXUMoPU8pW05IXVtDSDJdW0NIMl1jM1tjSF1bY0hdW2NIXVtjSF1uMw==

> <s_epik_cmdline>
J2VwaWtfcHl0aG9uJywgJy1waCcsICc3LjAnLCAnLXRuJywgJzgnLCAnLW1hJywgJzIwMCcsICctbWV0YWxfYmluZGluZycsICctaW1hZScsICc8aW5maWxlLm1hZT4nLCAnLW9tYWUnLCAnPG91dGZpbGUubWFlPic=

> <r_lp_tautomer_probability>
1

> <r_epik_Ionization_Penalty>
1.90043

> <r_epik_Ionization_Penalty_Charging>
1.90039

> <r_epik_Ionization_Penalty_Neutral>
4.65525e-05

> <r_epik_State_Penalty>
2.02162

> <r_epik_Charging_Adjusted_Penalty>
3.922

> <i_epik_Tot_Q>
1

> <i_epik_Tot_abs_Q>
1

> <r_epik_Metal_State_Penalty>
2.06631

> <b_epik_Metal_Only>
0

> <s_lp_Force_Field>
OPLS_2005

> <r_lp_Energy>
28.0299

> <b_lp_Chiralities_Consistent>
1

> <s_lp_Variant>
AV-unprocessed.smi:2973-6

> <Gold.Version>
5.8.1

> <Gold.Id.Protein>
6NUR|6NUR_protein|mol2

> <Gold.PLP.Fitness>
46.3283

> <Gold.PLP.PLP>
-38.1301

> <Gold.PLP.part.hbond>
-3.0000

> <Gold.PLP.part.metal>
0.0000

> <Gold.PLP.part.buried>
-2.0523

> <Gold.PLP.part.nonpolar>
-31.9926

> <Gold.PLP.part.repulsive>
0.3404

> <Gold.PLP.ligand.clash>
0.0000

> <Gold.PLP.ligand.torsion>
0.9331

> <Gold.PLP.Chemscore.Hbond>
3.3370

> <Gold.PLP.Chemscore.CHOScore>
0.0000

> <Gold.PLP.Chemscore.Metal>
0.0000

> <Gold.Chemscore.Hbonds>
donor molecule, donor type, donor heavy atom, donor atom, acceptor molecule, acceptor atom, score
      L1  H    23    50       P1  7948  2.00
      P1  H  7989  7998       L1    25  0.28
      P1  H  7997  8008       L1    25  1.00

> <Gold.PLP.Chemscore.Internal.Correction>
0.0534

> <Gold.Rescore>
     Score         DG    S(hbond)    S(metal)    S(lipo)     H(rot)  DE(clash)    DE(int)     intcor
     14.45     -17.95       1.91        0.00      95.03       1.96       0.00       3.50       ----

> <Gold.Chemscore.Fitness>
14.4476

> <Gold.Chemscore.DG>
-17.9462

> <Gold.Chemscore.ZeroCoef>
-5.4800

> <Gold.Chemscore.Hbond>
1.9087

> <Gold.Chemscore.Metal>
0.0000

> <Gold.Chemscore.Lipo>
95.0291

> <Gold.Chemscore.Internal_Hbond>
0.0000

> <Gold.Chemscore.DEClash>
0.0000

> <Gold.Chemscore.DEInternal>
3.4986

> <Gold.Chemscore.Rot>
1.9638

> <Gold.Chemscore.Internal.Correction>
   9.000000E+99

> <Gold.Chemscore.Hbonds>
donor molecule, donor type, donor heavy atom, donor atom, acceptor molecule, acceptor atom, score
      L1  H    23    50       P1  7948  0.60
      P1  H  7989  7998       L1    25  0.25
      P1  H  7997  8008       L1    25  0.74

> <Gold.Chemscore.Hbond.Weighted>
-6.3752

> <Gold.Chemscore.Metal.Weighted>
-0.0000

> <Gold.Chemscore.Lipo.Weighted>
-11.1184

> <Gold.Chemscore.Internal_Hbond.Weighted>
0.0000

> <Gold.Chemscore.DEClash.Weighted>
0.0000

> <Gold.Chemscore.DEInternal.Weighted>
3.4986

> <Gold.Chemscore.Rot.Weighted>
5.0274

> <Gold.Chemscore.Internal.Correction.Weighted>
   9.000000E+99

> <Gold.Protein.RotatedTorsions>
[ 6907 6896 6895 6894 ] final   -5.73 input  -60.11 | X-H torsion
[ 7974 7965 7964 7962 ] final   52.87 input  175.53 | X-H torsion
[ 8008 7997 7996 7995 ] final  -26.73 input   59.86 | X-H torsion
[ 10167 10162 10161 10158 ] final -138.37 input  -65.29 | X-H torsion
[ 10718 10713 10712 10709 ] final   74.23 input   66.30 | X-H torsion
[ 10763 10752 10751 10750 ] final  143.68 input  -60.55 | X-H torsion
[ 11005 11000 10999 10996 ] final  -48.27 input  -57.11 | X-H torsion

> <Gold.Protein.ActiveResidues>
 VAL166  LYS551  ARG553  GLY616  TRP617  ASP618  TYR619  PRO620  LYS621  CYS622 
 ASP623  PHE694  ASN695  SER759  ASP760  ASP761  ALA762  ILE779  LEU786  VAL792 
 PHE793  MET794  SER795  GLU796  ALA797  LYS798  CYS799  TRP800  GLU811  SER814 

> <Gold.Protein.RotatedAtoms>
  151.4768  135.1049  159.9766 H   0  0  0  0  0  0  0  0  0  0  0  0  # atno 6907 bound_to 6896
  152.4795  133.8215  159.7066 H   0  0  0  0  0  0  0  0  0  0  0  0  # atno 6908 bound_to 6896
  150.8856  133.7251  159.2946 H   0  0  0  0  0  0  0  0  0  0  0  0  # atno 6909 bound_to 6896
  145.9769  139.4204  143.0156 H   0  0  0  0  0  0  0  0  0  0  0  0  # atno 7974 bound_to 7965
  154.4411  140.1891  156.0821 H   0  0  0  0  0  0  0  0  0  0  0  0  # atno 8008 bound_to 7997
  156.0431  140.3317  155.7239 H   0  0  0  0  0  0  0  0  0  0  0  0  # atno 8009 bound_to 7997
  155.5670  140.0609  157.2806 H   0  0  0  0  0  0  0  0  0  0  0  0  # atno 8010 bound_to 7997
  139.8485  143.7229  152.2659 H   0  0  0  0  0  0  0  0  0  0  0  0  # atno 10167 bound_to 10162
  157.6583  130.9667  150.1181 H   0  0  0  0  0  0  0  0  0  0  0  0  # atno 10718 bound_to 10713
  153.9763  135.2945  155.3423 H   0  0  0  0  0  0  0  0  0  0  0  0  # atno 10763 bound_to 10752
  154.7294  135.5074  153.8942 H   0  0  0  0  0  0  0  0  0  0  0  0  # atno 10764 bound_to 10752
  153.0875  135.6698  154.0032 H   0  0  0  0  0  0  0  0  0  0  0  0  # atno 10765 bound_to 10752
  141.0690  133.6685  156.3416 H   0  0  0  0  0  0  0  0  0  0  0  0  # atno 11005 bound_to 11000
  145.7825  140.9850  143.1091 LP  0  0  0  0  0  0  0  0  0  0  0  0  # atno 17320 bound_to 7965
  144.6851  139.9582  143.7479 LP  0  0  0  0  0  0  0  0  0  0  0  0  # atno 17321 bound_to 7965
  139.7489  144.7540  151.0537 LP  0  0  0  0  0  0  0  0  0  0  0  0  # atno 17342 bound_to 10162
  140.7790  143.4884  150.9926 LP  0  0  0  0  0  0  0  0  0  0  0  0  # atno 17343 bound_to 10162
  156.2060  130.3663  149.8729 LP  0  0  0  0  0  0  0  0  0  0  0  0  # atno 17370 bound_to 10713
  156.6621  130.8786  151.3549 LP  0  0  0  0  0  0  0  0  0  0  0  0  # atno 17371 bound_to 10713
  140.5712  134.5838  157.5458 LP  0  0  0  0  0  0  0  0  0  0  0  0  # atno 17394 bound_to 11000
  139.9505  134.7626  156.0460 LP  0  0  0  0  0  0  0  0  0  0  0  0  # atno 17395 bound_to 11000

$$$$
