AV-unprocessed.smi:1529|AV-procd|sdf|6152|dock1
  -GOLD-   22720 6303D 1   1.00000     0.00000
 Structure written by MMmdl.
 50 51  0  0  0  0  0  0  0  0  1 V2000
  141.2829  138.0972  152.9559 C   0  0  0  0  0  0  0  0  0  0  0  0
  142.6113  137.3760  153.1588 C   0  0  0  0  0  0  0  0  0  0  0  0
  142.6353  136.2574  153.6713 O   0  0  0  0  0  0  0  0  0  0  0  0
  143.7095  138.0304  152.7521 N   0  0  0  0  0  0  0  0  0  0  0  0
  145.0749  137.5251  152.8562 C   0  0  0  0  0  0  0  0  0  0  0  0
  145.9432  138.3579  153.8168 C   0  0  0  0  0  0  0  0  0  0  0  0
  147.0941  139.1043  153.1177 C   0  0  0  0  0  0  0  0  0  0  0  0
  147.9554  139.7794  154.0807 N   0  0  0  0  0  0  0  0  0  0  0  0
  149.2157  139.4191  154.3736 C   0  0  0  0  0  0  0  0  0  0  0  0
  149.7809  138.4505  153.8650 O   0  0  0  0  0  0  0  0  0  0  0  0
  149.8960  140.2368  155.4331 C   0  0  0  0  0  0  0  0  0  0  0  0
  149.1883  141.2326  156.1378 C   0  0  0  0  0  0  0  0  0  0  0  0
  149.8505  141.9673  157.1399 C   0  0  0  0  0  0  0  0  0  0  0  0
  151.2082  141.6853  157.4210 C   0  0  0  0  0  0  0  0  0  0  0  0
  151.8935  142.4133  158.4178 N   0  0  0  0  0  0  0  0  0  0  0  0
  151.4270  143.7646  158.7217 C   0  0  0  0  0  0  0  0  0  0  0  0
  152.4526  144.5041  159.6004 C   0  0  1  0  0  0  0  0  0  0  0  0
  151.9465  145.8821  160.0394 C   0  0  0  0  0  0  0  0  0  0  0  0
  152.7110  143.7293  160.7680 O   0  0  0  0  0  0  0  0  0  0  0  0
  153.2705  142.4548  160.4627 C   0  0  1  0  0  0  0  0  0  0  0  0
  153.5964  141.7451  161.7810 C   0  0  0  0  0  0  0  0  0  0  0  0
  152.2715  141.6536  159.6066 C   0  0  0  0  0  0  0  0  0  0  0  0
  151.8815  140.7144  156.7560 N   0  0  0  0  0  0  0  0  0  0  0  0
  151.2428  140.0130  155.7959 C   0  0  0  0  0  0  0  0  0  0  0  0
  141.2986  139.0715  153.4454 H   0  0  0  0  0  0  0  0  0  0  0  0
  140.4592  137.5181  153.3751 H   0  0  0  0  0  0  0  0  0  0  0  0
  141.0896  138.2463  151.8934 H   0  0  0  0  0  0  0  0  0  0  0  0
  143.5915  138.9444  152.3390 H   0  0  0  0  0  0  0  0  0  0  0  0
  145.0591  136.4818  153.1757 H   0  0  0  0  0  0  0  0  0  0  0  0
  145.5170  137.5325  151.8596 H   0  0  0  0  0  0  0  0  0  0  0  0
  145.3168  139.0722  154.3532 H   0  0  0  0  0  0  0  0  0  0  0  0
  146.3532  137.6902  154.5757 H   0  0  0  0  0  0  0  0  0  0  0  0
  147.6798  138.4168  152.5048 H   0  0  0  0  0  0  0  0  0  0  0  0
  146.6974  139.8615  152.4411 H   0  0  0  0  0  0  0  0  0  0  0  0
  147.5627  140.5732  154.5658 H   0  0  0  0  0  0  0  0  0  0  0  0
  148.1503  141.4383  155.9184 H   0  0  0  0  0  0  0  0  0  0  0  0
  149.3074  142.7227  157.6877 H   0  0  0  0  0  0  0  0  0  0  0  0
  151.2720  144.3246  157.7984 H   0  0  0  0  0  0  0  0  0  0  0  0
  150.4654  143.7058  159.2339 H   0  0  0  0  0  0  0  0  0  0  0  0
  153.3832  144.6373  159.0455 H   0  0  0  0  0  0  0  0  0  0  0  0
  151.7437  146.5185  159.1778 H   0  0  0  0  0  0  0  0  0  0  0  0
  152.6859  146.3889  160.6599 H   0  0  0  0  0  0  0  0  0  0  0  0
  151.0264  145.7985  160.6188 H   0  0  0  0  0  0  0  0  0  0  0  0
  154.1995  142.5955  159.9069 H   0  0  0  0  0  0  0  0  0  0  0  0
  154.0400  140.7656  161.6006 H   0  0  0  0  0  0  0  0  0  0  0  0
  152.6992  141.6009  162.3836 H   0  0  0  0  0  0  0  0  0  0  0  0
  154.3045  142.3267  162.3717 H   0  0  0  0  0  0  0  0  0  0  0  0
  151.3709  141.4377  160.1832 H   0  0  0  0  0  0  0  0  0  0  0  0
  152.7171  140.6947  159.3459 H   0  0  0  0  0  0  0  0  0  0  0  0
  151.8333  139.2494  155.3109 H   0  0  0  0  0  0  0  0  0  0  0  0
  1  2  1  0  0  0  0
  1 25  1  0  0  0  0
  1 26  1  0  0  0  0
  1 27  1  0  0  0  0
  2  3  2  0  0  0  0
  2  4  1  0  0  0  0
  4  5  1  0  0  0  0
  4 28  1  0  0  0  0
  5  6  1  0  0  0  0
  5 29  1  0  0  0  0
  5 30  1  0  0  0  0
  6  7  1  0  0  0  0
  6 31  1  0  0  0  0
  6 32  1  0  0  0  0
  7  8  1  0  0  0  0
  7 33  1  0  0  0  0
  7 34  1  0  0  0  0
  8  9  1  0  0  0  0
  8 35  1  0  0  0  0
  9 10  2  0  0  0  0
  9 11  1  0  0  0  0
 11 24  1  0  0  0  0
 11 12  2  0  0  0  0
 12 13  1  0  0  0  0
 12 36  1  0  0  0  0
 13 14  2  0  0  0  0
 13 37  1  0  0  0  0
 14 15  1  0  0  0  0
 14 23  1  0  0  0  0
 15 22  1  0  0  0  0
 15 16  1  0  0  0  0
 16 17  1  0  0  0  0
 16 38  1  0  0  0  0
 16 39  1  0  0  0  0
 17 18  1  0  0  0  0
 17 19  1  0  0  0  0
 17 40  1  0  0  0  0
 18 41  1  0  0  0  0
 18 42  1  0  0  0  0
 18 43  1  0  0  0  0
 19 20  1  0  0  0  0
 20 21  1  0  0  0  0
 20 22  1  0  0  0  0
 20 44  1  0  0  0  0
 21 45  1  0  0  0  0
 21 46  1  0  0  0  0
 21 47  1  0  0  0  0
 22 48  1  0  0  0  0
 22 49  1  0  0  0  0
 23 24  2  0  0  0  0
 24 50  1  0  0  0  0
M  END
> <s_m_source_file>
AV-unprocessed.smi

> <i_m_source_file_index>
1529

> <i_lp_mmshare_version>
43012

> <i_f3d_flags>
0

> <s_epik_input>
W0NIM11DKD1PKVtOSF1bQ0gyXVtDSDJdW0NIMl1bTkhdQyg9TyljMVtjSF1bY0hdYyhuW2NIXTEpTjJbQ0gyXVtDQEBIXShbQ0gzXSlPW0NAQEhdKFtDSDNdKVtDSDJdMg==

> <s_epik_cmdline>
J2VwaWtfcHl0aG9uJywgJy1waCcsICc3LjAnLCAnLXRuJywgJzgnLCAnLW1hJywgJzIwMCcsICctbWV0YWxfYmluZGluZycsICctaW1hZScsICc8aW5maWxlLm1hZT4nLCAnLW9tYWUnLCAnPG91dGZpbGUubWFlPic=

> <r_lp_tautomer_probability>
1

> <r_epik_Ionization_Penalty>
2.1474e-05

> <r_epik_Ionization_Penalty_Charging>
0

> <r_epik_Ionization_Penalty_Neutral>
2.1474e-05

> <r_epik_State_Penalty>
-0

> <r_epik_Charging_Adjusted_Penalty>
0

> <i_epik_Tot_Q>
0

> <i_epik_Tot_abs_Q>
0

> <r_epik_Metal_State_Penalty>
-0

> <b_epik_Metal_Only>
0

> <s_lp_Force_Field>
OPLS_2005

> <r_lp_Energy>
16.5769

> <b_lp_Chiralities_Consistent>
1

> <s_lp_Variant>
AV-unprocessed.smi:1529-1

> <Gold.Version>
5.8.1

> <Gold.Id.Protein>
6NUR|6NUR_protein|mol2

> <Gold.PLP.Fitness>
45.7080

> <Gold.PLP.PLP>
-44.0460

> <Gold.PLP.part.hbond>
-1.8079

> <Gold.PLP.part.metal>
0.0000

> <Gold.PLP.part.buried>
-4.7368

> <Gold.PLP.part.nonpolar>
-38.2198

> <Gold.PLP.part.repulsive>
1.2922

> <Gold.PLP.ligand.clash>
0.0000

> <Gold.PLP.ligand.torsion>
0.8636

> <Gold.PLP.Chemscore.Hbond>
1.0000

> <Gold.PLP.Chemscore.CHOScore>
0.0000

> <Gold.PLP.Chemscore.Metal>
0.0000

> <Gold.Chemscore.Hbonds>
donor molecule, donor type, donor heavy atom, donor atom, acceptor molecule, acceptor atom, score
      L1  H     4    28       P1 10175  0.89

> <Gold.PLP.Chemscore.Internal.Correction>
0.3893

> <Gold.Rescore>
     Score         DG    S(hbond)    S(metal)    S(lipo)     H(rot)  DE(clash)    DE(int)     intcor
     15.31     -16.31       0.99        0.00     109.52       2.07       0.16       0.84       ----

> <Gold.Chemscore.Fitness>
15.3091

> <Gold.Chemscore.DG>
-16.3127

> <Gold.Chemscore.ZeroCoef>
-5.4800

> <Gold.Chemscore.Hbond>
0.9944

> <Gold.Chemscore.Metal>
0.0000

> <Gold.Chemscore.Lipo>
109.5203

> <Gold.Chemscore.Internal_Hbond>
0.0000

> <Gold.Chemscore.DEClash>
0.1590

> <Gold.Chemscore.DEInternal>
0.8446

> <Gold.Chemscore.Rot>
2.0713

> <Gold.Chemscore.Internal.Correction>
   9.000000E+99

> <Gold.Chemscore.Hbonds>
donor molecule, donor type, donor heavy atom, donor atom, acceptor molecule, acceptor atom, score
      L1  H     4    28       P1 10175  0.83

> <Gold.Chemscore.Hbond.Weighted>
-3.3213

> <Gold.Chemscore.Metal.Weighted>
-0.0000

> <Gold.Chemscore.Lipo.Weighted>
-12.8139

> <Gold.Chemscore.Internal_Hbond.Weighted>
0.0000

> <Gold.Chemscore.DEClash.Weighted>
0.1590

> <Gold.Chemscore.DEInternal.Weighted>
0.8446

> <Gold.Chemscore.Rot.Weighted>
5.3025

> <Gold.Chemscore.Internal.Correction.Weighted>
   9.000000E+99

> <Gold.Protein.RotatedTorsions>
[ 6907 6896 6895 6894 ] final  -20.23 input  -60.11 | X-H torsion
[ 7974 7965 7964 7962 ] final  140.47 input  175.53 | X-H torsion
[ 8008 7997 7996 7995 ] final  -96.72 input   59.86 | X-H torsion
[ 10167 10162 10161 10158 ] final  131.18 input  -65.29 | X-H torsion
[ 10718 10713 10712 10709 ] final  -40.64 input   66.30 | X-H torsion
[ 10763 10752 10751 10750 ] final   57.44 input  -60.55 | X-H torsion
[ 11005 11000 10999 10996 ] final  117.05 input  -57.11 | X-H torsion

> <Gold.Protein.ActiveResidues>
 VAL166  LYS551  ARG553  GLY616  TRP617  ASP618  TYR619  PRO620  LYS621  CYS622 
 ASP623  PHE694  ASN695  SER759  ASP760  ASP761  ALA762  ILE779  LEU786  VAL792 
 PHE793  MET794  SER795  GLU796  ALA797  LYS798  CYS799  TRP800  GLU811  SER814 

> <Gold.Protein.RotatedAtoms>
  151.2512  135.0623  159.9062 H   0  0  0  0  0  0  0  0  0  0  0  0  # atno 6907 bound_to 6896
  152.5380  134.0330  159.8043 H   0  0  0  0  0  0  0  0  0  0  0  0  # atno 6908 bound_to 6896
  151.0538  133.5552  159.2671 H   0  0  0  0  0  0  0  0  0  0  0  0  # atno 6909 bound_to 6896
  144.9184  139.5200  143.5675 H   0  0  0  0  0  0  0  0  0  0  0  0  # atno 7974 bound_to 7965
  154.7782  140.0469  157.1106 H   0  0  0  0  0  0  0  0  0  0  0  0  # atno 8008 bound_to 7997
  154.9736  140.3092  155.4957 H   0  0  0  0  0  0  0  0  0  0  0  0  # atno 8009 bound_to 7997
  156.2932  140.2248  156.4831 H   0  0  0  0  0  0  0  0  0  0  0  0  # atno 8010 bound_to 7997
  139.5395  144.6717  151.4671 H   0  0  0  0  0  0  0  0  0  0  0  0  # atno 10167 bound_to 10162
  156.2791  130.4215  149.8356 H   0  0  0  0  0  0  0  0  0  0  0  0  # atno 10718 bound_to 10713
  152.9850  135.5641  154.5391 H   0  0  0  0  0  0  0  0  0  0  0  0  # atno 10763 bound_to 10752
  154.4849  135.2790  155.1544 H   0  0  0  0  0  0  0  0  0  0  0  0  # atno 10764 bound_to 10752
  154.3037  135.6302  153.5489 H   0  0  0  0  0  0  0  0  0  0  0  0  # atno 10765 bound_to 10752
  139.9061  134.9605  156.7292 H   0  0  0  0  0  0  0  0  0  0  0  0  # atno 11005 bound_to 11000
  146.3193  139.8044  142.8958 LP  0  0  0  0  0  0  0  0  0  0  0  0  # atno 17320 bound_to 7965
  145.3337  141.0272  143.3432 LP  0  0  0  0  0  0  0  0  0  0  0  0  # atno 17321 bound_to 7965
  140.6619  143.8480  150.6897 LP  0  0  0  0  0  0  0  0  0  0  0  0  # atno 17342 bound_to 10162
  140.1878  143.4062  152.1886 LP  0  0  0  0  0  0  0  0  0  0  0  0  # atno 17343 bound_to 10162
  156.5809  130.8465  151.3383 LP  0  0  0  0  0  0  0  0  0  0  0  0  # atno 17370 bound_to 10713
  157.7309  130.9692  150.1853 LP  0  0  0  0  0  0  0  0  0  0  0  0  # atno 17371 bound_to 10713
  140.6939  133.9366  155.7983 LP  0  0  0  0  0  0  0  0  0  0  0  0  # atno 17394 bound_to 11000
  141.0421  134.0606  157.3889 LP  0  0  0  0  0  0  0  0  0  0  0  0  # atno 17395 bound_to 11000

$$$$
