AV-unprocessed.smi:605|AV-procd|sdf|3040|dock7
  -GOLD-   2262023563D 1   1.00000     0.00000
 Structure written by MMmdl.
 34 35  0  0  0  0  0  0  0  0  2 V2000
  147.5635  136.3119  163.4651 C   0  0  0  0  0  0  0  0  0  0  0  0
  146.9005  135.6810  162.2321 C   0  0  0  0  0  0  0  0  0  0  0  0
  146.6355  134.1770  162.3929 C   0  0  0  0  0  0  0  0  0  0  0  0
  147.6456  135.9891  160.9711 C   0  0  0  0  0  0  0  0  0  0  0  0
  148.0419  137.2217  160.6392 N   0  0  0  0  0  0  0  0  0  0  0  0
  148.7164  137.2478  159.4279 N   0  0  0  0  0  0  0  0  0  0  0  0
  148.8323  136.0371  158.8646 C   0  0  0  0  0  0  0  0  0  0  0  0
  149.4625  135.8422  157.6914 N   0  5  0  0  0  0  0  0  0  0  0  0
  149.9848  136.8644  156.9631 C   0  0  0  0  0  0  0  0  0  0  0  0
  149.9092  138.0438  157.3052 O   0  0  0  0  0  0  0  0  0  0  0  0
  150.6158  136.5588  155.8125 N   0  0  0  0  0  0  0  0  0  0  0  0
  151.2360  137.5052  154.8887 C   0  0  0  0  0  0  0  0  0  0  0  0
  152.4285  138.2147  155.5590 C   0  0  0  0  0  0  0  0  0  0  0  0
  152.2310  139.7106  155.3064 C   0  0  0  0  0  0  0  0  0  0  0  0
  150.7190  139.8802  155.2011 C   0  0  0  0  0  0  0  0  0  0  0  0
  150.2518  138.6179  154.4767 C   0  0  0  0  0  0  0  0  0  0  0  0
  148.0741  134.7508  159.8015 S   0  0  0  0  0  0  0  0  0  0  0  0
  147.6600  137.3919  163.3489 H   0  0  0  0  0  0  0  0  0  0  0  0
  148.5612  135.9042  163.6304 H   0  0  0  0  0  0  0  0  0  0  0  0
  146.9764  136.1280  164.3652 H   0  0  0  0  0  0  0  0  0  0  0  0
  145.9230  136.1550  162.1342 H   0  0  0  0  0  0  0  0  0  0  0  0
  146.0899  133.7815  161.5355 H   0  0  0  0  0  0  0  0  0  0  0  0
  146.0413  133.9757  163.2845 H   0  0  0  0  0  0  0  0  0  0  0  0
  147.5673  133.6176  162.4818 H   0  0  0  0  0  0  0  0  0  0  0  0
  150.6713  135.5826  155.5620 H   0  0  0  0  0  0  0  0  0  0  0  0
  151.5822  136.9755  153.9994 H   0  0  0  0  0  0  0  0  0  0  0  0
  152.4289  138.0340  156.6352 H   0  0  0  0  0  0  0  0  0  0  0  0
  153.3859  137.8609  155.1752 H   0  0  0  0  0  0  0  0  0  0  0  0
  152.6701  140.3300  156.0889 H   0  0  0  0  0  0  0  0  0  0  0  0
  152.6970  139.9881  154.3601 H   0  0  0  0  0  0  0  0  0  0  0  0
  150.2818  139.9126  156.2001 H   0  0  0  0  0  0  0  0  0  0  0  0
  150.4322  140.7941  154.6800 H   0  0  0  0  0  0  0  0  0  0  0  0
  150.3208  138.7748  153.3994 H   0  0  0  0  0  0  0  0  0  0  0  0
  149.2101  138.3818  154.6980 H   0  0  0  0  0  0  0  0  0  0  0  0
  1  2  1  0  0  0  0
  1 18  1  0  0  0  0
  1 19  1  0  0  0  0
  1 20  1  0  0  0  0
  2  3  1  0  0  0  0
  2  4  1  0  0  0  0
  2 21  1  0  0  0  0
  3 22  1  0  0  0  0
  3 23  1  0  0  0  0
  3 24  1  0  0  0  0
  4 17  1  0  0  0  0
  4  5  2  0  0  0  0
  5  6  1  0  0  0  0
  6  7  2  0  0  0  0
  7  8  1  0  0  0  0
  7 17  1  0  0  0  0
  8  9  1  0  0  0  0
  9 10  2  0  0  0  0
  9 11  1  0  0  0  0
 11 12  1  0  0  0  0
 11 25  1  0  0  0  0
 12 16  1  0  0  0  0
 12 13  1  0  0  0  0
 12 26  1  0  0  0  0
 13 14  1  0  0  0  0
 13 27  1  0  0  0  0
 13 28  1  0  0  0  0
 14 15  1  0  0  0  0
 14 29  1  0  0  0  0
 14 30  1  0  0  0  0
 15 16  1  0  0  0  0
 15 31  1  0  0  0  0
 15 32  1  0  0  0  0
 16 33  1  0  0  0  0
 16 34  1  0  0  0  0
M  CHG  1   8  -1
M  END
> <s_m_source_file>
AV-unprocessed.smi

> <i_m_source_file_index>
605

> <i_lp_mmshare_version>
43012

> <i_f3d_flags>
0

> <s_epik_input>
W0NIM11bQ0hdKFtDSDNdKWMxbm5jKHMxKVtOSF1DKD1PKVtOSF1bQ0hdMltDSDJdW0NIMl1bQ0gyXVtDSDJdMg==

> <s_epik_cmdline>
J2VwaWtfcHl0aG9uJywgJy1waCcsICc3LjAnLCAnLXRuJywgJzgnLCAnLW1hJywgJzIwMCcsICctbWV0YWxfYmluZGluZycsICctaW1hZScsICc8aW5maWxlLm1hZT4nLCAnLW9tYWUnLCAnPG91dGZpbGUubWFlPic=

> <r_lp_tautomer_probability>
1

> <r_epik_Ionization_Penalty>
4.57432

> <r_epik_Ionization_Penalty_Charging>
4.40687

> <r_epik_Ionization_Penalty_Neutral>
0.167446

> <r_epik_State_Penalty>
4.40652

> <r_epik_Charging_Adjusted_Penalty>
8.8134

> <i_epik_Tot_Q>
-1

> <i_epik_Tot_abs_Q>
1

> <r_epik_Metal_State_Penalty>
0.774635

> <b_epik_Metal_Only>
1

> <s_lp_Force_Field>
OPLS_2005

> <r_lp_Energy>
11.4858

> <b_lp_Chiralities_Consistent>
1

> <s_lp_Variant>
AV-unprocessed.smi:605-2

> <Gold.Version>
5.8.1

> <Gold.Id.Protein>
6NUR|6NUR_protein|mol2

> <Gold.PLP.Fitness>
35.3789

> <Gold.PLP.PLP>
-30.9735

> <Gold.PLP.part.hbond>
-2.0444

> <Gold.PLP.part.metal>
0.0000

> <Gold.PLP.part.buried>
-1.4593

> <Gold.PLP.part.nonpolar>
-27.7073

> <Gold.PLP.part.repulsive>
0.0794

> <Gold.PLP.ligand.clash>
0.0000

> <Gold.PLP.ligand.torsion>
0.1650

> <Gold.PLP.Chemscore.Hbond>
1.5520

> <Gold.PLP.Chemscore.CHOScore>
0.0000

> <Gold.PLP.Chemscore.Metal>
0.0000

> <Gold.Chemscore.Hbonds>
donor molecule, donor type, donor heavy atom, donor atom, acceptor molecule, acceptor atom, score
      P1  H  6931  6943       L1     5  0.80
      P1  H  6934  6947       L1     5  0.74

> <Gold.PLP.Chemscore.Internal.Correction>
0.0795

> <Gold.Rescore>
     Score         DG    S(hbond)    S(metal)    S(lipo)     H(rot)  DE(clash)    DE(int)     intcor
     10.60     -15.43       1.17        0.00      77.68       1.18       0.42       4.41       ----

> <Gold.Chemscore.Fitness>
10.5998

> <Gold.Chemscore.DG>
-15.4322

> <Gold.Chemscore.ZeroCoef>
-5.4800

> <Gold.Chemscore.Hbond>
1.1657

> <Gold.Chemscore.Metal>
0.0000

> <Gold.Chemscore.Lipo>
77.6765

> <Gold.Chemscore.Internal_Hbond>
0.0000

> <Gold.Chemscore.DEClash>
0.4217

> <Gold.Chemscore.DEInternal>
4.4107

> <Gold.Chemscore.Rot>
1.1833

> <Gold.Chemscore.Internal.Correction>
   9.000000E+99

> <Gold.Chemscore.Hbonds>
donor molecule, donor type, donor heavy atom, donor atom, acceptor molecule, acceptor atom, score
      P1  H  6931  6943       L1     5  0.51
      P1  H  6934  6947       L1     5  0.46

> <Gold.Chemscore.Hbond.Weighted>
-3.8934

> <Gold.Chemscore.Metal.Weighted>
-0.0000

> <Gold.Chemscore.Lipo.Weighted>
-9.0881

> <Gold.Chemscore.Internal_Hbond.Weighted>
0.0000

> <Gold.Chemscore.DEClash.Weighted>
0.4217

> <Gold.Chemscore.DEInternal.Weighted>
4.4107

> <Gold.Chemscore.Rot.Weighted>
3.0293

> <Gold.Chemscore.Internal.Correction.Weighted>
   9.000000E+99

> <Gold.Protein.RotatedTorsions>
[ 6907 6896 6895 6894 ] final  -29.20 input  -60.11 | X-H torsion
[ 7974 7965 7964 7962 ] final   28.11 input  175.53 | X-H torsion
[ 8008 7997 7996 7995 ] final -166.15 input   59.86 | X-H torsion
[ 10167 10162 10161 10158 ] final  139.58 input  -65.29 | X-H torsion
[ 10718 10713 10712 10709 ] final   11.72 input   66.30 | X-H torsion
[ 10763 10752 10751 10750 ] final   95.11 input  -60.55 | X-H torsion
[ 11005 11000 10999 10996 ] final  146.13 input  -57.11 | X-H torsion

> <Gold.Protein.ActiveResidues>
 VAL166  LYS551  ARG553  GLY616  TRP617  ASP618  TYR619  PRO620  LYS621  CYS622 
 ASP623  PHE694  ASN695  SER759  ASP760  ASP761  ALA762  ILE779  LEU786  VAL792 
 PHE793  MET794  SER795  GLU796  ALA797  LYS798  CYS799  TRP800  GLU811  SER814 

> <Gold.Protein.RotatedAtoms>
  151.1225  135.0087  159.8544 H   0  0  0  0  0  0  0  0  0  0  0  0  # atno 6907 bound_to 6896
  152.5448  134.1706  159.8605 H   0  0  0  0  0  0  0  0  0  0  0  0  # atno 6908 bound_to 6896
  151.1765  133.4706  159.2627 H   0  0  0  0  0  0  0  0  0  0  0  0  # atno 6909 bound_to 6896
  146.1747  139.7100  142.8943 H   0  0  0  0  0  0  0  0  0  0  0  0  # atno 7974 bound_to 7965
  155.8598  140.0976  157.1621 H   0  0  0  0  0  0  0  0  0  0  0  0  # atno 8008 bound_to 7997
  154.3990  140.1367  156.4009 H   0  0  0  0  0  0  0  0  0  0  0  0  # atno 8009 bound_to 7997
  155.7869  140.3457  155.5330 H   0  0  0  0  0  0  0  0  0  0  0  0  # atno 8010 bound_to 7997
  139.5074  144.6286  151.5875 H   0  0  0  0  0  0  0  0  0  0  0  0  # atno 10167 bound_to 10162
  156.9997  130.6075  149.5695 H   0  0  0  0  0  0  0  0  0  0  0  0  # atno 10718 bound_to 10713
  153.2494  135.4265  155.0781 H   0  0  0  0  0  0  0  0  0  0  0  0  # atno 10763 bound_to 10752
  154.8375  135.3422  154.6535 H   0  0  0  0  0  0  0  0  0  0  0  0  # atno 10764 bound_to 10752
  153.6956  135.7031  153.5134 H   0  0  0  0  0  0  0  0  0  0  0  0  # atno 10765 bound_to 10752
  140.0768  134.9120  157.1436 H   0  0  0  0  0  0  0  0  0  0  0  0  # atno 11005 bound_to 11000
  145.4245  141.0409  143.2945 LP  0  0  0  0  0  0  0  0  0  0  0  0  # atno 17320 bound_to 7965
  144.8217  139.5780  143.6984 LP  0  0  0  0  0  0  0  0  0  0  0  0  # atno 17321 bound_to 7965
  140.6011  143.9608  150.6387 LP  0  0  0  0  0  0  0  0  0  0  0  0  # atno 17342 bound_to 10162
  140.2820  143.3383  152.1142 LP  0  0  0  0  0  0  0  0  0  0  0  0  # atno 17343 bound_to 10162
  156.0176  130.5270  150.8180 LP  0  0  0  0  0  0  0  0  0  0  0  0  # atno 17370 bound_to 10713
  157.5399  131.0940  150.9841 LP  0  0  0  0  0  0  0  0  0  0  0  0  # atno 17371 bound_to 10713
  140.3546  134.2561  155.7194 LP  0  0  0  0  0  0  0  0  0  0  0  0  # atno 17394 bound_to 11000
  141.2032  133.7917  157.0350 LP  0  0  0  0  0  0  0  0  0  0  0  0  # atno 17395 bound_to 11000

$$$$
