AV-unprocessed.smi:1107|AV-procd|sdf|4785|dock9
  -GOLD-   22720 3333D 1   1.00000     0.00000
 Structure written by MMmdl.
 48 49  0  0  0  0  0  0  0  0  3 V2000
  149.9120  142.8538  157.4194 C   0  0  0  0  0  0  0  0  0  0  0  0
  150.0933  141.6303  156.5466 C   0  0  0  0  0  0  0  0  0  0  0  0
  149.1706  141.3121  155.7209 N   0  0  0  0  0  0  0  0  0  0  0  0
  149.3257  140.1718  154.9146 C   0  0  0  0  0  0  0  0  0  0  0  0
  148.1609  139.8469  153.9961 C   0  0  0  0  0  0  0  0  0  0  0  0
  150.4543  139.4088  154.9836 C   0  0  0  0  0  0  0  0  0  0  0  0
  150.6579  138.1192  154.1869 C   0  0  0  0  0  0  0  0  0  0  0  0
  150.6253  136.8384  155.0240 C   0  0  0  0  0  0  0  0  0  0  0  0
  151.2553  136.7745  156.0787 O   0  0  0  0  0  0  0  0  0  0  0  0
  149.8481  135.8464  154.5608 N   0  0  0  0  0  0  0  0  0  0  0  0
  149.4767  134.6301  155.2769 C   0  0  2  0  0  0  0  0  0  0  0  0
  150.7009  134.0844  156.0240 C   0  0  0  0  0  0  0  0  0  0  0  0
  148.8999  133.5911  154.2884 C   0  0  0  0  0  0  0  0  0  0  0  0
  147.8774  134.1497  153.3627 N   0  3  0  0  0  0  0  0  0  0  0  0
  147.4771  133.1723  152.3165 C   0  0  0  0  0  0  0  0  0  0  0  0
  146.4943  133.7900  151.3067 C   0  0  0  0  0  0  0  0  0  0  0  0
  145.2695  134.3828  152.0133 C   0  0  0  0  0  0  0  0  0  0  0  0
  145.7192  135.3767  153.0908 C   0  0  0  0  0  0  0  0  0  0  0  0
  146.6984  134.7142  154.0726 C   0  0  0  0  0  0  0  0  0  0  0  0
  151.4968  139.8144  155.9418 C   0  0  0  0  0  0  0  0  0  0  0  0
  152.5292  139.1539  156.0479 O   0  0  0  0  0  0  0  0  0  0  0  0
  151.2605  140.9177  156.7054 N   0  5  0  0  0  0  0  0  0  0  0  0
  149.2259  143.5640  156.9560 H   0  0  0  0  0  0  0  0  0  0  0  0
  150.8648  143.3597  157.5802 H   0  0  0  0  0  0  0  0  0  0  0  0
  149.5057  142.5647  158.3889 H   0  0  0  0  0  0  0  0  0  0  0  0
  147.7944  138.8365  154.1782 H   0  0  0  0  0  0  0  0  0  0  0  0
  148.4679  139.9227  152.9528 H   0  0  0  0  0  0  0  0  0  0  0  0
  147.3303  140.5363  154.1518 H   0  0  0  0  0  0  0  0  0  0  0  0
  149.8981  138.0304  153.4114 H   0  0  0  0  0  0  0  0  0  0  0  0
  151.6050  138.1729  153.6477 H   0  0  0  0  0  0  0  0  0  0  0  0
  149.3941  135.9978  153.6711 H   0  0  0  0  0  0  0  0  0  0  0  0
  148.7218  134.8565  156.0306 H   0  0  0  0  0  0  0  0  0  0  0  0
  150.4499  133.1804  156.5797 H   0  0  0  0  0  0  0  0  0  0  0  0
  151.0813  134.8146  156.7391 H   0  0  0  0  0  0  0  0  0  0  0  0
  151.5110  133.8385  155.3366 H   0  0  0  0  0  0  0  0  0  0  0  0
  149.7275  133.2009  153.6935 H   0  0  0  0  0  0  0  0  0  0  0  0
  148.4844  132.7375  154.8259 H   0  0  0  0  0  0  0  0  0  0  0  0
  148.3623  132.8256  151.7819 H   0  0  0  0  0  0  0  0  0  0  0  0
  147.0275  132.2982  152.7898 H   0  0  0  0  0  0  0  0  0  0  0  0
  146.9956  134.5690  150.7337 H   0  0  0  0  0  0  0  0  0  0  0  0
  146.1795  133.0357  150.5850 H   0  0  0  0  0  0  0  0  0  0  0  0
  144.6206  134.8777  151.2903 H   0  0  0  0  0  0  0  0  0  0  0  0
  144.6817  133.5845  152.4682 H   0  0  0  0  0  0  0  0  0  0  0  0
  146.1960  136.2385  152.6224 H   0  0  0  0  0  0  0  0  0  0  0  0
  144.8522  135.7590  153.6301 H   0  0  0  0  0  0  0  0  0  0  0  0
  146.1930  133.9226  154.6277 H   0  0  0  0  0  0  0  0  0  0  0  0
  147.0165  135.4573  154.8028 H   0  0  0  0  0  0  0  0  0  0  0  0
  148.3195  134.9162  152.8741 H   0  0  0  0  0  0  0  0  0  0  0  0
  1  2  1  0  0  0  0
  1 23  1  0  0  0  0
  1 24  1  0  0  0  0
  1 25  1  0  0  0  0
  2 22  1  0  0  0  0
  2  3  2  0  0  0  0
  3  4  1  0  0  0  0
  4  5  1  0  0  0  0
  4  6  2  0  0  0  0
  5 26  1  0  0  0  0
  5 27  1  0  0  0  0
  5 28  1  0  0  0  0
  6  7  1  0  0  0  0
  6 20  1  0  0  0  0
  7  8  1  0  0  0  0
  7 29  1  0  0  0  0
  7 30  1  0  0  0  0
  8  9  2  0  0  0  0
  8 10  1  0  0  0  0
 10 11  1  0  0  0  0
 10 31  1  0  0  0  0
 11 12  1  0  0  0  0
 11 13  1  0  0  0  0
 11 32  1  0  0  0  0
 12 33  1  0  0  0  0
 12 34  1  0  0  0  0
 12 35  1  0  0  0  0
 13 14  1  0  0  0  0
 13 36  1  0  0  0  0
 13 37  1  0  0  0  0
 14 19  1  0  0  0  0
 14 15  1  0  0  0  0
 14 48  1  0  0  0  0
 15 16  1  0  0  0  0
 15 38  1  0  0  0  0
 15 39  1  0  0  0  0
 16 17  1  0  0  0  0
 16 40  1  0  0  0  0
 16 41  1  0  0  0  0
 17 18  1  0  0  0  0
 17 42  1  0  0  0  0
 17 43  1  0  0  0  0
 18 19  1  0  0  0  0
 18 44  1  0  0  0  0
 18 45  1  0  0  0  0
 19 46  1  0  0  0  0
 19 47  1  0  0  0  0
 20 21  2  0  0  0  0
 20 22  1  0  0  0  0
M  CHG  1  14   1
M  CHG  1  22  -1
M  END
> <s_m_source_file>
AV-unprocessed.smi

> <i_m_source_file_index>
1107

> <i_lp_mmshare_version>
43012

> <i_f3d_flags>
0

> <s_epik_input>
W0NIM11jMW5jKFtDSDNdKWMoYyg9TylbbkhdMSlbQ0gyXUMoPU8pW05IXVtDQEhdKFtDSDNdKVtDSDJdTjJbQ0gyXVtDSDJdW0NIMl1bQ0gyXVtDSDJdMg==

> <s_epik_cmdline>
J2VwaWtfcHl0aG9uJywgJy1waCcsICc3LjAnLCAnLXRuJywgJzgnLCAnLW1hJywgJzIwMCcsICctbWV0YWxfYmluZGluZycsICctaW1hZScsICc8aW5maWxlLm1hZT4nLCAnLW9tYWUnLCAnPG91dGZpbGUubWFlPic=

> <r_lp_tautomer_probability>
0.839158

> <r_epik_Ionization_Penalty>
6.34615

> <r_epik_Ionization_Penalty_Charging>
0.00266072

> <r_epik_Ionization_Penalty_Neutral>
6.34348

> <r_epik_State_Penalty>
4.30851

> <r_epik_Charging_Adjusted_Penalty>
4.31117

> <i_epik_Tot_Q>
0

> <i_epik_Tot_abs_Q>
2

> <r_epik_Metal_State_Penalty>
0.75957

> <b_epik_Metal_Only>
1

> <s_lp_Force_Field>
OPLS_2005

> <r_lp_Energy>
18.3813

> <b_lp_Chiralities_Consistent>
1

> <s_lp_Variant>
AV-unprocessed.smi:1107-5

> <Gold.Version>
5.8.1

> <Gold.Id.Protein>
6NUR|6NUR_protein|mol2

> <Gold.PLP.Fitness>
51.7975

> <Gold.PLP.PLP>
-37.9113

> <Gold.PLP.part.hbond>
-4.6732

> <Gold.PLP.part.metal>
0.0000

> <Gold.PLP.part.buried>
-2.1017

> <Gold.PLP.part.nonpolar>
-31.0206

> <Gold.PLP.part.repulsive>
0.1761

> <Gold.PLP.ligand.clash>
0.1032

> <Gold.PLP.ligand.torsion>
0.5224

> <Gold.PLP.Chemscore.Hbond>
5.0000

> <Gold.PLP.Chemscore.CHOScore>
0.0000

> <Gold.PLP.Chemscore.Metal>
0.0000

> <Gold.Chemscore.Hbonds>
donor molecule, donor type, donor heavy atom, donor atom, acceptor molecule, acceptor atom, score
      L1  H    10    31       P1  7948  1.00
      L1  H    14    48       P1  7948  2.00
      P1  H  7997  8009       L1    21  0.86

> <Gold.PLP.Chemscore.Internal.Correction>
0.0343

> <Gold.Rescore>
     Score         DG    S(hbond)    S(metal)    S(lipo)     H(rot)  DE(clash)    DE(int)     intcor
     17.25     -19.33       3.50        0.00      60.44       1.92       0.02       2.06       ----

> <Gold.Chemscore.Fitness>
17.2463

> <Gold.Chemscore.DG>
-19.3281

> <Gold.Chemscore.ZeroCoef>
-5.4800

> <Gold.Chemscore.Hbond>
3.5033

> <Gold.Chemscore.Metal>
0.0000

> <Gold.Chemscore.Lipo>
60.4353

> <Gold.Chemscore.Internal_Hbond>
0.0000

> <Gold.Chemscore.DEClash>
0.0174

> <Gold.Chemscore.DEInternal>
2.0644

> <Gold.Chemscore.Rot>
1.9233

> <Gold.Chemscore.Internal.Correction>
   9.000000E+99

> <Gold.Chemscore.Hbonds>
donor molecule, donor type, donor heavy atom, donor atom, acceptor molecule, acceptor atom, score
      L1  H    10    31       P1  7948  0.65
      L1  H    14    48       P1  7948  0.70
      P1  H  7997  8009       L1    21  0.81

> <Gold.Chemscore.Hbond.Weighted>
-11.7009

> <Gold.Chemscore.Metal.Weighted>
-0.0000

> <Gold.Chemscore.Lipo.Weighted>
-7.0709

> <Gold.Chemscore.Internal_Hbond.Weighted>
0.0000

> <Gold.Chemscore.DEClash.Weighted>
0.0174

> <Gold.Chemscore.DEInternal.Weighted>
2.0644

> <Gold.Chemscore.Rot.Weighted>
4.9237

> <Gold.Chemscore.Internal.Correction.Weighted>
   9.000000E+99

> <Gold.Protein.RotatedTorsions>
[ 6907 6896 6895 6894 ] final   65.00 input  -60.11 | X-H torsion
[ 7974 7965 7964 7962 ] final -121.05 input  175.53 | X-H torsion
[ 8008 7997 7996 7995 ] final -150.18 input   59.86 | X-H torsion
[ 10167 10162 10161 10158 ] final  164.61 input  -65.29 | X-H torsion
[ 10718 10713 10712 10709 ] final  135.44 input   66.30 | X-H torsion
[ 10763 10752 10751 10750 ] final   97.00 input  -60.55 | X-H torsion
[ 11005 11000 10999 10996 ] final   66.44 input  -57.11 | X-H torsion

> <Gold.Protein.ActiveResidues>
 VAL166  LYS551  ARG553  GLY616  TRP617  ASP618  TYR619  PRO620  LYS621  CYS622 
 ASP623  PHE694  ASN695  SER759  ASP760  ASP761  ALA762  ILE779  LEU786  VAL792 
 PHE793  MET794  SER795  GLU796  ALA797  LYS798  CYS799  TRP800  GLU811  SER814 

> <Gold.Protein.RotatedAtoms>
  152.4374  134.5659  159.9907 H   0  0  0  0  0  0  0  0  0  0  0  0  # atno 6907 bound_to 6896
  151.5765  133.3377  159.3008 H   0  0  0  0  0  0  0  0  0  0  0  0  # atno 6908 bound_to 6896
  150.8275  134.7547  159.6889 H   0  0  0  0  0  0  0  0  0  0  0  0  # atno 6909 bound_to 6896
  145.0446  140.8171  143.4246 H   0  0  0  0  0  0  0  0  0  0  0  0  # atno 7974 bound_to 7965
  155.6195  140.0680  157.2682 H   0  0  0  0  0  0  0  0  0  0  0  0  # atno 8008 bound_to 7997
  154.4233  140.1787  156.1405 H   0  0  0  0  0  0  0  0  0  0  0  0  # atno 8009 bound_to 7997
  156.0021  140.3335  155.6859 H   0  0  0  0  0  0  0  0  0  0  0  0  # atno 8010 bound_to 7997
  139.4892  144.4217  151.9178 H   0  0  0  0  0  0  0  0  0  0  0  0  # atno 10167 bound_to 10162
  157.4570  131.1070  150.9966 H   0  0  0  0  0  0  0  0  0  0  0  0  # atno 10718 bound_to 10713
  153.2716  135.4199  155.0993 H   0  0  0  0  0  0  0  0  0  0  0  0  # atno 10763 bound_to 10752
  154.8458  135.3473  154.6236 H   0  0  0  0  0  0  0  0  0  0  0  0  # atno 10764 bound_to 10752
  153.6656  135.7046  153.5221 H   0  0  0  0  0  0  0  0  0  0  0  0  # atno 10765 bound_to 10752
  139.9832  134.6710  156.0224 H   0  0  0  0  0  0  0  0  0  0  0  0  # atno 11005 bound_to 11000
  145.1604  139.2462  143.5394 LP  0  0  0  0  0  0  0  0  0  0  0  0  # atno 17320 bound_to 7965
  146.3512  140.1330  142.8596 LP  0  0  0  0  0  0  0  0  0  0  0  0  # atno 17321 bound_to 7965
  140.3662  144.2912  150.5926 LP  0  0  0  0  0  0  0  0  0  0  0  0  # atno 17342 bound_to 10162
  140.5360  143.2233  151.8163 LP  0  0  0  0  0  0  0  0  0  0  0  0  # atno 17343 bound_to 10162
  157.0776  130.5890  149.5414 LP  0  0  0  0  0  0  0  0  0  0  0  0  # atno 17370 bound_to 10713
  156.0011  130.5091  150.7668 LP  0  0  0  0  0  0  0  0  0  0  0  0  # atno 17371 bound_to 10713
  141.1501  133.6550  156.3987 LP  0  0  0  0  0  0  0  0  0  0  0  0  # atno 17394 bound_to 11000
  140.5055  134.6445  157.5264 LP  0  0  0  0  0  0  0  0  0  0  0  0  # atno 17395 bound_to 11000

$$$$
