AV-unprocessed.smi:1491|AV-procd|sdf|6034|dock3
  -GOLD-   22720 6133D 1   1.00000     0.00000
 Structure written by MMmdl.
 38 39  0  0  0  0  0  0  0  0  1 V2000
  147.2388  132.6319  154.1864 O   0  0  0  0  0  0  0  0  0  0  0  0
  147.6468  133.5831  153.5198 C   0  0  0  0  0  0  0  0  0  0  0  0
  148.8066  134.2164  153.7470 N   0  0  0  0  0  0  0  0  0  0  0  0
  149.7706  133.8616  154.7844 C   0  0  0  0  0  0  0  0  0  0  0  0
  150.1891  132.3817  154.7007 C   0  0  0  0  0  0  0  0  0  0  0  0
  151.1493  132.0125  155.7244 N   0  0  0  0  0  0  0  0  0  0  0  0
  151.7588  130.7765  155.8965 C   0  0  0  0  0  0  0  0  0  0  0  0
  152.5818  130.8936  156.9936 C   0  0  0  0  0  0  0  0  0  0  0  0
  152.5009  132.1866  157.5049 N   0  0  0  0  0  0  0  0  0  0  0  0
  151.6352  132.7908  156.7012 C   0  0  0  0  0  0  0  0  0  0  0  0
  146.9965  134.1059  152.4711 N   0  0  0  0  0  0  0  0  0  0  0  0
  145.7206  133.6373  151.9377 C   0  0  2  0  0  0  0  0  0  0  0  0
  145.8532  132.1694  151.4881 C   0  0  0  0  0  0  0  0  0  0  0  0
  144.5577  131.6617  150.8345 C   0  0  0  0  0  0  0  0  0  0  0  0
  144.1386  132.5641  149.6613 C   0  0  1  0  0  0  0  0  0  0  0  0
  142.9120  132.1089  149.1307 O   0  0  0  0  0  0  0  0  0  0  0  0
  143.9921  134.0273  150.1128 C   0  0  0  0  0  0  0  0  0  0  0  0
  145.2867  134.5378  150.7655 C   0  0  0  0  0  0  0  0  0  0  0  0
  149.0510  134.9894  153.1455 H   0  0  0  0  0  0  0  0  0  0  0  0
  150.6496  134.4902  154.6409 H   0  0  0  0  0  0  0  0  0  0  0  0
  149.3882  134.1005  155.7785 H   0  0  0  0  0  0  0  0  0  0  0  0
  149.3166  131.7318  154.7819 H   0  0  0  0  0  0  0  0  0  0  0  0
  150.6395  132.1803  153.7283 H   0  0  0  0  0  0  0  0  0  0  0  0
  151.5572  129.9378  155.2469 H   0  0  0  0  0  0  0  0  0  0  0  0
  153.2213  130.1530  157.4506 H   0  0  0  0  0  0  0  0  0  0  0  0
  151.3420  133.8225  156.8297 H   0  0  0  0  0  0  0  0  0  0  0  0
  147.4251  134.8841  151.9920 H   0  0  0  0  0  0  0  0  0  0  0  0
  144.9463  133.6876  152.7058 H   0  0  0  0  0  0  0  0  0  0  0  0
  146.6758  132.0728  150.7778 H   0  0  0  0  0  0  0  0  0  0  0  0
  146.1056  131.5385  152.3415 H   0  0  0  0  0  0  0  0  0  0  0  0
  144.6971  130.6369  150.4883 H   0  0  0  0  0  0  0  0  0  0  0  0
  143.7639  131.6314  151.5823 H   0  0  0  0  0  0  0  0  0  0  0  0
  144.8890  132.5027  148.8718 H   0  0  0  0  0  0  0  0  0  0  0  0
  142.2644  132.7874  149.2462 H   0  0  0  0  0  0  0  0  0  0  0  0
  143.7350  134.6590  149.2615 H   0  0  0  0  0  0  0  0  0  0  0  0
  143.1696  134.1161  150.8242 H   0  0  0  0  0  0  0  0  0  0  0  0
  145.1425  135.5610  151.1146 H   0  0  0  0  0  0  0  0  0  0  0  0
  146.0774  134.5760  150.0149 H   0  0  0  0  0  0  0  0  0  0  0  0
  1  2  2  0  0  0  0
  2  3  1  0  0  0  0
  2 11  1  0  0  0  0
  3  4  1  0  0  0  0
  3 19  1  0  0  0  0
  4  5  1  0  0  0  0
  4 20  1  0  0  0  0
  4 21  1  0  0  0  0
  5  6  1  0  0  0  0
  5 22  1  0  0  0  0
  5 23  1  0  0  0  0
  6 10  1  0  0  0  0
  6  7  1  0  0  0  0
  7  8  2  0  0  0  0
  7 24  1  0  0  0  0
  8  9  1  0  0  0  0
  8 25  1  0  0  0  0
  9 10  2  0  0  0  0
 10 26  1  0  0  0  0
 11 12  1  0  0  0  0
 11 27  1  0  0  0  0
 12 18  1  0  0  0  0
 12 13  1  0  0  0  0
 12 28  1  0  0  0  0
 13 14  1  0  0  0  0
 13 29  1  0  0  0  0
 13 30  1  0  0  0  0
 14 15  1  0  0  0  0
 14 31  1  0  0  0  0
 14 32  1  0  0  0  0
 15 16  1  0  0  0  0
 15 17  1  0  0  0  0
 15 33  1  0  0  0  0
 16 34  1  0  0  0  0
 17 18  1  0  0  0  0
 17 35  1  0  0  0  0
 17 36  1  0  0  0  0
 18 37  1  0  0  0  0
 18 38  1  0  0  0  0
M  END
> <s_m_source_file>
AV-unprocessed.smi

> <i_m_source_file_index>
1491

> <i_lp_mmshare_version>
43012

> <i_f3d_flags>
0

> <s_epik_input>
W0NIMl0xW0NIMl1bQ0BIXShbT0hdKVtDSDJdW0NIMl1bQ0BIXTFbTkhdQyg9TylbTkhdW0NIMl1bQ0gyXW4yW2NIXVtjSF1uW2NIXTI=

> <s_epik_cmdline>
J2VwaWtfcHl0aG9uJywgJy1waCcsICc3LjAnLCAnLXRuJywgJzgnLCAnLW1hJywgJzIwMCcsICctbWV0YWxfYmluZGluZycsICctaW1hZScsICc8aW5maWxlLm1hZT4nLCAnLW9tYWUnLCAnPG91dGZpbGUubWFlPic=

> <r_lp_tautomer_probability>
1

> <r_epik_Ionization_Penalty>
0.623245

> <r_epik_Ionization_Penalty_Charging>
0.623187

> <r_epik_Ionization_Penalty_Neutral>
5.75214e-05

> <r_epik_State_Penalty>
0.639392

> <r_epik_Charging_Adjusted_Penalty>
1.26258

> <i_epik_Tot_Q>
0

> <i_epik_Tot_abs_Q>
0

> <r_epik_Metal_State_Penalty>
0.307266

> <b_epik_Metal_Only>
0

> <s_lp_Force_Field>
OPLS_2005

> <r_lp_Energy>
7.54437

> <b_lp_Chiralities_Consistent>
1

> <s_lp_Variant>
AV-unprocessed.smi:1491-3

> <Gold.Version>
5.8.1

> <Gold.Id.Protein>
6NUR|6NUR_protein|mol2

> <Gold.PLP.Fitness>
47.9991

> <Gold.PLP.PLP>
-33.7847

> <Gold.PLP.part.hbond>
-6.0000

> <Gold.PLP.part.metal>
0.0000

> <Gold.PLP.part.buried>
-3.6623

> <Gold.PLP.part.nonpolar>
-24.7326

> <Gold.PLP.part.repulsive>
0.0589

> <Gold.PLP.ligand.clash>
0.0000

> <Gold.PLP.ligand.torsion>
0.0256

> <Gold.PLP.Chemscore.Hbond>
4.7512

> <Gold.PLP.Chemscore.CHOScore>
0.0000

> <Gold.PLP.Chemscore.Metal>
0.0000

> <Gold.Chemscore.Hbonds>
donor molecule, donor type, donor heavy atom, donor atom, acceptor molecule, acceptor atom, score
      L1  H     3    19       P1  7948  0.80
      L1  H    11    27       P1  7948  0.99
      L1  H    16    34       P1 10186  0.89
      P1  H  6896  6909       L1     9  0.40
      P1  H 10785 10796       L1    16  1.00

> <Gold.PLP.Chemscore.Internal.Correction>
0.0120

> <Gold.Rescore>
     Score         DG    S(hbond)    S(metal)    S(lipo)     H(rot)  DE(clash)    DE(int)     intcor
     17.02     -17.33       3.21        0.00      65.99       2.57       0.21       0.10       ----

> <Gold.Chemscore.Fitness>
17.0195

> <Gold.Chemscore.DG>
-17.3329

> <Gold.Chemscore.ZeroCoef>
-5.4800

> <Gold.Chemscore.Hbond>
3.2099

> <Gold.Chemscore.Metal>
0.0000

> <Gold.Chemscore.Lipo>
65.9898

> <Gold.Chemscore.Internal_Hbond>
0.0000

> <Gold.Chemscore.DEClash>
0.2129

> <Gold.Chemscore.DEInternal>
0.1005

> <Gold.Chemscore.Rot>
2.5738

> <Gold.Chemscore.Internal.Correction>
   9.000000E+99

> <Gold.Chemscore.Hbonds>
donor molecule, donor type, donor heavy atom, donor atom, acceptor molecule, acceptor atom, score
      L1  H     3    19       P1  7948  0.12
      L1  H    11    27       P1  7948  0.79
      L1  H    16    34       P1 10186  0.87
      P1  H  6896  6909       L1     9  0.06
      P1  H 10785 10796       L1    16  0.51

> <Gold.Chemscore.Hbond.Weighted>
-10.7210

> <Gold.Chemscore.Metal.Weighted>
-0.0000

> <Gold.Chemscore.Lipo.Weighted>
-7.7208

> <Gold.Chemscore.Internal_Hbond.Weighted>
0.0000

> <Gold.Chemscore.DEClash.Weighted>
0.2129

> <Gold.Chemscore.DEInternal.Weighted>
0.1005

> <Gold.Chemscore.Rot.Weighted>
6.5890

> <Gold.Chemscore.Internal.Correction.Weighted>
   9.000000E+99

> <Gold.Protein.RotatedTorsions>
[ 6907 6896 6895 6894 ] final  -76.91 input  -60.11 | X-H torsion
[ 7974 7965 7964 7962 ] final  -61.17 input  175.53 | X-H torsion
[ 8008 7997 7996 7995 ] final  -96.65 input   59.86 | X-H torsion
[ 10167 10162 10161 10158 ] final  138.00 input  -65.29 | X-H torsion
[ 10718 10713 10712 10709 ] final   76.67 input   66.30 | X-H torsion
[ 10763 10752 10751 10750 ] final  122.52 input  -60.55 | X-H torsion
[ 11005 11000 10999 10996 ] final   15.06 input  -57.11 | X-H torsion

> <Gold.Protein.ActiveResidues>
 VAL166  LYS551  ARG553  GLY616  TRP617  ASP618  TYR619  PRO620  LYS621  CYS622 
 ASP623  PHE694  ASN695  SER759  ASP760  ASP761  ALA762  ILE779  LEU786  VAL792 
 PHE793  MET794  SER795  GLU796  ALA797  LYS798  CYS799  TRP800  GLU811  SER814 

> <Gold.Protein.RotatedAtoms>
  150.7013  134.4501  159.5331 H   0  0  0  0  0  0  0  0  0  0  0  0  # atno 6907 bound_to 6896
  152.2195  134.8424  160.0497 H   0  0  0  0  0  0  0  0  0  0  0  0  # atno 6908 bound_to 6896
  151.9279  133.3568  159.3957 H   0  0  0  0  0  0  0  0  0  0  0  0  # atno 6909 bound_to 6896
  145.8067  140.8623  143.0203 H   0  0  0  0  0  0  0  0  0  0  0  0  # atno 7974 bound_to 7965
  154.7772  140.0469  157.1099 H   0  0  0  0  0  0  0  0  0  0  0  0  # atno 8008 bound_to 7997
  154.9748  140.3094  155.4952 H   0  0  0  0  0  0  0  0  0  0  0  0  # atno 8009 bound_to 7997
  156.2931  140.2246  156.4843 H   0  0  0  0  0  0  0  0  0  0  0  0  # atno 8010 bound_to 7997
  139.5125  144.6378  151.5649 H   0  0  0  0  0  0  0  0  0  0  0  0  # atno 10167 bound_to 10162
  157.6682  130.9785  150.1530 H   0  0  0  0  0  0  0  0  0  0  0  0  # atno 10718 bound_to 10713
  153.6311  135.3396  155.3042 H   0  0  0  0  0  0  0  0  0  0  0  0  # atno 10763 bound_to 10752
  154.8580  135.4296  154.2105 H   0  0  0  0  0  0  0  0  0  0  0  0  # atno 10764 bound_to 10752
  153.3000  135.7024  153.7285 H   0  0  0  0  0  0  0  0  0  0  0  0  # atno 10765 bound_to 10752
  140.4625  134.1113  155.7719 H   0  0  0  0  0  0  0  0  0  0  0  0  # atno 11005 bound_to 11000
  144.6762  140.0336  143.7482 LP  0  0  0  0  0  0  0  0  0  0  0  0  # atno 17320 bound_to 7965
  145.9821  139.2949  143.1036 LP  0  0  0  0  0  0  0  0  0  0  0  0  # atno 17321 bound_to 7965
  140.6134  143.9394  150.6470 LP  0  0  0  0  0  0  0  0  0  0  0  0  # atno 17342 bound_to 10162
  140.2644  143.3501  152.1294 LP  0  0  0  0  0  0  0  0  0  0  0  0  # atno 17343 bound_to 10162
  156.2325  130.3683  149.8429 LP  0  0  0  0  0  0  0  0  0  0  0  0  # atno 17370 bound_to 10713
  156.6252  130.8643  151.3484 LP  0  0  0  0  0  0  0  0  0  0  0  0  # atno 17371 bound_to 10713
  141.1614  133.8785  157.1836 LP  0  0  0  0  0  0  0  0  0  0  0  0  # atno 17394 bound_to 11000
  139.9936  135.0055  157.0032 LP  0  0  0  0  0  0  0  0  0  0  0  0  # atno 17395 bound_to 11000

$$$$
