AV-unprocessed.smi:686|AV-procd|sdf|3339|dock9
  -GOLD-   22720 0313D 1   1.00000     0.00000
 Structure written by MMmdl.
 41 42  0  0  0  0  0  0  0  0  2 V2000
  147.0752  133.8507  153.6953 C   0  0  0  0  0  0  0  0  0  0  0  0
  148.5618  133.4885  153.8140 C   0  0  2  0  0  0  0  0  0  0  0  0
  148.8143  132.0093  154.1061 C   0  0  0  0  0  0  0  0  0  0  0  0
  150.1544  131.9652  154.7249 N   0  3  2  0  0  0  0  0  0  0  0  0
  150.4985  130.6896  155.4151 C   0  0  0  0  0  0  0  0  0  0  0  0
  150.5835  129.5192  154.4173 C   0  0  0  0  0  0  0  0  0  0  0  0
  149.4831  130.3514  156.5228 C   0  0  0  0  0  0  0  0  0  0  0  0
  150.2370  133.1776  155.5705 C   0  0  0  0  0  0  0  0  0  0  0  0
  149.2994  134.2264  154.9435 C   0  0  1  0  0  0  0  0  0  0  0  0
  150.0535  135.3607  154.4022 N   0  0  0  0  0  0  0  0  0  0  0  0
  150.7720  136.4681  155.5132 S   0  0  0  0  0  0  0  0  0  0  0  0
  149.6925  137.0101  156.3519 O   0  0  0  0  0  0  0  0  0  0  0  0
  151.9181  135.7921  156.1407 O   0  0  0  0  0  0  0  0  0  0  0  0
  151.4045  137.7962  154.4043 C   0  0  0  0  0  0  0  0  0  0  0  0
  150.5778  139.0374  154.5821 C   0  0  0  0  0  0  0  0  0  0  0  0
  149.1698  139.1886  154.4473 C   0  0  0  0  0  0  0  0  0  0  0  0
  148.9636  140.5097  154.7227 C   0  0  0  0  0  0  0  0  0  0  0  0
  150.1397  141.1250  155.0055 O   0  0  0  0  0  0  0  0  0  0  0  0
  151.1644  140.1763  154.9146 N   0  0  0  0  0  0  0  0  0  0  0  0
  146.5351  133.6229  154.6147 H   0  0  0  0  0  0  0  0  0  0  0  0
  146.6014  133.2973  152.8841 H   0  0  0  0  0  0  0  0  0  0  0  0
  146.9488  134.9140  153.4897 H   0  0  0  0  0  0  0  0  0  0  0  0
  149.0467  133.7139  152.8621 H   0  0  0  0  0  0  0  0  0  0  0  0
  148.0748  131.6293  154.8135 H   0  0  0  0  0  0  0  0  0  0  0  0
  148.7600  131.4061  153.1994 H   0  0  0  0  0  0  0  0  0  0  0  0
  151.4777  130.8079  155.8820 H   0  0  0  0  0  0  0  0  0  0  0  0
  150.7949  128.5815  154.9322 H   0  0  0  0  0  0  0  0  0  0  0  0
  151.3784  129.6620  153.6851 H   0  0  0  0  0  0  0  0  0  0  0  0
  149.6466  129.3925  153.8739 H   0  0  0  0  0  0  0  0  0  0  0  0
  149.7154  129.3915  156.9853 H   0  0  0  0  0  0  0  0  0  0  0  0
  148.4689  130.2896  156.1266 H   0  0  0  0  0  0  0  0  0  0  0  0
  149.4877  131.0924  157.3220 H   0  0  0  0  0  0  0  0  0  0  0  0
  149.8925  132.9494  156.5805 H   0  0  0  0  0  0  0  0  0  0  0  0
  151.2698  133.5202  155.6458 H   0  0  0  0  0  0  0  0  0  0  0  0
  148.5940  134.5878  155.6939 H   0  0  0  0  0  0  0  0  0  0  0  0
  149.5077  135.8585  153.6987 H   0  0  0  0  0  0  0  0  0  0  0  0
  152.4484  137.9852  154.6538 H   0  0  0  0  0  0  0  0  0  0  0  0
  151.3671  137.4355  153.3759 H   0  0  0  0  0  0  0  0  0  0  0  0
  148.4292  138.4468  154.1877 H   0  0  0  0  0  0  0  0  0  0  0  0
  148.0815  141.1319  154.7572 H   0  0  0  0  0  0  0  0  0  0  0  0
  150.8177  132.0946  153.9744 H   0  0  0  0  0  0  0  0  0  0  0  0
  1  2  1  0  0  0  0
  1 20  1  0  0  0  0
  1 21  1  0  0  0  0
  1 22  1  0  0  0  0
  2  9  1  0  0  0  0
  2  3  1  0  0  0  0
  2 23  1  0  0  0  0
  3  4  1  0  0  0  0
  3 24  1  0  0  0  0
  3 25  1  0  0  0  0
  4  5  1  0  0  0  0
  4  8  1  0  0  0  0
  4 41  1  0  0  0  0
  5  6  1  0  0  0  0
  5  7  1  0  0  0  0
  5 26  1  0  0  0  0
  6 27  1  0  0  0  0
  6 28  1  0  0  0  0
  6 29  1  0  0  0  0
  7 30  1  0  0  0  0
  7 31  1  0  0  0  0
  7 32  1  0  0  0  0
  8  9  1  0  0  0  0
  8 33  1  0  0  0  0
  8 34  1  0  0  0  0
  9 10  1  0  0  0  0
  9 35  1  0  0  0  0
 10 11  1  0  0  0  0
 10 36  1  0  0  0  0
 11 12  2  0  0  0  0
 11 13  2  0  0  0  0
 11 14  1  0  0  0  0
 14 15  1  0  0  0  0
 14 37  1  0  0  0  0
 14 38  1  0  0  0  0
 15 19  2  0  0  0  0
 15 16  1  0  0  0  0
 16 17  2  0  0  0  0
 16 39  1  0  0  0  0
 17 18  1  0  0  0  0
 17 40  1  0  0  0  0
 18 19  1  0  0  0  0
M  CHG  1   4   1
M  END
> <s_m_source_file>
AV-unprocessed.smi

> <i_m_source_file_index>
686

> <i_lp_mmshare_version>
43012

> <i_f3d_flags>
0

> <s_epik_input>
W0NIM11bQ0BASF0xW0NIMl1OKFtDSF0oW0NIM10pW0NIM10pW0NIMl1bQ0BIXTFbTkhdUyg9TykoPU8pW0NIMl1jMltjSF1bY0hdb24y

> <s_epik_cmdline>
J2VwaWtfcHl0aG9uJywgJy1waCcsICc3LjAnLCAnLXRuJywgJzgnLCAnLW1hJywgJzIwMCcsICctbWV0YWxfYmluZGluZycsICctaW1hZScsICc8aW5maWxlLm1hZT4nLCAnLW9tYWUnLCAnPG91dGZpbGUubWFlPic=

> <r_epik_Ionization_Penalty>
0.00200818

> <r_epik_Ionization_Penalty_Charging>
0.000701289

> <r_epik_Ionization_Penalty_Neutral>
0.00130689

> <r_epik_State_Penalty>
0.00131314

> <r_epik_Charging_Adjusted_Penalty>
0.00201443

> <i_epik_Tot_Q>
1

> <i_epik_Tot_abs_Q>
1

> <r_epik_Metal_State_Penalty>
0.310831

> <b_epik_Metal_Only>
0

> <s_lp_Force_Field>
OPLS_2005

> <r_lp_Energy>
20.8584

> <b_lp_Chiralities_Consistent>
1

> <s_lp_Variant>
AV-unprocessed.smi:686-3

> <Gold.Version>
5.8.1

> <Gold.Id.Protein>
6NUR|6NUR_protein|mol2

> <Gold.PLP.Fitness>
40.4424

> <Gold.PLP.PLP>
-32.2879

> <Gold.PLP.part.hbond>
-4.7021

> <Gold.PLP.part.metal>
0.0000

> <Gold.PLP.part.buried>
-2.6243

> <Gold.PLP.part.nonpolar>
-26.0332

> <Gold.PLP.part.repulsive>
0.2615

> <Gold.PLP.ligand.clash>
0.0000

> <Gold.PLP.ligand.torsion>
0.3694

> <Gold.PLP.Chemscore.Hbond>
2.9000

> <Gold.PLP.Chemscore.CHOScore>
0.0000

> <Gold.PLP.Chemscore.Metal>
0.0000

> <Gold.Chemscore.Hbonds>
donor molecule, donor type, donor heavy atom, donor atom, acceptor molecule, acceptor atom, score
      L1  H    10    36       P1  7948  1.00
      P1  H  7989  7998       L1    19  0.45
      P1  H 10752 10763       L1    13  1.00

> <Gold.PLP.Chemscore.Internal.Correction>
0.1933

> <Gold.Rescore>
     Score         DG    S(hbond)    S(metal)    S(lipo)     H(rot)  DE(clash)    DE(int)     intcor
     14.86     -16.54       2.53        0.00      64.03       1.91       0.01       1.67       ----

> <Gold.Chemscore.Fitness>
14.8551

> <Gold.Chemscore.DG>
-16.5382

> <Gold.Chemscore.ZeroCoef>
-5.4800

> <Gold.Chemscore.Hbond>
2.5331

> <Gold.Chemscore.Metal>
0.0000

> <Gold.Chemscore.Lipo>
64.0265

> <Gold.Chemscore.Internal_Hbond>
0.0000

> <Gold.Chemscore.DEClash>
0.0095

> <Gold.Chemscore.DEInternal>
1.6737

> <Gold.Chemscore.Rot>
1.9115

> <Gold.Chemscore.Internal.Correction>
   9.000000E+99

> <Gold.Chemscore.Hbonds>
donor molecule, donor type, donor heavy atom, donor atom, acceptor molecule, acceptor atom, score
      L1  H    10    36       P1  7948  0.38
      P1  H  7989  7998       L1    19  0.01
      P1  H 10752 10763       L1    13  0.50

> <Gold.Chemscore.Hbond.Weighted>
-8.4606

> <Gold.Chemscore.Metal.Weighted>
-0.0000

> <Gold.Chemscore.Lipo.Weighted>
-7.4911

> <Gold.Chemscore.Internal_Hbond.Weighted>
0.0000

> <Gold.Chemscore.DEClash.Weighted>
0.0095

> <Gold.Chemscore.DEInternal.Weighted>
1.6737

> <Gold.Chemscore.Rot.Weighted>
4.8935

> <Gold.Chemscore.Internal.Correction.Weighted>
   9.000000E+99

> <Gold.Protein.RotatedTorsions>
[ 6907 6896 6895 6894 ] final  -98.32 input  -60.11 | X-H torsion
[ 7974 7965 7964 7962 ] final -122.46 input  175.53 | X-H torsion
[ 8008 7997 7996 7995 ] final  -33.38 input   59.86 | X-H torsion
[ 10167 10162 10161 10158 ] final  155.91 input  -65.29 | X-H torsion
[ 10718 10713 10712 10709 ] final  -49.19 input   66.30 | X-H torsion
[ 10763 10752 10751 10750 ] final   74.99 input  -60.55 | X-H torsion
[ 11005 11000 10999 10996 ] final -152.94 input  -57.11 | X-H torsion

> <Gold.Protein.ActiveResidues>
 VAL166  LYS551  ARG553  GLY616  TRP617  ASP618  TYR619  PRO620  LYS621  CYS622 
 ASP623  PHE694  ASN695  SER759  ASP760  ASP761  ALA762  ILE779  LEU786  VAL792 
 PHE793  MET794  SER795  GLU796  ALA797  LYS798  CYS799  TRP800  GLU811  SER814 

> <Gold.Protein.RotatedAtoms>
  150.7043  134.1213  159.4035 H   0  0  0  0  0  0  0  0  0  0  0  0  # atno 6907 bound_to 6896
  151.9199  135.0300  160.0530 H   0  0  0  0  0  0  0  0  0  0  0  0  # atno 6908 bound_to 6896
  152.2265  133.4989  159.5228 H   0  0  0  0  0  0  0  0  0  0  0  0  # atno 6909 bound_to 6896
  145.0292  140.8054  143.4333 H   0  0  0  0  0  0  0  0  0  0  0  0  # atno 7974 bound_to 7965
  154.4151  140.1712  156.1878 H   0  0  0  0  0  0  0  0  0  0  0  0  # atno 8008 bound_to 7997
  155.9628  140.3392  155.6482 H   0  0  0  0  0  0  0  0  0  0  0  0  # atno 8009 bound_to 7997
  155.6726  140.0713  157.2505 H   0  0  0  0  0  0  0  0  0  0  0  0  # atno 8010 bound_to 7997
  139.4821  144.5056  151.8102 H   0  0  0  0  0  0  0  0  0  0  0  0  # atno 10167 bound_to 10162
  156.1916  130.4153  149.9363 H   0  0  0  0  0  0  0  0  0  0  0  0  # atno 10718 bound_to 10713
  153.0624  135.5005  154.8123 H   0  0  0  0  0  0  0  0  0  0  0  0  # atno 10763 bound_to 10752
  154.6902  135.2983  154.9492 H   0  0  0  0  0  0  0  0  0  0  0  0  # atno 10764 bound_to 10752
  154.0249  135.6737  153.4828 H   0  0  0  0  0  0  0  0  0  0  0  0  # atno 10765 bound_to 10752
  140.7135  134.3806  157.5194 H   0  0  0  0  0  0  0  0  0  0  0  0  # atno 11005 bound_to 11000
  145.1792  139.2361  143.5301 LP  0  0  0  0  0  0  0  0  0  0  0  0  # atno 17320 bound_to 7965
  146.3496  140.1562  142.8591 LP  0  0  0  0  0  0  0  0  0  0  0  0  # atno 17321 bound_to 7965
  140.4554  144.1797  150.5901 LP  0  0  0  0  0  0  0  0  0  0  0  0  # atno 17342 bound_to 10162
  140.4541  143.2475  151.9308 LP  0  0  0  0  0  0  0  0  0  0  0  0  # atno 17343 bound_to 10162
  156.7102  130.8967  151.3608 LP  0  0  0  0  0  0  0  0  0  0  0  0  # atno 17370 bound_to 10713
  157.6932  130.9255  150.0572 LP  0  0  0  0  0  0  0  0  0  0  0  0  # atno 17371 bound_to 10713
  139.8865  134.8906  156.2578 LP  0  0  0  0  0  0  0  0  0  0  0  0  # atno 17394 bound_to 11000
  141.0064  133.7121  156.1041 LP  0  0  0  0  0  0  0  0  0  0  0  0  # atno 17395 bound_to 11000

$$$$
