AV-unprocessed.smi:1808|AV-procd|sdf|7307|dock8
  -GOLD-   22720 8563D 1   1.00000     0.00000
 Structure written by MMmdl.
 27 28  0  0  0  0  0  0  0  0  2 V2000
  151.4993  139.4645  158.5712 O   0  0  0  0  0  0  0  0  0  0  0  0
  152.2037  140.1284  157.8067 C   0  0  0  0  0  0  0  0  0  0  0  0
  152.8194  141.2321  158.2540 N   0  0  0  0  0  0  0  0  0  0  0  0
  152.7543  141.7540  159.6148 C   0  0  0  0  0  0  0  0  0  0  0  0
  151.9725  143.0764  159.6767 C   0  0  2  0  0  0  0  0  0  0  0  0
  152.3893  144.0898  158.6163 C   0  0  0  0  0  0  0  0  0  0  0  0
  151.8904  145.3975  159.2017 C   0  0  0  0  0  0  0  0  0  0  0  0
  151.8782  145.1382  160.7118 C   0  0  0  0  0  0  0  0  0  0  0  0
  152.2508  143.7748  160.8809 O   0  0  0  0  0  0  0  0  0  0  0  0
  152.4449  139.8600  156.5032 N   0  5  0  0  0  0  0  0  0  0  0  0
  151.5455  139.1716  155.7813 C   0  0  0  0  0  0  0  0  0  0  0  0
  151.4518  139.2662  154.4499 N   0  0  0  0  0  0  0  0  0  0  0  0
  150.4521  138.4584  153.9050 C   0  0  0  0  0  0  0  0  0  0  0  0
  149.7741  137.7249  154.8423 C   0  0  0  0  0  0  0  0  0  0  0  0
  150.3747  138.0293  156.4472 S   0  0  0  0  0  0  0  0  0  0  0  0
  153.3890  141.7440  157.5963 H   0  0  0  0  0  0  0  0  0  0  0  0
  152.2786  141.0057  160.2491 H   0  0  0  0  0  0  0  0  0  0  0  0
  153.7641  141.8925  160.0043 H   0  0  0  0  0  0  0  0  0  0  0  0
  150.8978  142.8977  159.6072 H   0  0  0  0  0  0  0  0  0  0  0  0
  153.4759  144.1164  158.5243 H   0  0  0  0  0  0  0  0  0  0  0  0
  151.9689  143.8737  157.6338 H   0  0  0  0  0  0  0  0  0  0  0  0
  152.5241  146.2404  158.9248 H   0  0  0  0  0  0  0  0  0  0  0  0
  150.8787  145.6068  158.8519 H   0  0  0  0  0  0  0  0  0  0  0  0
  152.5774  145.7830  161.2444 H   0  0  0  0  0  0  0  0  0  0  0  0
  150.8823  145.3034  161.1245 H   0  0  0  0  0  0  0  0  0  0  0  0
  150.2932  138.4667  152.8371 H   0  0  0  0  0  0  0  0  0  0  0  0
  148.9643  137.0280  154.6888 H   0  0  0  0  0  0  0  0  0  0  0  0
  1  2  2  0  0  0  0
  2  3  1  0  0  0  0
  2 10  1  0  0  0  0
  3  4  1  0  0  0  0
  3 16  1  0  0  0  0
  4  5  1  0  0  0  0
  4 17  1  0  0  0  0
  4 18  1  0  0  0  0
  5  9  1  0  0  0  0
  5  6  1  0  0  0  0
  5 19  1  0  0  0  0
  6  7  1  0  0  0  0
  6 20  1  0  0  0  0
  6 21  1  0  0  0  0
  7  8  1  0  0  0  0
  7 22  1  0  0  0  0
  7 23  1  0  0  0  0
  8  9  1  0  0  0  0
  8 24  1  0  0  0  0
  8 25  1  0  0  0  0
 10 11  1  0  0  0  0
 11 15  1  0  0  0  0
 11 12  2  0  0  0  0
 12 13  1  0  0  0  0
 13 14  2  0  0  0  0
 13 26  1  0  0  0  0
 14 15  1  0  0  0  0
 14 27  1  0  0  0  0
M  CHG  1  10  -1
M  END
> <s_m_source_file>
AV-unprocessed.smi

> <i_m_source_file_index>
1808

> <i_lp_mmshare_version>
43012

> <i_f3d_flags>
0

> <s_epik_input>
czFbY0hdW2NIXW5jMVtOSF1DKD1PKVtOSF1bQ0gyXVtDQEBIXTJbQ0gyXVtDSDJdW0NIMl1PMg==

> <s_epik_cmdline>
J2VwaWtfcHl0aG9uJywgJy1waCcsICc3LjAnLCAnLXRuJywgJzgnLCAnLW1hJywgJzIwMCcsICctbWV0YWxfYmluZGluZycsICctaW1hZScsICc8aW5maWxlLm1hZT4nLCAnLW9tYWUnLCAnPG91dGZpbGUubWFlPic=

> <r_lp_tautomer_probability>
0.999

> <r_epik_Ionization_Penalty>
8.26346

> <r_epik_Ionization_Penalty_Charging>
6.6559

> <r_epik_Ionization_Penalty_Neutral>
1.60756

> <r_epik_State_Penalty>
6.65607

> <r_epik_Charging_Adjusted_Penalty>
13.312

> <i_epik_Tot_Q>
-1

> <i_epik_Tot_abs_Q>
1

> <r_epik_Metal_State_Penalty>
2.5789

> <b_epik_Metal_Only>
1

> <s_lp_Force_Field>
OPLS_2005

> <r_lp_Energy>
12.338

> <b_lp_Chiralities_Consistent>
1

> <s_lp_Variant>
AV-unprocessed.smi:1808-3

> <Gold.Version>
5.8.1

> <Gold.Id.Protein>
6NUR|6NUR_protein|mol2

> <Gold.PLP.Fitness>
40.8192

> <Gold.PLP.PLP>
-27.9988

> <Gold.PLP.part.hbond>
-2.0000

> <Gold.PLP.part.metal>
0.0000

> <Gold.PLP.part.buried>
-1.4092

> <Gold.PLP.part.nonpolar>
-25.4758

> <Gold.PLP.part.repulsive>
0.3025

> <Gold.PLP.ligand.clash>
0.0000

> <Gold.PLP.ligand.torsion>
0.4390

> <Gold.PLP.Chemscore.Hbond>
3.0000

> <Gold.PLP.Chemscore.CHOScore>
1.5613

> <Gold.PLP.Chemscore.Metal>
0.0000

> <Gold.Chemscore.Hbonds>
donor molecule, donor type, donor heavy atom, donor atom, acceptor molecule, acceptor atom, score
      P1  H  7989  7998       L1    12  1.00
      P1  H  7997  8008       L1    10  2.00
      L1  C    13    26       P1  7948  0.31
      L1  C    13    26       P1  7957  0.97
      L1  C    14    27       P1  7948  0.01

> <Gold.PLP.Chemscore.Internal.Correction>
0.0143

> <Gold.Rescore>
     Score         DG    S(hbond)    S(metal)    S(lipo)     H(rot)  DE(clash)    DE(int)     intcor
     14.25     -16.20       1.61        0.00      74.10       1.30       0.05       1.90       ----

> <Gold.Chemscore.Fitness>
14.2496

> <Gold.Chemscore.DG>
-16.1958

> <Gold.Chemscore.ZeroCoef>
-5.4800

> <Gold.Chemscore.Hbond>
1.6091

> <Gold.Chemscore.Metal>
0.0000

> <Gold.Chemscore.Lipo>
74.0986

> <Gold.Chemscore.Internal_Hbond>
0.0000

> <Gold.Chemscore.DEClash>
0.0511

> <Gold.Chemscore.DEInternal>
1.8951

> <Gold.Chemscore.Rot>
1.3000

> <Gold.Chemscore.Internal.Correction>
   9.000000E+99

> <Gold.Chemscore.Hbonds>
donor molecule, donor type, donor heavy atom, donor atom, acceptor molecule, acceptor atom, score
      P1  H  7989  7998       L1    12  0.81
      P1  H  7997  8008       L1    10  0.50

> <Gold.Chemscore.Hbond.Weighted>
-5.3742

> <Gold.Chemscore.Metal.Weighted>
-0.0000

> <Gold.Chemscore.Lipo.Weighted>
-8.6695

> <Gold.Chemscore.Internal_Hbond.Weighted>
0.0000

> <Gold.Chemscore.DEClash.Weighted>
0.0511

> <Gold.Chemscore.DEInternal.Weighted>
1.8951

> <Gold.Chemscore.Rot.Weighted>
3.3280

> <Gold.Chemscore.Internal.Correction.Weighted>
   9.000000E+99

> <Gold.Protein.RotatedTorsions>
[ 6907 6896 6895 6894 ] final  -67.52 input  -60.11 | X-H torsion
[ 7974 7965 7964 7962 ] final  -37.80 input  175.53 | X-H torsion
[ 8008 7997 7996 7995 ] final  -37.97 input   59.86 | X-H torsion
[ 10167 10162 10161 10158 ] final  -48.23 input  -65.29 | X-H torsion
[ 10718 10713 10712 10709 ] final  -13.75 input   66.30 | X-H torsion
[ 10763 10752 10751 10750 ] final -115.44 input  -60.55 | X-H torsion
[ 11005 11000 10999 10996 ] final  178.59 input  -57.11 | X-H torsion

> <Gold.Protein.ActiveResidues>
 VAL166  LYS551  ARG553  GLY616  TRP617  ASP618  TYR619  PRO620  LYS621  CYS622 
 ASP623  PHE694  ASN695  SER759  ASP760  ASP761  ALA762  ILE779  LEU786  VAL792 
 PHE793  MET794  SER795  GLU796  ALA797  LYS798  CYS799  TRP800  GLU811  SER814 

> <Gold.Protein.RotatedAtoms>
  150.7405  134.5868  159.5966 H   0  0  0  0  0  0  0  0  0  0  0  0  # atno 6907 bound_to 6896
  152.3267  134.7309  160.0309 H   0  0  0  0  0  0  0  0  0  0  0  0  # atno 6908 bound_to 6896
  151.7806  133.3313  159.3507 H   0  0  0  0  0  0  0  0  0  0  0  0  # atno 6909 bound_to 6896
  146.0543  140.6438  142.9027 H   0  0  0  0  0  0  0  0  0  0  0  0  # atno 7974 bound_to 7965
  154.4044  140.1590  156.2623 H   0  0  0  0  0  0  0  0  0  0  0  0  # atno 8008 bound_to 7997
  155.9025  140.3432  155.6015 H   0  0  0  0  0  0  0  0  0  0  0  0  # atno 8009 bound_to 7997
  155.7431  140.0795  157.2227 H   0  0  0  0  0  0  0  0  0  0  0  0  # atno 8010 bound_to 7997
  140.6740  143.2749  151.4041 H   0  0  0  0  0  0  0  0  0  0  0  0  # atno 10167 bound_to 10162
  156.6257  130.4888  149.6148 H   0  0  0  0  0  0  0  0  0  0  0  0  # atno 10718 bound_to 10713
  154.8481  135.4381  154.1663 H   0  0  0  0  0  0  0  0  0  0  0  0  # atno 10763 bound_to 10752
  153.2788  135.6951  153.7413 H   0  0  0  0  0  0  0  0  0  0  0  0  # atno 10764 bound_to 10752
  153.6625  135.3432  155.3106 H   0  0  0  0  0  0  0  0  0  0  0  0  # atno 10765 bound_to 10752
  140.3968  134.6813  157.4539 H   0  0  0  0  0  0  0  0  0  0  0  0  # atno 11005 bound_to 11000
  144.7139  140.4140  143.7059 LP  0  0  0  0  0  0  0  0  0  0  0  0  # atno 17320 bound_to 7965
  145.6671  139.1592  143.2775 LP  0  0  0  0  0  0  0  0  0  0  0  0  # atno 17321 bound_to 7965
  139.6023  144.1270  152.2211 LP  0  0  0  0  0  0  0  0  0  0  0  0  # atno 17342 bound_to 10162
  140.0658  144.5819  150.7228 LP  0  0  0  0  0  0  0  0  0  0  0  0  # atno 17343 bound_to 10162
  156.2275  130.6774  151.1430 LP  0  0  0  0  0  0  0  0  0  0  0  0  # atno 17370 bound_to 10713
  157.7215  131.0678  150.6117 LP  0  0  0  0  0  0  0  0  0  0  0  0  # atno 17371 bound_to 10713
  140.0366  134.6328  155.9035 LP  0  0  0  0  0  0  0  0  0  0  0  0  # atno 17394 bound_to 11000
  141.1871  133.6559  156.5268 LP  0  0  0  0  0  0  0  0  0  0  0  0  # atno 17395 bound_to 11000

$$$$
