AV-unprocessed.smi:781|AV-procd|sdf|3709|dock5
  -GOLD-   22720 1133D 1   1.00000     0.00000
 Structure written by MMmdl.
 38 40  0  0  0  0  0  0  0  0  1 V2000
  146.7771  133.9836  162.5116 C   0  0  0  0  0  0  0  0  0  0  0  0
  147.2022  135.0602  161.5725 C   0  0  0  0  0  0  0  0  0  0  0  0
  147.6403  135.0466  160.2781 C   0  0  0  0  0  0  0  0  0  0  0  0
  147.8696  136.4212  160.0034 C   0  0  0  0  0  0  0  0  0  0  0  0
  148.3442  136.8394  158.7342 N   0  0  0  0  0  0  0  0  0  0  0  0
  149.4406  137.5695  158.4682 C   0  0  0  0  0  0  0  0  0  0  0  0
  150.2189  138.0163  159.3114 O   0  0  0  0  0  0  0  0  0  0  0  0
  149.5862  137.7624  157.1502 N   0  0  0  0  0  0  0  0  0  0  0  0
  150.6731  138.5167  156.5298 C   0  0  2  0  0  0  0  0  0  0  0  0
  150.7824  139.9757  157.0416 C   0  0  2  0  0  0  0  0  0  0  0  0
  149.4231  140.7039  156.9694 C   0  0  0  0  0  0  0  0  0  0  0  0
  149.2093  140.8673  155.4530 C   0  0  0  0  0  0  0  0  0  0  0  0
  150.4886  140.2455  154.8590 C   0  0  1  0  0  0  0  0  0  0  0  0
  151.5311  140.6461  155.8968 C   0  0  0  0  0  0  0  0  0  0  0  0
  150.4297  138.7074  155.0091 C   0  0  1  0  0  0  0  0  0  0  0  0
  151.4623  137.9805  154.1263 C   0  0  0  0  0  0  0  0  0  0  0  0
  151.2915  136.5825  154.2284 O   0  0  0  0  0  0  0  0  0  0  0  0
  147.5966  137.2034  161.0366 N   0  0  0  0  0  0  0  0  0  0  0  0
  147.1675  136.3350  162.0474 O   0  0  0  0  0  0  0  0  0  0  0  0
  146.7524  133.0159  162.0103 H   0  0  0  0  0  0  0  0  0  0  0  0
  145.7807  134.1849  162.9054 H   0  0  0  0  0  0  0  0  0  0  0  0
  147.4661  133.9110  163.3531 H   0  0  0  0  0  0  0  0  0  0  0  0
  147.7742  134.1900  159.6343 H   0  0  0  0  0  0  0  0  0  0  0  0
  147.7916  136.5467  157.9421 H   0  0  0  0  0  0  0  0  0  0  0  0
  148.9003  137.3597  156.5288 H   0  0  0  0  0  0  0  0  0  0  0  0
  151.6194  137.9991  156.6990 H   0  0  0  0  0  0  0  0  0  0  0  0
  151.2686  140.0602  158.0142 H   0  0  0  0  0  0  0  0  0  0  0  0
  148.6109  140.1621  157.4536 H   0  0  0  0  0  0  0  0  0  0  0  0
  149.4901  141.6816  157.4486 H   0  0  0  0  0  0  0  0  0  0  0  0
  148.3042  140.3688  155.1042 H   0  0  0  0  0  0  0  0  0  0  0  0
  149.1306  141.9227  155.1896 H   0  0  0  0  0  0  0  0  0  0  0  0
  150.6972  140.5824  153.8432 H   0  0  0  0  0  0  0  0  0  0  0  0
  151.6297  141.7265  156.0169 H   0  0  0  0  0  0  0  0  0  0  0  0
  152.5186  140.2191  155.7163 H   0  0  0  0  0  0  0  0  0  0  0  0
  149.4364  138.3598  154.7185 H   0  0  0  0  0  0  0  0  0  0  0  0
  151.3334  138.2648  153.0816 H   0  0  0  0  0  0  0  0  0  0  0  0
  152.4833  138.2394  154.4070 H   0  0  0  0  0  0  0  0  0  0  0  0
  151.0534  136.2456  153.3780 H   0  0  0  0  0  0  0  0  0  0  0  0
  1  2  1  0  0  0  0
  1 20  1  0  0  0  0
  1 21  1  0  0  0  0
  1 22  1  0  0  0  0
  2 19  1  0  0  0  0
  2  3  2  0  0  0  0
  3  4  1  0  0  0  0
  3 23  1  0  0  0  0
  4  5  1  0  0  0  0
  4 18  2  0  0  0  0
  5  6  1  0  0  0  0
  5 24  1  0  0  0  0
  6  7  2  0  0  0  0
  6  8  1  0  0  0  0
  8  9  1  0  0  0  0
  8 25  1  0  0  0  0
  9 15  1  0  0  0  0
  9 10  1  0  0  0  0
  9 26  1  0  0  0  0
 10 14  1  0  0  0  0
 10 11  1  0  0  0  0
 10 27  1  0  0  0  0
 11 12  1  0  0  0  0
 11 28  1  0  0  0  0
 11 29  1  0  0  0  0
 12 13  1  0  0  0  0
 12 30  1  0  0  0  0
 12 31  1  0  0  0  0
 13 14  1  0  0  0  0
 13 15  1  0  0  0  0
 13 32  1  0  0  0  0
 14 33  1  0  0  0  0
 14 34  1  0  0  0  0
 15 16  1  0  0  0  0
 15 35  1  0  0  0  0
 16 17  1  0  0  0  0
 16 36  1  0  0  0  0
 16 37  1  0  0  0  0
 17 38  1  0  0  0  0
 18 19  1  0  0  0  0
M  END
> <s_m_source_file>
AV-unprocessed.smi

> <i_m_source_file_index>
781

> <i_lp_mmshare_version>
43012

> <i_f3d_flags>
0

> <s_epik_input>
W0NIM11jMVtjSF1jKG5vMSlbTkhdQyg9TylbTkhdW0NASF0oW0NAQEhdMjMpW0NASF0oW0NIMl1bT0hdKVtDQEBIXShbQ0gyXTMpW0NIMl1bQ0gyXTI=

> <s_epik_cmdline>
J2VwaWtfcHl0aG9uJywgJy1waCcsICc3LjAnLCAnLXRuJywgJzgnLCAnLW1hJywgJzIwMCcsICctbWV0YWxfYmluZGluZycsICctaW1hZScsICc8aW5maWxlLm1hZT4nLCAnLW9tYWUnLCAnPG91dGZpbGUubWFlPic=

> <r_lp_tautomer_probability>
1

> <r_epik_Ionization_Penalty>
2.32222e-05

> <r_epik_Ionization_Penalty_Charging>
0

> <r_epik_Ionization_Penalty_Neutral>
2.32222e-05

> <r_epik_State_Penalty>
-0

> <r_epik_Charging_Adjusted_Penalty>
0

> <i_epik_Tot_Q>
0

> <i_epik_Tot_abs_Q>
0

> <r_epik_Metal_State_Penalty>
-0

> <b_epik_Metal_Only>
0

> <s_lp_Force_Field>
OPLS_2005

> <r_lp_Energy>
46.3862

> <b_lp_Chiralities_Consistent>
1

> <s_lp_Variant>
AV-unprocessed.smi:781-3

> <Gold.Version>
5.8.1

> <Gold.Id.Protein>
6NUR|6NUR_protein|mol2

> <Gold.PLP.Fitness>
41.7592

> <Gold.PLP.PLP>
-31.3656

> <Gold.PLP.part.hbond>
-5.1593

> <Gold.PLP.part.metal>
0.0000

> <Gold.PLP.part.buried>
-2.7513

> <Gold.PLP.part.nonpolar>
-22.5978

> <Gold.PLP.part.repulsive>
0.1360

> <Gold.PLP.ligand.clash>
0.0000

> <Gold.PLP.ligand.torsion>
0.5720

> <Gold.PLP.Chemscore.Hbond>
3.8400

> <Gold.PLP.Chemscore.CHOScore>
0.0000

> <Gold.PLP.Chemscore.Metal>
0.0000

> <Gold.Chemscore.Hbonds>
donor molecule, donor type, donor heavy atom, donor atom, acceptor molecule, acceptor atom, score
      L1  H    17    38       P1  7949  1.00
      P1  H  6931  6943       L1    18  0.88
      P1  H  6934  6947       L1    18  0.94
      P1  H 10752 10765       L1    17  0.95

> <Gold.PLP.Chemscore.Internal.Correction>
0.0176

> <Gold.Rescore>
     Score         DG    S(hbond)    S(metal)    S(lipo)     H(rot)  DE(clash)    DE(int)     intcor
     13.59     -15.94       2.14        0.00      68.96       1.86       1.12       1.23       ----

> <Gold.Chemscore.Fitness>
13.5901

> <Gold.Chemscore.DG>
-15.9430

> <Gold.Chemscore.ZeroCoef>
-5.4800

> <Gold.Chemscore.Hbond>
2.1418

> <Gold.Chemscore.Metal>
0.0000

> <Gold.Chemscore.Lipo>
68.9555

> <Gold.Chemscore.Internal_Hbond>
0.0000

> <Gold.Chemscore.DEClash>
1.1204

> <Gold.Chemscore.DEInternal>
1.2324

> <Gold.Chemscore.Rot>
1.8587

> <Gold.Chemscore.Internal.Correction>
   9.000000E+99

> <Gold.Chemscore.Hbonds>
donor molecule, donor type, donor heavy atom, donor atom, acceptor molecule, acceptor atom, score
      L1  H    17    38       P1  7949  0.25
      P1  H  6931  6943       L1    18  0.37
      P1  H  6934  6947       L1    18  0.90
      P1  H 10752 10765       L1    17  0.19

> <Gold.Chemscore.Hbond.Weighted>
-7.1535

> <Gold.Chemscore.Metal.Weighted>
-0.0000

> <Gold.Chemscore.Lipo.Weighted>
-8.0678

> <Gold.Chemscore.Internal_Hbond.Weighted>
0.0000

> <Gold.Chemscore.DEClash.Weighted>
1.1204

> <Gold.Chemscore.DEInternal.Weighted>
1.2324

> <Gold.Chemscore.Rot.Weighted>
4.7583

> <Gold.Chemscore.Internal.Correction.Weighted>
   9.000000E+99

> <Gold.Protein.RotatedTorsions>
[ 6907 6896 6895 6894 ] final -161.66 input  -60.11 | X-H torsion
[ 7974 7965 7964 7962 ] final   63.95 input  175.53 | X-H torsion
[ 8008 7997 7996 7995 ] final  124.74 input   59.86 | X-H torsion
[ 10167 10162 10161 10158 ] final  168.37 input  -65.29 | X-H torsion
[ 10718 10713 10712 10709 ] final   17.68 input   66.30 | X-H torsion
[ 10763 10752 10751 10750 ] final  175.23 input  -60.55 | X-H torsion
[ 11005 11000 10999 10996 ] final  108.77 input  -57.11 | X-H torsion

> <Gold.Protein.ActiveResidues>
 VAL166  LYS551  ARG553  GLY616  TRP617  ASP618  TYR619  PRO620  LYS621  CYS622 
 ASP623  PHE694  ASN695  SER759  ASP760  ASP761  ALA762  ILE779  LEU786  VAL792 
 PHE793  MET794  SER795  GLU796  ALA797  LYS798  CYS799  TRP800  GLU811  SER814 

> <Gold.Protein.RotatedAtoms>
  151.3681  133.3865  159.2696 H   0  0  0  0  0  0  0  0  0  0  0  0  # atno 6907 bound_to 6896
  150.9673  134.9052  159.7777 H   0  0  0  0  0  0  0  0  0  0  0  0  # atno 6908 bound_to 6896
  152.5171  134.3642  159.9347 H   0  0  0  0  0  0  0  0  0  0  0  0  # atno 6909 bound_to 6896
  145.8559  139.3283  143.0848 H   0  0  0  0  0  0  0  0  0  0  0  0  # atno 7974 bound_to 7965
  156.2811  140.2733  156.1836 H   0  0  0  0  0  0  0  0  0  0  0  0  # atno 8008 bound_to 7997
  155.0531  140.0386  157.2568 H   0  0  0  0  0  0  0  0  0  0  0  0  # atno 8009 bound_to 7997
  154.7179  140.2682  155.6574 H   0  0  0  0  0  0  0  0  0  0  0  0  # atno 8010 bound_to 7997
  139.4966  144.3822  151.9609 H   0  0  0  0  0  0  0  0  0  0  0  0  # atno 10167 bound_to 10162
  157.0855  130.6406  149.5836 H   0  0  0  0  0  0  0  0  0  0  0  0  # atno 10718 bound_to 10713
  154.4647  135.2769  155.1687 H   0  0  0  0  0  0  0  0  0  0  0  0  # atno 10763 bound_to 10752
  154.3460  135.6160  153.5623 H   0  0  0  0  0  0  0  0  0  0  0  0  # atno 10764 bound_to 10752
  152.9858  135.5800  154.5016 H   0  0  0  0  0  0  0  0  0  0  0  0  # atno 10765 bound_to 10752
  139.8850  134.9440  156.6024 H   0  0  0  0  0  0  0  0  0  0  0  0  # atno 11005 bound_to 11000
  145.9304  140.9052  143.0359 LP  0  0  0  0  0  0  0  0  0  0  0  0  # atno 17320 bound_to 7965
  144.6727  140.1411  143.7437 LP  0  0  0  0  0  0  0  0  0  0  0  0  # atno 17321 bound_to 7965
  140.3259  144.3374  150.5998 LP  0  0  0  0  0  0  0  0  0  0  0  0  # atno 17342 bound_to 10162
  140.5685  143.2183  151.7641 LP  0  0  0  0  0  0  0  0  0  0  0  0  # atno 17343 bound_to 10162
  155.9912  130.4966  150.7288 LP  0  0  0  0  0  0  0  0  0  0  0  0  # atno 17370 bound_to 10713
  157.4764  131.0898  151.0585 LP  0  0  0  0  0  0  0  0  0  0  0  0  # atno 17371 bound_to 10713
  140.7873  133.8610  155.8617 LP  0  0  0  0  0  0  0  0  0  0  0  0  # atno 17394 bound_to 11000
  140.9708  134.1534  157.4578 LP  0  0  0  0  0  0  0  0  0  0  0  0  # atno 17395 bound_to 11000

$$$$
