AV-unprocessed.smi:1733|AV-procd|sdf|6978|dock2
  -GOLD-   22720 8193D 1   1.00000     0.00000
 Structure written by MMmdl.
 52 54  0  0  0  0  0  0  0  0  1 V2000
  144.6274  136.6378  152.6201 O   0  0  0  0  0  0  0  0  0  0  0  0
  145.8327  136.4388  152.4705 C   0  0  0  0  0  0  0  0  0  0  0  0
  146.3765  135.3679  151.8654 N   0  0  0  0  0  0  0  0  0  0  0  0
  145.7283  134.2515  151.2683 C   0  0  0  0  0  0  0  0  0  0  0  0
  146.5438  133.2225  150.7526 C   0  0  0  0  0  0  0  0  0  0  0  0
  145.9309  132.1092  150.1441 C   0  0  0  0  0  0  0  0  0  0  0  0
  144.5941  131.9756  150.0179 N   0  0  0  0  0  0  0  0  0  0  0  0
  143.8151  132.9676  150.4990 C   0  0  0  0  0  0  0  0  0  0  0  0
  144.3255  134.1223  151.1256 C   0  0  0  0  0  0  0  0  0  0  0  0
  146.7838  137.2726  152.9171 N   0  0  0  0  0  0  0  0  0  0  0  0
  146.5580  138.5213  153.6414 C   0  0  0  0  0  0  0  0  0  0  0  0
  147.0956  139.7114  152.8180 C   0  0  0  0  0  0  0  0  0  0  0  0
  147.0618  141.0162  153.6348 C   0  0  0  0  0  0  0  0  0  0  0  0
  147.8263  140.8200  154.8786 N   0  0  0  0  0  0  0  0  0  0  0  0
  149.0695  141.2995  155.1356 C   0  0  0  0  0  0  0  0  0  0  0  0
  149.8529  141.6506  154.2521 O   0  0  0  0  0  0  0  0  0  0  0  0
  149.4056  141.3137  156.4370 N   0  0  0  0  0  0  0  0  0  0  0  0
  150.6846  141.7583  156.9820 C   0  0  0  0  0  0  0  0  0  0  0  0
  151.2364  140.6877  157.9422 C   0  0  0  0  0  0  0  0  0  0  0  0
  152.5525  141.1415  158.5945 C   0  0  0  0  0  0  0  0  0  0  0  0
  152.3805  142.4871  159.3162 C   0  0  0  0  0  0  0  0  0  0  0  0
  151.8348  143.5616  158.3625 C   0  0  0  0  0  0  0  0  0  0  0  0
  150.5202  143.1109  157.7050 C   0  0  0  0  0  0  0  0  0  0  0  0
  147.1895  139.8150  155.7386 C   0  0  0  0  0  0  0  0  0  0  0  0
  147.2265  138.4485  155.0306 C   0  0  0  0  0  0  0  0  0  0  0  0
  147.3845  135.3183  151.8833 H   0  0  0  0  0  0  0  0  0  0  0  0
  147.6200  133.2779  150.8247 H   0  0  0  0  0  0  0  0  0  0  0  0
  146.5319  131.3045  149.7466 H   0  0  0  0  0  0  0  0  0  0  0  0
  142.7495  132.8406  150.3759 H   0  0  0  0  0  0  0  0  0  0  0  0
  143.6364  134.8784  151.4683 H   0  0  0  0  0  0  0  0  0  0  0  0
  147.7468  137.0202  152.7494 H   0  0  0  0  0  0  0  0  0  0  0  0
  145.4903  138.6850  153.7986 H   0  0  0  0  0  0  0  0  0  0  0  0
  148.1222  139.5134  152.5051 H   0  0  0  0  0  0  0  0  0  0  0  0
  146.5109  139.8280  151.9048 H   0  0  0  0  0  0  0  0  0  0  0  0
  147.4200  141.8415  153.0196 H   0  0  0  0  0  0  0  0  0  0  0  0
  146.0308  141.2702  153.8854 H   0  0  0  0  0  0  0  0  0  0  0  0
  148.7168  140.9929  157.1017 H   0  0  0  0  0  0  0  0  0  0  0  0
  151.4011  141.8787  156.1668 H   0  0  0  0  0  0  0  0  0  0  0  0
  150.5027  140.4753  158.7213 H   0  0  0  0  0  0  0  0  0  0  0  0
  151.3970  139.7518  157.4056 H   0  0  0  0  0  0  0  0  0  0  0  0
  152.8999  140.3840  159.2977 H   0  0  0  0  0  0  0  0  0  0  0  0
  153.3267  141.2326  157.8315 H   0  0  0  0  0  0  0  0  0  0  0  0
  151.6990  142.3656  160.1594 H   0  0  0  0  0  0  0  0  0  0  0  0
  153.3347  142.8099  159.7333 H   0  0  0  0  0  0  0  0  0  0  0  0
  151.6781  144.4949  158.9041 H   0  0  0  0  0  0  0  0  0  0  0  0
  152.5743  143.7732  157.5891 H   0  0  0  0  0  0  0  0  0  0  0  0
  150.1829  143.8746  157.0032 H   0  0  0  0  0  0  0  0  0  0  0  0
  149.7448  143.0296  158.4683 H   0  0  0  0  0  0  0  0  0  0  0  0
  147.6618  139.7419  156.7194 H   0  0  0  0  0  0  0  0  0  0  0  0
  146.1565  140.1077  155.9322 H   0  0  0  0  0  0  0  0  0  0  0  0
  146.7305  137.6972  155.6461 H   0  0  0  0  0  0  0  0  0  0  0  0
  148.2645  138.1283  154.9278 H   0  0  0  0  0  0  0  0  0  0  0  0
  1  2  2  0  0  0  0
  2  3  1  0  0  0  0
  2 10  1  0  0  0  0
  3  4  1  0  0  0  0
  3 26  1  0  0  0  0
  4  9  1  0  0  0  0
  4  5  2  0  0  0  0
  5  6  1  0  0  0  0
  5 27  1  0  0  0  0
  6  7  2  0  0  0  0
  6 28  1  0  0  0  0
  7  8  1  0  0  0  0
  8  9  2  0  0  0  0
  8 29  1  0  0  0  0
  9 30  1  0  0  0  0
 10 11  1  0  0  0  0
 10 31  1  0  0  0  0
 11 25  1  0  0  0  0
 11 12  1  0  0  0  0
 11 32  1  0  0  0  0
 12 13  1  0  0  0  0
 12 33  1  0  0  0  0
 12 34  1  0  0  0  0
 13 14  1  0  0  0  0
 13 35  1  0  0  0  0
 13 36  1  0  0  0  0
 14 15  1  0  0  0  0
 14 24  1  0  0  0  0
 15 16  2  0  0  0  0
 15 17  1  0  0  0  0
 17 18  1  0  0  0  0
 17 37  1  0  0  0  0
 18 23  1  0  0  0  0
 18 19  1  0  0  0  0
 18 38  1  0  0  0  0
 19 20  1  0  0  0  0
 19 39  1  0  0  0  0
 19 40  1  0  0  0  0
 20 21  1  0  0  0  0
 20 41  1  0  0  0  0
 20 42  1  0  0  0  0
 21 22  1  0  0  0  0
 21 43  1  0  0  0  0
 21 44  1  0  0  0  0
 22 23  1  0  0  0  0
 22 45  1  0  0  0  0
 22 46  1  0  0  0  0
 23 47  1  0  0  0  0
 23 48  1  0  0  0  0
 24 25  1  0  0  0  0
 24 49  1  0  0  0  0
 24 50  1  0  0  0  0
 25 51  1  0  0  0  0
 25 52  1  0  0  0  0
M  END
> <s_m_source_file>
AV-unprocessed.smi

> <i_m_source_file_index>
1733

> <i_lp_mmshare_version>
43012

> <i_f3d_flags>
0

> <s_epik_input>
W2NIXTFbY0hdbltjSF1bY0hdYzFbTkhdQyg9TylbTkhdW0NIXTJbQ0gyXVtDSDJdTihbQ0gyXVtDSDJdMilDKD1PKVtOSF1bQ0hdM1tDSDJdW0NIMl1bQ0gyXVtDSDJdW0NIMl0z

> <s_epik_cmdline>
J2VwaWtfcHl0aG9uJywgJy1waCcsICc3LjAnLCAnLXRuJywgJzgnLCAnLW1hJywgJzIwMCcsICctbWV0YWxfYmluZGluZycsICctaW1hZScsICc8aW5maWxlLm1hZT4nLCAnLW9tYWUnLCAnPG91dGZpbGUubWFlPic=

> <r_epik_Ionization_Penalty>
0.116111

> <r_epik_Ionization_Penalty_Charging>
0

> <r_epik_Ionization_Penalty_Neutral>
0.116111

> <r_epik_State_Penalty>
0.105631

> <r_epik_Charging_Adjusted_Penalty>
0.105631

> <i_epik_Tot_Q>
0

> <i_epik_Tot_abs_Q>
0

> <r_epik_Metal_State_Penalty>
0.0881896

> <b_epik_Metal_Only>
0

> <s_lp_Force_Field>
OPLS_2005

> <r_lp_Energy>
42.5008

> <b_lp_Chiralities_Consistent>
1

> <s_lp_Variant>
AV-unprocessed.smi:1733-1

> <Gold.Version>
5.8.1

> <Gold.Id.Protein>
6NUR|6NUR_protein|mol2

> <Gold.PLP.Fitness>
53.3512

> <Gold.PLP.PLP>
-40.4242

> <Gold.PLP.part.hbond>
-4.0026

> <Gold.PLP.part.metal>
0.0000

> <Gold.PLP.part.buried>
-1.1125

> <Gold.PLP.part.nonpolar>
-35.3507

> <Gold.PLP.part.repulsive>
0.6329

> <Gold.PLP.ligand.clash>
0.0000

> <Gold.PLP.ligand.torsion>
0.3972

> <Gold.PLP.Chemscore.Hbond>
2.6312

> <Gold.PLP.Chemscore.CHOScore>
1.9264

> <Gold.PLP.Chemscore.Metal>
0.0000

> <Gold.Chemscore.Hbonds>
donor molecule, donor type, donor heavy atom, donor atom, acceptor molecule, acceptor atom, score
      L1  H     3    26       P1  7948  0.96
      L1  H    10    31       P1  7948  1.00
      P1  H  7989  7998       L1    16  0.21
      P1  H  8011  8017       L1    16  0.46
      L1  C     6    28       P1 10747  0.94
      L1  C     8    29       P1 10186  1.00

> <Gold.PLP.Chemscore.Internal.Correction>
0.0488

> <Gold.Rescore>
     Score         DG    S(hbond)    S(metal)    S(lipo)     H(rot)  DE(clash)    DE(int)     intcor
     20.85     -24.18       2.62        0.00     111.95       1.23       1.74       1.59       ----

> <Gold.Chemscore.Fitness>
20.8466

> <Gold.Chemscore.DG>
-24.1798

> <Gold.Chemscore.ZeroCoef>
-5.4800

> <Gold.Chemscore.Hbond>
2.6196

> <Gold.Chemscore.Metal>
0.0000

> <Gold.Chemscore.Lipo>
111.9533

> <Gold.Chemscore.Internal_Hbond>
0.0000

> <Gold.Chemscore.DEClash>
1.7401

> <Gold.Chemscore.DEInternal>
1.5931

> <Gold.Chemscore.Rot>
1.2298

> <Gold.Chemscore.Internal.Correction>
   9.000000E+99

> <Gold.Chemscore.Hbonds>
donor molecule, donor type, donor heavy atom, donor atom, acceptor molecule, acceptor atom, score
      L1  H     3    26       P1  7948  0.91
      L1  H    10    31       P1  7948  0.96
      P1  H  7989  7998       L1    16  0.20
      P1  H  8011  8017       L1    16  0.44

> <Gold.Chemscore.Hbond.Weighted>
-8.7496

> <Gold.Chemscore.Metal.Weighted>
-0.0000

> <Gold.Chemscore.Lipo.Weighted>
-13.0985

> <Gold.Chemscore.Internal_Hbond.Weighted>
0.0000

> <Gold.Chemscore.DEClash.Weighted>
1.7401

> <Gold.Chemscore.DEInternal.Weighted>
1.5931

> <Gold.Chemscore.Rot.Weighted>
3.1483

> <Gold.Chemscore.Internal.Correction.Weighted>
   9.000000E+99

> <Gold.Protein.RotatedTorsions>
[ 6907 6896 6895 6894 ] final  127.72 input  -60.11 | X-H torsion
[ 7974 7965 7964 7962 ] final   -8.90 input  175.53 | X-H torsion
[ 8008 7997 7996 7995 ] final  156.63 input   59.86 | X-H torsion
[ 10167 10162 10161 10158 ] final  -18.81 input  -65.29 | X-H torsion
[ 10718 10713 10712 10709 ] final  130.83 input   66.30 | X-H torsion
[ 10763 10752 10751 10750 ] final  115.99 input  -60.55 | X-H torsion
[ 11005 11000 10999 10996 ] final -161.32 input  -57.11 | X-H torsion

> <Gold.Protein.ActiveResidues>
 VAL166  LYS551  ARG553  GLY616  TRP617  ASP618  TYR619  PRO620  LYS621  CYS622 
 ASP623  PHE694  ASN695  SER759  ASP760  ASP761  ALA762  ILE779  LEU786  VAL792 
 PHE793  MET794  SER795  GLU796  ALA797  LYS798  CYS799  TRP800  GLU811  SER814 

> <Gold.Protein.RotatedAtoms>
  152.3787  133.6516  159.6143 H   0  0  0  0  0  0  0  0  0  0  0  0  # atno 6907 bound_to 6896
  150.7724  133.9151  159.3390 H   0  0  0  0  0  0  0  0  0  0  0  0  # atno 6908 bound_to 6896
  151.6960  135.0939  160.0293 H   0  0  0  0  0  0  0  0  0  0  0  0  # atno 6909 bound_to 6896
  146.2267  140.2536  142.8348 H   0  0  0  0  0  0  0  0  0  0  0  0  # atno 7974 bound_to 7965
  156.2411  140.1907  156.6985 H   0  0  0  0  0  0  0  0  0  0  0  0  # atno 8008 bound_to 7997
  154.6199  140.0610  156.9628 H   0  0  0  0  0  0  0  0  0  0  0  0  # atno 8009 bound_to 7997
  155.1878  140.3282  155.4366 H   0  0  0  0  0  0  0  0  0  0  0  0  # atno 8010 bound_to 7997
  140.7262  143.4880  151.0029 H   0  0  0  0  0  0  0  0  0  0  0  0  # atno 10167 bound_to 10162
  157.5025  131.1094  150.9407 H   0  0  0  0  0  0  0  0  0  0  0  0  # atno 10718 bound_to 10713
  153.5304  135.3579  155.2673 H   0  0  0  0  0  0  0  0  0  0  0  0  # atno 10763 bound_to 10752
  154.8727  135.4067  154.3158 H   0  0  0  0  0  0  0  0  0  0  0  0  # atno 10764 bound_to 10752
  153.3845  135.7069  153.6608 H   0  0  0  0  0  0  0  0  0  0  0  0  # atno 10765 bound_to 10752
  140.6216  134.4744  157.5224 H   0  0  0  0  0  0  0  0  0  0  0  0  # atno 11005 bound_to 11000
  144.9393  140.8060  143.5641 LP  0  0  0  0  0  0  0  0  0  0  0  0  # atno 17320 bound_to 7965
  145.2486  139.2041  143.4954 LP  0  0  0  0  0  0  0  0  0  0  0  0  # atno 17321 bound_to 7965
  139.8582  143.7348  152.3175 LP  0  0  0  0  0  0  0  0  0  0  0  0  # atno 17342 bound_to 10162
  139.7555  144.7522  151.0443 LP  0  0  0  0  0  0  0  0  0  0  0  0  # atno 17343 bound_to 10162
  157.0073  130.5623  149.5317 LP  0  0  0  0  0  0  0  0  0  0  0  0  # atno 17370 bound_to 10713
  156.0238  130.5332  150.8349 LP  0  0  0  0  0  0  0  0  0  0  0  0  # atno 17371 bound_to 10713
  139.9151  134.8263  156.1394 LP  0  0  0  0  0  0  0  0  0  0  0  0  # atno 17394 bound_to 11000
  141.0738  133.6785  156.2194 LP  0  0  0  0  0  0  0  0  0  0  0  0  # atno 17395 bound_to 11000

$$$$
