AV-unprocessed.smi:3114|AV-procd|sdf|11857|dock4
  -GOLD-   2272017243D 1   1.00000     0.00000
 Structure written by MMmdl.
 31 31  0  0  0  0  0  0  0  0  2 V2000
  153.7193  141.5242  159.9665 C   0  0  0  0  0  0  0  0  0  0  0  0
  153.4036  142.8045  160.4923 O   0  0  0  0  0  0  0  0  0  0  0  0
  152.3420  143.4786  159.9317 C   0  0  0  0  0  0  0  0  0  0  0  0
  151.8627  144.7379  160.3536 C   0  0  0  0  0  0  0  0  0  0  0  0
  150.7663  145.2666  159.6487 C   0  0  0  0  0  0  0  0  0  0  0  0
  150.2193  144.5821  158.6148 N   0  3  0  0  0  0  0  0  0  0  0  0
  150.7281  143.3929  158.2602 C   0  0  0  0  0  0  0  0  0  0  0  0
  150.1518  142.7487  157.1784 N   0  0  0  0  0  0  0  0  0  0  0  0
  150.5934  141.4539  156.6749 C   0  0  0  0  0  0  0  0  0  0  0  0
  150.0144  141.1464  155.2854 C   0  0  0  0  0  0  0  0  0  0  0  0
  150.7289  140.0601  154.7230 O   0  0  0  0  0  0  0  0  0  0  0  0
  150.5862  138.8506  155.4451 C   0  0  0  0  0  0  0  0  0  0  0  0
  150.8083  137.6828  154.4766 C   0  0  0  0  0  0  0  0  0  0  0  0
  152.1874  137.5279  154.2139 O   0  0  0  0  0  0  0  0  0  0  0  0
  151.7609  142.8298  158.9032 N   0  0  0  0  0  0  0  0  0  0  0  0
  154.5695  141.1112  160.5090 H   0  0  0  0  0  0  0  0  0  0  0  0
  153.9967  141.5838  158.9131 H   0  0  0  0  0  0  0  0  0  0  0  0
  152.8855  140.8300  160.0814 H   0  0  0  0  0  0  0  0  0  0  0  0
  152.2989  145.2892  161.1730 H   0  0  0  0  0  0  0  0  0  0  0  0
  150.3111  146.2196  159.8753 H   0  0  0  0  0  0  0  0  0  0  0  0
  149.6117  143.3229  156.5479 H   0  0  0  0  0  0  0  0  0  0  0  0
  151.6822  141.3908  156.6671 H   0  0  0  0  0  0  0  0  0  0  0  0
  150.2469  140.6997  157.3814 H   0  0  0  0  0  0  0  0  0  0  0  0
  148.9632  140.8689  155.3716 H   0  0  0  0  0  0  0  0  0  0  0  0
  150.0672  142.0305  154.6474 H   0  0  0  0  0  0  0  0  0  0  0  0
  151.3393  138.8212  156.2341 H   0  0  0  0  0  0  0  0  0  0  0  0
  149.6075  138.7822  155.9233 H   0  0  0  0  0  0  0  0  0  0  0  0
  150.3886  136.7558  154.8689 H   0  0  0  0  0  0  0  0  0  0  0  0
  150.3106  137.8891  153.5288 H   0  0  0  0  0  0  0  0  0  0  0  0
  152.6731  137.9636  154.8978 H   0  0  0  0  0  0  0  0  0  0  0  0
  149.4312  144.9856  158.1082 H   0  0  0  0  0  0  0  0  0  0  0  0
  1  2  1  0  0  0  0
  1 16  1  0  0  0  0
  1 17  1  0  0  0  0
  1 18  1  0  0  0  0
  2  3  1  0  0  0  0
  3 15  1  0  0  0  0
  3  4  2  0  0  0  0
  4  5  1  0  0  0  0
  4 19  1  0  0  0  0
  5  6  2  0  0  0  0
  5 20  1  0  0  0  0
  6  7  1  0  0  0  0
  6 31  1  0  0  0  0
  7  8  1  0  0  0  0
  7 15  2  0  0  0  0
  8  9  1  0  0  0  0
  8 21  1  0  0  0  0
  9 10  1  0  0  0  0
  9 22  1  0  0  0  0
  9 23  1  0  0  0  0
 10 11  1  0  0  0  0
 10 24  1  0  0  0  0
 10 25  1  0  0  0  0
 11 12  1  0  0  0  0
 12 13  1  0  0  0  0
 12 26  1  0  0  0  0
 12 27  1  0  0  0  0
 13 14  1  0  0  0  0
 13 28  1  0  0  0  0
 13 29  1  0  0  0  0
 14 30  1  0  0  0  0
M  CHG  1   6   1
M  END
> <s_m_source_file>
AV-unprocessed.smi

> <i_m_source_file_index>
3114

> <i_lp_mmshare_version>
43012

> <i_f3d_flags>
0

> <s_epik_input>
W0NIM11PYzFbY0hdW2NIXW5jKG4xKVtOSF1bQ0gyXVtDSDJdT1tDSDJdW0NIMl1bT0hd

> <s_epik_cmdline>
J2VwaWtfcHl0aG9uJywgJy1waCcsICc3LjAnLCAnLXRuJywgJzgnLCAnLW1hJywgJzIwMCcsICctbWV0YWxfYmluZGluZycsICctaW1hZScsICc8aW5maWxlLm1hZT4nLCAnLW9tYWUnLCAnPG91dGZpbGUubWFlPic=

> <r_lp_tautomer_probability>
0.999985

> <r_epik_Ionization_Penalty>
1.70515

> <r_epik_Ionization_Penalty_Charging>
1.70513

> <r_epik_Ionization_Penalty_Neutral>
1.12168e-05

> <r_epik_State_Penalty>
1.81144

> <r_epik_Charging_Adjusted_Penalty>
3.51658

> <i_epik_Tot_Q>
1

> <i_epik_Tot_abs_Q>
1

> <r_epik_Metal_State_Penalty>
1.84414

> <b_epik_Metal_Only>
0

> <s_lp_Force_Field>
OPLS_2005

> <r_lp_Energy>
4.65806

> <b_lp_Chiralities_Consistent>
1

> <s_lp_Variant>
AV-unprocessed.smi:3114-2

> <Gold.Version>
5.8.1

> <Gold.Id.Protein>
6NUR|6NUR_protein|mol2

> <Gold.PLP.Fitness>
50.8429

> <Gold.PLP.PLP>
-33.8886

> <Gold.PLP.part.hbond>
-4.9306

> <Gold.PLP.part.metal>
0.0000

> <Gold.PLP.part.buried>
-6.6281

> <Gold.PLP.part.nonpolar>
-24.2461

> <Gold.PLP.part.repulsive>
0.2481

> <Gold.PLP.ligand.clash>
0.0000

> <Gold.PLP.ligand.torsion>
0.3558

> <Gold.PLP.Chemscore.Hbond>
5.8800

> <Gold.PLP.Chemscore.CHOScore>
0.0000

> <Gold.PLP.Chemscore.Metal>
0.0000

> <Gold.Chemscore.Hbonds>
donor molecule, donor type, donor heavy atom, donor atom, acceptor molecule, acceptor atom, score
      L1  H     6    31       P1  8029  2.00
      L1  H     8    21       P1  8028  2.00
      P1  H  7989  7998       L1    11  1.00
      P1  H 10752 10765       L1    14  0.82

> <Gold.PLP.Chemscore.Internal.Correction>
0.0260

> <Gold.Rescore>
     Score         DG    S(hbond)    S(metal)    S(lipo)     H(rot)  DE(clash)    DE(int)     intcor
     12.68     -13.10       2.68        0.00      60.77       3.29       0.00       0.41       ----

> <Gold.Chemscore.Fitness>
12.6839

> <Gold.Chemscore.DG>
-13.1000

> <Gold.Chemscore.ZeroCoef>
-5.4800

> <Gold.Chemscore.Hbond>
2.6767

> <Gold.Chemscore.Metal>
0.0000

> <Gold.Chemscore.Lipo>
60.7697

> <Gold.Chemscore.Internal_Hbond>
0.0000

> <Gold.Chemscore.DEClash>
0.0038

> <Gold.Chemscore.DEInternal>
0.4123

> <Gold.Chemscore.Rot>
3.2930

> <Gold.Chemscore.Internal.Correction>
   9.000000E+99

> <Gold.Chemscore.Hbonds>
donor molecule, donor type, donor heavy atom, donor atom, acceptor molecule, acceptor atom, score
      L1  H     6    31       P1  8029  0.25
      L1  H     8    21       P1  8028  1.00
      P1  H  7989  7998       L1    11  0.30
      P1  H 10752 10765       L1    14  0.39

> <Gold.Chemscore.Hbond.Weighted>
-8.9401

> <Gold.Chemscore.Metal.Weighted>
-0.0000

> <Gold.Chemscore.Lipo.Weighted>
-7.1101

> <Gold.Chemscore.Internal_Hbond.Weighted>
0.0000

> <Gold.Chemscore.DEClash.Weighted>
0.0038

> <Gold.Chemscore.DEInternal.Weighted>
0.4123

> <Gold.Chemscore.Rot.Weighted>
8.4302

> <Gold.Chemscore.Internal.Correction.Weighted>
   9.000000E+99

> <Gold.Protein.RotatedTorsions>
[ 6907 6896 6895 6894 ] final   96.39 input  -60.11 | X-H torsion
[ 7974 7965 7964 7962 ] final -108.90 input  175.53 | X-H torsion
[ 8008 7997 7996 7995 ] final  -42.33 input   59.86 | X-H torsion
[ 10167 10162 10161 10158 ] final -132.41 input  -65.29 | X-H torsion
[ 10718 10713 10712 10709 ] final  136.66 input   66.30 | X-H torsion
[ 10763 10752 10751 10750 ] final  148.34 input  -60.55 | X-H torsion
[ 11005 11000 10999 10996 ] final  -76.32 input  -57.11 | X-H torsion

> <Gold.Protein.ActiveResidues>
 VAL166  LYS551  ARG553  GLY616  TRP617  ASP618  TYR619  PRO620  LYS621  CYS622 
 ASP623  PHE694  ASN695  SER759  ASP760  ASP761  ALA762  ILE779  LEU786  VAL792 
 PHE793  MET794  SER795  GLU796  ALA797  LYS798  CYS799  TRP800  GLU811  SER814 

> <Gold.Protein.RotatedAtoms>
  152.5435  134.0893  159.8269 H   0  0  0  0  0  0  0  0  0  0  0  0  # atno 6907 bound_to 6896
  151.0985  133.5254  159.2618 H   0  0  0  0  0  0  0  0  0  0  0  0  # atno 6908 bound_to 6896
  151.2018  135.0455  159.8929 H   0  0  0  0  0  0  0  0  0  0  0  0  # atno 6909 bound_to 6896
  145.1872  140.8998  143.3446 H   0  0  0  0  0  0  0  0  0  0  0  0  # atno 7974 bound_to 7965
  154.3999  140.1476  156.3336 H   0  0  0  0  0  0  0  0  0  0  0  0  # atno 8008 bound_to 7997
  155.8420  140.3461  155.5617 H   0  0  0  0  0  0  0  0  0  0  0  0  # atno 8009 bound_to 7997
  155.8076  140.0879  157.1912 H   0  0  0  0  0  0  0  0  0  0  0  0  # atno 8010 bound_to 7997
  139.9088  143.6518  152.2579 H   0  0  0  0  0  0  0  0  0  0  0  0  # atno 10167 bound_to 10162
  157.4444  131.1060  151.0107 H   0  0  0  0  0  0  0  0  0  0  0  0  # atno 10718 bound_to 10713
  154.0531  135.2880  155.3337 H   0  0  0  0  0  0  0  0  0  0  0  0  # atno 10763 bound_to 10752
  154.6856  135.5246  153.8325 H   0  0  0  0  0  0  0  0  0  0  0  0  # atno 10764 bound_to 10752
  153.0552  135.6592  154.0726 H   0  0  0  0  0  0  0  0  0  0  0  0  # atno 10765 bound_to 10752
  141.1653  133.6979  156.7651 H   0  0  0  0  0  0  0  0  0  0  0  0  # atno 11005 bound_to 11000
  145.0077  139.3539  143.6135 LP  0  0  0  0  0  0  0  0  0  0  0  0  # atno 17320 bound_to 7965
  146.3443  139.9327  142.8751 LP  0  0  0  0  0  0  0  0  0  0  0  0  # atno 17321 bound_to 7965
  139.6960  144.7641  151.1355 LP  0  0  0  0  0  0  0  0  0  0  0  0  # atno 17342 bound_to 10162
  140.7690  143.5523  150.9191 LP  0  0  0  0  0  0  0  0  0  0  0  0  # atno 17343 bound_to 10162
  157.0959  130.5961  149.5449 LP  0  0  0  0  0  0  0  0  0  0  0  0  # atno 17370 bound_to 10713
  155.9961  130.5030  150.7485 LP  0  0  0  0  0  0  0  0  0  0  0  0  # atno 17371 bound_to 10713
  140.2505  134.8544  157.3663 LP  0  0  0  0  0  0  0  0  0  0  0  0  # atno 17394 bound_to 11000
  140.1707  134.4612  155.7834 LP  0  0  0  0  0  0  0  0  0  0  0  0  # atno 17395 bound_to 11000

$$$$
