AV-unprocessed.smi:8|AV-procd|sdf|45|dock4
  -GOLD-   2262015163D 1   1.00000     0.00000
 Structure written by MMmdl.
 34 35  0  0  0  0  0  0  0  0  1 V2000
  151.6595  144.5328  161.0046 C   0  0  0  0  0  0  0  0  0  0  0  0
  152.4759  143.4778  161.7663 C   0  0  0  0  0  0  0  0  0  0  0  0
  152.9085  142.3880  160.9265 N   0  0  0  0  0  0  0  0  0  0  0  0
  152.3310  142.1235  159.6942 C   0  0  0  0  0  0  0  0  0  0  0  0
  152.7022  141.0913  158.8948 C   0  0  0  0  0  0  0  0  0  0  0  0
  152.0552  140.8549  157.5389 C   0  0  0  0  0  0  0  0  0  0  0  0
  150.6467  140.4942  157.6370 N   0  0  0  0  0  0  0  0  0  0  0  0
  149.7936  140.6496  156.5337 C   0  0  0  0  0  0  0  0  0  0  0  0
  148.6713  141.3953  156.6724 N   0  0  0  0  0  0  0  0  0  0  0  0
  147.8829  141.5230  155.6025 C   0  0  0  0  0  0  0  0  0  0  0  0
  148.0821  140.9888  154.3960 N   0  0  0  0  0  0  0  0  0  0  0  0
  149.1971  140.2443  154.2405 C   0  0  0  0  0  0  0  0  0  0  0  0
  150.1090  140.0357  155.2977 C   0  0  0  0  0  0  0  0  0  0  0  0
  151.3563  139.1934  155.1004 C   0  0  0  0  0  0  0  0  0  0  0  0
  153.7862  140.2023  159.3288 C   0  0  0  0  0  0  0  0  0  0  0  0
  154.2240  139.2470  158.6900 O   0  0  0  0  0  0  0  0  0  0  0  0
  154.3347  140.5034  160.5791 N   0  0  0  0  0  0  0  0  0  0  0  0
  153.9426  141.5539  161.4071 C   0  0  0  0  0  0  0  0  0  0  0  0
  154.4920  141.7158  162.4970 O   0  0  0  0  0  0  0  0  0  0  0  0
  155.0786  139.9075  160.9126 H   0  0  0  0  0  0  0  0  0  0  0  0
  151.3850  145.3572  161.6629 H   0  0  0  0  0  0  0  0  0  0  0  0
  150.7379  144.1138  160.6001 H   0  0  0  0  0  0  0  0  0  0  0  0
  152.2314  144.9477  160.1741 H   0  0  0  0  0  0  0  0  0  0  0  0
  153.3811  143.9214  162.1837 H   0  0  0  0  0  0  0  0  0  0  0  0
  151.9278  143.0528  162.6099 H   0  0  0  0  0  0  0  0  0  0  0  0
  151.5365  142.7720  159.3527 H   0  0  0  0  0  0  0  0  0  0  0  0
  152.1473  141.7523  156.9260 H   0  0  0  0  0  0  0  0  0  0  0  0
  152.6024  140.0631  157.0251 H   0  0  0  0  0  0  0  0  0  0  0  0
  150.2429  140.3644  158.5531 H   0  0  0  0  0  0  0  0  0  0  0  0
  146.9907  142.1186  155.7272 H   0  0  0  0  0  0  0  0  0  0  0  0
  149.3604  139.8124  153.2640 H   0  0  0  0  0  0  0  0  0  0  0  0
  151.4153  138.8090  154.0819 H   0  0  0  0  0  0  0  0  0  0  0  0
  151.3535  138.3439  155.7838 H   0  0  0  0  0  0  0  0  0  0  0  0
  152.2502  139.7879  155.2905 H   0  0  0  0  0  0  0  0  0  0  0  0
  1  2  1  0  0  0  0
  1 21  1  0  0  0  0
  1 22  1  0  0  0  0
  1 23  1  0  0  0  0
  2  3  1  0  0  0  0
  2 24  1  0  0  0  0
  2 25  1  0  0  0  0
  3 18  1  0  0  0  0
  3  4  1  0  0  0  0
  4  5  2  0  0  0  0
  4 26  1  0  0  0  0
  5  6  1  0  0  0  0
  5 15  1  0  0  0  0
  6  7  1  0  0  0  0
  6 27  1  0  0  0  0
  6 28  1  0  0  0  0
  7  8  1  0  0  0  0
  7 29  1  0  0  0  0
  8 13  1  0  0  0  0
  8  9  2  0  0  0  0
  9 10  1  0  0  0  0
 10 11  2  0  0  0  0
 10 30  1  0  0  0  0
 11 12  1  0  0  0  0
 12 13  2  0  0  0  0
 12 31  1  0  0  0  0
 13 14  1  0  0  0  0
 14 32  1  0  0  0  0
 14 33  1  0  0  0  0
 14 34  1  0  0  0  0
 15 16  2  0  0  0  0
 15 17  1  0  0  0  0
 17 20  1  0  0  0  0
 17 18  1  0  0  0  0
 18 19  2  0  0  0  0
M  END
> <s_m_source_file>
AV-unprocessed.smi

> <i_m_source_file_index>
8

> <i_lp_mmshare_version>
43012

> <i_f3d_flags>
0

> <s_epik_input>
W0NIM11bQ0gyXW4xW2NIXWMoYyg9TylbbkhdYzE9TylbQ0gyXVtOSF1jMm5bY0hdbltjSF1jMltDSDNd

> <s_epik_cmdline>
J2VwaWtfcHl0aG9uJywgJy1waCcsICc3LjAnLCAnLXRuJywgJzgnLCAnLW1hJywgJzIwMCcsICctbWV0YWxfYmluZGluZycsICctaW1hZScsICc8aW5maWxlLm1hZT4nLCAnLW9tYWUnLCAnPG91dGZpbGUubWFlPic=

> <r_lp_tautomer_probability>
0.999537

> <r_epik_Ionization_Penalty>
0.0165471

> <r_epik_Ionization_Penalty_Charging>
0.000694205

> <r_epik_Ionization_Penalty_Neutral>
0.0158529

> <r_epik_State_Penalty>
0.0119799

> <r_epik_Charging_Adjusted_Penalty>
0.0126741

> <i_epik_Tot_Q>
0

> <i_epik_Tot_abs_Q>
0

> <r_epik_Metal_State_Penalty>
0.262409

> <b_epik_Metal_Only>
0

> <s_lp_Force_Field>
OPLS_2005

> <r_lp_Energy>
9.23324

> <b_lp_Chiralities_Consistent>
1

> <s_lp_Variant>
AV-unprocessed.smi:8-1

> <Gold.Version>
5.8.1

> <Gold.Id.Protein>
6NUR|6NUR_protein|mol2

> <Gold.PLP.Fitness>
40.6738

> <Gold.PLP.PLP>
-36.4731

> <Gold.PLP.part.hbond>
-2.0000

> <Gold.PLP.part.metal>
0.0000

> <Gold.PLP.part.buried>
-1.8396

> <Gold.PLP.part.nonpolar>
-31.6493

> <Gold.PLP.part.repulsive>
0.3505

> <Gold.PLP.ligand.clash>
0.0000

> <Gold.PLP.ligand.torsion>
0.9021

> <Gold.PLP.Chemscore.Hbond>
1.0000

> <Gold.PLP.Chemscore.CHOScore>
1.0000

> <Gold.PLP.Chemscore.Metal>
0.0000

> <Gold.Chemscore.Hbonds>
donor molecule, donor type, donor heavy atom, donor atom, acceptor molecule, acceptor atom, score
      P1  H  7997  8009       L1    16  1.00
      L1  C    12    31       P1  7957  1.00

> <Gold.PLP.Chemscore.Internal.Correction>
0.0049

> <Gold.Rescore>
     Score         DG    S(hbond)    S(metal)    S(lipo)     H(rot)  DE(clash)    DE(int)     intcor
     10.23     -12.14       0.85        0.00      70.44       1.73       1.00       0.92       ----

> <Gold.Chemscore.Fitness>
10.2273

> <Gold.Chemscore.DG>
-12.1415

> <Gold.Chemscore.ZeroCoef>
-5.4800

> <Gold.Chemscore.Hbond>
0.8535

> <Gold.Chemscore.Metal>
0.0000

> <Gold.Chemscore.Lipo>
70.4393

> <Gold.Chemscore.Internal_Hbond>
0.0000

> <Gold.Chemscore.DEClash>
0.9962

> <Gold.Chemscore.DEInternal>
0.9180

> <Gold.Chemscore.Rot>
1.7307

> <Gold.Chemscore.Internal.Correction>
   9.000000E+99

> <Gold.Chemscore.Hbonds>
donor molecule, donor type, donor heavy atom, donor atom, acceptor molecule, acceptor atom, score
      P1  H  7997  8009       L1    16  0.40

> <Gold.Chemscore.Hbond.Weighted>
-2.8506

> <Gold.Chemscore.Metal.Weighted>
-0.0000

> <Gold.Chemscore.Lipo.Weighted>
-8.2414

> <Gold.Chemscore.Internal_Hbond.Weighted>
0.0000

> <Gold.Chemscore.DEClash.Weighted>
0.9962

> <Gold.Chemscore.DEInternal.Weighted>
0.9180

> <Gold.Chemscore.Rot.Weighted>
4.4305

> <Gold.Chemscore.Internal.Correction.Weighted>
   9.000000E+99

> <Gold.Protein.RotatedTorsions>
[ 6907 6896 6895 6894 ] final  -74.35 input  -60.11 | X-H torsion
[ 7974 7965 7964 7962 ] final   83.70 input  175.53 | X-H torsion
[ 8008 7997 7996 7995 ] final  124.34 input   59.86 | X-H torsion
[ 10167 10162 10161 10158 ] final  157.82 input  -65.29 | X-H torsion
[ 10718 10713 10712 10709 ] final   89.21 input   66.30 | X-H torsion
[ 10763 10752 10751 10750 ] final  160.06 input  -60.55 | X-H torsion
[ 11005 11000 10999 10996 ] final -138.37 input  -57.11 | X-H torsion

> <Gold.Protein.ActiveResidues>
 VAL166  LYS551  ARG553  GLY616  TRP617  ASP618  TYR619  PRO620  LYS621  CYS622 
 ASP623  PHE694  ASN695  SER759  ASP760  ASP761  ALA762  ILE779  LEU786  VAL792 
 PHE793  MET794  SER795  GLU796  ALA797  LYS798  CYS799  TRP800  GLU811  SER814 

> <Gold.Protein.RotatedAtoms>
  150.7096  134.4881  159.5502 H   0  0  0  0  0  0  0  0  0  0  0  0  # atno 6907 bound_to 6896
  152.2504  134.8135  160.0456 H   0  0  0  0  0  0  0  0  0  0  0  0  # atno 6908 bound_to 6896
  151.8884  133.3475  159.3827 H   0  0  0  0  0  0  0  0  0  0  0  0  # atno 6909 bound_to 6896
  145.6085  139.2364  143.2206 H   0  0  0  0  0  0  0  0  0  0  0  0  # atno 7974 bound_to 7965
  156.2798  140.2742  156.1772 H   0  0  0  0  0  0  0  0  0  0  0  0  # atno 8008 bound_to 7997
  155.0593  140.0386  157.2589 H   0  0  0  0  0  0  0  0  0  0  0  0  # atno 8009 bound_to 7997
  154.7130  140.2672  155.6617 H   0  0  0  0  0  0  0  0  0  0  0  0  # atno 8010 bound_to 7997
  139.4824  144.4882  151.8347 H   0  0  0  0  0  0  0  0  0  0  0  0  # atno 10167 bound_to 10162
  157.6954  131.0324  150.3391 H   0  0  0  0  0  0  0  0  0  0  0  0  # atno 10718 bound_to 10713
  154.2415  135.2774  155.2852 H   0  0  0  0  0  0  0  0  0  0  0  0  # atno 10763 bound_to 10752
  154.5541  135.5666  153.6952 H   0  0  0  0  0  0  0  0  0  0  0  0  # atno 10764 bound_to 10752
  152.9999  135.6282  154.2559 H   0  0  0  0  0  0  0  0  0  0  0  0  # atno 10765 bound_to 10752
  140.8622  134.2154  157.4700 H   0  0  0  0  0  0  0  0  0  0  0  0  # atno 11005 bound_to 11000
  146.1523  140.6908  142.9316 LP  0  0  0  0  0  0  0  0  0  0  0  0  # atno 17320 bound_to 7965
  144.7280  140.4584  143.6959 LP  0  0  0  0  0  0  0  0  0  0  0  0  # atno 17321 bound_to 7965
  140.4363  144.2047  150.5889 LP  0  0  0  0  0  0  0  0  0  0  0  0  # atno 17342 bound_to 10162
  140.4728  143.2407  151.9065 LP  0  0  0  0  0  0  0  0  0  0  0  0  # atno 17343 bound_to 10162
  156.3855  130.3888  149.7069 LP  0  0  0  0  0  0  0  0  0  0  0  0  # atno 17370 bound_to 10713
  156.4437  130.7873  151.2895 LP  0  0  0  0  0  0  0  0  0  0  0  0  # atno 17371 bound_to 10713
  139.8707  134.9735  156.4811 LP  0  0  0  0  0  0  0  0  0  0  0  0  # atno 17394 bound_to 11000
  140.8669  133.8017  155.9324 LP  0  0  0  0  0  0  0  0  0  0  0  0  # atno 17395 bound_to 11000

$$$$
