AV-unprocessed.smi:1057|AV-procd|sdf|4651|dock1
  -GOLD-   22720 3153D 1   1.00000     0.00000
 Structure written by MMmdl.
 45 46  0  0  0  0  0  0  0  0  2 V2000
  139.8027  142.3740  154.3531 C   0  0  0  0  0  0  0  0  0  0  0  0
  140.8148  142.8252  154.8658 C   0  0  0  0  0  0  0  0  0  0  0  0
  142.0298  143.3817  155.4791 C   0  0  0  0  0  0  0  0  0  0  0  0
  143.2071  143.1522  154.6552 N   0  0  0  0  0  0  0  0  0  0  0  0
  144.4666  143.3706  155.0585 C   0  0  0  0  0  0  0  0  0  0  0  0
  144.7510  143.7850  156.1836 O   0  0  0  0  0  0  0  0  0  0  0  0
  145.5639  143.0500  154.0363 C   0  0  0  0  0  0  0  0  0  0  0  0
  146.8832  142.9017  154.6464 N   0  0  0  0  0  0  0  0  0  0  0  0
  147.6516  141.8058  154.5655 C   0  0  0  0  0  0  0  0  0  0  0  0
  147.3102  140.7757  153.9846 O   0  0  0  0  0  0  0  0  0  0  0  0
  148.8340  141.9934  155.1745 N   0  0  0  0  0  0  0  0  0  0  0  0
  149.9161  141.0755  155.2893 C   0  0  0  0  0  0  0  0  0  0  0  0
  149.9861  139.8783  154.5322 C   0  0  0  0  0  0  0  0  0  0  0  0
  151.0740  139.0008  154.7135 C   0  0  0  0  0  0  0  0  0  0  0  0
  152.0695  139.3276  155.6531 C   0  0  0  0  0  0  0  0  0  0  0  0
  151.9669  140.4677  156.3682 N   0  3  0  0  0  0  0  0  0  0  0  0
  150.9421  141.3441  156.2302 C   0  0  0  0  0  0  0  0  0  0  0  0
  150.9343  142.5001  157.0270 N   0  0  0  0  0  0  0  0  0  0  0  0
  150.5863  142.2408  158.4213 C   0  0  0  0  0  0  0  0  0  0  0  0
  150.3598  143.5601  159.1794 C   0  0  0  0  0  0  0  0  0  0  0  0
  151.5746  144.4917  159.0375 C   0  0  0  0  0  0  0  0  0  0  0  0
  151.9143  144.7024  157.5529 C   0  0  0  0  0  0  0  0  0  0  0  0
  152.1035  143.3545  156.8361 C   0  0  0  0  0  0  0  0  0  0  0  0
  138.9161  141.9837  153.9057 H   0  0  0  0  0  0  0  0  0  0  0  0
  141.8759  144.4509  155.6308 H   0  0  0  0  0  0  0  0  0  0  0  0
  142.1613  142.9193  156.4583 H   0  0  0  0  0  0  0  0  0  0  0  0
  143.0544  142.8074  153.7184 H   0  0  0  0  0  0  0  0  0  0  0  0
  145.3100  142.1143  153.5379 H   0  0  0  0  0  0  0  0  0  0  0  0
  145.5888  143.8196  153.2626 H   0  0  0  0  0  0  0  0  0  0  0  0
  147.2471  143.7064  155.1354 H   0  0  0  0  0  0  0  0  0  0  0  0
  149.0148  142.9258  155.5170 H   0  0  0  0  0  0  0  0  0  0  0  0
  149.2154  139.6108  153.8254 H   0  0  0  0  0  0  0  0  0  0  0  0
  151.1396  138.0860  154.1426 H   0  0  0  0  0  0  0  0  0  0  0  0
  152.9345  138.7134  155.8576 H   0  0  0  0  0  0  0  0  0  0  0  0
  149.6867  141.6256  158.4697 H   0  0  0  0  0  0  0  0  0  0  0  0
  151.3881  141.6735  158.8961 H   0  0  0  0  0  0  0  0  0  0  0  0
  149.4715  144.0578  158.7879 H   0  0  0  0  0  0  0  0  0  0  0  0
  150.1629  143.3580  160.2325 H   0  0  0  0  0  0  0  0  0  0  0  0
  151.3741  145.4497  159.5181 H   0  0  0  0  0  0  0  0  0  0  0  0
  152.4327  144.0573  159.5520 H   0  0  0  0  0  0  0  0  0  0  0  0
  151.1116  145.2625  157.0712 H   0  0  0  0  0  0  0  0  0  0  0  0
  152.8161  145.3076  157.4565 H   0  0  0  0  0  0  0  0  0  0  0  0
  152.9905  142.8513  157.2234 H   0  0  0  0  0  0  0  0  0  0  0  0
  152.2684  143.5204  155.7706 H   0  0  0  0  0  0  0  0  0  0  0  0
  152.6986  140.6795  157.0469 H   0  0  0  0  0  0  0  0  0  0  0  0
  1  2  3  0  0  0  0
  1 24  1  0  0  0  0
  2  3  1  0  0  0  0
  3  4  1  0  0  0  0
  3 25  1  0  0  0  0
  3 26  1  0  0  0  0
  4  5  1  0  0  0  0
  4 27  1  0  0  0  0
  5  6  2  0  0  0  0
  5  7  1  0  0  0  0
  7  8  1  0  0  0  0
  7 28  1  0  0  0  0
  7 29  1  0  0  0  0
  8  9  1  0  0  0  0
  8 30  1  0  0  0  0
  9 10  2  0  0  0  0
  9 11  1  0  0  0  0
 11 12  1  0  0  0  0
 11 31  1  0  0  0  0
 12 17  1  0  0  0  0
 12 13  2  0  0  0  0
 13 14  1  0  0  0  0
 13 32  1  0  0  0  0
 14 15  2  0  0  0  0
 14 33  1  0  0  0  0
 15 16  1  0  0  0  0
 15 34  1  0  0  0  0
 16 17  2  0  0  0  0
 16 45  1  0  0  0  0
 17 18  1  0  0  0  0
 18 23  1  0  0  0  0
 18 19  1  0  0  0  0
 19 20  1  0  0  0  0
 19 35  1  0  0  0  0
 19 36  1  0  0  0  0
 20 21  1  0  0  0  0
 20 37  1  0  0  0  0
 20 38  1  0  0  0  0
 21 22  1  0  0  0  0
 21 39  1  0  0  0  0
 21 40  1  0  0  0  0
 22 23  1  0  0  0  0
 22 41  1  0  0  0  0
 22 42  1  0  0  0  0
 23 43  1  0  0  0  0
 23 44  1  0  0  0  0
M  CHG  1  16   1
M  END
> <s_m_source_file>
AV-unprocessed.smi

> <i_m_source_file_index>
1057

> <i_lp_mmshare_version>
43012

> <i_f3d_flags>
0

> <s_epik_input>
W0NIXSNDW0NIMl1bTkhdQyg9TylbQ0gyXVtOSF1DKD1PKVtOSF1jMVtjSF1bY0hdW2NIXW5jMU4yW0NIMl1bQ0gyXVtDSDJdW0NIMl1bQ0gyXTI=

> <s_epik_cmdline>
J2VwaWtfcHl0aG9uJywgJy1waCcsICc3LjAnLCAnLXRuJywgJzgnLCAnLW1hJywgJzIwMCcsICctbWV0YWxfYmluZGluZycsICctaW1hZScsICc8aW5maWxlLm1hZT4nLCAnLW9tYWUnLCAnPG91dGZpbGUubWFlPic=

> <r_lp_tautomer_probability>
0.999994

> <r_epik_Ionization_Penalty>
0.641093

> <r_epik_Ionization_Penalty_Charging>
0.641074

> <r_epik_Ionization_Penalty_Neutral>
1.89753e-05

> <r_epik_State_Penalty>
0.658761

> <r_epik_Charging_Adjusted_Penalty>
1.29984

> <i_epik_Tot_Q>
1

> <i_epik_Tot_abs_Q>
1

> <r_epik_Metal_State_Penalty>
0.833895

> <b_epik_Metal_Only>
0

> <s_lp_Force_Field>
OPLS_2005

> <r_lp_Energy>
23.0781

> <b_lp_Chiralities_Consistent>
1

> <s_lp_Variant>
AV-unprocessed.smi:1057-2

> <Gold.Version>
5.8.1

> <Gold.Id.Protein>
6NUR|6NUR_protein|mol2

> <Gold.PLP.Fitness>
45.4160

> <Gold.PLP.PLP>
-39.0266

> <Gold.PLP.part.hbond>
-3.0000

> <Gold.PLP.part.metal>
0.0000

> <Gold.PLP.part.buried>
-5.6436

> <Gold.PLP.part.nonpolar>
-30.5801

> <Gold.PLP.part.repulsive>
0.8444

> <Gold.PLP.ligand.clash>
0.0000

> <Gold.PLP.ligand.torsion>
0.5010

> <Gold.PLP.Chemscore.Hbond>
2.3904

> <Gold.PLP.Chemscore.CHOScore>
0.0000

> <Gold.PLP.Chemscore.Metal>
0.0000

> <Gold.Chemscore.Hbonds>
donor molecule, donor type, donor heavy atom, donor atom, acceptor molecule, acceptor atom, score
      L1  H     4    27       P1 10174  1.00
      L1  H     8    30       P1  8028  0.28
      L1  H    11    31       P1  8028  1.00

> <Gold.PLP.Chemscore.Internal.Correction>
0.2201

> <Gold.Rescore>
     Score         DG    S(hbond)    S(metal)    S(lipo)     H(rot)  DE(clash)    DE(int)     intcor
     15.02     -18.53       1.94        0.00      95.89       1.82       1.78       1.73       ----

> <Gold.Chemscore.Fitness>
15.0192

> <Gold.Chemscore.DG>
-18.5305

> <Gold.Chemscore.ZeroCoef>
-5.4800

> <Gold.Chemscore.Hbond>
1.9402

> <Gold.Chemscore.Metal>
0.0000

> <Gold.Chemscore.Lipo>
95.8879

> <Gold.Chemscore.Internal_Hbond>
0.0000

> <Gold.Chemscore.DEClash>
1.7816

> <Gold.Chemscore.DEInternal>
1.7298

> <Gold.Chemscore.Rot>
1.8159

> <Gold.Chemscore.Internal.Correction>
   9.000000E+99

> <Gold.Chemscore.Hbonds>
donor molecule, donor type, donor heavy atom, donor atom, acceptor molecule, acceptor atom, score
      L1  H     4    27       P1 10174  0.60
      L1  H    11    31       P1  8028  0.99

> <Gold.Chemscore.Hbond.Weighted>
-6.4803

> <Gold.Chemscore.Metal.Weighted>
-0.0000

> <Gold.Chemscore.Lipo.Weighted>
-11.2189

> <Gold.Chemscore.Internal_Hbond.Weighted>
0.0000

> <Gold.Chemscore.DEClash.Weighted>
1.7816

> <Gold.Chemscore.DEInternal.Weighted>
1.7298

> <Gold.Chemscore.Rot.Weighted>
4.6486

> <Gold.Chemscore.Internal.Correction.Weighted>
   9.000000E+99

> <Gold.Protein.RotatedTorsions>
[ 6907 6896 6895 6894 ] final  -53.69 input  -60.11 | X-H torsion
[ 7974 7965 7964 7962 ] final   44.08 input  175.53 | X-H torsion
[ 8008 7997 7996 7995 ] final  160.67 input   59.86 | X-H torsion
[ 10167 10162 10161 10158 ] final  -34.33 input  -65.29 | X-H torsion
[ 10718 10713 10712 10709 ] final   92.62 input   66.30 | X-H torsion
[ 10763 10752 10751 10750 ] final  -62.43 input  -60.55 | X-H torsion
[ 11005 11000 10999 10996 ] final  128.07 input  -57.11 | X-H torsion

> <Gold.Protein.ActiveResidues>
 VAL166  LYS551  ARG553  GLY616  TRP617  ASP618  TYR619  PRO620  LYS621  CYS622 
 ASP623  PHE694  ASN695  SER759  ASP760  ASP761  ALA762  ILE779  LEU786  VAL792 
 PHE793  MET794  SER795  GLU796  ALA797  LYS798  CYS799  TRP800  GLU811  SER814 

> <Gold.Protein.RotatedAtoms>
  150.8404  134.7694  159.6927 H   0  0  0  0  0  0  0  0  0  0  0  0  # atno 6907 bound_to 6896
  152.4493  134.5425  159.9853 H   0  0  0  0  0  0  0  0  0  0  0  0  # atno 6908 bound_to 6896
  151.5566  133.3371  159.2999 H   0  0  0  0  0  0  0  0  0  0  0  0  # atno 6909 bound_to 6896
  146.0600  139.5115  142.9664 H   0  0  0  0  0  0  0  0  0  0  0  0  # atno 7974 bound_to 7965
  156.2156  140.1798  156.7596 H   0  0  0  0  0  0  0  0  0  0  0  0  # atno 8008 bound_to 7997
  154.5787  140.0670  156.9101 H   0  0  0  0  0  0  0  0  0  0  0  0  # atno 8009 bound_to 7997
  155.2542  140.3331  155.4282 H   0  0  0  0  0  0  0  0  0  0  0  0  # atno 8010 bound_to 7997
  140.7188  143.3556  151.2067 H   0  0  0  0  0  0  0  0  0  0  0  0  # atno 10167 bound_to 10162
  157.6958  131.0449  150.3910 H   0  0  0  0  0  0  0  0  0  0  0  0  # atno 10718 bound_to 10713
  154.2997  135.6237  153.5420 H   0  0  0  0  0  0  0  0  0  0  0  0  # atno 10763 bound_to 10752
  152.9842  135.5675  154.5297 H   0  0  0  0  0  0  0  0  0  0  0  0  # atno 10764 bound_to 10752
  154.4925  135.2868  155.1461 H   0  0  0  0  0  0  0  0  0  0  0  0  # atno 10765 bound_to 10752
  139.9541  134.9616  156.8947 H   0  0  0  0  0  0  0  0  0  0  0  0  # atno 11005 bound_to 11000
  145.6577  141.0248  143.1726 LP  0  0  0  0  0  0  0  0  0  0  0  0  # atno 17320 bound_to 7965
  144.7169  139.8164  143.7395 LP  0  0  0  0  0  0  0  0  0  0  0  0  # atno 17321 bound_to 7965
  139.7096  143.9398  152.2942 LP  0  0  0  0  0  0  0  0  0  0  0  0  # atno 17342 bound_to 10162
  139.9119  144.6851  150.8554 LP  0  0  0  0  0  0  0  0  0  0  0  0  # atno 17343 bound_to 10162
  156.4313  130.3972  149.6758 LP  0  0  0  0  0  0  0  0  0  0  0  0  # atno 17370 bound_to 10713
  156.3975  130.7658  151.2663 LP  0  0  0  0  0  0  0  0  0  0  0  0  # atno 17371 bound_to 10713
  140.5651  134.0498  155.7411 LP  0  0  0  0  0  0  0  0  0  0  0  0  # atno 17394 bound_to 11000
  141.1209  133.9463  157.2731 LP  0  0  0  0  0  0  0  0  0  0  0  0  # atno 17395 bound_to 11000

$$$$
