AV-unprocessed.smi:1130|AV-procd|sdf|4848|dock7
  -GOLD-   22720 3413D 1   1.00000     0.00000
 Structure written by MMmdl.
 36 37  0  0  0  0  0  0  0  0  1 V2000
  150.9761  142.8432  157.9313 C   0  0  0  0  0  0  0  0  0  0  0  0
  151.0228  141.7595  156.9087 C   0  0  0  0  0  0  0  0  0  0  0  0
  150.2906  141.8222  155.8033 N   0  0  0  0  0  0  0  0  0  0  0  0
  150.6222  140.6385  155.1283 O   0  0  0  0  0  0  0  0  0  0  0  0
  151.5057  139.9928  155.9270 C   0  0  0  0  0  0  0  0  0  0  0  0
  152.0953  138.7048  155.4589 C   0  0  0  0  0  0  0  0  0  0  0  0
  151.6657  138.3538  154.0258 C   0  0  0  0  0  0  0  0  0  0  0  0
  150.7115  137.2514  154.0023 N   0  0  0  0  0  0  0  0  0  0  0  0
  150.7504  136.1847  154.8125 C   0  0  0  0  0  0  0  0  0  0  0  0
  151.6116  136.0028  155.6732 O   0  0  0  0  0  0  0  0  0  0  0  0
  149.7388  135.3402  154.5708 N   0  0  0  0  0  0  0  0  0  0  0  0
  149.5037  134.0915  155.2868 C   0  0  0  0  0  0  0  0  0  0  0  0
  149.3759  132.8909  154.3332 C   0  0  2  0  0  0  0  0  0  0  0  0
  148.1655  132.9393  153.3962 C   0  0  0  0  0  0  0  0  0  0  0  0
  147.7935  131.4764  153.1943 C   0  0  0  0  0  0  0  0  0  0  0  0
  148.7215  130.7165  154.1438 C   0  0  0  0  0  0  0  0  0  0  0  0
  149.1613  131.6977  155.0694 O   0  0  0  0  0  0  0  0  0  0  0  0
  151.8052  140.6536  157.0428 N   0  0  0  0  0  0  0  0  0  0  0  0
  150.6820  143.7907  157.4783 H   0  0  0  0  0  0  0  0  0  0  0  0
  151.9553  142.9738  158.3927 H   0  0  0  0  0  0  0  0  0  0  0  0
  150.2558  142.5929  158.7103 H   0  0  0  0  0  0  0  0  0  0  0  0
  153.1819  138.7779  155.5190 H   0  0  0  0  0  0  0  0  0  0  0  0
  151.7961  137.9166  156.1509 H   0  0  0  0  0  0  0  0  0  0  0  0
  151.2410  139.2278  153.5286 H   0  0  0  0  0  0  0  0  0  0  0  0
  152.5364  138.0568  153.4405 H   0  0  0  0  0  0  0  0  0  0  0  0
  149.9635  137.3098  153.3266 H   0  0  0  0  0  0  0  0  0  0  0  0
  149.0818  135.5775  153.8419 H   0  0  0  0  0  0  0  0  0  0  0  0
  150.3041  133.9174  156.0076 H   0  0  0  0  0  0  0  0  0  0  0  0
  148.5871  134.2034  155.8667 H   0  0  0  0  0  0  0  0  0  0  0  0
  150.2902  132.7716  153.7485 H   0  0  0  0  0  0  0  0  0  0  0  0
  147.3345  133.4656  153.8679 H   0  0  0  0  0  0  0  0  0  0  0  0
  148.3945  133.4484  152.4597 H   0  0  0  0  0  0  0  0  0  0  0  0
  146.7483  131.3141  153.4592 H   0  0  0  0  0  0  0  0  0  0  0  0
  147.9321  131.1529  152.1622 H   0  0  0  0  0  0  0  0  0  0  0  0
  148.2232  129.8872  154.6465 H   0  0  0  0  0  0  0  0  0  0  0  0
  149.5836  130.3202  153.6050 H   0  0  0  0  0  0  0  0  0  0  0  0
  1  2  1  0  0  0  0
  1 19  1  0  0  0  0
  1 20  1  0  0  0  0
  1 21  1  0  0  0  0
  2 18  1  0  0  0  0
  2  3  2  0  0  0  0
  3  4  1  0  0  0  0
  4  5  1  0  0  0  0
  5  6  1  0  0  0  0
  5 18  2  0  0  0  0
  6  7  1  0  0  0  0
  6 22  1  0  0  0  0
  6 23  1  0  0  0  0
  7  8  1  0  0  0  0
  7 24  1  0  0  0  0
  7 25  1  0  0  0  0
  8  9  1  0  0  0  0
  8 26  1  0  0  0  0
  9 10  2  0  0  0  0
  9 11  1  0  0  0  0
 11 12  1  0  0  0  0
 11 27  1  0  0  0  0
 12 13  1  0  0  0  0
 12 28  1  0  0  0  0
 12 29  1  0  0  0  0
 13 17  1  0  0  0  0
 13 14  1  0  0  0  0
 13 30  1  0  0  0  0
 14 15  1  0  0  0  0
 14 31  1  0  0  0  0
 14 32  1  0  0  0  0
 15 16  1  0  0  0  0
 15 33  1  0  0  0  0
 15 34  1  0  0  0  0
 16 17  1  0  0  0  0
 16 35  1  0  0  0  0
 16 36  1  0  0  0  0
M  END
> <s_m_source_file>
AV-unprocessed.smi

> <i_m_source_file_index>
1130

> <i_lp_mmshare_version>
43012

> <i_f3d_flags>
0

> <s_epik_input>
W0NIM11jMW5vYyhuMSlbQ0gyXVtDSDJdW05IXUMoPU8pW05IXVtDSDJdW0NAQEhdMltDSDJdW0NIMl1bQ0gyXU8y

> <s_epik_cmdline>
J2VwaWtfcHl0aG9uJywgJy1waCcsICc3LjAnLCAnLXRuJywgJzgnLCAnLW1hJywgJzIwMCcsICctbWV0YWxfYmluZGluZycsICctaW1hZScsICc8aW5maWxlLm1hZT4nLCAnLW9tYWUnLCAnPG91dGZpbGUubWFlPic=

> <r_lp_tautomer_probability>
1

> <r_epik_Ionization_Penalty>
4.67036e-05

> <r_epik_Ionization_Penalty_Charging>
0

> <r_epik_Ionization_Penalty_Neutral>
4.67036e-05

> <r_epik_State_Penalty>
-0

> <r_epik_Charging_Adjusted_Penalty>
0

> <i_epik_Tot_Q>
0

> <i_epik_Tot_abs_Q>
0

> <r_epik_Metal_State_Penalty>
-0

> <b_epik_Metal_Only>
0

> <s_lp_Force_Field>
OPLS_2005

> <r_lp_Energy>
8.95109

> <b_lp_Chiralities_Consistent>
1

> <s_lp_Variant>
AV-unprocessed.smi:1130-1

> <Gold.Version>
5.8.1

> <Gold.Id.Protein>
6NUR|6NUR_protein|mol2

> <Gold.PLP.Fitness>
41.1438

> <Gold.PLP.PLP>
-31.1988

> <Gold.PLP.part.hbond>
-5.0000

> <Gold.PLP.part.metal>
0.0000

> <Gold.PLP.part.buried>
-3.3564

> <Gold.PLP.part.nonpolar>
-23.2140

> <Gold.PLP.part.repulsive>
0.3687

> <Gold.PLP.ligand.clash>
0.0000

> <Gold.PLP.ligand.torsion>
0.5712

> <Gold.PLP.Chemscore.Hbond>
3.6880

> <Gold.PLP.Chemscore.CHOScore>
0.0000

> <Gold.PLP.Chemscore.Metal>
0.0000

> <Gold.Chemscore.Hbonds>
donor molecule, donor type, donor heavy atom, donor atom, acceptor molecule, acceptor atom, score
      L1  H     8    26       P1  7948  0.84
      L1  H    11    27       P1  7948  0.77
      P1  H  7989  7998       L1     4  0.93
      P1  H 10752 10763       L1    10  1.00

> <Gold.PLP.Chemscore.Internal.Correction>
0.0234

> <Gold.Rescore>
     Score         DG    S(hbond)    S(metal)    S(lipo)     H(rot)  DE(clash)    DE(int)     intcor
     11.08     -14.10       2.55        0.00      51.96       2.33       1.06       1.96       ----

> <Gold.Chemscore.Fitness>
11.0822

> <Gold.Chemscore.DG>
-14.1033

> <Gold.Chemscore.ZeroCoef>
-5.4800

> <Gold.Chemscore.Hbond>
2.5467

> <Gold.Chemscore.Metal>
0.0000

> <Gold.Chemscore.Lipo>
51.9584

> <Gold.Chemscore.Internal_Hbond>
0.0000

> <Gold.Chemscore.DEClash>
1.0637

> <Gold.Chemscore.DEInternal>
1.9574

> <Gold.Chemscore.Rot>
2.3288

> <Gold.Chemscore.Internal.Correction>
   9.000000E+99

> <Gold.Chemscore.Hbonds>
donor molecule, donor type, donor heavy atom, donor atom, acceptor molecule, acceptor atom, score
      L1  H     8    26       P1  7948  0.27
      L1  H    11    27       P1  7948  0.58
      P1  H  7989  7998       L1     4  0.32
      P1  H 10752 10763       L1    10  0.30

> <Gold.Chemscore.Hbond.Weighted>
-8.5059

> <Gold.Chemscore.Metal.Weighted>
-0.0000

> <Gold.Chemscore.Lipo.Weighted>
-6.0791

> <Gold.Chemscore.Internal_Hbond.Weighted>
0.0000

> <Gold.Chemscore.DEClash.Weighted>
1.0637

> <Gold.Chemscore.DEInternal.Weighted>
1.9574

> <Gold.Chemscore.Rot.Weighted>
5.9617

> <Gold.Chemscore.Internal.Correction.Weighted>
   9.000000E+99

> <Gold.Protein.RotatedTorsions>
[ 6907 6896 6895 6894 ] final   84.30 input  -60.11 | X-H torsion
[ 7974 7965 7964 7962 ] final -107.66 input  175.53 | X-H torsion
[ 8008 7997 7996 7995 ] final  147.24 input   59.86 | X-H torsion
[ 10167 10162 10161 10158 ] final  -24.35 input  -65.29 | X-H torsion
[ 10718 10713 10712 10709 ] final  -27.23 input   66.30 | X-H torsion
[ 10763 10752 10751 10750 ] final   65.67 input  -60.55 | X-H torsion
[ 11005 11000 10999 10996 ] final  -71.94 input  -57.11 | X-H torsion

> <Gold.Protein.ActiveResidues>
 VAL166  LYS551  ARG553  GLY616  TRP617  ASP618  TYR619  PRO620  LYS621  CYS622 
 ASP623  PHE694  ASN695  SER759  ASP760  ASP761  ALA762  ILE779  LEU786  VAL792 
 PHE793  MET794  SER795  GLU796  ALA797  LYS798  CYS799  TRP800  GLU811  SER814 

> <Gold.Protein.RotatedAtoms>
  152.5349  134.2762  159.8990 H   0  0  0  0  0  0  0  0  0  0  0  0  # atno 6907 bound_to 6896
  151.2718  133.4245  159.2629 H   0  0  0  0  0  0  0  0  0  0  0  0  # atno 6908 bound_to 6896
  151.0361  134.9589  159.8193 H   0  0  0  0  0  0  0  0  0  0  0  0  # atno 6909 bound_to 6896
  145.2025  140.9062  143.3361 H   0  0  0  0  0  0  0  0  0  0  0  0  # atno 7974 bound_to 7965
  156.2831  140.2161  156.5507 H   0  0  0  0  0  0  0  0  0  0  0  0  # atno 8008 bound_to 7997
  154.7294  140.0497  157.0735 H   0  0  0  0  0  0  0  0  0  0  0  0  # atno 8009 bound_to 7997
  155.0374  140.3142  155.4740 H   0  0  0  0  0  0  0  0  0  0  0  0  # atno 8010 bound_to 7997
  140.7288  143.4361  151.0727 H   0  0  0  0  0  0  0  0  0  0  0  0  # atno 10167 bound_to 10162
  156.4409  130.4464  149.7053 H   0  0  0  0  0  0  0  0  0  0  0  0  # atno 10718 bound_to 10713
  153.0106  135.5348  154.6703 H   0  0  0  0  0  0  0  0  0  0  0  0  # atno 10763 bound_to 10752
  154.5889  135.2857  155.0658 H   0  0  0  0  0  0  0  0  0  0  0  0  # atno 10764 bound_to 10752
  154.1758  135.6524  153.5074 H   0  0  0  0  0  0  0  0  0  0  0  0  # atno 10765 bound_to 10752
  141.1600  133.6832  156.6982 H   0  0  0  0  0  0  0  0  0  0  0  0  # atno 11005 bound_to 11000
  144.9934  139.3668  143.6203 LP  0  0  0  0  0  0  0  0  0  0  0  0  # atno 17320 bound_to 7965
  146.3414  139.9126  142.8778 LP  0  0  0  0  0  0  0  0  0  0  0  0  # atno 17321 bound_to 7965
  139.8023  143.8066  152.3164 LP  0  0  0  0  0  0  0  0  0  0  0  0  # atno 17342 bound_to 10162
  139.8087  144.7345  150.9726 LP  0  0  0  0  0  0  0  0  0  0  0  0  # atno 17343 bound_to 10162
  156.3919  130.7631  151.2633 LP  0  0  0  0  0  0  0  0  0  0  0  0  # atno 17370 bound_to 10713
  157.7506  131.0265  150.3966 LP  0  0  0  0  0  0  0  0  0  0  0  0  # atno 17371 bound_to 10713
  140.2979  134.8188  157.4072 LP  0  0  0  0  0  0  0  0  0  0  0  0  # atno 17394 bound_to 11000
  140.1288  134.5122  155.8122 LP  0  0  0  0  0  0  0  0  0  0  0  0  # atno 17395 bound_to 11000

$$$$
