AV-unprocessed.smi:999|AV-procd|sdf|4351|dock10
  -GOLD-   22720 2253D 1   1.00000     0.00000
 Structure written by MMmdl.
 37 38  0  0  0  0  0  0  0  0  2 V2000
  146.4075  138.1264  151.4255 C   0  0  0  0  0  0  0  0  0  0  0  0
  145.4362  137.2861  152.2800 C   0  0  2  0  0  0  0  0  0  0  0  0
  145.8924  137.1477  153.7416 C   0  0  0  0  0  0  0  0  0  0  0  0
  145.1359  137.4400  154.6686 O   0  0  0  0  0  0  0  0  0  0  0  0
  147.1418  136.6937  153.9293 N   0  0  0  0  0  0  0  0  0  0  0  0
  147.7899  136.5018  155.2225 C   0  0  2  0  0  0  0  0  0  0  0  0
  146.9846  135.4869  156.0525 C   0  0  0  0  0  0  0  0  0  0  0  0
  147.5982  135.2845  157.4470 C   0  0  0  0  0  0  0  0  0  0  0  0
  147.7309  136.6238  158.2108 C   0  0  1  0  0  0  0  0  0  0  0  0
  148.3662  136.4379  159.6048 C   0  0  0  0  0  0  0  0  0  0  0  0
  149.5470  136.0286  159.6690 O   0  0  0  0  0  0  0  0  0  0  0  0
  147.6482  136.6851  160.5990 O   0  5  0  0  0  0  0  0  0  0  0  0
  148.5270  137.6498  157.3713 C   0  0  0  0  0  0  0  0  0  0  0  0
  147.9122  137.8409  155.9755 C   0  0  0  0  0  0  0  0  0  0  0  0
  145.1854  135.9714  151.7000 N   0  0  0  0  0  0  0  0  0  0  0  0
  146.0972  134.9630  151.4605 C   0  0  0  0  0  0  0  0  0  0  0  0
  145.4244  133.9308  150.8722 C   0  0  0  0  0  0  0  0  0  0  0  0
  144.0884  134.4091  150.7779 C   0  0  0  0  0  0  0  0  0  0  0  0
  143.9497  135.6312  151.2644 N   0  0  0  0  0  0  0  0  0  0  0  0
  146.5321  139.1265  151.8419 H   0  0  0  0  0  0  0  0  0  0  0  0
  146.0294  138.2416  150.4095 H   0  0  0  0  0  0  0  0  0  0  0  0
  147.3968  137.6715  151.3599 H   0  0  0  0  0  0  0  0  0  0  0  0
  144.4826  137.8166  152.2917 H   0  0  0  0  0  0  0  0  0  0  0  0
  147.6922  136.4753  153.1117 H   0  0  0  0  0  0  0  0  0  0  0  0
  148.7896  136.0928  155.0624 H   0  0  0  0  0  0  0  0  0  0  0  0
  145.9542  135.8294  156.1589 H   0  0  0  0  0  0  0  0  0  0  0  0
  146.9399  134.5298  155.5313 H   0  0  0  0  0  0  0  0  0  0  0  0
  146.9769  134.5851  158.0085 H   0  0  0  0  0  0  0  0  0  0  0  0
  148.5782  134.8157  157.3430 H   0  0  0  0  0  0  0  0  0  0  0  0
  146.7289  137.0217  158.3774 H   0  0  0  0  0  0  0  0  0  0  0  0
  148.5615  138.6165  157.8754 H   0  0  0  0  0  0  0  0  0  0  0  0
  149.5615  137.3189  157.2669 H   0  0  0  0  0  0  0  0  0  0  0  0
  148.5227  138.5410  155.4041 H   0  0  0  0  0  0  0  0  0  0  0  0
  146.9276  138.3003  156.0751 H   0  0  0  0  0  0  0  0  0  0  0  0
  147.1392  135.0630  151.7263 H   0  0  0  0  0  0  0  0  0  0  0  0
  145.8263  132.9805  150.5534 H   0  0  0  0  0  0  0  0  0  0  0  0
  143.2219  133.9100  150.3698 H   0  0  0  0  0  0  0  0  0  0  0  0
  1  2  1  0  0  0  0
  1 20  1  0  0  0  0
  1 21  1  0  0  0  0
  1 22  1  0  0  0  0
  2  3  1  0  0  0  0
  2 15  1  0  0  0  0
  2 23  1  0  0  0  0
  3  4  2  0  0  0  0
  3  5  1  0  0  0  0
  5  6  1  0  0  0  0
  5 24  1  0  0  0  0
  6 14  1  0  0  0  0
  6  7  1  0  0  0  0
  6 25  1  0  0  0  0
  7  8  1  0  0  0  0
  7 26  1  0  0  0  0
  7 27  1  0  0  0  0
  8  9  1  0  0  0  0
  8 28  1  0  0  0  0
  8 29  1  0  0  0  0
  9 10  1  0  0  0  0
  9 13  1  0  0  0  0
  9 30  1  0  0  0  0
 10 11  2  0  0  0  0
 10 12  1  0  0  0  0
 13 14  1  0  0  0  0
 13 31  1  0  0  0  0
 13 32  1  0  0  0  0
 14 33  1  0  0  0  0
 14 34  1  0  0  0  0
 15 19  1  0  0  0  0
 15 16  1  0  0  0  0
 16 17  2  0  0  0  0
 16 35  1  0  0  0  0
 17 18  1  0  0  0  0
 17 36  1  0  0  0  0
 18 19  2  0  0  0  0
 18 37  1  0  0  0  0
M  CHG  1  12  -1
M  END
> <s_m_source_file>
AV-unprocessed.smi

> <i_m_source_file_index>
999

> <i_lp_mmshare_version>
43012

> <i_f3d_flags>
0

> <s_epik_input>
bjFbY0hdW2NIXVtjSF1uMVtDQEhdKFtDSDNdKUMoPU8pW05IXVtDQEBIXTJbQ0gyXVtDSDJdW0NAQEhdKEMoPU8pW09IXSlbQ0gyXVtDSDJdMg==

> <s_epik_cmdline>
J2VwaWtfcHl0aG9uJywgJy1waCcsICc3LjAnLCAnLXRuJywgJzgnLCAnLW1hJywgJzIwMCcsICctbWV0YWxfYmluZGluZycsICctaW1hZScsICc8aW5maWxlLm1hZT4nLCAnLW9tYWUnLCAnPG91dGZpbGUubWFlPic=

> <r_lp_tautomer_probability>
1

> <r_epik_Ionization_Penalty>
0.00221712

> <r_epik_Ionization_Penalty_Charging>
0.00217268

> <r_epik_Ionization_Penalty_Neutral>
4.44343e-05

> <r_epik_State_Penalty>
0.0014925

> <r_epik_Charging_Adjusted_Penalty>
0.00366518

> <i_epik_Tot_Q>
-1

> <i_epik_Tot_abs_Q>
1

> <r_epik_Metal_State_Penalty>
-0

> <b_epik_Metal_Only>
0

> <s_lp_Force_Field>
OPLS_2005

> <r_lp_Energy>
14.6475

> <b_lp_Chiralities_Consistent>
1

> <s_lp_Variant>
AV-unprocessed.smi:999-1

> <Gold.Version>
5.8.1

> <Gold.Id.Protein>
6NUR|6NUR_protein|mol2

> <Gold.PLP.Fitness>
43.8278

> <Gold.PLP.PLP>
-19.7171

> <Gold.PLP.part.hbond>
-4.0000

> <Gold.PLP.part.metal>
0.0000

> <Gold.PLP.part.buried>
0.8860

> <Gold.PLP.part.nonpolar>
-16.9860

> <Gold.PLP.part.repulsive>
0.2615

> <Gold.PLP.ligand.clash>
0.0000

> <Gold.PLP.ligand.torsion>
0.2587

> <Gold.PLP.Chemscore.Hbond>
6.1680

> <Gold.PLP.Chemscore.CHOScore>
2.0000

> <Gold.PLP.Chemscore.Metal>
0.0000

> <Gold.Chemscore.Hbonds>
donor molecule, donor type, donor heavy atom, donor atom, acceptor molecule, acceptor atom, score
      L1  H     5    24       P1  7948  1.00
      P1  H  6896  6908       L1    11  2.00
      P1  H  6934  6947       L1    12  0.13
      L1  C    16    35       P1  7948  1.00
      L1  C    18    37       P1 10186  1.00

> <Gold.PLP.Chemscore.Internal.Correction>
0.1241

> <Gold.Rescore>
     Score         DG    S(hbond)    S(metal)    S(lipo)     H(rot)  DE(clash)    DE(int)     intcor
     14.68     -16.29       3.42        0.00      37.90       1.98       0.37       1.23       ----

> <Gold.Chemscore.Fitness>
14.6834

> <Gold.Chemscore.DG>
-16.2879

> <Gold.Chemscore.ZeroCoef>
-5.4800

> <Gold.Chemscore.Hbond>
3.4237

> <Gold.Chemscore.Metal>
0.0000

> <Gold.Chemscore.Lipo>
37.9044

> <Gold.Chemscore.Internal_Hbond>
0.0000

> <Gold.Chemscore.DEClash>
0.3708

> <Gold.Chemscore.DEInternal>
1.2337

> <Gold.Chemscore.Rot>
1.9774

> <Gold.Chemscore.Internal.Correction>
   9.000000E+99

> <Gold.Chemscore.Hbonds>
donor molecule, donor type, donor heavy atom, donor atom, acceptor molecule, acceptor atom, score
      L1  H     5    24       P1  7948  1.00
      P1  H  6896  6908       L1    11  1.00
      P1  H  6931  6943       L1    12  0.01
      P1  H  6934  6947       L1    12  0.09

> <Gold.Chemscore.Hbond.Weighted>
-11.4352

> <Gold.Chemscore.Metal.Weighted>
-0.0000

> <Gold.Chemscore.Lipo.Weighted>
-4.4348

> <Gold.Chemscore.Internal_Hbond.Weighted>
0.0000

> <Gold.Chemscore.DEClash.Weighted>
0.3708

> <Gold.Chemscore.DEInternal.Weighted>
1.2337

> <Gold.Chemscore.Rot.Weighted>
5.0620

> <Gold.Chemscore.Internal.Correction.Weighted>
   9.000000E+99

> <Gold.Protein.RotatedTorsions>
[ 6907 6896 6895 6894 ] final -174.89 input  -60.11 | X-H torsion
[ 7974 7965 7964 7962 ] final  151.62 input  175.53 | X-H torsion
[ 8008 7997 7996 7995 ] final  -72.21 input   59.86 | X-H torsion
[ 10167 10162 10161 10158 ] final   67.39 input  -65.29 | X-H torsion
[ 10718 10713 10712 10709 ] final -167.20 input   66.30 | X-H torsion
[ 10763 10752 10751 10750 ] final  -90.25 input  -60.55 | X-H torsion
[ 11005 11000 10999 10996 ] final  152.28 input  -57.11 | X-H torsion

> <Gold.Protein.ActiveResidues>
 VAL166  LYS551  ARG553  GLY616  TRP617  ASP618  TYR619  PRO620  LYS621  CYS622 
 ASP623  PHE694  ASN695  SER759  ASP760  ASP761  ALA762  ILE779  LEU786  VAL792 
 PHE793  MET794  SER795  GLU796  ALA797  LYS798  CYS799  TRP800  GLU811  SER814 

> <Gold.Protein.RotatedAtoms>
  151.5797  133.3379  159.3005 H   0  0  0  0  0  0  0  0  0  0  0  0  # atno 6907 bound_to 6896
  150.8320  134.7581  159.6873 H   0  0  0  0  0  0  0  0  0  0  0  0  # atno 6908 bound_to 6896
  152.4402  134.5612  159.9946 H   0  0  0  0  0  0  0  0  0  0  0  0  # atno 6909 bound_to 6896
  144.8279  139.6562  143.6072 H   0  0  0  0  0  0  0  0  0  0  0  0  # atno 7974 bound_to 7965
  154.5148  140.0801  156.8060 H   0  0  0  0  0  0  0  0  0  0  0  0  # atno 8008 bound_to 7997
  155.3704  140.3422  155.4225 H   0  0  0  0  0  0  0  0  0  0  0  0  # atno 8009 bound_to 7997
  156.1615  140.1590  156.8591 H   0  0  0  0  0  0  0  0  0  0  0  0  # atno 8010 bound_to 7997
  140.0900  144.4996  150.7105 H   0  0  0  0  0  0  0  0  0  0  0  0  # atno 10167 bound_to 10162
  156.6789  130.9114  151.3054 H   0  0  0  0  0  0  0  0  0  0  0  0  # atno 10718 bound_to 10713
  154.6638  135.5311  153.8051 H   0  0  0  0  0  0  0  0  0  0  0  0  # atno 10763 bound_to 10752
  153.0458  135.6512  154.0831 H   0  0  0  0  0  0  0  0  0  0  0  0  # atno 10764 bound_to 10752
  154.0737  135.2952  155.3283 H   0  0  0  0  0  0  0  0  0  0  0  0  # atno 10765 bound_to 10752
  140.1294  134.8812  157.2182 H   0  0  0  0  0  0  0  0  0  0  0  0  # atno 11005 bound_to 11000
  146.2584  139.6353  142.9379 LP  0  0  0  0  0  0  0  0  0  0  0  0  # atno 17320 bound_to 7965
  145.4959  141.0438  143.2567 LP  0  0  0  0  0  0  0  0  0  0  0  0  # atno 17321 bound_to 7965
  140.7033  143.2450  151.4800 LP  0  0  0  0  0  0  0  0  0  0  0  0  # atno 17342 bound_to 10162
  139.5730  144.1884  152.1863 LP  0  0  0  0  0  0  0  0  0  0  0  0  # atno 17343 bound_to 10162
  157.7050  130.9375  150.0904 LP  0  0  0  0  0  0  0  0  0  0  0  0  # atno 17370 bound_to 10713
  156.1882  130.3653  149.8945 LP  0  0  0  0  0  0  0  0  0  0  0  0  # atno 17371 bound_to 10713
  140.2862  134.3293  155.7328 LP  0  0  0  0  0  0  0  0  0  0  0  0  # atno 17394 bound_to 11000
  141.2167  133.7507  156.9436 LP  0  0  0  0  0  0  0  0  0  0  0  0  # atno 17395 bound_to 11000

$$$$
