AV-unprocessed.smi:2250|AV-procd|sdf|9100|dock6
  -GOLD-   2272012303D 1   1.00000     0.00000
 Structure written by MMmdl.
 43 44  0  0  0  0  0  0  0  0  1 V2000
  151.0524  142.3995  156.5755 C   0  0  0  0  0  0  0  0  0  0  0  0
  150.3598  141.3952  155.6786 C   0  0  0  0  0  0  0  0  0  0  0  0
  149.1642  141.7181  155.0094 C   0  0  0  0  0  0  0  0  0  0  0  0
  148.5637  140.7463  154.1862 C   0  0  0  0  0  0  0  0  0  0  0  0
  149.1696  139.4767  154.0524 C   0  0  0  0  0  0  0  0  0  0  0  0
  148.4842  138.5716  153.1994 N   0  0  0  0  0  0  0  0  0  0  0  0
  147.1587  138.3768  153.0846 C   0  0  0  0  0  0  0  0  0  0  0  0
  146.2916  138.9904  153.7076 O   0  0  0  0  0  0  0  0  0  0  0  0
  146.8894  137.4175  152.1885 N   0  0  0  0  0  0  0  0  0  0  0  0
  145.5552  136.9563  151.8244 C   0  0  0  0  0  0  0  0  0  0  0  0
  145.0645  135.9030  152.8344 C   0  0  0  0  0  0  0  0  0  0  0  0
  145.9482  134.6450  152.9057 C   0  0  0  0  0  0  0  0  0  0  0  0
  146.6370  134.4558  153.9097 O   0  0  0  0  0  0  0  0  0  0  0  0
  145.9482  133.7839  151.8585 N   0  0  0  0  0  0  0  0  0  0  0  0
  146.6984  132.5221  151.7903 C   0  0  0  0  0  0  0  0  0  0  0  0
  145.7054  131.3516  151.9078 C   0  0  0  0  0  0  0  0  0  0  0  0
  144.6239  131.4394  150.8136 C   0  0  0  0  0  0  0  0  0  0  0  0
  143.9796  132.8381  150.7577 C   0  0  0  0  0  0  0  0  0  0  0  0
  145.0539  133.9404  150.7039 C   0  0  0  0  0  0  0  0  0  0  0  0
  150.3228  139.1756  154.6998 N   0  0  0  0  0  0  0  0  0  0  0  0
  150.8982  140.1079  155.4878 C   0  0  0  0  0  0  0  0  0  0  0  0
  150.4083  143.2548  156.7819 H   0  0  0  0  0  0  0  0  0  0  0  0
  151.9636  142.7630  156.1002 H   0  0  0  0  0  0  0  0  0  0  0  0
  151.3204  141.9392  157.5268 H   0  0  0  0  0  0  0  0  0  0  0  0
  148.7113  142.6923  155.1221 H   0  0  0  0  0  0  0  0  0  0  0  0
  147.6457  140.9775  153.6657 H   0  0  0  0  0  0  0  0  0  0  0  0
  149.0729  138.0033  152.6085 H   0  0  0  0  0  0  0  0  0  0  0  0
  147.6658  136.9728  151.7211 H   0  0  0  0  0  0  0  0  0  0  0  0
  144.8540  137.7927  151.7932 H   0  0  0  0  0  0  0  0  0  0  0  0
  145.6011  136.5356  150.8189 H   0  0  0  0  0  0  0  0  0  0  0  0
  145.0165  136.3483  153.8291 H   0  0  0  0  0  0  0  0  0  0  0  0
  144.0511  135.6060  152.5605 H   0  0  0  0  0  0  0  0  0  0  0  0
  147.2222  132.4696  150.8347 H   0  0  0  0  0  0  0  0  0  0  0  0
  147.4760  132.4309  152.5468 H   0  0  0  0  0  0  0  0  0  0  0  0
  146.2336  130.4005  151.8350 H   0  0  0  0  0  0  0  0  0  0  0  0
  145.2343  131.3706  152.8916 H   0  0  0  0  0  0  0  0  0  0  0  0
  145.0785  131.2194  149.8468 H   0  0  0  0  0  0  0  0  0  0  0  0
  143.8608  130.6776  150.9751 H   0  0  0  0  0  0  0  0  0  0  0  0
  143.3213  132.9120  149.8917 H   0  0  0  0  0  0  0  0  0  0  0  0
  143.3515  132.9865  151.6373 H   0  0  0  0  0  0  0  0  0  0  0  0
  144.5777  134.9210  150.6651 H   0  0  0  0  0  0  0  0  0  0  0  0
  145.6330  133.8570  149.7832 H   0  0  0  0  0  0  0  0  0  0  0  0
  151.8149  139.8166  155.9795 H   0  0  0  0  0  0  0  0  0  0  0  0
  1  2  1  0  0  0  0
  1 22  1  0  0  0  0
  1 23  1  0  0  0  0
  1 24  1  0  0  0  0
  2 21  1  0  0  0  0
  2  3  2  0  0  0  0
  3  4  1  0  0  0  0
  3 25  1  0  0  0  0
  4  5  2  0  0  0  0
  4 26  1  0  0  0  0
  5  6  1  0  0  0  0
  5 20  1  0  0  0  0
  6  7  1  0  0  0  0
  6 27  1  0  0  0  0
  7  8  2  0  0  0  0
  7  9  1  0  0  0  0
  9 10  1  0  0  0  0
  9 28  1  0  0  0  0
 10 11  1  0  0  0  0
 10 29  1  0  0  0  0
 10 30  1  0  0  0  0
 11 12  1  0  0  0  0
 11 31  1  0  0  0  0
 11 32  1  0  0  0  0
 12 13  2  0  0  0  0
 12 14  1  0  0  0  0
 14 19  1  0  0  0  0
 14 15  1  0  0  0  0
 15 16  1  0  0  0  0
 15 33  1  0  0  0  0
 15 34  1  0  0  0  0
 16 17  1  0  0  0  0
 16 35  1  0  0  0  0
 16 36  1  0  0  0  0
 17 18  1  0  0  0  0
 17 37  1  0  0  0  0
 17 38  1  0  0  0  0
 18 19  1  0  0  0  0
 18 39  1  0  0  0  0
 18 40  1  0  0  0  0
 19 41  1  0  0  0  0
 19 42  1  0  0  0  0
 20 21  2  0  0  0  0
 21 43  1  0  0  0  0
M  END
> <s_m_source_file>
AV-unprocessed.smi

> <i_m_source_file_index>
2250

> <i_lp_mmshare_version>
43012

> <i_f3d_flags>
0

> <s_epik_input>
W0NIM11jMVtjSF1bY0hdYyhuW2NIXTEpW05IXUMoPU8pW05IXVtDSDJdW0NIMl1DKD1PKU4yW0NIMl1bQ0gyXVtDSDJdW0NIMl1bQ0gyXTI=

> <s_epik_cmdline>
J2VwaWtfcHl0aG9uJywgJy1waCcsICc3LjAnLCAnLXRuJywgJzgnLCAnLW1hJywgJzIwMCcsICctbWV0YWxfYmluZGluZycsICctaW1hZScsICc8aW5maWxlLm1hZT4nLCAnLW9tYWUnLCAnPG91dGZpbGUubWFlPic=

> <r_lp_tautomer_probability>
1

> <r_epik_Ionization_Penalty>
5.00358e-05

> <r_epik_Ionization_Penalty_Charging>
0

> <r_epik_Ionization_Penalty_Neutral>
5.00358e-05

> <r_epik_State_Penalty>
-0

> <r_epik_Charging_Adjusted_Penalty>
0

> <i_epik_Tot_Q>
0

> <i_epik_Tot_abs_Q>
0

> <r_epik_Metal_State_Penalty>
-0

> <b_epik_Metal_Only>
0

> <s_lp_Force_Field>
OPLS_2005

> <r_lp_Energy>
26.56

> <b_lp_Chiralities_Consistent>
1

> <s_lp_Variant>
AV-unprocessed.smi:2250-1

> <Gold.Version>
5.8.1

> <Gold.Id.Protein>
6NUR|6NUR_protein|mol2

> <Gold.PLP.Fitness>
41.5290

> <Gold.PLP.PLP>
-37.2319

> <Gold.PLP.part.hbond>
-2.8006

> <Gold.PLP.part.metal>
0.0000

> <Gold.PLP.part.buried>
-1.4973

> <Gold.PLP.part.nonpolar>
-34.0134

> <Gold.PLP.part.repulsive>
0.5185

> <Gold.PLP.ligand.clash>
0.0000

> <Gold.PLP.ligand.torsion>
0.5841

> <Gold.PLP.Chemscore.Hbond>
1.8160

> <Gold.PLP.Chemscore.CHOScore>
0.0000

> <Gold.PLP.Chemscore.Metal>
0.0000

> <Gold.Chemscore.Hbonds>
donor molecule, donor type, donor heavy atom, donor atom, acceptor molecule, acceptor atom, score
      L1  H     6    27       P1  7948  0.74
      L1  H     9    28       P1  7948  0.81

> <Gold.PLP.Chemscore.Internal.Correction>
0.0172

> <Gold.Rescore>
     Score         DG    S(hbond)    S(metal)    S(lipo)     H(rot)  DE(clash)    DE(int)     intcor
     14.53     -16.87       1.61        0.00      84.46       1.51       0.62       1.72       ----

> <Gold.Chemscore.Fitness>
14.5327

> <Gold.Chemscore.DG>
-16.8692

> <Gold.Chemscore.ZeroCoef>
-5.4800

> <Gold.Chemscore.Hbond>
1.6111

> <Gold.Chemscore.Metal>
0.0000

> <Gold.Chemscore.Lipo>
84.4592

> <Gold.Chemscore.Internal_Hbond>
0.0000

> <Gold.Chemscore.DEClash>
0.6197

> <Gold.Chemscore.DEInternal>
1.7167

> <Gold.Chemscore.Rot>
1.5131

> <Gold.Chemscore.Internal.Correction>
   9.000000E+99

> <Gold.Chemscore.Hbonds>
donor molecule, donor type, donor heavy atom, donor atom, acceptor molecule, acceptor atom, score
      L1  H     6    27       P1  7948  0.73
      L1  H     9    28       P1  7948  0.77

> <Gold.Chemscore.Hbond.Weighted>
-5.3809

> <Gold.Chemscore.Metal.Weighted>
-0.0000

> <Gold.Chemscore.Lipo.Weighted>
-9.8817

> <Gold.Chemscore.Internal_Hbond.Weighted>
0.0000

> <Gold.Chemscore.DEClash.Weighted>
0.6197

> <Gold.Chemscore.DEInternal.Weighted>
1.7167

> <Gold.Chemscore.Rot.Weighted>
3.8735

> <Gold.Chemscore.Internal.Correction.Weighted>
   9.000000E+99

> <Gold.Protein.RotatedTorsions>
[ 6907 6896 6895 6894 ] final    0.91 input  -60.11 | X-H torsion
[ 7974 7965 7964 7962 ] final   63.79 input  175.53 | X-H torsion
[ 8008 7997 7996 7995 ] final   95.16 input   59.86 | X-H torsion
[ 10167 10162 10161 10158 ] final  -22.12 input  -65.29 | X-H torsion
[ 10718 10713 10712 10709 ] final  168.40 input   66.30 | X-H torsion
[ 10763 10752 10751 10750 ] final  120.32 input  -60.55 | X-H torsion
[ 11005 11000 10999 10996 ] final -113.53 input  -57.11 | X-H torsion

> <Gold.Protein.ActiveResidues>
 VAL166  LYS551  ARG553  GLY616  TRP617  ASP618  TYR619  PRO620  LYS621  CYS622 
 ASP623  PHE694  ASN695  SER759  ASP760  ASP761  ALA762  ILE779  LEU786  VAL792 
 PHE793  MET794  SER795  GLU796  ALA797  LYS798  CYS799  TRP800  GLU811  SER814 

> <Gold.Protein.RotatedAtoms>
  151.5841  135.1057  160.0023 H   0  0  0  0  0  0  0  0  0  0  0  0  # atno 6907 bound_to 6896
  152.4339  133.7322  159.6604 H   0  0  0  0  0  0  0  0  0  0  0  0  # atno 6908 bound_to 6896
  150.8235  133.8142  159.3152 H   0  0  0  0  0  0  0  0  0  0  0  0  # atno 6909 bound_to 6896
  145.8577  139.3295  143.0837 H   0  0  0  0  0  0  0  0  0  0  0  0  # atno 7974 bound_to 7965
  156.0658  140.3290  155.7516 H   0  0  0  0  0  0  0  0  0  0  0  0  # atno 8008 bound_to 7997
  155.5383  140.0599  157.2892 H   0  0  0  0  0  0  0  0  0  0  0  0  # atno 8009 bound_to 7997
  154.4504  140.1915  156.0554 H   0  0  0  0  0  0  0  0  0  0  0  0  # atno 8010 bound_to 7997
  140.7285  143.4564  151.0442 H   0  0  0  0  0  0  0  0  0  0  0  0  # atno 10167 bound_to 10162
  157.0376  131.0277  151.2724 H   0  0  0  0  0  0  0  0  0  0  0  0  # atno 10718 bound_to 10713
  153.5967  135.3455  155.2930 H   0  0  0  0  0  0  0  0  0  0  0  0  # atno 10763 bound_to 10752
  154.8643  135.4217  154.2457 H   0  0  0  0  0  0  0  0  0  0  0  0  # atno 10764 bound_to 10752
  153.3277  135.7042  153.7046 H   0  0  0  0  0  0  0  0  0  0  0  0  # atno 10765 bound_to 10752
  141.0608  133.9538  157.2670 H   0  0  0  0  0  0  0  0  0  0  0  0  # atno 11005 bound_to 11000
  145.9284  140.9066  143.0369 LP  0  0  0  0  0  0  0  0  0  0  0  0  # atno 17320 bound_to 7965
  144.6727  140.1384  143.7439 LP  0  0  0  0  0  0  0  0  0  0  0  0  # atno 17321 bound_to 7965
  139.8244  143.7775  152.3178 LP  0  0  0  0  0  0  0  0  0  0  0  0  # atno 17342 bound_to 10162
  139.7869  144.7424  151.0009 LP  0  0  0  0  0  0  0  0  0  0  0  0  # atno 17343 bound_to 10162
  157.5129  130.7950  149.7725 LP  0  0  0  0  0  0  0  0  0  0  0  0  # atno 17370 bound_to 10713
  156.0049  130.3861  150.2469 LP  0  0  0  0  0  0  0  0  0  0  0  0  # atno 17371 bound_to 10713
  139.9431  135.0188  156.8770 LP  0  0  0  0  0  0  0  0  0  0  0  0  # atno 17394 bound_to 11000
  140.5872  134.0296  155.7486 LP  0  0  0  0  0  0  0  0  0  0  0  0  # atno 17395 bound_to 11000

$$$$
