AV-unprocessed.smi:653|AV-procd|sdf|3206|dock6
  -GOLD-   22720 0143D 1   1.00000     0.00000
 Structure written by MMmdl.
 44 45  0  0  0  0  0  0  0  0  1 V2000
  154.6366  140.5815  162.3440 C   0  0  0  0  0  0  0  0  0  0  0  0
  153.8119  141.4507  161.4174 C   0  0  0  0  0  0  0  0  0  0  0  0
  153.1093  142.5670  161.9170 C   0  0  0  0  0  0  0  0  0  0  0  0
  152.3551  143.3431  161.0163 C   0  0  0  0  0  0  0  0  0  0  0  0
  152.3296  142.9738  159.6554 C   0  0  0  0  0  0  0  0  0  0  0  0
  151.5315  143.7771  158.6436 C   0  0  0  0  0  0  0  0  0  0  0  0
  150.2873  143.0069  158.1937 C   0  0  0  0  0  0  0  0  0  0  0  0
  149.2790  142.9890  158.9003 O   0  0  0  0  0  0  0  0  0  0  0  0
  150.3727  142.3713  157.0153 N   0  0  0  0  0  0  0  0  0  0  0  0
  149.3045  141.5859  156.4062 C   0  0  0  0  0  0  0  0  0  0  0  0
  149.5664  141.2911  154.9074 C   0  0  2  0  0  0  0  0  0  0  0  0
  148.3597  141.6021  154.0319 C   0  0  0  0  0  0  0  0  0  0  0  0
  147.5508  140.3025  154.0609 C   0  0  0  0  0  0  0  0  0  0  0  0
  148.4255  139.3045  154.5799 O   0  0  0  0  0  0  0  0  0  0  0  0
  149.7573  139.8013  154.5752 C   0  0  2  0  0  0  0  0  0  0  0  0
  150.6779  138.9760  155.5033 C   0  0  0  0  0  0  0  0  0  0  0  0
  152.1345  139.4687  155.4467 C   0  0  0  0  0  0  0  0  0  0  0  0
  150.6178  137.4808  155.1514 C   0  0  0  0  0  0  0  0  0  0  0  0
  153.0663  141.8371  159.2590 C   0  0  0  0  0  0  0  0  0  0  0  0
  153.7927  141.0873  160.1156 N   0  0  0  0  0  0  0  0  0  0  0  0
  155.0291  141.1666  163.1763 H   0  0  0  0  0  0  0  0  0  0  0  0
  155.4816  140.1372  161.8169 H   0  0  0  0  0  0  0  0  0  0  0  0
  154.0229  139.7771  162.7498 H   0  0  0  0  0  0  0  0  0  0  0  0
  153.1467  142.8244  162.9653 H   0  0  0  0  0  0  0  0  0  0  0  0
  151.8077  144.2063  161.3652 H   0  0  0  0  0  0  0  0  0  0  0  0
  151.2522  144.7355  159.0841 H   0  0  0  0  0  0  0  0  0  0  0  0
  152.1476  143.9980  157.7711 H   0  0  0  0  0  0  0  0  0  0  0  0
  151.2390  142.4385  156.5009 H   0  0  0  0  0  0  0  0  0  0  0  0
  149.1893  140.6619  156.9732 H   0  0  0  0  0  0  0  0  0  0  0  0
  148.3705  142.1353  156.5267 H   0  0  0  0  0  0  0  0  0  0  0  0
  150.4340  141.8628  154.5755 H   0  0  0  0  0  0  0  0  0  0  0  0
  147.7818  142.4673  154.3574 H   0  0  0  0  0  0  0  0  0  0  0  0
  148.6926  141.8002  153.0122 H   0  0  0  0  0  0  0  0  0  0  0  0
  146.6815  140.3879  154.7135 H   0  0  0  0  0  0  0  0  0  0  0  0
  147.2021  140.0298  153.0646 H   0  0  0  0  0  0  0  0  0  0  0  0
  150.1303  139.7197  153.5520 H   0  0  0  0  0  0  0  0  0  0  0  0
  150.3250  139.0754  156.5299 H   0  0  0  0  0  0  0  0  0  0  0  0
  152.5423  139.3792  154.4394 H   0  0  0  0  0  0  0  0  0  0  0  0
  152.7709  138.8877  156.1147 H   0  0  0  0  0  0  0  0  0  0  0  0
  152.2216  140.5129  155.7469 H   0  0  0  0  0  0  0  0  0  0  0  0
  150.9482  137.3000  154.1281 H   0  0  0  0  0  0  0  0  0  0  0  0
  149.6041  137.0908  155.2471 H   0  0  0  0  0  0  0  0  0  0  0  0
  151.2551  136.8950  155.8143 H   0  0  0  0  0  0  0  0  0  0  0  0
  153.0740  141.5212  158.2259 H   0  0  0  0  0  0  0  0  0  0  0  0
  1  2  1  0  0  0  0
  1 21  1  0  0  0  0
  1 22  1  0  0  0  0
  1 23  1  0  0  0  0
  2 20  1  0  0  0  0
  2  3  2  0  0  0  0
  3  4  1  0  0  0  0
  3 24  1  0  0  0  0
  4  5  2  0  0  0  0
  4 25  1  0  0  0  0
  5  6  1  0  0  0  0
  5 19  1  0  0  0  0
  6  7  1  0  0  0  0
  6 26  1  0  0  0  0
  6 27  1  0  0  0  0
  7  8  2  0  0  0  0
  7  9  1  0  0  0  0
  9 10  1  0  0  0  0
  9 28  1  0  0  0  0
 10 11  1  0  0  0  0
 10 29  1  0  0  0  0
 10 30  1  0  0  0  0
 11 15  1  0  0  0  0
 11 12  1  0  0  0  0
 11 31  1  0  0  0  0
 12 13  1  0  0  0  0
 12 32  1  0  0  0  0
 12 33  1  0  0  0  0
 13 14  1  0  0  0  0
 13 34  1  0  0  0  0
 13 35  1  0  0  0  0
 14 15  1  0  0  0  0
 15 16  1  0  0  0  0
 15 36  1  0  0  0  0
 16 17  1  0  0  0  0
 16 18  1  0  0  0  0
 16 37  1  0  0  0  0
 17 38  1  0  0  0  0
 17 39  1  0  0  0  0
 17 40  1  0  0  0  0
 18 41  1  0  0  0  0
 18 42  1  0  0  0  0
 18 43  1  0  0  0  0
 19 20  2  0  0  0  0
 19 44  1  0  0  0  0
M  END
> <s_m_source_file>
AV-unprocessed.smi

> <i_m_source_file_index>
653

> <i_lp_mmshare_version>
43012

> <i_f3d_flags>
0

> <s_epik_input>
W0NIM11jMVtjSF1bY0hdYyhbY0hdbjEpW0NIMl1DKD1PKVtOSF1bQ0gyXVtDQEBIXTJbQ0gyXVtDSDJdT1tDQEhdMltDSF0oW0NIM10pW0NIM10=

> <s_epik_cmdline>
J2VwaWtfcHl0aG9uJywgJy1waCcsICc3LjAnLCAnLXRuJywgJzgnLCAnLW1hJywgJzIwMCcsICctbWV0YWxfYmluZGluZycsICctaW1hZScsICc8aW5maWxlLm1hZT4nLCAnLW9tYWUnLCAnPG91dGZpbGUubWFlPic=

> <r_epik_Ionization_Penalty>
0.0166429

> <r_epik_Ionization_Penalty_Charging>
0

> <r_epik_Ionization_Penalty_Neutral>
0.0166429

> <r_epik_State_Penalty>
0.0131478

> <r_epik_Charging_Adjusted_Penalty>
0.0131478

> <i_epik_Tot_Q>
0

> <i_epik_Tot_abs_Q>
0

> <r_epik_Metal_State_Penalty>
0.012786

> <b_epik_Metal_Only>
0

> <s_lp_Force_Field>
OPLS_2005

> <r_lp_Energy>
20.8525

> <b_lp_Chiralities_Consistent>
1

> <s_lp_Variant>
AV-unprocessed.smi:653-3

> <Gold.Version>
5.8.1

> <Gold.Id.Protein>
6NUR|6NUR_protein|mol2

> <Gold.PLP.Fitness>
43.9195

> <Gold.PLP.PLP>
-46.3704

> <Gold.PLP.part.hbond>
-1.8408

> <Gold.PLP.part.metal>
0.0000

> <Gold.PLP.part.buried>
-2.1712

> <Gold.PLP.part.nonpolar>
-42.0094

> <Gold.PLP.part.repulsive>
0.2649

> <Gold.PLP.ligand.clash>
0.0000

> <Gold.PLP.ligand.torsion>
1.2509

> <Gold.PLP.Chemscore.Hbond>
0.0000

> <Gold.PLP.Chemscore.CHOScore>
0.0000

> <Gold.PLP.Chemscore.Metal>
0.0000

> <Gold.PLP.Chemscore.Internal.Correction>
0.0508

> <Gold.Rescore>
     Score         DG    S(hbond)    S(metal)    S(lipo)     H(rot)  DE(clash)    DE(int)     intcor
     16.04     -17.33       0.00        0.00     133.77       1.48       0.12       1.18       ----

> <Gold.Chemscore.Fitness>
16.0359

> <Gold.Chemscore.DG>
-17.3290

> <Gold.Chemscore.ZeroCoef>
-5.4800

> <Gold.Chemscore.Hbond>
0.0000

> <Gold.Chemscore.Metal>
0.0000

> <Gold.Chemscore.Lipo>
133.7651

> <Gold.Chemscore.Internal_Hbond>
0.0000

> <Gold.Chemscore.DEClash>
0.1162

> <Gold.Chemscore.DEInternal>
1.1769

> <Gold.Chemscore.Rot>
1.4850

> <Gold.Chemscore.Internal.Correction>
   9.000000E+99

> <Gold.Chemscore.Hbond.Weighted>
-0.0000

> <Gold.Chemscore.Metal.Weighted>
-0.0000

> <Gold.Chemscore.Lipo.Weighted>
-15.6505

> <Gold.Chemscore.Internal_Hbond.Weighted>
0.0000

> <Gold.Chemscore.DEClash.Weighted>
0.1162

> <Gold.Chemscore.DEInternal.Weighted>
1.1769

> <Gold.Chemscore.Rot.Weighted>
3.8015

> <Gold.Chemscore.Internal.Correction.Weighted>
   9.000000E+99

> <Gold.Protein.RotatedTorsions>
[ 6907 6896 6895 6894 ] final -114.14 input  -60.11 | X-H torsion
[ 7974 7965 7964 7962 ] final   55.18 input  175.53 | X-H torsion
[ 8008 7997 7996 7995 ] final  162.84 input   59.86 | X-H torsion
[ 10167 10162 10161 10158 ] final -156.27 input  -65.29 | X-H torsion
[ 10718 10713 10712 10709 ] final   -5.40 input   66.30 | X-H torsion
[ 10763 10752 10751 10750 ] final   72.45 input  -60.55 | X-H torsion
[ 11005 11000 10999 10996 ] final  133.13 input  -57.11 | X-H torsion

> <Gold.Protein.ActiveResidues>
 VAL166  LYS551  ARG553  GLY616  TRP617  ASP618  TYR619  PRO620  LYS621  CYS622 
 ASP623  PHE694  ASN695  SER759  ASP760  ASP761  ALA762  ILE779  LEU786  VAL792 
 PHE793  MET794  SER795  GLU796  ALA797  LYS798  CYS799  TRP800  GLU811  SER814 

> <Gold.Protein.RotatedAtoms>
  150.7880  133.8844  159.3294 H   0  0  0  0  0  0  0  0  0  0  0  0  # atno 6907 bound_to 6896
  151.6689  135.0977  160.0203 H   0  0  0  0  0  0  0  0  0  0  0  0  # atno 6908 bound_to 6896
  152.3948  133.6693  159.6303 H   0  0  0  0  0  0  0  0  0  0  0  0  # atno 6909 bound_to 6896
  145.9531  139.3990  143.0294 H   0  0  0  0  0  0  0  0  0  0  0  0  # atno 7974 bound_to 7965
  156.2001  140.1739  156.7917 H   0  0  0  0  0  0  0  0  0  0  0  0  # atno 8008 bound_to 7997
  154.5581  140.0705  156.8806 H   0  0  0  0  0  0  0  0  0  0  0  0  # atno 8009 bound_to 7997
  155.2901  140.3355  155.4255 H   0  0  0  0  0  0  0  0  0  0  0  0  # atno 8010 bound_to 7997
  139.6864  143.9495  152.2363 H   0  0  0  0  0  0  0  0  0  0  0  0  # atno 10167 bound_to 10162
  156.7471  130.5228  149.5811 H   0  0  0  0  0  0  0  0  0  0  0  0  # atno 10718 bound_to 10713
  153.0459  135.5099  154.7745 H   0  0  0  0  0  0  0  0  0  0  0  0  # atno 10763 bound_to 10752
  154.6645  135.2943  154.9825 H   0  0  0  0  0  0  0  0  0  0  0  0  # atno 10764 bound_to 10752
  154.0665  135.6683  153.4871 H   0  0  0  0  0  0  0  0  0  0  0  0  # atno 10765 bound_to 10752
  139.9832  134.9541  156.9681 H   0  0  0  0  0  0  0  0  0  0  0  0  # atno 11005 bound_to 11000
  145.8143  140.9710  143.0932 LP  0  0  0  0  0  0  0  0  0  0  0  0  # atno 17320 bound_to 7965
  144.6800  139.9961  143.7484 LP  0  0  0  0  0  0  0  0  0  0  0  0  # atno 17321 bound_to 7965
  139.9299  144.6748  150.8374 LP  0  0  0  0  0  0  0  0  0  0  0  0  # atno 17342 bound_to 10162
  140.7669  143.3316  151.2398 LP  0  0  0  0  0  0  0  0  0  0  0  0  # atno 17343 bound_to 10162
  156.1426  130.6255  151.0487 LP  0  0  0  0  0  0  0  0  0  0  0  0  # atno 17370 bound_to 10713
  157.6793  131.0842  150.7412 LP  0  0  0  0  0  0  0  0  0  0  0  0  # atno 17371 bound_to 10713
  140.5054  134.1056  155.7259 LP  0  0  0  0  0  0  0  0  0  0  0  0  # atno 17394 bound_to 11000
  141.1501  133.8983  157.2118 LP  0  0  0  0  0  0  0  0  0  0  0  0  # atno 17395 bound_to 11000

$$$$
