AV-unprocessed.smi:450|AV-procd|sdf|2607|dock9
  -GOLD-   2262023 03D 1   1.00000     0.00000
 Structure written by MMmdl.
 32 32  0  0  0  0  0  0  0  0  1 V2000
  144.6559  133.1886  150.6122 C   0  0  0  0  0  0  0  0  0  0  0  0
  144.8407  134.7086  150.7290 C   0  0  0  0  0  0  0  0  0  0  0  0
  145.4714  135.1595  152.0608 C   0  0  2  0  0  0  0  0  0  0  0  0
  145.5521  136.6891  152.1617 C   0  0  0  0  0  0  0  0  0  0  0  0
  146.8125  134.5964  152.2099 N   0  0  0  0  0  0  0  0  0  0  0  0
  147.1075  133.3686  152.6643 C   0  0  0  0  0  0  0  0  0  0  0  0
  146.2553  132.5542  153.0226 O   0  0  0  0  0  0  0  0  0  0  0  0
  148.6007  133.0225  152.7088 C   0  0  0  0  0  0  0  0  0  0  0  0
  149.1864  133.2089  154.0357 N   0  0  0  0  0  0  0  0  0  0  0  0
  149.2995  134.3513  154.7431 C   0  0  0  0  0  0  0  0  0  0  0  0
  148.8313  135.5549  154.2368 N   0  0  0  0  0  0  0  0  0  0  0  0
  149.8884  134.2090  155.9273 N   0  0  0  0  0  0  0  0  0  0  0  0
  150.2041  132.8545  156.0142 C   0  0  0  0  0  0  0  0  0  0  0  0
  150.8605  132.3061  157.1526 C   0  0  0  0  0  0  0  0  0  0  0  0
  151.3943  131.8633  158.0786 N   0  0  0  0  0  0  0  0  0  0  0  0
  149.7750  132.2472  154.8537 C   0  0  0  0  0  0  0  0  0  0  0  0
  149.9060  130.8814  154.5247 C   0  0  0  0  0  0  0  0  0  0  0  0
  150.0135  129.7614  154.2563 N   0  0  0  0  0  0  0  0  0  0  0  0
  144.1516  132.9313  149.6807 H   0  0  0  0  0  0  0  0  0  0  0  0
  144.0529  132.8014  151.4340 H   0  0  0  0  0  0  0  0  0  0  0  0
  145.6123  132.6655  150.6222 H   0  0  0  0  0  0  0  0  0  0  0  0
  145.4461  135.0626  149.8936 H   0  0  0  0  0  0  0  0  0  0  0  0
  143.8657  135.1846  150.6183 H   0  0  0  0  0  0  0  0  0  0  0  0
  144.8252  134.8154  152.8701 H   0  0  0  0  0  0  0  0  0  0  0  0
  144.5629  137.1402  152.0792 H   0  0  0  0  0  0  0  0  0  0  0  0
  146.1758  137.1082  151.3716 H   0  0  0  0  0  0  0  0  0  0  0  0
  145.9745  136.9977  153.1187 H   0  0  0  0  0  0  0  0  0  0  0  0
  147.5815  135.1923  151.9390 H   0  0  0  0  0  0  0  0  0  0  0  0
  148.7438  131.9878  152.3951 H   0  0  0  0  0  0  0  0  0  0  0  0
  149.1382  133.6393  151.9879 H   0  0  0  0  0  0  0  0  0  0  0  0
  148.3946  135.6065  153.3276 H   0  0  0  0  0  0  0  0  0  0  0  0
  148.8711  136.4078  154.7755 H   0  0  0  0  0  0  0  0  0  0  0  0
  1  2  1  0  0  0  0
  1 19  1  0  0  0  0
  1 20  1  0  0  0  0
  1 21  1  0  0  0  0
  2  3  1  0  0  0  0
  2 22  1  0  0  0  0
  2 23  1  0  0  0  0
  3  4  1  0  0  0  0
  3  5  1  0  0  0  0
  3 24  1  0  0  0  0
  4 25  1  0  0  0  0
  4 26  1  0  0  0  0
  4 27  1  0  0  0  0
  5  6  1  0  0  0  0
  5 28  1  0  0  0  0
  6  7  2  0  0  0  0
  6  8  1  0  0  0  0
  8  9  1  0  0  0  0
  8 29  1  0  0  0  0
  8 30  1  0  0  0  0
  9 16  1  0  0  0  0
  9 10  1  0  0  0  0
 10 11  1  0  0  0  0
 10 12  2  0  0  0  0
 11 31  1  0  0  0  0
 11 32  1  0  0  0  0
 12 13  1  0  0  0  0
 13 14  1  0  0  0  0
 13 16  2  0  0  0  0
 14 15  3  0  0  0  0
 16 17  1  0  0  0  0
 17 18  3  0  0  0  0
M  END
> <s_m_source_file>
AV-unprocessed.smi

> <i_m_source_file_index>
450

> <i_lp_mmshare_version>
43012

> <i_f3d_flags>
0

> <s_epik_input>
W0NIM11bQ0gyXVtDQEhdKFtDSDNdKVtOSF1DKD1PKVtDSDJdbjFjKFtOSDJdKW5jKEMjTiljMUMjTg==

> <s_epik_cmdline>
J2VwaWtfcHl0aG9uJywgJy1waCcsICc3LjAnLCAnLXRuJywgJzgnLCAnLW1hJywgJzIwMCcsICctbWV0YWxfYmluZGluZycsICctaW1hZScsICc8aW5maWxlLm1hZT4nLCAnLW9tYWUnLCAnPG91dGZpbGUubWFlPic=

> <r_epik_Ionization_Penalty>
0.000482749

> <r_epik_Ionization_Penalty_Charging>
7.71074e-10

> <r_epik_Ionization_Penalty_Neutral>
0.000482748

> <r_epik_State_Penalty>
0.000433536

> <r_epik_Charging_Adjusted_Penalty>
0.000433537

> <i_epik_Tot_Q>
0

> <i_epik_Tot_abs_Q>
0

> <r_epik_Metal_State_Penalty>
-0

> <b_epik_Metal_Only>
0

> <s_lp_Force_Field>
OPLS_2005

> <r_lp_Energy>
6.35239

> <b_lp_Chiralities_Consistent>
1

> <s_lp_Variant>
AV-unprocessed.smi:450-1

> <Gold.Version>
5.8.1

> <Gold.Id.Protein>
6NUR|6NUR_protein|mol2

> <Gold.PLP.Fitness>
36.2782

> <Gold.PLP.PLP>
-29.7367

> <Gold.PLP.part.hbond>
-2.7864

> <Gold.PLP.part.metal>
0.0000

> <Gold.PLP.part.buried>
-3.6069

> <Gold.PLP.part.nonpolar>
-23.7887

> <Gold.PLP.part.repulsive>
0.2763

> <Gold.PLP.ligand.clash>
0.0000

> <Gold.PLP.ligand.torsion>
0.6721

> <Gold.PLP.Chemscore.Hbond>
2.6240

> <Gold.PLP.Chemscore.CHOScore>
0.0000

> <Gold.PLP.Chemscore.Metal>
0.0000

> <Gold.Chemscore.Hbonds>
donor molecule, donor type, donor heavy atom, donor atom, acceptor molecule, acceptor atom, score
      L1  H     5    28       P1  7948  1.00
      L1  H    11    31       P1  7948  0.61
      P1  H  6896  6907       L1    15  1.00

> <Gold.PLP.Chemscore.Internal.Correction>
0.0137

> <Gold.Rescore>
     Score         DG    S(hbond)    S(metal)    S(lipo)     H(rot)  DE(clash)    DE(int)     intcor
     11.83     -12.74       2.52        0.00      38.65       2.21       0.20       0.72       ----

> <Gold.Chemscore.Fitness>
11.8265

> <Gold.Chemscore.DG>
-12.7422

> <Gold.Chemscore.ZeroCoef>
-5.4800

> <Gold.Chemscore.Hbond>
2.5159

> <Gold.Chemscore.Metal>
0.0000

> <Gold.Chemscore.Lipo>
38.6484

> <Gold.Chemscore.Internal_Hbond>
0.0000

> <Gold.Chemscore.DEClash>
0.1995

> <Gold.Chemscore.DEInternal>
0.7161

> <Gold.Chemscore.Rot>
2.2121

> <Gold.Chemscore.Internal.Correction>
   9.000000E+99

> <Gold.Chemscore.Hbonds>
donor molecule, donor type, donor heavy atom, donor atom, acceptor molecule, acceptor atom, score
      L1  H     5    28       P1  7948  0.94
      L1  H    11    31       P1  7948  0.62
      P1  H  6896  6907       L1    15  0.50

> <Gold.Chemscore.Hbond.Weighted>
-8.4032

> <Gold.Chemscore.Metal.Weighted>
-0.0000

> <Gold.Chemscore.Lipo.Weighted>
-4.5219

> <Gold.Chemscore.Internal_Hbond.Weighted>
0.0000

> <Gold.Chemscore.DEClash.Weighted>
0.1995

> <Gold.Chemscore.DEInternal.Weighted>
0.7161

> <Gold.Chemscore.Rot.Weighted>
5.6629

> <Gold.Chemscore.Internal.Correction.Weighted>
   9.000000E+99

> <Gold.Protein.RotatedTorsions>
[ 6907 6896 6895 6894 ] final -174.37 input  -60.11 | X-H torsion
[ 7974 7965 7964 7962 ] final  -66.18 input  175.53 | X-H torsion
[ 8008 7997 7996 7995 ] final -140.01 input   59.86 | X-H torsion
[ 10167 10162 10161 10158 ] final -134.53 input  -65.29 | X-H torsion
[ 10718 10713 10712 10709 ] final -142.21 input   66.30 | X-H torsion
[ 10763 10752 10751 10750 ] final  102.39 input  -60.55 | X-H torsion
[ 11005 11000 10999 10996 ] final  141.49 input  -57.11 | X-H torsion

> <Gold.Protein.ActiveResidues>
 VAL166  LYS551  ARG553  GLY616  TRP617  ASP618  TYR619  PRO620  LYS621  CYS622 
 ASP623  PHE694  ASN695  SER759  ASP760  ASP761  ALA762  ILE779  LEU786  VAL792 
 PHE793  MET794  SER795  GLU796  ALA797  LYS798  CYS799  TRP800  GLU811  SER814 

> <Gold.Protein.RotatedAtoms>
  151.5712  133.3389  159.2989 H   0  0  0  0  0  0  0  0  0  0  0  0  # atno 6907 bound_to 6896
  150.8366  134.7645  159.6909 H   0  0  0  0  0  0  0  0  0  0  0  0  # atno 6908 bound_to 6896
  152.4441  134.5537  159.9925 H   0  0  0  0  0  0  0  0  0  0  0  0  # atno 6909 bound_to 6896
  145.7450  140.8935  143.0509 H   0  0  0  0  0  0  0  0  0  0  0  0  # atno 7974 bound_to 7965
  155.4543  140.0541  157.2998 H   0  0  0  0  0  0  0  0  0  0  0  0  # atno 8008 bound_to 7997
  154.4764  140.2063  155.9823 H   0  0  0  0  0  0  0  0  0  0  0  0  # atno 8009 bound_to 7997
  156.1138  140.3199  155.8115 H   0  0  0  0  0  0  0  0  0  0  0  0  # atno 8010 bound_to 7997
  139.8871  143.6767  152.2618 H   0  0  0  0  0  0  0  0  0  0  0  0  # atno 10167 bound_to 10162
  156.3432  130.7648  151.1788 H   0  0  0  0  0  0  0  0  0  0  0  0  # atno 10718 bound_to 10713
  153.3390  135.4012  155.1557 H   0  0  0  0  0  0  0  0  0  0  0  0  # atno 10763 bound_to 10752
  154.8639  135.3629  154.5370 H   0  0  0  0  0  0  0  0  0  0  0  0  # atno 10764 bound_to 10752
  153.5814  135.7076  153.5521 H   0  0  0  0  0  0  0  0  0  0  0  0  # atno 10765 bound_to 10752
  140.0405  134.9307  157.0834 H   0  0  0  0  0  0  0  0  0  0  0  0  # atno 11005 bound_to 11000
  144.6862  139.9513  143.7478 LP  0  0  0  0  0  0  0  0  0  0  0  0  # atno 17320 bound_to 7965
  146.0411  139.3422  143.0697 LP  0  0  0  0  0  0  0  0  0  0  0  0  # atno 17321 bound_to 7965
  139.7143  144.7614  151.1060 LP  0  0  0  0  0  0  0  0  0  0  0  0  # atno 17342 bound_to 10162
  140.7733  143.5290  150.9446 LP  0  0  0  0  0  0  0  0  0  0  0  0  # atno 17343 bound_to 10162
  157.7450  131.0448  150.4814 LP  0  0  0  0  0  0  0  0  0  0  0  0  # atno 17370 bound_to 10713
  156.4997  130.4114  149.6360 LP  0  0  0  0  0  0  0  0  0  0  0  0  # atno 17371 bound_to 10713
  140.4076  134.2015  155.7163 LP  0  0  0  0  0  0  0  0  0  0  0  0  # atno 17394 bound_to 11000
  141.1880  133.8268  157.1009 LP  0  0  0  0  0  0  0  0  0  0  0  0  # atno 17395 bound_to 11000

$$$$
