AV-unprocessed.smi:1695|AV-procd|sdf|6798|dock5
  -GOLD-   22720 7563D 1   1.00000     0.00000
 Structure written by MMmdl.
 50 52  0  0  0  0  0  0  0  0  1 V2000
  152.8494  144.1945  161.4471 C   0  0  0  0  0  0  0  0  0  0  0  0
  152.3549  143.1475  160.4647 C   0  0  0  0  0  0  0  0  0  0  0  0
  152.9503  141.8659  160.4689 C   0  0  0  0  0  0  0  0  0  0  0  0
  152.5209  140.8646  159.5705 C   0  0  0  0  0  0  0  0  0  0  0  0
  152.9553  139.5609  159.4028 N   0  0  0  0  0  0  0  0  0  0  0  0
  152.1696  139.1419  158.4146 C   0  0  0  0  0  0  0  0  0  0  0  0
  151.2761  140.0216  157.9226 N   0  0  0  0  0  0  0  0  0  0  0  0
  150.3185  139.7961  156.8548 C   0  0  0  0  0  0  0  0  0  0  0  0
  150.6230  140.6394  155.6023 C   0  0  1  0  0  0  0  0  0  0  0  0
  151.6901  140.0428  154.8908 O   0  0  0  0  0  0  0  0  0  0  0  0
  149.3991  140.7232  154.6682 C   0  0  0  0  0  0  0  0  0  0  0  0
  148.3919  141.7238  155.0291 N   0  0  0  0  0  0  0  0  0  0  0  0
  147.6555  141.3651  156.2460 C   0  0  0  0  0  0  0  0  0  0  0  0
  146.6251  142.4332  156.6510 C   0  0  0  0  0  0  0  0  0  0  0  0
  145.6251  142.6877  155.5058 C   0  0  0  0  0  0  0  0  0  0  0  0
  144.6420  143.8113  155.8611 C   0  0  0  0  0  0  0  0  0  0  0  0
  143.6674  144.0671  154.9846 N   0  0  0  0  0  0  0  0  0  0  0  0
  144.7574  144.4409  156.9111 O   0  0  0  0  0  0  0  0  0  0  0  0
  146.4098  143.0150  154.2203 C   0  0  0  0  0  0  0  0  0  0  0  0
  147.4484  141.9191  153.9277 C   0  0  0  0  0  0  0  0  0  0  0  0
  151.4711  141.1835  158.6605 C   0  0  0  0  0  0  0  0  0  0  0  0
  150.8708  142.4549  158.6462 C   0  0  0  0  0  0  0  0  0  0  0  0
  151.3120  143.4437  159.5505 C   0  0  0  0  0  0  0  0  0  0  0  0
  150.6572  144.8136  159.5279 C   0  0  0  0  0  0  0  0  0  0  0  0
  153.6102  143.7875  162.1136 H   0  0  0  0  0  0  0  0  0  0  0  0
  152.0284  144.5608  162.0636 H   0  0  0  0  0  0  0  0  0  0  0  0
  153.2872  145.0388  160.9147 H   0  0  0  0  0  0  0  0  0  0  0  0
  153.7454  141.6405  161.1642 H   0  0  0  0  0  0  0  0  0  0  0  0
  152.2483  138.1378  158.0239 H   0  0  0  0  0  0  0  0  0  0  0  0
  150.3102  138.7332  156.6089 H   0  0  0  0  0  0  0  0  0  0  0  0
  149.3254  140.0353  157.2371 H   0  0  0  0  0  0  0  0  0  0  0  0
  150.9363  141.6308  155.9254 H   0  0  0  0  0  0  0  0  0  0  0  0
  152.3662  139.8117  155.5097 H   0  0  0  0  0  0  0  0  0  0  0  0
  149.7634  140.9232  153.6593 H   0  0  0  0  0  0  0  0  0  0  0  0
  148.9201  139.7440  154.6165 H   0  0  0  0  0  0  0  0  0  0  0  0
  147.1508  140.4081  156.1045 H   0  0  0  0  0  0  0  0  0  0  0  0
  148.3410  141.2303  157.0807 H   0  0  0  0  0  0  0  0  0  0  0  0
  146.0958  142.1112  157.5488 H   0  0  0  0  0  0  0  0  0  0  0  0
  147.1485  143.3544  156.9128 H   0  0  0  0  0  0  0  0  0  0  0  0
  145.0593  141.7696  155.3359 H   0  0  0  0  0  0  0  0  0  0  0  0
  142.9971  144.7980  155.1732 H   0  0  0  0  0  0  0  0  0  0  0  0
  143.6056  143.5274  154.1331 H   0  0  0  0  0  0  0  0  0  0  0  0
  145.7267  143.1075  153.3752 H   0  0  0  0  0  0  0  0  0  0  0  0
  146.9178  143.9761  154.3160 H   0  0  0  0  0  0  0  0  0  0  0  0
  147.9933  142.1896  153.0225 H   0  0  0  0  0  0  0  0  0  0  0  0
  146.9356  140.9813  153.7091 H   0  0  0  0  0  0  0  0  0  0  0  0
  150.0778  142.6661  157.9441 H   0  0  0  0  0  0  0  0  0  0  0  0
  149.9063  144.8826  158.7404 H   0  0  0  0  0  0  0  0  0  0  0  0
  151.4002  145.5913  159.3500 H   0  0  0  0  0  0  0  0  0  0  0  0
  150.1640  145.0154  160.4791 H   0  0  0  0  0  0  0  0  0  0  0  0
  1  2  1  0  0  0  0
  1 25  1  0  0  0  0
  1 26  1  0  0  0  0
  1 27  1  0  0  0  0
  2 23  1  0  0  0  0
  2  3  2  0  0  0  0
  3  4  1  0  0  0  0
  3 28  1  0  0  0  0
  4 21  2  0  0  0  0
  4  5  1  0  0  0  0
  5  6  2  0  0  0  0
  6  7  1  0  0  0  0
  6 29  1  0  0  0  0
  7  8  1  0  0  0  0
  7 21  1  0  0  0  0
  8  9  1  0  0  0  0
  8 30  1  0  0  0  0
  8 31  1  0  0  0  0
  9 10  1  0  0  0  0
  9 11  1  0  0  0  0
  9 32  1  0  0  0  0
 10 33  1  0  0  0  0
 11 12  1  0  0  0  0
 11 34  1  0  0  0  0
 11 35  1  0  0  0  0
 12 20  1  0  0  0  0
 12 13  1  0  0  0  0
 13 14  1  0  0  0  0
 13 36  1  0  0  0  0
 13 37  1  0  0  0  0
 14 15  1  0  0  0  0
 14 38  1  0  0  0  0
 14 39  1  0  0  0  0
 15 16  1  0  0  0  0
 15 19  1  0  0  0  0
 15 40  1  0  0  0  0
 16 17  1  0  0  0  0
 16 18  2  0  0  0  0
 17 41  1  0  0  0  0
 17 42  1  0  0  0  0
 19 20  1  0  0  0  0
 19 43  1  0  0  0  0
 19 44  1  0  0  0  0
 20 45  1  0  0  0  0
 20 46  1  0  0  0  0
 21 22  1  0  0  0  0
 22 23  2  0  0  0  0
 22 47  1  0  0  0  0
 23 24  1  0  0  0  0
 24 48  1  0  0  0  0
 24 49  1  0  0  0  0
 24 50  1  0  0  0  0
M  END
> <s_m_source_file>
AV-unprocessed.smi

> <i_m_source_file_index>
1695

> <i_lp_mmshare_version>
43012

> <i_f3d_flags>
0

> <s_epik_input>
W0NIM11jKFtjSF0xKWMoW0NIM10pW2NIXWMoYzEyKW4oW2NIXW4yKVtDSDJdW0NASF0oW09IXSlbQ0gyXU4zW0NIMl1bQ0gyXVtDSF0oQyg9TylbTkgyXSlbQ0gyXVtDSDJdMw==

> <s_epik_cmdline>
J2VwaWtfcHl0aG9uJywgJy1waCcsICc3LjAnLCAnLXRuJywgJzgnLCAnLW1hJywgJzIwMCcsICctbWV0YWxfYmluZGluZycsICctaW1hZScsICc8aW5maWxlLm1hZT4nLCAnLW9tYWUnLCAnPG91dGZpbGUubWFlPic=

> <r_epik_Ionization_Penalty>
1.9508

> <r_epik_Ionization_Penalty_Charging>
0

> <r_epik_Ionization_Penalty_Neutral>
1.9508

> <r_epik_State_Penalty>
2.03746

> <r_epik_Charging_Adjusted_Penalty>
2.03746

> <i_epik_Tot_Q>
0

> <i_epik_Tot_abs_Q>
0

> <r_epik_Metal_State_Penalty>
2.03012

> <b_epik_Metal_Only>
0

> <s_lp_Force_Field>
OPLS_2005

> <r_lp_Energy>
30.7191

> <b_lp_Chiralities_Consistent>
1

> <s_lp_Variant>
AV-unprocessed.smi:1695-10

> <Gold.Version>
5.8.1

> <Gold.Id.Protein>
6NUR|6NUR_protein|mol2

> <Gold.PLP.Fitness>
49.8043

> <Gold.PLP.PLP>
-44.8784

> <Gold.PLP.part.hbond>
-2.0000

> <Gold.PLP.part.metal>
0.0000

> <Gold.PLP.part.buried>
-8.8186

> <Gold.PLP.part.nonpolar>
-34.2293

> <Gold.PLP.part.repulsive>
0.2613

> <Gold.PLP.ligand.clash>
0.0000

> <Gold.PLP.ligand.torsion>
0.4992

> <Gold.PLP.Chemscore.Hbond>
1.9673

> <Gold.PLP.Chemscore.CHOScore>
0.0000

> <Gold.PLP.Chemscore.Metal>
0.0000

> <Gold.Chemscore.Hbonds>
donor molecule, donor type, donor heavy atom, donor atom, acceptor molecule, acceptor atom, score
      P1  H  7989  7998       L1    10  1.00

> <Gold.PLP.Chemscore.Internal.Correction>
0.0225

> <Gold.Rescore>
     Score         DG    S(hbond)    S(metal)    S(lipo)     H(rot)  DE(clash)    DE(int)     intcor
     15.27     -15.82       1.45        0.00     107.85       2.78       0.02       0.53       ----

> <Gold.Chemscore.Fitness>
15.2745

> <Gold.Chemscore.DG>
-15.8231

> <Gold.Chemscore.ZeroCoef>
-5.4800

> <Gold.Chemscore.Hbond>
1.4532

> <Gold.Chemscore.Metal>
0.0000

> <Gold.Chemscore.Lipo>
107.8546

> <Gold.Chemscore.Internal_Hbond>
0.0000

> <Gold.Chemscore.DEClash>
0.0224

> <Gold.Chemscore.DEInternal>
0.5262

> <Gold.Chemscore.Rot>
2.7849

> <Gold.Chemscore.Internal.Correction>
   9.000000E+99

> <Gold.Chemscore.Hbonds>
donor molecule, donor type, donor heavy atom, donor atom, acceptor molecule, acceptor atom, score
      L1  H    17    42       P1 10174  0.05
      P1  H  7989  7998       L1    10  0.33

> <Gold.Chemscore.Hbond.Weighted>
-4.8536

> <Gold.Chemscore.Metal.Weighted>
-0.0000

> <Gold.Chemscore.Lipo.Weighted>
-12.6190

> <Gold.Chemscore.Internal_Hbond.Weighted>
0.0000

> <Gold.Chemscore.DEClash.Weighted>
0.0224

> <Gold.Chemscore.DEInternal.Weighted>
0.5262

> <Gold.Chemscore.Rot.Weighted>
7.1294

> <Gold.Chemscore.Internal.Correction.Weighted>
   9.000000E+99

> <Gold.Protein.RotatedTorsions>
[ 6907 6896 6895 6894 ] final  -52.01 input  -60.11 | X-H torsion
[ 7974 7965 7964 7962 ] final  147.91 input  175.53 | X-H torsion
[ 8008 7997 7996 7995 ] final   55.72 input   59.86 | X-H torsion
[ 10167 10162 10161 10158 ] final  -35.06 input  -65.29 | X-H torsion
[ 10718 10713 10712 10709 ] final  -87.02 input   66.30 | X-H torsion
[ 10763 10752 10751 10750 ] final -142.85 input  -60.55 | X-H torsion
[ 11005 11000 10999 10996 ] final  -29.07 input  -57.11 | X-H torsion

> <Gold.Protein.ActiveResidues>
 VAL166  LYS551  ARG553  GLY616  TRP617  ASP618  TYR619  PRO620  LYS621  CYS622 
 ASP623  PHE694  ASN695  SER759  ASP760  ASP761  ALA762  ILE779  LEU786  VAL792 
 PHE793  MET794  SER795  GLU796  ALA797  LYS798  CYS799  TRP800  GLU811  SER814 

> <Gold.Protein.RotatedAtoms>
  150.8557  134.7895  159.7043 H   0  0  0  0  0  0  0  0  0  0  0  0  # atno 6907 bound_to 6896
  152.4609  134.5182  159.9784 H   0  0  0  0  0  0  0  0  0  0  0  0  # atno 6908 bound_to 6896
  151.5295  133.3413  159.2951 H   0  0  0  0  0  0  0  0  0  0  0  0  # atno 6909 bound_to 6896
  144.8554  139.6088  143.5954 H   0  0  0  0  0  0  0  0  0  0  0  0  # atno 7974 bound_to 7965
  155.5058  140.3475  155.4379 H   0  0  0  0  0  0  0  0  0  0  0  0  # atno 8008 bound_to 7997
  156.0883  140.1404  156.9652 H   0  0  0  0  0  0  0  0  0  0  0  0  # atno 8009 bound_to 7997
  154.4620  140.0931  156.6894 H   0  0  0  0  0  0  0  0  0  0  0  0  # atno 8010 bound_to 7997
  140.7173  143.3504  151.2168 H   0  0  0  0  0  0  0  0  0  0  0  0  # atno 10167 bound_to 10162
  155.9987  130.4785  150.4804 H   0  0  0  0  0  0  0  0  0  0  0  0  # atno 10718 bound_to 10713
  154.8493  135.3484  154.6093 H   0  0  0  0  0  0  0  0  0  0  0  0  # atno 10763 bound_to 10752
  153.6702  135.6985  153.5154 H   0  0  0  0  0  0  0  0  0  0  0  0  # atno 10764 bound_to 10752
  153.2749  135.4281  155.0980 H   0  0  0  0  0  0  0  0  0  0  0  0  # atno 10765 bound_to 10752
  140.9264  133.7366  156.0873 H   0  0  0  0  0  0  0  0  0  0  0  0  # atno 11005 bound_to 11000
  146.2819  139.6900  142.9223 LP  0  0  0  0  0  0  0  0  0  0  0  0  # atno 17320 bound_to 7965
  145.4416  141.0423  143.2854 LP  0  0  0  0  0  0  0  0  0  0  0  0  # atno 17321 bound_to 7965
  139.7033  143.9497  152.2915 LP  0  0  0  0  0  0  0  0  0  0  0  0  # atno 17342 bound_to 10162
  139.9197  144.6807  150.8474 LP  0  0  0  0  0  0  0  0  0  0  0  0  # atno 17343 bound_to 10162
  157.2810  131.0607  151.2198 LP  0  0  0  0  0  0  0  0  0  0  0  0  # atno 17370 bound_to 10713
  157.3244  130.6953  149.6288 LP  0  0  0  0  0  0  0  0  0  0  0  0  # atno 17371 bound_to 10713
  140.7921  134.3606  157.5462 LP  0  0  0  0  0  0  0  0  0  0  0  0  # atno 17394 bound_to 11000
  139.8786  134.9146  156.3112 LP  0  0  0  0  0  0  0  0  0  0  0  0  # atno 17395 bound_to 11000

$$$$
