AV-unprocessed.smi:153|AV-procd|sdf|1265|dock4
  -GOLD-   2262018523D 1   1.00000     0.00000
 Structure written by MMmdl.
 59 62  0  0  0  0  0  0  0  0  1 V2000
  146.9270  133.6446  152.1123 C   0  0  0  0  0  0  0  0  0  0  0  0
  146.2100  133.7612  150.7574 C   0  0  1  0  0  0  0  0  0  0  0  0
  146.1514  132.4234  150.2577 O   0  0  0  0  0  0  0  0  0  0  0  0
  144.8435  132.1117  149.8048 C   0  0  0  0  0  0  0  0  0  0  0  0
  143.9444  132.9782  150.6745 C   0  0  0  0  0  0  0  0  0  0  0  0
  144.7411  134.2698  150.7886 C   0  0  2  0  0  0  0  0  0  0  0  0
  144.5109  135.0106  149.6019 O   0  0  0  0  0  0  0  0  0  0  0  0
  144.2855  135.1427  151.9910 C   0  0  0  0  0  0  0  0  0  0  0  0
  145.0875  136.3345  152.2514 N   0  0  0  0  0  0  0  0  0  0  0  0
  145.5403  137.2678  151.3442 C   0  0  0  0  0  0  0  0  0  0  0  0
  146.2255  138.2534  151.8534 N   0  0  0  0  0  0  0  0  0  0  0  0
  146.2323  138.0038  153.2205 C   0  0  0  0  0  0  0  0  0  0  0  0
  146.7870  138.6666  154.3568 C   0  0  0  0  0  0  0  0  0  0  0  0
  147.5481  139.7948  154.2879 N   0  0  0  0  0  0  0  0  0  0  0  0
  147.2054  140.7972  153.2814 C   0  0  0  0  0  0  0  0  0  0  0  0
  148.1841  140.2706  155.5169 C   0  0  0  0  0  0  0  0  0  0  0  0
  149.6870  140.5905  155.3469 C   0  0  1  0  0  0  0  0  0  0  0  0
  150.1153  140.3260  154.0255 O   0  0  0  0  0  0  0  0  0  0  0  0
  150.0513  142.0491  155.7057 C   0  0  0  0  0  0  0  0  0  0  0  0
  150.9774  142.2439  156.8259 N   0  0  0  0  0  0  0  0  0  0  0  0
  150.7271  141.3341  157.9422 C   0  0  0  0  0  0  0  0  0  0  0  0
  151.6940  141.5812  159.1134 C   0  0  0  0  0  0  0  0  0  0  0  0
  151.6025  142.9381  159.5341 O   0  0  0  0  0  0  0  0  0  0  0  0
  151.8878  143.8566  158.4847 C   0  0  0  0  0  0  0  0  0  0  0  0
  150.9174  143.6174  157.3154 C   0  0  0  0  0  0  0  0  0  0  0  0
  146.5331  138.1160  155.5750 N   0  0  0  0  0  0  0  0  0  0  0  0
  145.8144  136.9962  155.6820 C   0  0  0  0  0  0  0  0  0  0  0  0
  145.2587  136.2681  154.7139 N   0  0  0  0  0  0  0  0  0  0  0  0
  145.4945  136.8139  153.4867 C   0  0  0  0  0  0  0  0  0  0  0  0
  147.1862  134.6194  152.5193 H   0  0  0  0  0  0  0  0  0  0  0  0
  147.8629  133.0965  152.0033 H   0  0  0  0  0  0  0  0  0  0  0  0
  146.3179  133.1144  152.8448 H   0  0  0  0  0  0  0  0  0  0  0  0
  146.8216  134.3680  150.0877 H   0  0  0  0  0  0  0  0  0  0  0  0
  144.7508  132.3847  148.7528 H   0  0  0  0  0  0  0  0  0  0  0  0
  144.6280  131.0476  149.9027 H   0  0  0  0  0  0  0  0  0  0  0  0
  142.9452  133.1120  150.2577 H   0  0  0  0  0  0  0  0  0  0  0  0
  143.8372  132.5118  151.6548 H   0  0  0  0  0  0  0  0  0  0  0  0
  145.2938  134.9819  149.0738 H   0  0  0  0  0  0  0  0  0  0  0  0
  143.2524  135.4623  151.8494 H   0  0  0  0  0  0  0  0  0  0  0  0
  144.2808  134.5329  152.8947 H   0  0  0  0  0  0  0  0  0  0  0  0
  145.3513  137.2072  150.2834 H   0  0  0  0  0  0  0  0  0  0  0  0
  147.1113  140.3412  152.2950 H   0  0  0  0  0  0  0  0  0  0  0  0
  147.9810  141.5605  153.2169 H   0  0  0  0  0  0  0  0  0  0  0  0
  146.2648  141.2910  153.5277 H   0  0  0  0  0  0  0  0  0  0  0  0
  147.6481  141.1055  155.9626 H   0  0  0  0  0  0  0  0  0  0  0  0
  148.0868  139.4643  156.2449 H   0  0  0  0  0  0  0  0  0  0  0  0
  150.2734  139.9432  155.9999 H   0  0  0  0  0  0  0  0  0  0  0  0
  150.4894  139.4586  154.0018 H   0  0  0  0  0  0  0  0  0  0  0  0
  150.5174  142.4721  154.8147 H   0  0  0  0  0  0  0  0  0  0  0  0
  149.1439  142.6355  155.8592 H   0  0  0  0  0  0  0  0  0  0  0  0
  149.6994  141.4482  158.2903 H   0  0  0  0  0  0  0  0  0  0  0  0
  150.8375  140.2995  157.6207 H   0  0  0  0  0  0  0  0  0  0  0  0
  151.4477  140.9307  159.9527 H   0  0  0  0  0  0  0  0  0  0  0  0
  152.7199  141.3522  158.8203 H   0  0  0  0  0  0  0  0  0  0  0  0
  151.7831  144.8737  158.8622 H   0  0  0  0  0  0  0  0  0  0  0  0
  152.9226  143.7394  158.1589 H   0  0  0  0  0  0  0  0  0  0  0  0
  151.1545  144.3098  156.5070 H   0  0  0  0  0  0  0  0  0  0  0  0
  149.9015  143.8514  157.6377 H   0  0  0  0  0  0  0  0  0  0  0  0
  145.6684  136.6285  156.6869 H   0  0  0  0  0  0  0  0  0  0  0  0
  1  2  1  0  0  0  0
  1 30  1  0  0  0  0
  1 31  1  0  0  0  0
  1 32  1  0  0  0  0
  2  6  1  0  0  0  0
  2  3  1  0  0  0  0
  2 33  1  0  0  0  0
  3  4  1  0  0  0  0
  4  5  1  0  0  0  0
  4 34  1  0  0  0  0
  4 35  1  0  0  0  0
  5  6  1  0  0  0  0
  5 36  1  0  0  0  0
  5 37  1  0  0  0  0
  6  7  1  0  0  0  0
  6  8  1  0  0  0  0
  7 38  1  0  0  0  0
  8  9  1  0  0  0  0
  8 39  1  0  0  0  0
  8 40  1  0  0  0  0
  9 29  1  0  0  0  0
  9 10  1  0  0  0  0
 10 11  2  0  0  0  0
 10 41  1  0  0  0  0
 11 12  1  0  0  0  0
 12 29  2  0  0  0  0
 12 13  1  0  0  0  0
 13 14  1  0  0  0  0
 13 26  2  0  0  0  0
 14 15  1  0  0  0  0
 14 16  1  0  0  0  0
 15 42  1  0  0  0  0
 15 43  1  0  0  0  0
 15 44  1  0  0  0  0
 16 17  1  0  0  0  0
 16 45  1  0  0  0  0
 16 46  1  0  0  0  0
 17 18  1  0  0  0  0
 17 19  1  0  0  0  0
 17 47  1  0  0  0  0
 18 48  1  0  0  0  0
 19 20  1  0  0  0  0
 19 49  1  0  0  0  0
 19 50  1  0  0  0  0
 20 25  1  0  0  0  0
 20 21  1  0  0  0  0
 21 22  1  0  0  0  0
 21 51  1  0  0  0  0
 21 52  1  0  0  0  0
 22 23  1  0  0  0  0
 22 53  1  0  0  0  0
 22 54  1  0  0  0  0
 23 24  1  0  0  0  0
 24 25  1  0  0  0  0
 24 55  1  0  0  0  0
 24 56  1  0  0  0  0
 25 57  1  0  0  0  0
 25 58  1  0  0  0  0
 26 27  1  0  0  0  0
 27 28  2  0  0  0  0
 27 59  1  0  0  0  0
 28 29  1  0  0  0  0
M  END
> <s_m_source_file>
AV-unprocessed.smi

> <i_m_source_file_index>
153

> <i_lp_mmshare_version>
43012

> <i_f3d_flags>
0

> <s_epik_input>
W0NIMl0xW0NIMl1PW0NAQEhdKFtDSDNdKVtDQEBdMShbT0hdKVtDSDJdbihbY0hdbjIpYyhjMjMpbltjSF1uYzNOKFtDSDNdKVtDSDJdW0NASF0oW09IXSlbQ0gyXU40W0NIMl1bQ0gyXU9bQ0gyXVtDSDJdNA==

> <s_epik_cmdline>
J2VwaWtfcHl0aG9uJywgJy1waCcsICc3LjAnLCAnLXRuJywgJzgnLCAnLW1hJywgJzIwMCcsICctbWV0YWxfYmluZGluZycsICctaW1hZScsICc8aW5maWxlLm1hZT4nLCAnLW9tYWUnLCAnPG91dGZpbGUubWFlPic=

> <r_lp_tautomer_probability>
1

> <r_epik_Ionization_Penalty>
0.424123

> <r_epik_Ionization_Penalty_Charging>
0

> <r_epik_Ionization_Penalty_Neutral>
0.424123

> <r_epik_State_Penalty>
0.421495

> <r_epik_Charging_Adjusted_Penalty>
0.421495

> <i_epik_Tot_Q>
0

> <i_epik_Tot_abs_Q>
0

> <r_epik_Metal_State_Penalty>
0.421223

> <b_epik_Metal_Only>
0

> <s_lp_Force_Field>
OPLS_2005

> <r_lp_Energy>
59.9447

> <b_lp_Chiralities_Consistent>
1

> <s_lp_Variant>
AV-unprocessed.smi:153-16

> <Gold.Version>
5.8.1

> <Gold.Id.Protein>
6NUR|6NUR_protein|mol2

> <Gold.PLP.Fitness>
46.9226

> <Gold.PLP.PLP>
-42.9308

> <Gold.PLP.part.hbond>
-2.7402

> <Gold.PLP.part.metal>
0.0000

> <Gold.PLP.part.buried>
-7.4422

> <Gold.PLP.part.nonpolar>
-34.9668

> <Gold.PLP.part.repulsive>
0.5726

> <Gold.PLP.ligand.clash>
0.0000

> <Gold.PLP.ligand.torsion>
2.3534

> <Gold.PLP.Chemscore.Hbond>
2.0000

> <Gold.PLP.Chemscore.CHOScore>
0.6709

> <Gold.PLP.Chemscore.Metal>
0.0000

> <Gold.Chemscore.Hbonds>
donor molecule, donor type, donor heavy atom, donor atom, acceptor molecule, acceptor atom, score
      L1  H     7    38       P1  7921  1.00
      P1  H  7989  7998       L1    18  0.29
      L1  C    10    41       P1 10171  0.58

> <Gold.PLP.Chemscore.Internal.Correction>
0.6861

> <Gold.Rescore>
     Score         DG    S(hbond)    S(metal)    S(lipo)     H(rot)  DE(clash)    DE(int)     intcor
     10.80     -14.33       1.82        0.00     100.55       3.52       0.26       3.28       ----

> <Gold.Chemscore.Fitness>
10.7969

> <Gold.Chemscore.DG>
-14.3287

> <Gold.Chemscore.ZeroCoef>
-5.4800

> <Gold.Chemscore.Hbond>
1.8228

> <Gold.Chemscore.Metal>
0.0000

> <Gold.Chemscore.Lipo>
100.5479

> <Gold.Chemscore.Internal_Hbond>
0.0000

> <Gold.Chemscore.DEClash>
0.2557

> <Gold.Chemscore.DEInternal>
3.2761

> <Gold.Chemscore.Rot>
3.5170

> <Gold.Chemscore.Internal.Correction>
   9.000000E+99

> <Gold.Chemscore.Hbonds>
donor molecule, donor type, donor heavy atom, donor atom, acceptor molecule, acceptor atom, score
      L1  H     7    38       P1  7921  0.97
      P1  H  7989  7998       L1    18  0.01

> <Gold.Chemscore.Hbond.Weighted>
-6.0882

> <Gold.Chemscore.Metal.Weighted>
-0.0000

> <Gold.Chemscore.Lipo.Weighted>
-11.7641

> <Gold.Chemscore.Internal_Hbond.Weighted>
0.0000

> <Gold.Chemscore.DEClash.Weighted>
0.2557

> <Gold.Chemscore.DEInternal.Weighted>
3.2761

> <Gold.Chemscore.Rot.Weighted>
9.0036

> <Gold.Chemscore.Internal.Correction.Weighted>
   9.000000E+99

> <Gold.Protein.RotatedTorsions>
[ 6907 6896 6895 6894 ] final  -89.79 input  -60.11 | X-H torsion
[ 7974 7965 7964 7962 ] final -154.27 input  175.53 | X-H torsion
[ 8008 7997 7996 7995 ] final  -78.92 input   59.86 | X-H torsion
[ 10167 10162 10161 10158 ] final  108.46 input  -65.29 | X-H torsion
[ 10718 10713 10712 10709 ] final  -30.86 input   66.30 | X-H torsion
[ 10763 10752 10751 10750 ] final -100.98 input  -60.55 | X-H torsion
[ 11005 11000 10999 10996 ] final -133.41 input  -57.11 | X-H torsion

> <Gold.Protein.ActiveResidues>
 VAL166  LYS551  ARG553  GLY616  TRP617  ASP618  TYR619  PRO620  LYS621  CYS622 
 ASP623  PHE694  ASN695  SER759  ASP760  ASP761  ALA762  ILE779  LEU786  VAL792 
 PHE793  MET794  SER795  GLU796  ALA797  LYS798  CYS799  TRP800  GLU811  SER814 

> <Gold.Protein.RotatedAtoms>
  150.6876  134.2533  159.4519 H   0  0  0  0  0  0  0  0  0  0  0  0  # atno 6907 bound_to 6896
  152.0469  134.9675  160.0583 H   0  0  0  0  0  0  0  0  0  0  0  0  # atno 6908 bound_to 6896
  152.1155  133.4289  159.4688 H   0  0  0  0  0  0  0  0  0  0  0  0  # atno 6909 bound_to 6896
  144.7698  140.4412  143.5915 H   0  0  0  0  0  0  0  0  0  0  0  0  # atno 7974 bound_to 7965
  154.5736  140.0686  156.9000 H   0  0  0  0  0  0  0  0  0  0  0  0  # atno 8008 bound_to 7997
  155.2590  140.3357  155.4257 H   0  0  0  0  0  0  0  0  0  0  0  0  # atno 8009 bound_to 7997
  156.2137  140.1769  156.7623 H   0  0  0  0  0  0  0  0  0  0  0  0  # atno 8010 bound_to 7997
  139.6844  144.7115  151.1458 H   0  0  0  0  0  0  0  0  0  0  0  0  # atno 10167 bound_to 10162
  156.3946  130.4379  149.7369 H   0  0  0  0  0  0  0  0  0  0  0  0  # atno 10718 bound_to 10713
  154.7622  135.4915  153.9486 H   0  0  0  0  0  0  0  0  0  0  0  0  # atno 10763 bound_to 10752
  153.1265  135.6743  153.9257 H   0  0  0  0  0  0  0  0  0  0  0  0  # atno 10764 bound_to 10752
  153.8973  135.3114  155.3427 H   0  0  0  0  0  0  0  0  0  0  0  0  # atno 10765 bound_to 10752
  140.9083  134.1600  157.4408 H   0  0  0  0  0  0  0  0  0  0  0  0  # atno 11005 bound_to 11000
  145.6359  139.1543  143.2943 LP  0  0  0  0  0  0  0  0  0  0  0  0  # atno 17320 bound_to 7965
  146.1835  140.6459  142.9178 LP  0  0  0  0  0  0  0  0  0  0  0  0  # atno 17321 bound_to 7965
  140.7663  143.5651  150.9056 LP  0  0  0  0  0  0  0  0  0  0  0  0  # atno 17342 bound_to 10162
  139.9325  143.6476  152.3073 LP  0  0  0  0  0  0  0  0  0  0  0  0  # atno 17343 bound_to 10162
  156.4409  130.7860  151.2882 LP  0  0  0  0  0  0  0  0  0  0  0  0  # atno 17370 bound_to 10713
  157.7501  131.0125  150.3387 LP  0  0  0  0  0  0  0  0  0  0  0  0  # atno 17371 bound_to 10713
  139.8753  134.9926  156.5603 LP  0  0  0  0  0  0  0  0  0  0  0  0  # atno 17394 bound_to 11000
  140.8142  133.8405  155.8837 LP  0  0  0  0  0  0  0  0  0  0  0  0  # atno 17395 bound_to 11000

$$$$
