AV-unprocessed.smi:1117|AV-procd|sdf|4813|dock5
  -GOLD-   22720 3363D 1   1.00000     0.00000
 Structure written by MMmdl.
 40 41  0  0  0  0  0  0  0  0  1 V2000
  151.7674  133.7725  155.7918 C   0  0  0  0  0  0  0  0  0  0  0  0
  150.3809  134.2841  155.3638 C   0  0  0  0  0  0  0  0  0  0  0  0
  149.7373  133.2501  154.4158 C   0  0  0  0  0  0  0  0  0  0  0  0
  149.5090  134.4874  156.6201 C   0  0  0  0  0  0  0  0  0  0  0  0
  150.5942  135.5601  154.6718 N   0  0  0  0  0  0  0  0  0  0  0  0
  151.2755  136.6413  155.0944 C   0  0  0  0  0  0  0  0  0  0  0  0
  151.8651  136.7059  156.1725 O   0  0  0  0  0  0  0  0  0  0  0  0
  151.2985  137.8404  154.1442 C   0  0  0  0  0  0  0  0  0  0  0  0
  150.8114  139.0749  154.8473 C   0  0  0  0  0  0  0  0  0  0  0  0
  149.6966  139.8154  154.5362 C   0  0  0  0  0  0  0  0  0  0  0  0
  149.5070  141.1889  155.5917 S   0  0  0  0  0  0  0  0  0  0  0  0
  150.9665  140.6844  156.4481 C   0  0  0  0  0  0  0  0  0  0  0  0
  151.5646  141.3730  157.5460 N   0  0  0  0  0  0  0  0  0  0  0  0
  151.0753  142.7364  157.8236 C   0  0  0  0  0  0  0  0  0  0  0  0
  151.1418  143.0727  159.3150 C   0  0  0  0  0  0  0  0  0  0  0  0
  152.5401  142.7558  159.8378 C   0  0  0  0  0  0  0  0  0  0  0  0
  152.9811  141.4481  159.3670 N   0  0  0  0  0  0  0  0  0  0  0  0
  152.6085  140.8234  158.2310 C   0  0  0  0  0  0  0  0  0  0  0  0
  153.1777  139.7866  157.8915 O   0  0  0  0  0  0  0  0  0  0  0  0
  151.5258  139.5818  155.9384 N   0  0  0  0  0  0  0  0  0  0  0  0
  151.6942  132.8190  156.3160 H   0  0  0  0  0  0  0  0  0  0  0  0
  152.2629  134.4767  156.4615 H   0  0  0  0  0  0  0  0  0  0  0  0
  152.4204  133.6240  154.9306 H   0  0  0  0  0  0  0  0  0  0  0  0
  150.3234  133.1277  153.5044 H   0  0  0  0  0  0  0  0  0  0  0  0
  148.7270  133.5347  154.1223 H   0  0  0  0  0  0  0  0  0  0  0  0
  149.6657  132.2722  154.8932 H   0  0  0  0  0  0  0  0  0  0  0  0
  149.4191  133.5613  157.1890 H   0  0  0  0  0  0  0  0  0  0  0  0
  148.4975  134.8070  156.3696 H   0  0  0  0  0  0  0  0  0  0  0  0
  149.9375  135.2393  157.2837 H   0  0  0  0  0  0  0  0  0  0  0  0
  150.1568  135.6368  153.7646 H   0  0  0  0  0  0  0  0  0  0  0  0
  152.3129  137.9889  153.7717 H   0  0  0  0  0  0  0  0  0  0  0  0
  150.6811  137.6158  153.2735 H   0  0  0  0  0  0  0  0  0  0  0  0
  148.9831  139.6415  153.7445 H   0  0  0  0  0  0  0  0  0  0  0  0
  151.6805  143.4432  157.2540 H   0  0  0  0  0  0  0  0  0  0  0  0
  150.0456  142.8567  157.4830 H   0  0  0  0  0  0  0  0  0  0  0  0
  150.8896  144.1189  159.4910 H   0  0  0  0  0  0  0  0  0  0  0  0
  150.4056  142.4749  159.8544 H   0  0  0  0  0  0  0  0  0  0  0  0
  153.2519  143.5034  159.4861 H   0  0  0  0  0  0  0  0  0  0  0  0
  152.5592  142.7800  160.9276 H   0  0  0  0  0  0  0  0  0  0  0  0
  153.7183  141.0126  159.9026 H   0  0  0  0  0  0  0  0  0  0  0  0
  1  2  1  0  0  0  0
  1 21  1  0  0  0  0
  1 22  1  0  0  0  0
  1 23  1  0  0  0  0
  2  3  1  0  0  0  0
  2  4  1  0  0  0  0
  2  5  1  0  0  0  0
  3 24  1  0  0  0  0
  3 25  1  0  0  0  0
  3 26  1  0  0  0  0
  4 27  1  0  0  0  0
  4 28  1  0  0  0  0
  4 29  1  0  0  0  0
  5  6  1  0  0  0  0
  5 30  1  0  0  0  0
  6  7  2  0  0  0  0
  6  8  1  0  0  0  0
  8  9  1  0  0  0  0
  8 31  1  0  0  0  0
  8 32  1  0  0  0  0
  9 20  1  0  0  0  0
  9 10  2  0  0  0  0
 10 11  1  0  0  0  0
 10 33  1  0  0  0  0
 11 12  1  0  0  0  0
 12 13  1  0  0  0  0
 12 20  2  0  0  0  0
 13 18  1  0  0  0  0
 13 14  1  0  0  0  0
 14 15  1  0  0  0  0
 14 34  1  0  0  0  0
 14 35  1  0  0  0  0
 15 16  1  0  0  0  0
 15 36  1  0  0  0  0
 15 37  1  0  0  0  0
 16 17  1  0  0  0  0
 16 38  1  0  0  0  0
 16 39  1  0  0  0  0
 17 18  1  0  0  0  0
 17 40  1  0  0  0  0
 18 19  2  0  0  0  0
M  END
> <s_m_source_file>
AV-unprocessed.smi

> <i_m_source_file_index>
1117

> <i_lp_mmshare_version>
43012

> <i_f3d_flags>
0

> <s_epik_input>
W0NIM11DKFtDSDNdKShbQ0gzXSlbTkhdQyg9TylbQ0gyXWMxW2NIXXNjKG4xKU4yW0NIMl1bQ0gyXVtDSDJdW05IXUMyPU8=

> <s_epik_cmdline>
J2VwaWtfcHl0aG9uJywgJy1waCcsICc3LjAnLCAnLXRuJywgJzgnLCAnLW1hJywgJzIwMCcsICctbWV0YWxfYmluZGluZycsICctaW1hZScsICc8aW5maWxlLm1hZT4nLCAnLW9tYWUnLCAnPG91dGZpbGUubWFlPic=

> <r_lp_tautomer_probability>
1

> <r_epik_Ionization_Penalty>
0.000135599

> <r_epik_Ionization_Penalty_Charging>
0

> <r_epik_Ionization_Penalty_Neutral>
0.000135599

> <r_epik_State_Penalty>
-0

> <r_epik_Charging_Adjusted_Penalty>
0

> <i_epik_Tot_Q>
0

> <i_epik_Tot_abs_Q>
0

> <r_epik_Metal_State_Penalty>
-0

> <b_epik_Metal_Only>
0

> <s_lp_Force_Field>
OPLS_2005

> <r_lp_Energy>
32.4347

> <b_lp_Chiralities_Consistent>
1

> <s_lp_Variant>
AV-unprocessed.smi:1117-1

> <Gold.Version>
5.8.1

> <Gold.Id.Protein>
6NUR|6NUR_protein|mol2

> <Gold.PLP.Fitness>
44.9221

> <Gold.PLP.PLP>
-36.2832

> <Gold.PLP.part.hbond>
-2.0000

> <Gold.PLP.part.metal>
0.0000

> <Gold.PLP.part.buried>
-3.3367

> <Gold.PLP.part.nonpolar>
-30.7114

> <Gold.PLP.part.repulsive>
0.1622

> <Gold.PLP.ligand.clash>
0.0000

> <Gold.PLP.ligand.torsion>
0.1857

> <Gold.PLP.Chemscore.Hbond>
2.0000

> <Gold.PLP.Chemscore.CHOScore>
0.9976

> <Gold.PLP.Chemscore.Metal>
0.0000

> <Gold.Chemscore.Hbonds>
donor molecule, donor type, donor heavy atom, donor atom, acceptor molecule, acceptor atom, score
      L1  H     5    30       P1  7948  0.16
      P1  H  7997  8010       L1    19  0.99
      L1  C    10    33       P1  7957  0.51

> <Gold.PLP.Chemscore.Internal.Correction>
0.0174

> <Gold.Rescore>
     Score         DG    S(hbond)    S(metal)    S(lipo)     H(rot)  DE(clash)    DE(int)     intcor
     13.47     -16.48       1.83        0.00      74.52       1.50       0.03       2.99       ----

> <Gold.Chemscore.Fitness>
13.4700

> <Gold.Chemscore.DG>
-16.4843

> <Gold.Chemscore.ZeroCoef>
-5.4800

> <Gold.Chemscore.Hbond>
1.8332

> <Gold.Chemscore.Metal>
0.0000

> <Gold.Chemscore.Lipo>
74.5205

> <Gold.Chemscore.Internal_Hbond>
0.0000

> <Gold.Chemscore.DEClash>
0.0278

> <Gold.Chemscore.DEInternal>
2.9866

> <Gold.Chemscore.Rot>
1.4990

> <Gold.Chemscore.Internal.Correction>
   9.000000E+99

> <Gold.Chemscore.Hbonds>
donor molecule, donor type, donor heavy atom, donor atom, acceptor molecule, acceptor atom, score
      P1  H  7997  8010       L1    19  0.77

> <Gold.Chemscore.Hbond.Weighted>
-6.1229

> <Gold.Chemscore.Metal.Weighted>
-0.0000

> <Gold.Chemscore.Lipo.Weighted>
-8.7189

> <Gold.Chemscore.Internal_Hbond.Weighted>
0.0000

> <Gold.Chemscore.DEClash.Weighted>
0.0278

> <Gold.Chemscore.DEInternal.Weighted>
2.9866

> <Gold.Chemscore.Rot.Weighted>
3.8375

> <Gold.Chemscore.Internal.Correction.Weighted>
   9.000000E+99

> <Gold.Protein.RotatedTorsions>
[ 6907 6896 6895 6894 ] final  129.95 input  -60.11 | X-H torsion
[ 7974 7965 7964 7962 ] final -164.73 input  175.53 | X-H torsion
[ 8008 7997 7996 7995 ] final   57.39 input   59.86 | X-H torsion
[ 10167 10162 10161 10158 ] final  170.60 input  -65.29 | X-H torsion
[ 10718 10713 10712 10709 ] final  177.19 input   66.30 | X-H torsion
[ 10763 10752 10751 10750 ] final  177.04 input  -60.55 | X-H torsion
[ 11005 11000 10999 10996 ] final -110.78 input  -57.11 | X-H torsion

> <Gold.Protein.ActiveResidues>
 VAL166  LYS551  ARG553  GLY616  TRP617  ASP618  TYR619  PRO620  LYS621  CYS622 
 ASP623  PHE694  ASN695  SER759  ASP760  ASP761  ALA762  ILE779  LEU786  VAL792 
 PHE793  MET794  SER795  GLU796  ALA797  LYS798  CYS799  TRP800  GLU811  SER814 

> <Gold.Protein.RotatedAtoms>
  152.3574  133.6254  159.5989 H   0  0  0  0  0  0  0  0  0  0  0  0  # atno 6907 bound_to 6896
  150.7578  133.9478  159.3485 H   0  0  0  0  0  0  0  0  0  0  0  0  # atno 6908 bound_to 6896
  151.7321  135.0873  160.0353 H   0  0  0  0  0  0  0  0  0  0  0  0  # atno 6909 bound_to 6896
  144.7289  140.2917  143.6219 H   0  0  0  0  0  0  0  0  0  0  0  0  # atno 7974 bound_to 7965
  155.5330  140.3482  155.4430 H   0  0  0  0  0  0  0  0  0  0  0  0  # atno 8008 bound_to 7997
  156.0705  140.1362  156.9861 H   0  0  0  0  0  0  0  0  0  0  0  0  # atno 8009 bound_to 7997
  154.4525  140.0967  156.6636 H   0  0  0  0  0  0  0  0  0  0  0  0  # atno 8010 bound_to 7997
  139.5023  144.3578  151.9856 H   0  0  0  0  0  0  0  0  0  0  0  0  # atno 10167 bound_to 10162
  156.9089  130.9903  151.3024 H   0  0  0  0  0  0  0  0  0  0  0  0  # atno 10718 bound_to 10713
  154.4892  135.2778  155.1510 H   0  0  0  0  0  0  0  0  0  0  0  0  # atno 10763 bound_to 10752
  154.3188  135.6214  153.5502 H   0  0  0  0  0  0  0  0  0  0  0  0  # atno 10764 bound_to 10752
  152.9885  135.5737  154.5310 H   0  0  0  0  0  0  0  0  0  0  0  0  # atno 10765 bound_to 10752
  141.0772  133.9281  157.2364 H   0  0  0  0  0  0  0  0  0  0  0  0  # atno 11005 bound_to 11000
  145.7848  139.1905  143.2137 LP  0  0  0  0  0  0  0  0  0  0  0  0  # atno 17320 bound_to 7965
  146.0804  140.7770  142.9644 LP  0  0  0  0  0  0  0  0  0  0  0  0  # atno 17321 bound_to 7965
  140.3015  144.3642  150.6059 LP  0  0  0  0  0  0  0  0  0  0  0  0  # atno 17342 bound_to 10162
  140.5870  143.2169  151.7324 LP  0  0  0  0  0  0  0  0  0  0  0  0  # atno 17343 bound_to 10162
  157.5979  130.8491  149.8758 LP  0  0  0  0  0  0  0  0  0  0  0  0  # atno 17370 bound_to 10713
  156.0545  130.3711  150.1123 LP  0  0  0  0  0  0  0  0  0  0  0  0  # atno 17371 bound_to 10713
  139.9585  135.0160  156.9195 LP  0  0  0  0  0  0  0  0  0  0  0  0  # atno 17394 bound_to 11000
  140.5547  134.0593  155.7380 LP  0  0  0  0  0  0  0  0  0  0  0  0  # atno 17395 bound_to 11000

$$$$
