AV-unprocessed.smi:3168|AV-procd|sdf|12101|dock7
  -GOLD-   2272017533D 1   1.00000     0.00000
 Structure written by MMmdl.
 33 34  0  0  0  0  0  0  0  0  1 V2000
  151.9494  138.4151  155.8994 C   0  0  0  0  0  0  0  0  0  0  0  0
  151.7362  139.8711  156.3622 C   0  0  2  0  0  0  0  0  0  0  0  0
  151.6784  140.0142  157.8933 C   0  0  0  0  0  0  0  0  0  0  0  0
  150.7884  139.4656  158.5446 O   0  0  0  0  0  0  0  0  0  0  0  0
  152.6505  140.7492  158.4575 N   0  0  0  0  0  0  0  0  0  0  0  0
  152.8067  140.9854  159.8878 C   0  0  0  0  0  0  0  0  0  0  0  0
  153.0530  142.4735  160.1836 C   0  0  1  0  0  0  0  0  0  0  0  0
  152.1996  143.4159  159.3379 C   0  0  0  0  0  0  0  0  0  0  0  0
  152.2099  144.6711  160.1800 C   0  0  0  0  0  0  0  0  0  0  0  0
  152.1452  144.1045  161.5964 C   0  0  0  0  0  0  0  0  0  0  0  0
  152.7071  142.7958  161.5282 O   0  0  0  0  0  0  0  0  0  0  0  0
  150.5614  140.4731  155.7406 N   0  0  0  0  0  0  0  0  0  0  0  0
  149.5345  141.1613  156.3552 C   0  0  0  0  0  0  0  0  0  0  0  0
  148.6377  141.5123  155.3873 C   0  0  0  0  0  0  0  0  0  0  0  0
  149.2030  140.9815  154.1948 C   0  0  0  0  0  0  0  0  0  0  0  0
  150.3487  140.3558  154.4088 N   0  0  0  0  0  0  0  0  0  0  0  0
  152.8636  137.9971  156.3226 H   0  0  0  0  0  0  0  0  0  0  0  0
  152.0394  138.3622  154.8141 H   0  0  0  0  0  0  0  0  0  0  0  0
  151.1227  137.7672  156.1939 H   0  0  0  0  0  0  0  0  0  0  0  0
  152.6035  140.4428  156.0282 H   0  0  0  0  0  0  0  0  0  0  0  0
  153.3417  141.1647  157.8502 H   0  0  0  0  0  0  0  0  0  0  0  0
  151.8865  140.6637  160.3762 H   0  0  0  0  0  0  0  0  0  0  0  0
  153.6065  140.3713  160.3050 H   0  0  0  0  0  0  0  0  0  0  0  0
  154.1063  142.7191  160.0365 H   0  0  0  0  0  0  0  0  0  0  0  0
  152.6005  143.5697  158.3357 H   0  0  0  0  0  0  0  0  0  0  0  0
  151.1807  143.0363  159.2461 H   0  0  0  0  0  0  0  0  0  0  0  0
  153.1471  145.2096  160.0334 H   0  0  0  0  0  0  0  0  0  0  0  0
  151.3869  145.3492  159.9531 H   0  0  0  0  0  0  0  0  0  0  0  0
  152.6803  144.7282  162.3128 H   0  0  0  0  0  0  0  0  0  0  0  0
  151.1105  144.0186  161.9296 H   0  0  0  0  0  0  0  0  0  0  0  0
  149.5270  141.3419  157.4201 H   0  0  0  0  0  0  0  0  0  0  0  0
  147.7165  142.0616  155.5126 H   0  0  0  0  0  0  0  0  0  0  0  0
  148.8163  141.0289  153.1874 H   0  0  0  0  0  0  0  0  0  0  0  0
  1  2  1  0  0  0  0
  1 17  1  0  0  0  0
  1 18  1  0  0  0  0
  1 19  1  0  0  0  0
  2  3  1  0  0  0  0
  2 12  1  0  0  0  0
  2 20  1  0  0  0  0
  3  4  2  0  0  0  0
  3  5  1  0  0  0  0
  5  6  1  0  0  0  0
  5 21  1  0  0  0  0
  6  7  1  0  0  0  0
  6 22  1  0  0  0  0
  6 23  1  0  0  0  0
  7 11  1  0  0  0  0
  7  8  1  0  0  0  0
  7 24  1  0  0  0  0
  8  9  1  0  0  0  0
  8 25  1  0  0  0  0
  8 26  1  0  0  0  0
  9 10  1  0  0  0  0
  9 27  1  0  0  0  0
  9 28  1  0  0  0  0
 10 11  1  0  0  0  0
 10 29  1  0  0  0  0
 10 30  1  0  0  0  0
 12 16  1  0  0  0  0
 12 13  1  0  0  0  0
 13 14  2  0  0  0  0
 13 31  1  0  0  0  0
 14 15  1  0  0  0  0
 14 32  1  0  0  0  0
 15 16  2  0  0  0  0
 15 33  1  0  0  0  0
M  END
> <s_m_source_file>
AV-unprocessed.smi

> <i_m_source_file_index>
3168

> <i_lp_mmshare_version>
43012

> <i_f3d_flags>
0

> <s_epik_input>
bjFbY0hdW2NIXVtjSF1uMVtDQEhdKFtDSDNdKUMoPU8pW05IXVtDSDJdW0NAQEhdMltDSDJdW0NIMl1bQ0gyXU8y

> <s_epik_cmdline>
J2VwaWtfcHl0aG9uJywgJy1waCcsICc3LjAnLCAnLXRuJywgJzgnLCAnLW1hJywgJzIwMCcsICctbWV0YWxfYmluZGluZycsICctaW1hZScsICc8aW5maWxlLm1hZT4nLCAnLW9tYWUnLCAnPG91dGZpbGUubWFlPic=

> <r_lp_tautomer_probability>
1

> <r_epik_Ionization_Penalty>
4.14877e-05

> <r_epik_Ionization_Penalty_Charging>
0

> <r_epik_Ionization_Penalty_Neutral>
4.14877e-05

> <r_epik_State_Penalty>
-0

> <r_epik_Charging_Adjusted_Penalty>
0

> <i_epik_Tot_Q>
0

> <i_epik_Tot_abs_Q>
0

> <r_epik_Metal_State_Penalty>
-0

> <b_epik_Metal_Only>
0

> <s_lp_Force_Field>
OPLS_2005

> <r_lp_Energy>
21.5397

> <b_lp_Chiralities_Consistent>
1

> <s_lp_Variant>
AV-unprocessed.smi:3168-3

> <Gold.Version>
5.8.1

> <Gold.Id.Protein>
6NUR|6NUR_protein|mol2

> <Gold.PLP.Fitness>
41.2187

> <Gold.PLP.PLP>
-36.0526

> <Gold.PLP.part.hbond>
-1.0000

> <Gold.PLP.part.metal>
0.0000

> <Gold.PLP.part.buried>
-3.2490

> <Gold.PLP.part.nonpolar>
-31.0140

> <Gold.PLP.part.repulsive>
0.2776

> <Gold.PLP.ligand.clash>
0.0000

> <Gold.PLP.ligand.torsion>
0.4500

> <Gold.PLP.Chemscore.Hbond>
1.0000

> <Gold.PLP.Chemscore.CHOScore>
0.9873

> <Gold.PLP.Chemscore.Metal>
0.0000

> <Gold.Chemscore.Hbonds>
donor molecule, donor type, donor heavy atom, donor atom, acceptor molecule, acceptor atom, score
      P1  H  7989  7998       L1    16  1.00
      L1  C    15    33       P1  7957  1.00

> <Gold.PLP.Chemscore.Internal.Correction>
0.1042

> <Gold.Rescore>
     Score         DG    S(hbond)    S(metal)    S(lipo)     H(rot)  DE(clash)    DE(int)     intcor
     13.80     -14.59       0.84        0.00      89.15       1.61       0.12       0.67       ----

> <Gold.Chemscore.Fitness>
13.7975

> <Gold.Chemscore.DG>
-14.5868

> <Gold.Chemscore.ZeroCoef>
-5.4800

> <Gold.Chemscore.Hbond>
0.8371

> <Gold.Chemscore.Metal>
0.0000

> <Gold.Chemscore.Lipo>
89.1526

> <Gold.Chemscore.Internal_Hbond>
0.0000

> <Gold.Chemscore.DEClash>
0.1191

> <Gold.Chemscore.DEInternal>
0.6702

> <Gold.Chemscore.Rot>
1.6094

> <Gold.Chemscore.Internal.Correction>
   9.000000E+99

> <Gold.Chemscore.Hbonds>
donor molecule, donor type, donor heavy atom, donor atom, acceptor molecule, acceptor atom, score
      P1  H  7989  7998       L1    16  0.76

> <Gold.Chemscore.Hbond.Weighted>
-2.7960

> <Gold.Chemscore.Metal.Weighted>
-0.0000

> <Gold.Chemscore.Lipo.Weighted>
-10.4309

> <Gold.Chemscore.Internal_Hbond.Weighted>
0.0000

> <Gold.Chemscore.DEClash.Weighted>
0.1191

> <Gold.Chemscore.DEInternal.Weighted>
0.6702

> <Gold.Chemscore.Rot.Weighted>
4.1201

> <Gold.Chemscore.Internal.Correction.Weighted>
   9.000000E+99

> <Gold.Protein.RotatedTorsions>
[ 6907 6896 6895 6894 ] final -152.10 input  -60.11 | X-H torsion
[ 7974 7965 7964 7962 ] final  -92.13 input  175.53 | X-H torsion
[ 8008 7997 7996 7995 ] final  144.35 input   59.86 | X-H torsion
[ 10167 10162 10161 10158 ] final  -83.93 input  -65.29 | X-H torsion
[ 10718 10713 10712 10709 ] final  147.58 input   66.30 | X-H torsion
[ 10763 10752 10751 10750 ] final    3.24 input  -60.55 | X-H torsion
[ 11005 11000 10999 10996 ] final  -38.56 input  -57.11 | X-H torsion

> <Gold.Protein.ActiveResidues>
 VAL166  LYS551  ARG553  GLY616  TRP617  ASP618  TYR619  PRO620  LYS621  CYS622 
 ASP623  PHE694  ASN695  SER759  ASP760  ASP761  ALA762  ILE779  LEU786  VAL792 
 PHE793  MET794  SER795  GLU796  ALA797  LYS798  CYS799  TRP800  GLU811  SER814 

> <Gold.Protein.RotatedAtoms>
  151.2228  133.4493  159.2601 H   0  0  0  0  0  0  0  0  0  0  0  0  # atno 6907 bound_to 6896
  151.0868  134.9892  159.8393 H   0  0  0  0  0  0  0  0  0  0  0  0  # atno 6908 bound_to 6896
  152.5430  134.2164  159.8823 H   0  0  0  0  0  0  0  0  0  0  0  0  # atno 6909 bound_to 6896
  145.4039  140.9539  143.2272 H   0  0  0  0  0  0  0  0  0  0  0  0  # atno 7974 bound_to 7965
  156.2910  140.2238  156.5039 H   0  0  0  0  0  0  0  0  0  0  0  0  # atno 8008 bound_to 7997
  154.7666  140.0469  157.1039 H   0  0  0  0  0  0  0  0  0  0  0  0  # atno 8009 bound_to 7997
  154.9925  140.3092  155.4903 H   0  0  0  0  0  0  0  0  0  0  0  0  # atno 8010 bound_to 7997
  140.4180  143.2596  151.8929 H   0  0  0  0  0  0  0  0  0  0  0  0  # atno 10167 bound_to 10162
  157.3193  131.0901  151.1254 H   0  0  0  0  0  0  0  0  0  0  0  0  # atno 10718 bound_to 10713
  153.2857  135.6944  153.7342 H   0  0  0  0  0  0  0  0  0  0  0  0  # atno 10763 bound_to 10752
  153.6312  135.3410  155.3043 H   0  0  0  0  0  0  0  0  0  0  0  0  # atno 10764 bound_to 10752
  154.8509  135.4409  154.1924 H   0  0  0  0  0  0  0  0  0  0  0  0  # atno 10765 bound_to 10752
  141.0036  133.6943  156.2069 H   0  0  0  0  0  0  0  0  0  0  0  0  # atno 11005 bound_to 11000
  144.8355  139.5557  143.6924 LP  0  0  0  0  0  0  0  0  0  0  0  0  # atno 17320 bound_to 7965
  146.2738  139.6702  142.9277 LP  0  0  0  0  0  0  0  0  0  0  0  0  # atno 17321 bound_to 7965
  139.4782  144.5467  151.8447 LP  0  0  0  0  0  0  0  0  0  0  0  0  # atno 17342 bound_to 10162
  140.4565  144.1782  150.5902 LP  0  0  0  0  0  0  0  0  0  0  0  0  # atno 17343 bound_to 10162
  157.2545  130.6630  149.5946 LP  0  0  0  0  0  0  0  0  0  0  0  0  # atno 17370 bound_to 10713
  155.9684  130.4528  150.5787 LP  0  0  0  0  0  0  0  0  0  0  0  0  # atno 17371 bound_to 10713
  140.6848  134.4728  157.5589 LP  0  0  0  0  0  0  0  0  0  0  0  0  # atno 17394 bound_to 11000
  139.9052  134.8466  156.1736 LP  0  0  0  0  0  0  0  0  0  0  0  0  # atno 17395 bound_to 11000

$$$$
