AV-unprocessed.smi:723|AV-procd|sdf|3506|dock7
  -GOLD-   22720 0503D 1   1.00000     0.00000
 Structure written by MMmdl.
 42 44  0  0  0  0  0  0  0  0  1 V2000
  151.6689  143.4599  158.1751 C   0  0  0  0  0  0  0  0  0  0  0  0
  150.3593  142.9320  158.2936 O   0  0  0  0  0  0  0  0  0  0  0  0
  150.2091  141.6996  157.6095 C   0  0  0  0  0  0  0  0  0  0  0  0
  150.5929  141.8940  156.1370 C   0  0  0  0  0  0  0  0  0  0  0  0
  150.2754  140.7241  155.3412 N   0  0  0  0  0  0  0  0  0  0  0  0
  149.0294  140.2468  154.9849 C   0  0  0  0  0  0  0  0  0  0  0  0
  149.2629  139.1236  154.2428 C   0  0  0  0  0  0  0  0  0  0  0  0
  148.3377  138.2417  153.6293 N   0  0  0  0  0  0  0  0  0  0  0  0
  147.0075  138.1986  153.8105 C   0  0  0  0  0  0  0  0  0  0  0  0
  146.3704  138.9442  154.5550 O   0  0  0  0  0  0  0  0  0  0  0  0
  146.4508  137.2301  153.0717 N   0  0  0  0  0  0  0  0  0  0  0  0
  145.0584  136.9114  153.0281 C   0  0  2  0  0  0  0  0  0  0  0  0
  144.6243  135.4683  153.2178 C   0  0  2  0  0  0  0  0  0  0  0  0
  145.5833  134.2916  153.3198 C   0  0  0  0  0  0  0  0  0  0  0  0
  145.3617  133.2929  152.1666 C   0  0  0  0  0  0  0  0  0  0  0  0
  145.2394  133.9496  150.7673 C   0  0  0  0  0  0  0  0  0  0  0  0
  145.3885  135.4835  150.7731 C   0  0  0  0  0  0  0  0  0  0  0  0
  144.5218  136.1085  151.8558 C   0  0  2  0  0  0  0  0  0  0  0  0
  150.6738  138.9796  154.1914 C   0  0  0  0  0  0  0  0  0  0  0  0
  151.2792  139.9517  154.8564 N   0  0  0  0  0  0  0  0  0  0  0  0
  151.7366  144.3998  158.7226 H   0  0  0  0  0  0  0  0  0  0  0  0
  151.9213  143.6584  157.1325 H   0  0  0  0  0  0  0  0  0  0  0  0
  152.4093  142.7749  158.5905 H   0  0  0  0  0  0  0  0  0  0  0  0
  150.8437  140.9391  158.0676 H   0  0  0  0  0  0  0  0  0  0  0  0
  149.1758  141.3564  157.6839 H   0  0  0  0  0  0  0  0  0  0  0  0
  150.0636  142.7516  155.7196 H   0  0  0  0  0  0  0  0  0  0  0  0
  151.6596  142.1035  156.0444 H   0  0  0  0  0  0  0  0  0  0  0  0
  148.1177  140.7397  155.2888 H   0  0  0  0  0  0  0  0  0  0  0  0
  148.7307  137.5725  152.9838 H   0  0  0  0  0  0  0  0  0  0  0  0
  147.0580  136.6704  152.4913 H   0  0  0  0  0  0  0  0  0  0  0  0
  144.3763  137.6612  153.4264 H   0  0  0  0  0  0  0  0  0  0  0  0
  143.6741  135.3055  153.7233 H   0  0  0  0  0  0  0  0  0  0  0  0
  146.6132  134.6459  153.2918 H   0  0  0  0  0  0  0  0  0  0  0  0
  145.4541  133.8021  154.2855 H   0  0  0  0  0  0  0  0  0  0  0  0
  146.1700  132.5610  152.1625 H   0  0  0  0  0  0  0  0  0  0  0  0
  144.4518  132.7253  152.3649 H   0  0  0  0  0  0  0  0  0  0  0  0
  145.9730  133.5149  150.0878 H   0  0  0  0  0  0  0  0  0  0  0  0
  144.2641  133.6965  150.3494 H   0  0  0  0  0  0  0  0  0  0  0  0
  146.4349  135.7416  150.9349 H   0  0  0  0  0  0  0  0  0  0  0  0
  145.1147  135.9020  149.8042 H   0  0  0  0  0  0  0  0  0  0  0  0
  143.5082  136.3349  151.5297 H   0  0  0  0  0  0  0  0  0  0  0  0
  151.2665  138.2196  153.7038 H   0  0  0  0  0  0  0  0  0  0  0  0
  1  2  1  0  0  0  0
  1 21  1  0  0  0  0
  1 22  1  0  0  0  0
  1 23  1  0  0  0  0
  2  3  1  0  0  0  0
  3  4  1  0  0  0  0
  3 24  1  0  0  0  0
  3 25  1  0  0  0  0
  4  5  1  0  0  0  0
  4 26  1  0  0  0  0
  4 27  1  0  0  0  0
  5 20  1  0  0  0  0
  5  6  1  0  0  0  0
  6  7  2  0  0  0  0
  6 28  1  0  0  0  0
  7  8  1  0  0  0  0
  7 19  1  0  0  0  0
  8  9  1  0  0  0  0
  8 29  1  0  0  0  0
  9 10  2  0  0  0  0
  9 11  1  0  0  0  0
 11 12  1  0  0  0  0
 11 30  1  0  0  0  0
 12 18  1  0  0  0  0
 12 13  1  0  0  0  0
 12 31  1  0  0  0  0
 13 18  1  0  0  0  0
 13 14  1  0  0  0  0
 13 32  1  0  0  0  0
 14 15  1  0  0  0  0
 14 33  1  0  0  0  0
 14 34  1  0  0  0  0
 15 16  1  0  0  0  0
 15 35  1  0  0  0  0
 15 36  1  0  0  0  0
 16 17  1  0  0  0  0
 16 37  1  0  0  0  0
 16 38  1  0  0  0  0
 17 18  1  0  0  0  0
 17 39  1  0  0  0  0
 17 40  1  0  0  0  0
 18 41  1  0  0  0  0
 19 20  2  0  0  0  0
 19 42  1  0  0  0  0
M  END
> <s_m_source_file>
AV-unprocessed.smi

> <i_m_source_file_index>
723

> <i_lp_mmshare_version>
43012

> <i_f3d_flags>
0

> <s_epik_input>
W0NIM11PW0NIMl1bQ0gyXW4xW2NIXWMoW2NIXW4xKVtOSF1DKD1PKVtOSF1bQ0BIXTJbQ0BASF0oW0NAQEhdMjMpW0NIMl1bQ0gyXVtDSDJdW0NIMl0z

> <s_epik_cmdline>
J2VwaWtfcHl0aG9uJywgJy1waCcsICc3LjAnLCAnLXRuJywgJzgnLCAnLW1hJywgJzIwMCcsICctbWV0YWxfYmluZGluZycsICctaW1hZScsICc8aW5maWxlLm1hZT4nLCAnLW9tYWUnLCAnPG91dGZpbGUubWFlPic=

> <r_lp_tautomer_probability>
1

> <r_epik_Ionization_Penalty>
0.00031755

> <r_epik_Ionization_Penalty_Charging>
0

> <r_epik_Ionization_Penalty_Neutral>
0.00031755

> <r_epik_State_Penalty>
-0

> <r_epik_Charging_Adjusted_Penalty>
0

> <i_epik_Tot_Q>
0

> <i_epik_Tot_abs_Q>
0

> <r_epik_Metal_State_Penalty>
-0

> <b_epik_Metal_Only>
0

> <s_lp_Force_Field>
OPLS_2005

> <r_lp_Energy>
44.2387

> <b_lp_Chiralities_Consistent>
1

> <s_lp_Variant>
AV-unprocessed.smi:723-2

> <Gold.Version>
5.8.1

> <Gold.Id.Protein>
6NUR|6NUR_protein|mol2

> <Gold.PLP.Fitness>
39.6591

> <Gold.PLP.PLP>
-32.2276

> <Gold.PLP.part.hbond>
-3.1340

> <Gold.PLP.part.metal>
0.0000

> <Gold.PLP.part.buried>
-4.5672

> <Gold.PLP.part.nonpolar>
-24.6122

> <Gold.PLP.part.repulsive>
0.3053

> <Gold.PLP.ligand.clash>
0.0000

> <Gold.PLP.ligand.torsion>
0.3211

> <Gold.PLP.Chemscore.Hbond>
2.6720

> <Gold.PLP.Chemscore.CHOScore>
0.0000

> <Gold.PLP.Chemscore.Metal>
0.0000

> <Gold.Chemscore.Hbonds>
donor molecule, donor type, donor heavy atom, donor atom, acceptor molecule, acceptor atom, score
      L1  H     8    29       P1  7948  1.00
      L1  H    11    30       P1  7948  0.98
      P1  H  7989  7998       L1    20  0.72

> <Gold.PLP.Chemscore.Internal.Correction>
0.0577

> <Gold.Rescore>
     Score         DG    S(hbond)    S(metal)    S(lipo)     H(rot)  DE(clash)    DE(int)     intcor
     15.62     -16.91       1.97        0.00      75.53       1.56       0.03       1.25       ----

> <Gold.Chemscore.Fitness>
15.6249

> <Gold.Chemscore.DG>
-16.9086

> <Gold.Chemscore.ZeroCoef>
-5.4800

> <Gold.Chemscore.Hbond>
1.9738

> <Gold.Chemscore.Metal>
0.0000

> <Gold.Chemscore.Lipo>
75.5265

> <Gold.Chemscore.Internal_Hbond>
0.0000

> <Gold.Chemscore.DEClash>
0.0348

> <Gold.Chemscore.DEInternal>
1.2489

> <Gold.Chemscore.Rot>
1.5627

> <Gold.Chemscore.Internal.Correction>
   9.000000E+99

> <Gold.Chemscore.Hbonds>
donor molecule, donor type, donor heavy atom, donor atom, acceptor molecule, acceptor atom, score
      L1  H     8    29       P1  7948  1.00
      L1  H    11    30       P1  7948  0.86
      P1  H  7989  7998       L1    20  0.02

> <Gold.Chemscore.Hbond.Weighted>
-6.5924

> <Gold.Chemscore.Metal.Weighted>
-0.0000

> <Gold.Chemscore.Lipo.Weighted>
-8.8366

> <Gold.Chemscore.Internal_Hbond.Weighted>
0.0000

> <Gold.Chemscore.DEClash.Weighted>
0.0348

> <Gold.Chemscore.DEInternal.Weighted>
1.2489

> <Gold.Chemscore.Rot.Weighted>
4.0005

> <Gold.Chemscore.Internal.Correction.Weighted>
   9.000000E+99

> <Gold.Protein.RotatedTorsions>
[ 6907 6896 6895 6894 ] final  127.66 input  -60.11 | X-H torsion
[ 7974 7965 7964 7962 ] final  171.19 input  175.53 | X-H torsion
[ 8008 7997 7996 7995 ] final  148.91 input   59.86 | X-H torsion
[ 10167 10162 10161 10158 ] final  113.72 input  -65.29 | X-H torsion
[ 10718 10713 10712 10709 ] final -156.08 input   66.30 | X-H torsion
[ 10763 10752 10751 10750 ] final  164.26 input  -60.55 | X-H torsion
[ 11005 11000 10999 10996 ] final   61.70 input  -57.11 | X-H torsion

> <Gold.Protein.ActiveResidues>
 VAL166  LYS551  ARG553  GLY616  TRP617  ASP618  TYR619  PRO620  LYS621  CYS622 
 ASP623  PHE694  ASN695  SER759  ASP760  ASP761  ALA762  ILE779  LEU786  VAL792 
 PHE793  MET794  SER795  GLU796  ALA797  LYS798  CYS799  TRP800  GLU811  SER814 

> <Gold.Protein.RotatedAtoms>
  152.3792  133.6522  159.6147 H   0  0  0  0  0  0  0  0  0  0  0  0  # atno 6907 bound_to 6896
  150.7727  133.9142  159.3387 H   0  0  0  0  0  0  0  0  0  0  0  0  # atno 6908 bound_to 6896
  151.6951  135.0941  160.0292 H   0  0  0  0  0  0  0  0  0  0  0  0  # atno 6909 bound_to 6896
  144.7302  139.9313  143.6425 H   0  0  0  0  0  0  0  0  0  0  0  0  # atno 7974 bound_to 7965
  156.2774  140.2116  156.5774 H   0  0  0  0  0  0  0  0  0  0  0  0  # atno 8008 bound_to 7997
  154.7087  140.0514  157.0552 H   0  0  0  0  0  0  0  0  0  0  0  0  # atno 8009 bound_to 7997
  155.0636  140.3169  155.4656 H   0  0  0  0  0  0  0  0  0  0  0  0  # atno 8010 bound_to 7997
  139.6440  144.7125  151.2179 H   0  0  0  0  0  0  0  0  0  0  0  0  # atno 10167 bound_to 10162
  156.5217  130.8481  151.2684 H   0  0  0  0  0  0  0  0  0  0  0  0  # atno 10718 bound_to 10713
  154.3062  135.2758  155.2588 H   0  0  0  0  0  0  0  0  0  0  0  0  # atno 10763 bound_to 10752
  154.5003  135.5810  153.6529 H   0  0  0  0  0  0  0  0  0  0  0  0  # atno 10764 bound_to 10752
  152.9894  135.6156  154.3236 H   0  0  0  0  0  0  0  0  0  0  0  0  # atno 10765 bound_to 10752
  140.0143  134.6248  155.9733 H   0  0  0  0  0  0  0  0  0  0  0  0  # atno 11005 bound_to 11000
  146.0855  139.3843  143.0438 LP  0  0  0  0  0  0  0  0  0  0  0  0  # atno 17320 bound_to 7965
  145.7783  140.9867  143.1113 LP  0  0  0  0  0  0  0  0  0  0  0  0  # atno 17321 bound_to 7965
  140.7505  143.6262  150.8466 LP  0  0  0  0  0  0  0  0  0  0  0  0  # atno 17342 bound_to 10162
  139.9903  143.5855  152.2912 LP  0  0  0  0  0  0  0  0  0  0  0  0  # atno 17343 bound_to 10162
  157.7436  130.9915  150.2603 LP  0  0  0  0  0  0  0  0  0  0  0  0  # atno 17370 bound_to 10713
  156.3143  130.3776  149.7633 LP  0  0  0  0  0  0  0  0  0  0  0  0  # atno 17371 bound_to 10713
  141.1732  133.6538  156.4730 LP  0  0  0  0  0  0  0  0  0  0  0  0  # atno 17394 bound_to 11000
  140.4498  134.6939  157.5034 LP  0  0  0  0  0  0  0  0  0  0  0  0  # atno 17395 bound_to 11000

$$$$
