AV-unprocessed.smi:3202|AV-procd|sdf|12244|dock3
  -GOLD-   2272018 73D 1   1.00000     0.00000
 Structure written by MMmdl.
 43 44  0  0  0  0  0  0  0  0  2 V2000
  146.8507  138.5607  152.2714 C   0  0  0  0  0  0  0  0  0  0  0  0
  147.8716  139.3779  152.9871 C   0  0  0  0  0  0  0  0  0  0  0  0
  147.7799  140.5803  153.6296 C   0  0  0  0  0  0  0  0  0  0  0  0
  149.1005  140.8270  154.1071 C   0  0  0  0  0  0  0  0  0  0  0  0
  149.5889  142.0103  154.8987 C   0  0  0  0  0  0  0  0  0  0  0  0
  150.3061  141.6226  156.2083 C   0  0  1  0  0  0  0  0  0  0  0  0
  151.4101  140.5698  156.0132 C   0  0  0  0  0  0  0  0  0  0  0  0
  150.8892  142.8352  156.8248 N   0  3  0  0  0  0  0  0  0  0  0  0
  151.1271  142.7606  158.2845 C   0  0  1  0  0  0  0  0  0  0  0  0
  152.1817  141.7166  158.6787 C   0  0  0  0  0  0  0  0  0  0  0  0
  152.7508  142.1984  160.0196 C   0  0  0  0  0  0  0  0  0  0  0  0
  152.1815  143.6065  160.2508 C   0  0  0  0  0  0  0  0  0  0  0  0
  151.6324  144.0857  158.8944 C   0  0  0  0  0  0  0  0  0  0  0  0
  152.7694  144.7318  158.0685 C   0  0  0  0  0  0  0  0  0  0  0  0
  150.4910  145.1025  159.0835 C   0  0  0  0  0  0  0  0  0  0  0  0
  149.9430  139.8551  153.7863 N   0  0  0  0  0  0  0  0  0  0  0  0
  149.1828  138.9784  153.1046 N   0  0  0  0  0  0  0  0  0  0  0  0
  149.5671  138.1227  152.7285 H   0  0  0  0  0  0  0  0  0  0  0  0
  145.8915  139.0780  152.2367 H   0  0  0  0  0  0  0  0  0  0  0  0
  146.6994  137.6044  152.7725 H   0  0  0  0  0  0  0  0  0  0  0  0
  147.1625  138.3613  151.2459 H   0  0  0  0  0  0  0  0  0  0  0  0
  146.8984  141.1938  153.7427 H   0  0  0  0  0  0  0  0  0  0  0  0
  150.2552  142.6166  154.2827 H   0  0  0  0  0  0  0  0  0  0  0  0
  148.7404  142.6545  155.1336 H   0  0  0  0  0  0  0  0  0  0  0  0
  149.5596  141.1990  156.8820 H   0  0  0  0  0  0  0  0  0  0  0  0
  151.0050  139.6242  155.6530 H   0  0  0  0  0  0  0  0  0  0  0  0
  151.9211  140.3588  156.9530 H   0  0  0  0  0  0  0  0  0  0  0  0
  152.1593  140.9073  155.2960 H   0  0  0  0  0  0  0  0  0  0  0  0
  151.7640  143.0457  156.3660 H   0  0  0  0  0  0  0  0  0  0  0  0
  150.1853  142.4978  158.7708 H   0  0  0  0  0  0  0  0  0  0  0  0
  151.7611  140.7131  158.7495 H   0  0  0  0  0  0  0  0  0  0  0  0
  152.9819  141.6817  157.9379 H   0  0  0  0  0  0  0  0  0  0  0  0
  152.4713  141.5309  160.8354 H   0  0  0  0  0  0  0  0  0  0  0  0
  153.8404  142.2223  159.9787 H   0  0  0  0  0  0  0  0  0  0  0  0
  151.3693  143.5365  160.9761 H   0  0  0  0  0  0  0  0  0  0  0  0
  152.9220  144.2871  160.6731 H   0  0  0  0  0  0  0  0  0  0  0  0
  153.1752  145.6050  158.5806 H   0  0  0  0  0  0  0  0  0  0  0  0
  152.4183  145.0694  157.0930 H   0  0  0  0  0  0  0  0  0  0  0  0
  153.5980  144.0436  157.9002 H   0  0  0  0  0  0  0  0  0  0  0  0
  150.8449  145.9996  159.5931 H   0  0  0  0  0  0  0  0  0  0  0  0
  149.6763  144.6887  159.6788 H   0  0  0  0  0  0  0  0  0  0  0  0
  150.0725  145.4118  158.1253 H   0  0  0  0  0  0  0  0  0  0  0  0
  150.2517  143.6000  156.6555 H   0  0  0  0  0  0  0  0  0  0  0  0
  1  2  1  0  0  0  0
  1 19  1  0  0  0  0
  1 20  1  0  0  0  0
  1 21  1  0  0  0  0
  2 17  1  0  0  0  0
  2  3  2  0  0  0  0
  3  4  1  0  0  0  0
  3 22  1  0  0  0  0
  4  5  1  0  0  0  0
  4 16  2  0  0  0  0
  5  6  1  0  0  0  0
  5 23  1  0  0  0  0
  5 24  1  0  0  0  0
  6  7  1  0  0  0  0
  6  8  1  0  0  0  0
  6 25  1  0  0  0  0
  7 26  1  0  0  0  0
  7 27  1  0  0  0  0
  7 28  1  0  0  0  0
  8  9  1  0  0  0  0
  8 29  1  0  0  0  0
  8 43  1  0  0  0  0
  9 13  1  0  0  0  0
  9 10  1  0  0  0  0
  9 30  1  0  0  0  0
 10 11  1  0  0  0  0
 10 31  1  0  0  0  0
 10 32  1  0  0  0  0
 11 12  1  0  0  0  0
 11 33  1  0  0  0  0
 11 34  1  0  0  0  0
 12 13  1  0  0  0  0
 12 35  1  0  0  0  0
 12 36  1  0  0  0  0
 13 14  1  0  0  0  0
 13 15  1  0  0  0  0
 14 37  1  0  0  0  0
 14 38  1  0  0  0  0
 14 39  1  0  0  0  0
 15 40  1  0  0  0  0
 15 41  1  0  0  0  0
 15 42  1  0  0  0  0
 16 17  1  0  0  0  0
 17 18  1  0  0  0  0
M  CHG  1   8   1
M  END
> <s_m_source_file>
AV-unprocessed.smi

> <i_m_source_file_index>
3202

> <i_lp_mmshare_version>
43012

> <i_f3d_flags>
0

> <s_epik_input>
W0NIM11jMVtjSF1jKG5bbkhdMSlbQ0gyXVtDQEhdKFtDSDNdKVtOSF1bQ0BASF0oQzIoW0NIM10pW0NIM10pW0NIMl1bQ0gyXVtDSDJdMg==

> <s_epik_cmdline>
J2VwaWtfcHl0aG9uJywgJy1waCcsICc3LjAnLCAnLXRuJywgJzgnLCAnLW1hJywgJzIwMCcsICctbWV0YWxfYmluZGluZycsICctaW1hZScsICc8aW5maWxlLm1hZT4nLCAnLW9tYWUnLCAnPG91dGZpbGUubWFlPic=

> <r_lp_tautomer_probability>
0.5

> <r_epik_Ionization_Penalty>
0.000341671

> <r_epik_Ionization_Penalty_Charging>
0.000281809

> <r_epik_Ionization_Penalty_Neutral>
5.9862e-05

> <r_epik_State_Penalty>
0.41068

> <r_epik_Charging_Adjusted_Penalty>
0.410962

> <i_epik_Tot_Q>
1

> <i_epik_Tot_abs_Q>
1

> <r_epik_Metal_State_Penalty>
0.410672

> <b_epik_Metal_Only>
0

> <s_lp_Force_Field>
OPLS_2005

> <r_lp_Energy>
30.3083

> <b_lp_Chiralities_Consistent>
1

> <s_lp_Variant>
AV-unprocessed.smi:3202-4

> <Gold.Version>
5.8.1

> <Gold.Id.Protein>
6NUR|6NUR_protein|mol2

> <Gold.PLP.Fitness>
50.8797

> <Gold.PLP.PLP>
-41.1614

> <Gold.PLP.part.hbond>
-3.6965

> <Gold.PLP.part.metal>
0.0000

> <Gold.PLP.part.buried>
-0.7297

> <Gold.PLP.part.nonpolar>
-39.6745

> <Gold.PLP.part.repulsive>
2.6368

> <Gold.PLP.ligand.clash>
0.0000

> <Gold.PLP.ligand.torsion>
0.2897

> <Gold.PLP.Chemscore.Hbond>
3.4251

> <Gold.PLP.Chemscore.CHOScore>
0.0000

> <Gold.PLP.Chemscore.Metal>
0.0000

> <Gold.Chemscore.Hbonds>
donor molecule, donor type, donor heavy atom, donor atom, acceptor molecule, acceptor atom, score
      L1  H     8    43       P1  8028  2.00
      L1  H    17    18       P1  7948  0.65
      P1  H  7989  7998       L1    16  0.83

> <Gold.PLP.Chemscore.Internal.Correction>
0.0225

> <Gold.Rescore>
     Score         DG    S(hbond)    S(metal)    S(lipo)     H(rot)  DE(clash)    DE(int)     intcor
     19.01     -23.34       1.96        0.00     128.81       1.46       1.71       2.62       ----

> <Gold.Chemscore.Fitness>
19.0134

> <Gold.Chemscore.DG>
-23.3443

> <Gold.Chemscore.ZeroCoef>
-5.4800

> <Gold.Chemscore.Hbond>
1.9551

> <Gold.Chemscore.Metal>
0.0000

> <Gold.Chemscore.Lipo>
128.8096

> <Gold.Chemscore.Internal_Hbond>
0.0000

> <Gold.Chemscore.DEClash>
1.7103

> <Gold.Chemscore.DEInternal>
2.6207

> <Gold.Chemscore.Rot>
1.4596

> <Gold.Chemscore.Internal.Correction>
   9.000000E+99

> <Gold.Chemscore.Hbonds>
donor molecule, donor type, donor heavy atom, donor atom, acceptor molecule, acceptor atom, score
      L1  H     8    43       P1  8028  0.94
      L1  H    17    18       P1  7948  0.46
      P1  H  7989  7998       L1    16  0.24

> <Gold.Chemscore.Hbond.Weighted>
-6.5301

> <Gold.Chemscore.Metal.Weighted>
-0.0000

> <Gold.Chemscore.Lipo.Weighted>
-15.0707

> <Gold.Chemscore.Internal_Hbond.Weighted>
0.0000

> <Gold.Chemscore.DEClash.Weighted>
1.7103

> <Gold.Chemscore.DEInternal.Weighted>
2.6207

> <Gold.Chemscore.Rot.Weighted>
3.7365

> <Gold.Chemscore.Internal.Correction.Weighted>
   9.000000E+99

> <Gold.Protein.RotatedTorsions>
[ 6907 6896 6895 6894 ] final  127.56 input  -60.11 | X-H torsion
[ 7974 7965 7964 7962 ] final   34.99 input  175.53 | X-H torsion
[ 8008 7997 7996 7995 ] final  -11.55 input   59.86 | X-H torsion
[ 10167 10162 10161 10158 ] final -156.14 input  -65.29 | X-H torsion
[ 10718 10713 10712 10709 ] final  104.23 input   66.30 | X-H torsion
[ 10763 10752 10751 10750 ] final   82.79 input  -60.55 | X-H torsion
[ 11005 11000 10999 10996 ] final  -27.51 input  -57.11 | X-H torsion

> <Gold.Protein.ActiveResidues>
 VAL166  LYS551  ARG553  GLY616  TRP617  ASP618  TYR619  PRO620  LYS621  CYS622 
 ASP623  PHE694  ASN695  SER759  ASP760  ASP761  ALA762  ILE779  LEU786  VAL792 
 PHE793  MET794  SER795  GLU796  ALA797  LYS798  CYS799  TRP800  GLU811  SER814 

> <Gold.Protein.RotatedAtoms>
  152.3801  133.6535  159.6154 H   0  0  0  0  0  0  0  0  0  0  0  0  # atno 6907 bound_to 6896
  150.7734  133.9128  159.3383 H   0  0  0  0  0  0  0  0  0  0  0  0  # atno 6908 bound_to 6896
  151.6935  135.0944  160.0289 H   0  0  0  0  0  0  0  0  0  0  0  0  # atno 6909 bound_to 6896
  146.1314  139.6198  142.9224 H   0  0  0  0  0  0  0  0  0  0  0  0  # atno 7974 bound_to 7965
  154.5454  140.2299  155.8571 H   0  0  0  0  0  0  0  0  0  0  0  0  # atno 8008 bound_to 7997
  156.1898  140.3080  155.9272 H   0  0  0  0  0  0  0  0  0  0  0  0  # atno 8009 bound_to 7997
  155.3174  140.0439  157.3028 H   0  0  0  0  0  0  0  0  0  0  0  0  # atno 8010 bound_to 7997
  139.6874  143.9478  152.2368 H   0  0  0  0  0  0  0  0  0  0  0  0  # atno 10167 bound_to 10162
  157.6747  131.0799  150.5675 H   0  0  0  0  0  0  0  0  0  0  0  0  # atno 10718 bound_to 10713
  153.1234  135.4715  154.9232 H   0  0  0  0  0  0  0  0  0  0  0  0  # atno 10763 bound_to 10752
  154.7597  135.3128  154.8405 H   0  0  0  0  0  0  0  0  0  0  0  0  # atno 10764 bound_to 10752
  153.8964  135.6879  153.4811 H   0  0  0  0  0  0  0  0  0  0  0  0  # atno 10765 bound_to 10752
  140.9126  133.7451  156.0691 H   0  0  0  0  0  0  0  0  0  0  0  0  # atno 11005 bound_to 11000
  145.5252  141.0430  143.2413 LP  0  0  0  0  0  0  0  0  0  0  0  0  # atno 17320 bound_to 7965
  144.7694  139.6769  143.7201 LP  0  0  0  0  0  0  0  0  0  0  0  0  # atno 17321 bound_to 7965
  139.9285  144.6756  150.8388 LP  0  0  0  0  0  0  0  0  0  0  0  0  # atno 17342 bound_to 10162
  140.7672  143.3325  151.2379 LP  0  0  0  0  0  0  0  0  0  0  0  0  # atno 17343 bound_to 10162
  156.5977  130.4346  149.5910 LP  0  0  0  0  0  0  0  0  0  0  0  0  # atno 17370 bound_to 10713
  156.2532  130.6919  151.1663 LP  0  0  0  0  0  0  0  0  0  0  0  0  # atno 17371 bound_to 10713
  140.8091  134.3420  157.5417 LP  0  0  0  0  0  0  0  0  0  0  0  0  # atno 17394 bound_to 11000
  139.8760  134.9243  156.3347 LP  0  0  0  0  0  0  0  0  0  0  0  0  # atno 17395 bound_to 11000

$$$$
