AV-unprocessed.smi:35|AV-procd|sdf|278|dock4
  -GOLD-   2262016 53D 1   1.00000     0.00000
 Structure written by MMmdl.
 28 29  0  0  0  0  0  0  0  0  2 V2000
  154.3831  141.3430  159.9551 O   0  0  0  0  0  0  0  0  0  0  0  0
  153.5841  140.7679  159.2186 C   0  0  0  0  0  0  0  0  0  0  0  0
  153.8277  139.5406  158.6754 N   0  5  0  0  0  0  0  0  0  0  0  0
  152.9427  138.9121  157.8471 C   0  0  0  0  0  0  0  0  0  0  0  0
  153.1496  137.7980  157.3655 O   0  0  0  0  0  0  0  0  0  0  0  0
  151.7216  139.5641  157.5165 N   0  0  0  0  0  0  0  0  0  0  0  0
  150.7447  138.8546  156.5942 C   0  0  1  0  0  0  0  0  0  0  0  0
  149.6871  139.7153  156.2816 O   0  0  0  0  0  0  0  0  0  0  0  0
  149.9286  140.3335  155.0211 C   0  0  2  0  0  0  0  0  0  0  0  0
  148.6422  140.9501  154.4461 C   0  0  0  0  0  0  0  0  0  0  0  0
  148.7820  141.1386  153.0543 O   0  0  0  0  0  0  0  0  0  0  0  0
  150.5335  139.1791  154.2165 C   0  0  2  0  0  0  0  0  0  0  0  0
  149.5109  138.3298  153.7204 O   0  0  0  0  0  0  0  0  0  0  0  0
  151.4205  138.4903  155.2533 C   0  0  2  0  0  0  0  0  0  0  0  0
  151.5272  137.0956  155.0382 O   0  0  0  0  0  0  0  0  0  0  0  0
  151.4354  140.7986  158.0797 C   0  0  0  0  0  0  0  0  0  0  0  0
  152.3121  141.4102  158.9015 C   0  0  0  0  0  0  0  0  0  0  0  0
  151.7709  143.1736  159.6258 Br  0  0  0  0  0  0  0  0  0  0  0  0
  150.3720  138.0029  157.1661 H   0  0  0  0  0  0  0  0  0  0  0  0
  150.6931  141.1048  155.1324 H   0  0  0  0  0  0  0  0  0  0  0  0
  147.8000  140.2756  154.6028 H   0  0  0  0  0  0  0  0  0  0  0  0
  148.3993  141.8954  154.9326 H   0  0  0  0  0  0  0  0  0  0  0  0
  149.1432  140.3481  152.6826 H   0  0  0  0  0  0  0  0  0  0  0  0
  151.1158  139.5392  153.3678 H   0  0  0  0  0  0  0  0  0  0  0  0
  149.9032  137.7218  153.1119 H   0  0  0  0  0  0  0  0  0  0  0  0
  152.4174  138.9325  155.2192 H   0  0  0  0  0  0  0  0  0  0  0  0
  150.6835  136.7789  154.7509 H   0  0  0  0  0  0  0  0  0  0  0  0
  150.5005  141.2961  157.8736 H   0  0  0  0  0  0  0  0  0  0  0  0
  1  2  2  0  0  0  0
  2 17  1  0  0  0  0
  2  3  1  0  0  0  0
  3  4  1  0  0  0  0
  4  5  2  0  0  0  0
  4  6  1  0  0  0  0
  6  7  1  0  0  0  0
  6 16  1  0  0  0  0
  7 14  1  0  0  0  0
  7  8  1  0  0  0  0
  7 19  1  0  0  0  0
  8  9  1  0  0  0  0
  9 10  1  0  0  0  0
  9 12  1  0  0  0  0
  9 20  1  0  0  0  0
 10 11  1  0  0  0  0
 10 21  1  0  0  0  0
 10 22  1  0  0  0  0
 11 23  1  0  0  0  0
 12 13  1  0  0  0  0
 12 14  1  0  0  0  0
 12 24  1  0  0  0  0
 13 25  1  0  0  0  0
 14 15  1  0  0  0  0
 14 26  1  0  0  0  0
 15 27  1  0  0  0  0
 16 17  2  0  0  0  0
 16 28  1  0  0  0  0
 17 18  1  0  0  0  0
M  CHG  1   3  -1
M  END
> <s_m_source_file>
AV-unprocessed.smi

> <i_m_source_file_index>
35

> <i_lp_mmshare_version>
43012

> <i_f3d_flags>
0

> <s_epik_input>
Tz1jMVtuSF1jKD1PKW4oW2NIXWMxQnIpW0NAQEhdMk9bQ0BASF0oW0NIMl1bT0hdKVtDQEBIXShbT0hdKVtDQEhdMltPSF0=

> <s_epik_cmdline>
J2VwaWtfcHl0aG9uJywgJy1waCcsICc3LjAnLCAnLXRuJywgJzgnLCAnLW1hJywgJzIwMCcsICctbWV0YWxfYmluZGluZycsICctaW1hZScsICc8aW5maWxlLm1hZT4nLCAnLW9tYWUnLCAnPG91dGZpbGUubWFlPic=

> <r_epik_Ionization_Penalty>
1.06112

> <r_epik_Ionization_Penalty_Charging>
2.1796e-09

> <r_epik_Ionization_Penalty_Neutral>
1.06112

> <r_epik_State_Penalty>
1.11484

> <r_epik_Charging_Adjusted_Penalty>
1.11484

> <i_epik_Tot_Q>
-1

> <i_epik_Tot_abs_Q>
1

> <r_epik_Metal_State_Penalty>
0.0032876

> <b_epik_Metal_Only>
0

> <s_epik_Chemistry_Notes>
This compound contains an acetal/aminal-like group ( X-CH(R)-Y where X, Y are N, S, or O) that may be acid/base labile, releasing an aldehyde.

> <s_lp_Force_Field>
OPLS_2005

> <r_lp_Energy>
41.3474

> <b_lp_Chiralities_Consistent>
1

> <s_lp_Variant>
AV-unprocessed.smi:35-32

> <Gold.Version>
5.8.1

> <Gold.Id.Protein>
6NUR|6NUR_protein|mol2

> <Gold.PLP.Fitness>
39.8739

> <Gold.PLP.PLP>
-26.2210

> <Gold.PLP.part.hbond>
-5.0138

> <Gold.PLP.part.metal>
0.0000

> <Gold.PLP.part.buried>
-0.8647

> <Gold.PLP.part.nonpolar>
-18.9676

> <Gold.PLP.part.repulsive>
0.0000

> <Gold.PLP.ligand.clash>
0.0000

> <Gold.PLP.ligand.torsion>
0.2318

> <Gold.PLP.Chemscore.Hbond>
4.6989

> <Gold.PLP.Chemscore.CHOScore>
0.0000

> <Gold.PLP.Chemscore.Metal>
0.0000

> <Gold.Chemscore.Hbonds>
donor molecule, donor type, donor heavy atom, donor atom, acceptor molecule, acceptor atom, score
      L1  H    11    23       P1  7957  0.58
      L1  H    13    25       P1  7948  0.49
      P1  H  7997  8009       L1     3  1.60
      P1  H  8011  8017       L1    11  1.00
      P1  H 10752 10763       L1    15  0.81

> <Gold.PLP.Chemscore.Internal.Correction>
0.0199

> <Gold.Rescore>
     Score         DG    S(hbond)    S(metal)    S(lipo)     H(rot)  DE(clash)    DE(int)     intcor
      9.11      -9.76       2.08        0.00      56.64       3.63       0.25       0.40       ----

> <Gold.Chemscore.Fitness>
9.1131

> <Gold.Chemscore.DG>
-9.7640

> <Gold.Chemscore.ZeroCoef>
-5.4800

> <Gold.Chemscore.Hbond>
2.0777

> <Gold.Chemscore.Metal>
0.0000

> <Gold.Chemscore.Lipo>
56.6446

> <Gold.Chemscore.Internal_Hbond>
0.0000

> <Gold.Chemscore.DEClash>
0.2468

> <Gold.Chemscore.DEInternal>
0.4041

> <Gold.Chemscore.Rot>
3.6261

> <Gold.Chemscore.Internal.Correction>
   9.000000E+99

> <Gold.Chemscore.Hbonds>
donor molecule, donor type, donor heavy atom, donor atom, acceptor molecule, acceptor atom, score
      L1  H    11    23       P1  7957  0.58
      L1  H    13    25       P1  7948  0.21
      P1  H  7997  8009       L1     3  0.03
      P1  H  8011  8017       L1    11  0.39
      P1  H 10752 10763       L1    15  0.43

> <Gold.Chemscore.Hbond.Weighted>
-6.9394

> <Gold.Chemscore.Metal.Weighted>
-0.0000

> <Gold.Chemscore.Lipo.Weighted>
-6.6274

> <Gold.Chemscore.Internal_Hbond.Weighted>
0.0000

> <Gold.Chemscore.DEClash.Weighted>
0.2468

> <Gold.Chemscore.DEInternal.Weighted>
0.4041

> <Gold.Chemscore.Rot.Weighted>
9.2828

> <Gold.Chemscore.Internal.Correction.Weighted>
   9.000000E+99

> <Gold.Protein.RotatedTorsions>
[ 6907 6896 6895 6894 ] final   73.14 input  -60.11 | X-H torsion
[ 7974 7965 7964 7962 ] final   49.08 input  175.53 | X-H torsion
[ 8008 7997 7996 7995 ] final  121.75 input   59.86 | X-H torsion
[ 10167 10162 10161 10158 ] final -141.84 input  -65.29 | X-H torsion
[ 10718 10713 10712 10709 ] final   11.51 input   66.30 | X-H torsion
[ 10763 10752 10751 10750 ] final   51.71 input  -60.55 | X-H torsion
[ 11005 11000 10999 10996 ] final   56.96 input  -57.11 | X-H torsion

> <Gold.Protein.ActiveResidues>
 VAL166  LYS551  ARG553  GLY616  TRP617  ASP618  TYR619  PRO620  LYS621  CYS622 
 ASP623  PHE694  ASN695  SER759  ASP760  ASP761  ALA762  ILE779  LEU786  VAL792 
 PHE793  MET794  SER795  GLU796  ALA797  LYS798  CYS799  TRP800  GLU811  SER814 

> <Gold.Protein.RotatedAtoms>
  152.4907  134.4465  159.9560 H   0  0  0  0  0  0  0  0  0  0  0  0  # atno 6907 bound_to 6896
  151.4453  133.3626  159.2795 H   0  0  0  0  0  0  0  0  0  0  0  0  # atno 6908 bound_to 6896
  150.9059  134.8498  159.7452 H   0  0  0  0  0  0  0  0  0  0  0  0  # atno 6909 bound_to 6896
  146.0143  139.4578  142.9937 H   0  0  0  0  0  0  0  0  0  0  0  0  # atno 7974 bound_to 7965
  156.2700  140.2801  156.1359 H   0  0  0  0  0  0  0  0  0  0  0  0  # atno 8008 bound_to 7997
  155.1005  140.0389  157.2713 H   0  0  0  0  0  0  0  0  0  0  0  0  # atno 8009 bound_to 7997
  154.6819  140.2610  155.6906 H   0  0  0  0  0  0  0  0  0  0  0  0  # atno 8010 bound_to 7997
  139.8145  143.7657  152.2664 H   0  0  0  0  0  0  0  0  0  0  0  0  # atno 10167 bound_to 10162
  156.9967  130.6063  149.5692 H   0  0  0  0  0  0  0  0  0  0  0  0  # atno 10718 bound_to 10713
  152.9786  135.5837  154.4460 H   0  0  0  0  0  0  0  0  0  0  0  0  # atno 10763 bound_to 10752
  154.4055  135.2769  155.2072 H   0  0  0  0  0  0  0  0  0  0  0  0  # atno 10764 bound_to 10752
  154.3884  135.6131  153.5884 H   0  0  0  0  0  0  0  0  0  0  0  0  # atno 10765 bound_to 10752
  140.0489  134.5766  155.9288 H   0  0  0  0  0  0  0  0  0  0  0  0  # atno 11005 bound_to 11000
  145.7293  141.0048  143.1360 LP  0  0  0  0  0  0  0  0  0  0  0  0  # atno 17320 bound_to 7965
  144.6965  139.8965  143.7456 LP  0  0  0  0  0  0  0  0  0  0  0  0  # atno 17321 bound_to 7965
  139.7816  144.7442  151.0080 LP  0  0  0  0  0  0  0  0  0  0  0  0  # atno 17342 bound_to 10162
  140.7816  143.4536  151.0378 LP  0  0  0  0  0  0  0  0  0  0  0  0  # atno 17343 bound_to 10162
  156.0186  130.5281  150.8210 LP  0  0  0  0  0  0  0  0  0  0  0  0  # atno 17370 bound_to 10713
  157.5420  131.0941  150.9814 LP  0  0  0  0  0  0  0  0  0  0  0  0  # atno 17371 bound_to 10713
  141.1920  133.6574  156.5484 LP  0  0  0  0  0  0  0  0  0  0  0  0  # atno 17394 bound_to 11000
  140.3949  134.7407  157.4744 LP  0  0  0  0  0  0  0  0  0  0  0  0  # atno 17395 bound_to 11000

$$$$
