AV-unprocessed.smi:264|AV-procd|sdf|2014|dock1
  -GOLD-   2262021213D 1   1.00000     0.00000
 Structure written by MMmdl.
 52 56  0  0  0  0  0  0  0  0  1 V2000
  146.6251  133.6688  152.4356 C   0  0  0  0  0  0  0  0  0  0  0  0
  145.9133  133.6477  151.0736 C   0  0  1  0  0  0  0  0  0  0  0  0
  145.6286  132.2874  150.7559 O   0  0  0  0  0  0  0  0  0  0  0  0
  144.4521  132.2367  149.9689 C   0  0  0  0  0  0  0  0  0  0  0  0
  143.5691  133.2792  150.6369 C   0  0  0  0  0  0  0  0  0  0  0  0
  144.5525  134.3952  150.9800 C   0  0  2  0  0  0  0  0  0  0  0  0
  144.6179  135.2704  149.8665 O   0  0  0  0  0  0  0  0  0  0  0  0
  144.1379  135.2281  152.2216 C   0  0  0  0  0  0  0  0  0  0  0  0
  145.1661  136.1560  152.6683 N   0  0  0  0  0  0  0  0  0  0  0  0
  145.6853  137.2160  151.9596 C   0  0  0  0  0  0  0  0  0  0  0  0
  146.5999  137.9078  152.5823 N   0  0  0  0  0  0  0  0  0  0  0  0
  146.7191  137.2798  153.8165 C   0  0  0  0  0  0  0  0  0  0  0  0
  147.5128  137.5144  154.9744 C   0  0  0  0  0  0  0  0  0  0  0  0
  148.4149  138.5253  155.0489 N   0  0  0  0  0  0  0  0  0  0  0  0
  148.2361  139.5803  154.0597 C   0  0  0  0  0  0  0  0  0  0  0  0
  149.0530  140.8164  154.4607 C   0  0  0  0  0  0  0  0  0  0  0  0
  150.4194  140.4620  154.6699 O   0  0  0  0  0  0  0  0  0  0  0  0
  150.6394  139.4308  155.6409 C   0  0  2  0  0  0  0  0  0  0  0  0
  150.4123  139.9218  157.0676 C   0  0  0  0  0  0  0  0  0  0  0  0
  151.6999  140.6802  157.3523 C   0  0  0  0  0  0  0  0  0  0  0  0
  152.7057  139.8773  156.7535 O   0  0  0  0  0  0  0  0  0  0  0  0
  152.1513  139.1519  155.6579 C   0  0  0  0  0  0  0  0  0  0  0  0
  149.8173  138.1801  155.2614 C   0  0  0  0  0  0  0  0  0  0  0  0
  147.3361  136.6790  156.0331 N   0  0  0  0  0  0  0  0  0  0  0  0
  146.4513  135.6799  155.9646 C   0  0  0  0  0  0  0  0  0  0  0  0
  145.6488  135.3440  154.9531 N   0  0  0  0  0  0  0  0  0  0  0  0
  145.8178  136.1801  153.8892 C   0  0  0  0  0  0  0  0  0  0  0  0
  146.8848  134.6843  152.7350 H   0  0  0  0  0  0  0  0  0  0  0  0
  147.5517  133.0960  152.3926 H   0  0  0  0  0  0  0  0  0  0  0  0
  146.0074  133.2279  153.2183 H   0  0  0  0  0  0  0  0  0  0  0  0
  146.6068  134.0239  150.3191 H   0  0  0  0  0  0  0  0  0  0  0  0
  144.6819  132.5143  148.9390 H   0  0  0  0  0  0  0  0  0  0  0  0
  144.0075  131.2414  149.9711 H   0  0  0  0  0  0  0  0  0  0  0  0
  142.7344  133.6009  150.0122 H   0  0  0  0  0  0  0  0  0  0  0  0
  143.1546  132.8509  151.5504 H   0  0  0  0  0  0  0  0  0  0  0  0
  144.9979  134.8019  149.1391 H   0  0  0  0  0  0  0  0  0  0  0  0
  143.2422  135.8121  152.0080 H   0  0  0  0  0  0  0  0  0  0  0  0
  143.8863  134.5703  153.0544 H   0  0  0  0  0  0  0  0  0  0  0  0
  145.3628  137.4622  150.9583 H   0  0  0  0  0  0  0  0  0  0  0  0
  148.5704  139.2130  153.0884 H   0  0  0  0  0  0  0  0  0  0  0  0
  147.1880  139.8563  153.9491 H   0  0  0  0  0  0  0  0  0  0  0  0
  149.0048  141.5647  153.6700 H   0  0  0  0  0  0  0  0  0  0  0  0
  148.6314  141.2843  155.3496 H   0  0  0  0  0  0  0  0  0  0  0  0
  149.5207  140.5304  157.2084 H   0  0  0  0  0  0  0  0  0  0  0  0
  150.3375  139.0729  157.7487 H   0  0  0  0  0  0  0  0  0  0  0  0
  151.6853  141.6591  156.8708 H   0  0  0  0  0  0  0  0  0  0  0  0
  151.8814  140.8231  158.4176 H   0  0  0  0  0  0  0  0  0  0  0  0
  152.3544  138.0939  155.8287 H   0  0  0  0  0  0  0  0  0  0  0  0
  152.6335  139.4296  154.7199 H   0  0  0  0  0  0  0  0  0  0  0  0
  149.9076  137.4224  156.0412 H   0  0  0  0  0  0  0  0  0  0  0  0
  150.2146  137.7444  154.3433 H   0  0  0  0  0  0  0  0  0  0  0  0
  146.3757  135.0611  156.8465 H   0  0  0  0  0  0  0  0  0  0  0  0
  1  2  1  0  0  0  0
  1 28  1  0  0  0  0
  1 29  1  0  0  0  0
  1 30  1  0  0  0  0
  2  6  1  0  0  0  0
  2  3  1  0  0  0  0
  2 31  1  0  0  0  0
  3  4  1  0  0  0  0
  4  5  1  0  0  0  0
  4 32  1  0  0  0  0
  4 33  1  0  0  0  0
  5  6  1  0  0  0  0
  5 34  1  0  0  0  0
  5 35  1  0  0  0  0
  6  7  1  0  0  0  0
  6  8  1  0  0  0  0
  7 36  1  0  0  0  0
  8  9  1  0  0  0  0
  8 37  1  0  0  0  0
  8 38  1  0  0  0  0
  9 27  1  0  0  0  0
  9 10  1  0  0  0  0
 10 11  2  0  0  0  0
 10 39  1  0  0  0  0
 11 12  1  0  0  0  0
 12 27  2  0  0  0  0
 12 13  1  0  0  0  0
 13 14  1  0  0  0  0
 13 24  2  0  0  0  0
 14 23  1  0  0  0  0
 14 15  1  0  0  0  0
 15 16  1  0  0  0  0
 15 40  1  0  0  0  0
 15 41  1  0  0  0  0
 16 17  1  0  0  0  0
 16 42  1  0  0  0  0
 16 43  1  0  0  0  0
 17 18  1  0  0  0  0
 18 22  1  0  0  0  0
 18 19  1  0  0  0  0
 18 23  1  0  0  0  0
 19 20  1  0  0  0  0
 19 44  1  0  0  0  0
 19 45  1  0  0  0  0
 20 21  1  0  0  0  0
 20 46  1  0  0  0  0
 20 47  1  0  0  0  0
 21 22  1  0  0  0  0
 22 48  1  0  0  0  0
 22 49  1  0  0  0  0
 23 50  1  0  0  0  0
 23 51  1  0  0  0  0
 24 25  1  0  0  0  0
 25 26  2  0  0  0  0
 25 52  1  0  0  0  0
 26 27  1  0  0  0  0
M  END
> <s_m_source_file>
AV-unprocessed.smi

> <i_m_source_file_index>
264

> <i_lp_mmshare_version>
43012

> <i_f3d_flags>
0

> <s_epik_input>
W0NIMl0xW0NIMl1PW0NAQEhdKFtDSDNdKVtDQEBdMShbT0hdKVtDSDJdbihbY0hdbjIpYyhjMjMpbltjSF1uYzNOKFtDSDJdNClbQ0gyXVtDSDJdT1tDQF00NVtDSDJdW0NIMl1PW0NIMl01

> <s_epik_cmdline>
J2VwaWtfcHl0aG9uJywgJy1waCcsICc3LjAnLCAnLXRuJywgJzgnLCAnLW1hJywgJzIwMCcsICctbWV0YWxfYmluZGluZycsICctaW1hZScsICc8aW5maWxlLm1hZT4nLCAnLW9tYWUnLCAnPG91dGZpbGUubWFlPic=

> <r_lp_tautomer_probability>
1

> <r_epik_Ionization_Penalty>
0.00539389

> <r_epik_Ionization_Penalty_Charging>
0

> <r_epik_Ionization_Penalty_Neutral>
0.00539389

> <r_epik_State_Penalty>
0.00375441

> <r_epik_Charging_Adjusted_Penalty>
0.00375441

> <i_epik_Tot_Q>
0

> <i_epik_Tot_abs_Q>
0

> <r_epik_Metal_State_Penalty>
-0

> <b_epik_Metal_Only>
0

> <s_lp_Force_Field>
OPLS_2005

> <r_lp_Energy>
54.0321

> <b_lp_Chiralities_Consistent>
1

> <s_lp_Variant>
AV-unprocessed.smi:264-8

> <Gold.Version>
5.8.1

> <Gold.Id.Protein>
6NUR|6NUR_protein|mol2

> <Gold.PLP.Fitness>
44.8420

> <Gold.PLP.PLP>
-33.2179

> <Gold.PLP.part.hbond>
-3.5279

> <Gold.PLP.part.metal>
0.0000

> <Gold.PLP.part.buried>
-0.6902

> <Gold.PLP.part.nonpolar>
-29.6985

> <Gold.PLP.part.repulsive>
1.5204

> <Gold.PLP.ligand.clash>
0.0000

> <Gold.PLP.ligand.torsion>
0.3066

> <Gold.PLP.Chemscore.Hbond>
2.9760

> <Gold.PLP.Chemscore.CHOScore>
1.0000

> <Gold.PLP.Chemscore.Metal>
0.0000

> <Gold.Chemscore.Hbonds>
donor molecule, donor type, donor heavy atom, donor atom, acceptor molecule, acceptor atom, score
      L1  H     7    36       P1  7921  0.96
      P1  H  7989  7998       L1    17  1.00
      P1  H  7997  8010       L1    21  1.00
      L1  C    10    39       P1 10171  1.00

> <Gold.PLP.Chemscore.Internal.Correction>
0.3093

> <Gold.Rescore>
     Score         DG    S(hbond)    S(metal)    S(lipo)     H(rot)  DE(clash)    DE(int)     intcor
     14.21     -19.07       2.77        0.00      83.08       2.11       1.92       2.94       ----

> <Gold.Chemscore.Fitness>
14.2110

> <Gold.Chemscore.DG>
-19.0722

> <Gold.Chemscore.ZeroCoef>
-5.4800

> <Gold.Chemscore.Hbond>
2.7735

> <Gold.Chemscore.Metal>
0.0000

> <Gold.Chemscore.Lipo>
83.0828

> <Gold.Chemscore.Internal_Hbond>
0.0000

> <Gold.Chemscore.DEClash>
1.9217

> <Gold.Chemscore.DEInternal>
2.9395

> <Gold.Chemscore.Rot>
2.1063

> <Gold.Chemscore.Internal.Correction>
   9.000000E+99

> <Gold.Chemscore.Hbonds>
donor molecule, donor type, donor heavy atom, donor atom, acceptor molecule, acceptor atom, score
      L1  H     7    36       P1  7921  0.92
      P1  H  7989  7998       L1    17  0.92
      P1  H  7997  8010       L1    21  0.78

> <Gold.Chemscore.Hbond.Weighted>
-9.2636

> <Gold.Chemscore.Metal.Weighted>
-0.0000

> <Gold.Chemscore.Lipo.Weighted>
-9.7207

> <Gold.Chemscore.Internal_Hbond.Weighted>
0.0000

> <Gold.Chemscore.DEClash.Weighted>
1.9217

> <Gold.Chemscore.DEInternal.Weighted>
2.9395

> <Gold.Chemscore.Rot.Weighted>
5.3921

> <Gold.Chemscore.Internal.Correction.Weighted>
   9.000000E+99

> <Gold.Protein.RotatedTorsions>
[ 6907 6896 6895 6894 ] final  -32.32 input  -60.11 | X-H torsion
[ 7974 7965 7964 7962 ] final   28.70 input  175.53 | X-H torsion
[ 8008 7997 7996 7995 ] final   66.05 input   59.86 | X-H torsion
[ 10167 10162 10161 10158 ] final   13.46 input  -65.29 | X-H torsion
[ 10718 10713 10712 10709 ] final  118.65 input   66.30 | X-H torsion
[ 10763 10752 10751 10750 ] final   46.65 input  -60.55 | X-H torsion
[ 11005 11000 10999 10996 ] final   88.31 input  -57.11 | X-H torsion

> <Gold.Protein.ActiveResidues>
 VAL166  LYS551  ARG553  GLY616  TRP617  ASP618  TYR619  PRO620  LYS621  CYS622 
 ASP623  PHE694  ASN695  SER759  ASP760  ASP761  ALA762  ILE779  LEU786  VAL792 
 PHE793  MET794  SER795  GLU796  ALA797  LYS798  CYS799  TRP800  GLU811  SER814 

> <Gold.Protein.RotatedAtoms>
  151.0803  134.9854  159.8352 H   0  0  0  0  0  0  0  0  0  0  0  0  # atno 6907 bound_to 6896
  152.5419  134.2190  159.8790 H   0  0  0  0  0  0  0  0  0  0  0  0  # atno 6908 bound_to 6896
  151.2220  133.4454  159.2634 H   0  0  0  0  0  0  0  0  0  0  0  0  # atno 6909 bound_to 6896
  146.1714  139.7020  142.8965 H   0  0  0  0  0  0  0  0  0  0  0  0  # atno 7974 bound_to 7965
  155.6714  140.3497  155.4820 H   0  0  0  0  0  0  0  0  0  0  0  0  # atno 8008 bound_to 7997
  155.9685  140.1151  157.0856 H   0  0  0  0  0  0  0  0  0  0  0  0  # atno 8009 bound_to 7997
  154.4160  140.1161  156.5261 H   0  0  0  0  0  0  0  0  0  0  0  0  # atno 8010 bound_to 7997
  140.6001  143.8622  150.6956 H   0  0  0  0  0  0  0  0  0  0  0  0  # atno 10167 bound_to 10162
  157.6016  131.1050  150.7786 H   0  0  0  0  0  0  0  0  0  0  0  0  # atno 10718 bound_to 10713
  152.9808  135.6001  154.3634 H   0  0  0  0  0  0  0  0  0  0  0  0  # atno 10763 bound_to 10752
  154.3314  135.2768  155.2471 H   0  0  0  0  0  0  0  0  0  0  0  0  # atno 10764 bound_to 10752
  154.4594  135.5970  153.6300 H   0  0  0  0  0  0  0  0  0  0  0  0  # atno 10765 bound_to 10752
  139.8899  134.8479  156.2982 H   0  0  0  0  0  0  0  0  0  0  0  0  # atno 11005 bound_to 11000
  145.4331  141.0416  143.2900 LP  0  0  0  0  0  0  0  0  0  0  0  0  # atno 17320 bound_to 7965
  144.8168  139.5862  143.7004 LP  0  0  0  0  0  0  0  0  0  0  0  0  # atno 17321 bound_to 7965
  140.2166  143.3841  152.1676 LP  0  0  0  0  0  0  0  0  0  0  0  0  # atno 17342 bound_to 10162
  139.5285  144.7131  151.5142 LP  0  0  0  0  0  0  0  0  0  0  0  0  # atno 17343 bound_to 10162
  156.8184  130.4975  149.5346 LP  0  0  0  0  0  0  0  0  0  0  0  0  # atno 17370 bound_to 10713
  156.1090  130.6026  151.0017 LP  0  0  0  0  0  0  0  0  0  0  0  0  # atno 17371 bound_to 10713
  140.9931  133.7197  156.0844 LP  0  0  0  0  0  0  0  0  0  0  0  0  # atno 17394 bound_to 11000
  140.7599  134.3951  157.5527 LP  0  0  0  0  0  0  0  0  0  0  0  0  # atno 17395 bound_to 11000

$$$$
