AV-unprocessed.smi:2021|AV-procd|sdf|8176|dock2
  -GOLD-   2272010423D 1   1.00000     0.00000
 Structure written by MMmdl.
 42 43  0  0  0  0  0  0  0  0  2 V2000
  152.3808  140.3403  159.2410 C   0  0  0  0  0  0  0  0  0  0  0  0
  151.8086  140.3864  157.8163 C   0  0  0  0  0  0  0  0  0  0  0  0
  151.0024  141.6787  157.6034 C   0  0  0  0  0  0  0  0  0  0  0  0
  150.9624  139.1264  157.5308 C   0  0  0  0  0  0  0  0  0  0  0  0
  151.7881  137.9148  157.2723 N   0  3  2  0  0  0  0  0  0  0  0  0
  152.6473  138.0283  156.0687 C   0  0  0  0  0  0  0  0  0  0  0  0
  151.8322  137.8076  154.7820 C   0  0  0  0  0  0  0  0  0  0  0  0
  151.1937  136.5384  154.8410 O   0  0  0  0  0  0  0  0  0  0  0  0
  150.2700  136.4424  155.9212 C   0  0  1  0  0  0  0  0  0  0  0  0
  149.5846  135.0655  155.8507 C   0  0  0  0  0  0  0  0  0  0  0  0
  148.9708  134.8259  154.5484 N   0  0  0  0  0  0  0  0  0  0  0  0
  148.2214  133.7579  154.2394 C   0  0  0  0  0  0  0  0  0  0  0  0
  147.9719  132.8550  155.0386 O   0  0  0  0  0  0  0  0  0  0  0  0
  147.7903  133.8133  152.9670 N   0  0  0  0  0  0  0  0  0  0  0  0
  146.9529  132.8930  152.2818 C   0  0  0  0  0  0  0  0  0  0  0  0
  146.5049  131.7495  152.8231 N   0  0  0  0  0  0  0  0  0  0  0  0
  145.7003  131.0378  151.9427 N   0  0  0  0  0  0  0  0  0  0  0  0
  145.5726  131.6719  150.7736 C   0  0  0  0  0  0  0  0  0  0  0  0
  146.4225  133.2010  150.6342 S   0  0  0  0  0  0  0  0  0  0  0  0
  151.0337  136.6346  157.2502 C   0  0  0  0  0  0  0  0  0  0  0  0
  151.5867  140.3273  159.9884 H   0  0  0  0  0  0  0  0  0  0  0  0
  153.0113  141.2071  159.4408 H   0  0  0  0  0  0  0  0  0  0  0  0
  152.9929  139.4502  159.3903 H   0  0  0  0  0  0  0  0  0  0  0  0
  152.6617  140.4084  157.1392 H   0  0  0  0  0  0  0  0  0  0  0  0
  150.1366  141.7198  158.2653 H   0  0  0  0  0  0  0  0  0  0  0  0
  150.6422  141.7612  156.5779 H   0  0  0  0  0  0  0  0  0  0  0  0
  151.6136  142.5594  157.8029 H   0  0  0  0  0  0  0  0  0  0  0  0
  150.2711  138.9392  158.3523 H   0  0  0  0  0  0  0  0  0  0  0  0
  150.3386  139.3305  156.6597 H   0  0  0  0  0  0  0  0  0  0  0  0
  153.1587  138.9913  156.0465 H   0  0  0  0  0  0  0  0  0  0  0  0
  153.4288  137.2701  156.1329 H   0  0  0  0  0  0  0  0  0  0  0  0
  151.0939  138.5979  154.6374 H   0  0  0  0  0  0  0  0  0  0  0  0
  152.4913  137.8276  153.9141 H   0  0  0  0  0  0  0  0  0  0  0  0
  149.5124  137.2199  155.8179 H   0  0  0  0  0  0  0  0  0  0  0  0
  150.3112  134.2749  156.0400 H   0  0  0  0  0  0  0  0  0  0  0  0
  148.8248  134.9804  156.6294 H   0  0  0  0  0  0  0  0  0  0  0  0
  149.1285  135.5225  153.8348 H   0  0  0  0  0  0  0  0  0  0  0  0
  148.0891  134.6112  152.4258 H   0  0  0  0  0  0  0  0  0  0  0  0
  144.9725  131.2364  149.9882 H   0  0  0  0  0  0  0  0  0  0  0  0
  151.7507  135.8219  157.3743 H   0  0  0  0  0  0  0  0  0  0  0  0
  150.3525  136.5656  158.0968 H   0  0  0  0  0  0  0  0  0  0  0  0
  152.4222  137.8620  158.0569 H   0  0  0  0  0  0  0  0  0  0  0  0
  1  2  1  0  0  0  0
  1 21  1  0  0  0  0
  1 22  1  0  0  0  0
  1 23  1  0  0  0  0
  2  3  1  0  0  0  0
  2  4  1  0  0  0  0
  2 24  1  0  0  0  0
  3 25  1  0  0  0  0
  3 26  1  0  0  0  0
  3 27  1  0  0  0  0
  4  5  1  0  0  0  0
  4 28  1  0  0  0  0
  4 29  1  0  0  0  0
  5 20  1  0  0  0  0
  5  6  1  0  0  0  0
  5 42  1  0  0  0  0
  6  7  1  0  0  0  0
  6 30  1  0  0  0  0
  6 31  1  0  0  0  0
  7  8  1  0  0  0  0
  7 32  1  0  0  0  0
  7 33  1  0  0  0  0
  8  9  1  0  0  0  0
  9 10  1  0  0  0  0
  9 20  1  0  0  0  0
  9 34  1  0  0  0  0
 10 11  1  0  0  0  0
 10 35  1  0  0  0  0
 10 36  1  0  0  0  0
 11 12  1  0  0  0  0
 11 37  1  0  0  0  0
 12 13  2  0  0  0  0
 12 14  1  0  0  0  0
 14 15  1  0  0  0  0
 14 38  1  0  0  0  0
 15 19  1  0  0  0  0
 15 16  2  0  0  0  0
 16 17  1  0  0  0  0
 17 18  2  0  0  0  0
 18 19  1  0  0  0  0
 18 39  1  0  0  0  0
 20 40  1  0  0  0  0
 20 41  1  0  0  0  0
M  CHG  1   5   1
M  END
> <s_m_source_file>
AV-unprocessed.smi

> <i_m_source_file_index>
2021

> <i_lp_mmshare_version>
43012

> <i_f3d_flags>
0

> <s_epik_input>
W0NIM11bQ0hdKFtDSDNdKVtDSDJdTjFbQ0gyXVtDSDJdT1tDQEhdKFtDSDJdMSlbQ0gyXVtOSF1DKD1PKVtOSF1jMm5uW2NIXXMy

> <s_epik_cmdline>
J2VwaWtfcHl0aG9uJywgJy1waCcsICc3LjAnLCAnLXRuJywgJzgnLCAnLW1hJywgJzIwMCcsICctbWV0YWxfYmluZGluZycsICctaW1hZScsICc8aW5maWxlLm1hZT4nLCAnLW9tYWUnLCAnPG91dGZpbGUubWFlPic=

> <r_lp_tautomer_probability>
1

> <r_epik_Ionization_Penalty>
0.102019

> <r_epik_Ionization_Penalty_Charging>
0.098413

> <r_epik_Ionization_Penalty_Neutral>
0.00360555

> <r_epik_State_Penalty>
0.0884988

> <r_epik_Charging_Adjusted_Penalty>
0.186912

> <i_epik_Tot_Q>
1

> <i_epik_Tot_abs_Q>
1

> <r_epik_Metal_State_Penalty>
0.454709

> <b_epik_Metal_Only>
0

> <s_lp_Force_Field>
OPLS_2005

> <r_lp_Energy>
18.1157

> <b_lp_Chiralities_Consistent>
1

> <s_lp_Variant>
AV-unprocessed.smi:2021-2

> <Gold.Version>
5.8.1

> <Gold.Id.Protein>
6NUR|6NUR_protein|mol2

> <Gold.PLP.Fitness>
39.6153

> <Gold.PLP.PLP>
-30.9062

> <Gold.PLP.part.hbond>
-3.0000

> <Gold.PLP.part.metal>
0.0000

> <Gold.PLP.part.buried>
-6.2831

> <Gold.PLP.part.nonpolar>
-23.1328

> <Gold.PLP.part.repulsive>
0.9370

> <Gold.PLP.ligand.clash>
0.0000

> <Gold.PLP.ligand.torsion>
0.2156

> <Gold.PLP.Chemscore.Hbond>
3.0000

> <Gold.PLP.Chemscore.CHOScore>
0.0000

> <Gold.PLP.Chemscore.Metal>
0.0000

> <Gold.Chemscore.Hbonds>
donor molecule, donor type, donor heavy atom, donor atom, acceptor molecule, acceptor atom, score
      L1  H    11    37       P1  7948  0.89
      L1  H    14    38       P1  7948  1.00
      P1  H 10752 10764       L1     8  0.42

> <Gold.PLP.Chemscore.Internal.Correction>
0.1403

> <Gold.Rescore>
     Score         DG    S(hbond)    S(metal)    S(lipo)     H(rot)  DE(clash)    DE(int)     intcor
     13.64     -15.11       2.08        0.00      64.15       1.88       0.01       1.46       ----

> <Gold.Chemscore.Fitness>
13.6370

> <Gold.Chemscore.DG>
-15.1112

> <Gold.Chemscore.ZeroCoef>
-5.4800

> <Gold.Chemscore.Hbond>
2.0785

> <Gold.Chemscore.Metal>
0.0000

> <Gold.Chemscore.Lipo>
64.1458

> <Gold.Chemscore.Internal_Hbond>
0.0000

> <Gold.Chemscore.DEClash>
0.0103

> <Gold.Chemscore.DEInternal>
1.4639

> <Gold.Chemscore.Rot>
1.8812

> <Gold.Chemscore.Internal.Correction>
   9.000000E+99

> <Gold.Chemscore.Hbonds>
donor molecule, donor type, donor heavy atom, donor atom, acceptor molecule, acceptor atom, score
      L1  H    11    37       P1  7948  0.58
      L1  H    14    38       P1  7948  0.40
      P1  H 10752 10764       L1     8  0.01

> <Gold.Chemscore.Hbond.Weighted>
-6.9421

> <Gold.Chemscore.Metal.Weighted>
-0.0000

> <Gold.Chemscore.Lipo.Weighted>
-7.5051

> <Gold.Chemscore.Internal_Hbond.Weighted>
0.0000

> <Gold.Chemscore.DEClash.Weighted>
0.0103

> <Gold.Chemscore.DEInternal.Weighted>
1.4639

> <Gold.Chemscore.Rot.Weighted>
4.8159

> <Gold.Chemscore.Internal.Correction.Weighted>
   9.000000E+99

> <Gold.Protein.RotatedTorsions>
[ 6907 6896 6895 6894 ] final  -73.21 input  -60.11 | X-H torsion
[ 7974 7965 7964 7962 ] final -115.66 input  175.53 | X-H torsion
[ 8008 7997 7996 7995 ] final  103.61 input   59.86 | X-H torsion
[ 10167 10162 10161 10158 ] final   96.93 input  -65.29 | X-H torsion
[ 10718 10713 10712 10709 ] final   13.77 input   66.30 | X-H torsion
[ 10763 10752 10751 10750 ] final  -83.03 input  -60.55 | X-H torsion
[ 11005 11000 10999 10996 ] final -128.22 input  -57.11 | X-H torsion

> <Gold.Protein.ActiveResidues>
 VAL166  LYS551  ARG553  GLY616  TRP617  ASP618  TYR619  PRO620  LYS621  CYS622 
 ASP623  PHE694  ASN695  SER759  ASP760  ASP761  ALA762  ILE779  LEU786  VAL792 
 PHE793  MET794  SER795  GLU796  ALA797  LYS798  CYS799  TRP800  GLU811  SER814 

> <Gold.Protein.RotatedAtoms>
  150.7139  134.5049  159.5578 H   0  0  0  0  0  0  0  0  0  0  0  0  # atno 6907 bound_to 6896
  152.2638  134.8003  160.0435 H   0  0  0  0  0  0  0  0  0  0  0  0  # atno 6908 bound_to 6896
  151.8707  133.3440  159.3770 H   0  0  0  0  0  0  0  0  0  0  0  0  # atno 6909 bound_to 6896
  145.1058  140.8580  143.3899 H   0  0  0  0  0  0  0  0  0  0  0  0  # atno 7974 bound_to 7965
  156.1499  140.3162  155.8631 H   0  0  0  0  0  0  0  0  0  0  0  0  # atno 8008 bound_to 7997
  155.3991  140.0498  157.3054 H   0  0  0  0  0  0  0  0  0  0  0  0  # atno 8009 bound_to 7997
  154.5049  140.2143  155.9283 H   0  0  0  0  0  0  0  0  0  0  0  0  # atno 8010 bound_to 7997
  139.7848  144.6875  150.9973 H   0  0  0  0  0  0  0  0  0  0  0  0  # atno 10167 bound_to 10162
  157.0294  130.6187  149.5733 H   0  0  0  0  0  0  0  0  0  0  0  0  # atno 10718 bound_to 10713
  154.5829  135.5570  153.7202 H   0  0  0  0  0  0  0  0  0  0  0  0  # atno 10763 bound_to 10752
  153.0088  135.6324  154.1957 H   0  0  0  0  0  0  0  0  0  0  0  0  # atno 10764 bound_to 10752
  154.1898  135.2883  155.3005 H   0  0  0  0  0  0  0  0  0  0  0  0  # atno 10765 bound_to 10752
  140.9534  134.1034  157.4039 H   0  0  0  0  0  0  0  0  0  0  0  0  # atno 11005 bound_to 11000
  145.0904  139.2894  143.5738 LP  0  0  0  0  0  0  0  0  0  0  0  0  # atno 17320 bound_to 7965
  146.3528  140.0439  142.8641 LP  0  0  0  0  0  0  0  0  0  0  0  0  # atno 17321 bound_to 7965
  140.7819  143.4444  151.0504 LP  0  0  0  0  0  0  0  0  0  0  0  0  # atno 17342 bound_to 10162
  139.8123  143.7934  152.3172 LP  0  0  0  0  0  0  0  0  0  0  0  0  # atno 17343 bound_to 10162
  156.0075  130.5163  150.7878 LP  0  0  0  0  0  0  0  0  0  0  0  0  # atno 17370 bound_to 10713
  157.5189  131.0930  151.0104 LP  0  0  0  0  0  0  0  0  0  0  0  0  # atno 17371 bound_to 10713
  139.8855  135.0072  156.6436 LP  0  0  0  0  0  0  0  0  0  0  0  0  # atno 17394 bound_to 11000
  140.7570  133.8850  155.8389 LP  0  0  0  0  0  0  0  0  0  0  0  0  # atno 17395 bound_to 11000

$$$$
