AV-unprocessed.smi:948|AV-procd|sdf|4239|dock1
  -GOLD-   22720 2153D 1   1.00000     0.00000
 Structure written by MMmdl.
 18 18  0  0  0  0  0  0  0  0  2 V2000
  143.4187  133.7930  147.9292 N   0  3  0  0  0  0  0  0  0  0  0  0
  143.8371  132.5043  148.5052 C   0  0  0  0  0  0  0  0  0  0  0  0
  143.4904  132.4194  149.9978 C   0  0  0  0  0  0  0  0  0  0  0  0
  144.2166  133.4286  150.8238 C   0  0  0  0  0  0  0  0  0  0  0  0
  144.1543  133.7084  152.1722 C   0  0  0  0  0  0  0  0  0  0  0  0
  145.0356  134.7452  152.4853 N   0  0  0  0  0  0  0  0  0  0  0  0
  145.5959  135.0565  151.3228 C   0  0  0  0  0  0  0  0  0  0  0  0
  145.1516  134.3111  150.3072 N   0  0  0  0  0  0  0  0  0  0  0  0
  145.4432  134.3845  149.3430 H   0  0  0  0  0  0  0  0  0  0  0  0
  144.2125  134.4163  147.8879 H   0  0  0  0  0  0  0  0  0  0  0  0
  142.6986  134.2037  148.5063 H   0  0  0  0  0  0  0  0  0  0  0  0
  143.3459  131.7005  147.9558 H   0  0  0  0  0  0  0  0  0  0  0  0
  144.9111  132.3876  148.3564 H   0  0  0  0  0  0  0  0  0  0  0  0
  142.4162  132.5516  150.1337 H   0  0  0  0  0  0  0  0  0  0  0  0
  143.7214  131.4204  150.3704 H   0  0  0  0  0  0  0  0  0  0  0  0
  143.5481  133.2458  152.9372 H   0  0  0  0  0  0  0  0  0  0  0  0
  146.3369  135.8343  151.2101 H   0  0  0  0  0  0  0  0  0  0  0  0
  143.0593  133.6451  146.9968 H   0  0  0  0  0  0  0  0  0  0  0  0
  1  2  1  0  0  0  0
  1 10  1  0  0  0  0
  1 11  1  0  0  0  0
  1 18  1  0  0  0  0
  2  3  1  0  0  0  0
  2 12  1  0  0  0  0
  2 13  1  0  0  0  0
  3 14  1  0  0  0  0
  3 15  1  0  0  0  0
  3  4  1  0  0  0  0
  4  5  2  0  0  0  0
  4  8  1  0  0  0  0
  5 16  1  0  0  0  0
  5  6  1  0  0  0  0
  6  7  2  0  0  0  0
  7  8  1  0  0  0  0
  7 17  1  0  0  0  0
  8  9  1  0  0  0  0
M  CHG  1   1   1
M  END
> <s_m_source_file>
AV-unprocessed.smi

> <i_m_source_file_index>
948

> <i_lp_mmshare_version>
43012

> <i_f3d_flags>
0

> <s_epik_input>
W05IMl1bQ0gyXVtDSDJdYzFbY0hdW25IXVtjSF1uMQ==

> <s_epik_cmdline>
J2VwaWtfcHl0aG9uJywgJy1waCcsICc3LjAnLCAnLXRuJywgJzgnLCAnLW1hJywgJzIwMCcsICctbWV0YWxfYmluZGluZycsICctaW1hZScsICc8aW5maWxlLm1hZT4nLCAnLW9tYWUnLCAnPG91dGZpbGUubWFlPic=

> <r_lp_tautomer_probability>
0.5

> <r_epik_Ionization_Penalty>
0.0942268

> <r_epik_Ionization_Penalty_Charging>
0.0942262

> <r_epik_Ionization_Penalty_Neutral>
6.36763e-07

> <r_epik_State_Penalty>
0.454975

> <r_epik_Charging_Adjusted_Penalty>
0.549201

> <i_epik_Tot_Q>
1

> <i_epik_Tot_abs_Q>
1

> <r_epik_Metal_State_Penalty>
0.380897

> <b_epik_Metal_Only>
0

> <s_lp_Force_Field>
OPLS_2005

> <r_lp_Energy>
4.92874

> <b_lp_Chiralities_Consistent>
1

> <s_lp_Variant>
AV-unprocessed.smi:948-1

> <Gold.Version>
5.8.1

> <Gold.Id.Protein>
6NUR|6NUR_protein|mol2

> <Gold.PLP.Fitness>
39.1017

> <Gold.PLP.PLP>
-18.1226

> <Gold.PLP.part.hbond>
-4.0000

> <Gold.PLP.part.metal>
0.0000

> <Gold.PLP.part.buried>
-3.0037

> <Gold.PLP.part.nonpolar>
-12.9080

> <Gold.PLP.part.repulsive>
0.3428

> <Gold.PLP.ligand.clash>
0.0000

> <Gold.PLP.ligand.torsion>
0.0105

> <Gold.PLP.Chemscore.Hbond>
5.0000

> <Gold.PLP.Chemscore.CHOScore>
2.0000

> <Gold.PLP.Chemscore.Metal>
0.0000

> <Gold.Chemscore.Hbonds>
donor molecule, donor type, donor heavy atom, donor atom, acceptor molecule, acceptor atom, score
      L1  H     1    10       P1  7921  1.00
      L1  H     1    11       P1 10186  2.00
      L1  H     1    18       P1 10195  1.00
      L1  H     8     9       P1  7921  1.00
      L1  C     5    16       P1 10957  1.00
      L1  C     7    17       P1  7948  0.62

> <Gold.PLP.Chemscore.Internal.Correction>
0.0002

> <Gold.Rescore>
     Score         DG    S(hbond)    S(metal)    S(lipo)     H(rot)  DE(clash)    DE(int)     intcor
     18.54     -18.67       3.82        0.00      36.86       1.51       0.07       0.06       ----

> <Gold.Chemscore.Fitness>
18.5420

> <Gold.Chemscore.DG>
-18.6670

> <Gold.Chemscore.ZeroCoef>
-5.4800

> <Gold.Chemscore.Hbond>
3.8164

> <Gold.Chemscore.Metal>
0.0000

> <Gold.Chemscore.Lipo>
36.8635

> <Gold.Chemscore.Internal_Hbond>
0.0000

> <Gold.Chemscore.DEClash>
0.0650

> <Gold.Chemscore.DEInternal>
0.0600

> <Gold.Chemscore.Rot>
1.5127

> <Gold.Chemscore.Internal.Correction>
   9.000000E+99

> <Gold.Chemscore.Hbonds>
donor molecule, donor type, donor heavy atom, donor atom, acceptor molecule, acceptor atom, score
      L1  H     1    10       P1  7921  0.96
      L1  H     1    11       P1 10186  0.98
      L1  H     1    18       P1 10195  0.97
      L1  H     8     9       P1  7921  0.96

> <Gold.Chemscore.Hbond.Weighted>
-12.7466

> <Gold.Chemscore.Metal.Weighted>
-0.0000

> <Gold.Chemscore.Lipo.Weighted>
-4.3130

> <Gold.Chemscore.Internal_Hbond.Weighted>
0.0000

> <Gold.Chemscore.DEClash.Weighted>
0.0650

> <Gold.Chemscore.DEInternal.Weighted>
0.0600

> <Gold.Chemscore.Rot.Weighted>
3.8726

> <Gold.Chemscore.Internal.Correction.Weighted>
   9.000000E+99

> <Gold.Protein.RotatedTorsions>
[ 6907 6896 6895 6894 ] final  -12.47 input  -60.11 | X-H torsion
[ 7974 7965 7964 7962 ] final   20.13 input  175.53 | X-H torsion
[ 8008 7997 7996 7995 ] final  170.96 input   59.86 | X-H torsion
[ 10167 10162 10161 10158 ] final -108.25 input  -65.29 | X-H torsion
[ 10718 10713 10712 10709 ] final   -5.99 input   66.30 | X-H torsion
[ 10763 10752 10751 10750 ] final  156.14 input  -60.55 | X-H torsion
[ 11005 11000 10999 10996 ] final  161.90 input  -57.11 | X-H torsion

> <Gold.Protein.ActiveResidues>
 VAL166  LYS551  ARG553  GLY616  TRP617  ASP618  TYR619  PRO620  LYS621  CYS622 
 ASP623  PHE694  ASN695  SER759  ASP760  ASP761  ALA762  ILE779  LEU786  VAL792 
 PHE793  MET794  SER795  GLU796  ALA797  LYS798  CYS799  TRP800  GLU811  SER814 

> <Gold.Protein.RotatedAtoms>
  151.3701  135.0921  159.9462 H   0  0  0  0  0  0  0  0  0  0  0  0  # atno 6907 bound_to 6896
  152.5138  133.9173  159.7527 H   0  0  0  0  0  0  0  0  0  0  0  0  # atno 6908 bound_to 6896
  150.9585  133.6416  159.2788 H   0  0  0  0  0  0  0  0  0  0  0  0  # atno 6909 bound_to 6896
  146.2123  139.8213  142.8679 H   0  0  0  0  0  0  0  0  0  0  0  0  # atno 7974 bound_to 7965
  156.1317  140.1524  156.9056 H   0  0  0  0  0  0  0  0  0  0  0  0  # atno 8008 bound_to 7997
  154.4914  140.0850  156.7642 H   0  0  0  0  0  0  0  0  0  0  0  0  # atno 8009 bound_to 7997
  155.4244  140.3424  155.4276 H   0  0  0  0  0  0  0  0  0  0  0  0  # atno 8010 bound_to 7997
  140.1682  143.4065  152.1375 H   0  0  0  0  0  0  0  0  0  0  0  0  # atno 10167 bound_to 10162
  156.7384  130.5202  149.5829 H   0  0  0  0  0  0  0  0  0  0  0  0  # atno 10718 bound_to 10713
  154.1795  135.2800  155.3056 H   0  0  0  0  0  0  0  0  0  0  0  0  # atno 10763 bound_to 10752
  154.6013  135.5528  153.7381 H   0  0  0  0  0  0  0  0  0  0  0  0  # atno 10764 bound_to 10752
  153.0142  135.6392  154.1934 H   0  0  0  0  0  0  0  0  0  0  0  0  # atno 10765 bound_to 10752
  140.2203  134.8201  157.3214 H   0  0  0  0  0  0  0  0  0  0  0  0  # atno 11005 bound_to 11000
  145.3093  141.0215  143.3564 LP  0  0  0  0  0  0  0  0  0  0  0  0  # atno 17320 bound_to 7965
  144.8948  139.4727  143.6661 LP  0  0  0  0  0  0  0  0  0  0  0  0  # atno 17321 bound_to 7965
  139.5350  144.7200  151.4924 LP  0  0  0  0  0  0  0  0  0  0  0  0  # atno 17342 bound_to 10162
  140.6599  143.8520  150.6877 LP  0  0  0  0  0  0  0  0  0  0  0  0  # atno 17343 bound_to 10162
  156.1481  130.6291  151.0559 LP  0  0  0  0  0  0  0  0  0  0  0  0  # atno 17370 bound_to 10713
  157.6829  131.0833  150.7322 LP  0  0  0  0  0  0  0  0  0  0  0  0  # atno 17371 bound_to 10713
  140.1856  134.4435  155.7746 LP  0  0  0  0  0  0  0  0  0  0  0  0  # atno 17394 bound_to 11000
  141.2223  133.7003  156.7942 LP  0  0  0  0  0  0  0  0  0  0  0  0  # atno 17395 bound_to 11000

$$$$
