AV-unprocessed.smi:2481|AV-procd|sdf|9771|dock2
  -GOLD-   2272013413D 1   1.00000     0.00000
 Structure written by MMmdl.
 37 38  0  0  0  0  0  0  0  0  1 V2000
  150.8545  137.2118  154.7847 C   0  0  0  0  0  0  0  0  0  0  0  0
  150.8320  135.8728  155.3407 N   0  0  0  0  0  0  0  0  0  0  0  0
  151.6845  135.5158  156.3300 N   0  0  0  0  0  0  0  0  0  0  0  0
  151.3559  134.2434  156.5555 C   0  0  0  0  0  0  0  0  0  0  0  0
  150.3486  133.7390  155.7834 N   0  0  0  0  0  0  0  0  0  0  0  0
  150.0718  134.8129  155.0502 C   0  0  0  0  0  0  0  0  0  0  0  0
  149.0774  134.9030  154.0394 N   0  0  0  0  0  0  0  0  0  0  0  0
  148.0602  134.0560  153.8072 C   0  0  0  0  0  0  0  0  0  0  0  0
  147.8282  133.0336  154.4527 O   0  0  0  0  0  0  0  0  0  0  0  0
  147.3134  134.4691  152.7722 N   0  0  0  0  0  0  0  0  0  0  0  0
  146.1388  133.7842  152.2320 C   0  0  2  0  0  0  0  0  0  0  0  0
  146.4598  132.2793  152.1303 C   0  0  0  0  0  0  0  0  0  0  0  0
  145.3015  131.4873  151.5095 C   0  0  0  0  0  0  0  0  0  0  0  0
  144.9276  132.0573  150.1362 C   0  0  0  0  0  0  0  0  0  0  0  0
  144.5807  133.5496  150.2381 C   0  0  0  0  0  0  0  0  0  0  0  0
  145.7320  134.3772  150.8554 C   0  0  1  0  0  0  0  0  0  0  0  0
  145.3502  135.8720  150.9489 C   0  0  0  0  0  0  0  0  0  0  0  0
  145.1901  136.4343  149.6631 O   0  0  0  0  0  0  0  0  0  0  0  0
  149.8590  137.6519  154.8451 H   0  0  0  0  0  0  0  0  0  0  0  0
  151.1639  137.1690  153.7402 H   0  0  0  0  0  0  0  0  0  0  0  0
  151.5525  137.8439  155.3351 H   0  0  0  0  0  0  0  0  0  0  0  0
  151.8621  133.6557  157.3071 H   0  0  0  0  0  0  0  0  0  0  0  0
  149.1496  135.7017  153.4268 H   0  0  0  0  0  0  0  0  0  0  0  0
  147.5825  135.3253  152.3103 H   0  0  0  0  0  0  0  0  0  0  0  0
  145.2920  133.8955  152.9121 H   0  0  0  0  0  0  0  0  0  0  0  0
  147.3575  132.1327  151.5277 H   0  0  0  0  0  0  0  0  0  0  0  0
  146.6848  131.8788  153.1196 H   0  0  0  0  0  0  0  0  0  0  0  0
  145.5767  130.4365  151.4147 H   0  0  0  0  0  0  0  0  0  0  0  0
  144.4348  131.5232  152.1709 H   0  0  0  0  0  0  0  0  0  0  0  0
  145.7571  131.9193  149.4414 H   0  0  0  0  0  0  0  0  0  0  0  0
  144.0822  131.5063  149.7228 H   0  0  0  0  0  0  0  0  0  0  0  0
  144.3363  133.9239  149.2436 H   0  0  0  0  0  0  0  0  0  0  0  0
  143.6791  133.6701  150.8401 H   0  0  0  0  0  0  0  0  0  0  0  0
  146.5950  134.2946  150.1920 H   0  0  0  0  0  0  0  0  0  0  0  0
  144.4290  136.0015  151.5179 H   0  0  0  0  0  0  0  0  0  0  0  0
  146.1228  136.4470  151.4583 H   0  0  0  0  0  0  0  0  0  0  0  0
  144.9316  137.3382  149.7606 H   0  0  0  0  0  0  0  0  0  0  0  0
  1  2  1  0  0  0  0
  1 19  1  0  0  0  0
  1 20  1  0  0  0  0
  1 21  1  0  0  0  0
  2  6  1  0  0  0  0
  2  3  1  0  0  0  0
  3  4  2  0  0  0  0
  4  5  1  0  0  0  0
  4 22  1  0  0  0  0
  5  6  2  0  0  0  0
  6  7  1  0  0  0  0
  7  8  1  0  0  0  0
  7 23  1  0  0  0  0
  8  9  2  0  0  0  0
  8 10  1  0  0  0  0
 10 11  1  0  0  0  0
 10 24  1  0  0  0  0
 11 16  1  0  0  0  0
 11 12  1  0  0  0  0
 11 25  1  0  0  0  0
 12 13  1  0  0  0  0
 12 26  1  0  0  0  0
 12 27  1  0  0  0  0
 13 14  1  0  0  0  0
 13 28  1  0  0  0  0
 13 29  1  0  0  0  0
 14 15  1  0  0  0  0
 14 30  1  0  0  0  0
 14 31  1  0  0  0  0
 15 16  1  0  0  0  0
 15 32  1  0  0  0  0
 15 33  1  0  0  0  0
 16 17  1  0  0  0  0
 16 34  1  0  0  0  0
 17 18  1  0  0  0  0
 17 35  1  0  0  0  0
 17 36  1  0  0  0  0
 18 37  1  0  0  0  0
M  END
> <s_m_source_file>
AV-unprocessed.smi

> <i_m_source_file_index>
2481

> <i_lp_mmshare_version>
43012

> <i_f3d_flags>
0

> <s_epik_input>
W0NIM11uMW5bY0hdbmMxW05IXUMoPU8pW05IXVtDQEBIXTJbQ0gyXVtDSDJdW0NIMl1bQ0gyXVtDQEhdMltDSDJdW09IXQ==

> <s_epik_cmdline>
J2VwaWtfcHl0aG9uJywgJy1waCcsICc3LjAnLCAnLXRuJywgJzgnLCAnLW1hJywgJzIwMCcsICctbWV0YWxfYmluZGluZycsICctaW1hZScsICc8aW5maWxlLm1hZT4nLCAnLW9tYWUnLCAnPG91dGZpbGUubWFlPic=

> <r_lp_tautomer_probability>
1

> <r_epik_Ionization_Penalty>
2.32704e-05

> <r_epik_Ionization_Penalty_Charging>
0

> <r_epik_Ionization_Penalty_Neutral>
2.32704e-05

> <r_epik_State_Penalty>
-0

> <r_epik_Charging_Adjusted_Penalty>
0

> <i_epik_Tot_Q>
0

> <i_epik_Tot_abs_Q>
0

> <r_epik_Metal_State_Penalty>
-0

> <b_epik_Metal_Only>
0

> <s_lp_Force_Field>
OPLS_2005

> <r_lp_Energy>
13.3573

> <b_lp_Chiralities_Consistent>
1

> <s_lp_Variant>
AV-unprocessed.smi:2481-1

> <Gold.Version>
5.8.1

> <Gold.Id.Protein>
6NUR|6NUR_protein|mol2

> <Gold.PLP.Fitness>
44.0020

> <Gold.PLP.PLP>
-33.0058

> <Gold.PLP.part.hbond>
-5.0000

> <Gold.PLP.part.metal>
0.0000

> <Gold.PLP.part.buried>
-4.3337

> <Gold.PLP.part.nonpolar>
-23.1790

> <Gold.PLP.part.repulsive>
0.0562

> <Gold.PLP.ligand.clash>
0.0000

> <Gold.PLP.ligand.torsion>
0.2541

> <Gold.PLP.Chemscore.Hbond>
3.8320

> <Gold.PLP.Chemscore.CHOScore>
0.0000

> <Gold.PLP.Chemscore.Metal>
0.0000

> <Gold.Chemscore.Hbonds>
donor molecule, donor type, donor heavy atom, donor atom, acceptor molecule, acceptor atom, score
      L1  H     7    23       P1  7948  0.88
      L1  H    10    24       P1  7948  0.83
      L1  H    18    37       P1 10171  1.00
      P1  H 10752 10765       L1     3  0.85

> <Gold.PLP.Chemscore.Internal.Correction>
0.0084

> <Gold.Rescore>
     Score         DG    S(hbond)    S(metal)    S(lipo)     H(rot)  DE(clash)    DE(int)     intcor
     15.19     -16.66       2.78        0.00      59.65       1.99       0.16       1.31       ----

> <Gold.Chemscore.Fitness>
15.1911

> <Gold.Chemscore.DG>
-16.6587

> <Gold.Chemscore.ZeroCoef>
-5.4800

> <Gold.Chemscore.Hbond>
2.7808

> <Gold.Chemscore.Metal>
0.0000

> <Gold.Chemscore.Lipo>
59.6517

> <Gold.Chemscore.Internal_Hbond>
0.0000

> <Gold.Chemscore.DEClash>
0.1578

> <Gold.Chemscore.DEInternal>
1.3099

> <Gold.Chemscore.Rot>
1.9877

> <Gold.Chemscore.Internal.Correction>
   9.000000E+99

> <Gold.Chemscore.Hbonds>
donor molecule, donor type, donor heavy atom, donor atom, acceptor molecule, acceptor atom, score
      L1  H     7    23       P1  7948  0.56
      L1  H    10    24       P1  7948  0.81
      L1  H    18    37       P1 10171  0.97
      P1  H 10752 10765       L1     3  0.06

> <Gold.Chemscore.Hbond.Weighted>
-9.2880

> <Gold.Chemscore.Metal.Weighted>
-0.0000

> <Gold.Chemscore.Lipo.Weighted>
-6.9793

> <Gold.Chemscore.Internal_Hbond.Weighted>
0.0000

> <Gold.Chemscore.DEClash.Weighted>
0.1578

> <Gold.Chemscore.DEInternal.Weighted>
1.3099

> <Gold.Chemscore.Rot.Weighted>
5.0885

> <Gold.Chemscore.Internal.Correction.Weighted>
   9.000000E+99

> <Gold.Protein.RotatedTorsions>
[ 6907 6896 6895 6894 ] final   -7.55 input  -60.11 | X-H torsion
[ 7974 7965 7964 7962 ] final -130.74 input  175.53 | X-H torsion
[ 8008 7997 7996 7995 ] final   49.42 input   59.86 | X-H torsion
[ 10167 10162 10161 10158 ] final  -58.88 input  -65.29 | X-H torsion
[ 10718 10713 10712 10709 ] final  -37.36 input   66.30 | X-H torsion
[ 10763 10752 10751 10750 ] final -134.64 input  -60.55 | X-H torsion
[ 11005 11000 10999 10996 ] final  -17.68 input  -57.11 | X-H torsion

> <Gold.Protein.ActiveResidues>
 VAL166  LYS551  ARG553  GLY616  TRP617  ASP618  TYR619  PRO620  LYS621  CYS622 
 ASP623  PHE694  ASN695  SER759  ASP760  ASP761  ALA762  ILE779  LEU786  VAL792 
 PHE793  MET794  SER795  GLU796  ALA797  LYS798  CYS799  TRP800  GLU811  SER814 

> <Gold.Protein.RotatedAtoms>
  151.4477  135.1027  159.9688 H   0  0  0  0  0  0  0  0  0  0  0  0  # atno 6907 bound_to 6896
  152.4899  133.8469  159.7192 H   0  0  0  0  0  0  0  0  0  0  0  0  # atno 6908 bound_to 6896
  150.9044  133.7018  159.2898 H   0  0  0  0  0  0  0  0  0  0  0  0  # atno 6909 bound_to 6896
  144.9446  140.7277  143.4825 H   0  0  0  0  0  0  0  0  0  0  0  0  # atno 7974 bound_to 7965
  155.4019  140.3438  155.4257 H   0  0  0  0  0  0  0  0  0  0  0  0  # atno 8008 bound_to 7997
  156.1498  140.1567  156.8820 H   0  0  0  0  0  0  0  0  0  0  0  0  # atno 8009 bound_to 7997
  154.5043  140.0806  156.7842 H   0  0  0  0  0  0  0  0  0  0  0  0  # atno 8010 bound_to 7997
  140.6170  143.2406  151.5574 H   0  0  0  0  0  0  0  0  0  0  0  0  # atno 10167 bound_to 10162
  156.3161  130.4259  149.8004 H   0  0  0  0  0  0  0  0  0  0  0  0  # atno 10718 bound_to 10713
  154.8716  135.3728  154.4768 H   0  0  0  0  0  0  0  0  0  0  0  0  # atno 10763 bound_to 10752
  153.5424  135.7026  153.5635 H   0  0  0  0  0  0  0  0  0  0  0  0  # atno 10764 bound_to 10752
  153.3790  135.4001  155.1808 H   0  0  0  0  0  0  0  0  0  0  0  0  # atno 10765 bound_to 10752
  140.8193  133.8080  155.9643 H   0  0  0  0  0  0  0  0  0  0  0  0  # atno 11005 bound_to 11000
  145.2938  139.1874  143.4726 LP  0  0  0  0  0  0  0  0  0  0  0  0  # atno 17320 bound_to 7965
  146.3298  140.2919  142.8616 LP  0  0  0  0  0  0  0  0  0  0  0  0  # atno 17321 bound_to 7965
  139.5406  144.2657  152.1343 LP  0  0  0  0  0  0  0  0  0  0  0  0  # atno 17342 bound_to 10162
  140.1869  144.4790  150.6499 LP  0  0  0  0  0  0  0  0  0  0  0  0  # atno 17343 bound_to 10162
  156.5329  130.8266  151.3243 LP  0  0  0  0  0  0  0  0  0  0  0  0  # atno 17370 bound_to 10713
  157.7402  130.9845  150.2361 LP  0  0  0  0  0  0  0  0  0  0  0  0  # atno 17371 bound_to 10713
  140.9116  134.2254  157.4982 LP  0  0  0  0  0  0  0  0  0  0  0  0  # atno 17394 bound_to 11000
  139.8709  134.9752  156.4876 LP  0  0  0  0  0  0  0  0  0  0  0  0  # atno 17395 bound_to 11000

$$$$
