AV-unprocessed.smi:927|AV-procd|sdf|4190|dock7
  -GOLD-   22720 2 93D 1   1.00000     0.00000
 Structure written by MMmdl.
 20 20  0  0  0  0  0  0  0  0  1 V2000
  144.1718  137.6347  152.4019 N   0  0  0  0  0  0  0  0  0  0  0  0
  144.0216  136.2010  152.1063 C   0  0  0  0  0  0  0  0  0  0  0  0
  145.2712  135.5918  151.4463 C   0  0  1  0  0  0  0  0  0  0  0  0
  146.3391  135.6551  152.3708 O   0  0  0  0  0  0  0  0  0  0  0  0
  145.0121  134.1591  151.0060 C   0  0  0  0  0  0  0  0  0  0  0  0
  143.7381  133.5685  151.1538 C   0  0  0  0  0  0  0  0  0  0  0  0
  143.5557  132.2403  150.7204 C   0  0  0  0  0  0  0  0  0  0  0  0
  144.5394  131.4991  150.1672 N   0  0  0  0  0  0  0  0  0  0  0  0
  145.7553  132.0691  150.0264 C   0  0  0  0  0  0  0  0  0  0  0  0
  146.0431  133.3893  150.4272 C   0  0  0  0  0  0  0  0  0  0  0  0
  145.0386  137.8053  152.9096 H   0  0  0  0  0  0  0  0  0  0  0  0
  144.2198  138.1732  151.5382 H   0  0  0  0  0  0  0  0  0  0  0  0
  143.7633  135.6498  153.0114 H   0  0  0  0  0  0  0  0  0  0  0  0
  143.1764  136.0798  151.4282 H   0  0  0  0  0  0  0  0  0  0  0  0
  145.5485  136.1808  150.5707 H   0  0  0  0  0  0  0  0  0  0  0  0
  147.1254  135.8908  151.9030 H   0  0  0  0  0  0  0  0  0  0  0  0
  142.9168  134.1196  151.5879 H   0  0  0  0  0  0  0  0  0  0  0  0
  142.5931  131.7609  150.8197 H   0  0  0  0  0  0  0  0  0  0  0  0
  146.5230  131.4548  149.5798 H   0  0  0  0  0  0  0  0  0  0  0  0
  147.0336  133.7974  150.2900 H   0  0  0  0  0  0  0  0  0  0  0  0
  1  2  1  0  0  0  0
  1 11  1  0  0  0  0
  1 12  1  0  0  0  0
  2  3  1  0  0  0  0
  2 13  1  0  0  0  0
  2 14  1  0  0  0  0
  3  4  1  0  0  0  0
  3  5  1  0  0  0  0
  3 15  1  0  0  0  0
  4 16  1  0  0  0  0
  5 10  1  0  0  0  0
  5  6  2  0  0  0  0
  6  7  1  0  0  0  0
  6 17  1  0  0  0  0
  7  8  2  0  0  0  0
  7 18  1  0  0  0  0
  8  9  1  0  0  0  0
  9 10  2  0  0  0  0
  9 19  1  0  0  0  0
 10 20  1  0  0  0  0
M  END
> <s_m_source_file>
AV-unprocessed.smi

> <i_m_source_file_index>
927

> <i_lp_mmshare_version>
43012

> <i_f3d_flags>
0

> <s_epik_input>
W05IMl1bQ0gyXVtDQEhdKFtPSF0pYzFbY0hdW2NIXW5bY0hdW2NIXTE=

> <s_epik_cmdline>
J2VwaWtfcHl0aG9uJywgJy1waCcsICc3LjAnLCAnLXRuJywgJzgnLCAnLW1hJywgJzIwMCcsICctbWV0YWxfYmluZGluZycsICctaW1hZScsICc8aW5maWxlLm1hZT4nLCAnLW9tYWUnLCAnPG91dGZpbGUubWFlPic=

> <r_epik_Ionization_Penalty>
2.24668

> <r_epik_Ionization_Penalty_Charging>
0

> <r_epik_Ionization_Penalty_Neutral>
2.24668

> <r_epik_State_Penalty>
2.36938

> <r_epik_Charging_Adjusted_Penalty>
2.36938

> <i_epik_Tot_Q>
0

> <i_epik_Tot_abs_Q>
0

> <r_epik_Metal_State_Penalty>
2.3492

> <b_epik_Metal_Only>
0

> <s_lp_Force_Field>
OPLS_2005

> <r_lp_Energy>
12.0252

> <b_lp_Chiralities_Consistent>
1

> <s_lp_Variant>
AV-unprocessed.smi:927-4

> <Gold.Version>
5.8.1

> <Gold.Id.Protein>
6NUR|6NUR_protein|mol2

> <Gold.PLP.Fitness>
34.7514

> <Gold.PLP.PLP>
-22.6299

> <Gold.PLP.part.hbond>
-3.9592

> <Gold.PLP.part.metal>
0.0000

> <Gold.PLP.part.buried>
-2.3140

> <Gold.PLP.part.nonpolar>
-16.4046

> <Gold.PLP.part.repulsive>
0.1240

> <Gold.PLP.ligand.clash>
0.0000

> <Gold.PLP.ligand.torsion>
0.0402

> <Gold.PLP.Chemscore.Hbond>
2.0679

> <Gold.PLP.Chemscore.CHOScore>
1.9988

> <Gold.PLP.Chemscore.Metal>
0.0000

> <Gold.Chemscore.Hbonds>
donor molecule, donor type, donor heavy atom, donor atom, acceptor molecule, acceptor atom, score
      L1  H     1    12       P1 10171  1.00
      L1  H     4    16       P1  7948  1.00
      P1  H 10785 10796       L1     8  0.07
      L1  C     7    18       P1 10952  0.87
      L1  C     9    19       P1 10747  0.83

> <Gold.PLP.Chemscore.Internal.Correction>
0.0021

> <Gold.Rescore>
     Score         DG    S(hbond)    S(metal)    S(lipo)     H(rot)  DE(clash)    DE(int)     intcor
     15.09     -15.33       2.51        0.00      53.04       1.85       0.22       0.02       ----

> <Gold.Chemscore.Fitness>
15.0926

> <Gold.Chemscore.DG>
-15.3330

> <Gold.Chemscore.ZeroCoef>
-5.4800

> <Gold.Chemscore.Hbond>
2.5065

> <Gold.Chemscore.Metal>
0.0000

> <Gold.Chemscore.Lipo>
53.0410

> <Gold.Chemscore.Internal_Hbond>
0.0000

> <Gold.Chemscore.DEClash>
0.2178

> <Gold.Chemscore.DEInternal>
0.0226

> <Gold.Chemscore.Rot>
1.8455

> <Gold.Chemscore.Internal.Correction>
   9.000000E+99

> <Gold.Chemscore.Hbonds>
donor molecule, donor type, donor heavy atom, donor atom, acceptor molecule, acceptor atom, score
      L1  H     1    12       P1 10171  0.99
      L1  H     4    16       P1  7948  0.96
      P1  H 10785 10796       L1     8  0.02

> <Gold.Chemscore.Hbond.Weighted>
-8.3717

> <Gold.Chemscore.Metal.Weighted>
-0.0000

> <Gold.Chemscore.Lipo.Weighted>
-6.2058

> <Gold.Chemscore.Internal_Hbond.Weighted>
0.0000

> <Gold.Chemscore.DEClash.Weighted>
0.2178

> <Gold.Chemscore.DEInternal.Weighted>
0.0226

> <Gold.Chemscore.Rot.Weighted>
4.7245

> <Gold.Chemscore.Internal.Correction.Weighted>
   9.000000E+99

> <Gold.Protein.RotatedTorsions>
[ 6907 6896 6895 6894 ] final   56.53 input  -60.11 | X-H torsion
[ 7974 7965 7964 7962 ] final  -83.27 input  175.53 | X-H torsion
[ 8008 7997 7996 7995 ] final -119.64 input   59.86 | X-H torsion
[ 10167 10162 10161 10158 ] final  179.29 input  -65.29 | X-H torsion
[ 10718 10713 10712 10709 ] final -124.23 input   66.30 | X-H torsion
[ 10763 10752 10751 10750 ] final  -59.91 input  -60.55 | X-H torsion
[ 11005 11000 10999 10996 ] final  -54.43 input  -57.11 | X-H torsion

> <Gold.Protein.ActiveResidues>
 VAL166  LYS551  ARG553  GLY616  TRP617  ASP618  TYR619  PRO620  LYS621  CYS622 
 ASP623  PHE694  ASN695  SER759  ASP760  ASP761  ALA762  ILE779  LEU786  VAL792 
 PHE793  MET794  SER795  GLU796  ALA797  LYS798  CYS799  TRP800  GLU811  SER814 

> <Gold.Protein.RotatedAtoms>
  152.3645  134.6824  160.0196 H   0  0  0  0  0  0  0  0  0  0  0  0  # atno 6907 bound_to 6896
  151.7136  133.3307  159.3305 H   0  0  0  0  0  0  0  0  0  0  0  0  # atno 6908 bound_to 6896
  150.7628  134.6444  159.6299 H   0  0  0  0  0  0  0  0  0  0  0  0  # atno 6909 bound_to 6896
  145.5223  140.9530  143.1648 H   0  0  0  0  0  0  0  0  0  0  0  0  # atno 7974 bound_to 7965
  155.1189  140.0398  157.2744 H   0  0  0  0  0  0  0  0  0  0  0  0  # atno 8008 bound_to 7997
  154.6628  140.2595  155.7064 H   0  0  0  0  0  0  0  0  0  0  0  0  # atno 8009 bound_to 7997
  156.2626  140.2813  156.1107 H   0  0  0  0  0  0  0  0  0  0  0  0  # atno 8010 bound_to 7997
  139.5330  144.2578  152.0732 H   0  0  0  0  0  0  0  0  0  0  0  0  # atno 10167 bound_to 10162
  156.1570  130.6575  150.9995 H   0  0  0  0  0  0  0  0  0  0  0  0  # atno 10718 bound_to 10713
  154.2610  135.6308  153.5274 H   0  0  0  0  0  0  0  0  0  0  0  0  # atno 10763 bound_to 10752
  152.9895  135.5587  154.5704 H   0  0  0  0  0  0  0  0  0  0  0  0  # atno 10764 bound_to 10752
  154.5253  135.2885  155.1202 H   0  0  0  0  0  0  0  0  0  0  0  0  # atno 10765 bound_to 10752
  141.1025  133.6616  156.4320 H   0  0  0  0  0  0  0  0  0  0  0  0  # atno 11005 bound_to 11000
  144.7670  139.6823  143.7211 LP  0  0  0  0  0  0  0  0  0  0  0  0  # atno 17320 bound_to 7965
  146.2098  139.5447  142.9688 LP  0  0  0  0  0  0  0  0  0  0  0  0  # atno 17321 bound_to 7965
  140.2044  144.4625  150.6415 LP  0  0  0  0  0  0  0  0  0  0  0  0  # atno 17342 bound_to 10162
  140.6520  143.2227  151.6055 LP  0  0  0  0  0  0  0  0  0  0  0  0  # atno 17343 bound_to 10162
  157.6703  131.0863  150.7629 LP  0  0  0  0  0  0  0  0  0  0  0  0  # atno 17370 bound_to 10713
  156.7694  130.4824  149.5421 LP  0  0  0  0  0  0  0  0  0  0  0  0  # atno 17371 bound_to 10713
  140.4985  134.6508  157.5239 LP  0  0  0  0  0  0  0  0  0  0  0  0  # atno 17394 bound_to 11000
  139.9882  134.7027  155.9735 LP  0  0  0  0  0  0  0  0  0  0  0  0  # atno 17395 bound_to 11000

$$$$
