AV-unprocessed.smi:37|AV-procd|sdf|332|dock8
  -GOLD-   2262016163D 1   1.00000     0.00000
 Structure written by MMmdl.
 43 44  0  0  0  0  0  0  0  0  2 V2000
  146.4933  134.7990  162.6698 C   0  0  0  0  0  0  0  0  0  0  0  0
  147.0973  134.8056  161.2577 C   0  0  0  0  0  0  0  0  0  0  0  0
  148.1063  135.9326  161.0273 C   0  0  0  0  0  0  0  0  0  0  0  0
  148.3448  136.7919  161.8778 O   0  0  0  0  0  0  0  0  0  0  0  0
  148.6729  135.8542  159.8152 O   0  0  0  0  0  0  0  0  0  0  0  0
  149.8796  136.5516  159.5513 C   0  0  0  0  0  0  0  0  0  0  0  0
  150.5036  136.0021  158.2628 C   0  0  1  0  0  0  0  0  0  0  0  0
  149.6954  136.3110  157.1270 O   0  0  0  0  0  0  0  0  0  0  0  0
  150.4966  136.6629  156.0326 C   0  0  1  0  0  0  0  0  0  0  0  0
  150.2994  138.1307  155.7070 N   0  0  0  0  0  0  0  0  0  0  0  0
  149.3105  138.8837  156.3194 C   0  0  0  0  0  0  0  0  0  0  0  0
  149.1414  140.1892  156.0259 C   0  0  0  0  0  0  0  0  0  0  0  0
  148.1731  140.8926  156.6378 F   0  0  0  0  0  0  0  0  0  0  0  0
  150.0134  140.8291  155.0428 C   0  0  0  0  0  0  0  0  0  0  0  0
  149.8521  142.0191  154.7764 O   0  0  0  0  0  0  0  0  0  0  0  0
  150.9809  140.0658  154.4574 N   0  5  0  0  0  0  0  0  0  0  0  0
  151.1580  138.7450  154.7536 C   0  0  0  0  0  0  0  0  0  0  0  0
  152.0352  138.0523  154.2375 O   0  0  0  0  0  0  0  0  0  0  0  0
  151.9515  136.4027  156.4364 C   0  0  2  0  0  0  0  0  0  0  0  0
  152.4346  134.5263  155.9559 Br  0  0  0  0  0  0  0  0  0  0  0  0
  151.8826  136.5782  157.9442 C   0  0  2  0  0  0  0  0  0  0  0  0
  152.9159  135.8810  158.6269 O   0  0  0  0  0  0  0  0  0  0  0  0
  154.2035  136.2051  158.4197 C   0  0  0  0  0  0  0  0  0  0  0  0
  154.6525  136.7907  157.4345 O   0  0  0  0  0  0  0  0  0  0  0  0
  155.1097  135.7695  159.5684 C   0  0  0  0  0  0  0  0  0  0  0  0
  155.8282  136.9581  160.2210 C   0  0  0  0  0  0  0  0  0  0  0  0
  145.7883  133.9750  162.7806 H   0  0  0  0  0  0  0  0  0  0  0  0
  145.9541  135.7242  162.8765 H   0  0  0  0  0  0  0  0  0  0  0  0
  147.2637  134.6777  163.4321 H   0  0  0  0  0  0  0  0  0  0  0  0
  147.5936  133.8535  161.0676 H   0  0  0  0  0  0  0  0  0  0  0  0
  146.3010  134.8981  160.5187 H   0  0  0  0  0  0  0  0  0  0  0  0
  149.6580  137.6133  159.4359 H   0  0  0  0  0  0  0  0  0  0  0  0
  150.5731  136.4485  160.3868 H   0  0  0  0  0  0  0  0  0  0  0  0
  150.5600  134.9134  158.3157 H   0  0  0  0  0  0  0  0  0  0  0  0
  150.1743  136.1232  155.1407 H   0  0  0  0  0  0  0  0  0  0  0  0
  148.6544  138.4351  157.0479 H   0  0  0  0  0  0  0  0  0  0  0  0
  152.6551  137.0745  155.9437 H   0  0  0  0  0  0  0  0  0  0  0  0
  151.8857  137.6411  158.1920 H   0  0  0  0  0  0  0  0  0  0  0  0
  154.5090  135.2452  160.3121 H   0  0  0  0  0  0  0  0  0  0  0  0
  155.8391  135.0537  159.1889 H   0  0  0  0  0  0  0  0  0  0  0  0
  156.4362  136.6241  161.0617 H   0  0  0  0  0  0  0  0  0  0  0  0
  155.1170  137.6934  160.5987 H   0  0  0  0  0  0  0  0  0  0  0  0
  156.4901  137.4617  159.5157 H   0  0  0  0  0  0  0  0  0  0  0  0
  1  2  1  0  0  0  0
  1 27  1  0  0  0  0
  1 28  1  0  0  0  0
  1 29  1  0  0  0  0
  2  3  1  0  0  0  0
  2 30  1  0  0  0  0
  2 31  1  0  0  0  0
  3  4  2  0  0  0  0
  3  5  1  0  0  0  0
  5  6  1  0  0  0  0
  6  7  1  0  0  0  0
  6 32  1  0  0  0  0
  6 33  1  0  0  0  0
  7 21  1  0  0  0  0
  7  8  1  0  0  0  0
  7 34  1  0  0  0  0
  8  9  1  0  0  0  0
  9 10  1  0  0  0  0
  9 19  1  0  0  0  0
  9 35  1  0  0  0  0
 10 17  1  0  0  0  0
 10 11  1  0  0  0  0
 11 12  2  0  0  0  0
 11 36  1  0  0  0  0
 12 13  1  0  0  0  0
 12 14  1  0  0  0  0
 14 15  2  0  0  0  0
 14 16  1  0  0  0  0
 16 17  1  0  0  0  0
 17 18  2  0  0  0  0
 19 20  1  0  0  0  0
 19 21  1  0  0  0  0
 19 37  1  0  0  0  0
 21 22  1  0  0  0  0
 21 38  1  0  0  0  0
 22 23  1  0  0  0  0
 23 24  2  0  0  0  0
 23 25  1  0  0  0  0
 25 26  1  0  0  0  0
 25 39  1  0  0  0  0
 25 40  1  0  0  0  0
 26 41  1  0  0  0  0
 26 42  1  0  0  0  0
 26 43  1  0  0  0  0
M  CHG  1  16  -1
M  END
> <s_m_source_file>
AV-unprocessed.smi

> <i_m_source_file_index>
37

> <i_lp_mmshare_version>
43012

> <i_f3d_flags>
0

> <s_epik_input>
W0NIM11bQ0gyXUMoPU8pT1tDSDJdW0NAQEhdMU9bQ0BASF0objJbY0hdYyhGKWMoPU8pW25IXWMyPU8pW0NAQEhdKEJyKVtDQEhdMU9DKD1PKVtDSDJdW0NIM10=

> <s_epik_cmdline>
J2VwaWtfcHl0aG9uJywgJy1waCcsICc3LjAnLCAnLXRuJywgJzgnLCAnLW1hJywgJzIwMCcsICctbWV0YWxfYmluZGluZycsICctaW1hZScsICc8aW5maWxlLm1hZT4nLCAnLW9tYWUnLCAnPG91dGZpbGUubWFlPic=

> <r_epik_Ionization_Penalty>
1.08158

> <r_epik_Ionization_Penalty_Charging>
9.05154e-09

> <r_epik_Ionization_Penalty_Neutral>
1.08158

> <r_epik_State_Penalty>
1.13706

> <r_epik_Charging_Adjusted_Penalty>
1.13706

> <i_epik_Tot_Q>
-1

> <i_epik_Tot_abs_Q>
1

> <r_epik_Metal_State_Penalty>
0.00343535

> <b_epik_Metal_Only>
0

> <s_epik_Chemistry_Notes>
This compound has an ester and may undergo hydrolysis at high or low pH. This compound contains an acetal/aminal-like group ( X-CH(R)-Y where X, Y are N, S, or O) that may be acid/base labile, releasing an aldehyde.

> <s_lp_Force_Field>
OPLS_2005

> <r_lp_Energy>
34.595

> <b_lp_Chiralities_Consistent>
1

> <s_lp_Variant>
AV-unprocessed.smi:37-30

> <Gold.Version>
5.8.1

> <Gold.Id.Protein>
6NUR|6NUR_protein|mol2

> <Gold.PLP.Fitness>
41.8460

> <Gold.PLP.PLP>
-29.6572

> <Gold.PLP.part.hbond>
-5.7586

> <Gold.PLP.part.metal>
0.0000

> <Gold.PLP.part.buried>
0.7036

> <Gold.PLP.part.nonpolar>
-24.8021

> <Gold.PLP.part.repulsive>
0.6583

> <Gold.PLP.ligand.clash>
0.0000

> <Gold.PLP.ligand.torsion>
0.7701

> <Gold.PLP.Chemscore.Hbond>
4.5190

> <Gold.PLP.Chemscore.CHOScore>
0.0000

> <Gold.PLP.Chemscore.Metal>
0.0000

> <Gold.Chemscore.Hbonds>
donor molecule, donor type, donor heavy atom, donor atom, acceptor molecule, acceptor atom, score
      P1  H  6931  6943       L1     4  1.00
      P1  H  7989  7998       L1    16  0.70

> <Gold.PLP.Chemscore.Internal.Correction>
0.1719

> <Gold.Rescore>
     Score         DG    S(hbond)    S(metal)    S(lipo)     H(rot)  DE(clash)    DE(int)     intcor
     10.00     -14.39       3.20        0.00      56.29       3.27       1.10       3.28       ----

> <Gold.Chemscore.Fitness>
10.0028

> <Gold.Chemscore.DG>
-14.3862

> <Gold.Chemscore.ZeroCoef>
-5.4800

> <Gold.Chemscore.Hbond>
3.1989

> <Gold.Chemscore.Metal>
0.0000

> <Gold.Chemscore.Lipo>
56.2855

> <Gold.Chemscore.Internal_Hbond>
0.0000

> <Gold.Chemscore.DEClash>
1.1032

> <Gold.Chemscore.DEInternal>
3.2803

> <Gold.Chemscore.Rot>
3.2669

> <Gold.Chemscore.Internal.Correction>
   9.000000E+99

> <Gold.Chemscore.Hbonds>
donor molecule, donor type, donor heavy atom, donor atom, acceptor molecule, acceptor atom, score
      P1  H  6931  6943       L1     4  0.99
      P1  H  7989  7998       L1    16  0.45
      P1  H  8011  8017       L1    15  0.01

> <Gold.Chemscore.Hbond.Weighted>
-10.6842

> <Gold.Chemscore.Metal.Weighted>
-0.0000

> <Gold.Chemscore.Lipo.Weighted>
-6.5854

> <Gold.Chemscore.Internal_Hbond.Weighted>
0.0000

> <Gold.Chemscore.DEClash.Weighted>
1.1032

> <Gold.Chemscore.DEInternal.Weighted>
3.2803

> <Gold.Chemscore.Rot.Weighted>
8.3634

> <Gold.Chemscore.Internal.Correction.Weighted>
   9.000000E+99

> <Gold.Protein.RotatedTorsions>
[ 6907 6896 6895 6894 ] final   41.01 input  -60.11 | X-H torsion
[ 7974 7965 7964 7962 ] final  166.11 input  175.53 | X-H torsion
[ 8008 7997 7996 7995 ] final  106.01 input   59.86 | X-H torsion
[ 10167 10162 10161 10158 ] final  -48.81 input  -65.29 | X-H torsion
[ 10718 10713 10712 10709 ] final   71.05 input   66.30 | X-H torsion
[ 10763 10752 10751 10750 ] final  -22.81 input  -60.55 | X-H torsion
[ 11005 11000 10999 10996 ] final   -4.84 input  -57.11 | X-H torsion

> <Gold.Protein.ActiveResidues>
 VAL166  LYS551  ARG553  GLY616  TRP617  ASP618  TYR619  PRO620  LYS621  CYS622 
 ASP623  PHE694  ASN695  SER759  ASP760  ASP761  ALA762  ILE779  LEU786  VAL792 
 PHE793  MET794  SER795  GLU796  ALA797  LYS798  CYS799  TRP800  GLU811  SER814 

> <Gold.Protein.RotatedAtoms>
  152.1898  134.8681  160.0518 H   0  0  0  0  0  0  0  0  0  0  0  0  # atno 6907 bound_to 6896
  151.9574  133.3679  159.4031 H   0  0  0  0  0  0  0  0  0  0  0  0  # atno 6908 bound_to 6896
  150.6933  134.4200  159.5244 H   0  0  0  0  0  0  0  0  0  0  0  0  # atno 6909 bound_to 6896
  144.7475  139.8568  143.6377 H   0  0  0  0  0  0  0  0  0  0  0  0  # atno 7974 bound_to 7965
  156.1707  140.3120  155.8969 H   0  0  0  0  0  0  0  0  0  0  0  0  # atno 8008 bound_to 7997
  155.3592  140.0475  157.3063 H   0  0  0  0  0  0  0  0  0  0  0  0  # atno 8009 bound_to 7997
  154.5238  140.2207  155.8937 H   0  0  0  0  0  0  0  0  0  0  0  0  # atno 8010 bound_to 7997
  140.6714  143.2724  151.4124 H   0  0  0  0  0  0  0  0  0  0  0  0  # atno 10167 bound_to 10162
  157.6432  130.9508  150.0735 H   0  0  0  0  0  0  0  0  0  0  0  0  # atno 10718 bound_to 10713
  153.6578  135.6978  153.5187 H   0  0  0  0  0  0  0  0  0  0  0  0  # atno 10763 bound_to 10752
  153.2655  135.4231  155.0936 H   0  0  0  0  0  0  0  0  0  0  0  0  # atno 10764 bound_to 10752
  154.8460  135.3565  154.6123 H   0  0  0  0  0  0  0  0  0  0  0  0  # atno 10765 bound_to 10752
  140.6846  133.9124  155.8578 H   0  0  0  0  0  0  0  0  0  0  0  0  # atno 11005 bound_to 11000
  146.1377  139.4426  143.0129 LP  0  0  0  0  0  0  0  0  0  0  0  0  # atno 17320 bound_to 7965
  145.7066  141.0119  143.1475 LP  0  0  0  0  0  0  0  0  0  0  0  0  # atno 17321 bound_to 7965
  139.5984  144.1347  152.2170 LP  0  0  0  0  0  0  0  0  0  0  0  0  # atno 17342 bound_to 10162
  140.0724  144.5768  150.7182 LP  0  0  0  0  0  0  0  0  0  0  0  0  # atno 17343 bound_to 10162
  156.1732  130.3647  149.9136 LP  0  0  0  0  0  0  0  0  0  0  0  0  # atno 17370 bound_to 10713
  156.7106  130.8969  151.3609 LP  0  0  0  0  0  0  0  0  0  0  0  0  # atno 17371 bound_to 10713
  141.0290  134.0783  157.4036 LP  0  0  0  0  0  0  0  0  0  0  0  0  # atno 17394 bound_to 11000
  139.8941  135.0134  156.6935 LP  0  0  0  0  0  0  0  0  0  0  0  0  # atno 17395 bound_to 11000

$$$$
