AV-unprocessed.smi:2513|AV-procd|sdf|9892|dock2
  -GOLD-   2272013533D 1   1.00000     0.00000
 Structure written by MMmdl.
 35 36  0  0  0  0  0  0  0  0  1 V2000
  145.7816  143.1097  153.6516 C   0  0  0  0  0  0  0  0  0  0  0  0
  146.9530  142.6953  154.3391 O   0  0  0  0  0  0  0  0  0  0  0  0
  147.4364  141.4237  154.0995 C   0  0  0  0  0  0  0  0  0  0  0  0
  146.8208  140.5054  153.2109 C   0  0  0  0  0  0  0  0  0  0  0  0
  147.3888  139.2325  153.0309 C   0  0  0  0  0  0  0  0  0  0  0  0
  148.5551  138.9189  153.7476 C   0  0  0  0  0  0  0  0  0  0  0  0
  149.1496  139.7808  154.5955 N   0  0  0  0  0  0  0  0  0  0  0  0
  148.6132  141.0133  154.7786 C   0  0  0  0  0  0  0  0  0  0  0  0
  149.1809  141.9800  155.6545 N   0  0  0  0  0  0  0  0  0  0  0  0
  150.3074  141.8901  156.3828 C   0  0  0  0  0  0  0  0  0  0  0  0
  151.0627  140.9180  156.4122 O   0  0  0  0  0  0  0  0  0  0  0  0
  150.5158  143.0093  157.0914 N   0  0  0  0  0  0  0  0  0  0  0  0
  151.6467  143.2410  157.9849 C   0  0  1  0  0  0  0  0  0  0  0  0
  151.3451  144.4317  158.9071 C   0  0  0  0  0  0  0  0  0  0  0  0
  152.4673  144.5931  159.9386 C   0  0  0  0  0  0  0  0  0  0  0  0
  152.7155  143.2668  160.6740 C   0  0  0  0  0  0  0  0  0  0  0  0
  153.0157  142.2413  159.7333 O   0  0  0  0  0  0  0  0  0  0  0  0
  151.9471  141.9836  158.8278 C   0  0  0  0  0  0  0  0  0  0  0  0
  145.5315  144.1280  153.9496 H   0  0  0  0  0  0  0  0  0  0  0  0
  144.9290  142.4758  153.8984 H   0  0  0  0  0  0  0  0  0  0  0  0
  145.9321  143.1101  152.5711 H   0  0  0  0  0  0  0  0  0  0  0  0
  145.9244  140.7512  152.6625 H   0  0  0  0  0  0  0  0  0  0  0  0
  146.9414  138.5145  152.3595 H   0  0  0  0  0  0  0  0  0  0  0  0
  149.0237  137.9520  153.6376 H   0  0  0  0  0  0  0  0  0  0  0  0
  148.6632  142.8428  155.7332 H   0  0  0  0  0  0  0  0  0  0  0  0
  149.8437  143.7577  157.0072 H   0  0  0  0  0  0  0  0  0  0  0  0
  152.5291  143.4850  157.3902 H   0  0  0  0  0  0  0  0  0  0  0  0
  151.2331  145.3477  158.3257 H   0  0  0  0  0  0  0  0  0  0  0  0
  150.3987  144.2708  159.4259 H   0  0  0  0  0  0  0  0  0  0  0  0
  153.3834  144.9078  159.4372 H   0  0  0  0  0  0  0  0  0  0  0  0
  152.2143  145.3787  160.6512 H   0  0  0  0  0  0  0  0  0  0  0  0
  153.5549  143.3710  161.3617 H   0  0  0  0  0  0  0  0  0  0  0  0
  151.8474  142.9844  161.2717 H   0  0  0  0  0  0  0  0  0  0  0  0
  151.0632  141.6617  159.3809 H   0  0  0  0  0  0  0  0  0  0  0  0
  152.2368  141.1531  158.1833 H   0  0  0  0  0  0  0  0  0  0  0  0
  1  2  1  0  0  0  0
  1 19  1  0  0  0  0
  1 20  1  0  0  0  0
  1 21  1  0  0  0  0
  2  3  1  0  0  0  0
  3  8  1  0  0  0  0
  3  4  2  0  0  0  0
  4  5  1  0  0  0  0
  4 22  1  0  0  0  0
  5  6  2  0  0  0  0
  5 23  1  0  0  0  0
  6  7  1  0  0  0  0
  6 24  1  0  0  0  0
  7  8  2  0  0  0  0
  8  9  1  0  0  0  0
  9 10  1  0  0  0  0
  9 25  1  0  0  0  0
 10 11  2  0  0  0  0
 10 12  1  0  0  0  0
 12 13  1  0  0  0  0
 12 26  1  0  0  0  0
 13 18  1  0  0  0  0
 13 14  1  0  0  0  0
 13 27  1  0  0  0  0
 14 15  1  0  0  0  0
 14 28  1  0  0  0  0
 14 29  1  0  0  0  0
 15 16  1  0  0  0  0
 15 30  1  0  0  0  0
 15 31  1  0  0  0  0
 16 17  1  0  0  0  0
 16 32  1  0  0  0  0
 16 33  1  0  0  0  0
 17 18  1  0  0  0  0
 18 34  1  0  0  0  0
 18 35  1  0  0  0  0
M  END
> <s_m_source_file>
AV-unprocessed.smi

> <i_m_source_file_index>
2513

> <i_lp_mmshare_version>
43012

> <i_f3d_flags>
0

> <s_epik_input>
W0NIM11PYzFbY0hdW2NIXVtjSF1uYzFbTkhdQyg9TylbTkhdW0NAQEhdMltDSDJdW0NIMl1bQ0gyXU9bQ0gyXTI=

> <s_epik_cmdline>
J2VwaWtfcHl0aG9uJywgJy1waCcsICc3LjAnLCAnLXRuJywgJzgnLCAnLW1hJywgJzIwMCcsICctbWV0YWxfYmluZGluZycsICctaW1hZScsICc8aW5maWxlLm1hZT4nLCAnLW9tYWUnLCAnPG91dGZpbGUubWFlPic=

> <r_lp_tautomer_probability>
1

> <r_epik_Ionization_Penalty>
3.98976e-05

> <r_epik_Ionization_Penalty_Charging>
0

> <r_epik_Ionization_Penalty_Neutral>
3.98976e-05

> <r_epik_State_Penalty>
-0

> <r_epik_Charging_Adjusted_Penalty>
0

> <i_epik_Tot_Q>
0

> <i_epik_Tot_abs_Q>
0

> <r_epik_Metal_State_Penalty>
-0

> <b_epik_Metal_Only>
0

> <s_lp_Force_Field>
OPLS_2005

> <r_lp_Energy>
12.9865

> <b_lp_Chiralities_Consistent>
1

> <s_lp_Variant>
AV-unprocessed.smi:2513-2

> <Gold.Version>
5.8.1

> <Gold.Id.Protein>
6NUR|6NUR_protein|mol2

> <Gold.PLP.Fitness>
43.1660

> <Gold.PLP.PLP>
-35.0954

> <Gold.PLP.part.hbond>
-2.0046

> <Gold.PLP.part.metal>
0.0000

> <Gold.PLP.part.buried>
-4.5413

> <Gold.PLP.part.nonpolar>
-29.3663

> <Gold.PLP.part.repulsive>
1.2893

> <Gold.PLP.ligand.clash>
0.0000

> <Gold.PLP.ligand.torsion>
0.2264

> <Gold.PLP.Chemscore.Hbond>
1.8400

> <Gold.PLP.Chemscore.CHOScore>
1.0000

> <Gold.PLP.Chemscore.Metal>
0.0000

> <Gold.Chemscore.Hbonds>
donor molecule, donor type, donor heavy atom, donor atom, acceptor molecule, acceptor atom, score
      L1  H     9    25       P1  8028  0.85
      L1  H    12    26       P1  8028  0.82
      L1  C     6    24       P1  7948  1.00

> <Gold.PLP.Chemscore.Internal.Correction>
0.0035

> <Gold.Rescore>
     Score         DG    S(hbond)    S(metal)    S(lipo)     H(rot)  DE(clash)    DE(int)     intcor
     16.11     -19.30       1.88        0.00      91.88       1.25       0.17       3.03       ----

> <Gold.Chemscore.Fitness>
16.1056

> <Gold.Chemscore.DG>
-19.3009

> <Gold.Chemscore.ZeroCoef>
-5.4800

> <Gold.Chemscore.Hbond>
1.8808

> <Gold.Chemscore.Metal>
0.0000

> <Gold.Chemscore.Lipo>
91.8763

> <Gold.Chemscore.Internal_Hbond>
0.0000

> <Gold.Chemscore.DEClash>
0.1679

> <Gold.Chemscore.DEInternal>
3.0274

> <Gold.Chemscore.Rot>
1.2542

> <Gold.Chemscore.Internal.Correction>
   9.000000E+99

> <Gold.Chemscore.Hbonds>
donor molecule, donor type, donor heavy atom, donor atom, acceptor molecule, acceptor atom, score
      L1  H     9    25       P1  8028  0.85
      L1  H    12    26       P1  8028  0.78

> <Gold.Chemscore.Hbond.Weighted>
-6.2820

> <Gold.Chemscore.Metal.Weighted>
-0.0000

> <Gold.Chemscore.Lipo.Weighted>
-10.7495

> <Gold.Chemscore.Internal_Hbond.Weighted>
0.0000

> <Gold.Chemscore.DEClash.Weighted>
0.1679

> <Gold.Chemscore.DEInternal.Weighted>
3.0274

> <Gold.Chemscore.Rot.Weighted>
3.2107

> <Gold.Chemscore.Internal.Correction.Weighted>
   9.000000E+99

> <Gold.Protein.RotatedTorsions>
[ 6907 6896 6895 6894 ] final  164.95 input  -60.11 | X-H torsion
[ 7974 7965 7964 7962 ] final  104.72 input  175.53 | X-H torsion
[ 8008 7997 7996 7995 ] final  -70.89 input   59.86 | X-H torsion
[ 10167 10162 10161 10158 ] final   48.37 input  -65.29 | X-H torsion
[ 10718 10713 10712 10709 ] final  144.93 input   66.30 | X-H torsion
[ 10763 10752 10751 10750 ] final   20.63 input  -60.55 | X-H torsion
[ 11005 11000 10999 10996 ] final   38.39 input  -57.11 | X-H torsion

> <Gold.Protein.ActiveResidues>
 VAL166  LYS551  ARG553  GLY616  TRP617  ASP618  TYR619  PRO620  LYS621  CYS622 
 ASP623  PHE694  ASN695  SER759  ASP760  ASP761  ALA762  ILE779  LEU786  VAL792 
 PHE793  MET794  SER795  GLU796  ALA797  LYS798  CYS799  TRP800  GLU811  SER814 

> <Gold.Protein.RotatedAtoms>
  151.9020  133.3540  159.3833 H   0  0  0  0  0  0  0  0  0  0  0  0  # atno 6907 bound_to 6896
  150.7078  134.4819  159.5483 H   0  0  0  0  0  0  0  0  0  0  0  0  # atno 6908 bound_to 6896
  152.2409  134.8230  160.0511 H   0  0  0  0  0  0  0  0  0  0  0  0  # atno 6909 bound_to 6896
  145.3290  139.2492  143.3671 H   0  0  0  0  0  0  0  0  0  0  0  0  # atno 7974 bound_to 7965
  154.5046  140.0826  156.7868 H   0  0  0  0  0  0  0  0  0  0  0  0  # atno 8008 bound_to 7997
  155.3923  140.3433  155.4234 H   0  0  0  0  0  0  0  0  0  0  0  0  # atno 8009 bound_to 7997
  156.1499  140.1555  156.8773 H   0  0  0  0  0  0  0  0  0  0  0  0  # atno 8010 bound_to 7997
  140.2940  144.3012  150.6234 H   0  0  0  0  0  0  0  0  0  0  0  0  # atno 10167 bound_to 10162
  157.3514  131.0951  151.0997 H   0  0  0  0  0  0  0  0  0  0  0  0  # atno 10718 bound_to 10713
  153.1062  135.6685  153.9583 H   0  0  0  0  0  0  0  0  0  0  0  0  # atno 10763 bound_to 10752
  153.9139  135.3022  155.3450 H   0  0  0  0  0  0  0  0  0  0  0  0  # atno 10764 bound_to 10752
  154.7483  135.5047  153.9319 H   0  0  0  0  0  0  0  0  0  0  0  0  # atno 10765 bound_to 10752
  140.2131  134.3732  155.8040 H   0  0  0  0  0  0  0  0  0  0  0  0  # atno 11005 bound_to 11000
  146.3053  140.3864  142.8689 LP  0  0  0  0  0  0  0  0  0  0  0  0  # atno 17320 bound_to 7965
  144.8879  140.7486  143.5945 LP  0  0  0  0  0  0  0  0  0  0  0  0  # atno 17321 bound_to 7965
  140.5708  143.2181  151.7603 LP  0  0  0  0  0  0  0  0  0  0  0  0  # atno 17342 bound_to 10162
  139.4931  144.4219  151.9968 LP  0  0  0  0  0  0  0  0  0  0  0  0  # atno 17343 bound_to 10162
  157.2171  130.6464  149.5796 LP  0  0  0  0  0  0  0  0  0  0  0  0  # atno 17370 bound_to 10713
  155.9722  130.4641  150.6206 LP  0  0  0  0  0  0  0  0  0  0  0  0  # atno 17371 bound_to 10713
  141.2225  133.7153  156.8450 LP  0  0  0  0  0  0  0  0  0  0  0  0  # atno 17394 bound_to 11000
  140.1930  134.8952  157.3082 LP  0  0  0  0  0  0  0  0  0  0  0  0  # atno 17395 bound_to 11000

$$$$
