AV-unprocessed.smi:2136|AV-procd|sdf|8703|dock4
  -GOLD-   2272011463D 1   1.00000     0.00000
 Structure written by MMmdl.
 42 43  0  0  0  0  0  0  0  0  1 V2000
  150.5620  136.5492  155.0462 C   0  0  0  0  0  0  0  0  0  0  0  0
  149.1398  137.3541  155.8923 S   0  0  0  0  0  0  0  0  0  0  0  0
  148.0283  136.3924  155.9311 O   0  0  0  0  0  0  0  0  0  0  0  0
  149.6266  137.9314  157.1548 O   0  0  0  0  0  0  0  0  0  0  0  0
  148.7403  138.6788  154.8132 N   0  0  0  0  0  0  0  0  0  0  0  0
  147.4532  138.5097  154.0943 C   0  0  0  0  0  0  0  0  0  0  0  0
  147.2525  139.5237  152.9621 C   0  0  0  0  0  0  0  0  0  0  0  0
  147.3712  140.9472  153.4920 C   0  0  0  0  0  0  0  0  0  0  0  0
  148.7609  141.1116  154.0983 C   0  0  0  0  0  0  0  0  0  0  0  0
  149.0461  140.0882  155.2255 C   0  0  2  0  0  0  0  0  0  0  0  0
  150.4639  140.3606  155.7496 C   0  0  0  0  0  0  0  0  0  0  0  0
  151.4329  140.1945  155.0090 O   0  0  0  0  0  0  0  0  0  0  0  0
  150.5718  140.7750  157.0227 N   0  0  0  0  0  0  0  0  0  0  0  0
  151.8235  141.0988  157.6940 C   0  0  0  0  0  0  0  0  0  0  0  0
  151.8789  142.5791  158.1047 C   0  0  0  0  0  0  0  0  0  0  0  0
  152.2169  142.7493  159.5722 C   0  0  0  0  0  0  0  0  0  0  0  0
  152.8986  141.7398  160.2823 C   0  0  0  0  0  0  0  0  0  0  0  0
  153.1837  141.9453  161.6459 C   0  0  0  0  0  0  0  0  0  0  0  0
  152.7734  143.1546  162.2421 C   0  0  0  0  0  0  0  0  0  0  0  0
  152.1197  144.1278  161.5717 N   0  0  0  0  0  0  0  0  0  0  0  0
  151.8503  143.9230  160.2644 C   0  0  0  0  0  0  0  0  0  0  0  0
  150.9262  135.7262  155.6603 H   0  0  0  0  0  0  0  0  0  0  0  0
  151.3641  137.2719  154.9019 H   0  0  0  0  0  0  0  0  0  0  0  0
  150.2419  136.1592  154.0803 H   0  0  0  0  0  0  0  0  0  0  0  0
  147.3964  137.5079  153.6692 H   0  0  0  0  0  0  0  0  0  0  0  0
  146.6359  138.5929  154.8114 H   0  0  0  0  0  0  0  0  0  0  0  0
  147.9892  139.3531  152.1760 H   0  0  0  0  0  0  0  0  0  0  0  0
  146.2729  139.3784  152.5056 H   0  0  0  0  0  0  0  0  0  0  0  0
  147.2228  141.6659  152.6854 H   0  0  0  0  0  0  0  0  0  0  0  0
  146.6025  141.1423  154.2409 H   0  0  0  0  0  0  0  0  0  0  0  0
  149.5024  141.0120  153.3035 H   0  0  0  0  0  0  0  0  0  0  0  0
  148.8638  142.1281  154.4815 H   0  0  0  0  0  0  0  0  0  0  0  0
  148.3643  140.3222  156.0444 H   0  0  0  0  0  0  0  0  0  0  0  0
  149.7221  140.8937  157.5552 H   0  0  0  0  0  0  0  0  0  0  0  0
  151.9561  140.4519  158.5631 H   0  0  0  0  0  0  0  0  0  0  0  0
  152.6419  140.8716  157.0102 H   0  0  0  0  0  0  0  0  0  0  0  0
  152.6188  143.1080  157.5023 H   0  0  0  0  0  0  0  0  0  0  0  0
  150.9211  143.0639  157.9105 H   0  0  0  0  0  0  0  0  0  0  0  0
  153.1967  140.8238  159.7934 H   0  0  0  0  0  0  0  0  0  0  0  0
  153.7040  141.1941  162.2216 H   0  0  0  0  0  0  0  0  0  0  0  0
  152.9753  143.3453  163.2857 H   0  0  0  0  0  0  0  0  0  0  0  0
  151.3249  144.7182  159.7563 H   0  0  0  0  0  0  0  0  0  0  0  0
  1  2  1  0  0  0  0
  1 22  1  0  0  0  0
  1 23  1  0  0  0  0
  1 24  1  0  0  0  0
  2  3  2  0  0  0  0
  2  4  2  0  0  0  0
  2  5  1  0  0  0  0
  5 10  1  0  0  0  0
  5  6  1  0  0  0  0
  6  7  1  0  0  0  0
  6 25  1  0  0  0  0
  6 26  1  0  0  0  0
  7  8  1  0  0  0  0
  7 27  1  0  0  0  0
  7 28  1  0  0  0  0
  8  9  1  0  0  0  0
  8 29  1  0  0  0  0
  8 30  1  0  0  0  0
  9 10  1  0  0  0  0
  9 31  1  0  0  0  0
  9 32  1  0  0  0  0
 10 11  1  0  0  0  0
 10 33  1  0  0  0  0
 11 12  2  0  0  0  0
 11 13  1  0  0  0  0
 13 14  1  0  0  0  0
 13 34  1  0  0  0  0
 14 15  1  0  0  0  0
 14 35  1  0  0  0  0
 14 36  1  0  0  0  0
 15 16  1  0  0  0  0
 15 37  1  0  0  0  0
 15 38  1  0  0  0  0
 16 21  1  0  0  0  0
 16 17  2  0  0  0  0
 17 18  1  0  0  0  0
 17 39  1  0  0  0  0
 18 19  2  0  0  0  0
 18 40  1  0  0  0  0
 19 20  1  0  0  0  0
 19 41  1  0  0  0  0
 20 21  2  0  0  0  0
 21 42  1  0  0  0  0
M  END
> <s_m_source_file>
AV-unprocessed.smi

> <i_m_source_file_index>
2136

> <i_lp_mmshare_version>
43012

> <i_f3d_flags>
0

> <s_epik_input>
W0NIM11TKD1PKSg9TylOMVtDSDJdW0NIMl1bQ0gyXVtDSDJdW0NASF0xQyg9TylbTkhdW0NIMl1bQ0gyXWMyW2NIXVtjSF1bY0hdbltjSF0y

> <s_epik_cmdline>
J2VwaWtfcHl0aG9uJywgJy1waCcsICc3LjAnLCAnLXRuJywgJzgnLCAnLW1hJywgJzIwMCcsICctbWV0YWxfYmluZGluZycsICctaW1hZScsICc8aW5maWxlLm1hZT4nLCAnLW9tYWUnLCAnPG91dGZpbGUubWFlPic=

> <r_epik_Ionization_Penalty>
0.0126915

> <r_epik_Ionization_Penalty_Charging>
0

> <r_epik_Ionization_Penalty_Neutral>
0.0126915

> <r_epik_State_Penalty>
0.0098379

> <r_epik_Charging_Adjusted_Penalty>
0.0098379

> <i_epik_Tot_Q>
0

> <i_epik_Tot_abs_Q>
0

> <r_epik_Metal_State_Penalty>
0.00962913

> <b_epik_Metal_Only>
0

> <s_lp_Force_Field>
OPLS_2005

> <r_lp_Energy>
2.71494

> <b_lp_Chiralities_Consistent>
1

> <s_lp_Variant>
AV-unprocessed.smi:2136-2

> <Gold.Version>
5.8.1

> <Gold.Id.Protein>
6NUR|6NUR_protein|mol2

> <Gold.PLP.Fitness>
40.9470

> <Gold.PLP.PLP>
-39.3371

> <Gold.PLP.part.hbond>
-1.0000

> <Gold.PLP.part.metal>
0.0000

> <Gold.PLP.part.buried>
-4.4762

> <Gold.PLP.part.nonpolar>
-33.3716

> <Gold.PLP.part.repulsive>
0.4067

> <Gold.PLP.ligand.clash>
0.0000

> <Gold.PLP.ligand.torsion>
1.0702

> <Gold.PLP.Chemscore.Hbond>
1.0000

> <Gold.PLP.Chemscore.CHOScore>
0.0000

> <Gold.PLP.Chemscore.Metal>
0.0000

> <Gold.Chemscore.Hbonds>
donor molecule, donor type, donor heavy atom, donor atom, acceptor molecule, acceptor atom, score
      P1  H  7989  7998       L1    12  1.00

> <Gold.PLP.Chemscore.Internal.Correction>
0.7502

> <Gold.Rescore>
     Score         DG    S(hbond)    S(metal)    S(lipo)     H(rot)  DE(clash)    DE(int)     intcor
     14.35     -16.88       0.97        0.00     109.90       1.84       0.12       2.41       ----

> <Gold.Chemscore.Fitness>
14.3483

> <Gold.Chemscore.DG>
-16.8754

> <Gold.Chemscore.ZeroCoef>
-5.4800

> <Gold.Chemscore.Hbond>
0.9737

> <Gold.Chemscore.Metal>
0.0000

> <Gold.Chemscore.Lipo>
109.9022

> <Gold.Chemscore.Internal_Hbond>
0.0000

> <Gold.Chemscore.DEClash>
0.1169

> <Gold.Chemscore.DEInternal>
2.4103

> <Gold.Chemscore.Rot>
1.8419

> <Gold.Chemscore.Internal.Correction>
   9.000000E+99

> <Gold.Chemscore.Hbonds>
donor molecule, donor type, donor heavy atom, donor atom, acceptor molecule, acceptor atom, score
      P1  H  7989  7998       L1    12  0.97

> <Gold.Chemscore.Hbond.Weighted>
-3.2522

> <Gold.Chemscore.Metal.Weighted>
-0.0000

> <Gold.Chemscore.Lipo.Weighted>
-12.8586

> <Gold.Chemscore.Internal_Hbond.Weighted>
0.0000

> <Gold.Chemscore.DEClash.Weighted>
0.1169

> <Gold.Chemscore.DEInternal.Weighted>
2.4103

> <Gold.Chemscore.Rot.Weighted>
4.7153

> <Gold.Chemscore.Internal.Correction.Weighted>
   9.000000E+99

> <Gold.Protein.RotatedTorsions>
[ 6907 6896 6895 6894 ] final  -40.56 input  -60.11 | X-H torsion
[ 7974 7965 7964 7962 ] final  -47.75 input  175.53 | X-H torsion
[ 8008 7997 7996 7995 ] final   38.23 input   59.86 | X-H torsion
[ 10167 10162 10161 10158 ] final   26.45 input  -65.29 | X-H torsion
[ 10718 10713 10712 10709 ] final -114.39 input   66.30 | X-H torsion
[ 10763 10752 10751 10750 ] final -131.18 input  -60.55 | X-H torsion
[ 11005 11000 10999 10996 ] final  129.50 input  -57.11 | X-H torsion

> <Gold.Protein.ActiveResidues>
 VAL166  LYS551  ARG553  GLY616  TRP617  ASP618  TYR619  PRO620  LYS621  CYS622 
 ASP623  PHE694  ASN695  SER759  ASP760  ASP761  ALA762  ILE779  LEU786  VAL792 
 PHE793  MET794  SER795  GLU796  ALA797  LYS798  CYS799  TRP800  GLU811  SER814 

> <Gold.Protein.RotatedAtoms>
  150.9770  134.9132  159.7821 H   0  0  0  0  0  0  0  0  0  0  0  0  # atno 6907 bound_to 6896
  152.5209  134.3462  159.9245 H   0  0  0  0  0  0  0  0  0  0  0  0  # atno 6908 bound_to 6896
  151.3470  133.3899  159.2711 H   0  0  0  0  0  0  0  0  0  0  0  0  # atno 6909 bound_to 6896
  145.9583  140.7504  142.9470 H   0  0  0  0  0  0  0  0  0  0  0  0  # atno 7974 bound_to 7965
  155.2167  140.3327  155.4321 H   0  0  0  0  0  0  0  0  0  0  0  0  # atno 8008 bound_to 7997
  156.2349  140.1867  156.7193 H   0  0  0  0  0  0  0  0  0  0  0  0  # atno 8009 bound_to 7997
  154.6042  140.0618  156.9394 H   0  0  0  0  0  0  0  0  0  0  0  0  # atno 8010 bound_to 7997
  140.5022  144.0296  150.6337 H   0  0  0  0  0  0  0  0  0  0  0  0  # atno 10167 bound_to 10162
  156.0827  130.6024  150.8768 H   0  0  0  0  0  0  0  0  0  0  0  0  # atno 10718 bound_to 10713
  154.8752  135.3838  154.4205 H   0  0  0  0  0  0  0  0  0  0  0  0  # atno 10763 bound_to 10752
  153.4909  135.7030  153.5890 H   0  0  0  0  0  0  0  0  0  0  0  0  # atno 10764 bound_to 10752
  153.4264  135.3889  155.2110 H   0  0  0  0  0  0  0  0  0  0  0  0  # atno 10765 bound_to 10752
  139.9619  134.9600  156.9157 H   0  0  0  0  0  0  0  0  0  0  0  0  # atno 11005 bound_to 11000
  144.6809  140.2549  143.7327 LP  0  0  0  0  0  0  0  0  0  0  0  0  # atno 17320 bound_to 7965
  145.8075  139.1989  143.2012 LP  0  0  0  0  0  0  0  0  0  0  0  0  # atno 17321 bound_to 7965
  140.3596  143.2916  152.0398 LP  0  0  0  0  0  0  0  0  0  0  0  0  # atno 17342 bound_to 10162
  139.4875  144.6313  151.7064 LP  0  0  0  0  0  0  0  0  0  0  0  0  # atno 17343 bound_to 10162
  157.5950  131.0943  150.9056 LP  0  0  0  0  0  0  0  0  0  0  0  0  # atno 17370 bound_to 10713
  156.9225  130.5320  149.5279 LP  0  0  0  0  0  0  0  0  0  0  0  0  # atno 17371 bound_to 10713
  140.5482  134.0653  155.7361 LP  0  0  0  0  0  0  0  0  0  0  0  0  # atno 17394 bound_to 11000
  141.1296  133.9324  157.2562 LP  0  0  0  0  0  0  0  0  0  0  0  0  # atno 17395 bound_to 11000

$$$$
