AV-unprocessed.smi:1555|AV-procd|sdf|6267|dock1
  -GOLD-   22720 6453D 1   1.00000     0.00000
 Structure written by MMmdl.
 41 42  0  0  0  0  0  0  0  0  1 V2000
  146.6263  137.6168  154.6062 C   0  0  0  0  0  0  0  0  0  0  0  0
  146.0423  137.8952  153.2123 C   0  0  1  0  0  0  0  0  0  0  0  0
  146.8229  139.0076  152.4867 C   0  0  0  0  0  0  0  0  0  0  0  0
  147.1764  140.1016  153.3726 N   0  0  0  0  0  0  0  0  0  0  0  0
  148.4490  140.5956  153.6291 C   0  0  0  0  0  0  0  0  0  0  0  0
  148.2956  141.6297  154.5245 C   0  0  0  0  0  0  0  0  0  0  0  0
  146.9464  141.7873  154.8323 N   0  0  0  0  0  0  0  0  0  0  0  0
  146.3459  140.8472  154.1140 C   0  0  0  0  0  0  0  0  0  0  0  0
  146.0554  136.6752  152.4086 N   0  0  0  0  0  0  0  0  0  0  0  0
  144.9740  136.0212  151.9523 C   0  0  0  0  0  0  0  0  0  0  0  0
  143.8281  136.3832  152.2225 O   0  0  0  0  0  0  0  0  0  0  0  0
  145.2513  134.9396  151.1807 N   0  0  0  0  0  0  0  0  0  0  0  0
  146.5810  134.3548  150.9373 C   0  0  0  0  0  0  0  0  0  0  0  0
  146.6741  133.0134  151.6856 C   0  0  0  0  0  0  0  0  0  0  0  0
  145.5495  132.0480  151.2494 C   0  0  0  0  0  0  0  0  0  0  0  0
  145.5865  130.7452  152.0688 C   0  0  0  0  0  0  0  0  0  0  0  0
  146.8236  130.0843  151.9030 O   0  0  0  0  0  0  0  0  0  0  0  0
  144.1728  132.7496  151.3241 C   0  0  0  0  0  0  0  0  0  0  0  0
  144.1933  134.1066  150.5969 C   0  0  0  0  0  0  0  0  0  0  0  0
  146.6117  138.5159  155.2229 H   0  0  0  0  0  0  0  0  0  0  0  0
  147.6593  137.2733  154.5428 H   0  0  0  0  0  0  0  0  0  0  0  0
  146.0526  136.8518  155.1305 H   0  0  0  0  0  0  0  0  0  0  0  0
  145.0105  138.2303  153.3353 H   0  0  0  0  0  0  0  0  0  0  0  0
  147.7444  138.6064  152.0627 H   0  0  0  0  0  0  0  0  0  0  0  0
  146.2419  139.4048  151.6528 H   0  0  0  0  0  0  0  0  0  0  0  0
  149.3329  140.1838  153.1645 H   0  0  0  0  0  0  0  0  0  0  0  0
  149.0465  142.2671  154.9674 H   0  0  0  0  0  0  0  0  0  0  0  0
  145.2760  140.6995  154.1242 H   0  0  0  0  0  0  0  0  0  0  0  0
  146.9621  136.3144  152.1498 H   0  0  0  0  0  0  0  0  0  0  0  0
  146.7085  134.1915  149.8661 H   0  0  0  0  0  0  0  0  0  0  0  0
  147.4106  134.9997  151.2271 H   0  0  0  0  0  0  0  0  0  0  0  0
  147.6480  132.5579  151.5032 H   0  0  0  0  0  0  0  0  0  0  0  0
  146.6129  133.1943  152.7598 H   0  0  0  0  0  0  0  0  0  0  0  0
  145.7356  131.7920  150.2049 H   0  0  0  0  0  0  0  0  0  0  0  0
  145.4580  130.9605  153.1300 H   0  0  0  0  0  0  0  0  0  0  0  0
  144.7765  130.0767  151.7751 H   0  0  0  0  0  0  0  0  0  0  0  0
  147.3595  130.5926  151.3135 H   0  0  0  0  0  0  0  0  0  0  0  0
  143.4015  132.1143  150.8879 H   0  0  0  0  0  0  0  0  0  0  0  0
  143.8921  132.9034  152.3670 H   0  0  0  0  0  0  0  0  0  0  0  0
  143.2080  134.5712  150.6541 H   0  0  0  0  0  0  0  0  0  0  0  0
  144.3896  133.9610  149.5339 H   0  0  0  0  0  0  0  0  0  0  0  0
  1  2  1  0  0  0  0
  1 20  1  0  0  0  0
  1 21  1  0  0  0  0
  1 22  1  0  0  0  0
  2  3  1  0  0  0  0
  2  9  1  0  0  0  0
  2 23  1  0  0  0  0
  3  4  1  0  0  0  0
  3 24  1  0  0  0  0
  3 25  1  0  0  0  0
  4  8  1  0  0  0  0
  4  5  1  0  0  0  0
  5  6  2  0  0  0  0
  5 26  1  0  0  0  0
  6  7  1  0  0  0  0
  6 27  1  0  0  0  0
  7  8  2  0  0  0  0
  8 28  1  0  0  0  0
  9 10  1  0  0  0  0
  9 29  1  0  0  0  0
 10 11  2  0  0  0  0
 10 12  1  0  0  0  0
 12 19  1  0  0  0  0
 12 13  1  0  0  0  0
 13 14  1  0  0  0  0
 13 30  1  0  0  0  0
 13 31  1  0  0  0  0
 14 15  1  0  0  0  0
 14 32  1  0  0  0  0
 14 33  1  0  0  0  0
 15 16  1  0  0  0  0
 15 18  1  0  0  0  0
 15 34  1  0  0  0  0
 16 17  1  0  0  0  0
 16 35  1  0  0  0  0
 16 36  1  0  0  0  0
 17 37  1  0  0  0  0
 18 19  1  0  0  0  0
 18 38  1  0  0  0  0
 18 39  1  0  0  0  0
 19 40  1  0  0  0  0
 19 41  1  0  0  0  0
M  END
> <s_m_source_file>
AV-unprocessed.smi

> <i_m_source_file_index>
1555

> <i_lp_mmshare_version>
43012

> <i_f3d_flags>
0

> <s_epik_input>
W2NIXTFuW2NIXVtjSF1uMVtDSDJdW0NAQEhdKFtDSDNdKVtOSF1DKD1PKU4yW0NIMl1bQ0gyXVtDSF0oW0NIMl1bT0hdKVtDSDJdW0NIMl0y

> <s_epik_cmdline>
J2VwaWtfcHl0aG9uJywgJy1waCcsICc3LjAnLCAnLXRuJywgJzgnLCAnLW1hJywgJzIwMCcsICctbWV0YWxfYmluZGluZycsICctaW1hZScsICc8aW5maWxlLm1hZT4nLCAnLW9tYWUnLCAnPG91dGZpbGUubWFlPic=

> <r_lp_tautomer_probability>
1

> <r_epik_Ionization_Penalty>
0.625883

> <r_epik_Ionization_Penalty_Charging>
0.625812

> <r_epik_Ionization_Penalty_Neutral>
7.07114e-05

> <r_epik_State_Penalty>
0.642234

> <r_epik_Charging_Adjusted_Penalty>
1.26805

> <i_epik_Tot_Q>
0

> <i_epik_Tot_abs_Q>
0

> <r_epik_Metal_State_Penalty>
0.307949

> <b_epik_Metal_Only>
0

> <s_lp_Force_Field>
OPLS_2005

> <r_lp_Energy>
32.573

> <b_lp_Chiralities_Consistent>
1

> <s_lp_Variant>
AV-unprocessed.smi:1555-4

> <Gold.Version>
5.8.1

> <Gold.Id.Protein>
6NUR|6NUR_protein|mol2

> <Gold.PLP.Fitness>
44.4846

> <Gold.PLP.PLP>
-30.1346

> <Gold.PLP.part.hbond>
-2.0000

> <Gold.PLP.part.metal>
0.0000

> <Gold.PLP.part.buried>
-1.4743

> <Gold.PLP.part.nonpolar>
-26.9190

> <Gold.PLP.part.repulsive>
0.3281

> <Gold.PLP.ligand.clash>
0.0000

> <Gold.PLP.ligand.torsion>
0.1901

> <Gold.PLP.Chemscore.Hbond>
2.0000

> <Gold.PLP.Chemscore.CHOScore>
2.8957

> <Gold.PLP.Chemscore.Metal>
0.0000

> <Gold.Chemscore.Hbonds>
donor molecule, donor type, donor heavy atom, donor atom, acceptor molecule, acceptor atom, score
      L1  H     9    29       P1  7948  1.00
      L1  H    17    37       P1 10747  1.00
      L1  C     5    26       P1  7957  0.88
      L1  C     6    27       P1  8028  0.94
      L1  C     8    28       P1 10175  1.00

> <Gold.PLP.Chemscore.Internal.Correction>
0.0432

> <Gold.Rescore>
     Score         DG    S(hbond)    S(metal)    S(lipo)     H(rot)  DE(clash)    DE(int)     intcor
     13.32     -13.75       1.95        0.00      69.53       2.49       0.23       0.20       ----

> <Gold.Chemscore.Fitness>
13.3206

> <Gold.Chemscore.DG>
-13.7501

> <Gold.Chemscore.ZeroCoef>
-5.4800

> <Gold.Chemscore.Hbond>
1.9463

> <Gold.Chemscore.Metal>
0.0000

> <Gold.Chemscore.Lipo>
69.5346

> <Gold.Chemscore.Internal_Hbond>
0.0000

> <Gold.Chemscore.DEClash>
0.2308

> <Gold.Chemscore.DEInternal>
0.1987

> <Gold.Chemscore.Rot>
2.4867

> <Gold.Chemscore.Internal.Correction>
   9.000000E+99

> <Gold.Chemscore.Hbonds>
donor molecule, donor type, donor heavy atom, donor atom, acceptor molecule, acceptor atom, score
      L1  H     9    29       P1  7948  0.96
      L1  H    17    37       P1 10747  0.95

> <Gold.Chemscore.Hbond.Weighted>
-6.5006

> <Gold.Chemscore.Metal.Weighted>
-0.0000

> <Gold.Chemscore.Lipo.Weighted>
-8.1356

> <Gold.Chemscore.Internal_Hbond.Weighted>
0.0000

> <Gold.Chemscore.DEClash.Weighted>
0.2308

> <Gold.Chemscore.DEInternal.Weighted>
0.1987

> <Gold.Chemscore.Rot.Weighted>
6.3660

> <Gold.Chemscore.Internal.Correction.Weighted>
   9.000000E+99

> <Gold.Protein.RotatedTorsions>
[ 6907 6896 6895 6894 ] final  115.02 input  -60.11 | X-H torsion
[ 7974 7965 7964 7962 ] final -170.45 input  175.53 | X-H torsion
[ 8008 7997 7996 7995 ] final -119.81 input   59.86 | X-H torsion
[ 10167 10162 10161 10158 ] final   47.71 input  -65.29 | X-H torsion
[ 10718 10713 10712 10709 ] final  -76.60 input   66.30 | X-H torsion
[ 10763 10752 10751 10750 ] final -125.75 input  -60.55 | X-H torsion
[ 11005 11000 10999 10996 ] final   98.15 input  -57.11 | X-H torsion

> <Gold.Protein.ActiveResidues>
 VAL166  LYS551  ARG553  GLY616  TRP617  ASP618  TYR619  PRO620  LYS621  CYS622 
 ASP623  PHE694  ASN695  SER759  ASP760  ASP761  ALA762  ILE779  LEU786  VAL792 
 PHE793  MET794  SER795  GLU796  ALA797  LYS798  CYS799  TRP800  GLU811  SER814 

> <Gold.Protein.RotatedAtoms>
  152.4767  133.8155  159.7025 H   0  0  0  0  0  0  0  0  0  0  0  0  # atno 6907 bound_to 6896
  150.8789  133.7391  159.2945 H   0  0  0  0  0  0  0  0  0  0  0  0  # atno 6908 bound_to 6896
  151.4902  135.1060  159.9853 H   0  0  0  0  0  0  0  0  0  0  0  0  # atno 6909 bound_to 6896
  144.7170  140.2069  143.6332 H   0  0  0  0  0  0  0  0  0  0  0  0  # atno 7974 bound_to 7965
  155.1218  140.0398  157.2752 H   0  0  0  0  0  0  0  0  0  0  0  0  # atno 8008 bound_to 7997
  154.6608  140.2590  155.7085 H   0  0  0  0  0  0  0  0  0  0  0  0  # atno 8009 bound_to 7997
  156.2618  140.2817  156.1079 H   0  0  0  0  0  0  0  0  0  0  0  0  # atno 8010 bound_to 7997
  140.3008  144.2936  150.6219 H   0  0  0  0  0  0  0  0  0  0  0  0  # atno 10167 bound_to 10162
  156.0170  130.4470  150.3218 H   0  0  0  0  0  0  0  0  0  0  0  0  # atno 10718 bound_to 10713
  154.8739  135.4019  154.3319 H   0  0  0  0  0  0  0  0  0  0  0  0  # atno 10763 bound_to 10752
  153.4131  135.7021  153.6351 H   0  0  0  0  0  0  0  0  0  0  0  0  # atno 10764 bound_to 10752
  153.5045  135.3720  155.2526 H   0  0  0  0  0  0  0  0  0  0  0  0  # atno 10765 bound_to 10752
  139.8773  134.9035  156.4414 H   0  0  0  0  0  0  0  0  0  0  0  0  # atno 11005 bound_to 11000
  145.8627  139.2231  143.1707 LP  0  0  0  0  0  0  0  0  0  0  0  0  # atno 17320 bound_to 7965
  146.0158  140.8393  142.9948 LP  0  0  0  0  0  0  0  0  0  0  0  0  # atno 17321 bound_to 7965
  140.5653  143.2187  151.7694 LP  0  0  0  0  0  0  0  0  0  0  0  0  # atno 17342 bound_to 10162
  139.4915  144.4292  151.9891 LP  0  0  0  0  0  0  0  0  0  0  0  0  # atno 17343 bound_to 10162
  157.1318  131.0274  151.2966 LP  0  0  0  0  0  0  0  0  0  0  0  0  # atno 17370 bound_to 10713
  157.4544  130.7617  149.7180 LP  0  0  0  0  0  0  0  0  0  0  0  0  # atno 17371 bound_to 10713
  140.8997  133.7788  155.9665 LP  0  0  0  0  0  0  0  0  0  0  0  0  # atno 17394 bound_to 11000
  140.8665  134.2778  157.5211 LP  0  0  0  0  0  0  0  0  0  0  0  0  # atno 17395 bound_to 11000

$$$$
