AV-unprocessed.smi:3234|AV-procd|sdf|12351|dock2
  -GOLD-   2272018213D 1   1.00000     0.00000
 Structure written by MMmdl.
 37 39  0  0  0  0  0  0  0  0  2 V2000
  147.0241  137.2531  153.2307 O   0  0  0  0  0  0  0  0  0  0  0  0
  146.0322  137.9472  153.0083 C   0  0  0  0  0  0  0  0  0  0  0  0
  145.9598  139.2800  153.1677 N   0  0  0  0  0  0  0  0  0  0  0  0
  146.9551  140.1693  153.6555 C   0  0  0  0  0  0  0  0  0  0  0  0
  148.2135  139.6281  153.9907 C   0  0  0  0  0  0  0  0  0  0  0  0
  149.2210  140.4934  154.4618 C   0  0  0  0  0  0  0  0  0  0  0  0
  149.0495  141.8248  154.6011 N   0  0  0  0  0  0  0  0  0  0  0  0
  147.8496  142.3432  154.2642 C   0  0  0  0  0  0  0  0  0  0  0  0
  146.7752  141.5674  153.7847 C   0  0  0  0  0  0  0  0  0  0  0  0
  144.8772  137.4499  152.5437 N   0  0  0  0  0  0  0  0  0  0  0  0
  144.6334  136.0397  152.2606 C   0  0  1  0  0  0  0  0  0  0  0  0
  143.3537  135.5020  152.8868 C   0  0  0  0  0  0  0  0  0  0  0  0
  143.0816  134.2416  152.0572 C   0  0  0  0  0  0  0  0  0  0  0  0
  143.6775  134.4737  150.7174 N   0  3  2  0  0  0  0  0  0  0  0  0
  144.5049  133.3464  150.2356 C   0  0  0  0  0  0  0  0  0  0  0  0
  143.9868  132.7184  148.9641 C   0  0  0  0  0  0  0  0  0  0  0  0
  143.7988  132.0128  150.2895 C   0  0  0  0  0  0  0  0  0  0  0  0
  144.4058  135.7601  150.7729 C   0  0  0  0  0  0  0  0  0  0  0  0
  145.1060  139.7195  152.8561 H   0  0  0  0  0  0  0  0  0  0  0  0
  148.4064  138.5693  153.8972 H   0  0  0  0  0  0  0  0  0  0  0  0
  150.1915  140.1048  154.7323 H   0  0  0  0  0  0  0  0  0  0  0  0
  147.7430  143.4122  154.3747 H   0  0  0  0  0  0  0  0  0  0  0  0
  145.8513  142.0567  153.5175 H   0  0  0  0  0  0  0  0  0  0  0  0
  144.1119  138.0890  152.3833 H   0  0  0  0  0  0  0  0  0  0  0  0
  145.4758  135.4430  152.6172 H   0  0  0  0  0  0  0  0  0  0  0  0
  143.4547  135.2930  153.9523 H   0  0  0  0  0  0  0  0  0  0  0  0
  142.5381  136.2154  152.7571 H   0  0  0  0  0  0  0  0  0  0  0  0
  143.5551  133.3829  152.5366 H   0  0  0  0  0  0  0  0  0  0  0  0
  142.0159  134.0256  151.9792 H   0  0  0  0  0  0  0  0  0  0  0  0
  145.5753  133.4138  150.4239 H   0  0  0  0  0  0  0  0  0  0  0  0
  143.1052  133.1535  148.4967 H   0  0  0  0  0  0  0  0  0  0  0  0
  144.7191  132.3007  148.2761 H   0  0  0  0  0  0  0  0  0  0  0  0
  144.4074  131.1300  150.4746 H   0  0  0  0  0  0  0  0  0  0  0  0
  142.7921  131.9785  150.7024 H   0  0  0  0  0  0  0  0  0  0  0  0
  143.7652  136.5275  150.3355 H   0  0  0  0  0  0  0  0  0  0  0  0
  145.3359  135.7449  150.2021 H   0  0  0  0  0  0  0  0  0  0  0  0
  142.9214  134.5900  150.0576 H   0  0  0  0  0  0  0  0  0  0  0  0
  1  2  2  0  0  0  0
  2  3  1  0  0  0  0
  2 10  1  0  0  0  0
  3  4  1  0  0  0  0
  3 19  1  0  0  0  0
  4  9  1  0  0  0  0
  4  5  2  0  0  0  0
  5  6  1  0  0  0  0
  5 20  1  0  0  0  0
  6  7  2  0  0  0  0
  6 21  1  0  0  0  0
  7  8  1  0  0  0  0
  8  9  2  0  0  0  0
  8 22  1  0  0  0  0
  9 23  1  0  0  0  0
 10 11  1  0  0  0  0
 10 24  1  0  0  0  0
 11 18  1  0  0  0  0
 11 12  1  0  0  0  0
 11 25  1  0  0  0  0
 12 13  1  0  0  0  0
 12 26  1  0  0  0  0
 12 27  1  0  0  0  0
 13 14  1  0  0  0  0
 13 28  1  0  0  0  0
 13 29  1  0  0  0  0
 14 15  1  0  0  0  0
 14 18  1  0  0  0  0
 14 37  1  0  0  0  0
 15 17  1  0  0  0  0
 15 16  1  0  0  0  0
 15 30  1  0  0  0  0
 16 17  1  0  0  0  0
 16 31  1  0  0  0  0
 16 32  1  0  0  0  0
 17 33  1  0  0  0  0
 17 34  1  0  0  0  0
 18 35  1  0  0  0  0
 18 36  1  0  0  0  0
M  CHG  1  14   1
M  END
> <s_m_source_file>
AV-unprocessed.smi

> <i_m_source_file_index>
3234

> <i_lp_mmshare_version>
43012

> <i_f3d_flags>
0

> <s_epik_input>
W2NIXTFbY0hdbltjSF1bY0hdYzFbTkhdQyg9TylbTkhdW0NAQEhdMltDSDJdW0NIMl1OKFtDSDJdMilbQ0hdM1tDSDJdW0NIMl0z

> <s_epik_cmdline>
J2VwaWtfcHl0aG9uJywgJy1waCcsICc3LjAnLCAnLXRuJywgJzgnLCAnLW1hJywgJzIwMCcsICctbWV0YWxfYmluZGluZycsICctaW1hZScsICc8aW5maWxlLm1hZT4nLCAnLW9tYWUnLCAnPG91dGZpbGUubWFlPic=

> <r_epik_Ionization_Penalty>
0.0934328

> <r_epik_Ionization_Penalty_Charging>
0.000606352

> <r_epik_Ionization_Penalty_Neutral>
0.0928265

> <r_epik_State_Penalty>
0.0830811

> <r_epik_Charging_Adjusted_Penalty>
0.0836875

> <i_epik_Tot_Q>
1

> <i_epik_Tot_abs_Q>
1

> <r_epik_Metal_State_Penalty>
0.0724491

> <b_epik_Metal_Only>
0

> <s_lp_Force_Field>
OPLS_2005

> <r_lp_Energy>
41.5008

> <b_lp_Chiralities_Consistent>
1

> <s_lp_Variant>
AV-unprocessed.smi:3234-4

> <Gold.Version>
5.8.1

> <Gold.Id.Protein>
6NUR|6NUR_protein|mol2

> <Gold.PLP.Fitness>
42.1999

> <Gold.PLP.PLP>
-30.3650

> <Gold.PLP.part.hbond>
-4.1175

> <Gold.PLP.part.metal>
0.0000

> <Gold.PLP.part.buried>
-1.0406

> <Gold.PLP.part.nonpolar>
-29.2676

> <Gold.PLP.part.repulsive>
4.2393

> <Gold.PLP.ligand.clash>
0.0000

> <Gold.PLP.ligand.torsion>
0.8355

> <Gold.PLP.Chemscore.Hbond>
3.1098

> <Gold.PLP.Chemscore.CHOScore>
0.9698

> <Gold.PLP.Chemscore.Metal>
0.0000

> <Gold.Chemscore.Hbonds>
donor molecule, donor type, donor heavy atom, donor atom, acceptor molecule, acceptor atom, score
      L1  H     3    19       P1 10175  1.00
      L1  H    10    24       P1 10175  0.08
      L1  H    14    37       P1 10186  2.00
      L1  C     8    22       P1  8028  0.98

> <Gold.PLP.Chemscore.Internal.Correction>
1.2671

> <Gold.Rescore>
     Score         DG    S(hbond)    S(metal)    S(lipo)     H(rot)  DE(clash)    DE(int)     intcor
     14.87     -18.97       1.90        0.00      87.65       1.21       1.80       2.30       ----

> <Gold.Chemscore.Fitness>
14.8675

> <Gold.Chemscore.DG>
-18.9655

> <Gold.Chemscore.ZeroCoef>
-5.4800

> <Gold.Chemscore.Hbond>
1.8952

> <Gold.Chemscore.Metal>
0.0000

> <Gold.Chemscore.Lipo>
87.6496

> <Gold.Chemscore.Internal_Hbond>
0.0000

> <Gold.Chemscore.DEClash>
1.7998

> <Gold.Chemscore.DEInternal>
2.2981

> <Gold.Chemscore.Rot>
1.2108

> <Gold.Chemscore.Internal.Correction>
   9.000000E+99

> <Gold.Chemscore.Hbonds>
donor molecule, donor type, donor heavy atom, donor atom, acceptor molecule, acceptor atom, score
      L1  H     3    19       P1 10175  1.00
      L1  H    10    24       P1 10175  0.10
      L1  H    14    37       P1 10186  0.70

> <Gold.Chemscore.Hbond.Weighted>
-6.3301

> <Gold.Chemscore.Metal.Weighted>
-0.0000

> <Gold.Chemscore.Lipo.Weighted>
-10.2550

> <Gold.Chemscore.Internal_Hbond.Weighted>
0.0000

> <Gold.Chemscore.DEClash.Weighted>
1.7998

> <Gold.Chemscore.DEInternal.Weighted>
2.2981

> <Gold.Chemscore.Rot.Weighted>
3.0996

> <Gold.Chemscore.Internal.Correction.Weighted>
   9.000000E+99

> <Gold.Protein.RotatedTorsions>
[ 6907 6896 6895 6894 ] final   -7.69 input  -60.11 | X-H torsion
[ 7974 7965 7964 7962 ] final -172.87 input  175.53 | X-H torsion
[ 8008 7997 7996 7995 ] final   -2.90 input   59.86 | X-H torsion
[ 10167 10162 10161 10158 ] final  108.32 input  -65.29 | X-H torsion
[ 10718 10713 10712 10709 ] final  -85.33 input   66.30 | X-H torsion
[ 10763 10752 10751 10750 ] final  156.41 input  -60.55 | X-H torsion
[ 11005 11000 10999 10996 ] final   54.85 input  -57.11 | X-H torsion

> <Gold.Protein.ActiveResidues>
 VAL166  LYS551  ARG553  GLY616  TRP617  ASP618  TYR619  PRO620  LYS621  CYS622 
 ASP623  PHE694  ASN695  SER759  ASP760  ASP761  ALA762  ILE779  LEU786  VAL792 
 PHE793  MET794  SER795  GLU796  ALA797  LYS798  CYS799  TRP800  GLU811  SER814 

> <Gold.Protein.RotatedAtoms>
  151.4455  135.1024  159.9682 H   0  0  0  0  0  0  0  0  0  0  0  0  # atno 6907 bound_to 6896
  152.4907  133.8489  159.7201 H   0  0  0  0  0  0  0  0  0  0  0  0  # atno 6908 bound_to 6896
  150.9058  133.7001  159.2894 H   0  0  0  0  0  0  0  0  0  0  0  0  # atno 6909 bound_to 6896
  144.7142  140.1708  143.6367 H   0  0  0  0  0  0  0  0  0  0  0  0  # atno 7974 bound_to 7965
  154.6308  140.2523  155.7437 H   0  0  0  0  0  0  0  0  0  0  0  0  # atno 8008 bound_to 7997
  156.2478  140.2907  156.0578 H   0  0  0  0  0  0  0  0  0  0  0  0  # atno 8009 bound_to 7997
  155.1749  140.0387  157.2861 H   0  0  0  0  0  0  0  0  0  0  0  0  # atno 8010 bound_to 7997
  139.6856  144.7114  151.1439 H   0  0  0  0  0  0  0  0  0  0  0  0  # atno 10167 bound_to 10162
  155.9998  130.4727  150.4546 H   0  0  0  0  0  0  0  0  0  0  0  0  # atno 10718 bound_to 10713
  154.1838  135.2798  155.3043 H   0  0  0  0  0  0  0  0  0  0  0  0  # atno 10763 bound_to 10752
  154.5982  135.5538  153.7350 H   0  0  0  0  0  0  0  0  0  0  0  0  # atno 10764 bound_to 10752
  153.0131  135.6385  154.1977 H   0  0  0  0  0  0  0  0  0  0  0  0  # atno 10765 bound_to 10752
  140.0654  134.5544  155.9105 H   0  0  0  0  0  0  0  0  0  0  0  0  # atno 11005 bound_to 11000
  145.8945  139.2395  143.1529 LP  0  0  0  0  0  0  0  0  0  0  0  0  # atno 17320 bound_to 7965
  145.9871  140.8634  143.0085 LP  0  0  0  0  0  0  0  0  0  0  0  0  # atno 17321 bound_to 7965
  140.7666  143.5635  150.9073 LP  0  0  0  0  0  0  0  0  0  0  0  0  # atno 17342 bound_to 10162
  139.9309  143.6494  152.3076 LP  0  0  0  0  0  0  0  0  0  0  0  0  # atno 17343 bound_to 10162
  157.2576  131.0560  151.2340 LP  0  0  0  0  0  0  0  0  0  0  0  0  # atno 17370 bound_to 10713
  157.3467  130.7061  149.6415 LP  0  0  0  0  0  0  0  0  0  0  0  0  # atno 17371 bound_to 10713
  141.1990  133.6604  156.5823 LP  0  0  0  0  0  0  0  0  0  0  0  0  # atno 17394 bound_to 11000
  140.3707  134.7608  157.4597 LP  0  0  0  0  0  0  0  0  0  0  0  0  # atno 17395 bound_to 11000

$$$$
