AV-unprocessed.smi:2222|AV-procd|sdf|8988|dock1
  -GOLD-   2272012203D 1   1.00000     0.00000
 Structure written by MMmdl.
 34 35  0  0  0  0  0  0  0  0  1 V2000
  152.3042  139.2215  156.9208 C   0  0  0  0  0  0  0  0  0  0  0  0
  151.6271  140.4697  156.9314 O   0  0  0  0  0  0  0  0  0  0  0  0
  151.8382  141.3192  158.0001 C   0  0  0  0  0  0  0  0  0  0  0  0
  152.8391  141.1103  158.9829 C   0  0  0  0  0  0  0  0  0  0  0  0
  152.9764  142.0312  160.0359 C   0  0  0  0  0  0  0  0  0  0  0  0
  152.1064  143.1353  160.0705 C   0  0  0  0  0  0  0  0  0  0  0  0
  152.1965  144.1673  161.1749 C   0  0  0  0  0  0  0  0  0  0  0  0
  151.1512  143.3444  159.1426 N   0  0  0  0  0  0  0  0  0  0  0  0
  151.0079  142.4632  158.1218 C   0  0  0  0  0  0  0  0  0  0  0  0
  150.0240  142.6114  157.1065 N   0  0  0  0  0  0  0  0  0  0  0  0
  149.1523  141.6978  156.6353 C   0  0  0  0  0  0  0  0  0  0  0  0
  149.0402  140.5504  157.0638 O   0  0  0  0  0  0  0  0  0  0  0  0
  148.3532  142.1520  155.6530 N   0  0  0  0  0  0  0  0  0  0  0  0
  147.3314  141.4363  154.9492 C   0  0  1  0  0  0  0  0  0  0  0  0
  146.6080  142.1927  153.8566 C   0  0  0  0  0  0  0  0  0  0  0  0
  147.5677  141.0917  153.4932 C   0  0  2  0  0  0  0  0  0  0  0  0
  147.0464  139.7980  152.9063 C   0  0  0  0  0  0  0  0  0  0  0  0
  152.0301  138.6721  156.0202 H   0  0  0  0  0  0  0  0  0  0  0  0
  152.0243  138.6083  157.7786 H   0  0  0  0  0  0  0  0  0  0  0  0
  153.3868  139.3546  156.9087 H   0  0  0  0  0  0  0  0  0  0  0  0
  153.5052  140.2616  158.9514 H   0  0  0  0  0  0  0  0  0  0  0  0
  153.7314  141.8898  160.7952 H   0  0  0  0  0  0  0  0  0  0  0  0
  153.0616  143.9884  161.8139 H   0  0  0  0  0  0  0  0  0  0  0  0
  151.3005  144.1355  161.7951 H   0  0  0  0  0  0  0  0  0  0  0  0
  152.2879  145.1688  160.7533 H   0  0  0  0  0  0  0  0  0  0  0  0
  149.9859  143.5247  156.6780 H   0  0  0  0  0  0  0  0  0  0  0  0
  148.4386  143.1317  155.4237 H   0  0  0  0  0  0  0  0  0  0  0  0
  146.7042  140.7550  155.5223 H   0  0  0  0  0  0  0  0  0  0  0  0
  145.5439  141.9995  153.7355 H   0  0  0  0  0  0  0  0  0  0  0  0
  146.9192  143.2148  153.6496 H   0  0  0  0  0  0  0  0  0  0  0  0
  148.5198  141.4088  153.0717 H   0  0  0  0  0  0  0  0  0  0  0  0
  146.0939  139.5221  153.3598 H   0  0  0  0  0  0  0  0  0  0  0  0
  147.7606  138.9938  153.0824 H   0  0  0  0  0  0  0  0  0  0  0  0
  146.9016  139.9063  151.8314 H   0  0  0  0  0  0  0  0  0  0  0  0
  1  2  1  0  0  0  0
  1 18  1  0  0  0  0
  1 19  1  0  0  0  0
  1 20  1  0  0  0  0
  2  3  1  0  0  0  0
  3  9  1  0  0  0  0
  3  4  2  0  0  0  0
  4  5  1  0  0  0  0
  4 21  1  0  0  0  0
  5  6  2  0  0  0  0
  5 22  1  0  0  0  0
  6  7  1  0  0  0  0
  6  8  1  0  0  0  0
  7 23  1  0  0  0  0
  7 24  1  0  0  0  0
  7 25  1  0  0  0  0
  8  9  2  0  0  0  0
  9 10  1  0  0  0  0
 10 11  1  0  0  0  0
 10 26  1  0  0  0  0
 11 12  2  0  0  0  0
 11 13  1  0  0  0  0
 13 14  1  0  0  0  0
 13 27  1  0  0  0  0
 14 16  1  0  0  0  0
 14 15  1  0  0  0  0
 14 28  1  0  0  0  0
 15 16  1  0  0  0  0
 15 29  1  0  0  0  0
 15 30  1  0  0  0  0
 16 17  1  0  0  0  0
 16 31  1  0  0  0  0
 17 32  1  0  0  0  0
 17 33  1  0  0  0  0
 17 34  1  0  0  0  0
M  END
> <s_m_source_file>
AV-unprocessed.smi

> <i_m_source_file_index>
2222

> <i_lp_mmshare_version>
43012

> <i_f3d_flags>
0

> <s_epik_input>
W0NIM11PYzFbY0hdW2NIXWMoW0NIM10pbmMxW05IXUMoPU8pW05IXVtDQEBIXTJbQ0gyXVtDQEhdMltDSDNd

> <s_epik_cmdline>
J2VwaWtfcHl0aG9uJywgJy1waCcsICc3LjAnLCAnLXRuJywgJzgnLCAnLW1hJywgJzIwMCcsICctbWV0YWxfYmluZGluZycsICctaW1hZScsICc8aW5maWxlLm1hZT4nLCAnLW9tYWUnLCAnPG91dGZpbGUubWFlPic=

> <r_lp_tautomer_probability>
1

> <r_epik_Ionization_Penalty>
6.59103e-05

> <r_epik_Ionization_Penalty_Charging>
0

> <r_epik_Ionization_Penalty_Neutral>
6.59103e-05

> <r_epik_State_Penalty>
-0

> <r_epik_Charging_Adjusted_Penalty>
0

> <i_epik_Tot_Q>
0

> <i_epik_Tot_abs_Q>
0

> <r_epik_Metal_State_Penalty>
-0

> <b_epik_Metal_Only>
0

> <s_lp_Force_Field>
OPLS_2005

> <r_lp_Energy>
33.3795

> <b_lp_Chiralities_Consistent>
1

> <s_lp_Variant>
AV-unprocessed.smi:2222-4

> <Gold.Version>
5.8.1

> <Gold.Id.Protein>
6NUR|6NUR_protein|mol2

> <Gold.PLP.Fitness>
38.0938

> <Gold.PLP.PLP>
-33.4695

> <Gold.PLP.part.hbond>
-2.0000

> <Gold.PLP.part.metal>
0.0000

> <Gold.PLP.part.buried>
-3.7429

> <Gold.PLP.part.nonpolar>
-27.0104

> <Gold.PLP.part.repulsive>
0.1908

> <Gold.PLP.ligand.clash>
0.0000

> <Gold.PLP.ligand.torsion>
0.5597

> <Gold.PLP.Chemscore.Hbond>
1.8960

> <Gold.PLP.Chemscore.CHOScore>
0.0000

> <Gold.PLP.Chemscore.Metal>
0.0000

> <Gold.Chemscore.Hbonds>
donor molecule, donor type, donor heavy atom, donor atom, acceptor molecule, acceptor atom, score
      L1  H    10    26       P1  8028  0.90
      L1  H    13    27       P1  8028  1.00

> <Gold.PLP.Chemscore.Internal.Correction>
0.0558

> <Gold.Rescore>
     Score         DG    S(hbond)    S(metal)    S(lipo)     H(rot)  DE(clash)    DE(int)     intcor
     14.91     -18.40       1.87        0.00      83.73       1.22       0.03       3.47       ----

> <Gold.Chemscore.Fitness>
14.9107

> <Gold.Chemscore.DG>
-18.4048

> <Gold.Chemscore.ZeroCoef>
-5.4800

> <Gold.Chemscore.Hbond>
1.8693

> <Gold.Chemscore.Metal>
0.0000

> <Gold.Chemscore.Lipo>
83.7306

> <Gold.Chemscore.Internal_Hbond>
0.0000

> <Gold.Chemscore.DEClash>
0.0251

> <Gold.Chemscore.DEInternal>
3.4691

> <Gold.Chemscore.Rot>
1.2168

> <Gold.Chemscore.Internal.Correction>
   9.000000E+99

> <Gold.Chemscore.Hbonds>
donor molecule, donor type, donor heavy atom, donor atom, acceptor molecule, acceptor atom, score
      L1  H    10    26       P1  8028  0.88
      L1  H    13    27       P1  8028  0.98

> <Gold.Chemscore.Hbond.Weighted>
-6.2433

> <Gold.Chemscore.Metal.Weighted>
-0.0000

> <Gold.Chemscore.Lipo.Weighted>
-9.7965

> <Gold.Chemscore.Internal_Hbond.Weighted>
0.0000

> <Gold.Chemscore.DEClash.Weighted>
0.0251

> <Gold.Chemscore.DEInternal.Weighted>
3.4691

> <Gold.Chemscore.Rot.Weighted>
3.1150

> <Gold.Chemscore.Internal.Correction.Weighted>
   9.000000E+99

> <Gold.Protein.RotatedTorsions>
[ 6907 6896 6895 6894 ] final  -72.51 input  -60.11 | X-H torsion
[ 7974 7965 7964 7962 ] final  -72.44 input  175.53 | X-H torsion
[ 8008 7997 7996 7995 ] final -153.63 input   59.86 | X-H torsion
[ 10167 10162 10161 10158 ] final  157.32 input  -65.29 | X-H torsion
[ 10718 10713 10712 10709 ] final -104.32 input   66.30 | X-H torsion
[ 10763 10752 10751 10750 ] final  -44.51 input  -60.55 | X-H torsion
[ 11005 11000 10999 10996 ] final  104.53 input  -57.11 | X-H torsion

> <Gold.Protein.ActiveResidues>
 VAL166  LYS551  ARG553  GLY616  TRP617  ASP618  TYR619  PRO620  LYS621  CYS622 
 ASP623  PHE694  ASN695  SER759  ASP760  ASP761  ALA762  ILE779  LEU786  VAL792 
 PHE793  MET794  SER795  GLU796  ALA797  LYS798  CYS799  TRP800  GLU811  SER814 

> <Gold.Protein.RotatedAtoms>
  150.7167  134.5153  159.5626 H   0  0  0  0  0  0  0  0  0  0  0  0  # atno 6907 bound_to 6896
  152.2720  134.7919  160.0421 H   0  0  0  0  0  0  0  0  0  0  0  0  # atno 6908 bound_to 6896
  151.8596  133.3419  159.3736 H   0  0  0  0  0  0  0  0  0  0  0  0  # atno 6909 bound_to 6896
  145.6650  140.9240  143.0913 H   0  0  0  0  0  0  0  0  0  0  0  0  # atno 7974 bound_to 7965
  155.6737  140.0736  157.2510 H   0  0  0  0  0  0  0  0  0  0  0  0  # atno 8008 bound_to 7997
  154.4118  140.1694  156.1959 H   0  0  0  0  0  0  0  0  0  0  0  0  # atno 8009 bound_to 7997
  155.9594  140.3371  155.6480 H   0  0  0  0  0  0  0  0  0  0  0  0  # atno 8010 bound_to 7997
  139.4823  144.4928  151.8283 H   0  0  0  0  0  0  0  0  0  0  0  0  # atno 10167 bound_to 10162
  156.0300  130.5509  150.7379 H   0  0  0  0  0  0  0  0  0  0  0  0  # atno 10718 bound_to 10713
  154.0133  135.6678  153.4767 H   0  0  0  0  0  0  0  0  0  0  0  0  # atno 10763 bound_to 10752
  153.0611  135.5027  154.8092 H   0  0  0  0  0  0  0  0  0  0  0  0  # atno 10764 bound_to 10752
  154.6982  135.3074  154.9344 H   0  0  0  0  0  0  0  0  0  0  0  0  # atno 10765 bound_to 10752
  139.8793  134.9303  156.5375 H   0  0  0  0  0  0  0  0  0  0  0  0  # atno 11005 bound_to 11000
  144.7076  139.8499  143.7425 LP  0  0  0  0  0  0  0  0  0  0  0  0  # atno 17320 bound_to 7965
  146.1093  139.4096  143.0298 LP  0  0  0  0  0  0  0  0  0  0  0  0  # atno 17321 bound_to 7965
  140.4414  144.1981  150.5891 LP  0  0  0  0  0  0  0  0  0  0  0  0  # atno 17342 bound_to 10162
  140.4679  143.2424  151.9129 LP  0  0  0  0  0  0  0  0  0  0  0  0  # atno 17343 bound_to 10162
  157.4955  131.0914  151.0376 LP  0  0  0  0  0  0  0  0  0  0  0  0  # atno 17370 bound_to 10713
  157.0771  130.5888  149.5413 LP  0  0  0  0  0  0  0  0  0  0  0  0  # atno 17371 bound_to 10713
  140.8335  133.8261  155.9006 LP  0  0  0  0  0  0  0  0  0  0  0  0  # atno 17394 bound_to 11000
  140.9306  134.2026  157.4866 LP  0  0  0  0  0  0  0  0  0  0  0  0  # atno 17395 bound_to 11000

$$$$
