AV-unprocessed.smi:3354|AV-procd|sdf|12955|dock10
  -GOLD-   2272019393D 1   1.00000     0.00000
 Structure written by MMmdl.
 38 40  0  0  0  0  0  0  0  0  1 V2000
  149.9059  133.9136  155.0116 C   0  0  0  0  0  0  0  0  0  0  0  0
  150.2493  135.2583  155.6147 C   0  0  2  0  0  0  0  0  0  0  0  0
  149.5069  135.7509  156.8343 C   0  0  0  0  0  0  0  0  0  0  0  0
  149.2992  136.4304  155.4946 C   0  0  1  0  0  0  0  0  0  0  0  0
  149.8477  137.7308  155.2436 N   0  0  0  0  0  0  0  0  0  0  0  0
  149.0707  138.9520  155.4060 C   0  0  0  0  0  0  0  0  0  0  0  0
  149.8717  140.0503  154.6806 C   0  0  1  0  0  0  0  0  0  0  0  0
  149.9650  141.2755  155.4701 N   0  0  0  0  0  0  0  0  0  0  0  0
  150.8001  141.4627  156.5016 C   0  0  0  0  0  0  0  0  0  0  0  0
  151.6059  140.6135  156.8814 O   0  0  0  0  0  0  0  0  0  0  0  0
  150.6424  142.6863  157.0354 N   0  0  0  0  0  0  0  0  0  0  0  0
  151.3009  143.2693  158.1530 C   0  0  0  0  0  0  0  0  0  0  0  0
  152.4135  142.6997  158.8200 C   0  0  0  0  0  0  0  0  0  0  0  0
  152.9611  143.3754  159.9277 C   0  0  0  0  0  0  0  0  0  0  0  0
  152.3753  144.5903  160.3326 C   0  0  0  0  0  0  0  0  0  0  0  0
  151.3095  145.1397  159.7138 N   0  0  0  0  0  0  0  0  0  0  0  0
  150.7897  144.4862  158.6528 C   0  0  0  0  0  0  0  0  0  0  0  0
  151.2538  139.4385  154.4173 C   0  0  0  0  0  0  0  0  0  0  0  0
  151.0415  137.9583  154.6843 C   0  0  0  0  0  0  0  0  0  0  0  0
  151.8801  137.1052  154.3962 O   0  0  0  0  0  0  0  0  0  0  0  0
  148.8341  133.7229  155.0726 H   0  0  0  0  0  0  0  0  0  0  0  0
  150.4315  133.1198  155.5422 H   0  0  0  0  0  0  0  0  0  0  0  0
  150.2036  133.8884  153.9633 H   0  0  0  0  0  0  0  0  0  0  0  0
  151.3115  135.4942  155.5778 H   0  0  0  0  0  0  0  0  0  0  0  0
  148.6906  135.1378  157.2108 H   0  0  0  0  0  0  0  0  0  0  0  0
  150.0995  136.2442  157.6016 H   0  0  0  0  0  0  0  0  0  0  0  0
  148.3407  136.2277  155.0186 H   0  0  0  0  0  0  0  0  0  0  0  0
  148.0713  138.8494  154.9809 H   0  0  0  0  0  0  0  0  0  0  0  0
  148.9666  139.1629  156.4717 H   0  0  0  0  0  0  0  0  0  0  0  0
  149.4014  140.2673  153.7192 H   0  0  0  0  0  0  0  0  0  0  0  0
  149.3411  142.0285  155.2188 H   0  0  0  0  0  0  0  0  0  0  0  0
  149.9850  143.2900  156.5640 H   0  0  0  0  0  0  0  0  0  0  0  0
  152.8501  141.7604  158.5198 H   0  0  0  0  0  0  0  0  0  0  0  0
  153.8092  142.9682  160.4579 H   0  0  0  0  0  0  0  0  0  0  0  0
  152.7705  145.1324  161.1791 H   0  0  0  0  0  0  0  0  0  0  0  0
  149.9352  144.9540  158.1854 H   0  0  0  0  0  0  0  0  0  0  0  0
  151.5914  139.6131  153.3949 H   0  0  0  0  0  0  0  0  0  0  0  0
  152.0133  139.8161  155.1033 H   0  0  0  0  0  0  0  0  0  0  0  0
  1  2  1  0  0  0  0
  1 21  1  0  0  0  0
  1 22  1  0  0  0  0
  1 23  1  0  0  0  0
  2  4  1  0  0  0  0
  2  3  1  0  0  0  0
  2 24  1  0  0  0  0
  3  4  1  0  0  0  0
  3 25  1  0  0  0  0
  3 26  1  0  0  0  0
  4  5  1  0  0  0  0
  4 27  1  0  0  0  0
  5 19  1  0  0  0  0
  5  6  1  0  0  0  0
  6  7  1  0  0  0  0
  6 28  1  0  0  0  0
  6 29  1  0  0  0  0
  7  8  1  0  0  0  0
  7 18  1  0  0  0  0
  7 30  1  0  0  0  0
  8  9  1  0  0  0  0
  8 31  1  0  0  0  0
  9 10  2  0  0  0  0
  9 11  1  0  0  0  0
 11 12  1  0  0  0  0
 11 32  1  0  0  0  0
 12 17  1  0  0  0  0
 12 13  2  0  0  0  0
 13 14  1  0  0  0  0
 13 33  1  0  0  0  0
 14 15  2  0  0  0  0
 14 34  1  0  0  0  0
 15 16  1  0  0  0  0
 15 35  1  0  0  0  0
 16 17  2  0  0  0  0
 17 36  1  0  0  0  0
 18 19  1  0  0  0  0
 18 37  1  0  0  0  0
 18 38  1  0  0  0  0
 19 20  2  0  0  0  0
M  END
> <s_m_source_file>
AV-unprocessed.smi

> <i_m_source_file_index>
3354

> <i_lp_mmshare_version>
43012

> <i_f3d_flags>
0

> <s_epik_input>
W0NIM11bQ0BASF0xW0NIMl1bQ0BIXTFOMltDSDJdW0NASF0oW0NIMl1DMj1PKVtOSF1DKD1PKVtOSF1jM1tjSF1bY0hdW2NIXW5bY0hdMw==

> <s_epik_cmdline>
J2VwaWtfcHl0aG9uJywgJy1waCcsICc3LjAnLCAnLXRuJywgJzgnLCAnLW1hJywgJzIwMCcsICctbWV0YWxfYmluZGluZycsICctaW1hZScsICc8aW5maWxlLm1hZT4nLCAnLW9tYWUnLCAnPG91dGZpbGUubWFlPic=

> <r_epik_Ionization_Penalty>
0.00456191

> <r_epik_Ionization_Penalty_Charging>
0

> <r_epik_Ionization_Penalty_Neutral>
0.00456191

> <r_epik_State_Penalty>
0.00327094

> <r_epik_Charging_Adjusted_Penalty>
0.00327094

> <i_epik_Tot_Q>
0

> <i_epik_Tot_abs_Q>
0

> <r_epik_Metal_State_Penalty>
-0

> <b_epik_Metal_Only>
0

> <s_lp_Force_Field>
OPLS_2005

> <r_lp_Energy>
43.1486

> <b_lp_Chiralities_Consistent>
1

> <s_lp_Variant>
AV-unprocessed.smi:3354-1

> <Gold.Version>
5.8.1

> <Gold.Id.Protein>
6NUR|6NUR_protein|mol2

> <Gold.PLP.Fitness>
42.0644

> <Gold.PLP.PLP>
-34.4307

> <Gold.PLP.part.hbond>
-2.0000

> <Gold.PLP.part.metal>
0.0000

> <Gold.PLP.part.buried>
-4.7345

> <Gold.PLP.part.nonpolar>
-28.3385

> <Gold.PLP.part.repulsive>
0.4472

> <Gold.PLP.ligand.clash>
0.0465

> <Gold.PLP.ligand.torsion>
0.8898

> <Gold.PLP.Chemscore.Hbond>
2.0000

> <Gold.PLP.Chemscore.CHOScore>
1.0969

> <Gold.PLP.Chemscore.Metal>
0.0000

> <Gold.Chemscore.Hbonds>
donor molecule, donor type, donor heavy atom, donor atom, acceptor molecule, acceptor atom, score
      L1  H    11    32       P1  8028  1.00
      P1  H 10752 10763       L1    20  1.00
      L1  C    17    36       P1  8028  0.16
      L1  C    17    36       P1  8029  0.89

> <Gold.PLP.Chemscore.Internal.Correction>
0.1690

> <Gold.Rescore>
     Score         DG    S(hbond)    S(metal)    S(lipo)     H(rot)  DE(clash)    DE(int)     intcor
     14.10     -19.12       1.96        0.00      87.62       1.24       0.19       4.83       ----

> <Gold.Chemscore.Fitness>
14.1025

> <Gold.Chemscore.DG>
-19.1209

> <Gold.Chemscore.ZeroCoef>
-5.4800

> <Gold.Chemscore.Hbond>
1.9622

> <Gold.Chemscore.Metal>
0.0000

> <Gold.Chemscore.Lipo>
87.6194

> <Gold.Chemscore.Internal_Hbond>
0.0000

> <Gold.Chemscore.DEClash>
0.1893

> <Gold.Chemscore.DEInternal>
4.8291

> <Gold.Chemscore.Rot>
1.2361

> <Gold.Chemscore.Internal.Correction>
   9.000000E+99

> <Gold.Chemscore.Hbonds>
donor molecule, donor type, donor heavy atom, donor atom, acceptor molecule, acceptor atom, score
      L1  H    11    32       P1  8028  0.95
      P1  H 10752 10763       L1    20  0.94

> <Gold.Chemscore.Hbond.Weighted>
-6.5538

> <Gold.Chemscore.Metal.Weighted>
-0.0000

> <Gold.Chemscore.Lipo.Weighted>
-10.2515

> <Gold.Chemscore.Internal_Hbond.Weighted>
0.0000

> <Gold.Chemscore.DEClash.Weighted>
0.1893

> <Gold.Chemscore.DEInternal.Weighted>
4.8291

> <Gold.Chemscore.Rot.Weighted>
3.1643

> <Gold.Chemscore.Internal.Correction.Weighted>
   9.000000E+99

> <Gold.Protein.RotatedTorsions>
[ 6907 6896 6895 6894 ] final   29.21 input  -60.11 | X-H torsion
[ 7974 7965 7964 7962 ] final  176.23 input  175.53 | X-H torsion
[ 8008 7997 7996 7995 ] final   13.00 input   59.86 | X-H torsion
[ 10167 10162 10161 10158 ] final   63.84 input  -65.29 | X-H torsion
[ 10718 10713 10712 10709 ] final -171.43 input   66.30 | X-H torsion
[ 10763 10752 10751 10750 ] final   33.80 input  -60.55 | X-H torsion
[ 11005 11000 10999 10996 ] final   97.31 input  -57.11 | X-H torsion

> <Gold.Protein.ActiveResidues>
 VAL166  LYS551  ARG553  GLY616  TRP617  ASP618  TYR619  PRO620  LYS621  CYS622 
 ASP623  PHE694  ASN695  SER759  ASP760  ASP761  ALA762  ILE779  LEU786  VAL792 
 PHE793  MET794  SER795  GLU796  ALA797  LYS798  CYS799  TRP800  GLU811  SER814 

> <Gold.Protein.RotatedAtoms>
  152.0282  134.9783  160.0571 H   0  0  0  0  0  0  0  0  0  0  0  0  # atno 6907 bound_to 6896
  152.1270  133.4381  159.4711 H   0  0  0  0  0  0  0  0  0  0  0  0  # atno 6908 bound_to 6896
  150.6853  134.2385  159.4506 H   0  0  0  0  0  0  0  0  0  0  0  0  # atno 6909 bound_to 6896
  144.7188  140.0066  143.6440 H   0  0  0  0  0  0  0  0  0  0  0  0  # atno 7974 bound_to 7965
  154.8283  140.2895  155.5739 H   0  0  0  0  0  0  0  0  0  0  0  0  # atno 8008 bound_to 7997
  156.3003  140.2537  156.3134 H   0  0  0  0  0  0  0  0  0  0  0  0  # atno 8009 bound_to 7997
  154.9260  140.0384  157.2012 H   0  0  0  0  0  0  0  0  0  0  0  0  # atno 8010 bound_to 7997
  140.1287  144.4663  150.6877 H   0  0  0  0  0  0  0  0  0  0  0  0  # atno 10167 bound_to 10162
  156.7407  130.9341  151.3110 H   0  0  0  0  0  0  0  0  0  0  0  0  # atno 10718 bound_to 10713
  153.0194  135.6377  154.1569 H   0  0  0  0  0  0  0  0  0  0  0  0  # atno 10763 bound_to 10752
  154.1305  135.2841  155.3188 H   0  0  0  0  0  0  0  0  0  0  0  0  # atno 10764 bound_to 10752
  154.6198  135.5528  153.7624 H   0  0  0  0  0  0  0  0  0  0  0  0  # atno 10765 bound_to 10752
  139.8776  134.8994  156.4288 H   0  0  0  0  0  0  0  0  0  0  0  0  # atno 11005 bound_to 11000
  146.0292  139.3320  143.0765 LP  0  0  0  0  0  0  0  0  0  0  0  0  # atno 17320 bound_to 7965
  145.8473  140.9548  143.0768 LP  0  0  0  0  0  0  0  0  0  0  0  0  # atno 17321 bound_to 7965
  140.6830  143.2336  151.5335 LP  0  0  0  0  0  0  0  0  0  0  0  0  # atno 17342 bound_to 10162
  139.5531  144.2345  152.1565 LP  0  0  0  0  0  0  0  0  0  0  0  0  # atno 17343 bound_to 10162
  157.6819  130.9148  150.0290 LP  0  0  0  0  0  0  0  0  0  0  0  0  # atno 17370 bound_to 10713
  156.1466  130.3642  149.9501 LP  0  0  0  0  0  0  0  0  0  0  0  0  # atno 17371 bound_to 10713
  140.9082  133.7731  155.9760 LP  0  0  0  0  0  0  0  0  0  0  0  0  # atno 17394 bound_to 11000
  140.8576  134.2879  157.5248 LP  0  0  0  0  0  0  0  0  0  0  0  0  # atno 17395 bound_to 11000

$$$$
