AV-unprocessed.smi:2244|AV-procd|sdf|9073|dock9
  -GOLD-   2272012283D 1   1.00000     0.00000
 Structure written by MMmdl.
 49 51  0  0  0  0  0  0  0  0  1 V2000
  137.0155  139.3484  155.5936 C   0  0  0  0  0  0  0  0  0  0  0  0
  137.0259  138.8137  154.1438 C   0  0  0  0  0  0  0  0  0  0  0  0
  136.1748  137.5271  154.1166 C   0  0  0  0  0  0  0  0  0  0  0  0
  136.3774  139.8908  153.2492 C   0  0  0  0  0  0  0  0  0  0  0  0
  138.4478  138.5065  153.6409 C   0  0  0  0  0  0  0  0  0  0  0  0
  138.8659  137.2179  153.2397 C   0  0  0  0  0  0  0  0  0  0  0  0
  140.1909  137.0681  152.7965 C   0  0  0  0  0  0  0  0  0  0  0  0
  141.0289  138.2013  152.7759 C   0  0  0  0  0  0  0  0  0  0  0  0
  142.3546  137.9567  152.3112 N   0  0  0  0  0  0  0  0  0  0  0  0
  143.1219  136.8459  152.3389 C   0  0  0  0  0  0  0  0  0  0  0  0
  142.7025  135.7991  152.8299 O   0  0  0  0  0  0  0  0  0  0  0  0
  144.3497  136.9562  151.8054 N   0  0  0  0  0  0  0  0  0  0  0  0
  145.3430  135.8906  151.7269 C   0  0  1  0  0  0  0  0  0  0  0  0
  145.5958  135.2747  153.1128 C   0  0  0  0  0  0  0  0  0  0  0  0
  146.5101  134.0448  153.0002 C   0  0  0  0  0  0  0  0  0  0  0  0
  145.9449  133.0975  152.1003 O   0  0  0  0  0  0  0  0  0  0  0  0
  145.8149  133.5941  150.7715 C   0  0  1  0  0  0  0  0  0  0  0  0
  145.3102  132.4657  149.8942 C   0  0  0  0  0  0  0  0  0  0  0  0
  144.4795  132.7528  148.6656 C   0  0  0  0  0  0  0  0  0  0  0  0
  143.8437  132.1029  149.8706 C   0  0  0  0  0  0  0  0  0  0  0  0
  144.8535  134.7971  150.7662 C   0  0  0  0  0  0  0  0  0  0  0  0
  140.5568  139.4094  153.1769 N   0  0  0  0  0  0  0  0  0  0  0  0
  139.2983  139.5605  153.5982 N   0  0  0  0  0  0  0  0  0  0  0  0
  135.9999  139.5631  155.9279 H   0  0  0  0  0  0  0  0  0  0  0  0
  137.5832  140.2753  155.6850 H   0  0  0  0  0  0  0  0  0  0  0  0
  137.4345  138.6248  156.2938 H   0  0  0  0  0  0  0  0  0  0  0  0
  136.6152  136.7483  154.7403 H   0  0  0  0  0  0  0  0  0  0  0  0
  136.0805  137.1248  153.1075 H   0  0  0  0  0  0  0  0  0  0  0  0
  135.1646  137.7104  154.4843 H   0  0  0  0  0  0  0  0  0  0  0  0
  135.3744  140.1437  153.5948 H   0  0  0  0  0  0  0  0  0  0  0  0
  136.2848  139.5576  152.2149 H   0  0  0  0  0  0  0  0  0  0  0  0
  136.9658  140.8089  153.2468 H   0  0  0  0  0  0  0  0  0  0  0  0
  138.2139  136.3586  153.2596 H   0  0  0  0  0  0  0  0  0  0  0  0
  140.5520  136.1004  152.4795 H   0  0  0  0  0  0  0  0  0  0  0  0
  142.8010  138.7586  151.8907 H   0  0  0  0  0  0  0  0  0  0  0  0
  144.6149  137.8526  151.4218 H   0  0  0  0  0  0  0  0  0  0  0  0
  146.2794  136.2949  151.3377 H   0  0  0  0  0  0  0  0  0  0  0  0
  146.0425  136.0104  153.7822 H   0  0  0  0  0  0  0  0  0  0  0  0
  144.6485  134.9762  153.5642 H   0  0  0  0  0  0  0  0  0  0  0  0
  147.5079  134.3312  152.6646 H   0  0  0  0  0  0  0  0  0  0  0  0
  146.6269  133.5754  153.9771 H   0  0  0  0  0  0  0  0  0  0  0  0
  146.7959  133.9051  150.4071 H   0  0  0  0  0  0  0  0  0  0  0  0
  146.0048  131.6319  149.8117 H   0  0  0  0  0  0  0  0  0  0  0  0
  144.2206  133.7893  148.4590 H   0  0  0  0  0  0  0  0  0  0  0  0
  144.6502  132.1313  147.7890 H   0  0  0  0  0  0  0  0  0  0  0  0
  143.5890  131.0477  149.7980 H   0  0  0  0  0  0  0  0  0  0  0  0
  143.1622  132.7072  150.4658 H   0  0  0  0  0  0  0  0  0  0  0  0
  143.8565  134.4652  151.0611 H   0  0  0  0  0  0  0  0  0  0  0  0
  144.7622  135.1989  149.7561 H   0  0  0  0  0  0  0  0  0  0  0  0
  1  2  1  0  0  0  0
  1 24  1  0  0  0  0
  1 25  1  0  0  0  0
  1 26  1  0  0  0  0
  2  3  1  0  0  0  0
  2  4  1  0  0  0  0
  2  5  1  0  0  0  0
  3 27  1  0  0  0  0
  3 28  1  0  0  0  0
  3 29  1  0  0  0  0
  4 30  1  0  0  0  0
  4 31  1  0  0  0  0
  4 32  1  0  0  0  0
  5 23  1  0  0  0  0
  5  6  2  0  0  0  0
  6  7  1  0  0  0  0
  6 33  1  0  0  0  0
  7  8  2  0  0  0  0
  7 34  1  0  0  0  0
  8  9  1  0  0  0  0
  8 22  1  0  0  0  0
  9 10  1  0  0  0  0
  9 35  1  0  0  0  0
 10 11  2  0  0  0  0
 10 12  1  0  0  0  0
 12 13  1  0  0  0  0
 12 36  1  0  0  0  0
 13 21  1  0  0  0  0
 13 14  1  0  0  0  0
 13 37  1  0  0  0  0
 14 15  1  0  0  0  0
 14 38  1  0  0  0  0
 14 39  1  0  0  0  0
 15 16  1  0  0  0  0
 15 40  1  0  0  0  0
 15 41  1  0  0  0  0
 16 17  1  0  0  0  0
 17 18  1  0  0  0  0
 17 21  1  0  0  0  0
 17 42  1  0  0  0  0
 18 20  1  0  0  0  0
 18 19  1  0  0  0  0
 18 43  1  0  0  0  0
 19 20  1  0  0  0  0
 19 44  1  0  0  0  0
 19 45  1  0  0  0  0
 20 46  1  0  0  0  0
 20 47  1  0  0  0  0
 21 48  1  0  0  0  0
 21 49  1  0  0  0  0
 22 23  2  0  0  0  0
M  END
> <s_m_source_file>
AV-unprocessed.smi

> <i_m_source_file_index>
2244

> <i_lp_mmshare_version>
43012

> <i_f3d_flags>
0

> <s_epik_input>
W0NIM11DKFtDSDNdKShbQ0gzXSljMVtjSF1bY0hdYyhubjEpW05IXUMoPU8pW05IXVtDQEBIXTJbQ0gyXVtDSDJdT1tDQEhdKFtDSDJdMilbQ0hdM1tDSDJdW0NIMl0z

> <s_epik_cmdline>
J2VwaWtfcHl0aG9uJywgJy1waCcsICc3LjAnLCAnLXRuJywgJzgnLCAnLW1hJywgJzIwMCcsICctbWV0YWxfYmluZGluZycsICctaW1hZScsICc8aW5maWxlLm1hZT4nLCAnLW9tYWUnLCAnPG91dGZpbGUubWFlPic=

> <r_lp_tautomer_probability>
1

> <r_epik_Ionization_Penalty>
0.011369

> <r_epik_Ionization_Penalty_Charging>
0

> <r_epik_Ionization_Penalty_Neutral>
0.011369

> <r_epik_State_Penalty>
0.00456331

> <r_epik_Charging_Adjusted_Penalty>
0.00456331

> <i_epik_Tot_Q>
0

> <i_epik_Tot_abs_Q>
0

> <r_epik_Metal_State_Penalty>
-0

> <b_epik_Metal_Only>
0

> <s_lp_Force_Field>
OPLS_2005

> <r_lp_Energy>
27.405

> <b_lp_Chiralities_Consistent>
1

> <s_lp_Variant>
AV-unprocessed.smi:2244-2

> <Gold.Version>
5.8.1

> <Gold.Id.Protein>
6NUR|6NUR_protein|mol2

> <Gold.PLP.Fitness>
42.2062

> <Gold.PLP.PLP>
-38.2141

> <Gold.PLP.part.hbond>
-2.1916

> <Gold.PLP.part.metal>
0.0000

> <Gold.PLP.part.buried>
-5.8248

> <Gold.PLP.part.nonpolar>
-30.9114

> <Gold.PLP.part.repulsive>
0.6925

> <Gold.PLP.ligand.clash>
0.0000

> <Gold.PLP.ligand.torsion>
0.7499

> <Gold.PLP.Chemscore.Hbond>
1.4720

> <Gold.PLP.Chemscore.CHOScore>
0.0000

> <Gold.PLP.Chemscore.Metal>
0.0000

> <Gold.Chemscore.Hbonds>
donor molecule, donor type, donor heavy atom, donor atom, acceptor molecule, acceptor atom, score
      L1  H     9    35       P1 10175  0.78
      L1  H    12    36       P1 10171  0.48

> <Gold.PLP.Chemscore.Internal.Correction>
1.0759

> <Gold.Rescore>
     Score         DG    S(hbond)    S(metal)    S(lipo)     H(rot)  DE(clash)    DE(int)     intcor
     14.01     -17.40       1.43        0.00      89.56       1.30       0.06       3.33       ----

> <Gold.Chemscore.Fitness>
14.0127

> <Gold.Chemscore.DG>
-17.3993

> <Gold.Chemscore.ZeroCoef>
-5.4800

> <Gold.Chemscore.Hbond>
1.4279

> <Gold.Chemscore.Metal>
0.0000

> <Gold.Chemscore.Lipo>
89.5601

> <Gold.Chemscore.Internal_Hbond>
0.0000

> <Gold.Chemscore.DEClash>
0.0589

> <Gold.Chemscore.DEInternal>
3.3277

> <Gold.Chemscore.Rot>
1.3002

> <Gold.Chemscore.Internal.Correction>
   9.000000E+99

> <Gold.Chemscore.Hbonds>
donor molecule, donor type, donor heavy atom, donor atom, acceptor molecule, acceptor atom, score
      L1  H     9    35       P1 10175  0.70
      L1  H    12    36       P1 10171  0.48

> <Gold.Chemscore.Hbond.Weighted>
-4.7692

> <Gold.Chemscore.Metal.Weighted>
-0.0000

> <Gold.Chemscore.Lipo.Weighted>
-10.4785

> <Gold.Chemscore.Internal_Hbond.Weighted>
0.0000

> <Gold.Chemscore.DEClash.Weighted>
0.0589

> <Gold.Chemscore.DEInternal.Weighted>
3.3277

> <Gold.Chemscore.Rot.Weighted>
3.3284

> <Gold.Chemscore.Internal.Correction.Weighted>
   9.000000E+99

> <Gold.Protein.RotatedTorsions>
[ 6907 6896 6895 6894 ] final  -51.99 input  -60.11 | X-H torsion
[ 7974 7965 7964 7962 ] final -158.13 input  175.53 | X-H torsion
[ 8008 7997 7996 7995 ] final  114.10 input   59.86 | X-H torsion
[ 10167 10162 10161 10158 ] final -155.04 input  -65.29 | X-H torsion
[ 10718 10713 10712 10709 ] final -176.26 input   66.30 | X-H torsion
[ 10763 10752 10751 10750 ] final -132.62 input  -60.55 | X-H torsion
[ 11005 11000 10999 10996 ] final  118.84 input  -57.11 | X-H torsion

> <Gold.Protein.ActiveResidues>
 VAL166  LYS551  ARG553  GLY616  TRP617  ASP618  TYR619  PRO620  LYS621  CYS622 
 ASP623  PHE694  ASN695  SER759  ASP760  ASP761  ALA762  ILE779  LEU786  VAL792 
 PHE793  MET794  SER795  GLU796  ALA797  LYS798  CYS799  TRP800  GLU811  SER814 

> <Gold.Protein.RotatedAtoms>
  150.8559  134.7898  159.7045 H   0  0  0  0  0  0  0  0  0  0  0  0  # atno 6907 bound_to 6896
  152.4611  134.5179  159.9783 H   0  0  0  0  0  0  0  0  0  0  0  0  # atno 6908 bound_to 6896
  151.5291  133.3414  159.2950 H   0  0  0  0  0  0  0  0  0  0  0  0  # atno 6909 bound_to 6896
  144.7519  140.3871  143.6042 H   0  0  0  0  0  0  0  0  0  0  0  0  # atno 7974 bound_to 7965
  156.2300  140.2966  156.0164 H   0  0  0  0  0  0  0  0  0  0  0  0  # atno 8008 bound_to 7997
  155.2252  140.0417  157.2971 H   0  0  0  0  0  0  0  0  0  0  0  0  # atno 8009 bound_to 7997
  154.5979  140.2419  155.7839 H   0  0  0  0  0  0  0  0  0  0  0  0  # atno 8010 bound_to 7997
  139.6963  143.9336  152.2409 H   0  0  0  0  0  0  0  0  0  0  0  0  # atno 10167 bound_to 10162
  156.8120  130.9589  151.3115 H   0  0  0  0  0  0  0  0  0  0  0  0  # atno 10718 bound_to 10713
  154.8741  135.3792  154.4439 H   0  0  0  0  0  0  0  0  0  0  0  0  # atno 10763 bound_to 10752
  153.5121  135.7029  153.5780 H   0  0  0  0  0  0  0  0  0  0  0  0  # atno 10764 bound_to 10752
  153.4065  135.3935  155.1988 H   0  0  0  0  0  0  0  0  0  0  0  0  # atno 10765 bound_to 10752
  139.9124  134.9624  156.7565 H   0  0  0  0  0  0  0  0  0  0  0  0  # atno 11005 bound_to 11000
  145.6915  139.1640  143.2644 LP  0  0  0  0  0  0  0  0  0  0  0  0  # atno 17320 bound_to 7965
  146.1479  140.6966  142.9336 LP  0  0  0  0  0  0  0  0  0  0  0  0  # atno 17321 bound_to 7965
  139.9166  144.6825  150.8505 LP  0  0  0  0  0  0  0  0  0  0  0  0  # atno 17342 bound_to 10162
  140.7697  143.3405  151.2219 LP  0  0  0  0  0  0  0  0  0  0  0  0  # atno 17343 bound_to 10162
  157.6501  130.8877  149.9616 LP  0  0  0  0  0  0  0  0  0  0  0  0  # atno 17370 bound_to 10713
  156.1039  130.3654  150.0169 LP  0  0  0  0  0  0  0  0  0  0  0  0  # atno 17371 bound_to 10713
  140.6732  133.9541  155.7868 LP  0  0  0  0  0  0  0  0  0  0  0  0  # atno 17394 bound_to 11000
  141.0563  134.0412  157.3718 LP  0  0  0  0  0  0  0  0  0  0  0  0  # atno 17395 bound_to 11000

$$$$
