AV-unprocessed.smi:1006|AV-procd|sdf|4391|dock5
  -GOLD-   22720 2323D 1   1.00000     0.00000
 Structure written by MMmdl.
 45 47  0  0  0  0  0  0  0  0  1 V2000
  145.7268  143.3472  160.8452 C   0  0  0  0  0  0  0  0  0  0  0  0
  145.9028  143.0849  159.3643 C   0  0  0  0  0  0  0  0  0  0  0  0
  145.2414  143.8673  158.3937 C   0  0  0  0  0  0  0  0  0  0  0  0
  145.4871  143.5275  157.0465 C   0  0  0  0  0  0  0  0  0  0  0  0
  144.8835  144.2368  156.0112 N   0  0  0  0  0  0  0  0  0  0  0  0
  146.3089  142.5112  156.7062 N   0  0  0  0  0  0  0  0  0  0  0  0
  146.8799  141.8427  157.7111 C   0  0  0  0  0  0  0  0  0  0  0  0
  147.9543  140.5011  157.2218 S   0  0  0  0  0  0  0  0  0  0  0  0
  147.9972  140.6773  155.4115 C   0  0  0  0  0  0  0  0  0  0  0  0
  149.4287  140.7879  154.8551 C   0  0  1  0  0  0  0  0  0  0  0  0
  149.3741  141.1466  153.4893 O   0  0  0  0  0  0  0  0  0  0  0  0
  150.2922  141.8376  155.5843 C   0  0  0  0  0  0  0  0  0  0  0  0
  151.2165  141.2446  156.5344 N   0  0  0  0  0  0  0  0  0  0  0  0
  151.8368  140.0544  156.4254 C   0  0  0  0  0  0  0  0  0  0  0  0
  152.6398  139.6928  157.4221 N   0  0  0  0  0  0  0  0  0  0  0  0
  152.5269  140.7747  158.2785 C   0  0  0  0  0  0  0  0  0  0  0  0
  153.1248  141.0165  159.5348 C   0  0  0  0  0  0  0  0  0  0  0  0
  152.8567  142.2063  160.2486 C   0  0  0  0  0  0  0  0  0  0  0  0
  153.5200  142.4240  161.5972 C   0  0  0  0  0  0  0  0  0  0  0  0
  151.9777  143.1777  159.7059 C   0  0  0  0  0  0  0  0  0  0  0  0
  151.6700  144.4613  160.4561 C   0  0  0  0  0  0  0  0  0  0  0  0
  151.3755  142.9540  158.4504 C   0  0  0  0  0  0  0  0  0  0  0  0
  151.6481  141.7650  157.7506 C   0  0  0  0  0  0  0  0  0  0  0  0
  146.7261  142.0715  159.0192 N   0  0  0  0  0  0  0  0  0  0  0  0
  146.4245  144.1162  161.1765 H   0  0  0  0  0  0  0  0  0  0  0  0
  145.9093  142.4433  161.4277 H   0  0  0  0  0  0  0  0  0  0  0  0
  144.7133  143.6874  161.0584 H   0  0  0  0  0  0  0  0  0  0  0  0
  144.5847  144.6799  158.6685 H   0  0  0  0  0  0  0  0  0  0  0  0
  144.2578  145.0082  156.1920 H   0  0  0  0  0  0  0  0  0  0  0  0
  145.0531  143.9992  155.0446 H   0  0  0  0  0  0  0  0  0  0  0  0
  147.4815  139.8311  154.9556 H   0  0  0  0  0  0  0  0  0  0  0  0
  147.4338  141.5758  155.1611 H   0  0  0  0  0  0  0  0  0  0  0  0
  149.9148  139.8142  154.9272 H   0  0  0  0  0  0  0  0  0  0  0  0
  149.4197  140.3569  152.9717 H   0  0  0  0  0  0  0  0  0  0  0  0
  150.8671  142.4209  154.8637 H   0  0  0  0  0  0  0  0  0  0  0  0
  149.6579  142.5451  156.1198 H   0  0  0  0  0  0  0  0  0  0  0  0
  151.6863  139.4154  155.5674 H   0  0  0  0  0  0  0  0  0  0  0  0
  153.7920  140.2750  159.9490 H   0  0  0  0  0  0  0  0  0  0  0  0
  154.1004  143.3471  161.5941 H   0  0  0  0  0  0  0  0  0  0  0  0
  154.1968  141.6056  161.8451 H   0  0  0  0  0  0  0  0  0  0  0  0
  152.7690  142.4888  162.3848 H   0  0  0  0  0  0  0  0  0  0  0  0
  150.9260  145.0602  159.9301 H   0  0  0  0  0  0  0  0  0  0  0  0
  152.5719  145.0640  160.5645 H   0  0  0  0  0  0  0  0  0  0  0  0
  151.2781  144.2414  161.4493 H   0  0  0  0  0  0  0  0  0  0  0  0
  150.7018  143.6841  158.0270 H   0  0  0  0  0  0  0  0  0  0  0  0
  1  2  1  0  0  0  0
  1 25  1  0  0  0  0
  1 26  1  0  0  0  0
  1 27  1  0  0  0  0
  2 24  1  0  0  0  0
  2  3  2  0  0  0  0
  3  4  1  0  0  0  0
  3 28  1  0  0  0  0
  4  5  1  0  0  0  0
  4  6  2  0  0  0  0
  5 29  1  0  0  0  0
  5 30  1  0  0  0  0
  6  7  1  0  0  0  0
  7  8  1  0  0  0  0
  7 24  2  0  0  0  0
  8  9  1  0  0  0  0
  9 10  1  0  0  0  0
  9 31  1  0  0  0  0
  9 32  1  0  0  0  0
 10 11  1  0  0  0  0
 10 12  1  0  0  0  0
 10 33  1  0  0  0  0
 11 34  1  0  0  0  0
 12 13  1  0  0  0  0
 12 35  1  0  0  0  0
 12 36  1  0  0  0  0
 13 23  1  0  0  0  0
 13 14  1  0  0  0  0
 14 15  2  0  0  0  0
 14 37  1  0  0  0  0
 15 16  1  0  0  0  0
 16 23  2  0  0  0  0
 16 17  1  0  0  0  0
 17 18  2  0  0  0  0
 17 38  1  0  0  0  0
 18 19  1  0  0  0  0
 18 20  1  0  0  0  0
 19 39  1  0  0  0  0
 19 40  1  0  0  0  0
 19 41  1  0  0  0  0
 20 21  1  0  0  0  0
 20 22  2  0  0  0  0
 21 42  1  0  0  0  0
 21 43  1  0  0  0  0
 21 44  1  0  0  0  0
 22 23  1  0  0  0  0
 22 45  1  0  0  0  0
M  END
> <s_m_source_file>
AV-unprocessed.smi

> <i_m_source_file_index>
1006

> <i_lp_mmshare_version>
43012

> <i_f3d_flags>
0

> <s_epik_input>
W0NIM11jMVtjSF1jKFtOSDJdKW5jKG4xKVNbQ0gyXVtDQEhdKFtPSF0pW0NIMl1uKFtjSF1uMiljKGMyMylbY0hdYyhbQ0gzXSljKFtjSF0zKVtDSDNd

> <s_epik_cmdline>
J2VwaWtfcHl0aG9uJywgJy1waCcsICc3LjAnLCAnLXRuJywgJzgnLCAnLW1hJywgJzIwMCcsICctbWV0YWxfYmluZGluZycsICctaW1hZScsICc8aW5maWxlLm1hZT4nLCAnLW9tYWUnLCAnPG91dGZpbGUubWFlPic=

> <r_lp_tautomer_probability>
1

> <r_epik_Ionization_Penalty>
0.490208

> <r_epik_Ionization_Penalty_Charging>
0

> <r_epik_Ionization_Penalty_Neutral>
0.490208

> <r_epik_State_Penalty>
0.473203

> <r_epik_Charging_Adjusted_Penalty>
0.473203

> <i_epik_Tot_Q>
0

> <i_epik_Tot_abs_Q>
0

> <r_epik_Metal_State_Penalty>
0.354099

> <b_epik_Metal_Only>
0

> <s_lp_Force_Field>
OPLS_2005

> <r_lp_Energy>
2.6746

> <b_lp_Chiralities_Consistent>
1

> <s_lp_Variant>
AV-unprocessed.smi:1006-2

> <Gold.Version>
5.8.1

> <Gold.Id.Protein>
6NUR|6NUR_protein|mol2

> <Gold.PLP.Fitness>
52.6245

> <Gold.PLP.PLP>
-44.8496

> <Gold.PLP.part.hbond>
-5.0000

> <Gold.PLP.part.metal>
0.0000

> <Gold.PLP.part.buried>
-6.0426

> <Gold.PLP.part.nonpolar>
-33.3843

> <Gold.PLP.part.repulsive>
0.1608

> <Gold.PLP.ligand.clash>
0.0000

> <Gold.PLP.ligand.torsion>
1.4152

> <Gold.PLP.Chemscore.Hbond>
3.5200

> <Gold.PLP.Chemscore.CHOScore>
0.0000

> <Gold.PLP.Chemscore.Metal>
0.0000

> <Gold.Chemscore.Hbonds>
donor molecule, donor type, donor heavy atom, donor atom, acceptor molecule, acceptor atom, score
      L1  H    11    34       P1  7957  0.66
      P1  H  6934  6946       L1    24  0.70
      P1  H  7997  8008       L1    15  0.95
      P1  H  8011  8017       L1    11  1.00

> <Gold.PLP.Chemscore.Internal.Correction>
0.0453

> <Gold.Rescore>
     Score         DG    S(hbond)    S(metal)    S(lipo)     H(rot)  DE(clash)    DE(int)     intcor
     14.88     -16.34       1.73        0.00     105.07       2.82       0.05       1.41       ----

> <Gold.Chemscore.Fitness>
14.8787

> <Gold.Chemscore.DG>
-16.3370

> <Gold.Chemscore.ZeroCoef>
-5.4800

> <Gold.Chemscore.Hbond>
1.7321

> <Gold.Chemscore.Metal>
0.0000

> <Gold.Chemscore.Lipo>
105.0700

> <Gold.Chemscore.Internal_Hbond>
0.0000

> <Gold.Chemscore.DEClash>
0.0498

> <Gold.Chemscore.DEInternal>
1.4085

> <Gold.Chemscore.Rot>
2.8209

> <Gold.Chemscore.Internal.Correction>
   9.000000E+99

> <Gold.Chemscore.Hbonds>
donor molecule, donor type, donor heavy atom, donor atom, acceptor molecule, acceptor atom, score
      L1  H    11    34       P1  7957  0.66
      P1  H  6934  6946       L1    24  0.41
      P1  H  7997  8008       L1    15  0.06
      P1  H  8011  8017       L1    11  0.38

> <Gold.Chemscore.Hbond.Weighted>
-5.7853

> <Gold.Chemscore.Metal.Weighted>
-0.0000

> <Gold.Chemscore.Lipo.Weighted>
-12.2932

> <Gold.Chemscore.Internal_Hbond.Weighted>
0.0000

> <Gold.Chemscore.DEClash.Weighted>
0.0498

> <Gold.Chemscore.DEInternal.Weighted>
1.4085

> <Gold.Chemscore.Rot.Weighted>
7.2215

> <Gold.Chemscore.Internal.Correction.Weighted>
   9.000000E+99

> <Gold.Protein.RotatedTorsions>
[ 6907 6896 6895 6894 ] final   87.79 input  -60.11 | X-H torsion
[ 7974 7965 7964 7962 ] final  -95.99 input  175.53 | X-H torsion
[ 8008 7997 7996 7995 ] final  -60.39 input   59.86 | X-H torsion
[ 10167 10162 10161 10158 ] final -177.72 input  -65.29 | X-H torsion
[ 10718 10713 10712 10709 ] final  -56.18 input   66.30 | X-H torsion
[ 10763 10752 10751 10750 ] final  151.89 input  -60.55 | X-H torsion
[ 11005 11000 10999 10996 ] final  -28.19 input  -57.11 | X-H torsion

> <Gold.Protein.ActiveResidues>
 VAL166  LYS551  ARG553  GLY616  TRP617  ASP618  TYR619  PRO620  LYS621  CYS622 
 ASP623  PHE694  ASN695  SER759  ASP760  ASP761  ALA762  ILE779  LEU786  VAL792 
 PHE793  MET794  SER795  GLU796  ALA797  LYS798  CYS799  TRP800  GLU811  SER814 

> <Gold.Protein.RotatedAtoms>
  152.5416  134.2221  159.8791 H   0  0  0  0  0  0  0  0  0  0  0  0  # atno 6907 bound_to 6896
  151.2198  133.4502  159.2608 H   0  0  0  0  0  0  0  0  0  0  0  0  # atno 6908 bound_to 6896
  151.0817  134.9875  159.8415 H   0  0  0  0  0  0  0  0  0  0  0  0  # atno 6909 bound_to 6896
  145.3528  140.9479  143.2544 H   0  0  0  0  0  0  0  0  0  0  0  0  # atno 7974 bound_to 7965
  154.4396  140.1040  156.6266 H   0  0  0  0  0  0  0  0  0  0  0  0  # atno 8008 bound_to 7997
  155.5650  140.3488  155.4482 H   0  0  0  0  0  0  0  0  0  0  0  0  # atno 8009 bound_to 7997
  156.0431  140.1286  157.0122 H   0  0  0  0  0  0  0  0  0  0  0  0  # atno 8010 bound_to 7997
  139.5466  144.2218  152.1000 H   0  0  0  0  0  0  0  0  0  0  0  0  # atno 10167 bound_to 10162
  156.1309  130.4159  150.0270 H   0  0  0  0  0  0  0  0  0  0  0  0  # atno 10718 bound_to 10713
  154.1111  135.2839  155.3230 H   0  0  0  0  0  0  0  0  0  0  0  0  # atno 10763 bound_to 10752
  154.6489  135.5376  153.7881 H   0  0  0  0  0  0  0  0  0  0  0  0  # atno 10764 bound_to 10752
  153.0345  135.6505  154.1270 H   0  0  0  0  0  0  0  0  0  0  0  0  # atno 10765 bound_to 10752
  140.9187  133.7413  156.0770 H   0  0  0  0  0  0  0  0  0  0  0  0  # atno 11005 bound_to 11000
  144.8705  139.5046  143.6770 LP  0  0  0  0  0  0  0  0  0  0  0  0  # atno 17320 bound_to 7965
  146.2960  139.7281  142.9126 LP  0  0  0  0  0  0  0  0  0  0  0  0  # atno 17321 bound_to 7965
  140.1706  144.4939  150.6582 LP  0  0  0  0  0  0  0  0  0  0  0  0  # atno 17342 bound_to 10162
  140.6717  143.2288  151.5609 LP  0  0  0  0  0  0  0  0  0  0  0  0  # atno 17343 bound_to 10162
  156.8182  130.9349  151.3642 LP  0  0  0  0  0  0  0  0  0  0  0  0  # atno 17370 bound_to 10713
  157.6487  130.8866  149.9590 LP  0  0  0  0  0  0  0  0  0  0  0  0  # atno 17371 bound_to 10713
  140.8016  134.3502  157.5437 LP  0  0  0  0  0  0  0  0  0  0  0  0  # atno 17394 bound_to 11000
  139.8771  134.9201  156.3243 LP  0  0  0  0  0  0  0  0  0  0  0  0  # atno 17395 bound_to 11000

$$$$
