AV-unprocessed.smi:569|AV-procd|sdf|2959|dock1
  -GOLD-   2262023463D 1   1.00000     0.00000
 Structure written by MMmdl.
 37 38  0  0  0  0  0  0  0  0  1 V2000
  146.1733  142.7968  158.6435 C   0  0  0  0  0  0  0  0  0  0  0  0
  146.2634  142.4099  157.2072 C   0  0  0  0  0  0  0  0  0  0  0  0
  147.4205  142.2432  156.5624 N   0  0  0  0  0  0  0  0  0  0  0  0
  147.2446  141.8783  155.2230 C   0  0  0  0  0  0  0  0  0  0  0  0
  148.4412  141.6365  154.3475 C   0  0  0  0  0  0  0  0  0  0  0  0
  149.6904  141.3970  155.1987 C   0  0  0  0  0  0  0  0  0  0  0  0
  150.3011  140.3321  155.1090 O   0  0  0  0  0  0  0  0  0  0  0  0
  150.0617  142.3967  156.0145 N   0  0  0  0  0  0  0  0  0  0  0  0
  151.1944  142.3658  156.9334 C   0  0  2  0  0  0  0  0  0  0  0  0
  151.0122  141.2096  157.9328 C   0  0  0  0  0  0  0  0  0  0  0  0
  152.1532  141.1712  158.9619 C   0  0  0  0  0  0  0  0  0  0  0  0
  152.2877  142.5119  159.7090 C   0  0  1  0  0  0  0  0  0  0  0  0
  153.4312  142.4711  160.7327 C   0  0  0  0  0  0  0  0  0  0  0  0
  152.4685  143.6689  158.7073 C   0  0  0  0  0  0  0  0  0  0  0  0
  151.3299  143.7102  157.6749 C   0  0  0  0  0  0  0  0  0  0  0  0
  145.9238  141.7806  154.8599 C   0  0  0  0  0  0  0  0  0  0  0  0
  144.8551  142.1322  156.1899 S   0  0  0  0  0  0  0  0  0  0  0  0
  146.9223  142.2608  159.2269 H   0  0  0  0  0  0  0  0  0  0  0  0
  145.1864  142.5562  159.0388 H   0  0  0  0  0  0  0  0  0  0  0  0
  146.3430  143.8681  158.7516 H   0  0  0  0  0  0  0  0  0  0  0  0
  148.2715  140.7733  153.7026 H   0  0  0  0  0  0  0  0  0  0  0  0
  148.6211  142.4846  153.6857 H   0  0  0  0  0  0  0  0  0  0  0  0
  149.4990  143.2354  156.0153 H   0  0  0  0  0  0  0  0  0  0  0  0
  152.1094  142.1813  156.3671 H   0  0  0  0  0  0  0  0  0  0  0  0
  150.0596  141.3161  158.4538 H   0  0  0  0  0  0  0  0  0  0  0  0
  150.9678  140.2590  157.3997 H   0  0  0  0  0  0  0  0  0  0  0  0
  151.9750  140.3638  159.6728 H   0  0  0  0  0  0  0  0  0  0  0  0
  153.0901  140.9348  158.4553 H   0  0  0  0  0  0  0  0  0  0  0  0
  151.3612  142.6847  160.2589 H   0  0  0  0  0  0  0  0  0  0  0  0
  154.3916  142.2942  160.2474 H   0  0  0  0  0  0  0  0  0  0  0  0
  153.2759  141.6769  161.4636 H   0  0  0  0  0  0  0  0  0  0  0  0
  153.5028  143.4117  161.2794 H   0  0  0  0  0  0  0  0  0  0  0  0
  152.5114  144.6197  159.2397 H   0  0  0  0  0  0  0  0  0  0  0  0
  153.4226  143.5626  158.1892 H   0  0  0  0  0  0  0  0  0  0  0  0
  151.5126  144.5161  156.9632 H   0  0  0  0  0  0  0  0  0  0  0  0
  150.3928  143.9507  158.1792 H   0  0  0  0  0  0  0  0  0  0  0  0
  145.5173  141.5178  153.8944 H   0  0  0  0  0  0  0  0  0  0  0  0
  1  2  1  0  0  0  0
  1 18  1  0  0  0  0
  1 19  1  0  0  0  0
  1 20  1  0  0  0  0
  2 17  1  0  0  0  0
  2  3  2  0  0  0  0
  3  4  1  0  0  0  0
  4  5  1  0  0  0  0
  4 16  2  0  0  0  0
  5  6  1  0  0  0  0
  5 21  1  0  0  0  0
  5 22  1  0  0  0  0
  6  7  2  0  0  0  0
  6  8  1  0  0  0  0
  8  9  1  0  0  0  0
  8 23  1  0  0  0  0
  9 15  1  0  0  0  0
  9 10  1  0  0  0  0
  9 24  1  0  0  0  0
 10 11  1  0  0  0  0
 10 25  1  0  0  0  0
 10 26  1  0  0  0  0
 11 12  1  0  0  0  0
 11 27  1  0  0  0  0
 11 28  1  0  0  0  0
 12 13  1  0  0  0  0
 12 14  1  0  0  0  0
 12 29  1  0  0  0  0
 13 30  1  0  0  0  0
 13 31  1  0  0  0  0
 13 32  1  0  0  0  0
 14 15  1  0  0  0  0
 14 33  1  0  0  0  0
 14 34  1  0  0  0  0
 15 35  1  0  0  0  0
 15 36  1  0  0  0  0
 16 17  1  0  0  0  0
 16 37  1  0  0  0  0
M  END
> <s_m_source_file>
AV-unprocessed.smi

> <i_m_source_file_index>
569

> <i_lp_mmshare_version>
43012

> <i_f3d_flags>
0

> <s_epik_input>
W0NIM11jMW5jKFtjSF1zMSlbQ0gyXUMoPU8pW05IXVtDQEBIXTJbQ0gyXVtDSDJdW0NAQEhdKFtDSDNdKVtDSDJdW0NIMl0y

> <s_epik_cmdline>
J2VwaWtfcHl0aG9uJywgJy1waCcsICc3LjAnLCAnLXRuJywgJzgnLCAnLW1hJywgJzIwMCcsICctbWV0YWxfYmluZGluZycsICctaW1hZScsICc8aW5maWxlLm1hZT4nLCAnLW9tYWUnLCAnPG91dGZpbGUubWFlPic=

> <r_lp_tautomer_probability>
1

> <r_epik_Ionization_Penalty>
6.63234e-05

> <r_epik_Ionization_Penalty_Charging>
0

> <r_epik_Ionization_Penalty_Neutral>
6.63234e-05

> <r_epik_State_Penalty>
-0

> <r_epik_Charging_Adjusted_Penalty>
0

> <i_epik_Tot_Q>
0

> <i_epik_Tot_abs_Q>
0

> <r_epik_Metal_State_Penalty>
-0

> <b_epik_Metal_Only>
0

> <s_lp_Force_Field>
OPLS_2005

> <r_lp_Energy>
6.98926

> <b_lp_Chiralities_Consistent>
1

> <s_lp_Variant>
AV-unprocessed.smi:569-1

> <Gold.Version>
5.8.1

> <Gold.Id.Protein>
6NUR|6NUR_protein|mol2

> <Gold.PLP.Fitness>
44.0639

> <Gold.PLP.PLP>
-35.5679

> <Gold.PLP.part.hbond>
-2.0000

> <Gold.PLP.part.metal>
0.0000

> <Gold.PLP.part.buried>
-4.0175

> <Gold.PLP.part.nonpolar>
-30.6811

> <Gold.PLP.part.repulsive>
1.2064

> <Gold.PLP.ligand.clash>
0.0000

> <Gold.PLP.ligand.torsion>
0.2557

> <Gold.PLP.Chemscore.Hbond>
2.0000

> <Gold.PLP.Chemscore.CHOScore>
0.9983

> <Gold.PLP.Chemscore.Metal>
0.0000

> <Gold.Chemscore.Hbonds>
donor molecule, donor type, donor heavy atom, donor atom, acceptor molecule, acceptor atom, score
      L1  H     8    23       P1  8028  1.00
      P1  H  7989  7998       L1     7  0.61
      L1  C    16    37       P1 10175  1.00

> <Gold.PLP.Chemscore.Internal.Correction>
0.0125

> <Gold.Rescore>
     Score         DG    S(hbond)    S(metal)    S(lipo)     H(rot)  DE(clash)    DE(int)     intcor
     16.69     -16.76       1.01        0.00      95.29       1.26       0.02       0.04       ----

> <Gold.Chemscore.Fitness>
16.6912

> <Gold.Chemscore.DG>
-16.7576

> <Gold.Chemscore.ZeroCoef>
-5.4800

> <Gold.Chemscore.Hbond>
1.0058

> <Gold.Chemscore.Metal>
0.0000

> <Gold.Chemscore.Lipo>
95.2882

> <Gold.Chemscore.Internal_Hbond>
0.0000

> <Gold.Chemscore.DEClash>
0.0215

> <Gold.Chemscore.DEInternal>
0.0450

> <Gold.Chemscore.Rot>
1.2620

> <Gold.Chemscore.Internal.Correction>
   9.000000E+99

> <Gold.Chemscore.Hbonds>
donor molecule, donor type, donor heavy atom, donor atom, acceptor molecule, acceptor atom, score
      L1  H     8    23       P1  8028  1.00
      P1  H  7989  7998       L1     7  0.12

> <Gold.Chemscore.Hbond.Weighted>
-3.3595

> <Gold.Chemscore.Metal.Weighted>
-0.0000

> <Gold.Chemscore.Lipo.Weighted>
-11.1487

> <Gold.Chemscore.Internal_Hbond.Weighted>
0.0000

> <Gold.Chemscore.DEClash.Weighted>
0.0215

> <Gold.Chemscore.DEInternal.Weighted>
0.0450

> <Gold.Chemscore.Rot.Weighted>
3.2306

> <Gold.Chemscore.Internal.Correction.Weighted>
   9.000000E+99

> <Gold.Protein.RotatedTorsions>
[ 6907 6896 6895 6894 ] final   64.02 input  -60.11 | X-H torsion
[ 7974 7965 7964 7962 ] final  -88.03 input  175.53 | X-H torsion
[ 8008 7997 7996 7995 ] final -106.85 input   59.86 | X-H torsion
[ 10167 10162 10161 10158 ] final  -92.53 input  -65.29 | X-H torsion
[ 10718 10713 10712 10709 ] final   -5.00 input   66.30 | X-H torsion
[ 10763 10752 10751 10750 ] final  -54.99 input  -60.55 | X-H torsion
[ 11005 11000 10999 10996 ] final  -57.66 input  -57.11 | X-H torsion

> <Gold.Protein.ActiveResidues>
 VAL166  LYS551  ARG553  GLY616  TRP617  ASP618  TYR619  PRO620  LYS621  CYS622 
 ASP623  PHE694  ASN695  SER759  ASP760  ASP761  ALA762  ILE779  LEU786  VAL792 
 PHE793  MET794  SER795  GLU796  ALA797  LYS798  CYS799  TRP800  GLU811  SER814 

> <Gold.Protein.RotatedAtoms>
  152.4299  134.5797  159.9944 H   0  0  0  0  0  0  0  0  0  0  0  0  # atno 6907 bound_to 6896
  151.5923  133.3359  159.3038 H   0  0  0  0  0  0  0  0  0  0  0  0  # atno 6908 bound_to 6896
  150.8191  134.7425  159.6821 H   0  0  0  0  0  0  0  0  0  0  0  0  # atno 6909 bound_to 6896
  145.4586  140.9561  143.1982 H   0  0  0  0  0  0  0  0  0  0  0  0  # atno 7974 bound_to 7965
  154.9206  140.0407  157.1995 H   0  0  0  0  0  0  0  0  0  0  0  0  # atno 8008 bound_to 7997
  154.8258  140.2891  155.5734 H   0  0  0  0  0  0  0  0  0  0  0  0  # atno 8009 bound_to 7997
  156.2983  140.2510  156.3174 H   0  0  0  0  0  0  0  0  0  0  0  0  # atno 8010 bound_to 7997
  140.3338  143.2980  151.9912 H   0  0  0  0  0  0  0  0  0  0  0  0  # atno 10167 bound_to 10162
  156.7530  130.5245  149.5800 H   0  0  0  0  0  0  0  0  0  0  0  0  # atno 10718 bound_to 10713
  154.1837  135.6439  153.5041 H   0  0  0  0  0  0  0  0  0  0  0  0  # atno 10763 bound_to 10752
  153.0052  135.5412  154.6487 H   0  0  0  0  0  0  0  0  0  0  0  0  # atno 10764 bound_to 10752
  154.5858  135.2929  155.0659 H   0  0  0  0  0  0  0  0  0  0  0  0  # atno 10765 bound_to 10752
  141.1174  133.6610  156.4803 H   0  0  0  0  0  0  0  0  0  0  0  0  # atno 11005 bound_to 11000
  144.8017  139.6129  143.7069 LP  0  0  0  0  0  0  0  0  0  0  0  0  # atno 17320 bound_to 7965
  146.2464  139.6107  142.9457 LP  0  0  0  0  0  0  0  0  0  0  0  0  # atno 17321 bound_to 7965
  139.4852  144.6213  151.7250 LP  0  0  0  0  0  0  0  0  0  0  0  0  # atno 17342 bound_to 10162
  140.5372  144.0637  150.6075 LP  0  0  0  0  0  0  0  0  0  0  0  0  # atno 17343 bound_to 10162
  156.1389  130.6230  151.0439 LP  0  0  0  0  0  0  0  0  0  0  0  0  # atno 17370 bound_to 10713
  157.6769  131.0848  150.7472 LP  0  0  0  0  0  0  0  0  0  0  0  0  # atno 17371 bound_to 10713
  140.4606  134.6844  157.5084 LP  0  0  0  0  0  0  0  0  0  0  0  0  # atno 17394 bound_to 11000
  140.0106  134.6697  155.9387 LP  0  0  0  0  0  0  0  0  0  0  0  0  # atno 17395 bound_to 11000

$$$$
