AV-unprocessed.smi:1324|AV-procd|sdf|5470|dock7
  -GOLD-   22720 5 43D 1   1.00000     0.00000
 Structure written by MMmdl.
 43 44  0  0  0  0  0  0  0  0  1 V2000
  146.9581  139.1007  152.9550 C   0  0  0  0  0  0  0  0  0  0  0  0
  148.0994  138.8013  153.9029 C   0  0  0  0  0  0  0  0  0  0  0  0
  149.3493  139.0753  153.3727 N   0  0  0  0  0  0  0  0  0  0  0  0
  150.4558  138.8421  154.1701 C   0  0  0  0  0  0  0  0  0  0  0  0
  151.7858  139.1734  153.5163 C   0  0  0  0  0  0  0  0  0  0  0  0
  150.3240  138.3524  155.4290 C   0  0  0  0  0  0  0  0  0  0  0  0
  151.5192  138.0790  156.3423 C   0  0  0  0  0  0  0  0  0  0  0  0
  152.2215  139.3060  156.9303 C   0  0  0  0  0  0  0  0  0  0  0  0
  153.4506  139.3664  156.9755 O   0  0  0  0  0  0  0  0  0  0  0  0
  151.4175  140.2812  157.3814 N   0  0  0  0  0  0  0  0  0  0  0  0
  151.8589  141.5386  157.9815 C   0  0  0  0  0  0  0  0  0  0  0  0
  152.4321  141.2528  159.3891 C   0  0  0  0  0  0  0  0  0  0  0  0
  152.5863  142.4509  160.3432 C   0  0  0  0  0  0  0  0  0  0  0  0
  153.0021  143.7775  159.6893 C   0  0  0  0  0  0  0  0  0  0  0  0
  151.8000  144.5754  159.1579 C   0  0  0  0  0  0  0  0  0  0  0  0
  151.1751  144.0154  157.8723 C   0  0  0  0  0  0  0  0  0  0  0  0
  150.6977  142.5537  157.9547 C   0  0  0  0  0  0  0  0  0  0  0  0
  148.9614  138.0629  155.9349 C   0  0  0  0  0  0  0  0  0  0  0  0
  148.7775  137.5967  157.0586 O   0  0  0  0  0  0  0  0  0  0  0  0
  147.8710  138.3299  155.0909 N   0  0  0  0  0  0  0  0  0  0  0  0
  149.4926  139.4387  152.4414 H   0  0  0  0  0  0  0  0  0  0  0  0
  145.9985  139.0449  153.4706 H   0  0  0  0  0  0  0  0  0  0  0  0
  146.9484  138.3808  152.1361 H   0  0  0  0  0  0  0  0  0  0  0  0
  147.0603  140.1026  152.5367 H   0  0  0  0  0  0  0  0  0  0  0  0
  152.2935  139.9660  154.0661 H   0  0  0  0  0  0  0  0  0  0  0  0
  151.6553  139.5110  152.4873 H   0  0  0  0  0  0  0  0  0  0  0  0
  152.4311  138.2947  153.5002 H   0  0  0  0  0  0  0  0  0  0  0  0
  152.2587  137.4683  155.8230 H   0  0  0  0  0  0  0  0  0  0  0  0
  151.1851  137.4602  157.1752 H   0  0  0  0  0  0  0  0  0  0  0  0
  150.4203  140.1424  157.3049 H   0  0  0  0  0  0  0  0  0  0  0  0
  152.6594  141.9385  157.3561 H   0  0  0  0  0  0  0  0  0  0  0  0
  151.8158  140.5070  159.8933 H   0  0  0  0  0  0  0  0  0  0  0  0
  153.4090  140.7835  159.2651 H   0  0  0  0  0  0  0  0  0  0  0  0
  151.6566  142.5967  160.8947 H   0  0  0  0  0  0  0  0  0  0  0  0
  153.3251  142.1818  161.0988 H   0  0  0  0  0  0  0  0  0  0  0  0
  153.4911  144.3872  160.4497 H   0  0  0  0  0  0  0  0  0  0  0  0
  153.7485  143.6171  158.9103 H   0  0  0  0  0  0  0  0  0  0  0  0
  151.0372  144.6548  159.9333 H   0  0  0  0  0  0  0  0  0  0  0  0
  152.1228  145.5979  158.9594 H   0  0  0  0  0  0  0  0  0  0  0  0
  150.3230  144.6434  157.6105 H   0  0  0  0  0  0  0  0  0  0  0  0
  151.8799  144.1236  157.0471 H   0  0  0  0  0  0  0  0  0  0  0  0
  150.0893  142.3713  157.0675 H   0  0  0  0  0  0  0  0  0  0  0  0
  150.0312  142.4069  158.8053 H   0  0  0  0  0  0  0  0  0  0  0  0
  1 22  1  0  0  0  0
  1 23  1  0  0  0  0
  1 24  1  0  0  0  0
  1  2  1  0  0  0  0
  2  3  1  0  0  0  0
  2 20  2  0  0  0  0
  3  4  1  0  0  0  0
  3 21  1  0  0  0  0
  4  6  2  0  0  0  0
  4  5  1  0  0  0  0
  5 25  1  0  0  0  0
  5 26  1  0  0  0  0
  5 27  1  0  0  0  0
  6 18  1  0  0  0  0
  6  7  1  0  0  0  0
  7  8  1  0  0  0  0
  7 28  1  0  0  0  0
  7 29  1  0  0  0  0
  8  9  2  0  0  0  0
  8 10  1  0  0  0  0
 10 11  1  0  0  0  0
 10 30  1  0  0  0  0
 11 17  1  0  0  0  0
 11 12  1  0  0  0  0
 11 31  1  0  0  0  0
 12 13  1  0  0  0  0
 12 32  1  0  0  0  0
 12 33  1  0  0  0  0
 13 14  1  0  0  0  0
 13 34  1  0  0  0  0
 13 35  1  0  0  0  0
 14 15  1  0  0  0  0
 14 36  1  0  0  0  0
 14 37  1  0  0  0  0
 15 16  1  0  0  0  0
 15 38  1  0  0  0  0
 15 39  1  0  0  0  0
 16 17  1  0  0  0  0
 16 40  1  0  0  0  0
 16 41  1  0  0  0  0
 17 42  1  0  0  0  0
 17 43  1  0  0  0  0
 18 19  2  0  0  0  0
 18 20  1  0  0  0  0
M  END
> <s_m_source_file>
AV-unprocessed.smi

> <i_m_source_file_index>
1324

> <i_lp_mmshare_version>
43012

> <i_f3d_flags>
0

> <s_epik_input>
W0NIM11jMW5jKFtDSDNdKWMoYyg9TylbbkhdMSlbQ0gyXUMoPU8pW05IXVtDSF0yW0NIMl1bQ0gyXVtDSDJdW0NIMl1bQ0gyXVtDSDJdMg==

> <s_epik_cmdline>
J2VwaWtfcHl0aG9uJywgJy1waCcsICc3LjAnLCAnLXRuJywgJzgnLCAnLW1hJywgJzIwMCcsICctbWV0YWxfYmluZGluZycsICctaW1hZScsICc8aW5maWxlLm1hZT4nLCAnLW9tYWUnLCAnPG91dGZpbGUubWFlPic=

> <r_lp_tautomer_probability>
0.156392

> <r_epik_Ionization_Penalty>
0.0140222

> <r_epik_Ionization_Penalty_Charging>
0.0138986

> <r_epik_Ionization_Penalty_Neutral>
0.000123575

> <r_epik_State_Penalty>
1.53084

> <r_epik_Charging_Adjusted_Penalty>
1.54474

> <i_epik_Tot_Q>
0

> <i_epik_Tot_abs_Q>
0

> <r_epik_Metal_State_Penalty>
1.70646

> <b_epik_Metal_Only>
0

> <s_lp_Force_Field>
OPLS_2005

> <r_lp_Energy>
20.3035

> <b_lp_Chiralities_Consistent>
1

> <s_lp_Variant>
AV-unprocessed.smi:1324-2

> <Gold.Version>
5.8.1

> <Gold.Id.Protein>
6NUR|6NUR_protein|mol2

> <Gold.PLP.Fitness>
40.1265

> <Gold.PLP.PLP>
-35.4950

> <Gold.PLP.part.hbond>
-3.0000

> <Gold.PLP.part.metal>
0.0000

> <Gold.PLP.part.buried>
-4.5623

> <Gold.PLP.part.nonpolar>
-28.3418

> <Gold.PLP.part.repulsive>
0.1784

> <Gold.PLP.ligand.clash>
0.0000

> <Gold.PLP.ligand.torsion>
0.5618

> <Gold.PLP.Chemscore.Hbond>
1.9120

> <Gold.PLP.Chemscore.CHOScore>
0.0000

> <Gold.PLP.Chemscore.Metal>
0.0000

> <Gold.Chemscore.Hbonds>
donor molecule, donor type, donor heavy atom, donor atom, acceptor molecule, acceptor atom, score
      L1  H     3    21       P1  7957  0.71
      P1  H  7997  8010       L1     9  0.38

> <Gold.PLP.Chemscore.Internal.Correction>
0.0191

> <Gold.Rescore>
     Score         DG    S(hbond)    S(metal)    S(lipo)     H(rot)  DE(clash)    DE(int)     intcor
     18.25     -20.17       1.94        0.00     102.54       1.48       0.37       1.54       ----

> <Gold.Chemscore.Fitness>
18.2526

> <Gold.Chemscore.DG>
-20.1670

> <Gold.Chemscore.ZeroCoef>
-5.4800

> <Gold.Chemscore.Hbond>
1.9398

> <Gold.Chemscore.Metal>
0.0000

> <Gold.Chemscore.Lipo>
102.5407

> <Gold.Chemscore.Internal_Hbond>
0.0000

> <Gold.Chemscore.DEClash>
0.3743

> <Gold.Chemscore.DEInternal>
1.5401

> <Gold.Chemscore.Rot>
1.4801

> <Gold.Chemscore.Internal.Correction>
   9.000000E+99

> <Gold.Chemscore.Hbonds>
donor molecule, donor type, donor heavy atom, donor atom, acceptor molecule, acceptor atom, score
      L1  H     3    21       P1  7957  0.71
      P1  H  7997  8010       L1     9  0.38

> <Gold.Chemscore.Hbond.Weighted>
-6.4789

> <Gold.Chemscore.Metal.Weighted>
-0.0000

> <Gold.Chemscore.Lipo.Weighted>
-11.9973

> <Gold.Chemscore.Internal_Hbond.Weighted>
0.0000

> <Gold.Chemscore.DEClash.Weighted>
0.3743

> <Gold.Chemscore.DEInternal.Weighted>
1.5401

> <Gold.Chemscore.Rot.Weighted>
3.7891

> <Gold.Chemscore.Internal.Correction.Weighted>
   9.000000E+99

> <Gold.Protein.RotatedTorsions>
[ 6907 6896 6895 6894 ] final   -1.00 input  -60.11 | X-H torsion
[ 7974 7965 7964 7962 ] final -177.18 input  175.53 | X-H torsion
[ 8008 7997 7996 7995 ] final   36.29 input   59.86 | X-H torsion
[ 10167 10162 10161 10158 ] final  125.41 input  -65.29 | X-H torsion
[ 10718 10713 10712 10709 ] final  130.17 input   66.30 | X-H torsion
[ 10763 10752 10751 10750 ] final  -61.86 input  -60.55 | X-H torsion
[ 11005 11000 10999 10996 ] final   20.28 input  -57.11 | X-H torsion

> <Gold.Protein.ActiveResidues>
 VAL166  LYS551  ARG553  GLY616  TRP617  ASP618  TYR619  PRO620  LYS621  CYS622 
 ASP623  PHE694  ASN695  SER759  ASP760  ASP761  ALA762  ILE779  LEU786  VAL792 
 PHE793  MET794  SER795  GLU796  ALA797  LYS798  CYS799  TRP800  GLU811  SER814 

> <Gold.Protein.RotatedAtoms>
  151.5531  135.1067  159.9954 H   0  0  0  0  0  0  0  0  0  0  0  0  # atno 6907 bound_to 6896
  152.4482  133.7573  159.6738 H   0  0  0  0  0  0  0  0  0  0  0  0  # atno 6908 bound_to 6896
  150.8403  133.7879  159.3087 H   0  0  0  0  0  0  0  0  0  0  0  0  # atno 6909 bound_to 6896
  144.7127  140.1059  143.6414 H   0  0  0  0  0  0  0  0  0  0  0  0  # atno 7974 bound_to 7965
  155.1850  140.3303  155.4368 H   0  0  0  0  0  0  0  0  0  0  0  0  # atno 8008 bound_to 7997
  156.2463  140.1920  156.6896 H   0  0  0  0  0  0  0  0  0  0  0  0  # atno 8009 bound_to 7997
  154.6245  140.0591  156.9642 H   0  0  0  0  0  0  0  0  0  0  0  0  # atno 8010 bound_to 7997
  139.5687  144.6926  151.3838 H   0  0  0  0  0  0  0  0  0  0  0  0  # atno 10167 bound_to 10162
  157.5087  131.1096  150.9325 H   0  0  0  0  0  0  0  0  0  0  0  0  # atno 10718 bound_to 10713
  154.2911  135.6253  153.5385 H   0  0  0  0  0  0  0  0  0  0  0  0  # atno 10763 bound_to 10752
  152.9852  135.5656  154.5389 H   0  0  0  0  0  0  0  0  0  0  0  0  # atno 10764 bound_to 10752
  154.5000  135.2871  155.1404 H   0  0  0  0  0  0  0  0  0  0  0  0  # atno 10765 bound_to 10752
  140.4044  134.1684  155.7665 H   0  0  0  0  0  0  0  0  0  0  0  0  # atno 11005 bound_to 11000
  145.9497  139.2725  143.1219 LP  0  0  0  0  0  0  0  0  0  0  0  0  # atno 17320 bound_to 7965
  145.9336  140.9031  143.0344 LP  0  0  0  0  0  0  0  0  0  0  0  0  # atno 17321 bound_to 7965
  140.6971  143.7722  150.7344 LP  0  0  0  0  0  0  0  0  0  0  0  0  # atno 17342 bound_to 10162
  140.1221  143.4602  152.2306 LP  0  0  0  0  0  0  0  0  0  0  0  0  # atno 17343 bound_to 10162
  156.9972  130.5586  149.5308 LP  0  0  0  0  0  0  0  0  0  0  0  0  # atno 17370 bound_to 10713
  156.0275  130.5368  150.8445 LP  0  0  0  0  0  0  0  0  0  0  0  0  # atno 17371 bound_to 10713
  141.1845  133.8343  157.1138 LP  0  0  0  0  0  0  0  0  0  0  0  0  # atno 17394 bound_to 11000
  140.0313  134.9900  157.0785 LP  0  0  0  0  0  0  0  0  0  0  0  0  # atno 17395 bound_to 11000

$$$$
