AV-unprocessed.smi:3181|AV-procd|sdf|12149|dock4
  -GOLD-   2272017583D 1   1.00000     0.00000
 Structure written by MMmdl.
 42 43  0  0  0  0  0  0  0  0  2 V2000
  150.5372  140.1925  155.2107 C   0  0  0  0  0  0  0  0  0  0  0  0
  149.5425  141.3005  155.5959 C   0  0  2  0  0  0  0  0  0  0  0  0
  148.5466  141.6377  154.4683 C   0  0  0  0  0  0  0  0  0  0  0  0
  147.5281  140.6190  154.2916 N   0  0  0  0  0  0  0  0  0  0  0  0
  147.2345  139.8618  153.2334 C   0  0  0  0  0  0  0  0  0  0  0  0
  146.2251  139.0271  153.4364 N   0  0  0  0  0  0  0  0  0  0  0  0
  145.9260  139.3410  154.7322 C   0  0  0  0  0  0  0  0  0  0  0  0
  146.6782  140.2889  155.2920 N   0  0  0  0  0  0  0  0  0  0  0  0
  150.2791  142.5253  155.9830 N   0  3  0  0  0  0  0  0  0  0  0  0
  150.6880  142.6115  157.4029 C   0  0  1  0  0  0  0  0  0  0  0  0
  151.3559  141.3054  157.8785 C   0  0  0  0  0  0  0  0  0  0  0  0
  151.8369  141.4148  159.3342 C   0  0  0  0  0  0  0  0  0  0  0  0
  152.7838  142.6154  159.5312 C   0  0  2  0  0  0  0  0  0  0  0  0
  153.3283  142.6833  160.9675 C   0  0  0  0  0  0  0  0  0  0  0  0
  152.1325  143.9402  159.0576 C   0  0  2  0  0  0  0  0  0  0  0  0
  151.0150  144.4626  159.9835 C   0  0  0  0  0  0  0  0  0  0  0  0
  151.6470  143.8021  157.5989 C   0  0  0  0  0  0  0  0  0  0  0  0
  150.0274  139.2527  154.9976 H   0  0  0  0  0  0  0  0  0  0  0  0
  151.2433  139.9980  156.0182 H   0  0  0  0  0  0  0  0  0  0  0  0
  151.1122  140.4663  154.3255 H   0  0  0  0  0  0  0  0  0  0  0  0
  148.9643  140.9425  156.4493 H   0  0  0  0  0  0  0  0  0  0  0  0
  148.0425  142.5809  154.6837 H   0  0  0  0  0  0  0  0  0  0  0  0
  149.0738  141.7759  153.5226 H   0  0  0  0  0  0  0  0  0  0  0  0
  147.7675  139.9238  152.2958 H   0  0  0  0  0  0  0  0  0  0  0  0
  145.1300  138.8571  155.2790 H   0  0  0  0  0  0  0  0  0  0  0  0
  151.0976  142.6180  155.3986 H   0  0  0  0  0  0  0  0  0  0  0  0
  149.7913  142.7953  157.9961 H   0  0  0  0  0  0  0  0  0  0  0  0
  150.6645  140.4668  157.7931 H   0  0  0  0  0  0  0  0  0  0  0  0
  152.2048  141.0698  157.2348 H   0  0  0  0  0  0  0  0  0  0  0  0
  150.9775  141.4998  159.9998 H   0  0  0  0  0  0  0  0  0  0  0  0
  152.3466  140.4923  159.6144 H   0  0  0  0  0  0  0  0  0  0  0  0
  153.6483  142.4445  158.8875 H   0  0  0  0  0  0  0  0  0  0  0  0
  152.5265  142.7625  161.7018 H   0  0  0  0  0  0  0  0  0  0  0  0
  153.9896  143.5403  161.0980 H   0  0  0  0  0  0  0  0  0  0  0  0
  153.9013  141.7876  161.2085 H   0  0  0  0  0  0  0  0  0  0  0  0
  152.9111  144.7044  159.0600 H   0  0  0  0  0  0  0  0  0  0  0  0
  150.2109  143.7385  160.1108 H   0  0  0  0  0  0  0  0  0  0  0  0
  150.5732  145.3750  159.5823 H   0  0  0  0  0  0  0  0  0  0  0  0
  151.3987  144.7066  160.9738 H   0  0  0  0  0  0  0  0  0  0  0  0
  152.5141  143.6752  156.9486 H   0  0  0  0  0  0  0  0  0  0  0  0
  151.1660  144.7275  157.2795 H   0  0  0  0  0  0  0  0  0  0  0  0
  149.6700  143.3093  155.7972 H   0  0  0  0  0  0  0  0  0  0  0  0
  1  2  1  0  0  0  0
  1 18  1  0  0  0  0
  1 19  1  0  0  0  0
  1 20  1  0  0  0  0
  2  3  1  0  0  0  0
  2  9  1  0  0  0  0
  2 21  1  0  0  0  0
  3  4  1  0  0  0  0
  3 22  1  0  0  0  0
  3 23  1  0  0  0  0
  4  8  1  0  0  0  0
  4  5  1  0  0  0  0
  5  6  2  0  0  0  0
  5 24  1  0  0  0  0
  6  7  1  0  0  0  0
  7  8  2  0  0  0  0
  7 25  1  0  0  0  0
  9 10  1  0  0  0  0
  9 26  1  0  0  0  0
  9 42  1  0  0  0  0
 10 17  1  0  0  0  0
 10 11  1  0  0  0  0
 10 27  1  0  0  0  0
 11 12  1  0  0  0  0
 11 28  1  0  0  0  0
 11 29  1  0  0  0  0
 12 13  1  0  0  0  0
 12 30  1  0  0  0  0
 12 31  1  0  0  0  0
 13 14  1  0  0  0  0
 13 15  1  0  0  0  0
 13 32  1  0  0  0  0
 14 33  1  0  0  0  0
 14 34  1  0  0  0  0
 14 35  1  0  0  0  0
 15 16  1  0  0  0  0
 15 17  1  0  0  0  0
 15 36  1  0  0  0  0
 16 37  1  0  0  0  0
 16 38  1  0  0  0  0
 16 39  1  0  0  0  0
 17 40  1  0  0  0  0
 17 41  1  0  0  0  0
M  CHG  1   9   1
M  END
> <s_m_source_file>
AV-unprocessed.smi

> <i_m_source_file_index>
3181

> <i_lp_mmshare_version>
43012

> <i_f3d_flags>
0

> <s_epik_input>
bjFbY0hdbltjSF1uMVtDSDJdW0NAQEhdKFtDSDNdKVtOSF1bQ0BASF0yW0NIMl1bQ0gyXVtDQEBIXShbQ0gzXSlbQ0BASF0oW0NIM10pW0NIMl0y

> <s_epik_cmdline>
J2VwaWtfcHl0aG9uJywgJy1waCcsICc3LjAnLCAnLXRuJywgJzgnLCAnLW1hJywgJzIwMCcsICctbWV0YWxfYmluZGluZycsICctaW1hZScsICc8aW5maWxlLm1hZT4nLCAnLW9tYWUnLCAnPG91dGZpbGUubWFlPic=

> <r_lp_tautomer_probability>
1

> <r_epik_Ionization_Penalty>
0.000617007

> <r_epik_Ionization_Penalty_Charging>
0.000616215

> <r_epik_Ionization_Penalty_Neutral>
7.92544e-07

> <r_epik_State_Penalty>
0.000388807

> <r_epik_Charging_Adjusted_Penalty>
0.00100502

> <i_epik_Tot_Q>
1

> <i_epik_Tot_abs_Q>
1

> <r_epik_Metal_State_Penalty>
-0

> <b_epik_Metal_Only>
0

> <s_lp_Force_Field>
OPLS_2005

> <r_lp_Energy>
22.4909

> <b_lp_Chiralities_Consistent>
1

> <s_lp_Variant>
AV-unprocessed.smi:3181-15

> <Gold.Version>
5.8.1

> <Gold.Id.Protein>
6NUR|6NUR_protein|mol2

> <Gold.PLP.Fitness>
44.6824

> <Gold.PLP.PLP>
-36.7397

> <Gold.PLP.part.hbond>
-1.0000

> <Gold.PLP.part.metal>
0.0000

> <Gold.PLP.part.buried>
-2.0633

> <Gold.PLP.part.nonpolar>
-34.1792

> <Gold.PLP.part.repulsive>
0.4059

> <Gold.PLP.ligand.clash>
0.0000

> <Gold.PLP.ligand.torsion>
0.5369

> <Gold.PLP.Chemscore.Hbond>
2.0000

> <Gold.PLP.Chemscore.CHOScore>
1.0000

> <Gold.PLP.Chemscore.Metal>
0.0000

> <Gold.Chemscore.Hbonds>
donor molecule, donor type, donor heavy atom, donor atom, acceptor molecule, acceptor atom, score
      L1  H     9    42       P1  8028  2.00
      L1  C     5    24       P1  7957  1.00

> <Gold.PLP.Chemscore.Internal.Correction>
0.0165

> <Gold.Rescore>
     Score         DG    S(hbond)    S(metal)    S(lipo)     H(rot)  DE(clash)    DE(int)     intcor
     14.86     -15.59       1.00        0.00     104.00       2.11       0.10       0.63       ----

> <Gold.Chemscore.Fitness>
14.8562

> <Gold.Chemscore.DG>
-15.5860

> <Gold.Chemscore.ZeroCoef>
-5.4800

> <Gold.Chemscore.Hbond>
0.9994

> <Gold.Chemscore.Metal>
0.0000

> <Gold.Chemscore.Lipo>
104.0018

> <Gold.Chemscore.Internal_Hbond>
0.0000

> <Gold.Chemscore.DEClash>
0.1041

> <Gold.Chemscore.DEInternal>
0.6258

> <Gold.Chemscore.Rot>
2.1095

> <Gold.Chemscore.Internal.Correction>
   9.000000E+99

> <Gold.Chemscore.Hbonds>
donor molecule, donor type, donor heavy atom, donor atom, acceptor molecule, acceptor atom, score
      L1  H     9    42       P1  8028  0.99

> <Gold.Chemscore.Hbond.Weighted>
-3.3381

> <Gold.Chemscore.Metal.Weighted>
-0.0000

> <Gold.Chemscore.Lipo.Weighted>
-12.1682

> <Gold.Chemscore.Internal_Hbond.Weighted>
0.0000

> <Gold.Chemscore.DEClash.Weighted>
0.1041

> <Gold.Chemscore.DEInternal.Weighted>
0.6258

> <Gold.Chemscore.Rot.Weighted>
5.4003

> <Gold.Chemscore.Internal.Correction.Weighted>
   9.000000E+99

> <Gold.Protein.RotatedTorsions>
[ 6907 6896 6895 6894 ] final -141.72 input  -60.11 | X-H torsion
[ 7974 7965 7964 7962 ] final   92.98 input  175.53 | X-H torsion
[ 8008 7997 7996 7995 ] final   30.98 input   59.86 | X-H torsion
[ 10167 10162 10161 10158 ] final -159.74 input  -65.29 | X-H torsion
[ 10718 10713 10712 10709 ] final   41.69 input   66.30 | X-H torsion
[ 10763 10752 10751 10750 ] final -103.15 input  -60.55 | X-H torsion
[ 11005 11000 10999 10996 ] final   76.42 input  -57.11 | X-H torsion

> <Gold.Protein.ActiveResidues>
 VAL166  LYS551  ARG553  GLY616  TRP617  ASP618  TYR619  PRO620  LYS621  CYS622 
 ASP623  PHE694  ASN695  SER759  ASP760  ASP761  ALA762  ILE779  LEU786  VAL792 
 PHE793  MET794  SER795  GLU796  ALA797  LYS798  CYS799  TRP800  GLU811  SER814 

> <Gold.Protein.RotatedAtoms>
  151.0776  133.5416  159.2622 H   0  0  0  0  0  0  0  0  0  0  0  0  # atno 6907 bound_to 6896
  151.2331  135.0561  159.9005 H   0  0  0  0  0  0  0  0  0  0  0  0  # atno 6908 bound_to 6896
  152.5419  134.0562  159.8185 H   0  0  0  0  0  0  0  0  0  0  0  0  # atno 6909 bound_to 6896
  145.4850  139.2277  143.2861 H   0  0  0  0  0  0  0  0  0  0  0  0  # atno 7974 bound_to 7965
  155.0991  140.3228  155.4552 H   0  0  0  0  0  0  0  0  0  0  0  0  # atno 8008 bound_to 7997
  156.2722  140.2064  156.6064 H   0  0  0  0  0  0  0  0  0  0  0  0  # atno 8009 bound_to 7997
  154.6843  140.0523  157.0286 H   0  0  0  0  0  0  0  0  0  0  0  0  # atno 8010 bound_to 7997
  139.6592  143.9944  152.2214 H   0  0  0  0  0  0  0  0  0  0  0  0  # atno 10167 bound_to 10162
  157.3965  130.7835  149.7312 H   0  0  0  0  0  0  0  0  0  0  0  0  # atno 10718 bound_to 10713
  154.7786  135.4834  153.9797 H   0  0  0  0  0  0  0  0  0  0  0  0  # atno 10763 bound_to 10752
  153.1463  135.6782  153.8957 H   0  0  0  0  0  0  0  0  0  0  0  0  # atno 10764 bound_to 10752
  153.8616  135.3154  155.3416 H   0  0  0  0  0  0  0  0  0  0  0  0  # atno 10765 bound_to 10752
  139.9299  134.7599  156.1393 H   0  0  0  0  0  0  0  0  0  0  0  0  # atno 11005 bound_to 11000
  146.2318  140.5640  142.8972 LP  0  0  0  0  0  0  0  0  0  0  0  0  # atno 17320 bound_to 7965
  144.7867  140.5950  143.6569 LP  0  0  0  0  0  0  0  0  0  0  0  0  # atno 17321 bound_to 7965
  139.9678  144.6514  150.8018 LP  0  0  0  0  0  0  0  0  0  0  0  0  # atno 17342 bound_to 10162
  140.7572  143.3082  151.2909 LP  0  0  0  0  0  0  0  0  0  0  0  0  # atno 17343 bound_to 10162
  155.9812  130.4022  150.3487 LP  0  0  0  0  0  0  0  0  0  0  0  0  # atno 17370 bound_to 10713
  157.1610  131.0345  151.2841 LP  0  0  0  0  0  0  0  0  0  0  0  0  # atno 17371 bound_to 10713
  141.0881  133.6725  156.2481 LP  0  0  0  0  0  0  0  0  0  0  0  0  # atno 17394 bound_to 11000
  140.6231  134.5341  157.5550 LP  0  0  0  0  0  0  0  0  0  0  0  0  # atno 17395 bound_to 11000

$$$$
