AV-unprocessed.smi:1151|AV-procd|sdf|4896|dock5
  -GOLD-   22720 3473D 1   1.00000     0.00000
 Structure written by MMmdl.
 35 36  0  0  0  0  0  0  0  0  1 V2000
  152.7386  143.2461  161.5402 C   0  0  0  0  0  0  0  0  0  0  0  0
  152.1974  143.2272  160.1518 C   0  0  0  0  0  0  0  0  0  0  0  0
  151.7507  142.1224  159.5488 N   0  0  0  0  0  0  0  0  0  0  0  0
  151.2943  142.3658  158.2497 C   0  0  0  0  0  0  0  0  0  0  0  0
  150.7669  141.2354  157.4137 C   0  0  0  0  0  0  0  0  0  0  0  0
  150.2970  141.6738  156.0113 C   0  0  0  0  0  0  0  0  0  0  0  0
  149.2688  140.7977  155.4571 N   0  0  0  0  0  0  0  0  0  0  0  0
  149.4858  139.8165  154.5684 C   0  0  0  0  0  0  0  0  0  0  0  0
  150.5918  139.5799  154.0815 O   0  0  0  0  0  0  0  0  0  0  0  0
  148.2698  138.9625  154.1861 C   0  0  1  0  0  0  0  0  0  0  0  0
  147.7822  138.1169  155.3744 C   0  0  0  0  0  0  0  0  0  0  0  0
  146.5966  137.2267  154.9681 C   0  0  0  0  0  0  0  0  0  0  0  0
  145.5232  137.9702  154.1594 C   0  0  0  0  0  0  0  0  0  0  0  0
  144.4016  137.4803  154.0502 O   0  0  0  0  0  0  0  0  0  0  0  0
  145.8456  139.1276  153.5556 N   0  0  0  0  0  0  0  0  0  0  0  0
  147.1124  139.8488  153.6803 C   0  0  0  0  0  0  0  0  0  0  0  0
  151.4037  143.6821  157.8752 C   0  0  0  0  0  0  0  0  0  0  0  0
  152.0912  144.6626  159.1396 S   0  0  0  0  0  0  0  0  0  0  0  0
  152.3774  142.3849  162.1032 H   0  0  0  0  0  0  0  0  0  0  0  0
  152.4224  144.1544  162.0533 H   0  0  0  0  0  0  0  0  0  0  0  0
  153.8280  143.2179  161.5154 H   0  0  0  0  0  0  0  0  0  0  0  0
  151.5284  140.4620  157.3087 H   0  0  0  0  0  0  0  0  0  0  0  0
  149.9375  140.7546  157.9335 H   0  0  0  0  0  0  0  0  0  0  0  0
  149.8686  142.6747  156.0713 H   0  0  0  0  0  0  0  0  0  0  0  0
  151.1448  141.7414  155.3278 H   0  0  0  0  0  0  0  0  0  0  0  0
  148.3292  140.9238  155.8046 H   0  0  0  0  0  0  0  0  0  0  0  0
  148.5603  138.2822  153.3831 H   0  0  0  0  0  0  0  0  0  0  0  0
  148.5924  137.4919  155.7528 H   0  0  0  0  0  0  0  0  0  0  0  0
  147.4802  138.7633  156.2005 H   0  0  0  0  0  0  0  0  0  0  0  0
  146.9561  136.3993  154.3555 H   0  0  0  0  0  0  0  0  0  0  0  0
  146.1423  136.7830  155.8548 H   0  0  0  0  0  0  0  0  0  0  0  0
  145.1285  139.5750  153.0031 H   0  0  0  0  0  0  0  0  0  0  0  0
  146.9444  140.6885  154.3565 H   0  0  0  0  0  0  0  0  0  0  0  0
  147.3651  140.2771  152.7097 H   0  0  0  0  0  0  0  0  0  0  0  0
  151.1299  144.1298  156.9312 H   0  0  0  0  0  0  0  0  0  0  0  0
  1  2  1  0  0  0  0
  1 19  1  0  0  0  0
  1 20  1  0  0  0  0
  1 21  1  0  0  0  0
  2 18  1  0  0  0  0
  2  3  2  0  0  0  0
  3  4  1  0  0  0  0
  4  5  1  0  0  0  0
  4 17  2  0  0  0  0
  5  6  1  0  0  0  0
  5 22  1  0  0  0  0
  5 23  1  0  0  0  0
  6  7  1  0  0  0  0
  6 24  1  0  0  0  0
  6 25  1  0  0  0  0
  7  8  1  0  0  0  0
  7 26  1  0  0  0  0
  8  9  2  0  0  0  0
  8 10  1  0  0  0  0
 10 16  1  0  0  0  0
 10 11  1  0  0  0  0
 10 27  1  0  0  0  0
 11 12  1  0  0  0  0
 11 28  1  0  0  0  0
 11 29  1  0  0  0  0
 12 13  1  0  0  0  0
 12 30  1  0  0  0  0
 12 31  1  0  0  0  0
 13 14  2  0  0  0  0
 13 15  1  0  0  0  0
 15 16  1  0  0  0  0
 15 32  1  0  0  0  0
 16 33  1  0  0  0  0
 16 34  1  0  0  0  0
 17 18  1  0  0  0  0
 17 35  1  0  0  0  0
M  END
> <s_m_source_file>
AV-unprocessed.smi

> <i_m_source_file_index>
1151

> <i_lp_mmshare_version>
43012

> <i_f3d_flags>
0

> <s_epik_input>
W0NIM11jMW5jKFtjSF1zMSlbQ0gyXVtDSDJdW05IXUMoPU8pW0NAQEhdMltDSDJdW0NIMl1DKD1PKVtOSF1bQ0gyXTI=

> <s_epik_cmdline>
J2VwaWtfcHl0aG9uJywgJy1waCcsICc3LjAnLCAnLXRuJywgJzgnLCAnLW1hJywgJzIwMCcsICctbWV0YWxfYmluZGluZycsICctaW1hZScsICc8aW5maWxlLm1hZT4nLCAnLW9tYWUnLCAnPG91dGZpbGUubWFlPic=

> <r_epik_Ionization_Penalty>
0.00105008

> <r_epik_Ionization_Penalty_Charging>
0

> <r_epik_Ionization_Penalty_Neutral>
0.00105008

> <r_epik_State_Penalty>
0.000686749

> <r_epik_Charging_Adjusted_Penalty>
0.000686749

> <i_epik_Tot_Q>
0

> <i_epik_Tot_abs_Q>
0

> <r_epik_Metal_State_Penalty>
-0

> <b_epik_Metal_Only>
0

> <s_lp_Force_Field>
OPLS_2005

> <r_lp_Energy>
7.51238

> <b_lp_Chiralities_Consistent>
1

> <s_lp_Variant>
AV-unprocessed.smi:1151-2

> <Gold.Version>
5.8.1

> <Gold.Id.Protein>
6NUR|6NUR_protein|mol2

> <Gold.PLP.Fitness>
40.7475

> <Gold.PLP.PLP>
-32.5557

> <Gold.PLP.part.hbond>
-2.0000

> <Gold.PLP.part.metal>
0.0000

> <Gold.PLP.part.buried>
-4.8708

> <Gold.PLP.part.nonpolar>
-27.0203

> <Gold.PLP.part.repulsive>
0.4226

> <Gold.PLP.ligand.clash>
0.0000

> <Gold.PLP.ligand.torsion>
0.3935

> <Gold.PLP.Chemscore.Hbond>
1.9920

> <Gold.PLP.Chemscore.CHOScore>
0.9983

> <Gold.PLP.Chemscore.Metal>
0.0000

> <Gold.Chemscore.Hbonds>
donor molecule, donor type, donor heavy atom, donor atom, acceptor molecule, acceptor atom, score
      L1  H    15    32       P1 10175  1.00
      P1  H  7989  7998       L1     9  1.00
      L1  C    17    35       P1  8028  0.78

> <Gold.PLP.Chemscore.Internal.Correction>
0.0081

> <Gold.Rescore>
     Score         DG    S(hbond)    S(metal)    S(lipo)     H(rot)  DE(clash)    DE(int)     intcor
     17.33     -17.71       1.98        0.00      85.23       1.70       0.01       0.37       ----

> <Gold.Chemscore.Fitness>
17.3348

> <Gold.Chemscore.DG>
-17.7086

> <Gold.Chemscore.ZeroCoef>
-5.4800

> <Gold.Chemscore.Hbond>
1.9768

> <Gold.Chemscore.Metal>
0.0000

> <Gold.Chemscore.Lipo>
85.2350

> <Gold.Chemscore.Internal_Hbond>
0.0000

> <Gold.Chemscore.DEClash>
0.0076

> <Gold.Chemscore.DEInternal>
0.3663

> <Gold.Chemscore.Rot>
1.6978

> <Gold.Chemscore.Internal.Correction>
   9.000000E+99

> <Gold.Chemscore.Hbonds>
donor molecule, donor type, donor heavy atom, donor atom, acceptor molecule, acceptor atom, score
      L1  H    15    32       P1 10175  1.00
      P1  H  7989  7998       L1     9  0.98

> <Gold.Chemscore.Hbond.Weighted>
-6.6025

> <Gold.Chemscore.Metal.Weighted>
-0.0000

> <Gold.Chemscore.Lipo.Weighted>
-9.9725

> <Gold.Chemscore.Internal_Hbond.Weighted>
0.0000

> <Gold.Chemscore.DEClash.Weighted>
0.0076

> <Gold.Chemscore.DEInternal.Weighted>
0.3663

> <Gold.Chemscore.Rot.Weighted>
4.3463

> <Gold.Chemscore.Internal.Correction.Weighted>
   9.000000E+99

> <Gold.Protein.RotatedTorsions>
[ 6907 6896 6895 6894 ] final  -51.60 input  -60.11 | X-H torsion
[ 7974 7965 7964 7962 ] final  -38.01 input  175.53 | X-H torsion
[ 8008 7997 7996 7995 ] final   23.01 input   59.86 | X-H torsion
[ 10167 10162 10161 10158 ] final  -82.14 input  -65.29 | X-H torsion
[ 10718 10713 10712 10709 ] final  152.93 input   66.30 | X-H torsion
[ 10763 10752 10751 10750 ] final  120.30 input  -60.55 | X-H torsion
[ 11005 11000 10999 10996 ] final  -62.21 input  -57.11 | X-H torsion

> <Gold.Protein.ActiveResidues>
 VAL166  LYS551  ARG553  GLY616  TRP617  ASP618  TYR619  PRO620  LYS621  CYS622 
 ASP623  PHE694  ASN695  SER759  ASP760  ASP761  ALA762  ILE779  LEU786  VAL792 
 PHE793  MET794  SER795  GLU796  ALA797  LYS798  CYS799  TRP800  GLU811  SER814 

> <Gold.Protein.RotatedAtoms>
  150.8596  134.7944  159.7072 H   0  0  0  0  0  0  0  0  0  0  0  0  # atno 6907 bound_to 6896
  152.4637  134.5122  159.9767 H   0  0  0  0  0  0  0  0  0  0  0  0  # atno 6908 bound_to 6896
  151.5228  133.3425  159.2940 H   0  0  0  0  0  0  0  0  0  0  0  0  # atno 6909 bound_to 6896
  146.0525  140.6462  142.9035 H   0  0  0  0  0  0  0  0  0  0  0  0  # atno 7974 bound_to 7965
  154.9744  140.3094  155.4974 H   0  0  0  0  0  0  0  0  0  0  0  0  # atno 8008 bound_to 7997
  156.2961  140.2278  156.4778 H   0  0  0  0  0  0  0  0  0  0  0  0  # atno 8009 bound_to 7997
  154.7847  140.0443  157.1143 H   0  0  0  0  0  0  0  0  0  0  0  0  # atno 8010 bound_to 7997
  140.4347  143.2536  151.8710 H   0  0  0  0  0  0  0  0  0  0  0  0  # atno 10167 bound_to 10162
  157.2513  131.0779  151.1728 H   0  0  0  0  0  0  0  0  0  0  0  0  # atno 10718 bound_to 10713
  153.5963  135.3456  155.2929 H   0  0  0  0  0  0  0  0  0  0  0  0  # atno 10763 bound_to 10752
  154.8644  135.4217  154.2461 H   0  0  0  0  0  0  0  0  0  0  0  0  # atno 10764 bound_to 10752
  153.3280  135.7042  153.7044 H   0  0  0  0  0  0  0  0  0  0  0  0  # atno 10765 bound_to 10752
  141.1352  133.6638  156.5493 H   0  0  0  0  0  0  0  0  0  0  0  0  # atno 11005 bound_to 11000
  144.7130  140.4108  143.7066 LP  0  0  0  0  0  0  0  0  0  0  0  0  # atno 17320 bound_to 7965
  145.6701  139.1597  143.2759 LP  0  0  0  0  0  0  0  0  0  0  0  0  # atno 17321 bound_to 7965
  139.4786  144.5296  151.8686 LP  0  0  0  0  0  0  0  0  0  0  0  0  # atno 17342 bound_to 10162
  140.4387  144.2016  150.5890 LP  0  0  0  0  0  0  0  0  0  0  0  0  # atno 17343 bound_to 10162
  157.3275  130.6968  149.6304 LP  0  0  0  0  0  0  0  0  0  0  0  0  # atno 17370 bound_to 10713
  155.9666  130.4317  150.4933 LP  0  0  0  0  0  0  0  0  0  0  0  0  # atno 17371 bound_to 10713
  140.4076  134.7300  157.4817 LP  0  0  0  0  0  0  0  0  0  0  0  0  # atno 17394 bound_to 11000
  140.0450  134.6212  155.8932 LP  0  0  0  0  0  0  0  0  0  0  0  0  # atno 17395 bound_to 11000

$$$$
