AV-unprocessed.smi:3347|AV-procd|sdf|12913|dock3
  -GOLD-   2272019323D 1   1.00000     0.00000
 Structure written by MMmdl.
 40 42  0  0  0  0  0  0  0  0  2 V2000
  150.1432  134.9336  156.2267 O   0  0  0  0  0  0  0  0  0  0  0  0
  149.7725  135.2453  155.0953 C   0  0  0  0  0  0  0  0  0  0  0  0
  149.0669  134.4294  154.2986 N   0  0  0  0  0  0  0  0  0  0  0  0
  148.6514  133.0705  154.6334 C   0  0  0  0  0  0  0  0  0  0  0  0
  147.4352  132.6154  153.8037 C   0  0  2  0  0  0  0  0  0  0  0  0
  147.1682  131.1106  153.8046 C   0  0  0  0  0  0  0  0  0  0  0  0
  146.2915  130.9269  152.5699 C   0  0  0  0  0  0  0  0  0  0  0  0
  146.8040  131.8939  151.5759 N   0  3  1  0  0  0  0  0  0  0  0  0
  145.7671  132.4163  150.6604 C   0  0  0  0  0  0  0  0  0  0  0  0
  144.4465  132.6931  151.3383 C   0  0  0  0  0  0  0  0  0  0  0  0
  144.6069  131.4707  150.4602 C   0  0  0  0  0  0  0  0  0  0  0  0
  147.5509  132.9442  152.3081 C   0  0  0  0  0  0  0  0  0  0  0  0
  149.9902  136.4321  154.5032 N   0  0  0  0  0  0  0  0  0  0  0  0
  150.6840  137.5638  155.0115 C   0  0  0  0  0  0  0  0  0  0  0  0
  151.4776  137.5550  156.1844 C   0  0  0  0  0  0  0  0  0  0  0  0
  152.1284  138.7417  156.5733 C   0  0  0  0  0  0  0  0  0  0  0  0
  151.9698  139.8899  155.7735 C   0  0  0  0  0  0  0  0  0  0  0  0
  151.2283  139.9093  154.6461 N   0  0  0  0  0  0  0  0  0  0  0  0
  150.6074  138.7679  154.2792 C   0  0  0  0  0  0  0  0  0  0  0  0
  148.8030  134.7722  153.3862 H   0  0  0  0  0  0  0  0  0  0  0  0
  149.4955  132.4100  154.4327 H   0  0  0  0  0  0  0  0  0  0  0  0
  148.4446  132.9814  155.7014 H   0  0  0  0  0  0  0  0  0  0  0  0
  146.5424  133.1132  154.1864 H   0  0  0  0  0  0  0  0  0  0  0  0
  148.1014  130.5585  153.6833 H   0  0  0  0  0  0  0  0  0  0  0  0
  146.6851  130.7627  154.7182 H   0  0  0  0  0  0  0  0  0  0  0  0
  146.3155  129.9070  152.1855 H   0  0  0  0  0  0  0  0  0  0  0  0
  145.2570  131.1665  152.8220 H   0  0  0  0  0  0  0  0  0  0  0  0
  146.1133  133.0466  149.8431 H   0  0  0  0  0  0  0  0  0  0  0  0
  144.3756  132.5343  152.4130 H   0  0  0  0  0  0  0  0  0  0  0  0
  143.8442  133.5112  150.9486 H   0  0  0  0  0  0  0  0  0  0  0  0
  144.1100  131.4841  149.4921 H   0  0  0  0  0  0  0  0  0  0  0  0
  144.6421  130.4999  150.9512 H   0  0  0  0  0  0  0  0  0  0  0  0
  147.1821  133.9483  152.0928 H   0  0  0  0  0  0  0  0  0  0  0  0
  148.5900  132.9018  151.9793 H   0  0  0  0  0  0  0  0  0  0  0  0
  149.5588  136.5625  153.5998 H   0  0  0  0  0  0  0  0  0  0  0  0
  151.6120  136.6677  156.7827 H   0  0  0  0  0  0  0  0  0  0  0  0
  152.7398  138.7692  157.4630 H   0  0  0  0  0  0  0  0  0  0  0  0
  152.4564  140.8155  156.0435 H   0  0  0  0  0  0  0  0  0  0  0  0
  150.0250  138.8202  153.3709 H   0  0  0  0  0  0  0  0  0  0  0  0
  147.4844  131.4025  151.0139 H   0  0  0  0  0  0  0  0  0  0  0  0
  1  2  2  0  0  0  0
  2  3  1  0  0  0  0
  2 13  1  0  0  0  0
  3  4  1  0  0  0  0
  3 20  1  0  0  0  0
  4  5  1  0  0  0  0
  4 21  1  0  0  0  0
  4 22  1  0  0  0  0
  5 12  1  0  0  0  0
  5  6  1  0  0  0  0
  5 23  1  0  0  0  0
  6  7  1  0  0  0  0
  6 24  1  0  0  0  0
  6 25  1  0  0  0  0
  7  8  1  0  0  0  0
  7 26  1  0  0  0  0
  7 27  1  0  0  0  0
  8  9  1  0  0  0  0
  8 12  1  0  0  0  0
  8 40  1  0  0  0  0
  9 11  1  0  0  0  0
  9 10  1  0  0  0  0
  9 28  1  0  0  0  0
 10 11  1  0  0  0  0
 10 29  1  0  0  0  0
 10 30  1  0  0  0  0
 11 31  1  0  0  0  0
 11 32  1  0  0  0  0
 12 33  1  0  0  0  0
 12 34  1  0  0  0  0
 13 14  1  0  0  0  0
 13 35  1  0  0  0  0
 14 19  1  0  0  0  0
 14 15  2  0  0  0  0
 15 16  1  0  0  0  0
 15 36  1  0  0  0  0
 16 17  2  0  0  0  0
 16 37  1  0  0  0  0
 17 18  1  0  0  0  0
 17 38  1  0  0  0  0
 18 19  2  0  0  0  0
 19 39  1  0  0  0  0
M  CHG  1   8   1
M  END
> <s_m_source_file>
AV-unprocessed.smi

> <i_m_source_file_index>
3347

> <i_lp_mmshare_version>
43012

> <i_f3d_flags>
0

> <s_epik_input>
W2NIXTFuW2NIXVtjSF1bY0hdYzFbTkhdQyg9TylbTkhdW0NIMl1bQ0BASF0yW0NIMl1bQ0gyXU4oW0NIMl0yKVtDSF0zW0NIMl1bQ0gyXTM=

> <s_epik_cmdline>
J2VwaWtfcHl0aG9uJywgJy1waCcsICc3LjAnLCAnLXRuJywgJzgnLCAnLW1hJywgJzIwMCcsICctbWV0YWxfYmluZGluZycsICctaW1hZScsICc8aW5maWxlLm1hZT4nLCAnLW9tYWUnLCAnPG91dGZpbGUubWFlPic=

> <r_epik_Ionization_Penalty>
0.00442629

> <r_epik_Ionization_Penalty_Charging>
0.000203384

> <r_epik_Ionization_Penalty_Neutral>
0.00422291

> <r_epik_State_Penalty>
0.00301008

> <r_epik_Charging_Adjusted_Penalty>
0.00321347

> <i_epik_Tot_Q>
1

> <i_epik_Tot_abs_Q>
1

> <r_epik_Metal_State_Penalty>
-0

> <b_epik_Metal_Only>
0

> <s_lp_Force_Field>
OPLS_2005

> <r_lp_Energy>
40.4553

> <b_lp_Chiralities_Consistent>
1

> <s_lp_Variant>
AV-unprocessed.smi:3347-3

> <Gold.Version>
5.8.1

> <Gold.Id.Protein>
6NUR|6NUR_protein|mol2

> <Gold.PLP.Fitness>
51.0492

> <Gold.PLP.PLP>
-37.0568

> <Gold.PLP.part.hbond>
-4.8264

> <Gold.PLP.part.metal>
0.0000

> <Gold.PLP.part.buried>
-3.3928

> <Gold.PLP.part.nonpolar>
-28.3241

> <Gold.PLP.part.repulsive>
0.2215

> <Gold.PLP.ligand.clash>
0.0000

> <Gold.PLP.ligand.torsion>
0.9284

> <Gold.PLP.Chemscore.Hbond>
3.9913

> <Gold.PLP.Chemscore.CHOScore>
0.8724

> <Gold.PLP.Chemscore.Metal>
0.0000

> <Gold.Chemscore.Hbonds>
donor molecule, donor type, donor heavy atom, donor atom, acceptor molecule, acceptor atom, score
      L1  H     3    20       P1  7948  0.88
      L1  H     8    40       P1 10747  1.00
      L1  H    13    35       P1  7948  1.00
      P1  H  7989  7998       L1    18  1.00
      L1  C    19    39       P1  7957  0.96

> <Gold.PLP.Chemscore.Internal.Correction>
1.2582

> <Gold.Rescore>
     Score         DG    S(hbond)    S(metal)    S(lipo)     H(rot)  DE(clash)    DE(int)     intcor
     19.42     -21.52       2.80        0.00      88.39       1.42       0.08       2.02       ----

> <Gold.Chemscore.Fitness>
19.4242

> <Gold.Chemscore.DG>
-21.5188

> <Gold.Chemscore.ZeroCoef>
-5.4800

> <Gold.Chemscore.Hbond>
2.7954

> <Gold.Chemscore.Metal>
0.0000

> <Gold.Chemscore.Lipo>
88.3949

> <Gold.Chemscore.Internal_Hbond>
0.0000

> <Gold.Chemscore.DEClash>
0.0786

> <Gold.Chemscore.DEInternal>
2.0161

> <Gold.Chemscore.Rot>
1.4219

> <Gold.Chemscore.Internal.Correction>
   9.000000E+99

> <Gold.Chemscore.Hbonds>
donor molecule, donor type, donor heavy atom, donor atom, acceptor molecule, acceptor atom, score
      L1  H     3    20       P1  7948  0.28
      L1  H     8    40       P1 10747  1.00
      L1  H    13    35       P1  7948  0.70
      P1  H  7989  7998       L1    18  0.86

> <Gold.Chemscore.Hbond.Weighted>
-9.3367

> <Gold.Chemscore.Metal.Weighted>
-0.0000

> <Gold.Chemscore.Lipo.Weighted>
-10.3422

> <Gold.Chemscore.Internal_Hbond.Weighted>
0.0000

> <Gold.Chemscore.DEClash.Weighted>
0.0786

> <Gold.Chemscore.DEInternal.Weighted>
2.0161

> <Gold.Chemscore.Rot.Weighted>
3.6401

> <Gold.Chemscore.Internal.Correction.Weighted>
   9.000000E+99

> <Gold.Protein.RotatedTorsions>
[ 6907 6896 6895 6894 ] final   43.35 input  -60.11 | X-H torsion
[ 7974 7965 7964 7962 ] final -155.83 input  175.53 | X-H torsion
[ 8008 7997 7996 7995 ] final   56.96 input   59.86 | X-H torsion
[ 10167 10162 10161 10158 ] final   56.41 input  -65.29 | X-H torsion
[ 10718 10713 10712 10709 ] final  -66.79 input   66.30 | X-H torsion
[ 10763 10752 10751 10750 ] final   17.83 input  -60.55 | X-H torsion
[ 11005 11000 10999 10996 ] final   75.54 input  -57.11 | X-H torsion

> <Gold.Protein.ActiveResidues>
 VAL166  LYS551  ARG553  GLY616  TRP617  ASP618  TYR619  PRO620  LYS621  CYS622 
 ASP623  PHE694  ASN695  SER759  ASP760  ASP761  ALA762  ILE779  LEU786  VAL792 
 PHE793  MET794  SER795  GLU796  ALA797  LYS798  CYS799  TRP800  GLU811  SER814 

> <Gold.Protein.RotatedAtoms>
  152.2192  134.8429  160.0487 H   0  0  0  0  0  0  0  0  0  0  0  0  # atno 6907 bound_to 6896
  151.9219  133.3582  159.3908 H   0  0  0  0  0  0  0  0  0  0  0  0  # atno 6908 bound_to 6896
  150.6995  134.4552  159.5399 H   0  0  0  0  0  0  0  0  0  0  0  0  # atno 6909 bound_to 6896
  144.7621  140.4194  143.5969 H   0  0  0  0  0  0  0  0  0  0  0  0  # atno 7974 bound_to 7965
  155.5260  140.3481  155.4416 H   0  0  0  0  0  0  0  0  0  0  0  0  # atno 8008 bound_to 7997
  156.0751  140.1372  156.9808 H   0  0  0  0  0  0  0  0  0  0  0  0  # atno 8009 bound_to 7997
  154.4549  140.0957  156.6703 H   0  0  0  0  0  0  0  0  0  0  0  0  # atno 8010 bound_to 7997
  140.2090  144.3908  150.6496 H   0  0  0  0  0  0  0  0  0  0  0  0  # atno 10167 bound_to 10162
  156.0593  130.4267  150.1760 H   0  0  0  0  0  0  0  0  0  0  0  0  # atno 10718 bound_to 10713
  153.1303  135.6739  153.9189 H   0  0  0  0  0  0  0  0  0  0  0  0  # atno 10763 bound_to 10752
  153.8677  135.3073  155.3442 H   0  0  0  0  0  0  0  0  0  0  0  0  # atno 10764 bound_to 10752
  154.7701  135.4943  153.9714 H   0  0  0  0  0  0  0  0  0  0  0  0  # atno 10765 bound_to 10752
  139.9339  134.7526  156.1284 H   0  0  0  0  0  0  0  0  0  0  0  0  # atno 11005 bound_to 11000
  145.6585  139.1577  143.2821 LP  0  0  0  0  0  0  0  0  0  0  0  0  # atno 17320 bound_to 7965
  146.1694  140.6668  142.9240 LP  0  0  0  0  0  0  0  0  0  0  0  0  # atno 17321 bound_to 7965
  140.6336  143.2191  151.6442 LP  0  0  0  0  0  0  0  0  0  0  0  0  # atno 17342 bound_to 10162
  139.5187  144.3276  152.0855 LP  0  0  0  0  0  0  0  0  0  0  0  0  # atno 17343 bound_to 10162
  156.9831  130.9870  151.3433 LP  0  0  0  0  0  0  0  0  0  0  0  0  # atno 17370 bound_to 10713
  157.5589  130.8232  149.8240 LP  0  0  0  0  0  0  0  0  0  0  0  0  # atno 17371 bound_to 10713
  141.0943  133.6702  156.2609 LP  0  0  0  0  0  0  0  0  0  0  0  0  # atno 17394 bound_to 11000
  140.6128  134.5441  157.5536 LP  0  0  0  0  0  0  0  0  0  0  0  0  # atno 17395 bound_to 11000

$$$$
