AV-unprocessed.smi:283|AV-procd|sdf|2147|dock6
  -GOLD-   2262021483D 1   1.00000     0.00000
 Structure written by MMmdl.
 48 51  0  0  0  0  0  0  0  0  1 V2000
  151.2344  140.4490  155.9506 C   0  0  0  0  0  0  0  0  0  0  0  0
  150.3860  141.3122  156.8937 C   0  0  2  0  0  0  0  0  0  0  0  0
  149.3667  142.0291  156.1280 N   0  0  0  0  0  0  0  0  0  0  0  0
  148.2388  141.3944  155.7397 C   0  0  0  0  0  0  0  0  0  0  0  0
  147.1300  142.1655  155.6394 N   0  0  0  0  0  0  0  0  0  0  0  0
  145.9591  141.6138  155.3089 C   0  0  0  0  0  0  0  0  0  0  0  0
  145.6833  140.3340  155.0517 N   0  0  0  0  0  0  0  0  0  0  0  0
  146.7983  139.5522  155.1386 C   0  0  0  0  0  0  0  0  0  0  0  0
  148.1115  140.0046  155.4505 C   0  0  0  0  0  0  0  0  0  0  0  0
  148.9925  138.9325  155.3887 N   0  0  0  0  0  0  0  0  0  0  0  0
  148.2396  137.9125  155.0833 C   0  0  0  0  0  0  0  0  0  0  0  0
  146.8930  138.1851  154.9719 N   0  0  0  0  0  0  0  0  0  0  0  0
  145.7691  137.2466  154.6441 C   0  0  1  0  0  0  0  0  0  0  0  0
  144.9401  137.8669  153.7025 O   0  0  0  0  0  0  0  0  0  0  0  0
  145.2081  137.3755  152.3919 C   0  0  1  0  0  0  0  0  0  0  0  0
  146.3137  138.2211  151.7176 C   0  0  0  0  0  0  0  0  0  0  0  0
  146.5950  137.7392  150.4200 O   0  0  0  0  0  0  0  0  0  0  0  0
  145.5477  135.9040  152.6640 C   0  0  1  0  0  0  0  0  0  0  0  0
  146.3364  135.3199  151.6456 O   0  0  0  0  0  0  0  0  0  0  0  0
  146.2909  135.9457  153.9949 C   0  0  2  0  0  0  0  0  0  0  0  0
  145.9601  134.8073  154.7654 O   0  0  0  0  0  0  0  0  0  0  0  0
  151.2868  142.2034  157.7561 C   0  0  0  0  0  0  0  0  0  0  0  0
  151.2647  143.6068  157.5792 C   0  0  0  0  0  0  0  0  0  0  0  0
  152.0668  144.4447  158.3761 C   0  0  0  0  0  0  0  0  0  0  0  0
  152.9110  143.8874  159.3529 C   0  0  0  0  0  0  0  0  0  0  0  0
  152.9572  142.4919  159.5244 C   0  0  0  0  0  0  0  0  0  0  0  0
  152.1555  141.6478  158.7297 C   0  0  0  0  0  0  0  0  0  0  0  0
  152.2666  139.9400  158.9772 Cl  0  0  0  0  0  0  0  0  0  0  0  0
  145.2514  137.1069  155.5940 H   0  0  0  0  0  0  0  0  0  0  0  0
  144.2922  137.4583  151.8050 H   0  0  0  0  0  0  0  0  0  0  0  0
  144.6155  135.3451  152.7639 H   0  0  0  0  0  0  0  0  0  0  0  0
  147.3689  136.0033  153.8361 H   0  0  0  0  0  0  0  0  0  0  0  0
  151.9439  139.8395  156.5111 H   0  0  0  0  0  0  0  0  0  0  0  0
  151.8030  141.0636  155.2519 H   0  0  0  0  0  0  0  0  0  0  0  0
  150.6095  139.7718  155.3676 H   0  0  0  0  0  0  0  0  0  0  0  0
  149.8424  140.6257  157.5400 H   0  0  0  0  0  0  0  0  0  0  0  0
  149.3968  143.0328  156.2314 H   0  0  0  0  0  0  0  0  0  0  0  0
  145.1208  142.2925  155.2544 H   0  0  0  0  0  0  0  0  0  0  0  0
  148.6550  136.9251  154.9462 H   0  0  0  0  0  0  0  0  0  0  0  0
  145.9762  139.2510  151.6048 H   0  0  0  0  0  0  0  0  0  0  0  0
  147.2283  138.2442  152.3111 H   0  0  0  0  0  0  0  0  0  0  0  0
  146.3207  136.8362  150.3693 H   0  0  0  0  0  0  0  0  0  0  0  0
  147.2323  135.5967  151.7642 H   0  0  0  0  0  0  0  0  0  0  0  0
  145.4645  134.2114  154.2250 H   0  0  0  0  0  0  0  0  0  0  0  0
  150.6219  144.0514  156.8336 H   0  0  0  0  0  0  0  0  0  0  0  0
  152.0331  145.5152  158.2378 H   0  0  0  0  0  0  0  0  0  0  0  0
  153.5267  144.5289  159.9659 H   0  0  0  0  0  0  0  0  0  0  0  0
  153.6132  142.0667  160.2697 H   0  0  0  0  0  0  0  0  0  0  0  0
  1  2  1  0  0  0  0
  1 33  1  0  0  0  0
  1 34  1  0  0  0  0
  1 35  1  0  0  0  0
  2  3  1  0  0  0  0
  2 22  1  0  0  0  0
  2 36  1  0  0  0  0
  3  4  1  0  0  0  0
  3 37  1  0  0  0  0
  4  9  1  0  0  0  0
  4  5  2  0  0  0  0
  5  6  1  0  0  0  0
  6  7  2  0  0  0  0
  6 38  1  0  0  0  0
  7  8  1  0  0  0  0
  8 12  1  0  0  0  0
  8  9  2  0  0  0  0
  9 10  1  0  0  0  0
 10 11  2  0  0  0  0
 11 12  1  0  0  0  0
 11 39  1  0  0  0  0
 12 13  1  0  0  0  0
 13 29  1  0  0  0  0
 13 20  1  0  0  0  0
 13 14  1  0  0  0  0
 14 15  1  0  0  0  0
 15 30  1  0  0  0  0
 15 16  1  0  0  0  0
 15 18  1  0  0  0  0
 16 17  1  0  0  0  0
 16 40  1  0  0  0  0
 16 41  1  0  0  0  0
 17 42  1  0  0  0  0
 18 31  1  0  0  0  0
 18 19  1  0  0  0  0
 18 20  1  0  0  0  0
 19 43  1  0  0  0  0
 20 32  1  0  0  0  0
 20 21  1  0  0  0  0
 21 44  1  0  0  0  0
 22 27  1  0  0  0  0
 22 23  2  0  0  0  0
 23 24  1  0  0  0  0
 23 45  1  0  0  0  0
 24 25  2  0  0  0  0
 24 46  1  0  0  0  0
 25 26  1  0  0  0  0
 25 47  1  0  0  0  0
 26 27  2  0  0  0  0
 26 48  1  0  0  0  0
 27 28  1  0  0  0  0
M  END
> <s_m_source_file>
AV-unprocessed.smi

> <i_m_source_file_index>
283

> <i_lp_mmshare_version>
43012

> <i_f3d_flags>
0

> <s_epik_input>
Q2xjMVtjSF1bY0hdW2NIXVtjSF1jMVtDQEhdKFtDSDNdKVtOSF1jKG5bY0hdbjIpYyhjMjMpbltjSF1uM1tDQEBIXTRPW0NASF0oW0NIMl1bT0hdKVtDQEBIXShbT0hdKVtDQEhdNFtPSF0=

> <s_epik_cmdline>
J2VwaWtfcHl0aG9uJywgJy1waCcsICc3LjAnLCAnLXRuJywgJzgnLCAnLW1hJywgJzIwMCcsICctbWV0YWxfYmluZGluZycsICctaW1hZScsICc8aW5maWxlLm1hZT4nLCAnLW9tYWUnLCAnPG91dGZpbGUubWFlPic=

> <r_lp_tautomer_probability>
1

> <r_epik_Ionization_Penalty>
0.000266407

> <r_epik_Ionization_Penalty_Charging>
0

> <r_epik_Ionization_Penalty_Neutral>
0.000266407

> <r_epik_State_Penalty>
-0

> <r_epik_Charging_Adjusted_Penalty>
0

> <i_epik_Tot_Q>
0

> <i_epik_Tot_abs_Q>
0

> <r_epik_Metal_State_Penalty>
-0

> <b_epik_Metal_Only>
0

> <s_epik_Chemistry_Notes>
This compound contains an acetal/aminal-like group ( X-CH(R)-Y where X, Y are N, S, or O) that may be acid/base labile, releasing an aldehyde.

> <s_lp_Force_Field>
OPLS_2005

> <r_lp_Energy>
42.7281

> <b_lp_Chiralities_Consistent>
1

> <s_lp_Variant>
AV-unprocessed.smi:283-23

> <Gold.Version>
5.8.1

> <Gold.Id.Protein>
6NUR|6NUR_protein|mol2

> <Gold.PLP.Fitness>
47.7970

> <Gold.PLP.PLP>
-41.1673

> <Gold.PLP.part.hbond>
-4.8581

> <Gold.PLP.part.metal>
0.0000

> <Gold.PLP.part.buried>
-5.5046

> <Gold.PLP.part.nonpolar>
-33.4098

> <Gold.PLP.part.repulsive>
0.5129

> <Gold.PLP.ligand.clash>
0.0000

> <Gold.PLP.ligand.torsion>
1.1905

> <Gold.PLP.Chemscore.Hbond>
2.9760

> <Gold.PLP.Chemscore.CHOScore>
0.0000

> <Gold.PLP.Chemscore.Metal>
0.0000

> <Gold.Chemscore.Hbonds>
donor molecule, donor type, donor heavy atom, donor atom, acceptor molecule, acceptor atom, score
      L1  H     3    37       P1  8028  0.99
      L1  H    19    43       P1  7948  1.00
      P1  H  7954  7966       L1    17  0.93

> <Gold.PLP.Chemscore.Internal.Correction>
0.0828

> <Gold.Rescore>
     Score         DG    S(hbond)    S(metal)    S(lipo)     H(rot)  DE(clash)    DE(int)     intcor
     13.36     -17.07       2.91        0.00     105.64       4.10       0.07       3.65       ----

> <Gold.Chemscore.Fitness>
13.3590

> <Gold.Chemscore.DG>
-17.0696

> <Gold.Chemscore.ZeroCoef>
-5.4800

> <Gold.Chemscore.Hbond>
2.9095

> <Gold.Chemscore.Metal>
0.0000

> <Gold.Chemscore.Lipo>
105.6406

> <Gold.Chemscore.Internal_Hbond>
0.0000

> <Gold.Chemscore.DEClash>
0.0650

> <Gold.Chemscore.DEInternal>
3.6456

> <Gold.Chemscore.Rot>
4.0968

> <Gold.Chemscore.Internal.Correction>
   9.000000E+99

> <Gold.Chemscore.Hbonds>
donor molecule, donor type, donor heavy atom, donor atom, acceptor molecule, acceptor atom, score
      L1  H     3    37       P1  8028  0.94
      L1  H    19    43       P1  7948  1.00
      P1  H  7954  7966       L1    17  0.60

> <Gold.Chemscore.Hbond.Weighted>
-9.7176

> <Gold.Chemscore.Metal.Weighted>
-0.0000

> <Gold.Chemscore.Lipo.Weighted>
-12.3600

> <Gold.Chemscore.Internal_Hbond.Weighted>
0.0000

> <Gold.Chemscore.DEClash.Weighted>
0.0650

> <Gold.Chemscore.DEInternal.Weighted>
3.6456

> <Gold.Chemscore.Rot.Weighted>
10.4879

> <Gold.Chemscore.Internal.Correction.Weighted>
   9.000000E+99

> <Gold.Protein.RotatedTorsions>
[ 6907 6896 6895 6894 ] final  128.10 input  -60.11 | X-H torsion
[ 7974 7965 7964 7962 ] final  -44.13 input  175.53 | X-H torsion
[ 8008 7997 7996 7995 ] final   11.28 input   59.86 | X-H torsion
[ 10167 10162 10161 10158 ] final   83.71 input  -65.29 | X-H torsion
[ 10718 10713 10712 10709 ] final   83.78 input   66.30 | X-H torsion
[ 10763 10752 10751 10750 ] final  106.09 input  -60.55 | X-H torsion
[ 11005 11000 10999 10996 ] final  174.75 input  -57.11 | X-H torsion

> <Gold.Protein.ActiveResidues>
 VAL166  LYS551  ARG553  GLY616  TRP617  ASP618  TYR619  PRO620  LYS621  CYS622 
 ASP623  PHE694  ASN695  SER759  ASP760  ASP761  ALA762  ILE779  LEU786  VAL792 
 PHE793  MET794  SER795  GLU796  ALA797  LYS798  CYS799  TRP800  GLU811  SER814 

> <Gold.Protein.RotatedAtoms>
  152.3751  133.6470  159.6117 H   0  0  0  0  0  0  0  0  0  0  0  0  # atno 6907 bound_to 6896
  150.7698  133.9206  159.3406 H   0  0  0  0  0  0  0  0  0  0  0  0  # atno 6908 bound_to 6896
  151.7022  135.0929  160.0304 H   0  0  0  0  0  0  0  0  0  0  0  0  # atno 6909 bound_to 6896
  145.9951  140.7138  142.9298 H   0  0  0  0  0  0  0  0  0  0  0  0  # atno 7974 bound_to 7965
  154.8047  140.2858  155.5896 H   0  0  0  0  0  0  0  0  0  0  0  0  # atno 8008 bound_to 7997
  156.2981  140.2579  156.2853 H   0  0  0  0  0  0  0  0  0  0  0  0  # atno 8009 bound_to 7997
  154.9516  140.0379  157.2136 H   0  0  0  0  0  0  0  0  0  0  0  0  # atno 8010 bound_to 7997
  139.9155  144.6245  150.8493 H   0  0  0  0  0  0  0  0  0  0  0  0  # atno 10167 bound_to 10162
  157.6885  131.0105  150.2574 H   0  0  0  0  0  0  0  0  0  0  0  0  # atno 10718 bound_to 10713
  153.3883  135.3888  155.1905 H   0  0  0  0  0  0  0  0  0  0  0  0  # atno 10763 bound_to 10752
  154.8716  135.3742  154.4770 H   0  0  0  0  0  0  0  0  0  0  0  0  # atno 10764 bound_to 10752
  153.5254  135.7086  153.5771 H   0  0  0  0  0  0  0  0  0  0  0  0  # atno 10765 bound_to 10752
  140.3547  134.7165  157.4291 H   0  0  0  0  0  0  0  0  0  0  0  0  # atno 11005 bound_to 11000
  144.6901  140.3136  143.7244 LP  0  0  0  0  0  0  0  0  0  0  0  0  # atno 17320 bound_to 7965
  145.7572  139.1813  143.2287 LP  0  0  0  0  0  0  0  0  0  0  0  0  # atno 17321 bound_to 7965
  140.7675  143.3334  151.2360 LP  0  0  0  0  0  0  0  0  0  0  0  0  # atno 17342 bound_to 10162
  139.6906  143.9699  152.2857 LP  0  0  0  0  0  0  0  0  0  0  0  0  # atno 17343 bound_to 10162
  156.3159  130.3779  149.7618 LP  0  0  0  0  0  0  0  0  0  0  0  0  # atno 17370 bound_to 10713
  156.5204  130.8212  151.3201 LP  0  0  0  0  0  0  0  0  0  0  0  0  # atno 17371 bound_to 10713
  140.0675  134.5909  155.8679 LP  0  0  0  0  0  0  0  0  0  0  0  0  # atno 17394 bound_to 11000
  141.2002  133.6611  156.5883 LP  0  0  0  0  0  0  0  0  0  0  0  0  # atno 17395 bound_to 11000

$$$$
