AV-unprocessed.smi:2442|AV-procd|sdf|9627|dock5
  -GOLD-   2272013263D 1   1.00000     0.00000
 Structure written by MMmdl.
 47 48  0  0  0  0  0  0  0  0  2 V2000
  144.9751  134.9846  150.7853 C   0  0  0  0  0  0  0  0  0  0  0  0
  145.5848  134.7763  152.0493 O   0  0  0  0  0  0  0  0  0  0  0  0
  146.3266  133.5658  152.1509 C   0  0  2  0  0  0  0  0  0  0  0  0
  145.3740  132.3577  152.0244 C   0  0  0  0  0  0  0  0  0  0  0  0
  146.1032  131.0294  152.2742 C   0  0  0  0  0  0  0  0  0  0  0  0
  146.7943  131.0305  153.6443 C   0  0  0  0  0  0  0  0  0  0  0  0
  147.7604  132.2174  153.7709 C   0  0  0  0  0  0  0  0  0  0  0  0
  147.0497  133.5614  153.5180 C   0  0  1  0  0  0  0  0  0  0  0  0
  148.0417  134.6333  153.5645 N   0  0  0  0  0  0  0  0  0  0  0  0
  148.5842  135.1447  154.6781 C   0  0  0  0  0  0  0  0  0  0  0  0
  148.3278  134.7566  155.8182 O   0  0  0  0  0  0  0  0  0  0  0  0
  149.4386  136.1397  154.4019 N   0  0  0  0  0  0  0  0  0  0  0  0
  150.1853  136.8925  155.4026 C   0  0  0  0  0  0  0  0  0  0  0  0
  151.0726  137.9717  154.7578 C   0  0  0  0  0  0  0  0  0  0  0  0
  150.5849  139.3776  155.0711 C   0  0  0  0  0  0  0  0  0  0  0  0
  151.4042  140.2364  155.8380 C   0  0  0  0  0  0  0  0  0  0  0  0
  150.9575  141.5388  156.1366 C   0  0  0  0  0  0  0  0  0  0  0  0
  149.7538  141.9539  155.6894 N   0  3  0  0  0  0  0  0  0  0  0  0
  148.9365  141.1693  154.9549 C   0  0  0  0  0  0  0  0  0  0  0  0
  149.3248  139.8530  154.6218 C   0  0  0  0  0  0  0  0  0  0  0  0
  148.3895  138.9890  153.7938 C   0  0  0  0  0  0  0  0  0  0  0  0
  144.4479  135.9384  150.7910 H   0  0  0  0  0  0  0  0  0  0  0  0
  144.2492  134.2069  150.5490 H   0  0  0  0  0  0  0  0  0  0  0  0
  145.7209  135.0213  149.9903 H   0  0  0  0  0  0  0  0  0  0  0  0
  147.0796  133.5187  151.3614 H   0  0  0  0  0  0  0  0  0  0  0  0
  144.5575  132.4617  152.7404 H   0  0  0  0  0  0  0  0  0  0  0  0
  144.9155  132.3316  151.0364 H   0  0  0  0  0  0  0  0  0  0  0  0
  145.3968  130.2011  152.2148 H   0  0  0  0  0  0  0  0  0  0  0  0
  146.8429  130.8634  151.4897 H   0  0  0  0  0  0  0  0  0  0  0  0
  146.0436  131.0825  154.4340 H   0  0  0  0  0  0  0  0  0  0  0  0
  147.3341  130.0945  153.7903 H   0  0  0  0  0  0  0  0  0  0  0  0
  148.2128  132.2157  154.7636 H   0  0  0  0  0  0  0  0  0  0  0  0
  148.5779  132.0909  153.0594 H   0  0  0  0  0  0  0  0  0  0  0  0
  146.3087  133.6998  154.3081 H   0  0  0  0  0  0  0  0  0  0  0  0
  148.3222  135.0261  152.6781 H   0  0  0  0  0  0  0  0  0  0  0  0
  149.5855  136.3892  153.4346 H   0  0  0  0  0  0  0  0  0  0  0  0
  149.4913  137.3374  156.1171 H   0  0  0  0  0  0  0  0  0  0  0  0
  150.8017  136.1922  155.9673 H   0  0  0  0  0  0  0  0  0  0  0  0
  152.0973  137.8646  155.1164 H   0  0  0  0  0  0  0  0  0  0  0  0
  151.1262  137.8347  153.6777 H   0  0  0  0  0  0  0  0  0  0  0  0
  152.3668  139.9013  156.1962 H   0  0  0  0  0  0  0  0  0  0  0  0
  151.5223  142.2550  156.7151 H   0  0  0  0  0  0  0  0  0  0  0  0
  147.9995  141.6177  154.6579 H   0  0  0  0  0  0  0  0  0  0  0  0
  147.4249  139.4773  153.6519 H   0  0  0  0  0  0  0  0  0  0  0  0
  148.2076  138.0315  154.2817 H   0  0  0  0  0  0  0  0  0  0  0  0
  148.8180  138.8000  152.8093 H   0  0  0  0  0  0  0  0  0  0  0  0
  149.4482  142.9009  155.9158 H   0  0  0  0  0  0  0  0  0  0  0  0
  1  2  1  0  0  0  0
  1 22  1  0  0  0  0
  1 23  1  0  0  0  0
  1 24  1  0  0  0  0
  2  3  1  0  0  0  0
  3  8  1  0  0  0  0
  3  4  1  0  0  0  0
  3 25  1  0  0  0  0
  4  5  1  0  0  0  0
  4 26  1  0  0  0  0
  4 27  1  0  0  0  0
  5  6  1  0  0  0  0
  5 28  1  0  0  0  0
  5 29  1  0  0  0  0
  6  7  1  0  0  0  0
  6 30  1  0  0  0  0
  6 31  1  0  0  0  0
  7  8  1  0  0  0  0
  7 32  1  0  0  0  0
  7 33  1  0  0  0  0
  8  9  1  0  0  0  0
  8 34  1  0  0  0  0
  9 10  1  0  0  0  0
  9 35  1  0  0  0  0
 10 11  2  0  0  0  0
 10 12  1  0  0  0  0
 12 13  1  0  0  0  0
 12 36  1  0  0  0  0
 13 14  1  0  0  0  0
 13 37  1  0  0  0  0
 13 38  1  0  0  0  0
 14 15  1  0  0  0  0
 14 39  1  0  0  0  0
 14 40  1  0  0  0  0
 15 20  1  0  0  0  0
 15 16  2  0  0  0  0
 16 17  1  0  0  0  0
 16 41  1  0  0  0  0
 17 18  2  0  0  0  0
 17 42  1  0  0  0  0
 18 19  1  0  0  0  0
 18 47  1  0  0  0  0
 19 20  2  0  0  0  0
 19 43  1  0  0  0  0
 20 21  1  0  0  0  0
 21 44  1  0  0  0  0
 21 45  1  0  0  0  0
 21 46  1  0  0  0  0
M  CHG  1  18   1
M  END
> <s_m_source_file>
AV-unprocessed.smi

> <i_m_source_file_index>
2442

> <i_lp_mmshare_version>
43012

> <i_f3d_flags>
0

> <s_epik_input>
W0NIM11PW0NAQEhdMVtDSDJdW0NIMl1bQ0gyXVtDSDJdW0NASF0xW05IXUMoPU8pW05IXVtDSDJdW0NIMl1jMltjSF1bY0hdbltjSF1jMltDSDNd

> <s_epik_cmdline>
J2VwaWtfcHl0aG9uJywgJy1waCcsICc3LjAnLCAnLXRuJywgJzgnLCAnLW1hJywgJzIwMCcsICctbWV0YWxfYmluZGluZycsICctaW1hZScsICc8aW5maWxlLm1hZT4nLCAnLW9tYWUnLCAnPG91dGZpbGUubWFlPic=

> <r_epik_Ionization_Penalty>
1.07145

> <r_epik_Ionization_Penalty_Charging>
1.0714

> <r_epik_Ionization_Penalty_Neutral>
4.9109e-05

> <r_epik_State_Penalty>
1.12601

> <r_epik_Charging_Adjusted_Penalty>
2.19741

> <i_epik_Tot_Q>
1

> <i_epik_Tot_abs_Q>
1

> <r_epik_Metal_State_Penalty>
1.2173

> <b_epik_Metal_Only>
0

> <s_lp_Force_Field>
OPLS_2005

> <r_lp_Energy>
14.7728

> <b_lp_Chiralities_Consistent>
1

> <s_lp_Variant>
AV-unprocessed.smi:2442-5

> <Gold.Version>
5.8.1

> <Gold.Id.Protein>
6NUR|6NUR_protein|mol2

> <Gold.PLP.Fitness>
44.7257

> <Gold.PLP.PLP>
-34.2271

> <Gold.PLP.part.hbond>
-2.8304

> <Gold.PLP.part.metal>
0.0000

> <Gold.PLP.part.buried>
-2.2619

> <Gold.PLP.part.nonpolar>
-29.0170

> <Gold.PLP.part.repulsive>
0.3206

> <Gold.PLP.ligand.clash>
0.0000

> <Gold.PLP.ligand.torsion>
0.6304

> <Gold.PLP.Chemscore.Hbond>
3.9120

> <Gold.PLP.Chemscore.CHOScore>
0.0000

> <Gold.PLP.Chemscore.Metal>
0.0000

> <Gold.Chemscore.Hbonds>
donor molecule, donor type, donor heavy atom, donor atom, acceptor molecule, acceptor atom, score
      L1  H     9    35       P1  7948  1.00
      L1  H    12    36       P1  7948  0.91
      L1  H    18    47       P1  8028  2.00

> <Gold.PLP.Chemscore.Internal.Correction>
0.0233

> <Gold.Rescore>
     Score         DG    S(hbond)    S(metal)    S(lipo)     H(rot)  DE(clash)    DE(int)     intcor
     19.55     -20.12       2.81        0.00      82.74       1.72       0.02       0.55       ----

> <Gold.Chemscore.Fitness>
19.5464

> <Gold.Chemscore.DG>
-20.1179

> <Gold.Chemscore.ZeroCoef>
-5.4800

> <Gold.Chemscore.Hbond>
2.8060

> <Gold.Chemscore.Metal>
0.0000

> <Gold.Chemscore.Lipo>
82.7376

> <Gold.Chemscore.Internal_Hbond>
0.0000

> <Gold.Chemscore.DEClash>
0.0166

> <Gold.Chemscore.DEInternal>
0.5548

> <Gold.Chemscore.Rot>
1.7244

> <Gold.Chemscore.Internal.Correction>
   9.000000E+99

> <Gold.Chemscore.Hbonds>
donor molecule, donor type, donor heavy atom, donor atom, acceptor molecule, acceptor atom, score
      L1  H     9    35       P1  7948  0.64
      L1  H    12    36       P1  7948  0.44
      L1  H    18    47       P1  8028  0.99

> <Gold.Chemscore.Hbond.Weighted>
-9.3720

> <Gold.Chemscore.Metal.Weighted>
-0.0000

> <Gold.Chemscore.Lipo.Weighted>
-9.6803

> <Gold.Chemscore.Internal_Hbond.Weighted>
0.0000

> <Gold.Chemscore.DEClash.Weighted>
0.0166

> <Gold.Chemscore.DEInternal.Weighted>
0.5548

> <Gold.Chemscore.Rot.Weighted>
4.4145

> <Gold.Chemscore.Internal.Correction.Weighted>
   9.000000E+99

> <Gold.Protein.RotatedTorsions>
[ 6907 6896 6895 6894 ] final  -12.32 input  -60.11 | X-H torsion
[ 7974 7965 7964 7962 ] final  -49.39 input  175.53 | X-H torsion
[ 8008 7997 7996 7995 ] final -150.00 input   59.86 | X-H torsion
[ 10167 10162 10161 10158 ] final  113.04 input  -65.29 | X-H torsion
[ 10718 10713 10712 10709 ] final  176.21 input   66.30 | X-H torsion
[ 10763 10752 10751 10750 ] final   94.72 input  -60.55 | X-H torsion
[ 11005 11000 10999 10996 ] final  105.04 input  -57.11 | X-H torsion

> <Gold.Protein.ActiveResidues>
 VAL166  LYS551  ARG553  GLY616  TRP617  ASP618  TYR619  PRO620  LYS621  CYS622 
 ASP623  PHE694  ASN695  SER759  ASP760  ASP761  ALA762  ILE779  LEU786  VAL792 
 PHE793  MET794  SER795  GLU796  ALA797  LYS798  CYS799  TRP800  GLU811  SER814 

> <Gold.Protein.RotatedAtoms>
  151.3724  135.0925  159.9469 H   0  0  0  0  0  0  0  0  0  0  0  0  # atno 6907 bound_to 6896
  152.5132  133.9152  159.7518 H   0  0  0  0  0  0  0  0  0  0  0  0  # atno 6908 bound_to 6896
  150.9568  133.6433  159.2790 H   0  0  0  0  0  0  0  0  0  0  0  0  # atno 6909 bound_to 6896
  145.9410  140.7662  142.9552 H   0  0  0  0  0  0  0  0  0  0  0  0  # atno 7974 bound_to 7965
  155.6167  140.0677  157.2690 H   0  0  0  0  0  0  0  0  0  0  0  0  # atno 8008 bound_to 7997
  154.4239  140.1792  156.1377 H   0  0  0  0  0  0  0  0  0  0  0  0  # atno 8009 bound_to 7997
  156.0042  140.3333  155.6879 H   0  0  0  0  0  0  0  0  0  0  0  0  # atno 8010 bound_to 7997
  139.6491  144.7128  151.2084 H   0  0  0  0  0  0  0  0  0  0  0  0  # atno 10167 bound_to 10162
  156.9235  130.9948  151.3000 H   0  0  0  0  0  0  0  0  0  0  0  0  # atno 10718 bound_to 10713
  153.2448  135.4280  155.0736 H   0  0  0  0  0  0  0  0  0  0  0  0  # atno 10763 bound_to 10752
  154.8356  135.3411  154.6597 H   0  0  0  0  0  0  0  0  0  0  0  0  # atno 10764 bound_to 10752
  153.7019  135.7028  153.5117 H   0  0  0  0  0  0  0  0  0  0  0  0  # atno 10765 bound_to 10752
  139.8798  134.9321  156.5453 H   0  0  0  0  0  0  0  0  0  0  0  0  # atno 11005 bound_to 11000
  144.6779  140.2281  143.7358 LP  0  0  0  0  0  0  0  0  0  0  0  0  # atno 17320 bound_to 7965
  145.8299  139.2081  143.1889 LP  0  0  0  0  0  0  0  0  0  0  0  0  # atno 17321 bound_to 7965
  140.7529  143.6181  150.8540 LP  0  0  0  0  0  0  0  0  0  0  0  0  # atno 17342 bound_to 10162
  139.9827  143.5934  152.2937 LP  0  0  0  0  0  0  0  0  0  0  0  0  # atno 17343 bound_to 10162
  157.5893  130.8432  149.8635 LP  0  0  0  0  0  0  0  0  0  0  0  0  # atno 17370 bound_to 10713
  156.0480  130.3723  150.1270 LP  0  0  0  0  0  0  0  0  0  0  0  0  # atno 17371 bound_to 10713
  140.8280  133.8301  155.8958 LP  0  0  0  0  0  0  0  0  0  0  0  0  # atno 17394 bound_to 11000
  140.9355  134.1967  157.4834 LP  0  0  0  0  0  0  0  0  0  0  0  0  # atno 17395 bound_to 11000

$$$$
