AV-unprocessed.smi:1803|AV-procd|sdf|7289|dock7
  -GOLD-   22720 8543D 1   1.00000     0.00000
 Structure written by MMmdl.
 35 37  0  0  0  0  0  0  0  0  3 V2000
  155.6687  139.4682  159.2812 O   0  0  0  0  0  0  0  0  0  0  0  0
  154.7323  139.4023  158.4860 C   0  0  0  0  0  0  0  0  0  0  0  0
  154.5604  138.3732  157.6162 N   0  5  0  0  0  0  0  0  0  0  0  0
  154.2718  138.5634  156.3151 C   0  0  0  0  0  0  0  0  0  0  0  0
  153.8610  139.7474  155.8327 N   0  0  0  0  0  0  0  0  0  0  0  0
  153.6261  139.7272  154.4646 N   0  0  0  0  0  0  0  0  0  0  0  0
  153.8568  138.5198  153.9495 C   0  0  0  0  0  0  0  0  0  0  0  0
  154.3875  137.2997  155.0878 S   0  0  0  0  0  0  0  0  0  0  0  0
  153.8235  140.3951  158.4694 N   0  0  0  0  0  0  0  0  0  0  0  0
  153.8369  141.5804  159.3174 C   0  0  2  0  0  0  0  0  0  0  0  0
  153.6943  141.2785  160.8217 C   0  0  0  0  0  0  0  0  0  0  0  0
  152.7947  142.3994  161.3788 C   0  0  0  0  0  0  0  0  0  0  0  0
  152.5584  143.3106  160.2423 N   0  3  2  0  0  0  0  0  0  0  0  0
  151.3388  144.1460  160.2871 C   0  0  0  0  0  0  0  0  0  0  0  0
  151.3132  145.0757  159.0566 C   0  0  0  0  0  0  0  0  0  0  0  0
  151.4738  144.2884  157.7393 C   0  0  0  0  0  0  0  0  0  0  0  0
  152.7093  143.3690  157.7882 C   0  0  0  0  0  0  0  0  0  0  0  0
  152.6322  142.4743  159.0356 C   0  0  1  0  0  0  0  0  0  0  0  0
  153.7130  138.3464  152.8935 H   0  0  0  0  0  0  0  0  0  0  0  0
  153.0623  140.3130  157.8113 H   0  0  0  0  0  0  0  0  0  0  0  0
  154.7531  142.1496  159.1465 H   0  0  0  0  0  0  0  0  0  0  0  0
  153.2228  140.3090  160.9896 H   0  0  0  0  0  0  0  0  0  0  0  0
  154.6689  141.2570  161.3107 H   0  0  0  0  0  0  0  0  0  0  0  0
  151.8498  141.9805  161.7283 H   0  0  0  0  0  0  0  0  0  0  0  0
  153.2582  142.9306  162.2103 H   0  0  0  0  0  0  0  0  0  0  0  0
  150.4527  143.5095  160.3037 H   0  0  0  0  0  0  0  0  0  0  0  0
  151.3316  144.7348  161.2049 H   0  0  0  0  0  0  0  0  0  0  0  0
  150.3851  145.6477  159.0396 H   0  0  0  0  0  0  0  0  0  0  0  0
  152.1212  145.8037  159.1390 H   0  0  0  0  0  0  0  0  0  0  0  0
  150.5807  143.6864  157.5662 H   0  0  0  0  0  0  0  0  0  0  0  0
  151.5506  144.9766  156.8970 H   0  0  0  0  0  0  0  0  0  0  0  0
  152.7596  142.7574  156.8866 H   0  0  0  0  0  0  0  0  0  0  0  0
  153.6191  143.9704  157.8113 H   0  0  0  0  0  0  0  0  0  0  0  0
  151.7316  141.8572  158.9855 H   0  0  0  0  0  0  0  0  0  0  0  0
  153.3522  143.9339  160.2046 H   0  0  0  0  0  0  0  0  0  0  0  0
  1  2  2  0  0  0  0
  2  3  1  0  0  0  0
  2  9  1  0  0  0  0
  3  4  1  0  0  0  0
  4  8  1  0  0  0  0
  4  5  2  0  0  0  0
  5  6  1  0  0  0  0
  6  7  2  0  0  0  0
  7  8  1  0  0  0  0
  7 19  1  0  0  0  0
  9 10  1  0  0  0  0
  9 20  1  0  0  0  0
 10 18  1  0  0  0  0
 10 11  1  0  0  0  0
 10 21  1  0  0  0  0
 11 12  1  0  0  0  0
 11 22  1  0  0  0  0
 11 23  1  0  0  0  0
 12 13  1  0  0  0  0
 12 24  1  0  0  0  0
 12 25  1  0  0  0  0
 13 18  1  0  0  0  0
 13 14  1  0  0  0  0
 13 35  1  0  0  0  0
 14 15  1  0  0  0  0
 14 26  1  0  0  0  0
 14 27  1  0  0  0  0
 15 16  1  0  0  0  0
 15 28  1  0  0  0  0
 15 29  1  0  0  0  0
 16 17  1  0  0  0  0
 16 30  1  0  0  0  0
 16 31  1  0  0  0  0
 17 18  1  0  0  0  0
 17 32  1  0  0  0  0
 17 33  1  0  0  0  0
 18 34  1  0  0  0  0
M  CHG  1   3  -1
M  CHG  1  13   1
M  END
> <s_m_source_file>
AV-unprocessed.smi

> <i_m_source_file_index>
1803

> <i_lp_mmshare_version>
43012

> <i_f3d_flags>
0

> <s_epik_input>
czFbY0hdbm5jMVtOSF1DKD1PKVtOSF1bQ0BIXShbQ0gyXVtDSDJdMilbQ0BASF0oTjIzKVtDSDJdW0NIMl1bQ0gyXVtDSDJdMw==

> <s_epik_cmdline>
J2VwaWtfcHl0aG9uJywgJy1waCcsICc3LjAnLCAnLXRuJywgJzgnLCAnLW1hJywgJzIwMCcsICctbWV0YWxfYmluZGluZycsICctaW1hZScsICc8aW5maWxlLm1hZT4nLCAnLW9tYWUnLCAnPG91dGZpbGUubWFlPic=

> <r_lp_tautomer_probability>
1

> <r_epik_Ionization_Penalty>
3.78828

> <r_epik_Ionization_Penalty_Charging>
3.7591

> <r_epik_Ionization_Penalty_Neutral>
0.0291838

> <r_epik_State_Penalty>
3.757

> <r_epik_Charging_Adjusted_Penalty>
7.51609

> <i_epik_Tot_Q>
0

> <i_epik_Tot_abs_Q>
2

> <r_epik_Metal_State_Penalty>
0.558016

> <b_epik_Metal_Only>
1

> <s_lp_Force_Field>
OPLS_2005

> <r_lp_Energy>
28.5802

> <b_lp_Chiralities_Consistent>
1

> <s_lp_Variant>
AV-unprocessed.smi:1803-11

> <Gold.Version>
5.8.1

> <Gold.Id.Protein>
6NUR|6NUR_protein|mol2

> <Gold.PLP.Fitness>
47.6581

> <Gold.PLP.PLP>
-39.8501

> <Gold.PLP.part.hbond>
-2.0000

> <Gold.PLP.part.metal>
0.0000

> <Gold.PLP.part.buried>
-4.8674

> <Gold.PLP.part.nonpolar>
-33.4174

> <Gold.PLP.part.repulsive>
0.1978

> <Gold.PLP.ligand.clash>
0.0000

> <Gold.PLP.ligand.torsion>
0.4450

> <Gold.PLP.Chemscore.Hbond>
1.8960

> <Gold.PLP.Chemscore.CHOScore>
1.0000

> <Gold.PLP.Chemscore.Metal>
0.0000

> <Gold.PLP.Chemscore.Internal.Correction>
0.0099

> <Gold.Rescore>
     Score         DG    S(hbond)    S(metal)    S(lipo)     H(rot)  DE(clash)    DE(int)     intcor
     17.03     -17.77       0.90        0.00     101.13       1.00       0.14       0.61       ----

> <Gold.Chemscore.Fitness>
17.0277

> <Gold.Chemscore.DG>
-17.7744

> <Gold.Chemscore.ZeroCoef>
-5.4800

> <Gold.Chemscore.Hbond>
0.9050

> <Gold.Chemscore.Metal>
0.0000

> <Gold.Chemscore.Lipo>
101.1268

> <Gold.Chemscore.Internal_Hbond>
0.0000

> <Gold.Chemscore.DEClash>
0.1396

> <Gold.Chemscore.DEInternal>
0.6071

> <Gold.Chemscore.Rot>
1.0000

> <Gold.Chemscore.Internal.Correction>
   9.000000E+99

> <Gold.Chemscore.Hbonds>
donor molecule, donor type, donor heavy atom, donor atom, acceptor molecule, acceptor atom, score
      P1  H  7989  7998       L1     6  0.01

> <Gold.Chemscore.Hbond.Weighted>
-3.0226

> <Gold.Chemscore.Metal.Weighted>
-0.0000

> <Gold.Chemscore.Lipo.Weighted>
-11.8318

> <Gold.Chemscore.Internal_Hbond.Weighted>
0.0000

> <Gold.Chemscore.DEClash.Weighted>
0.1396

> <Gold.Chemscore.DEInternal.Weighted>
0.6071

> <Gold.Chemscore.Rot.Weighted>
2.5600

> <Gold.Chemscore.Internal.Correction.Weighted>
   9.000000E+99

> <Gold.Protein.RotatedTorsions>
[ 6907 6896 6895 6894 ] final -170.48 input  -60.11 | X-H torsion
[ 7974 7965 7964 7962 ] final    4.08 input  175.53 | X-H torsion
[ 8008 7997 7996 7995 ] final  -14.04 input   59.86 | X-H torsion
[ 10167 10162 10161 10158 ] final   20.26 input  -65.29 | X-H torsion
[ 10718 10713 10712 10709 ] final   12.06 input   66.30 | X-H torsion
[ 10763 10752 10751 10750 ] final  145.47 input  -60.55 | X-H torsion
[ 11005 11000 10999 10996 ] final    5.74 input  -57.11 | X-H torsion

> <Gold.Protein.ActiveResidues>
 VAL166  LYS551  ARG553  GLY616  TRP617  ASP618  TYR619  PRO620  LYS621  CYS622 
 ASP623  PHE694  ASN695  SER759  ASP760  ASP761  ALA762  ILE779  LEU786  VAL792 
 PHE793  MET794  SER795  GLU796  ALA797  LYS798  CYS799  TRP800  GLU811  SER814 

> <Gold.Protein.RotatedAtoms>
  151.5084  133.3490  159.2880 H   0  0  0  0  0  0  0  0  0  0  0  0  # atno 6907 bound_to 6896
  150.8728  134.8107  159.7178 H   0  0  0  0  0  0  0  0  0  0  0  0  # atno 6908 bound_to 6896
  152.4710  134.4970  159.9765 H   0  0  0  0  0  0  0  0  0  0  0  0  # atno 6909 bound_to 6896
  146.2444  140.0589  142.8370 H   0  0  0  0  0  0  0  0  0  0  0  0  # atno 7974 bound_to 7965
  154.5242  140.2233  155.8920 H   0  0  0  0  0  0  0  0  0  0  0  0  # atno 8008 bound_to 7997
  156.1695  140.3125  155.8914 H   0  0  0  0  0  0  0  0  0  0  0  0  # atno 8009 bound_to 7997
  155.3586  140.0460  157.3037 H   0  0  0  0  0  0  0  0  0  0  0  0  # atno 8010 bound_to 7997
  140.5517  143.9497  150.6582 H   0  0  0  0  0  0  0  0  0  0  0  0  # atno 10167 bound_to 10162
  157.0046  130.6093  149.5700 H   0  0  0  0  0  0  0  0  0  0  0  0  # atno 10718 bound_to 10713
  154.0060  135.2919  155.3397 H   0  0  0  0  0  0  0  0  0  0  0  0  # atno 10763 bound_to 10752
  154.7131  135.5141  153.8700 H   0  0  0  0  0  0  0  0  0  0  0  0  # atno 10764 bound_to 10752
  153.0744  135.6658  154.0296 H   0  0  0  0  0  0  0  0  0  0  0  0  # atno 10765 bound_to 10752
  140.5673  134.0136  155.7994 H   0  0  0  0  0  0  0  0  0  0  0  0  # atno 11005 bound_to 11000
  145.0918  140.9289  143.4765 LP  0  0  0  0  0  0  0  0  0  0  0  0  # atno 17320 bound_to 7965
  145.0763  139.2993  143.5806 LP  0  0  0  0  0  0  0  0  0  0  0  0  # atno 17321 bound_to 7965
  140.2925  143.3315  152.1049 LP  0  0  0  0  0  0  0  0  0  0  0  0  # atno 17342 bound_to 10162
  139.5030  144.6747  151.6158 LP  0  0  0  0  0  0  0  0  0  0  0  0  # atno 17343 bound_to 10162
  156.0158  130.5252  150.8131 LP  0  0  0  0  0  0  0  0  0  0  0  0  # atno 17370 bound_to 10713
  157.5365  131.0939  150.9885 LP  0  0  0  0  0  0  0  0  0  0  0  0  # atno 17371 bound_to 10713
  141.1078  133.9665  157.2965 LP  0  0  0  0  0  0  0  0  0  0  0  0  # atno 17394 bound_to 11000
  139.9379  135.0194  156.8614 LP  0  0  0  0  0  0  0  0  0  0  0  0  # atno 17395 bound_to 11000

$$$$
