AV-unprocessed.smi:2357|AV-procd|sdf|9402|dock3
  -GOLD-   2272013 33D 1   1.00000     0.00000
 Structure written by MMmdl.
 37 38  0  0  0  0  0  0  0  0  1 V2000
  152.0527  143.5495  160.7831 C   0  0  0  0  0  0  0  0  0  0  0  0
  151.8599  142.7574  159.5032 C   0  0  0  0  0  0  0  0  0  0  0  0
  151.1031  143.3244  158.4065 C   0  0  0  0  0  0  0  0  0  0  0  0
  150.9424  142.6110  157.2822 C   0  0  0  0  0  0  0  0  0  0  0  0
  151.4878  141.3237  157.1330 N   0  0  0  0  0  0  0  0  0  0  0  0
  151.2502  140.6452  155.8475 C   0  0  0  0  0  0  0  0  0  0  0  0
  149.8358  140.8621  155.2895 C   0  0  0  0  0  0  0  0  0  0  0  0
  149.6590  141.3485  154.1712 O   0  0  0  0  0  0  0  0  0  0  0  0
  148.8281  140.4918  156.0939 N   0  0  0  0  0  0  0  0  0  0  0  0
  147.4104  140.6153  155.7747 C   0  0  0  0  0  0  0  0  0  0  0  0
  147.0337  142.0568  155.3927 C   0  0  1  0  0  0  0  0  0  0  0  0
  146.8975  142.2789  153.8896 C   0  0  0  0  0  0  0  0  0  0  0  0
  146.0568  143.5353  153.8465 C   0  0  0  0  0  0  0  0  0  0  0  0
  145.1250  143.3538  155.0454 C   0  0  0  0  0  0  0  0  0  0  0  0
  145.7485  142.3974  155.9006 O   0  0  0  0  0  0  0  0  0  0  0  0
  152.2174  140.7278  158.1238 C   0  0  0  0  0  0  0  0  0  0  0  0
  152.6998  139.6022  157.9846 O   0  0  0  0  0  0  0  0  0  0  0  0
  152.3860  141.5180  159.3540 C   0  0  0  0  0  0  0  0  0  0  0  0
  153.1454  140.8950  160.3900 C   0  0  0  0  0  0  0  0  0  0  0  0
  153.7656  140.4111  161.2393 N   0  0  0  0  0  0  0  0  0  0  0  0
  151.5472  144.5142  160.7298 H   0  0  0  0  0  0  0  0  0  0  0  0
  153.1128  143.7327  160.9611 H   0  0  0  0  0  0  0  0  0  0  0  0
  151.6483  143.0029  161.6356 H   0  0  0  0  0  0  0  0  0  0  0  0
  150.6742  144.3128  158.4856 H   0  0  0  0  0  0  0  0  0  0  0  0
  150.3952  142.9810  156.4271 H   0  0  0  0  0  0  0  0  0  0  0  0
  151.9753  140.9713  155.0998 H   0  0  0  0  0  0  0  0  0  0  0  0
  151.4192  139.5726  155.9562 H   0  0  0  0  0  0  0  0  0  0  0  0
  149.0584  140.1026  156.9968 H   0  0  0  0  0  0  0  0  0  0  0  0
  147.1568  139.9314  154.9631 H   0  0  0  0  0  0  0  0  0  0  0  0
  146.8330  140.2941  156.6419 H   0  0  0  0  0  0  0  0  0  0  0  0
  147.7607  142.7661  155.7923 H   0  0  0  0  0  0  0  0  0  0  0  0
  147.8586  142.3892  153.3865 H   0  0  0  0  0  0  0  0  0  0  0  0
  146.3589  141.4516  153.4253 H   0  0  0  0  0  0  0  0  0  0  0  0
  146.6911  144.4101  153.9961 H   0  0  0  0  0  0  0  0  0  0  0  0
  145.5216  143.6607  152.9047 H   0  0  0  0  0  0  0  0  0  0  0  0
  144.9552  144.2943  155.5701 H   0  0  0  0  0  0  0  0  0  0  0  0
  144.1572  142.9619  154.7317 H   0  0  0  0  0  0  0  0  0  0  0  0
  1  2  1  0  0  0  0
  1 21  1  0  0  0  0
  1 22  1  0  0  0  0
  1 23  1  0  0  0  0
  2 18  2  0  0  0  0
  2  3  1  0  0  0  0
  3  4  2  0  0  0  0
  3 24  1  0  0  0  0
  4  5  1  0  0  0  0
  4 25  1  0  0  0  0
  5  6  1  0  0  0  0
  5 16  1  0  0  0  0
  6  7  1  0  0  0  0
  6 26  1  0  0  0  0
  6 27  1  0  0  0  0
  7  8  2  0  0  0  0
  7  9  1  0  0  0  0
  9 10  1  0  0  0  0
  9 28  1  0  0  0  0
 10 11  1  0  0  0  0
 10 29  1  0  0  0  0
 10 30  1  0  0  0  0
 11 15  1  0  0  0  0
 11 12  1  0  0  0  0
 11 31  1  0  0  0  0
 12 13  1  0  0  0  0
 12 32  1  0  0  0  0
 12 33  1  0  0  0  0
 13 14  1  0  0  0  0
 13 34  1  0  0  0  0
 13 35  1  0  0  0  0
 14 15  1  0  0  0  0
 14 36  1  0  0  0  0
 14 37  1  0  0  0  0
 16 17  2  0  0  0  0
 16 18  1  0  0  0  0
 18 19  1  0  0  0  0
 19 20  3  0  0  0  0
M  END
> <s_m_source_file>
AV-unprocessed.smi

> <i_m_source_file_index>
2357

> <i_lp_mmshare_version>
43012

> <i_f3d_flags>
0

> <s_epik_input>
W0NIM11jMVtjSF1bY0hdbihjKD1PKWMxQyNOKVtDSDJdQyg9TylbTkhdW0NIMl1bQ0BASF0yW0NIMl1bQ0gyXVtDSDJdTzI=

> <s_epik_cmdline>
J2VwaWtfcHl0aG9uJywgJy1waCcsICc3LjAnLCAnLXRuJywgJzgnLCAnLW1hJywgJzIwMCcsICctbWV0YWxfYmluZGluZycsICctaW1hZScsICc8aW5maWxlLm1hZT4nLCAnLW9tYWUnLCAnPG91dGZpbGUubWFlPic=

> <r_lp_tautomer_probability>
1

> <r_epik_Ionization_Penalty>
2.71597e-08

> <r_epik_Ionization_Penalty_Charging>
3.00645e-10

> <r_epik_Ionization_Penalty_Neutral>
2.6859e-08

> <r_epik_State_Penalty>
-0

> <r_epik_Charging_Adjusted_Penalty>
3.00645e-10

> <i_epik_Tot_Q>
0

> <i_epik_Tot_abs_Q>
0

> <r_epik_Metal_State_Penalty>
-0

> <b_epik_Metal_Only>
0

> <s_lp_Force_Field>
OPLS_2005

> <r_lp_Energy>
27.3149

> <b_lp_Chiralities_Consistent>
1

> <s_lp_Variant>
AV-unprocessed.smi:2357-2

> <Gold.Version>
5.8.1

> <Gold.Id.Protein>
6NUR|6NUR_protein|mol2

> <Gold.PLP.Fitness>
47.1748

> <Gold.PLP.PLP>
-40.8542

> <Gold.PLP.part.hbond>
-3.0000

> <Gold.PLP.part.metal>
0.0000

> <Gold.PLP.part.buried>
-4.0352

> <Gold.PLP.part.nonpolar>
-32.8722

> <Gold.PLP.part.repulsive>
0.3155

> <Gold.PLP.ligand.clash>
0.0000

> <Gold.PLP.ligand.torsion>
0.8654

> <Gold.PLP.Chemscore.Hbond>
1.6763

> <Gold.PLP.Chemscore.CHOScore>
1.0000

> <Gold.PLP.Chemscore.Metal>
0.0000

> <Gold.Chemscore.Hbonds>
donor molecule, donor type, donor heavy atom, donor atom, acceptor molecule, acceptor atom, score
      P1  H  7989  7998       L1     8  0.20
      P1  H  7997  8010       L1    17  0.67
      P1  H  8011  8017       L1     8  0.51
      L1  C     4    25       P1  8028  1.00

> <Gold.PLP.Chemscore.Internal.Correction>
0.0227

> <Gold.Rescore>
     Score         DG    S(hbond)    S(metal)    S(lipo)     H(rot)  DE(clash)    DE(int)     intcor
     11.69     -15.16       1.47        0.00      79.06       1.76       1.33       2.14       ----

> <Gold.Chemscore.Fitness>
11.6884

> <Gold.Chemscore.DG>
-15.1561

> <Gold.Chemscore.ZeroCoef>
-5.4800

> <Gold.Chemscore.Hbond>
1.4749

> <Gold.Chemscore.Metal>
0.0000

> <Gold.Chemscore.Lipo>
79.0577

> <Gold.Chemscore.Internal_Hbond>
0.0000

> <Gold.Chemscore.DEClash>
1.3287

> <Gold.Chemscore.DEInternal>
2.1390

> <Gold.Chemscore.Rot>
1.7577

> <Gold.Chemscore.Internal.Correction>
   9.000000E+99

> <Gold.Chemscore.Hbonds>
donor molecule, donor type, donor heavy atom, donor atom, acceptor molecule, acceptor atom, score
      P1  H  7989  7998       L1     8  0.03
      P1  H  7997  8010       L1    17  0.17
      P1  H  8011  8017       L1     8  0.51

> <Gold.Chemscore.Hbond.Weighted>
-4.9261

> <Gold.Chemscore.Metal.Weighted>
-0.0000

> <Gold.Chemscore.Lipo.Weighted>
-9.2498

> <Gold.Chemscore.Internal_Hbond.Weighted>
0.0000

> <Gold.Chemscore.DEClash.Weighted>
1.3287

> <Gold.Chemscore.DEInternal.Weighted>
2.1390

> <Gold.Chemscore.Rot.Weighted>
4.4998

> <Gold.Chemscore.Internal.Correction.Weighted>
   9.000000E+99

> <Gold.Protein.RotatedTorsions>
[ 6907 6896 6895 6894 ] final -162.41 input  -60.11 | X-H torsion
[ 7974 7965 7964 7962 ] final -176.00 input  175.53 | X-H torsion
[ 8008 7997 7996 7995 ] final   53.56 input   59.86 | X-H torsion
[ 10167 10162 10161 10158 ] final  -84.47 input  -65.29 | X-H torsion
[ 10718 10713 10712 10709 ] final   84.03 input   66.30 | X-H torsion
[ 10763 10752 10751 10750 ] final   44.96 input  -60.55 | X-H torsion
[ 11005 11000 10999 10996 ] final   93.59 input  -57.11 | X-H torsion

> <Gold.Protein.ActiveResidues>
 VAL166  LYS551  ARG553  GLY616  TRP617  ASP618  TYR619  PRO620  LYS621  CYS622 
 ASP623  PHE694  ASN695  SER759  ASP760  ASP761  ALA762  ILE779  LEU786  VAL792 
 PHE793  MET794  SER795  GLU796  ALA797  LYS798  CYS799  TRP800  GLU811  SER814 

> <Gold.Protein.RotatedAtoms>
  151.3798  133.3825  159.2708 H   0  0  0  0  0  0  0  0  0  0  0  0  # atno 6907 bound_to 6896
  150.9586  134.8978  159.7727 H   0  0  0  0  0  0  0  0  0  0  0  0  # atno 6908 bound_to 6896
  152.5140  134.3757  159.9386 H   0  0  0  0  0  0  0  0  0  0  0  0  # atno 6909 bound_to 6896
  144.7127  140.1237  143.6403 H   0  0  0  0  0  0  0  0  0  0  0  0  # atno 7974 bound_to 7965
  155.4702  140.3465  155.4325 H   0  0  0  0  0  0  0  0  0  0  0  0  # atno 8008 bound_to 7997
  156.1105  140.1459  156.9374 H   0  0  0  0  0  0  0  0  0  0  0  0  # atno 8009 bound_to 7997
  154.4753  140.0887  156.7225 H   0  0  0  0  0  0  0  0  0  0  0  0  # atno 8010 bound_to 7997
  140.4129  143.2615  151.8993 H   0  0  0  0  0  0  0  0  0  0  0  0  # atno 10167 bound_to 10162
  157.6890  131.0116  150.2611 H   0  0  0  0  0  0  0  0  0  0  0  0  # atno 10718 bound_to 10713
  152.9832  135.6054  154.3359 H   0  0  0  0  0  0  0  0  0  0  0  0  # atno 10763 bound_to 10752
  154.3059  135.2772  155.2591 H   0  0  0  0  0  0  0  0  0  0  0  0  # atno 10764 bound_to 10752
  154.4822  135.5914  153.6454 H   0  0  0  0  0  0  0  0  0  0  0  0  # atno 10765 bound_to 10752
  139.8808  134.8798  156.3740 H   0  0  0  0  0  0  0  0  0  0  0  0  # atno 11005 bound_to 11000
  145.9348  139.2630  143.1303 LP  0  0  0  0  0  0  0  0  0  0  0  0  # atno 17320 bound_to 7965
  145.9485  140.8927  143.0271 LP  0  0  0  0  0  0  0  0  0  0  0  0  # atno 17321 bound_to 7965
  139.4782  144.5518  151.8374 LP  0  0  0  0  0  0  0  0  0  0  0  0  # atno 17342 bound_to 10162
  140.4618  144.1711  150.5907 LP  0  0  0  0  0  0  0  0  0  0  0  0  # atno 17343 bound_to 10162
  156.3190  130.3783  149.7592 LP  0  0  0  0  0  0  0  0  0  0  0  0  # atno 17370 bound_to 10713
  156.5168  130.8197  151.3189 LP  0  0  0  0  0  0  0  0  0  0  0  0  # atno 17371 bound_to 10713
  140.9445  133.7492  156.0190 LP  0  0  0  0  0  0  0  0  0  0  0  0  # atno 17394 bound_to 11000
  140.8180  134.3322  157.5391 LP  0  0  0  0  0  0  0  0  0  0  0  0  # atno 17395 bound_to 11000

$$$$
