AV-unprocessed.smi:247|AV-procd|sdf|1893|dock7
  -GOLD-   2262020553D 1   1.00000     0.00000
 Structure written by MMmdl.
 61 65  0  0  0  0  0  0  0  0  1 V2000
  148.3016  142.7600  153.9919 O   0  0  0  0  0  0  0  0  0  0  0  0
  147.7318  141.7465  154.7971 C   0  0  0  0  0  0  0  0  0  0  0  0
  148.7392  140.6315  155.1945 C   0  0  0  0  0  0  0  0  0  0  0  0
  148.0274  139.6438  156.1728 C   0  0  0  0  0  0  0  0  0  0  0  0
  146.9352  138.8767  155.5902 N   0  0  0  0  0  0  0  0  0  0  0  0
  145.6926  139.3507  155.2330 C   0  0  0  0  0  0  0  0  0  0  0  0
  144.8803  138.4632  154.7286 N   0  0  0  0  0  0  0  0  0  0  0  0
  145.6267  137.2918  154.7136 C   0  0  0  0  0  0  0  0  0  0  0  0
  145.3591  135.9544  154.3103 C   0  0  0  0  0  0  0  0  0  0  0  0
  144.1550  135.5843  153.8085 N   0  0  0  0  0  0  0  0  0  0  0  0
  143.0911  135.5701  154.8018 C   0  0  0  0  0  0  0  0  0  0  0  0
  141.7915  135.5516  154.0091 C   0  0  0  0  0  0  0  0  0  0  0  0
  142.1417  136.3523  152.7578 C   0  0  0  0  0  0  0  0  0  0  0  0
  143.6529  136.1302  152.5405 C   0  0  2  0  0  0  0  0  0  0  0  0
  143.9639  135.2439  151.2906 C   0  0  2  0  0  0  0  0  0  0  0  0
  143.5430  133.7638  151.4391 C   0  0  0  0  0  0  0  0  0  0  0  0
  144.4828  133.0468  152.2336 O   0  0  0  0  0  0  0  0  0  0  0  0
  145.7657  132.9594  151.6231 C   0  0  0  0  0  0  0  0  0  0  0  0
  146.3764  134.3590  151.4537 C   0  0  0  0  0  0  0  0  0  0  0  0
  145.4037  135.2956  150.7190 C   0  0  2  0  0  0  0  0  0  0  0  0
  145.9161  136.6113  150.6636 O   0  0  0  0  0  0  0  0  0  0  0  0
  146.3599  135.0461  154.4517 N   0  0  0  0  0  0  0  0  0  0  0  0
  147.5397  135.4150  154.9584 C   0  0  0  0  0  0  0  0  0  0  0  0
  147.9255  136.6201  155.3815 N   0  0  0  0  0  0  0  0  0  0  0  0
  146.9246  137.5362  155.2436 C   0  0  0  0  0  0  0  0  0  0  0  0
  149.2583  139.9156  153.9205 C   0  0  0  0  0  0  0  0  0  0  0  0
  150.4262  138.9599  154.2216 C   0  0  0  0  0  0  0  0  0  0  0  0
  151.4862  139.6754  154.8447 O   0  0  0  0  0  0  0  0  0  0  0  0
  151.1179  140.2400  156.0975 C   0  0  0  0  0  0  0  0  0  0  0  0
  149.9687  141.2495  155.9099 C   0  0  0  0  0  0  0  0  0  0  0  0
  148.5311  143.4901  154.5465 H   0  0  0  0  0  0  0  0  0  0  0  0
  147.3174  142.2186  155.6886 H   0  0  0  0  0  0  0  0  0  0  0  0
  146.8926  141.3299  154.2401 H   0  0  0  0  0  0  0  0  0  0  0  0
  148.7291  138.9279  156.5974 H   0  0  0  0  0  0  0  0  0  0  0  0
  147.6294  140.1946  157.0261 H   0  0  0  0  0  0  0  0  0  0  0  0
  145.4005  140.3818  155.3682 H   0  0  0  0  0  0  0  0  0  0  0  0
  143.1631  134.7027  155.4580 H   0  0  0  0  0  0  0  0  0  0  0  0
  143.1476  136.4694  155.4176 H   0  0  0  0  0  0  0  0  0  0  0  0
  141.5337  134.5262  153.7440 H   0  0  0  0  0  0  0  0  0  0  0  0
  140.9533  135.9734  154.5642 H   0  0  0  0  0  0  0  0  0  0  0  0
  141.5276  136.0741  151.9008 H   0  0  0  0  0  0  0  0  0  0  0  0
  141.9607  137.4105  152.9519 H   0  0  0  0  0  0  0  0  0  0  0  0
  144.0683  137.1197  152.3546 H   0  0  0  0  0  0  0  0  0  0  0  0
  143.3372  135.6606  150.5008 H   0  0  0  0  0  0  0  0  0  0  0  0
  142.5543  133.6762  151.8850 H   0  0  0  0  0  0  0  0  0  0  0  0
  143.4693  133.2924  150.4578 H   0  0  0  0  0  0  0  0  0  0  0  0
  146.4123  132.3443  152.2493 H   0  0  0  0  0  0  0  0  0  0  0  0
  145.6849  132.4537  150.6596 H   0  0  0  0  0  0  0  0  0  0  0  0
  146.6467  134.7576  152.4267 H   0  0  0  0  0  0  0  0  0  0  0  0
  147.3121  134.2861  150.8987 H   0  0  0  0  0  0  0  0  0  0  0  0
  145.3529  134.9482  149.6860 H   0  0  0  0  0  0  0  0  0  0  0  0
  145.2268  137.1913  150.3784 H   0  0  0  0  0  0  0  0  0  0  0  0
  148.2780  134.6310  155.0397 H   0  0  0  0  0  0  0  0  0  0  0  0
  148.4553  139.3852  153.4098 H   0  0  0  0  0  0  0  0  0  0  0  0
  149.6186  140.6535  153.2032 H   0  0  0  0  0  0  0  0  0  0  0  0
  150.1138  138.1248  154.8489 H   0  0  0  0  0  0  0  0  0  0  0  0
  150.7991  138.5281  153.2928 H   0  0  0  0  0  0  0  0  0  0  0  0
  150.8548  139.4515  156.8026 H   0  0  0  0  0  0  0  0  0  0  0  0
  151.9875  140.7470  156.5156 H   0  0  0  0  0  0  0  0  0  0  0  0
  150.3636  142.0833  155.3289 H   0  0  0  0  0  0  0  0  0  0  0  0
  149.6783  141.6680  156.8743 H   0  0  0  0  0  0  0  0  0  0  0  0
  1  2  1  0  0  0  0
  1 31  1  0  0  0  0
  2  3  1  0  0  0  0
  2 32  1  0  0  0  0
  2 33  1  0  0  0  0
  3 30  1  0  0  0  0
  3  4  1  0  0  0  0
  3 26  1  0  0  0  0
  4  5  1  0  0  0  0
  4 34  1  0  0  0  0
  4 35  1  0  0  0  0
  5 25  1  0  0  0  0
  5  6  1  0  0  0  0
  6  7  2  0  0  0  0
  6 36  1  0  0  0  0
  7  8  1  0  0  0  0
  8 25  2  0  0  0  0
  8  9  1  0  0  0  0
  9 10  1  0  0  0  0
  9 22  2  0  0  0  0
 10 14  1  0  0  0  0
 10 11  1  0  0  0  0
 11 12  1  0  0  0  0
 11 37  1  0  0  0  0
 11 38  1  0  0  0  0
 12 13  1  0  0  0  0
 12 39  1  0  0  0  0
 12 40  1  0  0  0  0
 13 14  1  0  0  0  0
 13 41  1  0  0  0  0
 13 42  1  0  0  0  0
 14 15  1  0  0  0  0
 14 43  1  0  0  0  0
 15 20  1  0  0  0  0
 15 16  1  0  0  0  0
 15 44  1  0  0  0  0
 16 17  1  0  0  0  0
 16 45  1  0  0  0  0
 16 46  1  0  0  0  0
 17 18  1  0  0  0  0
 18 19  1  0  0  0  0
 18 47  1  0  0  0  0
 18 48  1  0  0  0  0
 19 20  1  0  0  0  0
 19 49  1  0  0  0  0
 19 50  1  0  0  0  0
 20 21  1  0  0  0  0
 20 51  1  0  0  0  0
 21 52  1  0  0  0  0
 22 23  1  0  0  0  0
 23 24  2  0  0  0  0
 23 53  1  0  0  0  0
 24 25  1  0  0  0  0
 26 27  1  0  0  0  0
 26 54  1  0  0  0  0
 26 55  1  0  0  0  0
 27 28  1  0  0  0  0
 27 56  1  0  0  0  0
 27 57  1  0  0  0  0
 28 29  1  0  0  0  0
 29 30  1  0  0  0  0
 29 58  1  0  0  0  0
 29 59  1  0  0  0  0
 30 60  1  0  0  0  0
 30 61  1  0  0  0  0
M  END
> <s_m_source_file>
AV-unprocessed.smi

> <i_m_source_file_index>
247

> <i_lp_mmshare_version>
43012

> <i_f3d_flags>
0

> <s_epik_input>
W0NIMl0xW0NIMl1PW0NIMl1bQ0gyXUMxKFtDSDJdW09IXSlbQ0gyXW4oW2NIXW4yKWMoYzIzKW5bY0hdbmMzTjRbQ0gyXVtDSDJdW0NIMl1bQ0BIXTRbQ0BASF01W0NIMl1PW0NIMl1bQ0gyXVtDQEhdNVtPSF0=

> <s_epik_cmdline>
J2VwaWtfcHl0aG9uJywgJy1waCcsICc3LjAnLCAnLXRuJywgJzgnLCAnLW1hJywgJzIwMCcsICctbWV0YWxfYmluZGluZycsICctaW1hZScsICc8aW5maWxlLm1hZT4nLCAnLW9tYWUnLCAnPG91dGZpbGUubWFlPic=

> <r_lp_tautomer_probability>
1

> <r_epik_Ionization_Penalty>
0.00362597

> <r_epik_Ionization_Penalty_Charging>
0

> <r_epik_Ionization_Penalty_Neutral>
0.00362597

> <r_epik_State_Penalty>
0.00241433

> <r_epik_Charging_Adjusted_Penalty>
0.00241433

> <i_epik_Tot_Q>
0

> <i_epik_Tot_abs_Q>
0

> <r_epik_Metal_State_Penalty>
-0

> <b_epik_Metal_Only>
0

> <s_lp_Force_Field>
OPLS_2005

> <r_lp_Energy>
64.0337

> <b_lp_Chiralities_Consistent>
1

> <s_lp_Variant>
AV-unprocessed.smi:247-6

> <Gold.Version>
5.8.1

> <Gold.Id.Protein>
6NUR|6NUR_protein|mol2

> <Gold.PLP.Fitness>
43.4891

> <Gold.PLP.PLP>
-35.5485

> <Gold.PLP.part.hbond>
-5.0291

> <Gold.PLP.part.metal>
0.0000

> <Gold.PLP.part.buried>
-1.3256

> <Gold.PLP.part.nonpolar>
-29.5003

> <Gold.PLP.part.repulsive>
0.4668

> <Gold.PLP.ligand.clash>
0.0000

> <Gold.PLP.ligand.torsion>
0.4970

> <Gold.PLP.Chemscore.Hbond>
2.8594

> <Gold.PLP.Chemscore.CHOScore>
0.0000

> <Gold.PLP.Chemscore.Metal>
0.0000

> <Gold.Chemscore.Hbonds>
donor molecule, donor type, donor heavy atom, donor atom, acceptor molecule, acceptor atom, score
      L1  H     1    31       P1  8028  1.00
      L1  H    21    52       P1 10171  1.00
      P1  H  7989  7998       L1    28  0.70
      P1  H  8011  8017       L1     1  0.01

> <Gold.PLP.Chemscore.Internal.Correction>
0.3565

> <Gold.Rescore>
     Score         DG    S(hbond)    S(metal)    S(lipo)     H(rot)  DE(clash)    DE(int)     intcor
     12.19     -14.41       2.19        0.00      84.48       3.23       0.57       1.65       ----

> <Gold.Chemscore.Fitness>
12.1941

> <Gold.Chemscore.DG>
-14.4094

> <Gold.Chemscore.ZeroCoef>
-5.4800

> <Gold.Chemscore.Hbond>
2.1882

> <Gold.Chemscore.Metal>
0.0000

> <Gold.Chemscore.Lipo>
84.4798

> <Gold.Chemscore.Internal_Hbond>
0.0000

> <Gold.Chemscore.DEClash>
0.5680

> <Gold.Chemscore.DEInternal>
1.6473

> <Gold.Chemscore.Rot>
3.2278

> <Gold.Chemscore.Internal.Correction>
   9.000000E+99

> <Gold.Chemscore.Hbonds>
donor molecule, donor type, donor heavy atom, donor atom, acceptor molecule, acceptor atom, score
      L1  H     1    31       P1  8028  1.00
      L1  H    21    52       P1 10171  0.94
      P1  H  7989  7998       L1    28  0.07
      P1  H  8011  8017       L1     1  0.03

> <Gold.Chemscore.Hbond.Weighted>
-7.3085

> <Gold.Chemscore.Metal.Weighted>
-0.0000

> <Gold.Chemscore.Lipo.Weighted>
-9.8841

> <Gold.Chemscore.Internal_Hbond.Weighted>
0.0000

> <Gold.Chemscore.DEClash.Weighted>
0.5680

> <Gold.Chemscore.DEInternal.Weighted>
1.6473

> <Gold.Chemscore.Rot.Weighted>
8.2633

> <Gold.Chemscore.Internal.Correction.Weighted>
   9.000000E+99

> <Gold.Protein.RotatedTorsions>
[ 6907 6896 6895 6894 ] final  -99.01 input  -60.11 | X-H torsion
[ 7974 7965 7964 7962 ] final   64.09 input  175.53 | X-H torsion
[ 8008 7997 7996 7995 ] final -169.89 input   59.86 | X-H torsion
[ 10167 10162 10161 10158 ] final  168.57 input  -65.29 | X-H torsion
[ 10718 10713 10712 10709 ] final  -17.64 input   66.30 | X-H torsion
[ 10763 10752 10751 10750 ] final  168.49 input  -60.55 | X-H torsion
[ 11005 11000 10999 10996 ] final  -78.88 input  -57.11 | X-H torsion

> <Gold.Protein.ActiveResidues>
 VAL166  LYS551  ARG553  GLY616  TRP617  ASP618  TYR619  PRO620  LYS621  CYS622 
 ASP623  PHE694  ASN695  SER759  ASP760  ASP761  ALA762  ILE779  LEU786  VAL792 
 PHE793  MET794  SER795  GLU796  ALA797  LYS798  CYS799  TRP800  GLU811  SER814 

> <Gold.Protein.RotatedAtoms>
  150.7065  134.1107  159.3998 H   0  0  0  0  0  0  0  0  0  0  0  0  # atno 6907 bound_to 6896
  151.9093  135.0343  160.0522 H   0  0  0  0  0  0  0  0  0  0  0  0  # atno 6908 bound_to 6896
  152.2349  133.5052  159.5273 H   0  0  0  0  0  0  0  0  0  0  0  0  # atno 6909 bound_to 6896
  145.8542  139.3273  143.0857 H   0  0  0  0  0  0  0  0  0  0  0  0  # atno 7974 bound_to 7965
  155.9110  140.1057  157.1279 H   0  0  0  0  0  0  0  0  0  0  0  0  # atno 8008 bound_to 7997
  154.4039  140.1274  156.4622 H   0  0  0  0  0  0  0  0  0  0  0  0  # atno 8009 bound_to 7997
  155.7310  140.3468  155.5061 H   0  0  0  0  0  0  0  0  0  0  0  0  # atno 8010 bound_to 7997
  139.4971  144.3800  151.9632 H   0  0  0  0  0  0  0  0  0  0  0  0  # atno 10167 bound_to 10162
  156.5707  130.4749  149.6364 H   0  0  0  0  0  0  0  0  0  0  0  0  # atno 10718 bound_to 10713
  154.3693  135.2753  155.2275 H   0  0  0  0  0  0  0  0  0  0  0  0  # atno 10763 bound_to 10752
  154.4429  135.5950  153.6145 H   0  0  0  0  0  0  0  0  0  0  0  0  # atno 10764 bound_to 10752
  152.9839  135.6023  154.3923 H   0  0  0  0  0  0  0  0  0  0  0  0  # atno 10765 bound_to 10752
  141.1666  133.7082  156.8039 H   0  0  0  0  0  0  0  0  0  0  0  0  # atno 11005 bound_to 11000
  145.9322  140.9040  143.0350 LP  0  0  0  0  0  0  0  0  0  0  0  0  # atno 17320 bound_to 7965
  144.6728  140.1434  143.7435 LP  0  0  0  0  0  0  0  0  0  0  0  0  # atno 17321 bound_to 7965
  140.3236  144.3399  150.6003 LP  0  0  0  0  0  0  0  0  0  0  0  0  # atno 17342 bound_to 10162
  140.5702  143.2181  151.7612 LP  0  0  0  0  0  0  0  0  0  0  0  0  # atno 17343 bound_to 10162
  156.2717  130.7021  151.1820 LP  0  0  0  0  0  0  0  0  0  0  0  0  # atno 17370 bound_to 10713
  157.7349  131.0577  150.5500 LP  0  0  0  0  0  0  0  0  0  0  0  0  # atno 17371 bound_to 10713
  140.2236  134.8738  157.3403 LP  0  0  0  0  0  0  0  0  0  0  0  0  # atno 17394 bound_to 11000
  140.1962  134.4310  155.7688 LP  0  0  0  0  0  0  0  0  0  0  0  0  # atno 17395 bound_to 11000

$$$$
