AV-unprocessed.smi:72|AV-procd|sdf|756|dock5
  -GOLD-   2262017 93D 1   1.00000     0.00000
 Structure written by MMmdl.
 29 30  0  0  0  0  0  0  0  0  1 V2000
  154.1417  138.8388  160.1357 N   0  0  0  0  0  0  0  0  0  0  0  0
  153.1333  138.6524  159.2137 C   0  0  0  0  0  0  0  0  0  0  0  0
  153.1641  139.4772  158.0817 N   0  0  0  0  0  0  0  0  0  0  0  0
  152.2244  139.2993  157.2080 C   0  0  0  0  0  0  0  0  0  0  0  0
  151.2050  138.2765  157.3883 N   0  0  0  0  0  0  0  0  0  0  0  0
  150.0744  138.0530  156.3946 C   0  0  1  0  0  0  0  0  0  0  0  0
  149.3621  139.2417  156.2058 O   0  0  0  0  0  0  0  0  0  0  0  0
  149.8351  139.9062  155.0380 C   0  0  2  0  0  0  0  0  0  0  0  0
  148.8396  140.9791  154.5634 C   0  0  0  0  0  0  0  0  0  0  0  0
  149.1800  141.4090  153.2625 O   0  0  0  0  0  0  0  0  0  0  0  0
  150.0624  138.7336  154.0794 C   0  0  2  0  0  0  0  0  0  0  0  0
  148.8440  138.3501  153.4605 O   0  0  0  0  0  0  0  0  0  0  0  0
  150.6225  137.6523  155.0060 C   0  0  2  0  0  0  0  0  0  0  0  0
  150.2380  136.3497  154.6080 O   0  0  0  0  0  0  0  0  0  0  0  0
  151.2150  137.5043  158.5837 C   0  0  0  0  0  0  0  0  0  0  0  0
  150.3316  136.6723  158.7898 O   0  0  0  0  0  0  0  0  0  0  0  0
  152.2556  137.7324  159.4916 N   0  0  0  0  0  0  0  0  0  0  0  0
  149.4284  137.3075  156.8619 H   0  0  0  0  0  0  0  0  0  0  0  0
  150.8040  140.3649  155.2444 H   0  0  0  0  0  0  0  0  0  0  0  0
  150.7717  138.9922  153.2925 H   0  0  0  0  0  0  0  0  0  0  0  0
  151.7117  137.7160  155.0127 H   0  0  0  0  0  0  0  0  0  0  0  0
  154.2198  138.3047  160.9889 H   0  0  0  0  0  0  0  0  0  0  0  0
  154.8785  139.5196  160.0237 H   0  0  0  0  0  0  0  0  0  0  0  0
  152.1468  139.9007  156.3025 H   0  0  0  0  0  0  0  0  0  0  0  0
  147.8327  140.5633  154.5165 H   0  0  0  0  0  0  0  0  0  0  0  0
  148.8116  141.8284  155.2469 H   0  0  0  0  0  0  0  0  0  0  0  0
  149.0667  140.6839  152.6674 H   0  0  0  0  0  0  0  0  0  0  0  0
  148.9671  137.5003  153.0655 H   0  0  0  0  0  0  0  0  0  0  0  0
  149.9047  136.3962  153.7246 H   0  0  0  0  0  0  0  0  0  0  0  0
  1  2  1  0  0  0  0
  1 22  1  0  0  0  0
  1 23  1  0  0  0  0
  2 17  2  0  0  0  0
  2  3  1  0  0  0  0
  3  4  2  0  0  0  0
  4  5  1  0  0  0  0
  4 24  1  0  0  0  0
  5  6  1  0  0  0  0
  5 15  1  0  0  0  0
  6 18  1  0  0  0  0
  6 13  1  0  0  0  0
  6  7  1  0  0  0  0
  7  8  1  0  0  0  0
  8 19  1  0  0  0  0
  8  9  1  0  0  0  0
  8 11  1  0  0  0  0
  9 10  1  0  0  0  0
  9 25  1  0  0  0  0
  9 26  1  0  0  0  0
 10 27  1  0  0  0  0
 11 20  1  0  0  0  0
 11 12  1  0  0  0  0
 11 13  1  0  0  0  0
 12 28  1  0  0  0  0
 13 21  1  0  0  0  0
 13 14  1  0  0  0  0
 14 29  1  0  0  0  0
 15 16  2  0  0  0  0
 15 17  1  0  0  0  0
M  END
> <s_m_source_file>
AV-unprocessed.smi

> <i_m_source_file_index>
72

> <i_lp_mmshare_version>
43012

> <i_f3d_flags>
0

> <s_epik_input>
W05IMl1jMW5bY0hdbihjKD1PKW4xKVtDQEBIXTJPW0NASF0oW0NIMl1bT0hdKVtDQEBIXShbT0hdKVtDQEhdMltPSF0=

> <s_epik_cmdline>
J2VwaWtfcHl0aG9uJywgJy1waCcsICc3LjAnLCAnLXRuJywgJzgnLCAnLW1hJywgJzIwMCcsICctbWV0YWxfYmluZGluZycsICctaW1hZScsICc8aW5maWxlLm1hZT4nLCAnLW9tYWUnLCAnPG91dGZpbGUubWFlPic=

> <r_lp_tautomer_probability>
4.77166e-05

> <r_epik_Ionization_Penalty>
1.3546

> <r_epik_Ionization_Penalty_Charging>
1.46833e-10

> <r_epik_Ionization_Penalty_Neutral>
1.3546

> <r_epik_State_Penalty>
3.51908

> <r_epik_Charging_Adjusted_Penalty>
3.51908

> <i_epik_Tot_Q>
0

> <i_epik_Tot_abs_Q>
0

> <r_epik_Metal_State_Penalty>
3.44088

> <b_epik_Metal_Only>
1

> <s_epik_Chemistry_Notes>
This compound contains an acetal/aminal-like group ( X-CH(R)-Y where X, Y are N, S, or O) that may be acid/base labile, releasing an aldehyde.

> <s_lp_Force_Field>
OPLS_2005

> <r_lp_Energy>
31.1202

> <b_lp_Chiralities_Consistent>
1

> <s_lp_Variant>
AV-unprocessed.smi:72-94

> <Gold.Version>
5.8.1

> <Gold.Id.Protein>
6NUR|6NUR_protein|mol2

> <Gold.PLP.Fitness>
40.3634

> <Gold.PLP.PLP>
-23.1084

> <Gold.PLP.part.hbond>
-8.0202

> <Gold.PLP.part.metal>
0.0000

> <Gold.PLP.part.buried>
-2.7506

> <Gold.PLP.part.nonpolar>
-12.2927

> <Gold.PLP.part.repulsive>
0.0466

> <Gold.PLP.ligand.clash>
0.0000

> <Gold.PLP.ligand.torsion>
0.0723

> <Gold.PLP.Chemscore.Hbond>
5.7908

> <Gold.PLP.Chemscore.CHOScore>
0.0000

> <Gold.PLP.Chemscore.Metal>
0.0000

> <Gold.Chemscore.Hbonds>
donor molecule, donor type, donor heavy atom, donor atom, acceptor molecule, acceptor atom, score
      L1  H    10    27       P1  7957  0.85
      L1  H    12    28       P1  7948  1.00
      L1  H    14    29       P1  7948  0.93
      P1  H  6896  6908       L1    16  0.91
      P1  H  7997  8008       L1     3  1.00
      P1  H  8011  8017       L1    10  0.93

> <Gold.PLP.Chemscore.Internal.Correction>
0.0275

> <Gold.Rescore>
     Score         DG    S(hbond)    S(metal)    S(lipo)     H(rot)  DE(clash)    DE(int)     intcor
     14.28     -14.45       4.85        0.00      27.02       4.06       0.02       0.15       ----

> <Gold.Chemscore.Fitness>
14.2758

> <Gold.Chemscore.DG>
-14.4480

> <Gold.Chemscore.ZeroCoef>
-5.4800

> <Gold.Chemscore.Hbond>
4.8505

> <Gold.Chemscore.Metal>
0.0000

> <Gold.Chemscore.Lipo>
27.0158

> <Gold.Chemscore.Internal_Hbond>
0.0000

> <Gold.Chemscore.DEClash>
0.0178

> <Gold.Chemscore.DEInternal>
0.1544

> <Gold.Chemscore.Rot>
4.0600

> <Gold.Chemscore.Internal.Correction>
   9.000000E+99

> <Gold.Chemscore.Hbonds>
donor molecule, donor type, donor heavy atom, donor atom, acceptor molecule, acceptor atom, score
      L1  H    10    27       P1  7957  0.83
      L1  H    12    28       P1  7948  1.00
      L1  H    14    29       P1  7948  0.23
      P1  H  6896  6908       L1    16  0.81
      P1  H  7997  8008       L1     3  0.55
      P1  H  8011  8017       L1    10  0.21

> <Gold.Chemscore.Hbond.Weighted>
-16.2007

> <Gold.Chemscore.Metal.Weighted>
-0.0000

> <Gold.Chemscore.Lipo.Weighted>
-3.1608

> <Gold.Chemscore.Internal_Hbond.Weighted>
0.0000

> <Gold.Chemscore.DEClash.Weighted>
0.0178

> <Gold.Chemscore.DEInternal.Weighted>
0.1544

> <Gold.Chemscore.Rot.Weighted>
10.3936

> <Gold.Chemscore.Internal.Correction.Weighted>
   9.000000E+99

> <Gold.Protein.RotatedTorsions>
[ 6907 6896 6895 6894 ] final -168.07 input  -60.11 | X-H torsion
[ 7974 7965 7964 7962 ] final  -75.94 input  175.53 | X-H torsion
[ 8008 7997 7996 7995 ] final  -93.17 input   59.86 | X-H torsion
[ 10167 10162 10161 10158 ] final  -41.09 input  -65.29 | X-H torsion
[ 10718 10713 10712 10709 ] final   68.10 input   66.30 | X-H torsion
[ 10763 10752 10751 10750 ] final  -63.39 input  -60.55 | X-H torsion
[ 11005 11000 10999 10996 ] final  -67.55 input  -57.11 | X-H torsion

> <Gold.Protein.ActiveResidues>
 VAL166  LYS551  ARG553  GLY616  TRP617  ASP618  TYR619  PRO620  LYS621  CYS622 
 ASP623  PHE694  ASN695  SER759  ASP760  ASP761  ALA762  ILE779  LEU786  VAL792 
 PHE793  MET794  SER795  GLU796  ALA797  LYS798  CYS799  TRP800  GLU811  SER814 

> <Gold.Protein.RotatedAtoms>
  151.4697  133.3572  159.2821 H   0  0  0  0  0  0  0  0  0  0  0  0  # atno 6907 bound_to 6896
  150.8969  134.8380  159.7344 H   0  0  0  0  0  0  0  0  0  0  0  0  # atno 6908 bound_to 6896
  152.4856  134.4613  159.9658 H   0  0  0  0  0  0  0  0  0  0  0  0  # atno 6909 bound_to 6896
  145.6194  140.9367  143.1146 H   0  0  0  0  0  0  0  0  0  0  0  0  # atno 7974 bound_to 7965
  154.7323  140.0501  157.0738 H   0  0  0  0  0  0  0  0  0  0  0  0  # atno 8008 bound_to 7997
  155.0285  140.3155  155.4748 H   0  0  0  0  0  0  0  0  0  0  0  0  # atno 8009 bound_to 7997
  156.2844  140.2154  156.5405 H   0  0  0  0  0  0  0  0  0  0  0  0  # atno 8010 bound_to 7997
  140.7013  143.3115  151.3017 H   0  0  0  0  0  0  0  0  0  0  0  0  # atno 10167 bound_to 10162
  157.6269  130.9356  150.0332 H   0  0  0  0  0  0  0  0  0  0  0  0  # atno 10718 bound_to 10713
  154.3143  135.6209  153.5479 H   0  0  0  0  0  0  0  0  0  0  0  0  # atno 10763 bound_to 10752
  152.9826  135.5709  154.5141 H   0  0  0  0  0  0  0  0  0  0  0  0  # atno 10764 bound_to 10752
  154.4797  135.2862  155.1556 H   0  0  0  0  0  0  0  0  0  0  0  0  # atno 10765 bound_to 10752
  141.1511  133.6721  156.6310 H   0  0  0  0  0  0  0  0  0  0  0  0  # atno 11005 bound_to 11000
  144.7237  139.7945  143.7372 LP  0  0  0  0  0  0  0  0  0  0  0  0  # atno 17320 bound_to 7965
  146.1443  139.4508  143.0089 LP  0  0  0  0  0  0  0  0  0  0  0  0  # atno 17321 bound_to 7965
  139.6539  144.0312  152.2646 LP  0  0  0  0  0  0  0  0  0  0  0  0  # atno 17342 bound_to 10162
  139.9857  144.6397  150.7859 LP  0  0  0  0  0  0  0  0  0  0  0  0  # atno 17343 bound_to 10162
  156.1447  130.3642  149.9528 LP  0  0  0  0  0  0  0  0  0  0  0  0  # atno 17370 bound_to 10713
  156.7561  130.9133  151.3639 LP  0  0  0  0  0  0  0  0  0  0  0  0  # atno 17371 bound_to 10713
  140.3467  134.7803  157.4437 LP  0  0  0  0  0  0  0  0  0  0  0  0  # atno 17394 bound_to 11000
  140.0894  134.5622  155.8459 LP  0  0  0  0  0  0  0  0  0  0  0  0  # atno 17395 bound_to 11000

$$$$
