AV-unprocessed.smi:2799|AV-procd|sdf|10792|dock10
  -GOLD-   2272015223D 1   1.00000     0.00000
 Structure written by MMmdl.
 52 53  0  0  0  0  0  0  0  0  2 V2000
  144.7263  135.2545  150.4746 C   0  0  0  0  0  0  0  0  0  0  0  0
  145.9128  134.7054  151.2819 C   0  0  0  0  0  0  0  0  0  0  0  0
  145.9009  133.1673  151.2690 C   0  0  0  0  0  0  0  0  0  0  0  0
  145.8929  135.2734  152.7215 C   0  0  0  0  0  0  0  0  0  0  0  0
  146.6531  136.5491  152.8965 N   0  3  1  0  0  0  0  0  0  0  0  0
  145.9961  137.6796  152.1753 C   0  0  0  0  0  0  0  0  0  0  0  0
  146.8377  138.9612  152.2129 C   0  0  0  0  0  0  0  0  0  0  0  0
  147.1144  139.3741  153.6554 C   0  0  0  0  0  0  0  0  0  0  0  0
  147.7870  138.2147  154.3911 C   0  0  0  0  0  0  0  0  0  0  0  0
  146.9515  136.9089  154.3267 C   0  0  2  0  0  0  0  0  0  0  0  0
  147.6794  135.7792  155.1133 C   0  0  0  0  0  0  0  0  0  0  0  0
  147.7405  136.0267  156.5518 N   0  0  0  0  0  0  0  0  0  0  0  0
  147.3531  135.1597  157.4985 C   0  0  0  0  0  0  0  0  0  0  0  0
  146.9082  134.0416  157.2412 O   0  0  0  0  0  0  0  0  0  0  0  0
  147.5252  135.6818  158.7269 N   0  0  0  0  0  0  0  0  0  0  0  0
  147.2209  135.1354  159.9867 C   0  0  0  0  0  0  0  0  0  0  0  0
  146.9611  133.8242  160.2221 C   0  0  0  0  0  0  0  0  0  0  0  0
  146.6478  133.3570  161.5511 C   0  0  0  0  0  0  0  0  0  0  0  0
  146.6107  134.2507  162.5491 C   0  0  0  0  0  0  0  0  0  0  0  0
  146.8674  135.6142  162.3274 N   0  0  0  0  0  0  0  0  0  0  0  0
  146.8026  136.5127  163.4829 C   0  0  0  0  0  0  0  0  0  0  0  0
  147.1734  136.1124  161.0926 C   0  0  0  0  0  0  0  0  0  0  0  0
  147.3953  137.3145  160.9268 O   0  0  0  0  0  0  0  0  0  0  0  0
  143.7731  134.9481  150.9072 H   0  0  0  0  0  0  0  0  0  0  0  0
  144.7527  134.8981  149.4444 H   0  0  0  0  0  0  0  0  0  0  0  0
  144.7423  136.3445  150.4438 H   0  0  0  0  0  0  0  0  0  0  0  0
  146.8066  135.0426  150.7604 H   0  0  0  0  0  0  0  0  0  0  0  0
  145.0161  132.7729  151.7700 H   0  0  0  0  0  0  0  0  0  0  0  0
  146.7779  132.7553  151.7685 H   0  0  0  0  0  0  0  0  0  0  0  0
  145.9014  132.7845  150.2479 H   0  0  0  0  0  0  0  0  0  0  0  0
  144.8656  135.4237  153.0575 H   0  0  0  0  0  0  0  0  0  0  0  0
  146.3036  134.4846  153.3439 H   0  0  0  0  0  0  0  0  0  0  0  0
  145.8343  137.4357  151.1279 H   0  0  0  0  0  0  0  0  0  0  0  0
  145.0122  137.8650  152.6094 H   0  0  0  0  0  0  0  0  0  0  0  0
  147.7782  138.8028  151.6834 H   0  0  0  0  0  0  0  0  0  0  0  0
  146.3178  139.7644  151.6898 H   0  0  0  0  0  0  0  0  0  0  0  0
  147.7517  140.2586  153.6804 H   0  0  0  0  0  0  0  0  0  0  0  0
  146.1825  139.6426  154.1547 H   0  0  0  0  0  0  0  0  0  0  0  0
  148.7756  138.0387  153.9643 H   0  0  0  0  0  0  0  0  0  0  0  0
  147.9508  138.5228  155.4237 H   0  0  0  0  0  0  0  0  0  0  0  0
  145.9923  137.0966  154.8121 H   0  0  0  0  0  0  0  0  0  0  0  0
  147.1922  134.8127  154.9974 H   0  0  0  0  0  0  0  0  0  0  0  0
  148.6992  135.6636  154.7454 H   0  0  0  0  0  0  0  0  0  0  0  0
  148.1006  136.9231  156.8463 H   0  0  0  0  0  0  0  0  0  0  0  0
  147.9526  136.5960  158.7661 H   0  0  0  0  0  0  0  0  0  0  0  0
  146.9653  133.0885  159.4353 H   0  0  0  0  0  0  0  0  0  0  0  0
  146.4480  132.3120  161.7369 H   0  0  0  0  0  0  0  0  0  0  0  0
  146.3843  133.9796  163.5700 H   0  0  0  0  0  0  0  0  0  0  0  0
  146.0927  137.3216  163.3039 H   0  0  0  0  0  0  0  0  0  0  0  0
  147.7811  136.9547  163.6756 H   0  0  0  0  0  0  0  0  0  0  0  0
  146.4884  136.0045  164.3952 H   0  0  0  0  0  0  0  0  0  0  0  0
  147.5493  136.4046  152.4537 H   0  0  0  0  0  0  0  0  0  0  0  0
  1  2  1  0  0  0  0
  1 24  1  0  0  0  0
  1 25  1  0  0  0  0
  1 26  1  0  0  0  0
  2  3  1  0  0  0  0
  2  4  1  0  0  0  0
  2 27  1  0  0  0  0
  3 28  1  0  0  0  0
  3 29  1  0  0  0  0
  3 30  1  0  0  0  0
  4  5  1  0  0  0  0
  4 31  1  0  0  0  0
  4 32  1  0  0  0  0
  5 10  1  0  0  0  0
  5  6  1  0  0  0  0
  5 52  1  0  0  0  0
  6  7  1  0  0  0  0
  6 33  1  0  0  0  0
  6 34  1  0  0  0  0
  7  8  1  0  0  0  0
  7 35  1  0  0  0  0
  7 36  1  0  0  0  0
  8  9  1  0  0  0  0
  8 37  1  0  0  0  0
  8 38  1  0  0  0  0
  9 10  1  0  0  0  0
  9 39  1  0  0  0  0
  9 40  1  0  0  0  0
 10 11  1  0  0  0  0
 10 41  1  0  0  0  0
 11 12  1  0  0  0  0
 11 42  1  0  0  0  0
 11 43  1  0  0  0  0
 12 13  1  0  0  0  0
 12 44  1  0  0  0  0
 13 14  2  0  0  0  0
 13 15  1  0  0  0  0
 15 16  1  0  0  0  0
 15 45  1  0  0  0  0
 16 22  1  0  0  0  0
 16 17  2  0  0  0  0
 17 18  1  0  0  0  0
 17 46  1  0  0  0  0
 18 19  2  0  0  0  0
 18 47  1  0  0  0  0
 19 20  1  0  0  0  0
 19 48  1  0  0  0  0
 20 21  1  0  0  0  0
 20 22  1  0  0  0  0
 21 49  1  0  0  0  0
 21 50  1  0  0  0  0
 21 51  1  0  0  0  0
 22 23  2  0  0  0  0
M  CHG  1   5   1
M  END
> <s_m_source_file>
AV-unprocessed.smi

> <i_m_source_file_index>
2799

> <i_lp_mmshare_version>
43012

> <i_f3d_flags>
0

> <s_epik_input>
W0NIM11bQ0hdKFtDSDNdKVtDSDJdTjFbQ0gyXVtDSDJdW0NIMl1bQ0gyXVtDQEhdMVtDSDJdW05IXUMoPU8pW05IXWMyW2NIXVtjSF1bY0hdbihbQ0gzXSljMj1P

> <s_epik_cmdline>
J2VwaWtfcHl0aG9uJywgJy1waCcsICc3LjAnLCAnLXRuJywgJzgnLCAnLW1hJywgJzIwMCcsICctbWV0YWxfYmluZGluZycsICctaW1hZScsICc8aW5maWxlLm1hZT4nLCAnLW9tYWUnLCAnPG91dGZpbGUubWFlPic=

> <r_lp_tautomer_probability>
1

> <r_epik_Ionization_Penalty>
0.0010885

> <r_epik_Ionization_Penalty_Charging>
0.00106921

> <r_epik_Ionization_Penalty_Neutral>
1.92865e-05

> <r_epik_State_Penalty>
0.000697184

> <r_epik_Charging_Adjusted_Penalty>
0.0017664

> <i_epik_Tot_Q>
1

> <i_epik_Tot_abs_Q>
1

> <r_epik_Metal_State_Penalty>
-0

> <b_epik_Metal_Only>
0

> <s_lp_Force_Field>
OPLS_2005

> <r_lp_Energy>
36.993

> <b_lp_Chiralities_Consistent>
1

> <s_lp_Variant>
AV-unprocessed.smi:2799-4

> <Gold.Version>
5.8.1

> <Gold.Id.Protein>
6NUR|6NUR_protein|mol2

> <Gold.PLP.Fitness>
49.2082

> <Gold.PLP.PLP>
-39.2206

> <Gold.PLP.part.hbond>
-3.0000

> <Gold.PLP.part.metal>
0.0000

> <Gold.PLP.part.buried>
-3.4177

> <Gold.PLP.part.nonpolar>
-33.2344

> <Gold.PLP.part.repulsive>
0.0660

> <Gold.PLP.ligand.clash>
0.0000

> <Gold.PLP.ligand.torsion>
0.6208

> <Gold.PLP.Chemscore.Hbond>
3.7120

> <Gold.PLP.Chemscore.CHOScore>
0.0000

> <Gold.PLP.Chemscore.Metal>
0.0000

> <Gold.Chemscore.Hbonds>
donor molecule, donor type, donor heavy atom, donor atom, acceptor molecule, acceptor atom, score
      L1  H     5    52       P1  7948  1.98
      P1  H  6931  6943       L1    23  0.60
      P1  H  6934  6947       L1    23  1.00

> <Gold.PLP.Chemscore.Internal.Correction>
0.0932

> <Gold.Rescore>
     Score         DG    S(hbond)    S(metal)    S(lipo)     H(rot)  DE(clash)    DE(int)     intcor
     17.66     -19.68       2.57        0.00      82.23       1.57       0.23       1.79       ----

> <Gold.Chemscore.Fitness>
17.6622

> <Gold.Chemscore.DG>
-19.6812

> <Gold.Chemscore.ZeroCoef>
-5.4800

> <Gold.Chemscore.Hbond>
2.5736

> <Gold.Chemscore.Metal>
0.0000

> <Gold.Chemscore.Lipo>
82.2340

> <Gold.Chemscore.Internal_Hbond>
0.0000

> <Gold.Chemscore.DEClash>
0.2334

> <Gold.Chemscore.DEInternal>
1.7856

> <Gold.Chemscore.Rot>
1.5688

> <Gold.Chemscore.Internal.Correction>
   9.000000E+99

> <Gold.Chemscore.Hbonds>
donor molecule, donor type, donor heavy atom, donor atom, acceptor molecule, acceptor atom, score
      L1  H     5    52       P1  7948  0.92
      P1  H  6931  6943       L1    23  0.57
      P1  H  6934  6947       L1    23  0.97

> <Gold.Chemscore.Hbond.Weighted>
-8.5959

> <Gold.Chemscore.Metal.Weighted>
-0.0000

> <Gold.Chemscore.Lipo.Weighted>
-9.6214

> <Gold.Chemscore.Internal_Hbond.Weighted>
0.0000

> <Gold.Chemscore.DEClash.Weighted>
0.2334

> <Gold.Chemscore.DEInternal.Weighted>
1.7856

> <Gold.Chemscore.Rot.Weighted>
4.0161

> <Gold.Chemscore.Internal.Correction.Weighted>
   9.000000E+99

> <Gold.Protein.RotatedTorsions>
[ 6907 6896 6895 6894 ] final   -5.61 input  -60.11 | X-H torsion
[ 7974 7965 7964 7962 ] final  161.32 input  175.53 | X-H torsion
[ 8008 7997 7996 7995 ] final  111.87 input   59.86 | X-H torsion
[ 10167 10162 10161 10158 ] final  116.31 input  -65.29 | X-H torsion
[ 10718 10713 10712 10709 ] final  -83.37 input   66.30 | X-H torsion
[ 10763 10752 10751 10750 ] final   30.23 input  -60.55 | X-H torsion
[ 11005 11000 10999 10996 ] final  173.28 input  -57.11 | X-H torsion

> <Gold.Protein.ActiveResidues>
 VAL166  LYS551  ARG553  GLY616  TRP617  ASP618  TYR619  PRO620  LYS621  CYS622 
 ASP623  PHE694  ASN695  SER759  ASP760  ASP761  ALA762  ILE779  LEU786  VAL792 
 PHE793  MET794  SER795  GLU796  ALA797  LYS798  CYS799  TRP800  GLU811  SER814 

> <Gold.Protein.RotatedAtoms>
  151.4788  135.1051  159.9771 H   0  0  0  0  0  0  0  0  0  0  0  0  # atno 6907 bound_to 6896
  152.4787  133.8197  159.7058 H   0  0  0  0  0  0  0  0  0  0  0  0  # atno 6908 bound_to 6896
  150.8843  133.7267  159.2949 H   0  0  0  0  0  0  0  0  0  0  0  0  # atno 6909 bound_to 6896
  144.7692  139.7881  143.6303 H   0  0  0  0  0  0  0  0  0  0  0  0  # atno 7974 bound_to 7965
  156.2153  140.3011  155.9826 H   0  0  0  0  0  0  0  0  0  0  0  0  # atno 8008 bound_to 7997
  155.2620  140.0430  157.3015 H   0  0  0  0  0  0  0  0  0  0  0  0  # atno 8009 bound_to 7997
  154.5759  140.2361  155.8131 H   0  0  0  0  0  0  0  0  0  0  0  0  # atno 8010 bound_to 7997
  139.6256  144.7108  151.2541 H   0  0  0  0  0  0  0  0  0  0  0  0  # atno 10167 bound_to 10162
  156.0019  130.4663  150.4247 H   0  0  0  0  0  0  0  0  0  0  0  0  # atno 10718 bound_to 10713
  153.0384  135.6469  154.1012 H   0  0  0  0  0  0  0  0  0  0  0  0  # atno 10763 bound_to 10752
  154.0723  135.2879  155.3307 H   0  0  0  0  0  0  0  0  0  0  0  0  # atno 10764 bound_to 10752
  154.6586  135.5400  153.8054 H   0  0  0  0  0  0  0  0  0  0  0  0  # atno 10765 bound_to 10752
  140.3388  134.7294  157.4187 H   0  0  0  0  0  0  0  0  0  0  0  0  # atno 11005 bound_to 11000
  146.1825  139.5024  142.9857 LP  0  0  0  0  0  0  0  0  0  0  0  0  # atno 17320 bound_to 7965
  145.6376  141.0291  143.1829 LP  0  0  0  0  0  0  0  0  0  0  0  0  # atno 17321 bound_to 7965
  140.7409  143.6574  150.8194 LP  0  0  0  0  0  0  0  0  0  0  0  0  # atno 17342 bound_to 10162
  140.0192  143.5561  152.2807 LP  0  0  0  0  0  0  0  0  0  0  0  0  # atno 17343 bound_to 10162
  157.2301  131.0502  151.2497 LP  0  0  0  0  0  0  0  0  0  0  0  0  # atno 17370 bound_to 10713
  157.3719  130.7186  149.6571 LP  0  0  0  0  0  0  0  0  0  0  0  0  # atno 17371 bound_to 10713
  140.0799  134.5746  155.8552 LP  0  0  0  0  0  0  0  0  0  0  0  0  # atno 17394 bound_to 11000
  141.2044  133.6639  156.6119 LP  0  0  0  0  0  0  0  0  0  0  0  0  # atno 17395 bound_to 11000

$$$$
