AV-unprocessed.smi:1406|AV-procd|sdf|5711|dock6
  -GOLD-   22720 5343D 1   1.00000     0.00000
 Structure written by MMmdl.
 41 43  0  0  0  0  0  0  0  0  2 V2000
  147.8921  133.5796  157.5078 C   0  0  0  0  0  0  0  0  0  0  0  0
  148.2857  134.1091  156.1136 C   0  0  2  0  0  0  0  0  0  0  0  0
  148.3087  133.0095  155.0410 C   0  0  0  0  0  0  0  0  0  0  0  0
  149.0471  132.0304  155.1527 O   0  0  0  0  0  0  0  0  0  0  0  0
  147.5097  133.2029  153.9800 N   0  0  0  0  0  0  0  0  0  0  0  0
  147.4815  132.3535  152.7935 C   0  0  1  0  0  0  0  0  0  0  0  0
  146.6968  131.0506  152.9992 C   0  0  0  0  0  0  0  0  0  0  0  0
  146.0698  130.7376  151.6284 C   0  0  0  0  0  0  0  0  0  0  0  0
  146.4806  131.8366  150.7265 N   0  3  1  0  0  0  0  0  0  0  0  0
  145.5988  132.1021  149.5610 C   0  0  0  0  0  0  0  0  0  0  0  0
  144.3386  132.8988  149.9384 C   0  0  0  0  0  0  0  0  0  0  0  0
  144.7140  134.1836  150.6839 C   0  0  0  0  0  0  0  0  0  0  0  0
  145.5328  133.8340  151.9307 C   0  0  0  0  0  0  0  0  0  0  0  0
  146.7961  133.0045  151.5787 C   0  0  1  0  0  0  0  0  0  0  0  0
  149.5661  134.8070  156.1291 N   0  0  0  0  0  0  0  0  0  0  0  0
  150.1863  135.4826  155.1588 C   0  0  0  0  0  0  0  0  0  0  0  0
  151.3832  135.9383  155.4993 N   0  0  0  0  0  0  0  0  0  0  0  0
  151.4481  135.4734  156.7819 C   0  0  0  0  0  0  0  0  0  0  0  0
  150.3936  134.7760  157.2036 N   0  0  0  0  0  0  0  0  0  0  0  0
  146.9052  133.1164  157.4872 H   0  0  0  0  0  0  0  0  0  0  0  0
  147.8563  134.3913  158.2349 H   0  0  0  0  0  0  0  0  0  0  0  0
  148.5981  132.8358  157.8801 H   0  0  0  0  0  0  0  0  0  0  0  0
  147.5276  134.8362  155.8179 H   0  0  0  0  0  0  0  0  0  0  0  0
  146.9256  134.0266  153.9691 H   0  0  0  0  0  0  0  0  0  0  0  0
  148.5047  132.0888  152.5176 H   0  0  0  0  0  0  0  0  0  0  0  0
  147.3428  130.2447  153.3491 H   0  0  0  0  0  0  0  0  0  0  0  0
  145.9072  131.1825  153.7405 H   0  0  0  0  0  0  0  0  0  0  0  0
  146.4102  129.7807  151.2317 H   0  0  0  0  0  0  0  0  0  0  0  0
  144.9840  130.6924  151.7192 H   0  0  0  0  0  0  0  0  0  0  0  0
  146.1747  132.6716  148.8308 H   0  0  0  0  0  0  0  0  0  0  0  0
  145.3315  131.1617  149.0777 H   0  0  0  0  0  0  0  0  0  0  0  0
  143.7729  133.1435  149.0389 H   0  0  0  0  0  0  0  0  0  0  0  0
  143.6792  132.2906  150.5587 H   0  0  0  0  0  0  0  0  0  0  0  0
  145.2902  134.8409  150.0314 H   0  0  0  0  0  0  0  0  0  0  0  0
  143.8146  134.7312  150.9670 H   0  0  0  0  0  0  0  0  0  0  0  0
  145.8164  134.7536  152.4437 H   0  0  0  0  0  0  0  0  0  0  0  0
  144.8991  133.2809  152.6251 H   0  0  0  0  0  0  0  0  0  0  0  0
  147.4985  133.6472  151.0460 H   0  0  0  0  0  0  0  0  0  0  0  0
  149.7579  135.6341  154.1791 H   0  0  0  0  0  0  0  0  0  0  0  0
  152.3023  135.6443  157.4205 H   0  0  0  0  0  0  0  0  0  0  0  0
  147.3670  131.5374  150.3454 H   0  0  0  0  0  0  0  0  0  0  0  0
  1  2  1  0  0  0  0
  1 20  1  0  0  0  0
  1 21  1  0  0  0  0
  1 22  1  0  0  0  0
  2  3  1  0  0  0  0
  2 15  1  0  0  0  0
  2 23  1  0  0  0  0
  3  4  2  0  0  0  0
  3  5  1  0  0  0  0
  5  6  1  0  0  0  0
  5 24  1  0  0  0  0
  6 14  1  0  0  0  0
  6  7  1  0  0  0  0
  6 25  1  0  0  0  0
  7  8  1  0  0  0  0
  7 26  1  0  0  0  0
  7 27  1  0  0  0  0
  8  9  1  0  0  0  0
  8 28  1  0  0  0  0
  8 29  1  0  0  0  0
  9 14  1  0  0  0  0
  9 10  1  0  0  0  0
  9 41  1  0  0  0  0
 10 11  1  0  0  0  0
 10 30  1  0  0  0  0
 10 31  1  0  0  0  0
 11 12  1  0  0  0  0
 11 32  1  0  0  0  0
 11 33  1  0  0  0  0
 12 13  1  0  0  0  0
 12 34  1  0  0  0  0
 12 35  1  0  0  0  0
 13 14  1  0  0  0  0
 13 36  1  0  0  0  0
 13 37  1  0  0  0  0
 14 38  1  0  0  0  0
 15 19  1  0  0  0  0
 15 16  1  0  0  0  0
 16 17  2  0  0  0  0
 16 39  1  0  0  0  0
 17 18  1  0  0  0  0
 18 19  2  0  0  0  0
 18 40  1  0  0  0  0
M  CHG  1   9   1
M  END
> <s_m_source_file>
AV-unprocessed.smi

> <i_m_source_file_index>
1406

> <i_lp_mmshare_version>
43012

> <i_f3d_flags>
0

> <s_epik_input>
bjFbY0hdbltjSF1uMVtDQEhdKFtDSDNdKUMoPU8pW05IXVtDQEhdKFtDSDJdW0NIMl0yKVtDQEBIXShOMjMpW0NIMl1bQ0gyXVtDSDJdW0NIMl0z

> <s_epik_cmdline>
J2VwaWtfcHl0aG9uJywgJy1waCcsICc3LjAnLCAnLXRuJywgJzgnLCAnLW1hJywgJzIwMCcsICctbWV0YWxfYmluZGluZycsICctaW1hZScsICc8aW5maWxlLm1hZT4nLCAnLW9tYWUnLCAnPG91dGZpbGUubWFlPic=

> <r_lp_tautomer_probability>
1

> <r_epik_Ionization_Penalty>
0.00197066

> <r_epik_Ionization_Penalty_Charging>
0.00196223

> <r_epik_Ionization_Penalty_Neutral>
8.43107e-06

> <r_epik_State_Penalty>
0.00133866

> <r_epik_Charging_Adjusted_Penalty>
0.00330089

> <i_epik_Tot_Q>
1

> <i_epik_Tot_abs_Q>
1

> <r_epik_Metal_State_Penalty>
-0

> <b_epik_Metal_Only>
0

> <s_lp_Force_Field>
OPLS_2005

> <r_lp_Energy>
41.142

> <b_lp_Chiralities_Consistent>
1

> <s_lp_Variant>
AV-unprocessed.smi:1406-3

> <Gold.Version>
5.8.1

> <Gold.Id.Protein>
6NUR|6NUR_protein|mol2

> <Gold.PLP.Fitness>
37.5466

> <Gold.PLP.PLP>
-28.4137

> <Gold.PLP.part.hbond>
-3.0000

> <Gold.PLP.part.metal>
0.0000

> <Gold.PLP.part.buried>
-5.1335

> <Gold.PLP.part.nonpolar>
-21.5719

> <Gold.PLP.part.repulsive>
0.1497

> <Gold.PLP.ligand.clash>
0.0000

> <Gold.PLP.ligand.torsion>
0.3724

> <Gold.PLP.Chemscore.Hbond>
2.2569

> <Gold.PLP.Chemscore.CHOScore>
1.0000

> <Gold.PLP.Chemscore.Metal>
0.0000

> <Gold.Chemscore.Hbonds>
donor molecule, donor type, donor heavy atom, donor atom, acceptor molecule, acceptor atom, score
      L1  H     9    41       P1 10747  1.00
      P1  H  6896  6908       L1    19  0.28
      P1  H 10752 10765       L1    17  1.00
      L1  C    16    39       P1  7948  0.98

> <Gold.PLP.Chemscore.Internal.Correction>
0.1071

> <Gold.Rescore>
     Score         DG    S(hbond)    S(metal)    S(lipo)     H(rot)  DE(clash)    DE(int)     intcor
     15.42     -15.68       2.40        0.00      60.10       1.89       0.02       0.24       ----

> <Gold.Chemscore.Fitness>
15.4226

> <Gold.Chemscore.DG>
-15.6837

> <Gold.Chemscore.ZeroCoef>
-5.4800

> <Gold.Chemscore.Hbond>
2.3957

> <Gold.Chemscore.Metal>
0.0000

> <Gold.Chemscore.Lipo>
60.0997

> <Gold.Chemscore.Internal_Hbond>
0.0000

> <Gold.Chemscore.DEClash>
0.0202

> <Gold.Chemscore.DEInternal>
0.2408

> <Gold.Chemscore.Rot>
1.8865

> <Gold.Chemscore.Internal.Correction>
   9.000000E+99

> <Gold.Chemscore.Hbonds>
donor molecule, donor type, donor heavy atom, donor atom, acceptor molecule, acceptor atom, score
      L1  H     9    41       P1 10747  1.00
      P1  H  6896  6908       L1    19  0.20
      P1  H 10752 10765       L1    17  0.30

> <Gold.Chemscore.Hbond.Weighted>
-8.0015

> <Gold.Chemscore.Metal.Weighted>
-0.0000

> <Gold.Chemscore.Lipo.Weighted>
-7.0317

> <Gold.Chemscore.Internal_Hbond.Weighted>
0.0000

> <Gold.Chemscore.DEClash.Weighted>
0.0202

> <Gold.Chemscore.DEInternal.Weighted>
0.2408

> <Gold.Chemscore.Rot.Weighted>
4.8295

> <Gold.Chemscore.Internal.Correction.Weighted>
   9.000000E+99

> <Gold.Protein.RotatedTorsions>
[ 6907 6896 6895 6894 ] final  142.19 input  -60.11 | X-H torsion
[ 7974 7965 7964 7962 ] final  -17.99 input  175.53 | X-H torsion
[ 8008 7997 7996 7995 ] final   84.47 input   59.86 | X-H torsion
[ 10167 10162 10161 10158 ] final   -0.69 input  -65.29 | X-H torsion
[ 10718 10713 10712 10709 ] final   84.97 input   66.30 | X-H torsion
[ 10763 10752 10751 10750 ] final -160.80 input  -60.55 | X-H torsion
[ 11005 11000 10999 10996 ] final  -50.64 input  -57.11 | X-H torsion

> <Gold.Protein.ActiveResidues>
 VAL166  LYS551  ARG553  GLY616  TRP617  ASP618  TYR619  PRO620  LYS621  CYS622 
 ASP623  PHE694  ASN695  SER759  ASP760  ASP761  ALA762  ILE779  LEU786  VAL792 
 PHE793  MET794  SER795  GLU796  ALA797  LYS798  CYS799  TRP800  GLU811  SER814 

> <Gold.Protein.RotatedAtoms>
  152.2218  133.4989  159.5166 H   0  0  0  0  0  0  0  0  0  0  0  0  # atno 6907 bound_to 6896
  150.7015  134.1332  159.4086 H   0  0  0  0  0  0  0  0  0  0  0  0  # atno 6908 bound_to 6896
  151.9253  135.0280  160.0576 H   0  0  0  0  0  0  0  0  0  0  0  0  # atno 6909 bound_to 6896
  146.1914  140.3858  142.8456 H   0  0  0  0  0  0  0  0  0  0  0  0  # atno 7974 bound_to 7965
  155.9375  140.3410  155.6300 H   0  0  0  0  0  0  0  0  0  0  0  0  # atno 8008 bound_to 7997
  155.7081  140.0768  157.2401 H   0  0  0  0  0  0  0  0  0  0  0  0  # atno 8009 bound_to 7997
  154.4096  140.1628  156.2253 H   0  0  0  0  0  0  0  0  0  0  0  0  # atno 8010 bound_to 7997
  140.6778  143.6864  150.8063 H   0  0  0  0  0  0  0  0  0  0  0  0  # atno 10167 bound_to 10162
  157.6907  131.0155  150.2752 H   0  0  0  0  0  0  0  0  0  0  0  0  # atno 10718 bound_to 10713
  154.7359  135.3057  154.8811 H   0  0  0  0  0  0  0  0  0  0  0  0  # atno 10763 bound_to 10752
  153.9640  135.6749  153.4750 H   0  0  0  0  0  0  0  0  0  0  0  0  # atno 10764 bound_to 10752
  153.0962  135.4934  154.8706 H   0  0  0  0  0  0  0  0  0  0  0  0  # atno 10765 bound_to 10752
  141.0827  133.6649  156.3761 H   0  0  0  0  0  0  0  0  0  0  0  0  # atno 11005 bound_to 11000
  144.8494  140.6978  143.6178 LP  0  0  0  0  0  0  0  0  0  0  0  0  # atno 17320 bound_to 7965
  145.3781  139.1643  143.4296 LP  0  0  0  0  0  0  0  0  0  0  0  0  # atno 17321 bound_to 7965
  140.0560  143.5202  152.2651 LP  0  0  0  0  0  0  0  0  0  0  0  0  # atno 17342 bound_to 10162
  139.6081  144.7601  151.3014 LP  0  0  0  0  0  0  0  0  0  0  0  0  # atno 17343 bound_to 10162
  156.3308  130.3800  149.7493 LP  0  0  0  0  0  0  0  0  0  0  0  0  # atno 17370 bound_to 10713
  156.5033  130.8139  151.3141 LP  0  0  0  0  0  0  0  0  0  0  0  0  # atno 17371 bound_to 10713
  140.5432  134.6100  157.5386 LP  0  0  0  0  0  0  0  0  0  0  0  0  # atno 17394 bound_to 11000
  139.9642  134.7401  156.0172 LP  0  0  0  0  0  0  0  0  0  0  0  0  # atno 17395 bound_to 11000

$$$$
