AV-unprocessed.smi:2556|AV-procd|sdf|10026|dock2
  -GOLD-   2272014 73D 1   1.00000     0.00000
 Structure written by MMmdl.
 34 36  0  0  0  0  0  0  0  0  2 V2000
  147.0959  137.8007  157.8745 C   0  0  0  0  0  0  0  0  0  0  0  0
  148.4851  137.7715  158.3423 N   0  0  0  0  0  0  0  0  0  0  0  0
  149.0240  136.7090  159.0244 C   0  0  0  0  0  0  0  0  0  0  0  0
  148.3131  135.7298  159.2513 O   0  0  0  0  0  0  0  0  0  0  0  0
  150.3395  136.7560  159.4386 N   0  5  0  0  0  0  0  0  0  0  0  0
  151.2138  137.7916  159.2321 C   0  0  0  0  0  0  0  0  0  0  0  0
  152.3873  137.8562  159.5948 O   0  0  0  0  0  0  0  0  0  0  0  0
  150.5891  138.8999  158.4835 C   0  0  0  0  0  0  0  0  0  0  0  0
  149.2965  138.9016  158.0576 C   0  0  0  0  0  0  0  0  0  0  0  0
  148.9841  140.0743  157.3784 N   0  0  0  0  0  0  0  0  0  0  0  0
  150.1391  140.7386  157.4310 C   0  0  0  0  0  0  0  0  0  0  0  0
  151.1463  140.1089  158.0698 N   0  0  0  0  0  0  0  0  0  0  0  0
  152.4963  140.6153  158.2609 C   0  0  0  0  0  0  0  0  0  0  0  0
  152.7971  140.9633  159.7321 C   0  0  1  0  0  0  0  0  0  0  0  0
  154.1318  140.6135  160.0476 O   0  0  0  0  0  0  0  0  0  0  0  0
  152.4959  142.4251  160.0243 C   0  0  0  0  0  0  0  0  0  0  0  0
  152.5578  142.9277  161.3433 C   0  0  0  0  0  0  0  0  0  0  0  0
  152.2855  144.2858  161.5991 C   0  0  0  0  0  0  0  0  0  0  0  0
  151.9535  145.1500  160.5380 C   0  0  0  0  0  0  0  0  0  0  0  0
  151.8969  144.6558  159.2207 C   0  0  0  0  0  0  0  0  0  0  0  0
  152.1687  143.2977  158.9645 C   0  0  0  0  0  0  0  0  0  0  0  0
  146.5014  136.9365  158.1719 H   0  0  0  0  0  0  0  0  0  0  0  0
  147.0738  137.8545  156.7858 H   0  0  0  0  0  0  0  0  0  0  0  0
  146.5926  138.6860  158.2641 H   0  0  0  0  0  0  0  0  0  0  0  0
  150.2588  141.7157  156.9863 H   0  0  0  0  0  0  0  0  0  0  0  0
  153.2022  139.8667  157.8986 H   0  0  0  0  0  0  0  0  0  0  0  0
  152.6300  141.4905  157.6244 H   0  0  0  0  0  0  0  0  0  0  0  0
  152.1628  140.3551  160.3776 H   0  0  0  0  0  0  0  0  0  0  0  0
  154.2383  140.6638  160.9852 H   0  0  0  0  0  0  0  0  0  0  0  0
  152.8174  142.2745  162.1637 H   0  0  0  0  0  0  0  0  0  0  0  0
  152.3333  144.6648  162.6092 H   0  0  0  0  0  0  0  0  0  0  0  0
  151.7457  146.1917  160.7341 H   0  0  0  0  0  0  0  0  0  0  0  0
  151.6466  145.3185  158.4056 H   0  0  0  0  0  0  0  0  0  0  0  0
  152.1283  142.9282  157.9499 H   0  0  0  0  0  0  0  0  0  0  0  0
  1  2  1  0  0  0  0
  1 22  1  0  0  0  0
  1 23  1  0  0  0  0
  1 24  1  0  0  0  0
  2  9  1  0  0  0  0
  2  3  1  0  0  0  0
  3  4  2  0  0  0  0
  3  5  1  0  0  0  0
  5  6  1  0  0  0  0
  6  7  2  0  0  0  0
  6  8  1  0  0  0  0
  8 12  1  0  0  0  0
  8  9  2  0  0  0  0
  9 10  1  0  0  0  0
 10 11  2  0  0  0  0
 11 12  1  0  0  0  0
 11 25  1  0  0  0  0
 12 13  1  0  0  0  0
 13 14  1  0  0  0  0
 13 26  1  0  0  0  0
 13 27  1  0  0  0  0
 14 15  1  0  0  0  0
 14 16  1  0  0  0  0
 14 28  1  0  0  0  0
 15 29  1  0  0  0  0
 16 21  1  0  0  0  0
 16 17  2  0  0  0  0
 17 18  1  0  0  0  0
 17 30  1  0  0  0  0
 18 19  2  0  0  0  0
 18 31  1  0  0  0  0
 19 20  1  0  0  0  0
 19 32  1  0  0  0  0
 20 21  2  0  0  0  0
 20 33  1  0  0  0  0
 21 34  1  0  0  0  0
M  CHG  1   5  -1
M  END
> <s_m_source_file>
AV-unprocessed.smi

> <i_m_source_file_index>
2556

> <i_lp_mmshare_version>
43012

> <i_f3d_flags>
0

> <s_epik_input>
Tz1jMVtuSF1jKD1PKW4oW0NIM10pYyhjMTIpbltjSF1uMltDSDJdW0NASF0oW09IXSljM1tjSF1bY0hdW2NIXVtjSF1bY0hdMw==

> <s_epik_cmdline>
J2VwaWtfcHl0aG9uJywgJy1waCcsICc3LjAnLCAnLXRuJywgJzgnLCAnLW1hJywgJzIwMCcsICctbWV0YWxfYmluZGluZycsICctaW1hZScsICc8aW5maWxlLm1hZT4nLCAnLW9tYWUnLCAnPG91dGZpbGUubWFlPic=

> <r_lp_tautomer_probability>
1

> <r_epik_Ionization_Penalty>
4.84872

> <r_epik_Ionization_Penalty_Charging>
0.03865

> <r_epik_Ionization_Penalty_Neutral>
4.81007

> <r_epik_State_Penalty>
4.80988

> <r_epik_Charging_Adjusted_Penalty>
4.84853

> <i_epik_Tot_Q>
-1

> <i_epik_Tot_abs_Q>
1

> <r_epik_Metal_State_Penalty>
0.994041

> <b_epik_Metal_Only>
1

> <s_lp_Force_Field>
OPLS_2005

> <r_lp_Energy>
31.8708

> <b_lp_Chiralities_Consistent>
1

> <s_lp_Variant>
AV-unprocessed.smi:2556-4

> <Gold.Version>
5.8.1

> <Gold.Id.Protein>
6NUR|6NUR_protein|mol2

> <Gold.PLP.Fitness>
45.2511

> <Gold.PLP.PLP>
-40.4637

> <Gold.PLP.part.hbond>
-1.0000

> <Gold.PLP.part.metal>
0.0000

> <Gold.PLP.part.buried>
-6.0161

> <Gold.PLP.part.nonpolar>
-33.1222

> <Gold.PLP.part.repulsive>
0.0000

> <Gold.PLP.ligand.clash>
0.0000

> <Gold.PLP.ligand.torsion>
0.6228

> <Gold.PLP.Chemscore.Hbond>
2.0000

> <Gold.PLP.Chemscore.CHOScore>
0.0000

> <Gold.PLP.Chemscore.Metal>
0.0000

> <Gold.Chemscore.Hbonds>
donor molecule, donor type, donor heavy atom, donor atom, acceptor molecule, acceptor atom, score
      P1  H  6896  6909       L1     5  2.00

> <Gold.PLP.Chemscore.Internal.Correction>
0.0329

> <Gold.Rescore>
     Score         DG    S(hbond)    S(metal)    S(lipo)     H(rot)  DE(clash)    DE(int)     intcor
     12.51     -13.17       0.88        0.00      90.63       2.28       0.03       0.63       ----

> <Gold.Chemscore.Fitness>
12.5060

> <Gold.Chemscore.DG>
-13.1717

> <Gold.Chemscore.ZeroCoef>
-5.4800

> <Gold.Chemscore.Hbond>
0.8775

> <Gold.Chemscore.Metal>
0.0000

> <Gold.Chemscore.Lipo>
90.6310

> <Gold.Chemscore.Internal_Hbond>
0.0000

> <Gold.Chemscore.DEClash>
0.0335

> <Gold.Chemscore.DEInternal>
0.6323

> <Gold.Chemscore.Rot>
2.2824

> <Gold.Chemscore.Internal.Correction>
   9.000000E+99

> <Gold.Chemscore.Hbonds>
donor molecule, donor type, donor heavy atom, donor atom, acceptor molecule, acceptor atom, score
      P1  H  6896  6909       L1     5  0.69

> <Gold.Chemscore.Hbond.Weighted>
-2.9310

> <Gold.Chemscore.Metal.Weighted>
-0.0000

> <Gold.Chemscore.Lipo.Weighted>
-10.6038

> <Gold.Chemscore.Internal_Hbond.Weighted>
0.0000

> <Gold.Chemscore.DEClash.Weighted>
0.0335

> <Gold.Chemscore.DEInternal.Weighted>
0.6323

> <Gold.Chemscore.Rot.Weighted>
5.8431

> <Gold.Chemscore.Internal.Correction.Weighted>
   9.000000E+99

> <Gold.Protein.RotatedTorsions>
[ 6907 6896 6895 6894 ] final   78.41 input  -60.11 | X-H torsion
[ 7974 7965 7964 7962 ] final  -54.55 input  175.53 | X-H torsion
[ 8008 7997 7996 7995 ] final   38.10 input   59.86 | X-H torsion
[ 10167 10162 10161 10158 ] final   77.43 input  -65.29 | X-H torsion
[ 10718 10713 10712 10709 ] final   51.00 input   66.30 | X-H torsion
[ 10763 10752 10751 10750 ] final  124.21 input  -60.55 | X-H torsion
[ 11005 11000 10999 10996 ] final  -14.42 input  -57.11 | X-H torsion

> <Gold.Protein.ActiveResidues>
 VAL166  LYS551  ARG553  GLY616  TRP617  ASP618  TYR619  PRO620  LYS621  CYS622 
 ASP623  PHE694  ASN695  SER759  ASP760  ASP761  ALA762  ILE779  LEU786  VAL792 
 PHE793  MET794  SER795  GLU796  ALA797  LYS798  CYS799  TRP800  GLU811  SER814 

> <Gold.Protein.RotatedAtoms>
  152.5158  134.3668  159.9303 H   0  0  0  0  0  0  0  0  0  0  0  0  # atno 6907 bound_to 6896
  151.3622  133.3879  159.2698 H   0  0  0  0  0  0  0  0  0  0  0  0  # atno 6908 bound_to 6896
  150.9643  134.9045  159.7808 H   0  0  0  0  0  0  0  0  0  0  0  0  # atno 6909 bound_to 6896
  145.8843  140.8120  142.9824 H   0  0  0  0  0  0  0  0  0  0  0  0  # atno 7974 bound_to 7965
  155.2146  140.3326  155.4324 H   0  0  0  0  0  0  0  0  0  0  0  0  # atno 8008 bound_to 7997
  156.2357  140.1871  156.7173 H   0  0  0  0  0  0  0  0  0  0  0  0  # atno 8009 bound_to 7997
  154.6055  140.0616  156.9411 H   0  0  0  0  0  0  0  0  0  0  0  0  # atno 8010 bound_to 7997
  139.9816  144.5822  150.7895 H   0  0  0  0  0  0  0  0  0  0  0  0  # atno 10167 bound_to 10162
  157.4939  130.8394  149.8235 H   0  0  0  0  0  0  0  0  0  0  0  0  # atno 10718 bound_to 10713
  153.6578  135.3351  155.3118 H   0  0  0  0  0  0  0  0  0  0  0  0  # atno 10763 bound_to 10752
  154.8522  135.4356  154.1836 H   0  0  0  0  0  0  0  0  0  0  0  0  # atno 10764 bound_to 10752
  153.2795  135.7007  153.7474 H   0  0  0  0  0  0  0  0  0  0  0  0  # atno 10765 bound_to 10752
  140.7863  133.8323  155.9338 H   0  0  0  0  0  0  0  0  0  0  0  0  # atno 11005 bound_to 11000
  144.6728  140.1431  143.7435 LP  0  0  0  0  0  0  0  0  0  0  0  0  # atno 17320 bound_to 7965
  145.8986  139.2417  143.1507 LP  0  0  0  0  0  0  0  0  0  0  0  0  # atno 17321 bound_to 7965
  140.7487  143.2926  151.3289 LP  0  0  0  0  0  0  0  0  0  0  0  0  # atno 17342 bound_to 10162
  139.6405  144.0548  152.2551 LP  0  0  0  0  0  0  0  0  0  0  0  0  # atno 17343 bound_to 10162
  156.0189  130.3803  150.2023 LP  0  0  0  0  0  0  0  0  0  0  0  0  # atno 17370 bound_to 10713
  157.0212  130.9980  151.3339 LP  0  0  0  0  0  0  0  0  0  0  0  0  # atno 17371 bound_to 10713
  140.9434  134.1872  157.4781 LP  0  0  0  0  0  0  0  0  0  0  0  0  # atno 17394 bound_to 11000
  139.8736  134.9881  156.5396 LP  0  0  0  0  0  0  0  0  0  0  0  0  # atno 17395 bound_to 11000

$$$$
