AV-unprocessed.smi:1978|AV-procd|sdf|8008|dock8
  -GOLD-   2272010193D 1   1.00000     0.00000
 Structure written by MMmdl.
 44 45  0  0  0  0  0  0  0  0  3 V2000
  147.7003  136.5774  163.1094 C   0  0  0  0  0  0  0  0  0  0  0  0
  147.5268  136.4373  161.6361 C   0  0  0  0  0  0  0  0  0  0  0  0
  148.0678  135.5879  160.7127 C   0  0  0  0  0  0  0  0  0  0  0  0
  147.4652  136.0084  159.4972 C   0  0  0  0  0  0  0  0  0  0  0  0
  147.7738  135.3570  158.2738 N   0  0  0  0  0  0  0  0  0  0  0  0
  148.9760  135.1636  157.7014 C   0  0  0  0  0  0  0  0  0  0  0  0
  150.0051  135.5696  158.2543 O   0  0  0  0  0  0  0  0  0  0  0  0
  148.8805  134.5101  156.5106 N   0  5  0  0  0  0  0  0  0  0  0  0
  148.1361  134.9947  155.3471 C   0  0  0  0  0  0  0  0  0  0  0  0
  148.0464  133.9042  154.2453 C   0  0  2  0  0  0  0  0  0  0  0  0
  149.4268  133.3452  153.8071 C   0  0  0  0  0  0  0  0  0  0  0  0
  147.2197  134.4131  153.1051 N   0  3  1  0  0  0  0  0  0  0  0  0
  146.8344  133.4174  152.0610 C   0  0  0  0  0  0  0  0  0  0  0  0
  146.2828  134.1174  150.8090 C   0  0  0  0  0  0  0  0  0  0  0  0
  145.1046  135.0327  151.1622 C   0  0  0  0  0  0  0  0  0  0  0  0
  145.5223  136.0291  152.2536 C   0  0  0  0  0  0  0  0  0  0  0  0
  146.0996  135.3225  153.4983 C   0  0  1  0  0  0  0  0  0  0  0  0
  145.0074  134.6268  154.3373 C   0  0  0  0  0  0  0  0  0  0  0  0
  146.6311  137.0240  159.6649 N   0  0  0  0  0  0  0  0  0  0  0  0
  146.6667  137.3041  161.0362 O   0  0  0  0  0  0  0  0  0  0  0  0
  148.4488  135.8775  163.4817 H   0  0  0  0  0  0  0  0  0  0  0  0
  146.7632  136.3782  163.6294 H   0  0  0  0  0  0  0  0  0  0  0  0
  148.0235  137.5861  163.3665 H   0  0  0  0  0  0  0  0  0  0  0  0
  148.7792  134.7935  160.8813 H   0  0  0  0  0  0  0  0  0  0  0  0
  146.9828  134.9964  157.7614 H   0  0  0  0  0  0  0  0  0  0  0  0
  147.1257  135.3035  155.6204 H   0  0  0  0  0  0  0  0  0  0  0  0
  148.5986  135.8869  154.9243 H   0  0  0  0  0  0  0  0  0  0  0  0
  147.4991  133.0701  154.6871 H   0  0  0  0  0  0  0  0  0  0  0  0
  149.9368  132.8419  154.6303 H   0  0  0  0  0  0  0  0  0  0  0  0
  150.1014  134.1193  153.4372 H   0  0  0  0  0  0  0  0  0  0  0  0
  149.3214  132.6035  153.0161 H   0  0  0  0  0  0  0  0  0  0  0  0
  147.7037  132.8254  151.7729 H   0  0  0  0  0  0  0  0  0  0  0  0
  146.0941  132.7189  152.4514 H   0  0  0  0  0  0  0  0  0  0  0  0
  147.0743  134.7035  150.3402 H   0  0  0  0  0  0  0  0  0  0  0  0
  145.9711  133.3749  150.0739 H   0  0  0  0  0  0  0  0  0  0  0  0
  144.7680  135.5686  150.2744 H   0  0  0  0  0  0  0  0  0  0  0  0
  144.2581  134.4351  151.5020 H   0  0  0  0  0  0  0  0  0  0  0  0
  146.2759  136.7043  151.8458 H   0  0  0  0  0  0  0  0  0  0  0  0
  144.6752  136.6571  152.5322 H   0  0  0  0  0  0  0  0  0  0  0  0
  146.5278  136.1078  154.1231 H   0  0  0  0  0  0  0  0  0  0  0  0
  144.2106  135.3270  154.5883 H   0  0  0  0  0  0  0  0  0  0  0  0
  145.4038  134.2515  155.2803 H   0  0  0  0  0  0  0  0  0  0  0  0
  144.5494  133.7895  153.8116 H   0  0  0  0  0  0  0  0  0  0  0  0
  147.8612  135.0316  152.6292 H   0  0  0  0  0  0  0  0  0  0  0  0
  1  2  1  0  0  0  0
  1 21  1  0  0  0  0
  1 22  1  0  0  0  0
  1 23  1  0  0  0  0
  2 20  1  0  0  0  0
  2  3  2  0  0  0  0
  3  4  1  0  0  0  0
  3 24  1  0  0  0  0
  4  5  1  0  0  0  0
  4 19  2  0  0  0  0
  5  6  1  0  0  0  0
  5 25  1  0  0  0  0
  6  7  2  0  0  0  0
  6  8  1  0  0  0  0
  8  9  1  0  0  0  0
  9 10  1  0  0  0  0
  9 26  1  0  0  0  0
  9 27  1  0  0  0  0
 10 11  1  0  0  0  0
 10 12  1  0  0  0  0
 10 28  1  0  0  0  0
 11 29  1  0  0  0  0
 11 30  1  0  0  0  0
 11 31  1  0  0  0  0
 12 17  1  0  0  0  0
 12 13  1  0  0  0  0
 12 44  1  0  0  0  0
 13 14  1  0  0  0  0
 13 32  1  0  0  0  0
 13 33  1  0  0  0  0
 14 15  1  0  0  0  0
 14 34  1  0  0  0  0
 14 35  1  0  0  0  0
 15 16  1  0  0  0  0
 15 36  1  0  0  0  0
 15 37  1  0  0  0  0
 16 17  1  0  0  0  0
 16 38  1  0  0  0  0
 16 39  1  0  0  0  0
 17 18  1  0  0  0  0
 17 40  1  0  0  0  0
 18 41  1  0  0  0  0
 18 42  1  0  0  0  0
 18 43  1  0  0  0  0
 19 20  1  0  0  0  0
M  CHG  1   8  -1
M  CHG  1  12   1
M  END
> <s_m_source_file>
AV-unprocessed.smi

> <i_m_source_file_index>
1978

> <i_lp_mmshare_version>
43012

> <i_f3d_flags>
0

> <s_epik_input>
W0NIM11jMVtjSF1jKG5vMSlbTkhdQyg9TylbTkhdW0NIMl1bQ0BIXShbQ0gzXSlOMltDSDJdW0NIMl1bQ0gyXVtDSDJdW0NASF0yW0NIM10=

> <s_epik_cmdline>
J2VwaWtfcHl0aG9uJywgJy1waCcsICc3LjAnLCAnLXRuJywgJzgnLCAnLW1hJywgJzIwMCcsICctbWV0YWxfYmluZGluZycsICctaW1hZScsICc8aW5maWxlLm1hZT4nLCAnLW9tYWUnLCAnPG91dGZpbGUubWFlPic=

> <r_epik_Ionization_Penalty>
6.7666

> <r_epik_Ionization_Penalty_Charging>
6.7666

> <r_epik_Ionization_Penalty_Neutral>
5.77131e-06

> <r_epik_State_Penalty>
6.79217

> <r_epik_Charging_Adjusted_Penalty>
13.5588

> <i_epik_Tot_Q>
0

> <i_epik_Tot_abs_Q>
2

> <r_epik_Metal_State_Penalty>
2.72569

> <b_epik_Metal_Only>
1

> <s_lp_Force_Field>
OPLS_2005

> <r_lp_Energy>
20.2617

> <b_lp_Chiralities_Consistent>
1

> <s_lp_Variant>
AV-unprocessed.smi:1978-17

> <Gold.Version>
5.8.1

> <Gold.Id.Protein>
6NUR|6NUR_protein|mol2

> <Gold.PLP.Fitness>
39.0779

> <Gold.PLP.PLP>
-29.7034

> <Gold.PLP.part.hbond>
-3.0000

> <Gold.PLP.part.metal>
0.0000

> <Gold.PLP.part.buried>
-4.1661

> <Gold.PLP.part.nonpolar>
-22.7565

> <Gold.PLP.part.repulsive>
0.0365

> <Gold.PLP.ligand.clash>
0.0000

> <Gold.PLP.ligand.torsion>
1.3770

> <Gold.PLP.Chemscore.Hbond>
3.9760

> <Gold.PLP.Chemscore.CHOScore>
0.0000

> <Gold.PLP.Chemscore.Metal>
0.0000

> <Gold.Chemscore.Hbonds>
donor molecule, donor type, donor heavy atom, donor atom, acceptor molecule, acceptor atom, score
      L1  H    12    44       P1  7948  2.00
      P1  H  6896  6909       L1     7  0.96
      P1  H  6934  6947       L1    20  0.90

> <Gold.PLP.Chemscore.Internal.Correction>
0.2006

> <Gold.Rescore>
     Score         DG    S(hbond)    S(metal)    S(lipo)     H(rot)  DE(clash)    DE(int)     intcor
     15.97     -17.28       2.44        0.00      64.56       1.52       0.06       1.25       ----

> <Gold.Chemscore.Fitness>
15.9651

> <Gold.Chemscore.DG>
-17.2806

> <Gold.Chemscore.ZeroCoef>
-5.4800

> <Gold.Chemscore.Hbond>
2.4359

> <Gold.Chemscore.Metal>
0.0000

> <Gold.Chemscore.Lipo>
64.5585

> <Gold.Chemscore.Internal_Hbond>
0.0000

> <Gold.Chemscore.DEClash>
0.0609

> <Gold.Chemscore.DEInternal>
1.2547

> <Gold.Chemscore.Rot>
1.5190

> <Gold.Chemscore.Internal.Correction>
   9.000000E+99

> <Gold.Chemscore.Hbonds>
donor molecule, donor type, donor heavy atom, donor atom, acceptor molecule, acceptor atom, score
      L1  H    12    44       P1  7948  0.96
      P1  H  6896  6909       L1     7  0.89
      P1  H  6934  6947       L1    20  0.17

> <Gold.Chemscore.Hbond.Weighted>
-8.1359

> <Gold.Chemscore.Metal.Weighted>
-0.0000

> <Gold.Chemscore.Lipo.Weighted>
-7.5533

> <Gold.Chemscore.Internal_Hbond.Weighted>
0.0000

> <Gold.Chemscore.DEClash.Weighted>
0.0609

> <Gold.Chemscore.DEInternal.Weighted>
1.2547

> <Gold.Chemscore.Rot.Weighted>
3.8886

> <Gold.Chemscore.Internal.Correction.Weighted>
   9.000000E+99

> <Gold.Protein.RotatedTorsions>
[ 6907 6896 6895 6894 ] final   51.16 input  -60.11 | X-H torsion
[ 7974 7965 7964 7962 ] final   88.48 input  175.53 | X-H torsion
[ 8008 7997 7996 7995 ] final   44.52 input   59.86 | X-H torsion
[ 10167 10162 10161 10158 ] final -114.30 input  -65.29 | X-H torsion
[ 10718 10713 10712 10709 ] final  134.63 input   66.30 | X-H torsion
[ 10763 10752 10751 10750 ] final  110.22 input  -60.55 | X-H torsion
[ 11005 11000 10999 10996 ] final   -6.74 input  -57.11 | X-H torsion

> <Gold.Protein.ActiveResidues>
 VAL166  LYS551  ARG553  GLY616  TRP617  ASP618  TYR619  PRO620  LYS621  CYS622 
 ASP623  PHE694  ASN695  SER759  ASP760  ASP761  ALA762  ILE779  LEU786  VAL792 
 PHE793  MET794  SER795  GLU796  ALA797  LYS798  CYS799  TRP800  GLU811  SER814 

> <Gold.Protein.RotatedAtoms>
  152.3096  134.7513  160.0339 H   0  0  0  0  0  0  0  0  0  0  0  0  # atno 6907 bound_to 6896
  151.7998  133.3363  159.3532 H   0  0  0  0  0  0  0  0  0  0  0  0  # atno 6908 bound_to 6896
  150.7313  134.5694  159.5927 H   0  0  0  0  0  0  0  0  0  0  0  0  # atno 6909 bound_to 6896
  145.5451  139.2291  143.2544 H   0  0  0  0  0  0  0  0  0  0  0  0  # atno 7974 bound_to 7965
  155.3206  140.3396  155.4241 H   0  0  0  0  0  0  0  0  0  0  0  0  # atno 8008 bound_to 7997
  156.1911  140.1698  156.8128 H   0  0  0  0  0  0  0  0  0  0  0  0  # atno 8009 bound_to 7997
  154.5443  140.0718  156.8546 H   0  0  0  0  0  0  0  0  0  0  0  0  # atno 8010 bound_to 7997
  140.1025  143.4600  152.1803 H   0  0  0  0  0  0  0  0  0  0  0  0  # atno 10167 bound_to 10162
  157.4653  131.1076  150.9870 H   0  0  0  0  0  0  0  0  0  0  0  0  # atno 10718 bound_to 10713
  153.4458  135.3755  155.2255 H   0  0  0  0  0  0  0  0  0  0  0  0  # atno 10763 bound_to 10752
  154.8755  135.3874  154.4098 H   0  0  0  0  0  0  0  0  0  0  0  0  # atno 10764 bound_to 10752
  153.4650  135.7087  153.6091 H   0  0  0  0  0  0  0  0  0  0  0  0  # atno 10765 bound_to 10752
  140.7053  133.8955  155.8712 H   0  0  0  0  0  0  0  0  0  0  0  0  # atno 11005 bound_to 11000
  146.1955  140.6272  142.9126 LP  0  0  0  0  0  0  0  0  0  0  0  0  # atno 17320 bound_to 7965
  144.7557  140.5302  143.6770 LP  0  0  0  0  0  0  0  0  0  0  0  0  # atno 17321 bound_to 7965
  139.5663  144.7437  151.4012 LP  0  0  0  0  0  0  0  0  0  0  0  0  # atno 17342 bound_to 10162
  140.6970  143.7724  150.7342 LP  0  0  0  0  0  0  0  0  0  0  0  0  # atno 17343 bound_to 10162
  157.0653  130.5842  149.5393 LP  0  0  0  0  0  0  0  0  0  0  0  0  # atno 17370 bound_to 10713
  156.0047  130.5132  150.7789 LP  0  0  0  0  0  0  0  0  0  0  0  0  # atno 17371 bound_to 10713
  141.0130  134.0995  157.4202 LP  0  0  0  0  0  0  0  0  0  0  0  0  # atno 17394 bound_to 11000
  139.8886  135.0099  156.6629 LP  0  0  0  0  0  0  0  0  0  0  0  0  # atno 17395 bound_to 11000

$$$$
