AV-unprocessed.smi:1915|AV-procd|sdf|7763|dock6
  -GOLD-   22720 9503D 1   1.00000     0.00000
 Structure written by MMmdl.
 45 46  0  0  0  0  0  0  0  0  2 V2000
  151.1838  143.8591  156.1362 C   0  0  0  0  0  0  0  0  0  0  0  0
  150.8042  142.4474  155.6567 C   0  0  0  0  0  0  0  0  0  0  0  0
  150.8346  141.4578  156.8311 C   0  0  0  0  0  0  0  0  0  0  0  0
  151.6875  141.9355  154.4967 C   0  0  0  0  0  0  0  0  0  0  0  0
  151.4923  140.5142  154.2095 N   0  0  0  0  0  0  0  0  0  0  0  0
  150.2932  140.0587  153.5242 C   0  0  0  0  0  0  0  0  0  0  0  0
  150.3003  138.5191  153.6441 C   0  0  2  0  0  0  0  0  0  0  0  0
  149.2032  137.9945  154.5830 C   0  0  0  0  0  0  0  0  0  0  0  0
  149.1326  138.4028  155.7429 O   0  0  0  0  0  0  0  0  0  0  0  0
  148.3672  137.0751  154.0747 N   0  0  0  0  0  0  0  0  0  0  0  0
  147.2645  136.4414  154.7946 C   0  0  0  0  0  0  0  0  0  0  0  0
  147.3435  134.9008  154.7884 C   0  0  0  0  0  0  0  0  0  0  0  0
  146.5599  134.2461  153.6635 C   0  0  0  0  0  0  0  0  0  0  0  0
  145.4620  133.3956  153.9160 C   0  0  0  0  0  0  0  0  0  0  0  0
  144.7985  132.7857  152.8312 C   0  0  0  0  0  0  0  0  0  0  0  0
  145.2450  133.0393  151.5177 C   0  0  0  0  0  0  0  0  0  0  0  0
  146.3454  133.8981  151.3222 C   0  0  0  0  0  0  0  0  0  0  0  0
  146.9556  134.4624  152.3874 N   0  3  0  0  0  0  0  0  0  0  0  0
  151.7027  138.1658  154.1760 C   0  0  0  0  0  0  0  0  0  0  0  0
  152.2900  139.5065  154.5822 C   0  0  0  0  0  0  0  0  0  0  0  0
  153.3553  139.6074  155.1887 O   0  0  0  0  0  0  0  0  0  0  0  0
  152.2276  143.9037  156.4482 H   0  0  0  0  0  0  0  0  0  0  0  0
  150.5706  144.1630  156.9849 H   0  0  0  0  0  0  0  0  0  0  0  0
  151.0349  144.6030  155.3541 H   0  0  0  0  0  0  0  0  0  0  0  0
  149.7745  142.4889  155.2992 H   0  0  0  0  0  0  0  0  0  0  0  0
  151.8388  141.3658  157.2465 H   0  0  0  0  0  0  0  0  0  0  0  0
  150.5120  140.4644  156.5178 H   0  0  0  0  0  0  0  0  0  0  0  0
  150.1704  141.7785  157.6342 H   0  0  0  0  0  0  0  0  0  0  0  0
  151.4991  142.5241  153.5972 H   0  0  0  0  0  0  0  0  0  0  0  0
  152.7389  142.0959  154.7387 H   0  0  0  0  0  0  0  0  0  0  0  0
  149.4016  140.5163  153.9568 H   0  0  0  0  0  0  0  0  0  0  0  0
  150.3410  140.3638  152.4780 H   0  0  0  0  0  0  0  0  0  0  0  0
  150.1607  138.0799  152.6549 H   0  0  0  0  0  0  0  0  0  0  0  0
  148.4967  136.8016  153.1111 H   0  0  0  0  0  0  0  0  0  0  0  0
  147.2166  136.8102  155.8206 H   0  0  0  0  0  0  0  0  0  0  0  0
  146.3349  136.7554  154.3195 H   0  0  0  0  0  0  0  0  0  0  0  0
  148.3863  134.5919  154.7088 H   0  0  0  0  0  0  0  0  0  0  0  0
  146.9875  134.5111  155.7432 H   0  0  0  0  0  0  0  0  0  0  0  0
  145.1387  133.2029  154.9286 H   0  0  0  0  0  0  0  0  0  0  0  0
  143.9596  132.1278  153.0052 H   0  0  0  0  0  0  0  0  0  0  0  0
  144.7523  132.5795  150.6735 H   0  0  0  0  0  0  0  0  0  0  0  0
  146.7565  134.1445  150.3541 H   0  0  0  0  0  0  0  0  0  0  0  0
  151.6920  137.4820  155.0259 H   0  0  0  0  0  0  0  0  0  0  0  0
  152.3198  137.7220  153.3940 H   0  0  0  0  0  0  0  0  0  0  0  0
  147.7555  135.0737  152.2227 H   0  0  0  0  0  0  0  0  0  0  0  0
  1  2  1  0  0  0  0
  1 22  1  0  0  0  0
  1 23  1  0  0  0  0
  1 24  1  0  0  0  0
  2  3  1  0  0  0  0
  2  4  1  0  0  0  0
  2 25  1  0  0  0  0
  3 26  1  0  0  0  0
  3 27  1  0  0  0  0
  3 28  1  0  0  0  0
  4  5  1  0  0  0  0
  4 29  1  0  0  0  0
  4 30  1  0  0  0  0
  5 20  1  0  0  0  0
  5  6  1  0  0  0  0
  6  7  1  0  0  0  0
  6 31  1  0  0  0  0
  6 32  1  0  0  0  0
  7  8  1  0  0  0  0
  7 19  1  0  0  0  0
  7 33  1  0  0  0  0
  8  9  2  0  0  0  0
  8 10  1  0  0  0  0
 10 11  1  0  0  0  0
 10 34  1  0  0  0  0
 11 12  1  0  0  0  0
 11 35  1  0  0  0  0
 11 36  1  0  0  0  0
 12 13  1  0  0  0  0
 12 37  1  0  0  0  0
 12 38  1  0  0  0  0
 13 18  1  0  0  0  0
 13 14  2  0  0  0  0
 14 15  1  0  0  0  0
 14 39  1  0  0  0  0
 15 16  2  0  0  0  0
 15 40  1  0  0  0  0
 16 17  1  0  0  0  0
 16 41  1  0  0  0  0
 17 18  2  0  0  0  0
 17 42  1  0  0  0  0
 18 45  1  0  0  0  0
 19 20  1  0  0  0  0
 19 43  1  0  0  0  0
 19 44  1  0  0  0  0
 20 21  2  0  0  0  0
M  CHG  1  18   1
M  END
> <s_m_source_file>
AV-unprocessed.smi

> <i_m_source_file_index>
1915

> <i_lp_mmshare_version>
43012

> <i_f3d_flags>
0

> <s_epik_input>
W0NIM11bQ0hdKFtDSDNdKVtDSDJdTjFbQ0gyXVtDQEhdKFtDSDJdQzE9TylDKD1PKVtOSF1bQ0gyXVtDSDJdYzJbY0hdW2NIXVtjSF1bY0hdbjI=

> <s_epik_cmdline>
J2VwaWtfcHl0aG9uJywgJy1waCcsICc3LjAnLCAnLXRuJywgJzgnLCAnLW1hJywgJzIwMCcsICctbWV0YWxfYmluZGluZycsICctaW1hZScsICc8aW5maWxlLm1hZT4nLCAnLW9tYWUnLCAnPG91dGZpbGUubWFlPic=

> <r_epik_Ionization_Penalty>
1.88249

> <r_epik_Ionization_Penalty_Charging>
1.88249

> <r_epik_Ionization_Penalty_Neutral>
3.64574e-08

> <r_epik_State_Penalty>
2.00238

> <r_epik_Charging_Adjusted_Penalty>
3.88487

> <i_epik_Tot_Q>
1

> <i_epik_Tot_abs_Q>
1

> <r_epik_Metal_State_Penalty>
2.02676

> <b_epik_Metal_Only>
0

> <s_lp_Force_Field>
OPLS_2005

> <r_lp_Energy>
20.6112

> <b_lp_Chiralities_Consistent>
1

> <s_lp_Variant>
AV-unprocessed.smi:1915-4

> <Gold.Version>
5.8.1

> <Gold.Id.Protein>
6NUR|6NUR_protein|mol2

> <Gold.PLP.Fitness>
50.7849

> <Gold.PLP.PLP>
-39.8607

> <Gold.PLP.part.hbond>
-3.2266

> <Gold.PLP.part.metal>
0.0000

> <Gold.PLP.part.buried>
-2.6880

> <Gold.PLP.part.nonpolar>
-33.5249

> <Gold.PLP.part.repulsive>
0.0848

> <Gold.PLP.ligand.clash>
0.0000

> <Gold.PLP.ligand.torsion>
0.5839

> <Gold.PLP.Chemscore.Hbond>
4.0000

> <Gold.PLP.Chemscore.CHOScore>
0.0000

> <Gold.PLP.Chemscore.Metal>
0.0000

> <Gold.Chemscore.Hbonds>
donor molecule, donor type, donor heavy atom, donor atom, acceptor molecule, acceptor atom, score
      L1  H    10    34       P1  7948  0.78
      L1  H    18    45       P1  7948  2.00
      P1  H  7997  8009       L1    21  0.88

> <Gold.PLP.Chemscore.Internal.Correction>
0.0920

> <Gold.Rescore>
     Score         DG    S(hbond)    S(metal)    S(lipo)     H(rot)  DE(clash)    DE(int)     intcor
     18.92     -19.61       2.68        0.00      84.98       1.86       0.21       0.47       ----

> <Gold.Chemscore.Fitness>
18.9226

> <Gold.Chemscore.DG>
-19.6071

> <Gold.Chemscore.ZeroCoef>
-5.4800

> <Gold.Chemscore.Hbond>
2.6815

> <Gold.Chemscore.Metal>
0.0000

> <Gold.Chemscore.Lipo>
84.9753

> <Gold.Chemscore.Internal_Hbond>
0.0000

> <Gold.Chemscore.DEClash>
0.2108

> <Gold.Chemscore.DEInternal>
0.4736

> <Gold.Chemscore.Rot>
1.8638

> <Gold.Chemscore.Internal.Correction>
   9.000000E+99

> <Gold.Chemscore.Hbonds>
donor molecule, donor type, donor heavy atom, donor atom, acceptor molecule, acceptor atom, score
      L1  H    10    34       P1  7948  0.77
      L1  H    18    45       P1  7948  0.93
      P1  H  7997  8009       L1    21  0.82

> <Gold.Chemscore.Hbond.Weighted>
-8.9563

> <Gold.Chemscore.Metal.Weighted>
-0.0000

> <Gold.Chemscore.Lipo.Weighted>
-9.9421

> <Gold.Chemscore.Internal_Hbond.Weighted>
0.0000

> <Gold.Chemscore.DEClash.Weighted>
0.2108

> <Gold.Chemscore.DEInternal.Weighted>
0.4736

> <Gold.Chemscore.Rot.Weighted>
4.7713

> <Gold.Chemscore.Internal.Correction.Weighted>
   9.000000E+99

> <Gold.Protein.RotatedTorsions>
[ 6907 6896 6895 6894 ] final -156.06 input  -60.11 | X-H torsion
[ 7974 7965 7964 7962 ] final  -17.78 input  175.53 | X-H torsion
[ 8008 7997 7996 7995 ] final -111.82 input   59.86 | X-H torsion
[ 10167 10162 10161 10158 ] final  110.64 input  -65.29 | X-H torsion
[ 10718 10713 10712 10709 ] final  -89.48 input   66.30 | X-H torsion
[ 10763 10752 10751 10750 ] final   36.00 input  -60.55 | X-H torsion
[ 11005 11000 10999 10996 ] final -164.76 input  -57.11 | X-H torsion

> <Gold.Protein.ActiveResidues>
 VAL166  LYS551  ARG553  GLY616  TRP617  ASP618  TYR619  PRO620  LYS621  CYS622 
 ASP623  PHE694  ASN695  SER759  ASP760  ASP761  ALA762  ILE779  LEU786  VAL792 
 PHE793  MET794  SER795  GLU796  ALA797  LYS798  CYS799  TRP800  GLU811  SER814 

> <Gold.Protein.RotatedAtoms>
  151.2819  133.4205  159.2627 H   0  0  0  0  0  0  0  0  0  0  0  0  # atno 6907 bound_to 6896
  151.0353  134.9569  159.8143 H   0  0  0  0  0  0  0  0  0  0  0  0  # atno 6908 bound_to 6896
  152.5354  134.2779  159.9049 H   0  0  0  0  0  0  0  0  0  0  0  0  # atno 6909 bound_to 6896
  146.1925  140.3827  142.8453 H   0  0  0  0  0  0  0  0  0  0  0  0  # atno 7974 bound_to 7965
  154.9957  140.0394  157.2339 H   0  0  0  0  0  0  0  0  0  0  0  0  # atno 8008 bound_to 7997
  154.7588  140.2780  155.6208 H   0  0  0  0  0  0  0  0  0  0  0  0  # atno 8009 bound_to 7997
  156.2900  140.2632  156.2361 H   0  0  0  0  0  0  0  0  0  0  0  0  # atno 8010 bound_to 7997
  139.6672  144.7127  151.1754 H   0  0  0  0  0  0  0  0  0  0  0  0  # atno 10167 bound_to 10162
  155.9984  130.4874  150.5177 H   0  0  0  0  0  0  0  0  0  0  0  0  # atno 10718 bound_to 10713
  153.0095  135.6318  154.1916 H   0  0  0  0  0  0  0  0  0  0  0  0  # atno 10763 bound_to 10752
  154.1658  135.2821  155.3097 H   0  0  0  0  0  0  0  0  0  0  0  0  # atno 10764 bound_to 10752
  154.5946  135.5607  153.7373 H   0  0  0  0  0  0  0  0  0  0  0  0  # atno 10765 bound_to 10752
  140.5833  134.5119  157.5182 H   0  0  0  0  0  0  0  0  0  0  0  0  # atno 11005 bound_to 11000
  144.8514  140.7006  143.6166 LP  0  0  0  0  0  0  0  0  0  0  0  0  # atno 17320 bound_to 7965
  145.3749  139.1650  143.4312 LP  0  0  0  0  0  0  0  0  0  0  0  0  # atno 17321 bound_to 7965
  140.7604  143.5900  150.8806 LP  0  0  0  0  0  0  0  0  0  0  0  0  # atno 17342 bound_to 10162
  139.9563  143.6215  152.3015 LP  0  0  0  0  0  0  0  0  0  0  0  0  # atno 17343 bound_to 10162
  157.3143  131.0669  151.1978 LP  0  0  0  0  0  0  0  0  0  0  0  0  # atno 17370 bound_to 10713
  157.2914  130.6798  149.6116 LP  0  0  0  0  0  0  0  0  0  0  0  0  # atno 17371 bound_to 10713
  139.9307  134.7969  156.0939 LP  0  0  0  0  0  0  0  0  0  0  0  0  # atno 17394 bound_to 11000
  141.0982  133.6687  156.2693 LP  0  0  0  0  0  0  0  0  0  0  0  0  # atno 17395 bound_to 11000

$$$$
