AV-unprocessed.smi:1964|AV-procd|sdf|7928|dock8
  -GOLD-   2272010 93D 1   1.00000     0.00000
 Structure written by MMmdl.
 46 48  0  0  0  0  0  0  0  0  1 V2000
  151.0868  141.9161  156.4230 C   0  0  0  0  0  0  0  0  0  0  0  0
  151.2261  142.5188  157.8327 C   0  0  2  0  0  0  0  0  0  0  0  0
  151.6205  144.0075  157.7474 C   0  0  0  0  0  0  0  0  0  0  0  0
  151.7536  144.6454  159.1386 C   0  0  0  0  0  0  0  0  0  0  0  0
  152.7581  143.8736  160.0049 C   0  0  0  0  0  0  0  0  0  0  0  0
  152.3710  142.3915  160.1099 C   0  0  0  0  0  0  0  0  0  0  0  0
  152.2304  141.7389  158.7179 C   0  0  1  0  0  0  0  0  0  0  0  0
  151.8081  140.3473  158.8614 N   0  0  0  0  0  0  0  0  0  0  0  0
  152.5854  139.2726  158.6601 C   0  0  0  0  0  0  0  0  0  0  0  0
  153.7718  139.3493  158.3369 O   0  0  0  0  0  0  0  0  0  0  0  0
  151.9016  137.9108  158.8567 C   0  0  0  0  0  0  0  0  0  0  0  0
  150.5362  137.8461  158.2907 N   0  0  0  0  0  0  0  0  0  0  0  0
  149.4902  137.3305  159.0978 C   0  0  0  0  0  0  0  0  0  0  0  0
  149.7020  136.9663  160.2557 O   0  0  0  0  0  0  0  0  0  0  0  0
  148.1798  137.2542  158.4559 C   0  0  0  0  0  0  0  0  0  0  0  0
  147.1084  136.7142  159.2254 C   0  0  0  0  0  0  0  0  0  0  0  0
  146.2323  136.2986  159.8572 N   0  0  0  0  0  0  0  0  0  0  0  0
  148.0023  137.6743  157.1863 C   0  0  0  0  0  0  0  0  0  0  0  0
  149.0247  138.2073  156.4318 N   0  0  0  0  0  0  0  0  0  0  0  0
  148.8530  138.4978  155.0362 C   0  0  0  0  0  0  0  0  0  0  0  0
  149.3723  139.7993  154.4571 C   0  0  0  0  0  0  0  0  0  0  0  0
  147.8877  139.5883  154.6262 C   0  0  0  0  0  0  0  0  0  0  0  0
  150.3368  138.2592  156.9510 C   0  0  0  0  0  0  0  0  0  0  0  0
  151.2831  138.6406  156.2573 O   0  0  0  0  0  0  0  0  0  0  0  0
  152.0418  141.9170  155.8969 H   0  0  0  0  0  0  0  0  0  0  0  0
  150.3770  142.4867  155.8234 H   0  0  0  0  0  0  0  0  0  0  0  0
  150.7260  140.8880  156.4560 H   0  0  0  0  0  0  0  0  0  0  0  0
  150.2450  142.4659  158.3078 H   0  0  0  0  0  0  0  0  0  0  0  0
  152.5657  144.1076  157.2116 H   0  0  0  0  0  0  0  0  0  0  0  0
  150.8789  144.5572  157.1666 H   0  0  0  0  0  0  0  0  0  0  0  0
  152.0680  145.6850  159.0422 H   0  0  0  0  0  0  0  0  0  0  0  0
  150.7800  144.6606  159.6302 H   0  0  0  0  0  0  0  0  0  0  0  0
  153.7566  143.9607  159.5745 H   0  0  0  0  0  0  0  0  0  0  0  0
  152.8098  144.3166  160.9999 H   0  0  0  0  0  0  0  0  0  0  0  0
  153.1210  141.8637  160.7003 H   0  0  0  0  0  0  0  0  0  0  0  0
  151.4311  142.3015  160.6566 H   0  0  0  0  0  0  0  0  0  0  0  0
  153.2038  141.7624  158.2233 H   0  0  0  0  0  0  0  0  0  0  0  0
  150.8459  140.1909  159.1245 H   0  0  0  0  0  0  0  0  0  0  0  0
  152.5393  137.1370  158.4264 H   0  0  0  0  0  0  0  0  0  0  0  0
  151.8924  137.6812  159.9236 H   0  0  0  0  0  0  0  0  0  0  0  0
  147.0201  137.5961  156.7427 H   0  0  0  0  0  0  0  0  0  0  0  0
  148.8983  137.6343  154.3748 H   0  0  0  0  0  0  0  0  0  0  0  0
  149.8516  140.5085  155.1295 H   0  0  0  0  0  0  0  0  0  0  0  0
  149.7734  139.7723  153.4460 H   0  0  0  0  0  0  0  0  0  0  0  0
  147.2980  139.4236  153.7269 H   0  0  0  0  0  0  0  0  0  0  0  0
  147.3907  140.1553  155.4111 H   0  0  0  0  0  0  0  0  0  0  0  0
  1  2  1  0  0  0  0
  1 25  1  0  0  0  0
  1 26  1  0  0  0  0
  1 27  1  0  0  0  0
  2  7  1  0  0  0  0
  2  3  1  0  0  0  0
  2 28  1  0  0  0  0
  3  4  1  0  0  0  0
  3 29  1  0  0  0  0
  3 30  1  0  0  0  0
  4  5  1  0  0  0  0
  4 31  1  0  0  0  0
  4 32  1  0  0  0  0
  5  6  1  0  0  0  0
  5 33  1  0  0  0  0
  5 34  1  0  0  0  0
  6  7  1  0  0  0  0
  6 35  1  0  0  0  0
  6 36  1  0  0  0  0
  7  8  1  0  0  0  0
  7 37  1  0  0  0  0
  8  9  1  0  0  0  0
  8 38  1  0  0  0  0
  9 10  2  0  0  0  0
  9 11  1  0  0  0  0
 11 12  1  0  0  0  0
 11 39  1  0  0  0  0
 11 40  1  0  0  0  0
 12 23  1  0  0  0  0
 12 13  1  0  0  0  0
 13 14  2  0  0  0  0
 13 15  1  0  0  0  0
 15 16  1  0  0  0  0
 15 18  2  0  0  0  0
 16 17  3  0  0  0  0
 18 19  1  0  0  0  0
 18 41  1  0  0  0  0
 19 20  1  0  0  0  0
 19 23  1  0  0  0  0
 20 22  1  0  0  0  0
 20 21  1  0  0  0  0
 20 42  1  0  0  0  0
 21 22  1  0  0  0  0
 21 43  1  0  0  0  0
 21 44  1  0  0  0  0
 22 45  1  0  0  0  0
 22 46  1  0  0  0  0
 23 24  2  0  0  0  0
M  END
> <s_m_source_file>
AV-unprocessed.smi

> <i_m_source_file_index>
1964

> <i_lp_mmshare_version>
43012

> <i_f3d_flags>
0

> <s_epik_input>
W0NIM11bQ0BASF0xW0NIMl1bQ0gyXVtDSDJdW0NIMl1bQ0BIXTFbTkhdQyg9TylbQ0gyXW4yYyg9TyljKEMjTilbY0hdbihjMj1PKVtDSF0zW0NIMl1bQ0gyXTM=

> <s_epik_cmdline>
J2VwaWtfcHl0aG9uJywgJy1waCcsICc3LjAnLCAnLXRuJywgJzgnLCAnLW1hJywgJzIwMCcsICctbWV0YWxfYmluZGluZycsICctaW1hZScsICc8aW5maWxlLm1hZT4nLCAnLW9tYWUnLCAnPG91dGZpbGUubWFlPic=

> <r_lp_tautomer_probability>
1

> <r_epik_Ionization_Penalty>
1.91372e-08

> <r_epik_Ionization_Penalty_Charging>
9.0283e-11

> <r_epik_Ionization_Penalty_Neutral>
1.90469e-08

> <r_epik_State_Penalty>
-0

> <r_epik_Charging_Adjusted_Penalty>
9.0283e-11

> <i_epik_Tot_Q>
0

> <i_epik_Tot_abs_Q>
0

> <r_epik_Metal_State_Penalty>
-0

> <b_epik_Metal_Only>
0

> <s_lp_Force_Field>
OPLS_2005

> <r_lp_Energy>
35.656

> <b_lp_Chiralities_Consistent>
1

> <s_lp_Variant>
AV-unprocessed.smi:1964-1

> <Gold.Version>
5.8.1

> <Gold.Id.Protein>
6NUR|6NUR_protein|mol2

> <Gold.PLP.Fitness>
40.1394

> <Gold.PLP.PLP>
-36.2424

> <Gold.PLP.part.hbond>
-2.4052

> <Gold.PLP.part.metal>
0.0000

> <Gold.PLP.part.buried>
-5.8358

> <Gold.PLP.part.nonpolar>
-28.7036

> <Gold.PLP.part.repulsive>
0.1358

> <Gold.PLP.ligand.clash>
0.0000

> <Gold.PLP.ligand.torsion>
0.6199

> <Gold.PLP.Chemscore.Hbond>
1.6403

> <Gold.PLP.Chemscore.CHOScore>
0.0000

> <Gold.PLP.Chemscore.Metal>
0.0000

> <Gold.Chemscore.Hbonds>
donor molecule, donor type, donor heavy atom, donor atom, acceptor molecule, acceptor atom, score
      P1  H  6896  6909       L1    14  0.13
      P1  H  6931  6943       L1    14  0.28
      P1  H  7997  8009       L1    10  1.00

> <Gold.PLP.Chemscore.Internal.Correction>
0.2160

> <Gold.Rescore>
     Score         DG    S(hbond)    S(metal)    S(lipo)     H(rot)  DE(clash)    DE(int)     intcor
     16.54     -18.50       1.98        0.00      91.95       1.70       0.17       1.79       ----

> <Gold.Chemscore.Fitness>
16.5402

> <Gold.Chemscore.DG>
-18.5026

> <Gold.Chemscore.ZeroCoef>
-5.4800

> <Gold.Chemscore.Hbond>
1.9838

> <Gold.Chemscore.Metal>
0.0000

> <Gold.Chemscore.Lipo>
91.9539

> <Gold.Chemscore.Internal_Hbond>
0.0000

> <Gold.Chemscore.DEClash>
0.1730

> <Gold.Chemscore.DEInternal>
1.7894

> <Gold.Chemscore.Rot>
1.7038

> <Gold.Chemscore.Internal.Correction>
   9.000000E+99

> <Gold.Chemscore.Hbonds>
donor molecule, donor type, donor heavy atom, donor atom, acceptor molecule, acceptor atom, score
      P1  H  6896  6909       L1    14  0.04
      P1  H  6931  6943       L1    14  0.27
      P1  H  7997  8009       L1    10  0.99

> <Gold.Chemscore.Hbond.Weighted>
-6.6257

> <Gold.Chemscore.Metal.Weighted>
-0.0000

> <Gold.Chemscore.Lipo.Weighted>
-10.7586

> <Gold.Chemscore.Internal_Hbond.Weighted>
0.0000

> <Gold.Chemscore.DEClash.Weighted>
0.1730

> <Gold.Chemscore.DEInternal.Weighted>
1.7894

> <Gold.Chemscore.Rot.Weighted>
4.3618

> <Gold.Chemscore.Internal.Correction.Weighted>
   9.000000E+99

> <Gold.Protein.RotatedTorsions>
[ 6907 6896 6895 6894 ] final   86.79 input  -60.11 | X-H torsion
[ 7974 7965 7964 7962 ] final   59.01 input  175.53 | X-H torsion
[ 8008 7997 7996 7995 ] final  160.32 input   59.86 | X-H torsion
[ 10167 10162 10161 10158 ] final  -36.10 input  -65.29 | X-H torsion
[ 10718 10713 10712 10709 ] final -150.83 input   66.30 | X-H torsion
[ 10763 10752 10751 10750 ] final   -6.85 input  -60.55 | X-H torsion
[ 11005 11000 10999 10996 ] final   23.78 input  -57.11 | X-H torsion

> <Gold.Protein.ActiveResidues>
 VAL166  LYS551  ARG553  GLY616  TRP617  ASP618  TYR619  PRO620  LYS621  CYS622 
 ASP623  PHE694  ASN695  SER759  ASP760  ASP761  ALA762  ILE779  LEU786  VAL792 
 PHE793  MET794  SER795  GLU796  ALA797  LYS798  CYS799  TRP800  GLU811  SER814 

> <Gold.Protein.RotatedAtoms>
  152.5400  134.2377  159.8849 H   0  0  0  0  0  0  0  0  0  0  0  0  # atno 6907 bound_to 6896
  151.2346  133.4425  159.2612 H   0  0  0  0  0  0  0  0  0  0  0  0  # atno 6908 bound_to 6896
  151.0684  134.9796  159.8352 H   0  0  0  0  0  0  0  0  0  0  0  0  # atno 6909 bound_to 6896
  145.9119  139.3660  143.0530 H   0  0  0  0  0  0  0  0  0  0  0  0  # atno 7974 bound_to 7965
  156.2180  140.1807  156.7544 H   0  0  0  0  0  0  0  0  0  0  0  0  # atno 8008 bound_to 7997
  154.5821  140.0664  156.9147 H   0  0  0  0  0  0  0  0  0  0  0  0  # atno 8009 bound_to 7997
  155.2484  140.3327  155.4287 H   0  0  0  0  0  0  0  0  0  0  0  0  # atno 8010 bound_to 7997
  140.7150  143.3432  151.2313 H   0  0  0  0  0  0  0  0  0  0  0  0  # atno 10167 bound_to 10162
  156.4513  130.8169  151.2400 H   0  0  0  0  0  0  0  0  0  0  0  0  # atno 10718 bound_to 10713
  153.4181  135.7009  153.6313 H   0  0  0  0  0  0  0  0  0  0  0  0  # atno 10763 bound_to 10752
  153.4779  135.3700  155.2426 H   0  0  0  0  0  0  0  0  0  0  0  0  # atno 10764 bound_to 10752
  154.8720  135.4059  154.3545 H   0  0  0  0  0  0  0  0  0  0  0  0  # atno 10765 bound_to 10752
  140.3659  134.2075  155.7669 H   0  0  0  0  0  0  0  0  0  0  0  0  # atno 11005 bound_to 11000
  145.8661  140.9447  143.0675 LP  0  0  0  0  0  0  0  0  0  0  0  0  # atno 17320 bound_to 7965
  144.6744  140.0594  143.7476 LP  0  0  0  0  0  0  0  0  0  0  0  0  # atno 17321 bound_to 7965
  139.6945  143.9637  152.2875 LP  0  0  0  0  0  0  0  0  0  0  0  0  # atno 17342 bound_to 10162
  139.9309  144.6742  150.8364 LP  0  0  0  0  0  0  0  0  0  0  0  0  # atno 17343 bound_to 10162
  157.7502  131.0137  150.3434 LP  0  0  0  0  0  0  0  0  0  0  0  0  # atno 17370 bound_to 10713
  156.3813  130.3881  149.7099 LP  0  0  0  0  0  0  0  0  0  0  0  0  # atno 17371 bound_to 10713
  141.1970  133.8070  157.0648 LP  0  0  0  0  0  0  0  0  0  0  0  0  # atno 17394 bound_to 11000
  140.0590  134.9765  157.1271 LP  0  0  0  0  0  0  0  0  0  0  0  0  # atno 17395 bound_to 11000

$$$$
