AV-unprocessed.smi:2775|AV-procd|sdf|10701|dock3
  -GOLD-   2272015143D 1   1.00000     0.00000
 Structure written by MMmdl.
 43 46  0  0  0  0  0  0  0  0  2 V2000
  150.7501  141.0582  155.7302 C   0  0  0  0  0  0  0  0  0  0  0  0
  149.4671  140.9075  154.9358 C   0  0  0  0  0  0  0  0  0  0  0  0
  148.6749  141.9948  154.8093 N   0  3  0  0  0  0  0  0  0  0  0  0
  147.5147  141.9829  154.1211 C   0  0  0  0  0  0  0  0  0  0  0  0
  147.0779  140.7972  153.4992 C   0  0  0  0  0  0  0  0  0  0  0  0
  147.8623  139.6213  153.6131 C   0  0  0  0  0  0  0  0  0  0  0  0
  147.5125  138.3808  153.0117 N   0  0  0  0  0  0  0  0  0  0  0  0
  146.3028  137.8071  152.8649 C   0  0  0  0  0  0  0  0  0  0  0  0
  145.2419  138.2922  153.2507 O   0  0  0  0  0  0  0  0  0  0  0  0
  146.3405  136.6128  152.2489 N   0  0  0  0  0  0  0  0  0  0  0  0
  145.2089  135.7378  151.9384 C   0  0  1  0  0  0  0  0  0  0  0  0
  145.6492  134.2864  151.6701 C   0  0  2  0  0  0  0  0  0  0  0  0
  145.4350  133.6787  150.3103 C   0  0  0  0  0  0  0  0  0  0  0  0
  144.1297  132.8978  150.4865 C   0  0  0  0  0  0  0  0  0  0  0  0
  143.4869  133.5154  151.5995 O   0  0  0  0  0  0  0  0  0  0  0  0
  144.4946  133.8312  152.5554 C   0  0  2  0  0  0  0  0  0  0  0  0
  144.4155  135.2364  153.1642 C   0  0  0  0  0  0  0  0  0  0  0  0
  144.8769  135.4722  154.6152 C   0  0  0  0  0  0  0  0  0  0  0  0
  143.7447  136.4914  154.7696 C   0  0  0  0  0  0  0  0  0  0  0  0
  143.0656  135.8561  153.5528 C   0  0  0  0  0  0  0  0  0  0  0  0
  149.0809  139.6870  154.3335 C   0  0  0  0  0  0  0  0  0  0  0  0
  150.0908  138.2875  154.4825 Cl  0  0  0  0  0  0  0  0  0  0  0  0
  150.7436  140.3887  156.5907 H   0  0  0  0  0  0  0  0  0  0  0  0
  150.8754  142.0782  156.0956 H   0  0  0  0  0  0  0  0  0  0  0  0
  151.6124  140.8132  155.1096 H   0  0  0  0  0  0  0  0  0  0  0  0
  146.9758  142.9184  154.0839 H   0  0  0  0  0  0  0  0  0  0  0  0
  146.1560  140.8208  152.9396 H   0  0  0  0  0  0  0  0  0  0  0  0
  148.2944  137.8249  152.6956 H   0  0  0  0  0  0  0  0  0  0  0  0
  147.2478  136.2834  151.9509 H   0  0  0  0  0  0  0  0  0  0  0  0
  144.5531  136.1063  151.1466 H   0  0  0  0  0  0  0  0  0  0  0  0
  146.6124  134.0501  152.1264 H   0  0  0  0  0  0  0  0  0  0  0  0
  145.3244  134.4530  149.5503 H   0  0  0  0  0  0  0  0  0  0  0  0
  146.2548  133.0271  150.0072 H   0  0  0  0  0  0  0  0  0  0  0  0
  143.5014  132.9217  149.5957 H   0  0  0  0  0  0  0  0  0  0  0  0
  144.3374  131.8549  150.7301 H   0  0  0  0  0  0  0  0  0  0  0  0
  144.7436  133.0159  153.2360 H   0  0  0  0  0  0  0  0  0  0  0  0
  144.7302  134.5951  155.2473 H   0  0  0  0  0  0  0  0  0  0  0  0
  145.8785  135.8831  154.7414 H   0  0  0  0  0  0  0  0  0  0  0  0
  143.1820  136.4065  155.6996 H   0  0  0  0  0  0  0  0  0  0  0  0
  144.0694  137.5163  154.5877 H   0  0  0  0  0  0  0  0  0  0  0  0
  142.6652  136.5702  152.8329 H   0  0  0  0  0  0  0  0  0  0  0  0
  142.3239  135.1055  153.8301 H   0  0  0  0  0  0  0  0  0  0  0  0
  148.9704  142.8663  155.2501 H   0  0  0  0  0  0  0  0  0  0  0  0
  1  2  1  0  0  0  0
  1 23  1  0  0  0  0
  1 24  1  0  0  0  0
  1 25  1  0  0  0  0
  2 21  1  0  0  0  0
  2  3  2  0  0  0  0
  3  4  1  0  0  0  0
  3 43  1  0  0  0  0
  4  5  2  0  0  0  0
  4 26  1  0  0  0  0
  5  6  1  0  0  0  0
  5 27  1  0  0  0  0
  6  7  1  0  0  0  0
  6 21  2  0  0  0  0
  7  8  1  0  0  0  0
  7 28  1  0  0  0  0
  8  9  2  0  0  0  0
  8 10  1  0  0  0  0
 10 11  1  0  0  0  0
 10 29  1  0  0  0  0
 11 17  1  0  0  0  0
 11 12  1  0  0  0  0
 11 30  1  0  0  0  0
 12 16  1  0  0  0  0
 12 13  1  0  0  0  0
 12 31  1  0  0  0  0
 13 14  1  0  0  0  0
 13 32  1  0  0  0  0
 13 33  1  0  0  0  0
 14 15  1  0  0  0  0
 14 34  1  0  0  0  0
 14 35  1  0  0  0  0
 15 16  1  0  0  0  0
 16 17  1  0  0  0  0
 16 36  1  0  0  0  0
 17 20  1  0  0  0  0
 17 18  1  0  0  0  0
 18 19  1  0  0  0  0
 18 37  1  0  0  0  0
 18 38  1  0  0  0  0
 19 20  1  0  0  0  0
 19 39  1  0  0  0  0
 19 40  1  0  0  0  0
 20 41  1  0  0  0  0
 20 42  1  0  0  0  0
 21 22  1  0  0  0  0
M  CHG  1   3   1
M  END
> <s_m_source_file>
AV-unprocessed.smi

> <i_m_source_file_index>
2775

> <i_lp_mmshare_version>
43012

> <i_f3d_flags>
0

> <s_epik_input>
W0NIM11jMW5bY0hdW2NIXWMoYzFDbClbTkhdQyg9TylbTkhdW0NAQEhdMltDQEhdKFtDSDJdW0NIMl1PMylbQ0BASF0zQzI0W0NIMl1bQ0gyXVtDSDJdNA==

> <s_epik_cmdline>
J2VwaWtfcHl0aG9uJywgJy1waCcsICc3LjAnLCAnLXRuJywgJzgnLCAnLW1hJywgJzIwMCcsICctbWV0YWxfYmluZGluZycsICctaW1hZScsICc8aW5maWxlLm1hZT4nLCAnLW9tYWUnLCAnPG91dGZpbGUubWFlPic=

> <r_epik_Ionization_Penalty>
2.4104

> <r_epik_Ionization_Penalty_Charging>
2.41038

> <r_epik_Ionization_Penalty_Neutral>
1.9872e-05

> <r_epik_State_Penalty>
2.56896

> <r_epik_Charging_Adjusted_Penalty>
4.97934

> <i_epik_Tot_Q>
1

> <i_epik_Tot_abs_Q>
1

> <r_epik_Metal_State_Penalty>
2.57906

> <b_epik_Metal_Only>
0

> <s_lp_Force_Field>
OPLS_2005

> <r_lp_Energy>
60.4294

> <b_lp_Chiralities_Consistent>
1

> <s_lp_Variant>
AV-unprocessed.smi:2775-14

> <Gold.Version>
5.8.1

> <Gold.Id.Protein>
6NUR|6NUR_protein|mol2

> <Gold.PLP.Fitness>
44.4766

> <Gold.PLP.PLP>
-33.0936

> <Gold.PLP.part.hbond>
-3.3464

> <Gold.PLP.part.metal>
0.0000

> <Gold.PLP.part.buried>
-3.6320

> <Gold.PLP.part.nonpolar>
-28.9543

> <Gold.PLP.part.repulsive>
2.8854

> <Gold.PLP.ligand.clash>
0.0000

> <Gold.PLP.ligand.torsion>
0.4060

> <Gold.PLP.Chemscore.Hbond>
4.0000

> <Gold.PLP.Chemscore.CHOScore>
0.0000

> <Gold.PLP.Chemscore.Metal>
0.0000

> <Gold.Chemscore.Hbonds>
donor molecule, donor type, donor heavy atom, donor atom, acceptor molecule, acceptor atom, score
      L1  H     3    43       P1  8028  2.00
      L1  H     7    28       P1  7948  1.00
      L1  H    10    29       P1  7948  1.00

> <Gold.PLP.Chemscore.Internal.Correction>
0.1950

> <Gold.Rescore>
     Score         DG    S(hbond)    S(metal)    S(lipo)     H(rot)  DE(clash)    DE(int)     intcor
     19.67     -22.34       2.88        0.00      83.83       1.00       0.87       1.80       ----

> <Gold.Chemscore.Fitness>
19.6736

> <Gold.Chemscore.DG>
-22.3383

> <Gold.Chemscore.ZeroCoef>
-5.4800

> <Gold.Chemscore.Hbond>
2.8772

> <Gold.Chemscore.Metal>
0.0000

> <Gold.Chemscore.Lipo>
83.8313

> <Gold.Chemscore.Internal_Hbond>
0.0000

> <Gold.Chemscore.DEClash>
0.8691

> <Gold.Chemscore.DEInternal>
1.7956

> <Gold.Chemscore.Rot>
1.0000

> <Gold.Chemscore.Internal.Correction>
   9.000000E+99

> <Gold.Chemscore.Hbonds>
donor molecule, donor type, donor heavy atom, donor atom, acceptor molecule, acceptor atom, score
      L1  H     3    43       P1  8028  0.98
      L1  H     7    28       P1  7948  0.94
      L1  H    10    29       P1  7948  0.99

> <Gold.Chemscore.Hbond.Weighted>
-9.6100

> <Gold.Chemscore.Metal.Weighted>
-0.0000

> <Gold.Chemscore.Lipo.Weighted>
-9.8083

> <Gold.Chemscore.Internal_Hbond.Weighted>
0.0000

> <Gold.Chemscore.DEClash.Weighted>
0.8691

> <Gold.Chemscore.DEInternal.Weighted>
1.7956

> <Gold.Chemscore.Rot.Weighted>
2.5600

> <Gold.Chemscore.Internal.Correction.Weighted>
   9.000000E+99

> <Gold.Protein.RotatedTorsions>
[ 6907 6896 6895 6894 ] final  122.39 input  -60.11 | X-H torsion
[ 7974 7965 7964 7962 ] final  -69.28 input  175.53 | X-H torsion
[ 8008 7997 7996 7995 ] final   24.31 input   59.86 | X-H torsion
[ 10167 10162 10161 10158 ] final -112.88 input  -65.29 | X-H torsion
[ 10718 10713 10712 10709 ] final -154.21 input   66.30 | X-H torsion
[ 10763 10752 10751 10750 ] final -118.15 input  -60.55 | X-H torsion
[ 11005 11000 10999 10996 ] final  -86.05 input  -57.11 | X-H torsion

> <Gold.Protein.ActiveResidues>
 VAL166  LYS551  ARG553  GLY616  TRP617  ASP618  TYR619  PRO620  LYS621  CYS622 
 ASP623  PHE694  ASN695  SER759  ASP760  ASP761  ALA762  ILE779  LEU786  VAL792 
 PHE793  MET794  SER795  GLU796  ALA797  LYS798  CYS799  TRP800  GLU811  SER814 

> <Gold.Protein.RotatedAtoms>
  152.4247  133.7175  159.6513 H   0  0  0  0  0  0  0  0  0  0  0  0  # atno 6907 bound_to 6896
  150.8123  133.8389  159.3182 H   0  0  0  0  0  0  0  0  0  0  0  0  # atno 6908 bound_to 6896
  151.6095  135.1043  160.0129 H   0  0  0  0  0  0  0  0  0  0  0  0  # atno 6909 bound_to 6896
  145.7058  140.9098  143.0707 H   0  0  0  0  0  0  0  0  0  0  0  0  # atno 7974 bound_to 7965
  154.9943  140.3117  155.4893 H   0  0  0  0  0  0  0  0  0  0  0  0  # atno 8008 bound_to 7997
  156.2935  140.2243  156.4989 H   0  0  0  0  0  0  0  0  0  0  0  0  # atno 8009 bound_to 7997
  154.7675  140.0454  157.1013 H   0  0  0  0  0  0  0  0  0  0  0  0  # atno 8010 bound_to 7997
  140.1179  143.4469  152.1710 H   0  0  0  0  0  0  0  0  0  0  0  0  # atno 10167 bound_to 10162
  156.4962  130.8370  151.2591 H   0  0  0  0  0  0  0  0  0  0  0  0  # atno 10718 bound_to 10713
  154.8578  135.4284  154.2093 H   0  0  0  0  0  0  0  0  0  0  0  0  # atno 10763 bound_to 10752
  153.3122  135.6976  153.7111 H   0  0  0  0  0  0  0  0  0  0  0  0  # atno 10764 bound_to 10752
  153.6199  135.3504  155.2981 H   0  0  0  0  0  0  0  0  0  0  0  0  # atno 10765 bound_to 10752
  141.1634  133.7433  156.9105 H   0  0  0  0  0  0  0  0  0  0  0  0  # atno 11005 bound_to 11000
  144.6956  139.9008  143.7458 LP  0  0  0  0  0  0  0  0  0  0  0  0  # atno 17320 bound_to 7965
  146.0757  139.3745  143.0495 LP  0  0  0  0  0  0  0  0  0  0  0  0  # atno 17321 bound_to 7965
  139.5584  144.7389  151.4226 LP  0  0  0  0  0  0  0  0  0  0  0  0  # atno 17342 bound_to 10162
  140.6889  143.7909  150.7226 LP  0  0  0  0  0  0  0  0  0  0  0  0  # atno 17343 bound_to 10162
  157.7468  130.9997  150.2898 LP  0  0  0  0  0  0  0  0  0  0  0  0  # atno 17370 bound_to 10713
  156.3377  130.3810  149.7435 LP  0  0  0  0  0  0  0  0  0  0  0  0  # atno 17371 bound_to 10713
  140.1520  134.9223  157.2605 LP  0  0  0  0  0  0  0  0  0  0  0  0  # atno 17394 bound_to 11000
  140.2711  134.3459  155.7373 LP  0  0  0  0  0  0  0  0  0  0  0  0  # atno 17395 bound_to 11000

$$$$
