AV-unprocessed.smi:1068|AV-procd|sdf|4674|dock7
  -GOLD-   22720 3183D 1   1.00000     0.00000
 Structure written by MMmdl.
 51 52  0  0  0  0  0  0  0  0  1 V2000
  152.7266  144.7099  158.0531 C   0  0  0  0  0  0  0  0  0  0  0  0
  151.7582  143.8763  158.9252 C   0  0  0  0  0  0  0  0  0  0  0  0
  152.6484  142.9532  159.7900 C   0  0  0  0  0  0  0  0  0  0  0  0
  150.9482  144.8155  159.8376 C   0  0  0  0  0  0  0  0  0  0  0  0
  150.7937  143.0548  158.0523 C   0  0  0  0  0  0  0  0  0  0  0  0
  149.8295  142.3723  158.6838 N   0  0  0  0  0  0  0  0  0  0  0  0
  149.0582  141.5484  157.9446 C   0  0  0  0  0  0  0  0  0  0  0  0
  149.2625  141.3743  156.5614 C   0  0  0  0  0  0  0  0  0  0  0  0
  148.4210  140.4757  155.8522 N   0  0  0  0  0  0  0  0  0  0  0  0
  148.1714  140.4242  154.5331 C   0  0  0  0  0  0  0  0  0  0  0  0
  148.6119  141.2064  153.6919 O   0  0  0  0  0  0  0  0  0  0  0  0
  147.3626  139.3970  154.2339 N   0  0  0  0  0  0  0  0  0  0  0  0
  146.9051  139.0449  152.8891 C   0  0  0  0  0  0  0  0  0  0  0  0
  145.9902  137.8112  152.8181 C   0  0  0  0  0  0  0  0  0  0  0  0
  144.9063  137.8391  153.3995 O   0  0  0  0  0  0  0  0  0  0  0  0
  146.4153  136.7428  152.1220 N   0  0  0  0  0  0  0  0  0  0  0  0
  145.6766  135.4986  151.9346 C   0  0  0  0  0  0  0  0  0  0  0  0
  146.6010  134.2808  152.1400 C   0  0  0  0  0  0  0  0  0  0  0  0
  145.8626  132.9612  151.8631 C   0  0  0  0  0  0  0  0  0  0  0  0
  145.2438  132.9521  150.4568 C   0  0  0  0  0  0  0  0  0  0  0  0
  144.3168  134.1605  150.2509 C   0  0  0  0  0  0  0  0  0  0  0  0
  145.0534  135.4814  150.5258 C   0  0  0  0  0  0  0  0  0  0  0  0
  150.3402  142.1034  156.0036 C   0  0  0  0  0  0  0  0  0  0  0  0
  151.1040  142.9241  156.7559 N   0  0  0  0  0  0  0  0  0  0  0  0
  153.4454  145.2543  158.6667 H   0  0  0  0  0  0  0  0  0  0  0  0
  152.2000  145.4530  157.4533 H   0  0  0  0  0  0  0  0  0  0  0  0
  153.2935  144.0755  157.3706 H   0  0  0  0  0  0  0  0  0  0  0  0
  153.2157  142.2559  159.1722 H   0  0  0  0  0  0  0  0  0  0  0  0
  152.0629  142.3665  160.4985 H   0  0  0  0  0  0  0  0  0  0  0  0
  153.3655  143.5287  160.3764 H   0  0  0  0  0  0  0  0  0  0  0  0
  151.6015  145.4149  160.4727 H   0  0  0  0  0  0  0  0  0  0  0  0
  150.2794  144.2536  160.4906 H   0  0  0  0  0  0  0  0  0  0  0  0
  150.3354  145.5031  159.2537 H   0  0  0  0  0  0  0  0  0  0  0  0
  148.2746  141.0183  158.4665 H   0  0  0  0  0  0  0  0  0  0  0  0
  147.9317  139.8020  156.4233 H   0  0  0  0  0  0  0  0  0  0  0  0
  147.0444  138.8073  154.9889 H   0  0  0  0  0  0  0  0  0  0  0  0
  146.3589  139.8981  152.4865 H   0  0  0  0  0  0  0  0  0  0  0  0
  147.7614  138.8906  152.2305 H   0  0  0  0  0  0  0  0  0  0  0  0
  147.3175  136.8054  151.6732 H   0  0  0  0  0  0  0  0  0  0  0  0
  144.8650  135.4538  152.6637 H   0  0  0  0  0  0  0  0  0  0  0  0
  147.4646  134.3572  151.4776 H   0  0  0  0  0  0  0  0  0  0  0  0
  146.9929  134.2718  153.1576 H   0  0  0  0  0  0  0  0  0  0  0  0
  146.5486  132.1210  151.9731 H   0  0  0  0  0  0  0  0  0  0  0  0
  145.0782  132.8195  152.6079 H   0  0  0  0  0  0  0  0  0  0  0  0
  146.0368  132.9675  149.7082 H   0  0  0  0  0  0  0  0  0  0  0  0
  144.6886  132.0266  150.3004 H   0  0  0  0  0  0  0  0  0  0  0  0
  143.9247  134.1589  149.2335 H   0  0  0  0  0  0  0  0  0  0  0  0
  143.4552  134.0782  150.9145 H   0  0  0  0  0  0  0  0  0  0  0  0
  144.3615  136.3172  150.4131 H   0  0  0  0  0  0  0  0  0  0  0  0
  145.8321  135.6222  149.7748 H   0  0  0  0  0  0  0  0  0  0  0  0
  150.6267  142.0286  154.9666 H   0  0  0  0  0  0  0  0  0  0  0  0
  1  2  1  0  0  0  0
  1 25  1  0  0  0  0
  1 26  1  0  0  0  0
  1 27  1  0  0  0  0
  2  3  1  0  0  0  0
  2  4  1  0  0  0  0
  2  5  1  0  0  0  0
  3 28  1  0  0  0  0
  3 29  1  0  0  0  0
  3 30  1  0  0  0  0
  4 31  1  0  0  0  0
  4 32  1  0  0  0  0
  4 33  1  0  0  0  0
  5 24  1  0  0  0  0
  5  6  2  0  0  0  0
  6  7  1  0  0  0  0
  7  8  2  0  0  0  0
  7 34  1  0  0  0  0
  8  9  1  0  0  0  0
  8 23  1  0  0  0  0
  9 10  1  0  0  0  0
  9 35  1  0  0  0  0
 10 11  2  0  0  0  0
 10 12  1  0  0  0  0
 12 13  1  0  0  0  0
 12 36  1  0  0  0  0
 13 14  1  0  0  0  0
 13 37  1  0  0  0  0
 13 38  1  0  0  0  0
 14 15  2  0  0  0  0
 14 16  1  0  0  0  0
 16 17  1  0  0  0  0
 16 39  1  0  0  0  0
 17 22  1  0  0  0  0
 17 18  1  0  0  0  0
 17 40  1  0  0  0  0
 18 19  1  0  0  0  0
 18 41  1  0  0  0  0
 18 42  1  0  0  0  0
 19 20  1  0  0  0  0
 19 43  1  0  0  0  0
 19 44  1  0  0  0  0
 20 21  1  0  0  0  0
 20 45  1  0  0  0  0
 20 46  1  0  0  0  0
 21 22  1  0  0  0  0
 21 47  1  0  0  0  0
 21 48  1  0  0  0  0
 22 49  1  0  0  0  0
 22 50  1  0  0  0  0
 23 24  2  0  0  0  0
 23 51  1  0  0  0  0
M  END
> <s_m_source_file>
AV-unprocessed.smi

> <i_m_source_file_index>
1068

> <i_lp_mmshare_version>
43012

> <i_f3d_flags>
0

> <s_epik_input>
W0NIM11DKFtDSDNdKShbQ0gzXSljMW5bY0hdYyhbY0hdbjEpW05IXUMoPU8pW05IXVtDSDJdQyg9TylbTkhdW0NIXTJbQ0gyXVtDSDJdW0NIMl1bQ0gyXVtDSDJdMg==

> <s_epik_cmdline>
J2VwaWtfcHl0aG9uJywgJy1waCcsICc3LjAnLCAnLXRuJywgJzgnLCAnLW1hJywgJzIwMCcsICctbWV0YWxfYmluZGluZycsICctaW1hZScsICc8aW5maWxlLm1hZT4nLCAnLW9tYWUnLCAnPG91dGZpbGUubWFlPic=

> <r_lp_tautomer_probability>
1

> <r_epik_Ionization_Penalty>
2.47974e-05

> <r_epik_Ionization_Penalty_Charging>
0

> <r_epik_Ionization_Penalty_Neutral>
2.47974e-05

> <r_epik_State_Penalty>
-0

> <r_epik_Charging_Adjusted_Penalty>
0

> <i_epik_Tot_Q>
0

> <i_epik_Tot_abs_Q>
0

> <r_epik_Metal_State_Penalty>
-0

> <b_epik_Metal_Only>
0

> <s_lp_Force_Field>
OPLS_2005

> <r_lp_Energy>
3.00881

> <b_lp_Chiralities_Consistent>
1

> <s_lp_Variant>
AV-unprocessed.smi:1068-1

> <Gold.Version>
5.8.1

> <Gold.Id.Protein>
6NUR|6NUR_protein|mol2

> <Gold.PLP.Fitness>
45.9500

> <Gold.PLP.PLP>
-42.0049

> <Gold.PLP.part.hbond>
-2.0524

> <Gold.PLP.part.metal>
0.0000

> <Gold.PLP.part.buried>
-4.0013

> <Gold.PLP.part.nonpolar>
-37.6173

> <Gold.PLP.part.repulsive>
3.1698

> <Gold.PLP.ligand.clash>
0.0000

> <Gold.PLP.ligand.torsion>
0.7030

> <Gold.PLP.Chemscore.Hbond>
1.7309

> <Gold.PLP.Chemscore.CHOScore>
0.0000

> <Gold.PLP.Chemscore.Metal>
0.0000

> <Gold.Chemscore.Hbonds>
donor molecule, donor type, donor heavy atom, donor atom, acceptor molecule, acceptor atom, score
      L1  H    16    39       P1  7948  0.83
      P1  H  8011  8017       L1    11  0.55

> <Gold.PLP.Chemscore.Internal.Correction>
0.1584

> <Gold.Rescore>
     Score         DG    S(hbond)    S(metal)    S(lipo)     H(rot)  DE(clash)    DE(int)     intcor
     16.07     -18.87       1.47        0.00     108.34       1.64       1.07       1.73       ----

> <Gold.Chemscore.Fitness>
16.0676

> <Gold.Chemscore.DG>
-18.8678

> <Gold.Chemscore.ZeroCoef>
-5.4800

> <Gold.Chemscore.Hbond>
1.4725

> <Gold.Chemscore.Metal>
0.0000

> <Gold.Chemscore.Lipo>
108.3416

> <Gold.Chemscore.Internal_Hbond>
0.0000

> <Gold.Chemscore.DEClash>
1.0722

> <Gold.Chemscore.DEInternal>
1.7281

> <Gold.Chemscore.Rot>
1.6431

> <Gold.Chemscore.Internal.Correction>
   9.000000E+99

> <Gold.Chemscore.Hbonds>
donor molecule, donor type, donor heavy atom, donor atom, acceptor molecule, acceptor atom, score
      L1  H    16    39       P1  7948  0.83
      P1  H  8011  8017       L1    11  0.55

> <Gold.Chemscore.Hbond.Weighted>
-4.9182

> <Gold.Chemscore.Metal.Weighted>
-0.0000

> <Gold.Chemscore.Lipo.Weighted>
-12.6760

> <Gold.Chemscore.Internal_Hbond.Weighted>
0.0000

> <Gold.Chemscore.DEClash.Weighted>
1.0722

> <Gold.Chemscore.DEInternal.Weighted>
1.7281

> <Gold.Chemscore.Rot.Weighted>
4.2063

> <Gold.Chemscore.Internal.Correction.Weighted>
   9.000000E+99

> <Gold.Protein.RotatedTorsions>
[ 6907 6896 6895 6894 ] final  -27.34 input  -60.11 | X-H torsion
[ 7974 7965 7964 7962 ] final   26.88 input  175.53 | X-H torsion
[ 8008 7997 7996 7995 ] final -108.31 input   59.86 | X-H torsion
[ 10167 10162 10161 10158 ] final   34.75 input  -65.29 | X-H torsion
[ 10718 10713 10712 10709 ] final -147.53 input   66.30 | X-H torsion
[ 10763 10752 10751 10750 ] final   -9.48 input  -60.55 | X-H torsion
[ 11005 11000 10999 10996 ] final  -14.42 input  -57.11 | X-H torsion

> <Gold.Protein.ActiveResidues>
 VAL166  LYS551  ARG553  GLY616  TRP617  ASP618  TYR619  PRO620  LYS621  CYS622 
 ASP623  PHE694  ASN695  SER759  ASP760  ASP761  ALA762  ILE779  LEU786  VAL792 
 PHE793  MET794  SER795  GLU796  ALA797  LYS798  CYS799  TRP800  GLU811  SER814 

> <Gold.Protein.RotatedAtoms>
  151.1483  135.0214  159.8656 H   0  0  0  0  0  0  0  0  0  0  0  0  # atno 6907 bound_to 6896
  152.5453  134.1418  159.8492 H   0  0  0  0  0  0  0  0  0  0  0  0  # atno 6908 bound_to 6896
  151.1501  133.4868  159.2628 H   0  0  0  0  0  0  0  0  0  0  0  0  # atno 6909 bound_to 6896
  146.1814  139.7268  142.8897 H   0  0  0  0  0  0  0  0  0  0  0  0  # atno 7974 bound_to 7965
  154.9424  140.0402  157.2103 H   0  0  0  0  0  0  0  0  0  0  0  0  # atno 8008 bound_to 7997
  154.8057  140.2859  155.5868 H   0  0  0  0  0  0  0  0  0  0  0  0  # atno 8009 bound_to 7997
  156.2966  140.2546  156.2934 H   0  0  0  0  0  0  0  0  0  0  0  0  # atno 8010 bound_to 7997
  140.4286  144.1358  150.6156 H   0  0  0  0  0  0  0  0  0  0  0  0  # atno 10167 bound_to 10162
  156.4087  130.7971  151.2187 H   0  0  0  0  0  0  0  0  0  0  0  0  # atno 10718 bound_to 10713
  153.4554  135.7015  153.6083 H   0  0  0  0  0  0  0  0  0  0  0  0  # atno 10763 bound_to 10752
  153.4399  135.3782  155.2222 H   0  0  0  0  0  0  0  0  0  0  0  0  # atno 10764 bound_to 10752
  154.8728  135.3971  154.3973 H   0  0  0  0  0  0  0  0  0  0  0  0  # atno 10765 bound_to 10752
  140.7863  133.8323  155.9338 H   0  0  0  0  0  0  0  0  0  0  0  0  # atno 11005 bound_to 11000
  145.4065  141.0391  143.3041 LP  0  0  0  0  0  0  0  0  0  0  0  0  # atno 17320 bound_to 7965
  144.8322  139.5610  143.6938 LP  0  0  0  0  0  0  0  0  0  0  0  0  # atno 17321 bound_to 7965
  140.4453  143.2509  151.9419 LP  0  0  0  0  0  0  0  0  0  0  0  0  # atno 17342 bound_to 10162
  139.4784  144.5615  151.8232 LP  0  0  0  0  0  0  0  0  0  0  0  0  # atno 17343 bound_to 10162
  157.7506  131.0264  150.3961 LP  0  0  0  0  0  0  0  0  0  0  0  0  # atno 17370 bound_to 10713
  156.4255  130.3961  149.6796 LP  0  0  0  0  0  0  0  0  0  0  0  0  # atno 17371 bound_to 10713
  140.9434  134.1872  157.4781 LP  0  0  0  0  0  0  0  0  0  0  0  0  # atno 17394 bound_to 11000
  139.8736  134.9881  156.5396 LP  0  0  0  0  0  0  0  0  0  0  0  0  # atno 17395 bound_to 11000

$$$$
