AV-unprocessed.smi:790|AV-procd|sdf|3741|dock3
  -GOLD-   22720 1173D 1   1.00000     0.00000
 Structure written by MMmdl.
 38 40  0  0  0  0  0  0  0  0  1 V2000
  145.1158  137.8448  153.1311 O   0  0  0  0  0  0  0  0  0  0  0  0
  146.1981  137.2710  153.0119 C   0  0  0  0  0  0  0  0  0  0  0  0
  147.3990  137.8116  153.2792 N   0  0  0  0  0  0  0  0  0  0  0  0
  147.6927  139.1099  153.7770 C   0  0  0  0  0  0  0  0  0  0  0  0
  148.9824  139.5375  154.1757 C   0  0  0  0  0  0  0  0  0  0  0  0
  149.1486  140.8585  154.6346 C   0  0  0  0  0  0  0  0  0  0  0  0
  148.0236  141.7047  154.6716 C   0  0  0  0  0  0  0  0  0  0  0  0
  146.7916  141.3149  154.2817 N   0  0  0  0  0  0  0  0  0  0  0  0
  146.6399  140.0474  153.8421 C   0  0  0  0  0  0  0  0  0  0  0  0
  146.3217  136.0081  152.5795 N   0  0  0  0  0  0  0  0  0  0  0  0
  145.2154  135.1410  152.1713 C   0  0  1  0  0  0  0  0  0  0  0  0
  145.5542  134.4355  150.8401 C   0  0  2  0  0  0  0  0  0  0  0  0
  144.2625  133.8560  150.2351 C   0  0  0  0  0  0  0  0  0  0  0  0
  143.9564  132.6730  151.1733 C   0  0  0  0  0  0  0  0  0  0  0  0
  145.1146  132.7312  152.1896 C   0  0  1  0  0  0  0  0  0  0  0  0
  146.2720  133.1736  151.3036 C   0  0  0  0  0  0  0  0  0  0  0  0
  144.9151  133.9467  153.1284 C   0  0  1  0  0  0  0  0  0  0  0  0
  145.7660  133.8696  154.4167 C   0  0  0  0  0  0  0  0  0  0  0  0
  145.3574  132.7768  155.2123 O   0  0  0  0  0  0  0  0  0  0  0  0
  148.2024  137.2445  153.0509 H   0  0  0  0  0  0  0  0  0  0  0  0
  149.8439  138.8901  154.1259 H   0  0  0  0  0  0  0  0  0  0  0  0
  150.1188  141.2163  154.9468 H   0  0  0  0  0  0  0  0  0  0  0  0
  148.1170  142.7233  155.0180 H   0  0  0  0  0  0  0  0  0  0  0  0
  145.6412  139.7711  153.5364 H   0  0  0  0  0  0  0  0  0  0  0  0
  147.2502  135.6179  152.5112 H   0  0  0  0  0  0  0  0  0  0  0  0
  144.3215  135.7539  152.0397 H   0  0  0  0  0  0  0  0  0  0  0  0
  146.1152  135.0542  150.1386 H   0  0  0  0  0  0  0  0  0  0  0  0
  143.4517  134.5846  150.2027 H   0  0  0  0  0  0  0  0  0  0  0  0
  144.4346  133.5031  149.2175 H   0  0  0  0  0  0  0  0  0  0  0  0
  142.9791  132.7602  151.6493 H   0  0  0  0  0  0  0  0  0  0  0  0
  143.9735  131.7329  150.6203 H   0  0  0  0  0  0  0  0  0  0  0  0
  145.2725  131.7857  152.7092 H   0  0  0  0  0  0  0  0  0  0  0  0
  146.4868  132.4755  150.4925 H   0  0  0  0  0  0  0  0  0  0  0  0
  147.1930  133.3734  151.8529 H   0  0  0  0  0  0  0  0  0  0  0  0
  143.8696  134.0012  153.4366 H   0  0  0  0  0  0  0  0  0  0  0  0
  146.8282  133.7712  154.1925 H   0  0  0  0  0  0  0  0  0  0  0  0
  145.6400  134.7730  155.0133 H   0  0  0  0  0  0  0  0  0  0  0  0
  144.4885  132.5184  154.9451 H   0  0  0  0  0  0  0  0  0  0  0  0
  1  2  2  0  0  0  0
  2  3  1  0  0  0  0
  2 10  1  0  0  0  0
  3  4  1  0  0  0  0
  3 20  1  0  0  0  0
  4  9  1  0  0  0  0
  4  5  2  0  0  0  0
  5  6  1  0  0  0  0
  5 21  1  0  0  0  0
  6  7  2  0  0  0  0
  6 22  1  0  0  0  0
  7  8  1  0  0  0  0
  7 23  1  0  0  0  0
  8  9  2  0  0  0  0
  9 24  1  0  0  0  0
 10 11  1  0  0  0  0
 10 25  1  0  0  0  0
 11 17  1  0  0  0  0
 11 12  1  0  0  0  0
 11 26  1  0  0  0  0
 12 16  1  0  0  0  0
 12 13  1  0  0  0  0
 12 27  1  0  0  0  0
 13 14  1  0  0  0  0
 13 28  1  0  0  0  0
 13 29  1  0  0  0  0
 14 15  1  0  0  0  0
 14 30  1  0  0  0  0
 14 31  1  0  0  0  0
 15 16  1  0  0  0  0
 15 17  1  0  0  0  0
 15 32  1  0  0  0  0
 16 33  1  0  0  0  0
 16 34  1  0  0  0  0
 17 18  1  0  0  0  0
 17 35  1  0  0  0  0
 18 19  1  0  0  0  0
 18 36  1  0  0  0  0
 18 37  1  0  0  0  0
 19 38  1  0  0  0  0
M  END
> <s_m_source_file>
AV-unprocessed.smi

> <i_m_source_file_index>
790

> <i_lp_mmshare_version>
43012

> <i_f3d_flags>
0

> <s_epik_input>
W0NIMl0xW0NIMl1bQ0BASF0oW0NIMl0yKVtDQEBIXShbQ0gyXVtPSF0pW0NAQEhdKFtDQEhdMTIpW05IXUMoPU8pW05IXWMzW2NIXVtjSF1bY0hdbltjSF0z

> <s_epik_cmdline>
J2VwaWtfcHl0aG9uJywgJy1waCcsICc3LjAnLCAnLXRuJywgJzgnLCAnLW1hJywgJzIwMCcsICctbWV0YWxfYmluZGluZycsICctaW1hZScsICc8aW5maWxlLm1hZT4nLCAnLW9tYWUnLCAnPG91dGZpbGUubWFlPic=

> <r_epik_Ionization_Penalty>
0.00497582

> <r_epik_Ionization_Penalty_Charging>
0

> <r_epik_Ionization_Penalty_Neutral>
0.00497582

> <r_epik_State_Penalty>
0.00358602

> <r_epik_Charging_Adjusted_Penalty>
0.00358602

> <i_epik_Tot_Q>
0

> <i_epik_Tot_abs_Q>
0

> <r_epik_Metal_State_Penalty>
-0

> <b_epik_Metal_Only>
0

> <s_lp_Force_Field>
OPLS_2005

> <r_lp_Energy>
53.2312

> <b_lp_Chiralities_Consistent>
1

> <s_lp_Variant>
AV-unprocessed.smi:790-2

> <Gold.Version>
5.8.1

> <Gold.Id.Protein>
6NUR|6NUR_protein|mol2

> <Gold.PLP.Fitness>
41.7148

> <Gold.PLP.PLP>
-27.7229

> <Gold.PLP.part.hbond>
-3.0000

> <Gold.PLP.part.metal>
0.0000

> <Gold.PLP.part.buried>
-2.6766

> <Gold.PLP.part.nonpolar>
-23.5530

> <Gold.PLP.part.repulsive>
0.7259

> <Gold.PLP.ligand.clash>
0.0000

> <Gold.PLP.ligand.torsion>
0.1501

> <Gold.PLP.Chemscore.Hbond>
2.7600

> <Gold.PLP.Chemscore.CHOScore>
2.0000

> <Gold.PLP.Chemscore.Metal>
0.0000

> <Gold.Chemscore.Hbonds>
donor molecule, donor type, donor heavy atom, donor atom, acceptor molecule, acceptor atom, score
      L1  H     3    20       P1  7948  0.93
      L1  H    10    25       P1  7948  0.72
      L1  H    19    38       P1 10957  1.00
      L1  C     7    23       P1  8028  1.00
      L1  C     9    24       P1 10175  1.00

> <Gold.PLP.Chemscore.Internal.Correction>
0.0122

> <Gold.Rescore>
     Score         DG    S(hbond)    S(metal)    S(lipo)     H(rot)  DE(clash)    DE(int)     intcor
     16.75     -18.49       2.80        0.00      70.17       1.78       0.03       1.71       ----

> <Gold.Chemscore.Fitness>
16.7487

> <Gold.Chemscore.DG>
-18.4883

> <Gold.Chemscore.ZeroCoef>
-5.4800

> <Gold.Chemscore.Hbond>
2.7998

> <Gold.Chemscore.Metal>
0.0000

> <Gold.Chemscore.Lipo>
70.1670

> <Gold.Chemscore.Internal_Hbond>
0.0000

> <Gold.Chemscore.DEClash>
0.0270

> <Gold.Chemscore.DEInternal>
1.7125

> <Gold.Chemscore.Rot>
1.7783

> <Gold.Chemscore.Internal.Correction>
   9.000000E+99

> <Gold.Chemscore.Hbonds>
donor molecule, donor type, donor heavy atom, donor atom, acceptor molecule, acceptor atom, score
      L1  H     3    20       P1  7948  0.90
      L1  H    10    25       P1  7948  0.72
      L1  H    19    38       P1 10957  0.93

> <Gold.Chemscore.Hbond.Weighted>
-9.3513

> <Gold.Chemscore.Metal.Weighted>
-0.0000

> <Gold.Chemscore.Lipo.Weighted>
-8.2095

> <Gold.Chemscore.Internal_Hbond.Weighted>
0.0000

> <Gold.Chemscore.DEClash.Weighted>
0.0270

> <Gold.Chemscore.DEInternal.Weighted>
1.7125

> <Gold.Chemscore.Rot.Weighted>
4.5525

> <Gold.Chemscore.Internal.Correction.Weighted>
   9.000000E+99

> <Gold.Protein.RotatedTorsions>
[ 6907 6896 6895 6894 ] final   95.36 input  -60.11 | X-H torsion
[ 7974 7965 7964 7962 ] final   54.57 input  175.53 | X-H torsion
[ 8008 7997 7996 7995 ] final -110.84 input   59.86 | X-H torsion
[ 10167 10162 10161 10158 ] final   47.71 input  -65.29 | X-H torsion
[ 10718 10713 10712 10709 ] final -132.69 input   66.30 | X-H torsion
[ 10763 10752 10751 10750 ] final   25.06 input  -60.55 | X-H torsion
[ 11005 11000 10999 10996 ] final  -14.45 input  -57.11 | X-H torsion

> <Gold.Protein.ActiveResidues>
 VAL166  LYS551  ARG553  GLY616  TRP617  ASP618  TYR619  PRO620  LYS621  CYS622 
 ASP623  PHE694  ASN695  SER759  ASP760  ASP761  ALA762  ILE779  LEU786  VAL792 
 PHE793  MET794  SER795  GLU796  ALA797  LYS798  CYS799  TRP800  GLU811  SER814 

> <Gold.Protein.RotatedAtoms>
  152.5444  134.1051  159.8334 H   0  0  0  0  0  0  0  0  0  0  0  0  # atno 6907 bound_to 6896
  151.1124  133.5156  159.2612 H   0  0  0  0  0  0  0  0  0  0  0  0  # atno 6908 bound_to 6896
  151.1869  135.0395  159.8871 H   0  0  0  0  0  0  0  0  0  0  0  0  # atno 6909 bound_to 6896
  145.9595  139.4046  143.0257 H   0  0  0  0  0  0  0  0  0  0  0  0  # atno 7974 bound_to 7965
  154.9807  140.0396  157.2276 H   0  0  0  0  0  0  0  0  0  0  0  0  # atno 8008 bound_to 7997
  154.7717  140.2803  155.6110 H   0  0  0  0  0  0  0  0  0  0  0  0  # atno 8009 bound_to 7997
  156.2922  140.2609  156.2521 H   0  0  0  0  0  0  0  0  0  0  0  0  # atno 8010 bound_to 7997
  140.3008  144.2936  150.6219 H   0  0  0  0  0  0  0  0  0  0  0  0  # atno 10167 bound_to 10162
  156.2372  130.7073  151.0919 H   0  0  0  0  0  0  0  0  0  0  0  0  # atno 10718 bound_to 10713
  153.0719  135.6591  154.0229 H   0  0  0  0  0  0  0  0  0  0  0  0  # atno 10763 bound_to 10752
  153.9873  135.2949  155.3416 H   0  0  0  0  0  0  0  0  0  0  0  0  # atno 10764 bound_to 10752
  154.7096  135.5211  153.8716 H   0  0  0  0  0  0  0  0  0  0  0  0  # atno 10765 bound_to 10752
  140.7866  133.8321  155.9340 H   0  0  0  0  0  0  0  0  0  0  0  0  # atno 11005 bound_to 11000
  145.8060  140.9748  143.0974 LP  0  0  0  0  0  0  0  0  0  0  0  0  # atno 17320 bound_to 7965
  144.6812  139.9861  143.7484 LP  0  0  0  0  0  0  0  0  0  0  0  0  # atno 17321 bound_to 7965
  140.5652  143.2187  151.7695 LP  0  0  0  0  0  0  0  0  0  0  0  0  # atno 17342 bound_to 10162
  139.4915  144.4293  151.9890 LP  0  0  0  0  0  0  0  0  0  0  0  0  # atno 17343 bound_to 10162
  157.7159  131.0710  150.6327 LP  0  0  0  0  0  0  0  0  0  0  0  0  # atno 17370 bound_to 10713
  156.6398  130.4455  149.5756 LP  0  0  0  0  0  0  0  0  0  0  0  0  # atno 17371 bound_to 10713
  140.9431  134.1875  157.4783 LP  0  0  0  0  0  0  0  0  0  0  0  0  # atno 17394 bound_to 11000
  139.8736  134.9879  156.5391 LP  0  0  0  0  0  0  0  0  0  0  0  0  # atno 17395 bound_to 11000

$$$$
