AV-unprocessed.smi:2822|AV-procd|sdf|10879|dock7
  -GOLD-   2272015323D 1   1.00000     0.00000
 Structure written by MMmdl.
 40 42  0  0  0  0  0  0  0  0  2 V2000
  146.9054  139.3965  157.5375 Cl  0  0  0  0  0  0  0  0  0  0  0  0
  147.1360  140.1303  155.9889 C   0  0  0  0  0  0  0  0  0  0  0  0
  146.0117  140.4065  155.1838 C   0  0  0  0  0  0  0  0  0  0  0  0
  146.1721  140.9797  153.9722 N   0  3  0  0  0  0  0  0  0  0  0  0
  147.3835  141.3103  153.4772 C   0  0  0  0  0  0  0  0  0  0  0  0
  148.5453  141.0586  154.2347 C   0  0  0  0  0  0  0  0  0  0  0  0
  148.4301  140.4593  155.5142 C   0  0  0  0  0  0  0  0  0  0  0  0
  149.5480  140.1821  156.3157 N   0  0  0  0  0  0  0  0  0  0  0  0
  150.8973  140.4662  155.8510 C   0  0  0  0  0  0  0  0  0  0  0  0
  151.7223  141.1857  156.9264 C   0  0  1  0  0  0  0  0  0  0  0  0
  151.1424  142.5734  157.2572 C   0  0  0  0  0  0  0  0  0  0  0  0
  151.8825  143.2293  158.3275 N   0  0  0  0  0  0  0  0  0  0  0  0
  151.3214  144.5439  158.6341 C   0  0  0  0  0  0  0  0  0  0  0  0
  152.1060  145.2731  159.7362 C   0  0  0  0  0  0  0  0  0  0  0  0
  152.1692  144.4114  161.0055 C   0  0  0  0  0  0  0  0  0  0  0  0
  152.7070  143.0119  160.6685 C   0  0  0  0  0  0  0  0  0  0  0  0
  151.9023  142.3730  159.5175 C   0  0  2  0  0  0  0  0  0  0  0  0
  152.4547  140.9734  159.1777 C   0  0  0  0  0  0  0  0  0  0  0  0
  151.7016  140.3984  158.1144 O   0  0  0  0  0  0  0  0  0  0  0  0
  144.9939  140.1868  155.4719 H   0  0  0  0  0  0  0  0  0  0  0  0
  147.3883  141.7625  152.4961 H   0  0  0  0  0  0  0  0  0  0  0  0
  149.5056  141.3273  153.8208 H   0  0  0  0  0  0  0  0  0  0  0  0
  149.4144  139.9757  157.2961 H   0  0  0  0  0  0  0  0  0  0  0  0
  151.3806  139.5218  155.5980 H   0  0  0  0  0  0  0  0  0  0  0  0
  150.8593  141.0675  154.9416 H   0  0  0  0  0  0  0  0  0  0  0  0
  152.7517  141.2981  156.5802 H   0  0  0  0  0  0  0  0  0  0  0  0
  151.1612  143.1975  156.3631 H   0  0  0  0  0  0  0  0  0  0  0  0
  150.0944  142.4701  157.5432 H   0  0  0  0  0  0  0  0  0  0  0  0
  151.3190  145.1591  157.7336 H   0  0  0  0  0  0  0  0  0  0  0  0
  150.2792  144.4398  158.9396 H   0  0  0  0  0  0  0  0  0  0  0  0
  153.1162  145.4887  159.3856 H   0  0  0  0  0  0  0  0  0  0  0  0
  151.6399  146.2336  159.9568 H   0  0  0  0  0  0  0  0  0  0  0  0
  152.7976  144.8889  161.7578 H   0  0  0  0  0  0  0  0  0  0  0  0
  151.1719  144.3252  161.4386 H   0  0  0  0  0  0  0  0  0  0  0  0
  153.7587  143.0844  160.3876 H   0  0  0  0  0  0  0  0  0  0  0  0
  152.6651  142.3788  161.5554 H   0  0  0  0  0  0  0  0  0  0  0  0
  150.8758  142.2425  159.8651 H   0  0  0  0  0  0  0  0  0  0  0  0
  153.5069  141.0274  158.8937 H   0  0  0  0  0  0  0  0  0  0  0  0
  152.3917  140.3171  160.0460 H   0  0  0  0  0  0  0  0  0  0  0  0
  145.3436  141.1702  153.4077 H   0  0  0  0  0  0  0  0  0  0  0  0
  1  2  1  0  0  0  0
  2  7  1  0  0  0  0
  2  3  2  0  0  0  0
  3  4  1  0  0  0  0
  3 20  1  0  0  0  0
  4  5  2  0  0  0  0
  4 40  1  0  0  0  0
  5  6  1  0  0  0  0
  5 21  1  0  0  0  0
  6  7  2  0  0  0  0
  6 22  1  0  0  0  0
  7  8  1  0  0  0  0
  8  9  1  0  0  0  0
  8 23  1  0  0  0  0
  9 10  1  0  0  0  0
  9 24  1  0  0  0  0
  9 25  1  0  0  0  0
 10 19  1  0  0  0  0
 10 11  1  0  0  0  0
 10 26  1  0  0  0  0
 11 12  1  0  0  0  0
 11 27  1  0  0  0  0
 11 28  1  0  0  0  0
 12 17  1  0  0  0  0
 12 13  1  0  0  0  0
 13 14  1  0  0  0  0
 13 29  1  0  0  0  0
 13 30  1  0  0  0  0
 14 15  1  0  0  0  0
 14 31  1  0  0  0  0
 14 32  1  0  0  0  0
 15 16  1  0  0  0  0
 15 33  1  0  0  0  0
 15 34  1  0  0  0  0
 16 17  1  0  0  0  0
 16 35  1  0  0  0  0
 16 36  1  0  0  0  0
 17 18  1  0  0  0  0
 17 37  1  0  0  0  0
 18 19  1  0  0  0  0
 18 38  1  0  0  0  0
 18 39  1  0  0  0  0
M  CHG  1   4   1
M  END
> <s_m_source_file>
AV-unprocessed.smi

> <i_m_source_file_index>
2822

> <i_lp_mmshare_version>
43012

> <i_f3d_flags>
0

> <s_epik_input>
Q2xjMVtjSF1uW2NIXVtjSF1jMVtOSF1bQ0gyXVtDQEhdKFtDSDJdMilPW0NIMl1bQ0BASF0oTjIzKVtDSDJdW0NIMl1bQ0gyXVtDSDJdMw==

> <s_epik_cmdline>
J2VwaWtfcHl0aG9uJywgJy1waCcsICc3LjAnLCAnLXRuJywgJzgnLCAnLW1hJywgJzIwMCcsICctbWV0YWxfYmluZGluZycsICctaW1hZScsICc8aW5maWxlLm1hZT4nLCAnLW9tYWUnLCAnPG91dGZpbGUubWFlPic=

> <r_epik_Ionization_Penalty>
1.37653

> <r_epik_Ionization_Penalty_Charging>
0.152973

> <r_epik_Ionization_Penalty_Neutral>
1.22356

> <r_epik_State_Penalty>
1.42693

> <r_epik_Charging_Adjusted_Penalty>
1.5799

> <i_epik_Tot_Q>
1

> <i_epik_Tot_abs_Q>
1

> <r_epik_Metal_State_Penalty>
4.59822

> <b_epik_Metal_Only>
0

> <s_lp_Force_Field>
OPLS_2005

> <r_lp_Energy>
43.1838

> <b_lp_Chiralities_Consistent>
1

> <s_lp_Variant>
AV-unprocessed.smi:2822-20

> <Gold.Version>
5.8.1

> <Gold.Id.Protein>
6NUR|6NUR_protein|mol2

> <Gold.PLP.Fitness>
42.3370

> <Gold.PLP.PLP>
-36.5144

> <Gold.PLP.part.hbond>
-1.0000

> <Gold.PLP.part.metal>
0.0000

> <Gold.PLP.part.buried>
-6.9450

> <Gold.PLP.part.nonpolar>
-28.3876

> <Gold.PLP.part.repulsive>
0.0658

> <Gold.PLP.ligand.clash>
0.0000

> <Gold.PLP.ligand.torsion>
0.0890

> <Gold.PLP.Chemscore.Hbond>
2.0000

> <Gold.PLP.Chemscore.CHOScore>
0.0000

> <Gold.PLP.Chemscore.Metal>
0.0000

> <Gold.Chemscore.Hbonds>
donor molecule, donor type, donor heavy atom, donor atom, acceptor molecule, acceptor atom, score
      L1  H     4    40       P1 10175  2.00

> <Gold.PLP.Chemscore.Internal.Correction>
0.0006

> <Gold.Rescore>
     Score         DG    S(hbond)    S(metal)    S(lipo)     H(rot)  DE(clash)    DE(int)     intcor
     18.26     -18.58       0.97        0.00     110.17       1.18       0.19       0.14       ----

> <Gold.Chemscore.Fitness>
18.2551

> <Gold.Chemscore.DG>
-18.5815

> <Gold.Chemscore.ZeroCoef>
-5.4800

> <Gold.Chemscore.Hbond>
0.9670

> <Gold.Chemscore.Metal>
0.0000

> <Gold.Chemscore.Lipo>
110.1659

> <Gold.Chemscore.Internal_Hbond>
0.0000

> <Gold.Chemscore.DEClash>
0.1902

> <Gold.Chemscore.DEInternal>
0.1362

> <Gold.Chemscore.Rot>
1.1788

> <Gold.Chemscore.Internal.Correction>
   9.000000E+99

> <Gold.Chemscore.Hbonds>
donor molecule, donor type, donor heavy atom, donor atom, acceptor molecule, acceptor atom, score
      L1  H     4    40       P1 10175  0.31

> <Gold.Chemscore.Hbond.Weighted>
-3.2298

> <Gold.Chemscore.Metal.Weighted>
-0.0000

> <Gold.Chemscore.Lipo.Weighted>
-12.8894

> <Gold.Chemscore.Internal_Hbond.Weighted>
0.0000

> <Gold.Chemscore.DEClash.Weighted>
0.1902

> <Gold.Chemscore.DEInternal.Weighted>
0.1362

> <Gold.Chemscore.Rot.Weighted>
3.0177

> <Gold.Chemscore.Internal.Correction.Weighted>
   9.000000E+99

> <Gold.Protein.RotatedTorsions>
[ 6907 6896 6895 6894 ] final -176.29 input  -60.11 | X-H torsion
[ 7974 7965 7964 7962 ] final  131.25 input  175.53 | X-H torsion
[ 8008 7997 7996 7995 ] final -120.79 input   59.86 | X-H torsion
[ 10167 10162 10161 10158 ] final  -85.34 input  -65.29 | X-H torsion
[ 10718 10713 10712 10709 ] final   96.69 input   66.30 | X-H torsion
[ 10763 10752 10751 10750 ] final  129.05 input  -60.55 | X-H torsion
[ 11005 11000 10999 10996 ] final  -40.79 input  -57.11 | X-H torsion

> <Gold.Protein.ActiveResidues>
 VAL166  LYS551  ARG553  GLY616  TRP617  ASP618  TYR619  PRO620  LYS621  CYS622 
 ASP623  PHE694  ASN695  SER759  ASP760  ASP761  ALA762  ILE779  LEU786  VAL792 
 PHE793  MET794  SER795  GLU796  ALA797  LYS798  CYS799  TRP800  GLU811  SER814 

> <Gold.Protein.RotatedAtoms>
  151.6024  133.3355  159.3050 H   0  0  0  0  0  0  0  0  0  0  0  0  # atno 6907 bound_to 6896
  150.8200  134.7406  159.6775 H   0  0  0  0  0  0  0  0  0  0  0  0  # atno 6908 bound_to 6896
  152.4294  134.5812  160.0000 H   0  0  0  0  0  0  0  0  0  0  0  0  # atno 6909 bound_to 6896
  145.0093  139.4235  143.5253 H   0  0  0  0  0  0  0  0  0  0  0  0  # atno 7974 bound_to 7965
  155.1375  140.0401  157.2790 H   0  0  0  0  0  0  0  0  0  0  0  0  # atno 8008 bound_to 7997
  154.6497  140.2566  155.7201 H   0  0  0  0  0  0  0  0  0  0  0  0  # atno 8009 bound_to 7997
  156.2571  140.2839  156.0926 H   0  0  0  0  0  0  0  0  0  0  0  0  # atno 8010 bound_to 7997
  140.4047  143.2648  151.9096 H   0  0  0  0  0  0  0  0  0  0  0  0  # atno 10167 bound_to 10162
  157.6923  131.0586  150.4529 H   0  0  0  0  0  0  0  0  0  0  0  0  # atno 10718 bound_to 10713
  153.7355  135.3232  155.3294 H   0  0  0  0  0  0  0  0  0  0  0  0  # atno 10763 bound_to 10752
  154.8312  135.4532  154.1079 H   0  0  0  0  0  0  0  0  0  0  0  0  # atno 10764 bound_to 10752
  153.2239  135.6951  153.8049 H   0  0  0  0  0  0  0  0  0  0  0  0  # atno 10765 bound_to 10752
  141.0200  133.6867  156.2369 H   0  0  0  0  0  0  0  0  0  0  0  0  # atno 11005 bound_to 11000
  146.3467  139.9528  142.8727 LP  0  0  0  0  0  0  0  0  0  0  0  0  # atno 17320 bound_to 7965
  145.2045  140.9869  143.4136 LP  0  0  0  0  0  0  0  0  0  0  0  0  # atno 17321 bound_to 7965
  139.4784  144.5598  151.8257 LP  0  0  0  0  0  0  0  0  0  0  0  0  # atno 17342 bound_to 10162
  140.4702  144.1597  150.5917 LP  0  0  0  0  0  0  0  0  0  0  0  0  # atno 17343 bound_to 10162
  156.4879  130.4088  149.6423 LP  0  0  0  0  0  0  0  0  0  0  0  0  # atno 17370 bound_to 10713
  156.3444  130.7399  151.2349 LP  0  0  0  0  0  0  0  0  0  0  0  0  # atno 17371 bound_to 10713
  140.6589  134.4988  157.5582 LP  0  0  0  0  0  0  0  0  0  0  0  0  # atno 17394 bound_to 11000
  139.9140  134.8285  156.1429 LP  0  0  0  0  0  0  0  0  0  0  0  0  # atno 17395 bound_to 11000

$$$$
