AV-unprocessed.smi:2043|AV-procd|sdf|8296|dock10
  -GOLD-   2272010563D 1   1.00000     0.00000
 Structure written by MMmdl.
 29 30  0  0  0  0  0  0  0  0  1 V2000
  146.8053  138.9890  152.5769 C   0  0  0  0  0  0  0  0  0  0  0  0
  147.7153  139.6494  153.5554 C   0  0  0  0  0  0  0  0  0  0  0  0
  148.5863  138.9672  154.3089 N   0  0  0  0  0  0  0  0  0  0  0  0
  149.3203  139.7963  155.1458 N   0  0  0  0  0  0  0  0  0  0  0  0
  148.9781  141.0837  154.9991 C   0  0  0  0  0  0  0  0  0  0  0  0
  149.5682  142.1464  155.7330 N   0  0  0  0  0  0  0  0  0  0  0  0
  150.6968  142.1292  156.4638 C   0  0  0  0  0  0  0  0  0  0  0  0
  151.4344  141.1544  156.6114 O   0  0  0  0  0  0  0  0  0  0  0  0
  150.9288  143.3255  157.0235 N   0  0  0  0  0  0  0  0  0  0  0  0
  152.0685  143.6533  157.8726 C   0  0  0  0  0  0  0  0  0  0  0  0
  151.6671  143.7167  159.3442 C   0  0  0  0  0  0  0  0  0  0  0  0
  151.8486  145.0186  160.1413 C   0  0  0  0  0  0  0  0  0  0  0  0
  152.1835  144.1670  161.3684 C   0  0  0  0  0  0  0  0  0  0  0  0
  152.5575  143.0428  160.3990 C   0  0  0  0  0  0  0  0  0  0  0  0
  147.7197  141.3896  153.8142 S   0  0  0  0  0  0  0  0  0  0  0  0
  147.1854  138.0039  152.3047 H   0  0  0  0  0  0  0  0  0  0  0  0
  146.7253  139.5927  151.6727 H   0  0  0  0  0  0  0  0  0  0  0  0
  145.8124  138.8745  153.0119 H   0  0  0  0  0  0  0  0  0  0  0  0
  149.0688  143.0227  155.7013 H   0  0  0  0  0  0  0  0  0  0  0  0
  150.2687  144.0686  156.8470 H   0  0  0  0  0  0  0  0  0  0  0  0
  152.8254  142.8825  157.7263 H   0  0  0  0  0  0  0  0  0  0  0  0
  152.5282  144.5900  157.5530 H   0  0  0  0  0  0  0  0  0  0  0  0
  150.6432  143.3617  159.4807 H   0  0  0  0  0  0  0  0  0  0  0  0
  152.6981  145.6118  159.7980 H   0  0  0  0  0  0  0  0  0  0  0  0
  150.9477  145.6257  160.2353 H   0  0  0  0  0  0  0  0  0  0  0  0
  153.0085  144.5416  161.9748 H   0  0  0  0  0  0  0  0  0  0  0  0
  151.3065  143.9312  161.9733 H   0  0  0  0  0  0  0  0  0  0  0  0
  152.2309  142.0483  160.7044 H   0  0  0  0  0  0  0  0  0  0  0  0
  153.6156  143.0541  160.1314 H   0  0  0  0  0  0  0  0  0  0  0  0
  1  2  1  0  0  0  0
  1 16  1  0  0  0  0
  1 17  1  0  0  0  0
  1 18  1  0  0  0  0
  2 15  1  0  0  0  0
  2  3  2  0  0  0  0
  3  4  1  0  0  0  0
  4  5  2  0  0  0  0
  5  6  1  0  0  0  0
  5 15  1  0  0  0  0
  6  7  1  0  0  0  0
  6 19  1  0  0  0  0
  7  8  2  0  0  0  0
  7  9  1  0  0  0  0
  9 10  1  0  0  0  0
  9 20  1  0  0  0  0
 10 11  1  0  0  0  0
 10 21  1  0  0  0  0
 10 22  1  0  0  0  0
 11 14  1  0  0  0  0
 11 12  1  0  0  0  0
 11 23  1  0  0  0  0
 12 13  1  0  0  0  0
 12 24  1  0  0  0  0
 12 25  1  0  0  0  0
 13 14  1  0  0  0  0
 13 26  1  0  0  0  0
 13 27  1  0  0  0  0
 14 28  1  0  0  0  0
 14 29  1  0  0  0  0
M  END
> <s_m_source_file>
AV-unprocessed.smi

> <i_m_source_file_index>
2043

> <i_lp_mmshare_version>
43012

> <i_f3d_flags>
0

> <s_epik_input>
W0NIM11jMW5uYyhzMSlbTkhdQyg9TylbTkhdW0NIMl1bQ0hdMltDSDJdW0NIMl1bQ0gyXTI=

> <s_epik_cmdline>
J2VwaWtfcHl0aG9uJywgJy1waCcsICc3LjAnLCAnLXRuJywgJzgnLCAnLW1hJywgJzIwMCcsICctbWV0YWxfYmluZGluZycsICctaW1hZScsICc8aW5maWxlLm1hZT4nLCAnLW9tYWUnLCAnPG91dGZpbGUubWFlPic=

> <r_lp_tautomer_probability>
1

> <r_epik_Ionization_Penalty>
0.000387707

> <r_epik_Ionization_Penalty_Charging>
0

> <r_epik_Ionization_Penalty_Neutral>
0.000387707

> <r_epik_State_Penalty>
-0

> <r_epik_Charging_Adjusted_Penalty>
0

> <i_epik_Tot_Q>
0

> <i_epik_Tot_abs_Q>
0

> <r_epik_Metal_State_Penalty>
0.190371

> <b_epik_Metal_Only>
0

> <s_lp_Force_Field>
OPLS_2005

> <r_lp_Energy>
11.3872

> <b_lp_Chiralities_Consistent>
1

> <s_lp_Variant>
AV-unprocessed.smi:2043-1

> <Gold.Version>
5.8.1

> <Gold.Id.Protein>
6NUR|6NUR_protein|mol2

> <Gold.PLP.Fitness>
38.9696

> <Gold.PLP.PLP>
-34.7711

> <Gold.PLP.part.hbond>
-2.0000

> <Gold.PLP.part.metal>
0.0000

> <Gold.PLP.part.buried>
-3.5871

> <Gold.PLP.part.nonpolar>
-29.3382

> <Gold.PLP.part.repulsive>
0.4104

> <Gold.PLP.ligand.clash>
0.0000

> <Gold.PLP.ligand.torsion>
0.8456

> <Gold.PLP.Chemscore.Hbond>
1.9440

> <Gold.PLP.Chemscore.CHOScore>
0.0000

> <Gold.PLP.Chemscore.Metal>
0.0000

> <Gold.Chemscore.Hbonds>
donor molecule, donor type, donor heavy atom, donor atom, acceptor molecule, acceptor atom, score
      L1  H     6    19       P1  8028  1.00
      L1  H     9    20       P1  8028  0.93

> <Gold.PLP.Chemscore.Internal.Correction>
0.0577

> <Gold.Rescore>
     Score         DG    S(hbond)    S(metal)    S(lipo)     H(rot)  DE(clash)    DE(int)     intcor
     16.26     -18.27       1.96        0.00      81.17       1.27       0.22       1.78       ----

> <Gold.Chemscore.Fitness>
16.2640

> <Gold.Chemscore.DG>
-18.2698

> <Gold.Chemscore.ZeroCoef>
-5.4800

> <Gold.Chemscore.Hbond>
1.9630

> <Gold.Chemscore.Metal>
0.0000

> <Gold.Chemscore.Lipo>
81.1739

> <Gold.Chemscore.Internal_Hbond>
0.0000

> <Gold.Chemscore.DEClash>
0.2234

> <Gold.Chemscore.DEInternal>
1.7824

> <Gold.Chemscore.Rot>
1.2750

> <Gold.Chemscore.Internal.Correction>
   9.000000E+99

> <Gold.Chemscore.Hbonds>
donor molecule, donor type, donor heavy atom, donor atom, acceptor molecule, acceptor atom, score
      L1  H     6    19       P1  8028  0.99
      L1  H     9    20       P1  8028  0.89

> <Gold.Chemscore.Hbond.Weighted>
-6.5565

> <Gold.Chemscore.Metal.Weighted>
-0.0000

> <Gold.Chemscore.Lipo.Weighted>
-9.4973

> <Gold.Chemscore.Internal_Hbond.Weighted>
0.0000

> <Gold.Chemscore.DEClash.Weighted>
0.2234

> <Gold.Chemscore.DEInternal.Weighted>
1.7824

> <Gold.Chemscore.Rot.Weighted>
3.2640

> <Gold.Chemscore.Internal.Correction.Weighted>
   9.000000E+99

> <Gold.Protein.RotatedTorsions>
[ 6907 6896 6895 6894 ] final -123.09 input  -60.11 | X-H torsion
[ 7974 7965 7964 7962 ] final   52.36 input  175.53 | X-H torsion
[ 8008 7997 7996 7995 ] final   69.63 input   59.86 | X-H torsion
[ 10167 10162 10161 10158 ] final  -67.71 input  -65.29 | X-H torsion
[ 10718 10713 10712 10709 ] final  -50.79 input   66.30 | X-H torsion
[ 10763 10752 10751 10750 ] final -162.92 input  -60.55 | X-H torsion
[ 11005 11000 10999 10996 ] final   66.17 input  -57.11 | X-H torsion

> <Gold.Protein.ActiveResidues>
 VAL166  LYS551  ARG553  GLY616  TRP617  ASP618  TYR619  PRO620  LYS621  CYS622 
 ASP623  PHE694  ASN695  SER759  ASP760  ASP761  ALA762  ILE779  LEU786  VAL792 
 PHE793  MET794  SER795  GLU796  ALA797  LYS798  CYS799  TRP800  GLU811  SER814 

> <Gold.Protein.RotatedAtoms>
  150.8637  133.7605  159.2983 H   0  0  0  0  0  0  0  0  0  0  0  0  # atno 6907 bound_to 6896
  151.5239  135.1066  159.9895 H   0  0  0  0  0  0  0  0  0  0  0  0  # atno 6908 bound_to 6896
  152.4645  133.7850  159.6927 H   0  0  0  0  0  0  0  0  0  0  0  0  # atno 6909 bound_to 6896
  145.9821  139.4253  143.0125 H   0  0  0  0  0  0  0  0  0  0  0  0  # atno 7974 bound_to 7965
  155.7266  140.3492  155.5040 H   0  0  0  0  0  0  0  0  0  0  0  0  # atno 8008 bound_to 7997
  155.9221  140.1069  157.1220 H   0  0  0  0  0  0  0  0  0  0  0  0  # atno 8009 bound_to 7997
  154.4071  140.1247  156.4679 H   0  0  0  0  0  0  0  0  0  0  0  0  # atno 8010 bound_to 7997
  140.5562  143.2312  151.6816 H   0  0  0  0  0  0  0  0  0  0  0  0  # atno 10167 bound_to 10162
  156.1769  130.4150  149.9564 H   0  0  0  0  0  0  0  0  0  0  0  0  # atno 10718 bound_to 10713
  154.7170  135.3018  154.9108 H   0  0  0  0  0  0  0  0  0  0  0  0  # atno 10763 bound_to 10752
  153.9992  135.6709  153.4762 H   0  0  0  0  0  0  0  0  0  0  0  0  # atno 10764 bound_to 10752
  153.0801  135.5013  154.8402 H   0  0  0  0  0  0  0  0  0  0  0  0  # atno 10765 bound_to 10752
  139.9848  134.6685  156.0195 H   0  0  0  0  0  0  0  0  0  0  0  0  # atno 11005 bound_to 11000
  145.7753  140.9879  143.1127 LP  0  0  0  0  0  0  0  0  0  0  0  0  # atno 17320 bound_to 7965
  144.6864  139.9498  143.7477 LP  0  0  0  0  0  0  0  0  0  0  0  0  # atno 17321 bound_to 7965
  139.5049  144.3737  152.0445 LP  0  0  0  0  0  0  0  0  0  0  0  0  # atno 17342 bound_to 10162
  140.2859  144.3808  150.6104 LP  0  0  0  0  0  0  0  0  0  0  0  0  # atno 17343 bound_to 10162
  156.7347  130.9057  151.3628 LP  0  0  0  0  0  0  0  0  0  0  0  0  # atno 17370 bound_to 10713
  157.6841  130.9169  150.0342 LP  0  0  0  0  0  0  0  0  0  0  0  0  # atno 17371 bound_to 10713
  141.1515  133.6548  156.4028 LP  0  0  0  0  0  0  0  0  0  0  0  0  # atno 17394 bound_to 11000
  140.5023  134.6473  157.5253 LP  0  0  0  0  0  0  0  0  0  0  0  0  # atno 17395 bound_to 11000

$$$$
