AV-unprocessed.smi:1549|AV-procd|sdf|6222|dock1
  -GOLD-   22720 6393D 1   1.00000     0.00000
 Structure written by MMmdl.
 41 42  0  0  0  0  0  0  0  0  1 V2000
  152.5149  137.5674  154.2710 C   0  0  0  0  0  0  0  0  0  0  0  0
  151.4449  136.9680  155.1867 C   0  0  0  0  0  0  0  0  0  0  0  0
  150.7815  135.9187  154.4884 O   0  0  0  0  0  0  0  0  0  0  0  0
  151.2008  134.6175  154.6908 C   0  0  0  0  0  0  0  0  0  0  0  0
  152.3019  134.4047  155.4549 N   0  0  0  0  0  0  0  0  0  0  0  0
  152.7146  133.1352  155.6484 C   0  0  0  0  0  0  0  0  0  0  0  0
  152.0624  132.0199  155.0914 C   0  0  0  0  0  0  0  0  0  0  0  0
  150.9196  132.2380  154.2998 C   0  0  0  0  0  0  0  0  0  0  0  0
  150.4660  133.5642  154.0986 C   0  0  0  0  0  0  0  0  0  0  0  0
  149.3407  133.8978  153.2954 N   0  0  0  0  0  0  0  0  0  0  0  0
  148.2086  133.1990  153.1076 C   0  0  0  0  0  0  0  0  0  0  0  0
  147.9268  132.1403  153.6689 O   0  0  0  0  0  0  0  0  0  0  0  0
  147.4000  133.8190  152.2360 N   0  0  0  0  0  0  0  0  0  0  0  0
  146.0823  133.3548  151.8094 C   0  0  2  0  0  0  0  0  0  0  0  0
  146.2317  132.0778  150.9603 C   0  0  0  0  0  0  0  0  0  0  0  0
  144.8757  131.6037  150.4124 C   0  0  0  0  0  0  0  0  0  0  0  0
  144.1818  132.7195  149.6129 C   0  0  1  0  0  0  0  0  0  0  0  0
  142.9149  132.2725  149.1781 O   0  0  0  0  0  0  0  0  0  0  0  0
  144.0153  133.9884  150.4664 C   0  0  0  0  0  0  0  0  0  0  0  0
  145.3687  134.4670  151.0164 C   0  0  0  0  0  0  0  0  0  0  0  0
  153.0510  138.3728  154.7736 H   0  0  0  0  0  0  0  0  0  0  0  0
  152.0693  137.9769  153.3641 H   0  0  0  0  0  0  0  0  0  0  0  0
  153.2446  136.8131  153.9753 H   0  0  0  0  0  0  0  0  0  0  0  0
  151.9132  136.5831  156.0939 H   0  0  0  0  0  0  0  0  0  0  0  0
  150.7345  137.7443  155.4748 H   0  0  0  0  0  0  0  0  0  0  0  0
  153.5951  133.0050  156.2599 H   0  0  0  0  0  0  0  0  0  0  0  0
  152.4337  131.0203  155.2625 H   0  0  0  0  0  0  0  0  0  0  0  0
  150.4269  131.3891  153.8521 H   0  0  0  0  0  0  0  0  0  0  0  0
  149.3856  134.8014  152.8471 H   0  0  0  0  0  0  0  0  0  0  0  0
  147.7215  134.6878  151.8347 H   0  0  0  0  0  0  0  0  0  0  0  0
  145.4682  133.1085  152.6777 H   0  0  0  0  0  0  0  0  0  0  0  0
  146.9111  132.2632  150.1272 H   0  0  0  0  0  0  0  0  0  0  0  0
  146.6837  131.2843  151.5566 H   0  0  0  0  0  0  0  0  0  0  0  0
  145.0196  130.7245  149.7833 H   0  0  0  0  0  0  0  0  0  0  0  0
  144.2402  131.2908  151.2424 H   0  0  0  0  0  0  0  0  0  0  0  0
  144.7759  132.9535  148.7287 H   0  0  0  0  0  0  0  0  0  0  0  0
  142.3152  132.3112  149.9074 H   0  0  0  0  0  0  0  0  0  0  0  0
  143.5569  134.7813  149.8745 H   0  0  0  0  0  0  0  0  0  0  0  0
  143.3374  133.7906  151.2981 H   0  0  0  0  0  0  0  0  0  0  0  0
  145.2182  135.3406  151.6517 H   0  0  0  0  0  0  0  0  0  0  0  0
  145.9985  134.7931  150.1873 H   0  0  0  0  0  0  0  0  0  0  0  0
  1  2  1  0  0  0  0
  1 21  1  0  0  0  0
  1 22  1  0  0  0  0
  1 23  1  0  0  0  0
  2  3  1  0  0  0  0
  2 24  1  0  0  0  0
  2 25  1  0  0  0  0
  3  4  1  0  0  0  0
  4  9  1  0  0  0  0
  4  5  2  0  0  0  0
  5  6  1  0  0  0  0
  6  7  2  0  0  0  0
  6 26  1  0  0  0  0
  7  8  1  0  0  0  0
  7 27  1  0  0  0  0
  8  9  2  0  0  0  0
  8 28  1  0  0  0  0
  9 10  1  0  0  0  0
 10 11  1  0  0  0  0
 10 29  1  0  0  0  0
 11 12  2  0  0  0  0
 11 13  1  0  0  0  0
 13 14  1  0  0  0  0
 13 30  1  0  0  0  0
 14 20  1  0  0  0  0
 14 15  1  0  0  0  0
 14 31  1  0  0  0  0
 15 16  1  0  0  0  0
 15 32  1  0  0  0  0
 15 33  1  0  0  0  0
 16 17  1  0  0  0  0
 16 34  1  0  0  0  0
 16 35  1  0  0  0  0
 17 18  1  0  0  0  0
 17 19  1  0  0  0  0
 17 36  1  0  0  0  0
 18 37  1  0  0  0  0
 19 20  1  0  0  0  0
 19 38  1  0  0  0  0
 19 39  1  0  0  0  0
 20 40  1  0  0  0  0
 20 41  1  0  0  0  0
M  END
> <s_m_source_file>
AV-unprocessed.smi

> <i_m_source_file_index>
1549

> <i_lp_mmshare_version>
43012

> <i_f3d_flags>
0

> <s_epik_input>
W0NIM11bQ0gyXU9jMW5bY0hdW2NIXVtjSF1jMVtOSF1DKD1PKVtOSF1bQ0BASF0yW0NIMl1bQ0gyXVtDQEBIXShbT0hdKVtDSDJdW0NIMl0y

> <s_epik_cmdline>
J2VwaWtfcHl0aG9uJywgJy1waCcsICc3LjAnLCAnLXRuJywgJzgnLCAnLW1hJywgJzIwMCcsICctbWV0YWxfYmluZGluZycsICctaW1hZScsICc8aW5maWxlLm1hZT4nLCAnLW9tYWUnLCAnPG91dGZpbGUubWFlPic=

> <r_lp_tautomer_probability>
1

> <r_epik_Ionization_Penalty>
0.000120387

> <r_epik_Ionization_Penalty_Charging>
0

> <r_epik_Ionization_Penalty_Neutral>
0.000120387

> <r_epik_State_Penalty>
-0

> <r_epik_Charging_Adjusted_Penalty>
0

> <i_epik_Tot_Q>
0

> <i_epik_Tot_abs_Q>
0

> <r_epik_Metal_State_Penalty>
-0

> <b_epik_Metal_Only>
0

> <s_lp_Force_Field>
OPLS_2005

> <r_lp_Energy>
10.7929

> <b_lp_Chiralities_Consistent>
1

> <s_lp_Variant>
AV-unprocessed.smi:1549-1

> <Gold.Version>
5.8.1

> <Gold.Id.Protein>
6NUR|6NUR_protein|mol2

> <Gold.PLP.Fitness>
45.8347

> <Gold.PLP.PLP>
-35.7111

> <Gold.PLP.part.hbond>
-5.0000

> <Gold.PLP.part.metal>
0.0000

> <Gold.PLP.part.buried>
-3.1207

> <Gold.PLP.part.nonpolar>
-27.1297

> <Gold.PLP.part.repulsive>
0.2871

> <Gold.PLP.ligand.clash>
0.0000

> <Gold.PLP.ligand.torsion>
0.5846

> <Gold.PLP.Chemscore.Hbond>
3.7602

> <Gold.PLP.Chemscore.CHOScore>
0.0000

> <Gold.PLP.Chemscore.Metal>
0.0000

> <Gold.Chemscore.Hbonds>
donor molecule, donor type, donor heavy atom, donor atom, acceptor molecule, acceptor atom, score
      L1  H    10    29       P1  7948  0.05
      L1  H    13    30       P1  7948  1.00
      P1  H 10752 10765       L1     5  0.18
      P1  H 10785 10796       L1    18  0.60

> <Gold.PLP.Chemscore.Internal.Correction>
0.0121

> <Gold.Rescore>
     Score         DG    S(hbond)    S(metal)    S(lipo)     H(rot)  DE(clash)    DE(int)     intcor
     15.65     -16.43       2.14        0.00      74.86       1.93       0.09       0.68       ----

> <Gold.Chemscore.Fitness>
15.6509

> <Gold.Chemscore.DG>
-16.4269

> <Gold.Chemscore.ZeroCoef>
-5.4800

> <Gold.Chemscore.Hbond>
2.1357

> <Gold.Chemscore.Metal>
0.0000

> <Gold.Chemscore.Lipo>
74.8637

> <Gold.Chemscore.Internal_Hbond>
0.0000

> <Gold.Chemscore.DEClash>
0.0930

> <Gold.Chemscore.DEInternal>
0.6830

> <Gold.Chemscore.Rot>
1.9318

> <Gold.Chemscore.Internal.Correction>
   9.000000E+99

> <Gold.Chemscore.Hbonds>
donor molecule, donor type, donor heavy atom, donor atom, acceptor molecule, acceptor atom, score
      L1  H    13    30       P1  7948  0.37
      P1  H 10752 10765       L1     5  0.09
      P1  H 10785 10796       L1    18  0.17

> <Gold.Chemscore.Hbond.Weighted>
-7.1332

> <Gold.Chemscore.Metal.Weighted>
-0.0000

> <Gold.Chemscore.Lipo.Weighted>
-8.7591

> <Gold.Chemscore.Internal_Hbond.Weighted>
0.0000

> <Gold.Chemscore.DEClash.Weighted>
0.0930

> <Gold.Chemscore.DEInternal.Weighted>
0.6830

> <Gold.Chemscore.Rot.Weighted>
4.9454

> <Gold.Chemscore.Internal.Correction.Weighted>
   9.000000E+99

> <Gold.Protein.RotatedTorsions>
[ 6907 6896 6895 6894 ] final  115.00 input  -60.11 | X-H torsion
[ 7974 7965 7964 7962 ] final   16.66 input  175.53 | X-H torsion
[ 8008 7997 7996 7995 ] final  113.86 input   59.86 | X-H torsion
[ 10167 10162 10161 10158 ] final   53.55 input  -65.29 | X-H torsion
[ 10718 10713 10712 10709 ] final  117.53 input   66.30 | X-H torsion
[ 10763 10752 10751 10750 ] final -146.35 input  -60.55 | X-H torsion
[ 11005 11000 10999 10996 ] final   66.84 input  -57.11 | X-H torsion

> <Gold.Protein.ActiveResidues>
 VAL166  LYS551  ARG553  GLY616  TRP617  ASP618  TYR619  PRO620  LYS621  CYS622 
 ASP623  PHE694  ASN695  SER759  ASP760  ASP761  ALA762  ILE779  LEU786  VAL792 
 PHE793  MET794  SER795  GLU796  ALA797  LYS798  CYS799  TRP800  GLU811  SER814 

> <Gold.Protein.RotatedAtoms>
  152.4768  133.8158  159.7027 H   0  0  0  0  0  0  0  0  0  0  0  0  # atno 6907 bound_to 6896
  150.8791  133.7388  159.2944 H   0  0  0  0  0  0  0  0  0  0  0  0  # atno 6908 bound_to 6896
  151.4898  135.1060  159.9852 H   0  0  0  0  0  0  0  0  0  0  0  0  # atno 6909 bound_to 6896
  146.2243  139.8716  142.8586 H   0  0  0  0  0  0  0  0  0  0  0  0  # atno 7974 bound_to 7965
  156.2284  140.2971  156.0127 H   0  0  0  0  0  0  0  0  0  0  0  0  # atno 8008 bound_to 7997
  155.2292  140.0418  157.2977 H   0  0  0  0  0  0  0  0  0  0  0  0  # atno 8009 bound_to 7997
  154.5955  140.2413  155.7871 H   0  0  0  0  0  0  0  0  0  0  0  0  # atno 8010 bound_to 7997
  140.2396  144.3599  150.6385 H   0  0  0  0  0  0  0  0  0  0  0  0  # atno 10167 bound_to 10162
  157.6090  131.1038  150.7628 H   0  0  0  0  0  0  0  0  0  0  0  0  # atno 10718 bound_to 10713
  154.8340  135.3389  154.6648 H   0  0  0  0  0  0  0  0  0  0  0  0  # atno 10763 bound_to 10752
  153.7264  135.6955  153.5004 H   0  0  0  0  0  0  0  0  0  0  0  0  # atno 10764 bound_to 10752
  153.2344  135.4405  155.0582 H   0  0  0  0  0  0  0  0  0  0  0  0  # atno 10765 bound_to 10752
  139.9807  134.6748  156.0268 H   0  0  0  0  0  0  0  0  0  0  0  0  # atno 11005 bound_to 11000
  145.2603  141.0074  143.3830 LP  0  0  0  0  0  0  0  0  0  0  0  0  # atno 17320 bound_to 7965
  144.9304  139.4305  143.6498 LP  0  0  0  0  0  0  0  0  0  0  0  0  # atno 17321 bound_to 7965
  140.6124  143.2170  151.6860 LP  0  0  0  0  0  0  0  0  0  0  0  0  # atno 17342 bound_to 10162
  139.5082  144.3620  152.0553 LP  0  0  0  0  0  0  0  0  0  0  0  0  # atno 17343 bound_to 10162
  156.8009  130.4921  149.5370 LP  0  0  0  0  0  0  0  0  0  0  0  0  # atno 17370 bound_to 10713
  156.1187  130.6094  151.0160 LP  0  0  0  0  0  0  0  0  0  0  0  0  # atno 17371 bound_to 10713
  141.1479  133.6553  156.3924 LP  0  0  0  0  0  0  0  0  0  0  0  0  # atno 17394 bound_to 11000
  140.5102  134.6402  157.5281 LP  0  0  0  0  0  0  0  0  0  0  0  0  # atno 17395 bound_to 11000

$$$$
