AV-unprocessed.smi:937|AV-procd|sdf|4211|dock4
  -GOLD-   22720 2123D 1   1.00000     0.00000
 Structure written by MMmdl.
 45 46  0  0  0  0  0  0  0  0  1 V2000
  148.0269  130.3332  153.9698 C   0  0  0  0  0  0  0  0  0  0  0  0
  147.2892  131.2921  153.0593 C   0  0  0  0  0  0  0  0  0  0  0  0
  146.0840  130.9118  152.4323 C   0  0  0  0  0  0  0  0  0  0  0  0
  145.4423  131.8428  151.5933 C   0  0  0  0  0  0  0  0  0  0  0  0
  146.0273  133.1130  151.4132 C   0  0  0  0  0  0  0  0  0  0  0  0
  145.3714  134.1484  150.5209 C   0  0  0  0  0  0  0  0  0  0  0  0
  144.8889  135.3714  151.3119 C   0  0  0  0  0  0  0  0  0  0  0  0
  146.0215  136.1417  151.8051 N   0  0  0  0  0  0  0  0  0  0  0  0
  145.9190  137.2132  152.6075 C   0  0  0  0  0  0  0  0  0  0  0  0
  144.8444  137.6588  153.0056 O   0  0  0  0  0  0  0  0  0  0  0  0
  147.0914  137.7765  152.9524 N   0  0  0  0  0  0  0  0  0  0  0  0
  147.3264  138.9439  153.8048 C   0  0  2  0  0  0  0  0  0  0  0  0
  147.0675  140.2490  153.0247 C   0  0  0  0  0  0  0  0  0  0  0  0
  147.3936  141.4828  153.8780 C   0  0  0  0  0  0  0  0  0  0  0  0
  148.8386  141.4346  154.3975 C   0  0  0  0  0  0  0  0  0  0  0  0
  149.1137  140.1416  155.1938 C   0  0  2  0  0  0  0  0  0  0  0  0
  150.5588  140.0915  155.7320 C   0  0  0  0  0  0  0  0  0  0  0  0
  150.9340  141.2838  156.1965 F   0  0  0  0  0  0  0  0  0  0  0  0
  150.6489  139.1980  156.7172 F   0  0  0  0  0  0  0  0  0  0  0  0
  151.3952  139.7250  154.7608 F   0  0  0  0  0  0  0  0  0  0  0  0
  148.7742  138.9057  154.3320 C   0  0  0  0  0  0  0  0  0  0  0  0
  147.2349  133.3934  152.0867 C   0  0  0  0  0  0  0  0  0  0  0  0
  147.8579  132.5067  152.8927 N   0  0  0  0  0  0  0  0  0  0  0  0
  147.4402  129.4326  154.1530 H   0  0  0  0  0  0  0  0  0  0  0  0
  148.2354  130.8035  154.9312 H   0  0  0  0  0  0  0  0  0  0  0  0
  148.9740  130.0374  153.5182 H   0  0  0  0  0  0  0  0  0  0  0  0
  145.6590  129.9313  152.5886 H   0  0  0  0  0  0  0  0  0  0  0  0
  144.5171  131.5859  151.0986 H   0  0  0  0  0  0  0  0  0  0  0  0
  146.0770  134.4563  149.7477 H   0  0  0  0  0  0  0  0  0  0  0  0
  144.5317  133.6812  150.0043 H   0  0  0  0  0  0  0  0  0  0  0  0
  144.2657  136.0043  150.6775 H   0  0  0  0  0  0  0  0  0  0  0  0
  144.2753  135.0560  152.1573 H   0  0  0  0  0  0  0  0  0  0  0  0
  146.9428  135.8404  151.5228 H   0  0  0  0  0  0  0  0  0  0  0  0
  147.9200  137.3456  152.5681 H   0  0  0  0  0  0  0  0  0  0  0  0
  146.6587  138.9035  154.6673 H   0  0  0  0  0  0  0  0  0  0  0  0
  147.6764  140.2651  152.1195 H   0  0  0  0  0  0  0  0  0  0  0  0
  146.0286  140.2995  152.6974 H   0  0  0  0  0  0  0  0  0  0  0  0
  147.2397  142.3895  153.2925 H   0  0  0  0  0  0  0  0  0  0  0  0
  146.7028  141.5377  154.7202 H   0  0  0  0  0  0  0  0  0  0  0  0
  149.5285  141.5045  153.5557 H   0  0  0  0  0  0  0  0  0  0  0  0
  149.0268  142.3082  155.0221 H   0  0  0  0  0  0  0  0  0  0  0  0
  148.4459  140.1366  156.0568 H   0  0  0  0  0  0  0  0  0  0  0  0
  148.9229  137.9969  154.9162 H   0  0  0  0  0  0  0  0  0  0  0  0
  149.4687  138.8468  153.4925 H   0  0  0  0  0  0  0  0  0  0  0  0
  147.7157  134.3544  151.9781 H   0  0  0  0  0  0  0  0  0  0  0  0
  1  2  1  0  0  0  0
  1 24  1  0  0  0  0
  1 25  1  0  0  0  0
  1 26  1  0  0  0  0
  2 23  1  0  0  0  0
  2  3  2  0  0  0  0
  3  4  1  0  0  0  0
  3 27  1  0  0  0  0
  4  5  2  0  0  0  0
  4 28  1  0  0  0  0
  5  6  1  0  0  0  0
  5 22  1  0  0  0  0
  6  7  1  0  0  0  0
  6 29  1  0  0  0  0
  6 30  1  0  0  0  0
  7  8  1  0  0  0  0
  7 31  1  0  0  0  0
  7 32  1  0  0  0  0
  8  9  1  0  0  0  0
  8 33  1  0  0  0  0
  9 10  2  0  0  0  0
  9 11  1  0  0  0  0
 11 12  1  0  0  0  0
 11 34  1  0  0  0  0
 12 21  1  0  0  0  0
 12 13  1  0  0  0  0
 12 35  1  0  0  0  0
 13 14  1  0  0  0  0
 13 36  1  0  0  0  0
 13 37  1  0  0  0  0
 14 15  1  0  0  0  0
 14 38  1  0  0  0  0
 14 39  1  0  0  0  0
 15 16  1  0  0  0  0
 15 40  1  0  0  0  0
 15 41  1  0  0  0  0
 16 17  1  0  0  0  0
 16 21  1  0  0  0  0
 16 42  1  0  0  0  0
 17 18  1  0  0  0  0
 17 19  1  0  0  0  0
 17 20  1  0  0  0  0
 21 43  1  0  0  0  0
 21 44  1  0  0  0  0
 22 23  2  0  0  0  0
 22 45  1  0  0  0  0
M  END
> <s_m_source_file>
AV-unprocessed.smi

> <i_m_source_file_index>
937

> <i_lp_mmshare_version>
43012

> <i_f3d_flags>
0

> <s_epik_input>
W0NIM11jMVtjSF1bY0hdYyhbY0hdbjEpW0NIMl1bQ0gyXVtOSF1DKD1PKVtOSF1bQ0BASF0yW0NIMl1bQ0gyXVtDSDJdW0NAQEhdKEMoRikoRilGKVtDSDJdMg==

> <s_epik_cmdline>
J2VwaWtfcHl0aG9uJywgJy1waCcsICc3LjAnLCAnLXRuJywgJzgnLCAnLW1hJywgJzIwMCcsICctbWV0YWxfYmluZGluZycsICctaW1hZScsICc8aW5maWxlLm1hZT4nLCAnLW9tYWUnLCAnPG91dGZpbGUubWFlPic=

> <r_epik_Ionization_Penalty>
0.0563445

> <r_epik_Ionization_Penalty_Charging>
0

> <r_epik_Ionization_Penalty_Neutral>
0.0563445

> <r_epik_State_Penalty>
0.0485409

> <r_epik_Charging_Adjusted_Penalty>
0.0485409

> <i_epik_Tot_Q>
0

> <i_epik_Tot_abs_Q>
0

> <r_epik_Metal_State_Penalty>
0.0443056

> <b_epik_Metal_Only>
0

> <s_lp_Force_Field>
OPLS_2005

> <r_lp_Energy>
18.9934

> <b_lp_Chiralities_Consistent>
1

> <s_lp_Variant>
AV-unprocessed.smi:937-3

> <Gold.Version>
5.8.1

> <Gold.Id.Protein>
6NUR|6NUR_protein|mol2

> <Gold.PLP.Fitness>
46.3269

> <Gold.PLP.PLP>
-39.2278

> <Gold.PLP.part.hbond>
-2.0000

> <Gold.PLP.part.metal>
0.0000

> <Gold.PLP.part.buried>
-0.9994

> <Gold.PLP.part.nonpolar>
-37.4661

> <Gold.PLP.part.repulsive>
0.8914

> <Gold.PLP.ligand.clash>
0.0000

> <Gold.PLP.ligand.torsion>
0.7527

> <Gold.PLP.Chemscore.Hbond>
1.8480

> <Gold.PLP.Chemscore.CHOScore>
1.0000

> <Gold.PLP.Chemscore.Metal>
0.0000

> <Gold.Chemscore.Hbonds>
donor molecule, donor type, donor heavy atom, donor atom, acceptor molecule, acceptor atom, score
      L1  H     8    33       P1  7948  0.84
      L1  H    11    34       P1  7948  1.00
      L1  C    22    45       P1  7948  1.00

> <Gold.PLP.Chemscore.Internal.Correction>
0.0604

> <Gold.Rescore>
     Score         DG    S(hbond)    S(metal)    S(lipo)     H(rot)  DE(clash)    DE(int)     intcor
     16.52     -18.52       1.92        0.00      91.36       1.58       1.56       0.44       ----

> <Gold.Chemscore.Fitness>
16.5178

> <Gold.Chemscore.DG>
-18.5186

> <Gold.Chemscore.ZeroCoef>
-5.4800

> <Gold.Chemscore.Hbond>
1.9183

> <Gold.Chemscore.Metal>
0.0000

> <Gold.Chemscore.Lipo>
91.3573

> <Gold.Chemscore.Internal_Hbond>
0.0000

> <Gold.Chemscore.DEClash>
1.5631

> <Gold.Chemscore.DEInternal>
0.4377

> <Gold.Chemscore.Rot>
1.5849

> <Gold.Chemscore.Internal.Correction>
   9.000000E+99

> <Gold.Chemscore.Hbonds>
donor molecule, donor type, donor heavy atom, donor atom, acceptor molecule, acceptor atom, score
      L1  H     8    33       P1  7948  0.78
      L1  H    11    34       P1  7948  1.00

> <Gold.Chemscore.Hbond.Weighted>
-6.4072

> <Gold.Chemscore.Metal.Weighted>
-0.0000

> <Gold.Chemscore.Lipo.Weighted>
-10.6888

> <Gold.Chemscore.Internal_Hbond.Weighted>
0.0000

> <Gold.Chemscore.DEClash.Weighted>
1.5631

> <Gold.Chemscore.DEInternal.Weighted>
0.4377

> <Gold.Chemscore.Rot.Weighted>
4.0574

> <Gold.Chemscore.Internal.Correction.Weighted>
   9.000000E+99

> <Gold.Protein.RotatedTorsions>
[ 6907 6896 6895 6894 ] final  -26.43 input  -60.11 | X-H torsion
[ 7974 7965 7964 7962 ] final    3.31 input  175.53 | X-H torsion
[ 8008 7997 7996 7995 ] final   16.18 input   59.86 | X-H torsion
[ 10167 10162 10161 10158 ] final   42.62 input  -65.29 | X-H torsion
[ 10718 10713 10712 10709 ] final   71.47 input   66.30 | X-H torsion
[ 10763 10752 10751 10750 ] final   17.11 input  -60.55 | X-H torsion
[ 11005 11000 10999 10996 ] final   40.57 input  -57.11 | X-H torsion

> <Gold.Protein.ActiveResidues>
 VAL166  LYS551  ARG553  GLY616  TRP617  ASP618  TYR619  PRO620  LYS621  CYS622 
 ASP623  PHE694  ASN695  SER759  ASP760  ASP761  ALA762  ILE779  LEU786  VAL792 
 PHE793  MET794  SER795  GLU796  ALA797  LYS798  CYS799  TRP800  GLU811  SER814 

> <Gold.Protein.RotatedAtoms>
  151.1610  135.0273  159.8709 H   0  0  0  0  0  0  0  0  0  0  0  0  # atno 6907 bound_to 6896
  152.5451  134.1279  159.8437 H   0  0  0  0  0  0  0  0  0  0  0  0  # atno 6908 bound_to 6896
  151.1374  133.4948  159.2630 H   0  0  0  0  0  0  0  0  0  0  0  0  # atno 6909 bound_to 6896
  146.2445  140.0704  142.8363 H   0  0  0  0  0  0  0  0  0  0  0  0  # atno 7974 bound_to 7965
  154.8733  140.2962  155.5468 H   0  0  0  0  0  0  0  0  0  0  0  0  # atno 8008 bound_to 7997
  156.3021  140.2456  156.3658 H   0  0  0  0  0  0  0  0  0  0  0  0  # atno 8009 bound_to 7997
  154.8794  140.0398  157.1762 H   0  0  0  0  0  0  0  0  0  0  0  0  # atno 8010 bound_to 7997
  140.3525  144.2332  150.6144 H   0  0  0  0  0  0  0  0  0  0  0  0  # atno 10167 bound_to 10162
  157.6453  130.9530  150.0793 H   0  0  0  0  0  0  0  0  0  0  0  0  # atno 10718 bound_to 10713
  153.1368  135.6752  153.9089 H   0  0  0  0  0  0  0  0  0  0  0  0  # atno 10763 bound_to 10752
  153.8558  135.3087  155.3436 H   0  0  0  0  0  0  0  0  0  0  0  0  # atno 10764 bound_to 10752
  154.7755  135.4917  153.9817 H   0  0  0  0  0  0  0  0  0  0  0  0  # atno 10765 bound_to 10752
  140.1918  134.3978  155.8142 H   0  0  0  0  0  0  0  0  0  0  0  0  # atno 11005 bound_to 11000
  145.0821  140.9228  143.4819 LP  0  0  0  0  0  0  0  0  0  0  0  0  # atno 17320 bound_to 7965
  145.0859  139.2925  143.5759 LP  0  0  0  0  0  0  0  0  0  0  0  0  # atno 17321 bound_to 7965
  140.5205  143.2267  151.8396 LP  0  0  0  0  0  0  0  0  0  0  0  0  # atno 17342 bound_to 10162
  139.4824  144.4842  151.9268 LP  0  0  0  0  0  0  0  0  0  0  0  0  # atno 17343 bound_to 10162
  156.1774  130.3648  149.9081 LP  0  0  0  0  0  0  0  0  0  0  0  0  # atno 17370 bound_to 10713
  156.7042  130.8945  151.3602 LP  0  0  0  0  0  0  0  0  0  0  0  0  # atno 17371 bound_to 10713
  141.2226  133.7050  156.8108 LP  0  0  0  0  0  0  0  0  0  0  0  0  # atno 17394 bound_to 11000
  140.2151  134.8798  157.3317 LP  0  0  0  0  0  0  0  0  0  0  0  0  # atno 17395 bound_to 11000

$$$$
