AV-unprocessed.smi:2347|AV-procd|sdf|9369|dock1
  -GOLD-   2272012593D 1   1.00000     0.00000
 Structure written by MMmdl.
 41 43  0  0  0  0  0  0  0  0  1 V2000
  149.8892  134.4250  156.0437 O   0  0  0  0  0  0  0  0  0  0  0  0
  149.7464  134.9544  154.9415 C   0  0  0  0  0  0  0  0  0  0  0  0
  150.1765  136.1846  154.6113 N   0  0  0  0  0  0  0  0  0  0  0  0
  150.8987  137.1097  155.4128 C   0  0  0  0  0  0  0  0  0  0  0  0
  151.7978  138.0736  154.8981 C   0  0  0  0  0  0  0  0  0  0  0  0
  152.4402  138.9505  155.7924 C   0  0  0  0  0  0  0  0  0  0  0  0
  152.1670  138.8364  157.1742 C   0  0  0  0  0  0  0  0  0  0  0  0
  152.8155  139.7645  158.1602 C   0  0  0  0  0  0  0  0  0  0  0  0
  153.9781  139.5396  158.4993 O   0  0  0  0  0  0  0  0  0  0  0  0
  152.0936  140.8114  158.6358 N   0  0  0  0  0  0  0  0  0  0  0  0
  150.7594  141.1444  158.1169 C   0  0  0  0  0  0  0  0  0  0  0  0
  150.8054  142.5387  157.4655 C   0  0  0  0  0  0  0  0  0  0  0  0
  151.3133  143.5971  158.4612 C   0  0  0  0  0  0  0  0  0  0  0  0
  152.6286  143.1576  159.1297 C   0  0  0  0  0  0  0  0  0  0  0  0
  152.5033  141.7350  159.7057 C   0  0  0  0  0  0  0  0  0  0  0  0
  151.2881  137.9357  157.6679 N   0  0  0  0  0  0  0  0  0  0  0  0
  150.6741  137.0993  156.8048 C   0  0  0  0  0  0  0  0  0  0  0  0
  149.1145  134.3705  153.9140 N   0  0  0  0  0  0  0  0  0  0  0  0
  148.5194  133.0731  153.9381 C   0  0  0  0  0  0  0  0  0  0  0  0
  149.2511  131.9484  153.2382 C   0  0  0  0  0  0  0  0  0  0  0  0
  147.9976  132.5153  152.6313 C   0  0  0  0  0  0  0  0  0  0  0  0
  149.9056  136.5209  153.6988 H   0  0  0  0  0  0  0  0  0  0  0  0
  151.9927  138.1693  153.8412 H   0  0  0  0  0  0  0  0  0  0  0  0
  153.1235  139.6997  155.4206 H   0  0  0  0  0  0  0  0  0  0  0  0
  150.3912  140.4188  157.3907 H   0  0  0  0  0  0  0  0  0  0  0  0
  150.0404  141.1354  158.9374 H   0  0  0  0  0  0  0  0  0  0  0  0
  151.4614  142.5118  156.5944 H   0  0  0  0  0  0  0  0  0  0  0  0
  149.8162  142.8151  157.0998 H   0  0  0  0  0  0  0  0  0  0  0  0
  151.4462  144.5557  157.9589 H   0  0  0  0  0  0  0  0  0  0  0  0
  150.5568  143.7541  159.2312 H   0  0  0  0  0  0  0  0  0  0  0  0
  153.4371  143.1892  158.3988 H   0  0  0  0  0  0  0  0  0  0  0  0
  152.8978  143.8599  159.9192 H   0  0  0  0  0  0  0  0  0  0  0  0
  151.7454  141.7220  160.4903 H   0  0  0  0  0  0  0  0  0  0  0  0
  153.4293  141.4485  160.2025 H   0  0  0  0  0  0  0  0  0  0  0  0
  149.9830  136.3940  157.2436 H   0  0  0  0  0  0  0  0  0  0  0  0
  149.0428  134.8846  153.0482 H   0  0  0  0  0  0  0  0  0  0  0  0
  147.9574  132.7973  154.8295 H   0  0  0  0  0  0  0  0  0  0  0  0
  150.1951  132.1808  152.7487 H   0  0  0  0  0  0  0  0  0  0  0  0
  149.1904  130.9579  153.6848 H   0  0  0  0  0  0  0  0  0  0  0  0
  147.0994  131.9025  152.6701 H   0  0  0  0  0  0  0  0  0  0  0  0
  148.1063  133.1246  151.7358 H   0  0  0  0  0  0  0  0  0  0  0  0
  1  2  2  0  0  0  0
  2  3  1  0  0  0  0
  2 18  1  0  0  0  0
  3  4  1  0  0  0  0
  3 22  1  0  0  0  0
  4 17  1  0  0  0  0
  4  5  2  0  0  0  0
  5  6  1  0  0  0  0
  5 23  1  0  0  0  0
  6  7  2  0  0  0  0
  6 24  1  0  0  0  0
  7  8  1  0  0  0  0
  7 16  1  0  0  0  0
  8  9  2  0  0  0  0
  8 10  1  0  0  0  0
 10 15  1  0  0  0  0
 10 11  1  0  0  0  0
 11 12  1  0  0  0  0
 11 25  1  0  0  0  0
 11 26  1  0  0  0  0
 12 13  1  0  0  0  0
 12 27  1  0  0  0  0
 12 28  1  0  0  0  0
 13 14  1  0  0  0  0
 13 29  1  0  0  0  0
 13 30  1  0  0  0  0
 14 15  1  0  0  0  0
 14 31  1  0  0  0  0
 14 32  1  0  0  0  0
 15 33  1  0  0  0  0
 15 34  1  0  0  0  0
 16 17  2  0  0  0  0
 17 35  1  0  0  0  0
 18 19  1  0  0  0  0
 18 36  1  0  0  0  0
 19 21  1  0  0  0  0
 19 20  1  0  0  0  0
 19 37  1  0  0  0  0
 20 21  1  0  0  0  0
 20 38  1  0  0  0  0
 20 39  1  0  0  0  0
 21 40  1  0  0  0  0
 21 41  1  0  0  0  0
M  END
> <s_m_source_file>
AV-unprocessed.smi

> <i_m_source_file_index>
2347

> <i_lp_mmshare_version>
43012

> <i_f3d_flags>
0

> <s_epik_input>
W0NIMl0xW0NIMl1bQ0hdMVtOSF1DKD1PKVtOSF1jMltjSF1bY0hdYyhuW2NIXTIpQyg9TylOM1tDSDJdW0NIMl1bQ0gyXVtDSDJdW0NIMl0z

> <s_epik_cmdline>
J2VwaWtfcHl0aG9uJywgJy1waCcsICc3LjAnLCAnLXRuJywgJzgnLCAnLW1hJywgJzIwMCcsICctbWV0YWxfYmluZGluZycsICctaW1hZScsICc8aW5maWxlLm1hZT4nLCAnLW9tYWUnLCAnPG91dGZpbGUubWFlPic=

> <r_lp_tautomer_probability>
1

> <r_epik_Ionization_Penalty>
4.62416e-05

> <r_epik_Ionization_Penalty_Charging>
0

> <r_epik_Ionization_Penalty_Neutral>
4.62416e-05

> <r_epik_State_Penalty>
-0

> <r_epik_Charging_Adjusted_Penalty>
0

> <i_epik_Tot_Q>
0

> <i_epik_Tot_abs_Q>
0

> <r_epik_Metal_State_Penalty>
-0

> <b_epik_Metal_Only>
0

> <s_lp_Force_Field>
OPLS_2005

> <r_lp_Energy>
48.3228

> <b_lp_Chiralities_Consistent>
1

> <s_lp_Variant>
AV-unprocessed.smi:2347-1

> <Gold.Version>
5.8.1

> <Gold.Id.Protein>
6NUR|6NUR_protein|mol2

> <Gold.PLP.Fitness>
44.1652

> <Gold.PLP.PLP>
-37.5320

> <Gold.PLP.part.hbond>
-3.0000

> <Gold.PLP.part.metal>
0.0000

> <Gold.PLP.part.buried>
-3.4197

> <Gold.PLP.part.nonpolar>
-32.1947

> <Gold.PLP.part.repulsive>
0.0732

> <Gold.PLP.ligand.clash>
0.0000

> <Gold.PLP.ligand.torsion>
1.7688

> <Gold.PLP.Chemscore.Hbond>
2.9913

> <Gold.PLP.Chemscore.CHOScore>
0.0000

> <Gold.PLP.Chemscore.Metal>
0.0000

> <Gold.Chemscore.Hbonds>
donor molecule, donor type, donor heavy atom, donor atom, acceptor molecule, acceptor atom, score
      L1  H     3    22       P1  7948  0.96
      L1  H    18    36       P1  7948  0.70
      P1  H  7997  8009       L1     9  1.00

> <Gold.PLP.Chemscore.Internal.Correction>
1.1970

> <Gold.Rescore>
     Score         DG    S(hbond)    S(metal)    S(lipo)     H(rot)  DE(clash)    DE(int)     intcor
     18.85     -21.79       2.63        0.00      86.17       1.00       0.03       2.91       ----

> <Gold.Chemscore.Fitness>
18.8491

> <Gold.Chemscore.DG>
-21.7861

> <Gold.Chemscore.ZeroCoef>
-5.4800

> <Gold.Chemscore.Hbond>
2.6299

> <Gold.Chemscore.Metal>
0.0000

> <Gold.Chemscore.Lipo>
86.1724

> <Gold.Chemscore.Internal_Hbond>
0.0000

> <Gold.Chemscore.DEClash>
0.0270

> <Gold.Chemscore.DEInternal>
2.9099

> <Gold.Chemscore.Rot>
1.0000

> <Gold.Chemscore.Internal.Correction>
   9.000000E+99

> <Gold.Chemscore.Hbonds>
donor molecule, donor type, donor heavy atom, donor atom, acceptor molecule, acceptor atom, score
      L1  H     3    22       P1  7948  0.26
      L1  H    18    36       P1  7948  0.07
      P1  H  7997  8009       L1     9  0.69

> <Gold.Chemscore.Hbond.Weighted>
-8.7839

> <Gold.Chemscore.Metal.Weighted>
-0.0000

> <Gold.Chemscore.Lipo.Weighted>
-10.0822

> <Gold.Chemscore.Internal_Hbond.Weighted>
0.0000

> <Gold.Chemscore.DEClash.Weighted>
0.0270

> <Gold.Chemscore.DEInternal.Weighted>
2.9099

> <Gold.Chemscore.Rot.Weighted>
2.5600

> <Gold.Chemscore.Internal.Correction.Weighted>
   9.000000E+99

> <Gold.Protein.RotatedTorsions>
[ 6907 6896 6895 6894 ] final  109.94 input  -60.11 | X-H torsion
[ 7974 7965 7964 7962 ] final  161.32 input  175.53 | X-H torsion
[ 8008 7997 7996 7995 ] final  125.96 input   59.86 | X-H torsion
[ 10167 10162 10161 10158 ] final   13.02 input  -65.29 | X-H torsion
[ 10718 10713 10712 10709 ] final  -68.02 input   66.30 | X-H torsion
[ 10763 10752 10751 10750 ] final  -73.84 input  -60.55 | X-H torsion
[ 11005 11000 10999 10996 ] final -142.54 input  -57.11 | X-H torsion

> <Gold.Protein.ActiveResidues>
 VAL166  LYS551  ARG553  GLY616  TRP617  ASP618  TYR619  PRO620  LYS621  CYS622 
 ASP623  PHE694  ASN695  SER759  ASP760  ASP761  ALA762  ILE779  LEU786  VAL792 
 PHE793  MET794  SER795  GLU796  ALA797  LYS798  CYS799  TRP800  GLU811  SER814 

> <Gold.Protein.RotatedAtoms>
  152.5043  133.8872  159.7375 H   0  0  0  0  0  0  0  0  0  0  0  0  # atno 6907 bound_to 6896
  150.9319  133.6747  159.2815 H   0  0  0  0  0  0  0  0  0  0  0  0  # atno 6908 bound_to 6896
  151.4089  135.0987  159.9631 H   0  0  0  0  0  0  0  0  0  0  0  0  # atno 6909 bound_to 6896
  144.7692  139.7881  143.6303 H   0  0  0  0  0  0  0  0  0  0  0  0  # atno 7974 bound_to 7965
  156.2850  140.2704  156.2033 H   0  0  0  0  0  0  0  0  0  0  0  0  # atno 8008 bound_to 7997
  155.0339  140.0386  157.2502 H   0  0  0  0  0  0  0  0  0  0  0  0  # atno 8009 bound_to 7997
  154.7331  140.2710  155.6443 H   0  0  0  0  0  0  0  0  0  0  0  0  # atno 8010 bound_to 7997
  140.6030  143.8566  150.6984 H   0  0  0  0  0  0  0  0  0  0  0  0  # atno 10167 bound_to 10162
  156.0527  130.4288  150.1940 H   0  0  0  0  0  0  0  0  0  0  0  0  # atno 10718 bound_to 10713
  154.4650  135.5884  153.6281 H   0  0  0  0  0  0  0  0  0  0  0  0  # atno 10763 bound_to 10752
  152.9827  135.6053  154.3439 H   0  0  0  0  0  0  0  0  0  0  0  0  # atno 10764 bound_to 10752
  154.3315  135.2842  155.2448 H   0  0  0  0  0  0  0  0  0  0  0  0  # atno 10765 bound_to 10752
  140.8215  134.2625  157.4898 H   0  0  0  0  0  0  0  0  0  0  0  0  # atno 11005 bound_to 11000
  146.1824  139.5024  142.9857 LP  0  0  0  0  0  0  0  0  0  0  0  0  # atno 17320 bound_to 7965
  145.6376  141.0291  143.1829 LP  0  0  0  0  0  0  0  0  0  0  0  0  # atno 17321 bound_to 7965
  140.2117  143.3878  152.1713 LP  0  0  0  0  0  0  0  0  0  0  0  0  # atno 17342 bound_to 10162
  139.5304  144.7152  151.5076 LP  0  0  0  0  0  0  0  0  0  0  0  0  # atno 17343 bound_to 10162
  157.0021  130.9925  151.3388 LP  0  0  0  0  0  0  0  0  0  0  0  0  # atno 17370 bound_to 10713
  157.5468  130.8156  149.8095 LP  0  0  0  0  0  0  0  0  0  0  0  0  # atno 17371 bound_to 10713
  139.8708  134.9538  156.4155 LP  0  0  0  0  0  0  0  0  0  0  0  0  # atno 17394 bound_to 11000
  140.9094  133.7722  155.9773 LP  0  0  0  0  0  0  0  0  0  0  0  0  # atno 17395 bound_to 11000

$$$$
