AV-unprocessed.smi:2133|AV-procd|sdf|8693|dock2
  -GOLD-   2272011453D 1   1.00000     0.00000
 Structure written by MMmdl.
 45 47  0  0  0  0  0  0  0  0  1 V2000
  154.3447  138.3403  159.7196 C   0  0  0  0  0  0  0  0  0  0  0  0
  153.4842  139.4998  159.4199 N   0  0  0  0  0  0  0  0  0  0  0  0
  152.5240  139.3620  158.4522 C   0  0  0  0  0  0  0  0  0  0  0  0
  152.3061  138.3302  157.8163 O   0  0  0  0  0  0  0  0  0  0  0  0
  151.7419  140.5786  158.2152 C   0  0  0  0  0  0  0  0  0  0  0  0
  151.9227  141.7231  158.9188 C   0  0  0  0  0  0  0  0  0  0  0  0
  151.0469  142.7177  158.4978 N   0  0  0  0  0  0  0  0  0  0  0  0
  150.3646  142.0982  157.5345 C   0  0  0  0  0  0  0  0  0  0  0  0
  150.7274  140.8220  157.2917 N   0  0  0  0  0  0  0  0  0  0  0  0
  150.1564  139.9408  156.2836 C   0  0  0  0  0  0  0  0  0  0  0  0
  149.7146  140.6829  155.0025 C   0  0  1  0  0  0  0  0  0  0  0  0
  150.4725  140.2348  153.8983 O   0  0  0  0  0  0  0  0  0  0  0  0
  148.2136  140.5967  154.6681 C   0  0  0  0  0  0  0  0  0  0  0  0
  147.6113  141.8773  154.7668 O   0  0  0  0  0  0  0  0  0  0  0  0
  146.6919  142.1329  153.7190 C   0  0  0  0  0  0  0  0  0  0  0  0
  145.6439  143.1417  154.1406 C   0  0  0  0  0  0  0  0  0  0  0  0
  145.0895  144.0284  153.1939 C   0  0  0  0  0  0  0  0  0  0  0  0
  144.1144  144.9649  153.5890 C   0  0  0  0  0  0  0  0  0  0  0  0
  143.6878  145.0149  154.9304 C   0  0  0  0  0  0  0  0  0  0  0  0
  144.2381  144.1296  155.8775 C   0  0  0  0  0  0  0  0  0  0  0  0
  145.2154  143.1950  155.4835 C   0  0  0  0  0  0  0  0  0  0  0  0
  152.9234  141.7470  159.9241 N   0  0  0  0  0  0  0  0  0  0  0  0
  153.1266  142.9798  160.6906 C   0  0  0  0  0  0  0  0  0  0  0  0
  153.7129  140.6484  160.1585 C   0  0  0  0  0  0  0  0  0  0  0  0
  154.6049  140.6919  161.0107 O   0  0  0  0  0  0  0  0  0  0  0  0
  154.1973  137.4796  159.0663 H   0  0  0  0  0  0  0  0  0  0  0  0
  154.1696  137.9956  160.7398 H   0  0  0  0  0  0  0  0  0  0  0  0
  155.3988  138.6094  159.6327 H   0  0  0  0  0  0  0  0  0  0  0  0
  149.5826  142.5929  156.9770 H   0  0  0  0  0  0  0  0  0  0  0  0
  150.8773  139.1575  156.0479 H   0  0  0  0  0  0  0  0  0  0  0  0
  149.2975  139.4374  156.7301 H   0  0  0  0  0  0  0  0  0  0  0  0
  149.9561  141.7397  155.1140 H   0  0  0  0  0  0  0  0  0  0  0  0
  149.9091  140.2016  153.1404 H   0  0  0  0  0  0  0  0  0  0  0  0
  148.1004  140.2283  153.6470 H   0  0  0  0  0  0  0  0  0  0  0  0
  147.7092  139.8813  155.3197 H   0  0  0  0  0  0  0  0  0  0  0  0
  147.2189  142.5209  152.8456 H   0  0  0  0  0  0  0  0  0  0  0  0
  146.2054  141.2049  153.4143 H   0  0  0  0  0  0  0  0  0  0  0  0
  145.4101  143.9927  152.1630 H   0  0  0  0  0  0  0  0  0  0  0  0
  143.6930  145.6441  152.8627 H   0  0  0  0  0  0  0  0  0  0  0  0
  142.9389  145.7323  155.2326 H   0  0  0  0  0  0  0  0  0  0  0  0
  143.9110  144.1678  156.9061 H   0  0  0  0  0  0  0  0  0  0  0  0
  145.6352  142.5194  156.2144 H   0  0  0  0  0  0  0  0  0  0  0  0
  153.2317  142.7732  161.7569 H   0  0  0  0  0  0  0  0  0  0  0  0
  152.2932  143.6745  160.5874 H   0  0  0  0  0  0  0  0  0  0  0  0
  154.0286  143.4900  160.3510 H   0  0  0  0  0  0  0  0  0  0  0  0
  1  2  1  0  0  0  0
  1 26  1  0  0  0  0
  1 27  1  0  0  0  0
  1 28  1  0  0  0  0
  2 24  1  0  0  0  0
  2  3  1  0  0  0  0
  3  4  2  0  0  0  0
  3  5  1  0  0  0  0
  5  9  1  0  0  0  0
  5  6  2  0  0  0  0
  6  7  1  0  0  0  0
  6 22  1  0  0  0  0
  7  8  2  0  0  0  0
  8  9  1  0  0  0  0
  8 29  1  0  0  0  0
  9 10  1  0  0  0  0
 10 11  1  0  0  0  0
 10 30  1  0  0  0  0
 10 31  1  0  0  0  0
 11 12  1  0  0  0  0
 11 13  1  0  0  0  0
 11 32  1  0  0  0  0
 12 33  1  0  0  0  0
 13 14  1  0  0  0  0
 13 34  1  0  0  0  0
 13 35  1  0  0  0  0
 14 15  1  0  0  0  0
 15 16  1  0  0  0  0
 15 36  1  0  0  0  0
 15 37  1  0  0  0  0
 16 21  1  0  0  0  0
 16 17  2  0  0  0  0
 17 18  1  0  0  0  0
 17 38  1  0  0  0  0
 18 19  2  0  0  0  0
 18 39  1  0  0  0  0
 19 20  1  0  0  0  0
 19 40  1  0  0  0  0
 20 21  2  0  0  0  0
 20 41  1  0  0  0  0
 21 42  1  0  0  0  0
 22 23  1  0  0  0  0
 22 24  1  0  0  0  0
 23 43  1  0  0  0  0
 23 44  1  0  0  0  0
 23 45  1  0  0  0  0
 24 25  2  0  0  0  0
M  END
> <s_m_source_file>
AV-unprocessed.smi

> <i_m_source_file_index>
2133

> <i_lp_mmshare_version>
43012

> <i_f3d_flags>
0

> <s_epik_input>
Tz1jMW4oW0NIM10pYyg9TyluKFtDSDNdKWMoYzEyKW5bY0hdbjJbQ0gyXVtDQEhdKFtPSF0pW0NIMl1PW0NIMl1jM1tjSF1bY0hdW2NIXVtjSF1bY0hdMw==

> <s_epik_cmdline>
J2VwaWtfcHl0aG9uJywgJy1waCcsICc3LjAnLCAnLXRuJywgJzgnLCAnLW1hJywgJzIwMCcsICctbWV0YWxfYmluZGluZycsICctaW1hZScsICc8aW5maWxlLm1hZT4nLCAnLW9tYWUnLCAnPG91dGZpbGUubWFlPic=

> <r_lp_tautomer_probability>
1

> <r_epik_Ionization_Penalty>
1.52174e-06

> <r_epik_Ionization_Penalty_Charging>
3.83535e-09

> <r_epik_Ionization_Penalty_Neutral>
1.5179e-06

> <r_epik_State_Penalty>
-0

> <r_epik_Charging_Adjusted_Penalty>
3.83535e-09

> <i_epik_Tot_Q>
0

> <i_epik_Tot_abs_Q>
0

> <r_epik_Metal_State_Penalty>
-0

> <b_epik_Metal_Only>
0

> <s_lp_Force_Field>
OPLS_2005

> <r_lp_Energy>
39.5783

> <b_lp_Chiralities_Consistent>
1

> <s_lp_Variant>
AV-unprocessed.smi:2133-2

> <Gold.Version>
5.8.1

> <Gold.Id.Protein>
6NUR|6NUR_protein|mol2

> <Gold.PLP.Fitness>
52.6866

> <Gold.PLP.PLP>
-48.7633

> <Gold.PLP.part.hbond>
-1.7255

> <Gold.PLP.part.metal>
0.0000

> <Gold.PLP.part.buried>
-8.3436

> <Gold.PLP.part.nonpolar>
-39.3232

> <Gold.PLP.part.repulsive>
0.3167

> <Gold.PLP.ligand.clash>
0.0000

> <Gold.PLP.ligand.torsion>
2.6593

> <Gold.PLP.Chemscore.Hbond>
1.9673

> <Gold.PLP.Chemscore.CHOScore>
1.0000

> <Gold.PLP.Chemscore.Metal>
0.0000

> <Gold.Chemscore.Hbonds>
donor molecule, donor type, donor heavy atom, donor atom, acceptor molecule, acceptor atom, score
      L1  H    12    33       P1  7957  1.00
      P1  H  7989  7998       L1    12  0.57
      L1  C     8    29       P1  8028  0.84

> <Gold.PLP.Chemscore.Internal.Correction>
0.3401

> <Gold.Rescore>
     Score         DG    S(hbond)    S(metal)    S(lipo)     H(rot)  DE(clash)    DE(int)     intcor
     10.31     -12.80       1.51        0.00      83.09       2.91       0.00       2.49       ----

> <Gold.Chemscore.Fitness>
10.3075

> <Gold.Chemscore.DG>
-12.7990

> <Gold.Chemscore.ZeroCoef>
-5.4800

> <Gold.Chemscore.Hbond>
1.5136

> <Gold.Chemscore.Metal>
0.0000

> <Gold.Chemscore.Lipo>
83.0873

> <Gold.Chemscore.Internal_Hbond>
0.0000

> <Gold.Chemscore.DEClash>
0.0037

> <Gold.Chemscore.DEInternal>
2.4877

> <Gold.Chemscore.Rot>
2.9132

> <Gold.Chemscore.Internal.Correction>
   9.000000E+99

> <Gold.Chemscore.Hbonds>
donor molecule, donor type, donor heavy atom, donor atom, acceptor molecule, acceptor atom, score
      L1  H    12    33       P1  7957  0.92
      P1  H  7989  7998       L1    12  0.27

> <Gold.Chemscore.Hbond.Weighted>
-5.0556

> <Gold.Chemscore.Metal.Weighted>
-0.0000

> <Gold.Chemscore.Lipo.Weighted>
-9.7212

> <Gold.Chemscore.Internal_Hbond.Weighted>
0.0000

> <Gold.Chemscore.DEClash.Weighted>
0.0037

> <Gold.Chemscore.DEInternal.Weighted>
2.4877

> <Gold.Chemscore.Rot.Weighted>
7.4578

> <Gold.Chemscore.Internal.Correction.Weighted>
   9.000000E+99

> <Gold.Protein.RotatedTorsions>
[ 6907 6896 6895 6894 ] final  172.73 input  -60.11 | X-H torsion
[ 7974 7965 7964 7962 ] final  122.78 input  175.53 | X-H torsion
[ 8008 7997 7996 7995 ] final   89.71 input   59.86 | X-H torsion
[ 10167 10162 10161 10158 ] final   23.36 input  -65.29 | X-H torsion
[ 10718 10713 10712 10709 ] final  -17.01 input   66.30 | X-H torsion
[ 10763 10752 10751 10750 ] final   83.47 input  -60.55 | X-H torsion
[ 11005 11000 10999 10996 ] final  177.45 input  -57.11 | X-H torsion

> <Gold.Protein.ActiveResidues>
 VAL166  LYS551  ARG553  GLY616  TRP617  ASP618  TYR619  PRO620  LYS621  CYS622 
 ASP623  PHE694  ASN695  SER759  ASP760  ASP761  ALA762  ILE779  LEU786  VAL792 
 PHE793  MET794  SER795  GLU796  ALA797  LYS798  CYS799  TRP800  GLU811  SER814 

> <Gold.Protein.RotatedAtoms>
  151.7796  133.3348  159.3467 H   0  0  0  0  0  0  0  0  0  0  0  0  # atno 6907 bound_to 6896
  150.7431  134.5943  159.6013 H   0  0  0  0  0  0  0  0  0  0  0  0  # atno 6908 bound_to 6896
  152.3285  134.7291  160.0347 H   0  0  0  0  0  0  0  0  0  0  0  0  # atno 6909 bound_to 6896
  145.1036  139.3501  143.4799 H   0  0  0  0  0  0  0  0  0  0  0  0  # atno 7974 bound_to 7965
  156.0032  140.3357  155.6866 H   0  0  0  0  0  0  0  0  0  0  0  0  # atno 8008 bound_to 7997
  155.6261  140.0680  157.2681 H   0  0  0  0  0  0  0  0  0  0  0  0  # atno 8009 bound_to 7997
  154.4256  140.1768  156.1410 H   0  0  0  0  0  0  0  0  0  0  0  0  # atno 8010 bound_to 7997
  140.5275  143.9898  150.6448 H   0  0  0  0  0  0  0  0  0  0  0  0  # atno 10167 bound_to 10162
  156.5795  130.4770  149.6326 H   0  0  0  0  0  0  0  0  0  0  0  0  # atno 10718 bound_to 10713
  153.1294  135.4690  154.9325 H   0  0  0  0  0  0  0  0  0  0  0  0  # atno 10763 bound_to 10752
  154.7650  135.3142  154.8305 H   0  0  0  0  0  0  0  0  0  0  0  0  # atno 10764 bound_to 10752
  153.8851  135.6890  153.4818 H   0  0  0  0  0  0  0  0  0  0  0  0  # atno 10765 bound_to 10752
  140.3843  134.6919  157.4469 H   0  0  0  0  0  0  0  0  0  0  0  0  # atno 11005 bound_to 11000
  146.3529  140.0924  142.8612 LP  0  0  0  0  0  0  0  0  0  0  0  0  # atno 17320 bound_to 7965
  145.0927  140.9295  143.4759 LP  0  0  0  0  0  0  0  0  0  0  0  0  # atno 17321 bound_to 7965
  140.3264  143.3105  152.0732 LP  0  0  0  0  0  0  0  0  0  0  0  0  # atno 17342 bound_to 10162
  139.4943  144.6539  151.6615 LP  0  0  0  0  0  0  0  0  0  0  0  0  # atno 17343 bound_to 10162
  156.2643  130.6981  151.1759 LP  0  0  0  0  0  0  0  0  0  0  0  0  # atno 17370 bound_to 10713
  157.7330  131.0595  150.5601 LP  0  0  0  0  0  0  0  0  0  0  0  0  # atno 17371 bound_to 10713
  140.0455  134.6206  155.8927 LP  0  0  0  0  0  0  0  0  0  0  0  0  # atno 17394 bound_to 11000
  141.1913  133.6571  156.5450 LP  0  0  0  0  0  0  0  0  0  0  0  0  # atno 17395 bound_to 11000

$$$$
