AV-unprocessed.smi:1340|AV-procd|sdf|5503|dock9
  -GOLD-   22720 5 83D 1   1.00000     0.00000
 Structure written by MMmdl.
 40 41  0  0  0  0  0  0  0  0  1 V2000
  151.5610  145.1547  158.9016 C   0  0  0  0  0  0  0  0  0  0  0  0
  152.6298  144.2806  159.5663 C   0  0  0  0  0  0  0  0  0  0  0  0
  152.1666  142.8254  159.7666 C   0  0  0  0  0  0  0  0  0  0  0  0
  152.1830  141.9837  158.4748 C   0  0  2  0  0  0  0  0  0  0  0  0
  151.2636  142.5743  157.3954 C   0  0  0  0  0  0  0  0  0  0  0  0
  151.7813  140.6136  158.7766 N   0  0  0  0  0  0  0  0  0  0  0  0
  152.5862  139.5394  158.8019 C   0  0  0  0  0  0  0  0  0  0  0  0
  153.7677  139.5643  158.4581 O   0  0  0  0  0  0  0  0  0  0  0  0
  151.9609  138.2400  159.3169 C   0  0  0  0  0  0  0  0  0  0  0  0
  150.7517  137.8949  158.4937 C   0  0  0  0  0  0  0  0  0  0  0  0
  149.7809  136.9722  158.7989 C   0  0  0  0  0  0  0  0  0  0  0  0
  148.5148  136.9354  157.6015 S   0  0  0  0  0  0  0  0  0  0  0  0
  149.3682  138.1974  156.7089 C   0  0  0  0  0  0  0  0  0  0  0  0
  148.9337  138.8313  155.5076 N   0  0  0  0  0  0  0  0  0  0  0  0
  147.5169  138.9909  155.1946 C   0  0  0  0  0  0  0  0  0  0  0  0
  147.5180  139.6416  153.8152 C   0  0  0  0  0  0  0  0  0  0  0  0
  148.9301  139.7782  153.5452 N   0  0  0  0  0  0  0  0  0  0  0  0
  149.7142  139.3111  154.5193 C   0  0  0  0  0  0  0  0  0  0  0  0
  150.9429  139.3363  154.4848 O   0  0  0  0  0  0  0  0  0  0  0  0
  150.5171  138.5620  157.2860 N   0  0  0  0  0  0  0  0  0  0  0  0
  151.9174  146.1780  158.7810 H   0  0  0  0  0  0  0  0  0  0  0  0
  150.6514  145.1897  159.5019 H   0  0  0  0  0  0  0  0  0  0  0  0
  151.2983  144.7741  157.9143 H   0  0  0  0  0  0  0  0  0  0  0  0
  153.5362  144.2953  158.9601 H   0  0  0  0  0  0  0  0  0  0  0  0
  152.8958  144.7275  160.5237 H   0  0  0  0  0  0  0  0  0  0  0  0
  152.7945  142.3474  160.5200 H   0  0  0  0  0  0  0  0  0  0  0  0
  151.1555  142.8315  160.1753 H   0  0  0  0  0  0  0  0  0  0  0  0
  153.2044  141.9839  158.0892 H   0  0  0  0  0  0  0  0  0  0  0  0
  151.5573  143.5942  157.1463 H   0  0  0  0  0  0  0  0  0  0  0  0
  150.2252  142.5986  157.7274 H   0  0  0  0  0  0  0  0  0  0  0  0
  151.3068  141.9877  156.4769 H   0  0  0  0  0  0  0  0  0  0  0  0
  150.8247  140.4824  159.0726 H   0  0  0  0  0  0  0  0  0  0  0  0
  152.7026  137.4414  159.2740 H   0  0  0  0  0  0  0  0  0  0  0  0
  151.6920  138.3575  160.3676 H   0  0  0  0  0  0  0  0  0  0  0  0
  149.7240  136.3275  159.6635 H   0  0  0  0  0  0  0  0  0  0  0  0
  147.0104  138.0248  155.1792 H   0  0  0  0  0  0  0  0  0  0  0  0
  147.0301  139.6275  155.9351 H   0  0  0  0  0  0  0  0  0  0  0  0
  147.0438  139.0091  153.0636 H   0  0  0  0  0  0  0  0  0  0  0  0
  147.0302  140.6171  153.8206 H   0  0  0  0  0  0  0  0  0  0  0  0
  149.2800  140.1928  152.6934 H   0  0  0  0  0  0  0  0  0  0  0  0
  1  2  1  0  0  0  0
  1 21  1  0  0  0  0
  1 22  1  0  0  0  0
  1 23  1  0  0  0  0
  2  3  1  0  0  0  0
  2 24  1  0  0  0  0
  2 25  1  0  0  0  0
  3  4  1  0  0  0  0
  3 26  1  0  0  0  0
  3 27  1  0  0  0  0
  4  5  1  0  0  0  0
  4  6  1  0  0  0  0
  4 28  1  0  0  0  0
  5 29  1  0  0  0  0
  5 30  1  0  0  0  0
  5 31  1  0  0  0  0
  6  7  1  0  0  0  0
  6 32  1  0  0  0  0
  7  8  2  0  0  0  0
  7  9  1  0  0  0  0
  9 10  1  0  0  0  0
  9 33  1  0  0  0  0
  9 34  1  0  0  0  0
 10 20  1  0  0  0  0
 10 11  2  0  0  0  0
 11 12  1  0  0  0  0
 11 35  1  0  0  0  0
 12 13  1  0  0  0  0
 13 14  1  0  0  0  0
 13 20  2  0  0  0  0
 14 18  1  0  0  0  0
 14 15  1  0  0  0  0
 15 16  1  0  0  0  0
 15 36  1  0  0  0  0
 15 37  1  0  0  0  0
 16 17  1  0  0  0  0
 16 38  1  0  0  0  0
 16 39  1  0  0  0  0
 17 18  1  0  0  0  0
 17 40  1  0  0  0  0
 18 19  2  0  0  0  0
M  END
> <s_m_source_file>
AV-unprocessed.smi

> <i_m_source_file_index>
1340

> <i_lp_mmshare_version>
43012

> <i_f3d_flags>
0

> <s_epik_input>
W0NIM11bQ0gyXVtDSDJdW0NASF0oW0NIM10pW05IXUMoPU8pW0NIMl1jMVtjSF1zYyhuMSlOMltDSDJdW0NIMl1bTkhdQzI9Tw==

> <s_epik_cmdline>
J2VwaWtfcHl0aG9uJywgJy1waCcsICc3LjAnLCAnLXRuJywgJzgnLCAnLW1hJywgJzIwMCcsICctbWV0YWxfYmluZGluZycsICctaW1hZScsICc8aW5maWxlLm1hZT4nLCAnLW9tYWUnLCAnPG91dGZpbGUubWFlPic=

> <r_lp_tautomer_probability>
1

> <r_epik_Ionization_Penalty>
0.00012151

> <r_epik_Ionization_Penalty_Charging>
0

> <r_epik_Ionization_Penalty_Neutral>
0.00012151

> <r_epik_State_Penalty>
-0

> <r_epik_Charging_Adjusted_Penalty>
0

> <i_epik_Tot_Q>
0

> <i_epik_Tot_abs_Q>
0

> <r_epik_Metal_State_Penalty>
-0

> <b_epik_Metal_Only>
0

> <s_lp_Force_Field>
OPLS_2005

> <r_lp_Energy>
29.8855

> <b_lp_Chiralities_Consistent>
1

> <s_lp_Variant>
AV-unprocessed.smi:1340-1

> <Gold.Version>
5.8.1

> <Gold.Id.Protein>
6NUR|6NUR_protein|mol2

> <Gold.PLP.Fitness>
39.4488

> <Gold.PLP.PLP>
-31.9768

> <Gold.PLP.part.hbond>
-2.7272

> <Gold.PLP.part.metal>
0.0000

> <Gold.PLP.part.buried>
-6.2509

> <Gold.PLP.part.nonpolar>
-23.6164

> <Gold.PLP.part.repulsive>
0.4052

> <Gold.PLP.ligand.clash>
0.0000

> <Gold.PLP.ligand.torsion>
0.7415

> <Gold.PLP.Chemscore.Hbond>
2.9760

> <Gold.PLP.Chemscore.CHOScore>
0.0000

> <Gold.PLP.Chemscore.Metal>
0.0000

> <Gold.Chemscore.Hbonds>
donor molecule, donor type, donor heavy atom, donor atom, acceptor molecule, acceptor atom, score
      L1  H    17    40       P1  7957  0.98
      P1  H  7989  7998       L1    19  1.00
      P1  H  7997  8010       L1     8  1.00

> <Gold.PLP.Chemscore.Internal.Correction>
0.0270

> <Gold.Rescore>
     Score         DG    S(hbond)    S(metal)    S(lipo)     H(rot)  DE(clash)    DE(int)     intcor
     15.80     -19.15       2.89        0.00      76.25       1.92       0.00       3.35       ----

> <Gold.Chemscore.Fitness>
15.8015

> <Gold.Chemscore.DG>
-19.1482

> <Gold.Chemscore.ZeroCoef>
-5.4800

> <Gold.Chemscore.Hbond>
2.8912

> <Gold.Chemscore.Metal>
0.0000

> <Gold.Chemscore.Lipo>
76.2452

> <Gold.Chemscore.Internal_Hbond>
0.0000

> <Gold.Chemscore.DEClash>
0.0004

> <Gold.Chemscore.DEInternal>
3.3463

> <Gold.Chemscore.Rot>
1.9176

> <Gold.Chemscore.Internal.Correction>
   9.000000E+99

> <Gold.Chemscore.Hbonds>
donor molecule, donor type, donor heavy atom, donor atom, acceptor molecule, acceptor atom, score
      L1  H    17    40       P1  7957  0.91
      P1  H  7989  7998       L1    19  0.85
      P1  H  7997  8010       L1     8  1.00

> <Gold.Chemscore.Hbond.Weighted>
-9.6566

> <Gold.Chemscore.Metal.Weighted>
-0.0000

> <Gold.Chemscore.Lipo.Weighted>
-8.9207

> <Gold.Chemscore.Internal_Hbond.Weighted>
0.0000

> <Gold.Chemscore.DEClash.Weighted>
0.0004

> <Gold.Chemscore.DEInternal.Weighted>
3.3463

> <Gold.Chemscore.Rot.Weighted>
4.9091

> <Gold.Chemscore.Internal.Correction.Weighted>
   9.000000E+99

> <Gold.Protein.RotatedTorsions>
[ 6907 6896 6895 6894 ] final    4.67 input  -60.11 | X-H torsion
[ 7974 7965 7964 7962 ] final  139.96 input  175.53 | X-H torsion
[ 8008 7997 7996 7995 ] final   13.49 input   59.86 | X-H torsion
[ 10167 10162 10161 10158 ] final  134.86 input  -65.29 | X-H torsion
[ 10718 10713 10712 10709 ] final -110.13 input   66.30 | X-H torsion
[ 10763 10752 10751 10750 ] final -123.90 input  -60.55 | X-H torsion
[ 11005 11000 10999 10996 ] final  178.60 input  -57.11 | X-H torsion

> <Gold.Protein.ActiveResidues>
 VAL166  LYS551  ARG553  GLY616  TRP617  ASP618  TYR619  PRO620  LYS621  CYS622 
 ASP623  PHE694  ASN695  SER759  ASP760  ASP761  ALA762  ILE779  LEU786  VAL792 
 PHE793  MET794  SER795  GLU796  ALA797  LYS798  CYS799  TRP800  GLU811  SER814 

> <Gold.Protein.RotatedAtoms>
  151.6450  135.1008  160.0148 H   0  0  0  0  0  0  0  0  0  0  0  0  # atno 6907 bound_to 6896
  152.4033  133.6846  159.6343 H   0  0  0  0  0  0  0  0  0  0  0  0  # atno 6908 bound_to 6896
  150.7930  133.8670  159.3289 H   0  0  0  0  0  0  0  0  0  0  0  0  # atno 6909 bound_to 6896
  144.9231  139.5143  143.5654 H   0  0  0  0  0  0  0  0  0  0  0  0  # atno 7974 bound_to 7965
  154.8352  140.2906  155.5695 H   0  0  0  0  0  0  0  0  0  0  0  0  # atno 8008 bound_to 7997
  156.3008  140.2524  156.3216 H   0  0  0  0  0  0  0  0  0  0  0  0  # atno 8009 bound_to 7997
  154.9186  140.0386  157.1975 H   0  0  0  0  0  0  0  0  0  0  0  0  # atno 8010 bound_to 7997
  139.5240  144.6546  151.5200 H   0  0  0  0  0  0  0  0  0  0  0  0  # atno 10167 bound_to 10162
  156.0574  130.5799  150.8194 H   0  0  0  0  0  0  0  0  0  0  0  0  # atno 10718 bound_to 10713
  154.8715  135.4082  154.3019 H   0  0  0  0  0  0  0  0  0  0  0  0  # atno 10763 bound_to 10752
  153.3877  135.7014  153.6523 H   0  0  0  0  0  0  0  0  0  0  0  0  # atno 10764 bound_to 10752
  153.5319  135.3666  155.2651 H   0  0  0  0  0  0  0  0  0  0  0  0  # atno 10765 bound_to 10752
  140.3969  134.6812  157.4539 H   0  0  0  0  0  0  0  0  0  0  0  0  # atno 11005 bound_to 11000
  146.3213  139.8125  142.8943 LP  0  0  0  0  0  0  0  0  0  0  0  0  # atno 17320 bound_to 7965
  145.3264  141.0256  143.3471 LP  0  0  0  0  0  0  0  0  0  0  0  0  # atno 17321 bound_to 7965
  140.6366  143.8971  150.6653 LP  0  0  0  0  0  0  0  0  0  0  0  0  # atno 17342 bound_to 10162
  140.2293  143.3748  152.1579 LP  0  0  0  0  0  0  0  0  0  0  0  0  # atno 17343 bound_to 10162
  157.5555  131.0945  150.9635 LP  0  0  0  0  0  0  0  0  0  0  0  0  # atno 17370 bound_to 10713
  156.9884  130.5554  149.5301 LP  0  0  0  0  0  0  0  0  0  0  0  0  # atno 17371 bound_to 10713
  140.0365  134.6329  155.9036 LP  0  0  0  0  0  0  0  0  0  0  0  0  # atno 17394 bound_to 11000
  141.1871  133.6559  156.5267 LP  0  0  0  0  0  0  0  0  0  0  0  0  # atno 17395 bound_to 11000

$$$$
