AV-unprocessed.smi:2909|AV-procd|sdf|11173|dock1
  -GOLD-   2272016 63D 1   1.00000     0.00000
 Structure written by MMmdl.
 44 45  0  0  0  0  0  0  0  0  1 V2000
  144.2061  143.4253  155.9382 C   0  0  0  0  0  0  0  0  0  0  0  0
  145.5853  142.8692  155.7389 C   0  0  0  0  0  0  0  0  0  0  0  0
  146.1714  142.3767  154.5358 C   0  0  0  0  0  0  0  0  0  0  0  0
  147.4336  142.0016  154.9032 C   0  0  0  0  0  0  0  0  0  0  0  0
  148.5594  141.4151  154.1139 C   0  0  0  0  0  0  0  0  0  0  0  0
  149.8092  141.2718  154.9817 C   0  0  0  0  0  0  0  0  0  0  0  0
  150.5454  140.2953  154.8415 O   0  0  0  0  0  0  0  0  0  0  0  0
  150.0290  142.2446  155.8805 N   0  0  0  0  0  0  0  0  0  0  0  0
  151.1337  142.2766  156.8337 C   0  0  2  0  0  0  0  0  0  0  0  0
  150.9953  141.1355  157.8552 C   0  0  0  0  0  0  0  0  0  0  0  0
  152.1119  141.1848  158.9097 C   0  0  0  0  0  0  0  0  0  0  0  0
  152.1739  142.5429  159.6514 C   0  0  1  0  0  0  0  0  0  0  0  0
  153.3240  142.5890  160.7005 C   0  0  0  0  0  0  0  0  0  0  0  0
  154.3313  141.4350  160.5296 C   0  0  0  0  0  0  0  0  0  0  0  0
  152.8084  142.5852  162.1527 C   0  0  0  0  0  0  0  0  0  0  0  0
  152.2783  143.6847  158.6099 C   0  0  0  0  0  0  0  0  0  0  0  0
  151.1581  143.6300  157.5589 C   0  0  0  0  0  0  0  0  0  0  0  0
  147.5363  142.2715  156.2494 N   0  0  0  0  0  0  0  0  0  0  0  0
  146.4148  142.8029  156.7697 N   0  0  0  0  0  0  0  0  0  0  0  0
  148.3567  142.1064  156.8151 H   0  0  0  0  0  0  0  0  0  0  0  0
  143.5699  143.2180  155.0776 H   0  0  0  0  0  0  0  0  0  0  0  0
  144.2370  144.5063  156.0759 H   0  0  0  0  0  0  0  0  0  0  0  0
  143.7272  142.9905  156.8160 H   0  0  0  0  0  0  0  0  0  0  0  0
  145.7321  142.3127  153.5515 H   0  0  0  0  0  0  0  0  0  0  0  0
  148.7805  142.0426  153.2495 H   0  0  0  0  0  0  0  0  0  0  0  0
  148.2765  140.4367  153.7232 H   0  0  0  0  0  0  0  0  0  0  0  0
  149.3691  143.0078  155.9234 H   0  0  0  0  0  0  0  0  0  0  0  0
  152.0771  142.1618  156.2961 H   0  0  0  0  0  0  0  0  0  0  0  0
  150.0259  141.1986  158.3520 H   0  0  0  0  0  0  0  0  0  0  0  0
  151.0179  140.1709  157.3467 H   0  0  0  0  0  0  0  0  0  0  0  0
  151.9388  140.3697  159.6110 H   0  0  0  0  0  0  0  0  0  0  0  0
  153.0710  140.9835  158.4309 H   0  0  0  0  0  0  0  0  0  0  0  0
  151.2311  142.6708  160.1858 H   0  0  0  0  0  0  0  0  0  0  0  0
  153.8743  143.5200  160.5577 H   0  0  0  0  0  0  0  0  0  0  0  0
  153.8331  140.4654  160.5590 H   0  0  0  0  0  0  0  0  0  0  0  0
  155.0793  141.4449  161.3230 H   0  0  0  0  0  0  0  0  0  0  0  0
  154.8800  141.5055  159.5913 H   0  0  0  0  0  0  0  0  0  0  0  0
  152.1590  141.7299  162.3417 H   0  0  0  0  0  0  0  0  0  0  0  0
  152.2537  143.4919  162.3918 H   0  0  0  0  0  0  0  0  0  0  0  0
  153.6340  142.5355  162.8632 H   0  0  0  0  0  0  0  0  0  0  0  0
  152.2264  144.6574  159.0972 H   0  0  0  0  0  0  0  0  0  0  0  0
  153.2473  143.6397  158.1109 H   0  0  0  0  0  0  0  0  0  0  0  0
  151.2938  144.4370  156.8378 H   0  0  0  0  0  0  0  0  0  0  0  0
  150.1978  143.8084  158.0454 H   0  0  0  0  0  0  0  0  0  0  0  0
  1 21  1  0  0  0  0
  1 22  1  0  0  0  0
  1 23  1  0  0  0  0
  1  2  1  0  0  0  0
  2 19  2  0  0  0  0
  2  3  1  0  0  0  0
  3  4  2  0  0  0  0
  3 24  1  0  0  0  0
  4 18  1  0  0  0  0
  4  5  1  0  0  0  0
  5  6  1  0  0  0  0
  5 25  1  0  0  0  0
  5 26  1  0  0  0  0
  6  7  2  0  0  0  0
  6  8  1  0  0  0  0
  8  9  1  0  0  0  0
  8 27  1  0  0  0  0
  9 17  1  0  0  0  0
  9 10  1  0  0  0  0
  9 28  1  0  0  0  0
 10 11  1  0  0  0  0
 10 29  1  0  0  0  0
 10 30  1  0  0  0  0
 11 12  1  0  0  0  0
 11 31  1  0  0  0  0
 11 32  1  0  0  0  0
 12 13  1  0  0  0  0
 12 16  1  0  0  0  0
 12 33  1  0  0  0  0
 13 14  1  0  0  0  0
 13 15  1  0  0  0  0
 13 34  1  0  0  0  0
 14 35  1  0  0  0  0
 14 36  1  0  0  0  0
 14 37  1  0  0  0  0
 15 38  1  0  0  0  0
 15 39  1  0  0  0  0
 15 40  1  0  0  0  0
 16 17  1  0  0  0  0
 16 41  1  0  0  0  0
 16 42  1  0  0  0  0
 17 43  1  0  0  0  0
 17 44  1  0  0  0  0
 18 19  1  0  0  0  0
 18 20  1  0  0  0  0
M  END
> <s_m_source_file>
AV-unprocessed.smi

> <i_m_source_file_index>
2909

> <i_lp_mmshare_version>
43012

> <i_f3d_flags>
0

> <s_epik_input>
W0NIM11jMVtjSF1jKG5bbkhdMSlbQ0gyXUMoPU8pW05IXVtDQEBIXTJbQ0gyXVtDSDJdW0NAQEhdKFtDSF0oW0NIM10pW0NIM10pW0NIMl1bQ0gyXTI=

> <s_epik_cmdline>
J2VwaWtfcHl0aG9uJywgJy1waCcsICc3LjAnLCAnLXRuJywgJzgnLCAnLW1hJywgJzIwMCcsICctbWV0YWxfYmluZGluZycsICctaW1hZScsICc8aW5maWxlLm1hZT4nLCAnLW9tYWUnLCAnPG91dGZpbGUubWFlPic=

> <r_lp_tautomer_probability>
0.5

> <r_epik_Ionization_Penalty>
0.00013296

> <r_epik_Ionization_Penalty_Charging>
0

> <r_epik_Ionization_Penalty_Neutral>
0.00013296

> <r_epik_State_Penalty>
0.41068

> <r_epik_Charging_Adjusted_Penalty>
0.41068

> <i_epik_Tot_Q>
0

> <i_epik_Tot_abs_Q>
0

> <r_epik_Metal_State_Penalty>
0.41066

> <b_epik_Metal_Only>
0

> <s_lp_Force_Field>
OPLS_2005

> <r_lp_Energy>
10.7875

> <b_lp_Chiralities_Consistent>
1

> <s_lp_Variant>
AV-unprocessed.smi:2909-3

> <Gold.Version>
5.8.1

> <Gold.Id.Protein>
6NUR|6NUR_protein|mol2

> <Gold.PLP.Fitness>
48.5449

> <Gold.PLP.PLP>
-46.0726

> <Gold.PLP.part.hbond>
-3.0000

> <Gold.PLP.part.metal>
0.0000

> <Gold.PLP.part.buried>
-2.3372

> <Gold.PLP.part.nonpolar>
-39.6261

> <Gold.PLP.part.repulsive>
0.4008

> <Gold.PLP.ligand.clash>
0.0000

> <Gold.PLP.ligand.torsion>
1.7804

> <Gold.PLP.Chemscore.Hbond>
2.0000

> <Gold.PLP.Chemscore.CHOScore>
0.0000

> <Gold.PLP.Chemscore.Metal>
0.0000

> <Gold.Chemscore.Hbonds>
donor molecule, donor type, donor heavy atom, donor atom, acceptor molecule, acceptor atom, score
      L1  H     8    27       P1  8028  1.00
      P1  H  7989  7998       L1     7  1.00

> <Gold.PLP.Chemscore.Internal.Correction>
0.0331

> <Gold.Rescore>
     Score         DG    S(hbond)    S(metal)    S(lipo)     H(rot)  DE(clash)    DE(int)     intcor
     17.06     -20.45       1.71        0.00     111.99       1.50       0.06       3.34       ----

> <Gold.Chemscore.Fitness>
17.0599

> <Gold.Chemscore.DG>
-20.4535

> <Gold.Chemscore.ZeroCoef>
-5.4800

> <Gold.Chemscore.Hbond>
1.7107

> <Gold.Chemscore.Metal>
0.0000

> <Gold.Chemscore.Lipo>
111.9895

> <Gold.Chemscore.Internal_Hbond>
0.0000

> <Gold.Chemscore.DEClash>
0.0557

> <Gold.Chemscore.DEInternal>
3.3379

> <Gold.Chemscore.Rot>
1.5011

> <Gold.Chemscore.Internal.Correction>
   9.000000E+99

> <Gold.Chemscore.Hbonds>
donor molecule, donor type, donor heavy atom, donor atom, acceptor molecule, acceptor atom, score
      L1  H     8    27       P1  8028  0.97
      P1  H  7989  7998       L1     7  0.30

> <Gold.Chemscore.Hbond.Weighted>
-5.7136

> <Gold.Chemscore.Metal.Weighted>
-0.0000

> <Gold.Chemscore.Lipo.Weighted>
-13.1028

> <Gold.Chemscore.Internal_Hbond.Weighted>
0.0000

> <Gold.Chemscore.DEClash.Weighted>
0.0557

> <Gold.Chemscore.DEInternal.Weighted>
3.3379

> <Gold.Chemscore.Rot.Weighted>
3.8429

> <Gold.Chemscore.Internal.Correction.Weighted>
   9.000000E+99

> <Gold.Protein.RotatedTorsions>
[ 6907 6896 6895 6894 ] final  -71.32 input  -60.11 | X-H torsion
[ 7974 7965 7964 7962 ] final -179.92 input  175.53 | X-H torsion
[ 8008 7997 7996 7995 ] final  142.99 input   59.86 | X-H torsion
[ 10167 10162 10161 10158 ] final -153.52 input  -65.29 | X-H torsion
[ 10718 10713 10712 10709 ] final   92.61 input   66.30 | X-H torsion
[ 10763 10752 10751 10750 ] final  142.94 input  -60.55 | X-H torsion
[ 11005 11000 10999 10996 ] final -108.33 input  -57.11 | X-H torsion

> <Gold.Protein.ActiveResidues>
 VAL166  LYS551  ARG553  GLY616  TRP617  ASP618  TYR619  PRO620  LYS621  CYS622 
 ASP623  PHE694  ASN695  SER759  ASP760  ASP761  ALA762  ILE779  LEU786  VAL792 
 PHE793  MET794  SER795  GLU796  ALA797  LYS798  CYS799  TRP800  GLU811  SER814 

> <Gold.Protein.RotatedAtoms>
  150.7217  134.5325  159.5707 H   0  0  0  0  0  0  0  0  0  0  0  0  # atno 6907 bound_to 6896
  152.2855  134.7778  160.0397 H   0  0  0  0  0  0  0  0  0  0  0  0  # atno 6908 bound_to 6896
  151.8409  133.3388  159.3679 H   0  0  0  0  0  0  0  0  0  0  0  0  # atno 6909 bound_to 6896
  144.7140  140.0644  143.6431 H   0  0  0  0  0  0  0  0  0  0  0  0  # atno 7974 bound_to 7965
  156.2939  140.2274  156.4817 H   0  0  0  0  0  0  0  0  0  0  0  0  # atno 8008 bound_to 7997
  154.7847  140.0458  157.1176 H   0  0  0  0  0  0  0  0  0  0  0  0  # atno 8009 bound_to 7997
  154.9717  140.3067  155.4988 H   0  0  0  0  0  0  0  0  0  0  0  0  # atno 8010 bound_to 7997
  139.7090  143.9140  152.2460 H   0  0  0  0  0  0  0  0  0  0  0  0  # atno 10167 bound_to 10162
  157.6958  131.0449  150.3907 H   0  0  0  0  0  0  0  0  0  0  0  0  # atno 10718 bound_to 10713
  153.9641  135.2957  155.3431 H   0  0  0  0  0  0  0  0  0  0  0  0  # atno 10763 bound_to 10752
  154.7358  135.5047  153.9043 H   0  0  0  0  0  0  0  0  0  0  0  0  # atno 10764 bound_to 10752
  153.0932  135.6713  153.9925 H   0  0  0  0  0  0  0  0  0  0  0  0  # atno 10765 bound_to 10752
  141.0907  133.9059  157.2081 H   0  0  0  0  0  0  0  0  0  0  0  0  # atno 11005 bound_to 11000
  145.9836  139.2960  143.1027 LP  0  0  0  0  0  0  0  0  0  0  0  0  # atno 17320 bound_to 7965
  145.8982  140.9260  143.0516 LP  0  0  0  0  0  0  0  0  0  0  0  0  # atno 17321 bound_to 7965
  139.9004  144.6915  150.8672 LP  0  0  0  0  0  0  0  0  0  0  0  0  # atno 17342 bound_to 10162
  140.7728  143.3518  151.1999 LP  0  0  0  0  0  0  0  0  0  0  0  0  # atno 17343 bound_to 10162
  156.4311  130.3972  149.6760 LP  0  0  0  0  0  0  0  0  0  0  0  0  # atno 17370 bound_to 10713
  156.3977  130.7659  151.2664 LP  0  0  0  0  0  0  0  0  0  0  0  0  # atno 17371 bound_to 10713
  139.9733  135.0122  156.9567 LP  0  0  0  0  0  0  0  0  0  0  0  0  # atno 17394 bound_to 11000
  140.5258  134.0862  155.7303 LP  0  0  0  0  0  0  0  0  0  0  0  0  # atno 17395 bound_to 11000

$$$$
