AV-unprocessed.smi:3046|AV-procd|sdf|11617|dock10
  -GOLD-   2272017 03D 1   1.00000     0.00000
 Structure written by MMmdl.
 37 37  0  0  0  0  0  0  0  0  1 V2000
  151.8522  138.1800  159.1524 C   0  0  0  0  0  0  0  0  0  0  0  0
  151.1509  137.4758  158.2515 C   0  0  0  0  0  0  0  0  0  0  0  0
  150.9869  137.8672  156.7987 C   0  0  0  0  0  0  0  0  0  0  0  0
  150.3130  139.1515  156.6919 N   0  0  0  0  0  0  0  0  0  0  0  0
  150.6387  140.1145  155.8178 C   0  0  0  0  0  0  0  0  0  0  0  0
  151.5585  140.0030  155.0064 O   0  0  0  0  0  0  0  0  0  0  0  0
  149.8089  141.4020  155.8966 C   0  0  2  0  0  0  0  0  0  0  0  0
  149.0487  141.6723  154.5827 C   0  0  0  0  0  0  0  0  0  0  0  0
  150.6827  142.5338  156.2430 N   0  0  0  0  0  0  0  0  0  0  0  0
  150.8591  142.7180  157.6820 C   0  0  2  0  0  0  0  0  0  0  0  0
  151.6163  144.0362  157.8926 C   0  0  0  0  0  0  0  0  0  0  0  0
  151.6388  141.5226  158.2722 C   0  0  0  0  0  0  0  0  0  0  0  0
  152.2769  141.8263  159.5416 N   0  0  0  0  0  0  0  0  0  0  0  0
  153.5838  141.5981  159.9180 C   0  0  0  0  0  0  0  0  0  0  0  0
  153.7190  142.0369  161.2039 C   0  0  0  0  0  0  0  0  0  0  0  0
  152.4261  142.5347  161.5284 C   0  0  0  0  0  0  0  0  0  0  0  0
  151.5662  142.4113  160.5302 N   0  0  0  0  0  0  0  0  0  0  0  0
  152.3579  139.0947  158.8792 H   0  0  0  0  0  0  0  0  0  0  0  0
  151.9291  137.8491  160.1776 H   0  0  0  0  0  0  0  0  0  0  0  0
  150.6549  136.5677  158.5631 H   0  0  0  0  0  0  0  0  0  0  0  0
  151.9742  137.9335  156.3396 H   0  0  0  0  0  0  0  0  0  0  0  0
  150.4233  137.1024  156.2613 H   0  0  0  0  0  0  0  0  0  0  0  0
  149.5480  139.3254  157.3277 H   0  0  0  0  0  0  0  0  0  0  0  0
  149.0770  141.2511  156.6916 H   0  0  0  0  0  0  0  0  0  0  0  0
  148.4401  140.8139  154.2958 H   0  0  0  0  0  0  0  0  0  0  0  0
  149.7310  141.8866  153.7591 H   0  0  0  0  0  0  0  0  0  0  0  0
  148.3751  142.5238  154.6786 H   0  0  0  0  0  0  0  0  0  0  0  0
  150.3509  143.3917  155.8256 H   0  0  0  0  0  0  0  0  0  0  0  0
  149.8978  142.8077  158.1902 H   0  0  0  0  0  0  0  0  0  0  0  0
  151.7740  144.2301  158.9538 H   0  0  0  0  0  0  0  0  0  0  0  0
  151.0578  144.8801  157.4858 H   0  0  0  0  0  0  0  0  0  0  0  0
  152.5946  144.0187  157.4106 H   0  0  0  0  0  0  0  0  0  0  0  0
  150.9769  140.6665  158.4118 H   0  0  0  0  0  0  0  0  0  0  0  0
  152.4143  141.2018  157.5751 H   0  0  0  0  0  0  0  0  0  0  0  0
  154.2975  141.1371  159.2509 H   0  0  0  0  0  0  0  0  0  0  0  0
  154.6062  142.0064  161.8188 H   0  0  0  0  0  0  0  0  0  0  0  0
  152.0885  142.9785  162.4534 H   0  0  0  0  0  0  0  0  0  0  0  0
  1  2  2  0  0  0  0
  1 18  1  0  0  0  0
  1 19  1  0  0  0  0
  2  3  1  0  0  0  0
  2 20  1  0  0  0  0
  3  4  1  0  0  0  0
  3 21  1  0  0  0  0
  3 22  1  0  0  0  0
  4  5  1  0  0  0  0
  4 23  1  0  0  0  0
  5  6  2  0  0  0  0
  5  7  1  0  0  0  0
  7  8  1  0  0  0  0
  7  9  1  0  0  0  0
  7 24  1  0  0  0  0
  8 25  1  0  0  0  0
  8 26  1  0  0  0  0
  8 27  1  0  0  0  0
  9 10  1  0  0  0  0
  9 28  1  0  0  0  0
 10 11  1  0  0  0  0
 10 12  1  0  0  0  0
 10 29  1  0  0  0  0
 11 30  1  0  0  0  0
 11 31  1  0  0  0  0
 11 32  1  0  0  0  0
 12 13  1  0  0  0  0
 12 33  1  0  0  0  0
 12 34  1  0  0  0  0
 13 17  1  0  0  0  0
 13 14  1  0  0  0  0
 14 15  2  0  0  0  0
 14 35  1  0  0  0  0
 15 16  1  0  0  0  0
 15 36  1  0  0  0  0
 16 17  2  0  0  0  0
 16 37  1  0  0  0  0
M  END
> <s_m_source_file>
AV-unprocessed.smi

> <i_m_source_file_index>
3046

> <i_lp_mmshare_version>
43012

> <i_f3d_flags>
0

> <s_epik_input>
W0NIMl09W0NIXVtDSDJdW05IXUMoPU8pW0NASF0oW0NIM10pW05IXVtDQEhdKFtDSDNdKVtDSDJdbjFbY0hdW2NIXVtjSF1uMQ==

> <s_epik_cmdline>
J2VwaWtfcHl0aG9uJywgJy1waCcsICc3LjAnLCAnLXRuJywgJzgnLCAnLW1hJywgJzIwMCcsICctbWV0YWxfYmluZGluZycsICctaW1hZScsICc8aW5maWxlLm1hZT4nLCAnLW9tYWUnLCAnPG91dGZpbGUubWFlPic=

> <r_lp_tautomer_probability>
1

> <r_epik_Ionization_Penalty>
0.950627

> <r_epik_Ionization_Penalty_Charging>
0

> <r_epik_Ionization_Penalty_Neutral>
0.950627

> <r_epik_State_Penalty>
0.994814

> <r_epik_Charging_Adjusted_Penalty>
0.994814

> <i_epik_Tot_Q>
0

> <i_epik_Tot_abs_Q>
0

> <r_epik_Metal_State_Penalty>
0.994788

> <b_epik_Metal_Only>
0

> <s_lp_Force_Field>
OPLS_2005

> <r_lp_Energy>
5.49444

> <b_lp_Chiralities_Consistent>
1

> <s_lp_Variant>
AV-unprocessed.smi:3046-5

> <Gold.Version>
5.8.1

> <Gold.Id.Protein>
6NUR|6NUR_protein|mol2

> <Gold.PLP.Fitness>
41.5386

> <Gold.PLP.PLP>
-37.1606

> <Gold.PLP.part.hbond>
-3.0000

> <Gold.PLP.part.metal>
0.0000

> <Gold.PLP.part.buried>
-4.0032

> <Gold.PLP.part.nonpolar>
-30.1949

> <Gold.PLP.part.repulsive>
0.0858

> <Gold.PLP.ligand.clash>
0.0000

> <Gold.PLP.ligand.torsion>
0.8334

> <Gold.PLP.Chemscore.Hbond>
1.9631

> <Gold.PLP.Chemscore.CHOScore>
0.0000

> <Gold.PLP.Chemscore.Metal>
0.0000

> <Gold.Chemscore.Hbonds>
donor molecule, donor type, donor heavy atom, donor atom, acceptor molecule, acceptor atom, score
      L1  H     9    28       P1  8028  0.98
      P1  H  6933  6945       L1    17  0.01
      P1  H  7989  7998       L1     6  1.00

> <Gold.PLP.Chemscore.Internal.Correction>
0.1555

> <Gold.Rescore>
     Score         DG    S(hbond)    S(metal)    S(lipo)     H(rot)  DE(clash)    DE(int)     intcor
     15.61     -16.47       1.99        0.00      84.58       2.17       0.01       0.85       ----

> <Gold.Chemscore.Fitness>
15.6110

> <Gold.Chemscore.DG>
-16.4733

> <Gold.Chemscore.ZeroCoef>
-5.4800

> <Gold.Chemscore.Hbond>
1.9946

> <Gold.Chemscore.Metal>
0.0000

> <Gold.Chemscore.Lipo>
84.5849

> <Gold.Chemscore.Internal_Hbond>
0.0000

> <Gold.Chemscore.DEClash>
0.0097

> <Gold.Chemscore.DEInternal>
0.8527

> <Gold.Chemscore.Rot>
2.1739

> <Gold.Chemscore.Internal.Correction>
   9.000000E+99

> <Gold.Chemscore.Hbonds>
donor molecule, donor type, donor heavy atom, donor atom, acceptor molecule, acceptor atom, score
      L1  H     9    28       P1  8028  0.91
      P1  H  7989  7998       L1     6  0.97

> <Gold.Chemscore.Hbond.Weighted>
-6.6621

> <Gold.Chemscore.Metal.Weighted>
-0.0000

> <Gold.Chemscore.Lipo.Weighted>
-9.8964

> <Gold.Chemscore.Internal_Hbond.Weighted>
0.0000

> <Gold.Chemscore.DEClash.Weighted>
0.0097

> <Gold.Chemscore.DEInternal.Weighted>
0.8527

> <Gold.Chemscore.Rot.Weighted>
5.5652

> <Gold.Chemscore.Internal.Correction.Weighted>
   9.000000E+99

> <Gold.Protein.RotatedTorsions>
[ 6907 6896 6895 6894 ] final  -10.68 input  -60.11 | X-H torsion
[ 7974 7965 7964 7962 ] final  -81.75 input  175.53 | X-H torsion
[ 8008 7997 7996 7995 ] final   48.95 input   59.86 | X-H torsion
[ 10167 10162 10161 10158 ] final   58.13 input  -65.29 | X-H torsion
[ 10718 10713 10712 10709 ] final  -64.76 input   66.30 | X-H torsion
[ 10763 10752 10751 10750 ] final   63.94 input  -60.55 | X-H torsion
[ 11005 11000 10999 10996 ] final   79.73 input  -57.11 | X-H torsion

> <Gold.Protein.ActiveResidues>
 VAL166  LYS551  ARG553  GLY616  TRP617  ASP618  TYR619  PRO620  LYS621  CYS622 
 ASP623  PHE694  ASN695  SER759  ASP760  ASP761  ALA762  ILE779  LEU786  VAL792 
 PHE793  MET794  SER795  GLU796  ALA797  LYS798  CYS799  TRP800  GLU811  SER814 

> <Gold.Protein.RotatedAtoms>
  151.3981  135.0967  159.9547 H   0  0  0  0  0  0  0  0  0  0  0  0  # atno 6907 bound_to 6896
  152.5059  133.8914  159.7406 H   0  0  0  0  0  0  0  0  0  0  0  0  # atno 6908 bound_to 6896
  150.9382  133.6630  159.2824 H   0  0  0  0  0  0  0  0  0  0  0  0  # atno 6909 bound_to 6896
  145.5425  140.9508  143.1543 H   0  0  0  0  0  0  0  0  0  0  0  0  # atno 7974 bound_to 7965
  155.3940  140.3434  155.4253 H   0  0  0  0  0  0  0  0  0  0  0  0  # atno 8008 bound_to 7997
  156.1541  140.1580  156.8754 H   0  0  0  0  0  0  0  0  0  0  0  0  # atno 8009 bound_to 7997
  154.5079  140.0797  156.7912 H   0  0  0  0  0  0  0  0  0  0  0  0  # atno 8010 bound_to 7997
  140.1906  144.4090  150.6573 H   0  0  0  0  0  0  0  0  0  0  0  0  # atno 10167 bound_to 10162
  156.0709  130.4238  150.1467 H   0  0  0  0  0  0  0  0  0  0  0  0  # atno 10718 bound_to 10713
  153.0037  135.5411  154.6432 H   0  0  0  0  0  0  0  0  0  0  0  0  # atno 10763 bound_to 10752
  154.5682  135.2839  155.0855 H   0  0  0  0  0  0  0  0  0  0  0  0  # atno 10764 bound_to 10752
  154.2032  135.6480  153.5145 H   0  0  0  0  0  0  0  0  0  0  0  0  # atno 10765 bound_to 10752
  139.9161  134.7866  156.1817 H   0  0  0  0  0  0  0  0  0  0  0  0  # atno 11005 bound_to 11000
  144.7570  139.7050  143.7250 LP  0  0  0  0  0  0  0  0  0  0  0  0  # atno 17320 bound_to 7965
  146.1972  139.5245  142.9767 LP  0  0  0  0  0  0  0  0  0  0  0  0  # atno 17321 bound_to 7965
  140.6458  143.2213  151.6188 LP  0  0  0  0  0  0  0  0  0  0  0  0  # atno 17342 bound_to 10162
  139.5258  144.3065  152.1029 LP  0  0  0  0  0  0  0  0  0  0  0  0  # atno 17343 bound_to 10162
  156.9518  130.9777  151.3497 LP  0  0  0  0  0  0  0  0  0  0  0  0  # atno 17370 bound_to 10713
  157.5780  130.8356  149.8482 LP  0  0  0  0  0  0  0  0  0  0  0  0  # atno 17371 bound_to 10713
  141.0638  133.6829  156.2004 LP  0  0  0  0  0  0  0  0  0  0  0  0  # atno 17394 bound_to 11000
  140.6618  134.4960  157.5583 LP  0  0  0  0  0  0  0  0  0  0  0  0  # atno 17395 bound_to 11000

$$$$
