AV-unprocessed.smi:113|AV-procd|sdf|1105|dock3
  -GOLD-   2262018223D 1   1.00000     0.00000
 Structure written by MMmdl.
 53 56  0  0  0  0  0  0  0  0  2 V2000
  148.4014  141.5294  155.0132 C   0  0  0  0  0  0  0  0  0  0  0  0
  149.4091  141.4155  156.1373 C   0  0  0  0  0  0  0  0  0  0  0  0
  149.7130  140.1860  156.7534 C   0  0  0  0  0  0  0  0  0  0  0  0
  150.6677  140.1358  157.7995 C   0  0  0  0  0  0  0  0  0  0  0  0
  151.0187  138.8127  158.4886 C   0  0  0  0  0  0  0  0  0  0  0  0
  150.3003  137.6269  158.0435 N   0  0  0  0  0  0  0  0  0  0  0  0
  150.7164  137.0167  156.8353 C   0  0  0  0  0  0  0  0  0  0  0  0
  151.6556  137.4679  156.1762 O   0  0  0  0  0  0  0  0  0  0  0  0
  149.9698  135.8149  156.4558 C   0  0  0  0  0  0  0  0  0  0  0  0
  150.3631  135.1027  155.1711 C   0  0  0  0  0  0  0  0  0  0  0  0
  148.9651  135.3690  157.2480 C   0  0  0  0  0  0  0  0  0  0  0  0
  148.5746  135.9883  158.4222 N   0  0  0  0  0  0  0  0  0  0  0  0
  147.4764  135.3739  159.2621 C   0  0  2  0  0  0  0  0  0  0  0  0
  146.4325  136.3917  159.7547 C   0  0  0  0  0  0  0  0  0  0  0  0
  146.3146  136.0829  161.2438 C   0  0  2  0  0  0  0  0  0  0  0  0
  146.8646  137.1352  162.0132 O   0  0  0  0  0  0  0  0  0  0  0  0
  147.0799  134.7574  161.4129 C   0  0  2  0  0  0  0  0  0  0  0  0
  147.7375  134.4955  162.7795 C   0  0  0  0  0  0  0  0  0  0  0  0
  146.7660  134.1033  163.7259 O   0  0  0  0  0  0  0  0  0  0  0  0
  148.0550  134.7858  160.3825 O   0  0  0  0  0  0  0  0  0  0  0  0
  149.2672  137.1340  158.8714 C   0  0  0  0  0  0  0  0  0  0  0  0
  148.9939  137.6654  159.9494 O   0  0  0  0  0  0  0  0  0  0  0  0
  151.2970  141.3479  158.1963 C   0  0  0  0  0  0  0  0  0  0  0  0
  152.2644  141.3927  159.2289 C   0  0  0  0  0  0  0  0  0  0  0  0
  152.8648  142.6137  159.5944 C   0  0  0  0  0  0  0  0  0  0  0  0
  152.5088  143.8054  158.9357 C   0  0  0  0  0  0  0  0  0  0  0  0
  151.5497  143.7790  157.9063 C   0  0  0  0  0  0  0  0  0  0  0  0
  150.9486  142.5585  157.5385 C   0  0  0  0  0  0  0  0  0  0  0  0
  150.0310  142.5391  156.5487 N   0  3  0  0  0  0  0  0  0  0  0  0
  147.8368  140.6039  154.8967 H   0  0  0  0  0  0  0  0  0  0  0  0
  148.9087  141.7406  154.0715 H   0  0  0  0  0  0  0  0  0  0  0  0
  147.6942  142.3351  155.2125 H   0  0  0  0  0  0  0  0  0  0  0  0
  149.2092  139.2938  156.4131 H   0  0  0  0  0  0  0  0  0  0  0  0
  152.0851  138.6057  158.3831 H   0  0  0  0  0  0  0  0  0  0  0  0
  150.8674  138.8972  159.5659 H   0  0  0  0  0  0  0  0  0  0  0  0
  149.7409  134.2266  154.9852 H   0  0  0  0  0  0  0  0  0  0  0  0
  151.4005  134.7697  155.2212 H   0  0  0  0  0  0  0  0  0  0  0  0
  150.2586  135.7723  154.3164 H   0  0  0  0  0  0  0  0  0  0  0  0
  148.4384  134.4769  156.9406 H   0  0  0  0  0  0  0  0  0  0  0  0
  147.0201  134.5928  158.6526 H   0  0  0  0  0  0  0  0  0  0  0  0
  146.7300  137.4216  159.5531 H   0  0  0  0  0  0  0  0  0  0  0  0
  145.4936  136.2070  159.2321 H   0  0  0  0  0  0  0  0  0  0  0  0
  145.2722  135.9665  161.5421 H   0  0  0  0  0  0  0  0  0  0  0  0
  146.6001  137.0180  162.9133 H   0  0  0  0  0  0  0  0  0  0  0  0
  146.4031  133.9330  161.1794 H   0  0  0  0  0  0  0  0  0  0  0  0
  148.4712  133.6940  162.6908 H   0  0  0  0  0  0  0  0  0  0  0  0
  148.2732  135.3734  163.1413 H   0  0  0  0  0  0  0  0  0  0  0  0
  146.0172  134.6740  163.6433 H   0  0  0  0  0  0  0  0  0  0  0  0
  152.5634  140.4997  159.7564 H   0  0  0  0  0  0  0  0  0  0  0  0
  153.6021  142.6351  160.3836 H   0  0  0  0  0  0  0  0  0  0  0  0
  152.9722  144.7391  159.2199 H   0  0  0  0  0  0  0  0  0  0  0  0
  151.2809  144.6968  157.4035 H   0  0  0  0  0  0  0  0  0  0  0  0
  149.7964  143.4182  156.0882 H   0  0  0  0  0  0  0  0  0  0  0  0
  1  2  1  0  0  0  0
  1 30  1  0  0  0  0
  1 31  1  0  0  0  0
  1 32  1  0  0  0  0
  2 29  1  0  0  0  0
  2  3  2  0  0  0  0
  3  4  1  0  0  0  0
  3 33  1  0  0  0  0
  4  5  1  0  0  0  0
  4 23  2  0  0  0  0
  5  6  1  0  0  0  0
  5 34  1  0  0  0  0
  5 35  1  0  0  0  0
  6 21  1  0  0  0  0
  6  7  1  0  0  0  0
  7  8  2  0  0  0  0
  7  9  1  0  0  0  0
  9 10  1  0  0  0  0
  9 11  2  0  0  0  0
 10 36  1  0  0  0  0
 10 37  1  0  0  0  0
 10 38  1  0  0  0  0
 11 12  1  0  0  0  0
 11 39  1  0  0  0  0
 12 13  1  0  0  0  0
 12 21  1  0  0  0  0
 13 20  1  0  0  0  0
 13 14  1  0  0  0  0
 13 40  1  0  0  0  0
 14 15  1  0  0  0  0
 14 41  1  0  0  0  0
 14 42  1  0  0  0  0
 15 16  1  0  0  0  0
 15 17  1  0  0  0  0
 15 43  1  0  0  0  0
 16 44  1  0  0  0  0
 17 18  1  0  0  0  0
 17 20  1  0  0  0  0
 17 45  1  0  0  0  0
 18 19  1  0  0  0  0
 18 46  1  0  0  0  0
 18 47  1  0  0  0  0
 19 48  1  0  0  0  0
 21 22  2  0  0  0  0
 23 28  1  0  0  0  0
 23 24  1  0  0  0  0
 24 25  2  0  0  0  0
 24 49  1  0  0  0  0
 25 26  1  0  0  0  0
 25 50  1  0  0  0  0
 26 27  2  0  0  0  0
 26 51  1  0  0  0  0
 27 28  1  0  0  0  0
 27 52  1  0  0  0  0
 28 29  2  0  0  0  0
 29 53  1  0  0  0  0
M  CHG  1  29   1
M  END
> <s_m_source_file>
AV-unprocessed.smi

> <i_m_source_file_index>
113

> <i_lp_mmshare_version>
43012

> <i_f3d_flags>
0

> <s_epik_input>
W2NIXTFbY0hdW2NIXVtjSF1jKGMxMiluYyhbQ0gzXSlbY0hdYzJbQ0gyXW4zYyg9TyljKFtDSDNdKVtjSF1uKGMzPU8pW0NAQEhdNFtDSDJdW0NAQEhdKFtPSF0pW0NASF0oTzQpW0NIMl1bT0hd

> <s_epik_cmdline>
J2VwaWtfcHl0aG9uJywgJy1waCcsICc3LjAnLCAnLXRuJywgJzgnLCAnLW1hJywgJzIwMCcsICctbWV0YWxfYmluZGluZycsICctaW1hZScsICc8aW5maWxlLm1hZT4nLCAnLW9tYWUnLCAnPG91dGZpbGUubWFlPic=

> <r_lp_tautomer_probability>
1

> <r_epik_Ionization_Penalty>
0.705471

> <r_epik_Ionization_Penalty_Charging>
0.70547

> <r_epik_Ionization_Penalty_Neutral>
1.19947e-07

> <r_epik_State_Penalty>
0.728574

> <r_epik_Charging_Adjusted_Penalty>
1.43404

> <i_epik_Tot_Q>
1

> <i_epik_Tot_abs_Q>
1

> <r_epik_Metal_State_Penalty>
4.61665

> <b_epik_Metal_Only>
0

> <s_epik_Chemistry_Notes>
This compound contains an acetal/aminal-like group ( X-CH(R)-Y where X, Y are N, S, or O) that may be acid/base labile, releasing an aldehyde.

> <s_lp_Force_Field>
OPLS_2005

> <r_lp_Energy>
39.3678

> <b_lp_Chiralities_Consistent>
1

> <s_lp_Variant>
AV-unprocessed.smi:113-15

> <Gold.Version>
5.8.1

> <Gold.Id.Protein>
6NUR|6NUR_protein|mol2

> <Gold.PLP.Fitness>
53.5718

> <Gold.PLP.PLP>
-45.9290

> <Gold.PLP.part.hbond>
-5.0000

> <Gold.PLP.part.metal>
0.0000

> <Gold.PLP.part.buried>
-7.1310

> <Gold.PLP.part.nonpolar>
-35.7670

> <Gold.PLP.part.repulsive>
0.0837

> <Gold.PLP.ligand.clash>
0.0000

> <Gold.PLP.ligand.torsion>
0.6478

> <Gold.PLP.Chemscore.Hbond>
2.9683

> <Gold.PLP.Chemscore.CHOScore>
0.0000

> <Gold.PLP.Chemscore.Metal>
0.0000

> <Gold.Chemscore.Hbonds>
donor molecule, donor type, donor heavy atom, donor atom, acceptor molecule, acceptor atom, score
      L1  H    29    53       P1  8028  2.00
      P1  H  6931  6943       L1    22  0.26
      P1  H  6934  6947       L1    16  0.51

> <Gold.PLP.Chemscore.Internal.Correction>
0.0334

> <Gold.Rescore>
     Score         DG    S(hbond)    S(metal)    S(lipo)     H(rot)  DE(clash)    DE(int)     intcor
     13.89     -17.67       1.98        0.00     113.51       3.01       0.10       3.67       ----

> <Gold.Chemscore.Fitness>
13.8896

> <Gold.Chemscore.DG>
-17.6668

> <Gold.Chemscore.ZeroCoef>
-5.4800

> <Gold.Chemscore.Hbond>
1.9810

> <Gold.Chemscore.Metal>
0.0000

> <Gold.Chemscore.Lipo>
113.5135

> <Gold.Chemscore.Internal_Hbond>
0.0000

> <Gold.Chemscore.DEClash>
0.1038

> <Gold.Chemscore.DEInternal>
3.6734

> <Gold.Chemscore.Rot>
3.0120

> <Gold.Chemscore.Internal.Correction>
   9.000000E+99

> <Gold.Chemscore.Hbonds>
donor molecule, donor type, donor heavy atom, donor atom, acceptor molecule, acceptor atom, score
      L1  H    29    53       P1  8028  0.99
      P1  H  6931  6943       L1    22  0.25
      P1  H  6934  6947       L1    16  0.47

> <Gold.Chemscore.Hbond.Weighted>
-6.6165

> <Gold.Chemscore.Metal.Weighted>
-0.0000

> <Gold.Chemscore.Lipo.Weighted>
-13.2811

> <Gold.Chemscore.Internal_Hbond.Weighted>
0.0000

> <Gold.Chemscore.DEClash.Weighted>
0.1038

> <Gold.Chemscore.DEInternal.Weighted>
3.6734

> <Gold.Chemscore.Rot.Weighted>
7.7108

> <Gold.Chemscore.Internal.Correction.Weighted>
   9.000000E+99

> <Gold.Protein.RotatedTorsions>
[ 6907 6896 6895 6894 ] final   59.66 input  -60.11 | X-H torsion
[ 7974 7965 7964 7962 ] final   18.20 input  175.53 | X-H torsion
[ 8008 7997 7996 7995 ] final  -36.29 input   59.86 | X-H torsion
[ 10167 10162 10161 10158 ] final   12.72 input  -65.29 | X-H torsion
[ 10718 10713 10712 10709 ] final  -34.44 input   66.30 | X-H torsion
[ 10763 10752 10751 10750 ] final  -38.76 input  -60.55 | X-H torsion
[ 11005 11000 10999 10996 ] final  -15.65 input  -57.11 | X-H torsion

> <Gold.Protein.ActiveResidues>
 VAL166  LYS551  ARG553  GLY616  TRP617  ASP618  TYR619  PRO620  LYS621  CYS622 
 ASP623  PHE694  ASN695  SER759  ASP760  ASP761  ALA762  ILE779  LEU786  VAL792 
 PHE793  MET794  SER795  GLU796  ALA797  LYS798  CYS799  TRP800  GLU811  SER814 

> <Gold.Protein.RotatedAtoms>
  152.3934  134.6405  160.0098 H   0  0  0  0  0  0  0  0  0  0  0  0  # atno 6907 bound_to 6896
  151.6632  133.3310  159.3187 H   0  0  0  0  0  0  0  0  0  0  0  0  # atno 6908 bound_to 6896
  150.7846  134.6863  159.6517 H   0  0  0  0  0  0  0  0  0  0  0  0  # atno 6909 bound_to 6896
  146.2193  139.8492  142.8626 H   0  0  0  0  0  0  0  0  0  0  0  0  # atno 7974 bound_to 7965
  154.4076  140.1634  156.2351 H   0  0  0  0  0  0  0  0  0  0  0  0  # atno 8008 bound_to 7997
  155.9250  140.3418  155.6180 H   0  0  0  0  0  0  0  0  0  0  0  0  # atno 8009 bound_to 7997
  155.7176  140.0764  157.2335 H   0  0  0  0  0  0  0  0  0  0  0  0  # atno 8010 bound_to 7997
  140.6049  143.8528  150.7003 H   0  0  0  0  0  0  0  0  0  0  0  0  # atno 10167 bound_to 10162
  156.3506  130.4308  149.7708 H   0  0  0  0  0  0  0  0  0  0  0  0  # atno 10718 bound_to 10713
  153.9182  135.6785  153.4748 H   0  0  0  0  0  0  0  0  0  0  0  0  # atno 10763 bound_to 10752
  153.1042  135.4813  154.8919 H   0  0  0  0  0  0  0  0  0  0  0  0  # atno 10764 bound_to 10752
  154.7492  135.3180  154.8545 H   0  0  0  0  0  0  0  0  0  0  0  0  # atno 10765 bound_to 10752
  140.7988  133.8230  155.9450 H   0  0  0  0  0  0  0  0  0  0  0  0  # atno 11005 bound_to 11000
  145.2819  141.0141  143.3712 LP  0  0  0  0  0  0  0  0  0  0  0  0  # atno 17320 bound_to 7965
  144.9143  139.4489  143.6572 LP  0  0  0  0  0  0  0  0  0  0  0  0  # atno 17321 bound_to 7965
  140.2083  143.3904  152.1738 LP  0  0  0  0  0  0  0  0  0  0  0  0  # atno 17342 bound_to 10162
  139.5318  144.7167  151.5030 LP  0  0  0  0  0  0  0  0  0  0  0  0  # atno 17343 bound_to 10162
  156.4910  130.8085  151.3094 LP  0  0  0  0  0  0  0  0  0  0  0  0  # atno 17370 bound_to 10713
  157.7460  130.9975  150.2820 LP  0  0  0  0  0  0  0  0  0  0  0  0  # atno 17371 bound_to 10713
  140.9315  134.2015  157.4860 LP  0  0  0  0  0  0  0  0  0  0  0  0  # atno 17394 bound_to 11000
  139.8723  134.9835  156.5199 LP  0  0  0  0  0  0  0  0  0  0  0  0  # atno 17395 bound_to 11000

$$$$
