AV-unprocessed.smi:1555|AV-procd|sdf|6264|dock3
  -GOLD-   22720 6453D 1   1.00000     0.00000
 Structure written by MMmdl.
 42 43  0  0  0  0  0  0  0  0  2 V2000
  153.9750  140.3097  160.1125 C   0  0  0  0  0  0  0  0  0  0  0  0
  152.8827  141.3373  159.7746 C   0  0  2  0  0  0  0  0  0  0  0  0
  152.2013  141.9297  161.0275 C   0  0  0  0  0  0  0  0  0  0  0  0
  151.6176  143.2523  160.7868 N   0  0  0  0  0  0  0  0  0  0  0  0
  151.4901  143.8936  159.5813 C   0  0  0  0  0  0  0  0  0  0  0  0
  150.8835  145.0957  159.8408 C   0  0  0  0  0  0  0  0  0  0  0  0
  150.6630  145.1352  161.1916 N   0  3  0  0  0  0  0  0  0  0  0  0
  151.1069  144.0118  161.7648 C   0  0  0  0  0  0  0  0  0  0  0  0
  151.8883  140.7116  158.9081 N   0  0  0  0  0  0  0  0  0  0  0  0
  152.1223  140.2142  157.6811 C   0  0  0  0  0  0  0  0  0  0  0  0
  153.2429  140.2411  157.1697 O   0  0  0  0  0  0  0  0  0  0  0  0
  151.0364  139.6793  157.0675 N   0  0  0  0  0  0  0  0  0  0  0  0
  149.6396  139.7733  157.5250 C   0  0  0  0  0  0  0  0  0  0  0  0
  148.8853  140.7586  156.6142 C   0  0  0  0  0  0  0  0  0  0  0  0
  148.9625  140.3241  155.1316 C   0  0  0  0  0  0  0  0  0  0  0  0
  148.3113  141.3500  154.1864 C   0  0  0  0  0  0  0  0  0  0  0  0
  147.8944  140.7321  152.9868 O   0  0  0  0  0  0  0  0  0  0  0  0
  150.4262  140.0420  154.7259 C   0  0  0  0  0  0  0  0  0  0  0  0
  151.1133  139.0921  155.7242 C   0  0  0  0  0  0  0  0  0  0  0  0
  154.7864  140.7610  160.6839 H   0  0  0  0  0  0  0  0  0  0  0  0
  154.4136  139.8912  159.2060 H   0  0  0  0  0  0  0  0  0  0  0  0
  153.5733  139.4830  160.6994 H   0  0  0  0  0  0  0  0  0  0  0  0
  153.3591  142.1474  159.2189 H   0  0  0  0  0  0  0  0  0  0  0  0
  151.3947  141.2820  161.3737 H   0  0  0  0  0  0  0  0  0  0  0  0
  152.9144  142.0107  161.8498 H   0  0  0  0  0  0  0  0  0  0  0  0
  151.8332  143.4582  158.6536 H   0  0  0  0  0  0  0  0  0  0  0  0
  150.5989  145.9037  159.1825 H   0  0  0  0  0  0  0  0  0  0  0  0
  151.0641  143.7688  162.8116 H   0  0  0  0  0  0  0  0  0  0  0  0
  150.9462  140.6501  159.2662 H   0  0  0  0  0  0  0  0  0  0  0  0
  149.1777  138.7867  157.4661 H   0  0  0  0  0  0  0  0  0  0  0  0
  149.5326  140.0769  158.5662 H   0  0  0  0  0  0  0  0  0  0  0  0
  147.8448  140.8263  156.9334 H   0  0  0  0  0  0  0  0  0  0  0  0
  149.3096  141.7569  156.7310 H   0  0  0  0  0  0  0  0  0  0  0  0
  148.4165  139.3843  155.0328 H   0  0  0  0  0  0  0  0  0  0  0  0
  147.4566  141.8313  154.6628 H   0  0  0  0  0  0  0  0  0  0  0  0
  149.0229  142.1363  153.9324 H   0  0  0  0  0  0  0  0  0  0  0  0
  148.6353  140.6787  152.4024 H   0  0  0  0  0  0  0  0  0  0  0  0
  150.4596  139.6105  153.7250 H   0  0  0  0  0  0  0  0  0  0  0  0
  150.9839  140.9784  154.6770 H   0  0  0  0  0  0  0  0  0  0  0  0
  152.1385  138.8976  155.4058 H   0  0  0  0  0  0  0  0  0  0  0  0
  150.6160  138.1210  155.7234 H   0  0  0  0  0  0  0  0  0  0  0  0
  150.2253  145.9017  161.6874 H   0  0  0  0  0  0  0  0  0  0  0  0
  1  2  1  0  0  0  0
  1 20  1  0  0  0  0
  1 21  1  0  0  0  0
  1 22  1  0  0  0  0
  2  3  1  0  0  0  0
  2  9  1  0  0  0  0
  2 23  1  0  0  0  0
  3  4  1  0  0  0  0
  3 24  1  0  0  0  0
  3 25  1  0  0  0  0
  4  8  1  0  0  0  0
  4  5  1  0  0  0  0
  5  6  2  0  0  0  0
  5 26  1  0  0  0  0
  6  7  1  0  0  0  0
  6 27  1  0  0  0  0
  7  8  2  0  0  0  0
  7 42  1  0  0  0  0
  8 28  1  0  0  0  0
  9 10  1  0  0  0  0
  9 29  1  0  0  0  0
 10 11  2  0  0  0  0
 10 12  1  0  0  0  0
 12 19  1  0  0  0  0
 12 13  1  0  0  0  0
 13 14  1  0  0  0  0
 13 30  1  0  0  0  0
 13 31  1  0  0  0  0
 14 15  1  0  0  0  0
 14 32  1  0  0  0  0
 14 33  1  0  0  0  0
 15 16  1  0  0  0  0
 15 18  1  0  0  0  0
 15 34  1  0  0  0  0
 16 17  1  0  0  0  0
 16 35  1  0  0  0  0
 16 36  1  0  0  0  0
 17 37  1  0  0  0  0
 18 19  1  0  0  0  0
 18 38  1  0  0  0  0
 18 39  1  0  0  0  0
 19 40  1  0  0  0  0
 19 41  1  0  0  0  0
M  CHG  1   7   1
M  END
> <s_m_source_file>
AV-unprocessed.smi

> <i_m_source_file_index>
1555

> <i_lp_mmshare_version>
43012

> <i_f3d_flags>
0

> <s_epik_input>
W2NIXTFuW2NIXVtjSF1uMVtDSDJdW0NAQEhdKFtDSDNdKVtOSF1DKD1PKU4yW0NIMl1bQ0gyXVtDSF0oW0NIMl1bT0hdKVtDSDJdW0NIMl0y

> <s_epik_cmdline>
J2VwaWtfcHl0aG9uJywgJy1waCcsICc3LjAnLCAnLXRuJywgJzgnLCAnLW1hJywgJzIwMCcsICctbWV0YWxfYmluZGluZycsICctaW1hZScsICc8aW5maWxlLm1hZT4nLCAnLW9tYWUnLCAnPG91dGZpbGUubWFlPic=

> <r_lp_tautomer_probability>
1

> <r_epik_Ionization_Penalty>
0.253261

> <r_epik_Ionization_Penalty_Charging>
0

> <r_epik_Ionization_Penalty_Neutral>
0.253261

> <r_epik_State_Penalty>
0.244619

> <r_epik_Charging_Adjusted_Penalty>
0.244619

> <i_epik_Tot_Q>
1

> <i_epik_Tot_abs_Q>
1

> <r_epik_Metal_State_Penalty>
0.535039

> <b_epik_Metal_Only>
0

> <s_lp_Force_Field>
OPLS_2005

> <r_lp_Energy>
34.4969

> <b_lp_Chiralities_Consistent>
1

> <s_lp_Variant>
AV-unprocessed.smi:1555-1

> <Gold.Version>
5.8.1

> <Gold.Id.Protein>
6NUR|6NUR_protein|mol2

> <Gold.PLP.Fitness>
44.4452

> <Gold.PLP.PLP>
-39.4800

> <Gold.PLP.part.hbond>
-2.4197

> <Gold.PLP.part.metal>
0.0000

> <Gold.PLP.part.buried>
-4.0846

> <Gold.PLP.part.nonpolar>
-34.2798

> <Gold.PLP.part.repulsive>
0.3160

> <Gold.PLP.ligand.clash>
0.0000

> <Gold.PLP.ligand.torsion>
0.5799

> <Gold.PLP.Chemscore.Hbond>
2.0000

> <Gold.PLP.Chemscore.CHOScore>
0.0000

> <Gold.PLP.Chemscore.Metal>
0.0000

> <Gold.Chemscore.Hbonds>
donor molecule, donor type, donor heavy atom, donor atom, acceptor molecule, acceptor atom, score
      L1  H    17    37       P1  7957  1.00
      P1  H  7997  8008       L1    11  0.35

> <Gold.PLP.Chemscore.Internal.Correction>
0.1249

> <Gold.Rescore>
     Score         DG    S(hbond)    S(metal)    S(lipo)     H(rot)  DE(clash)    DE(int)     intcor
     12.83     -14.55       1.97        0.00      77.30       2.56       0.08       1.63       ----

> <Gold.Chemscore.Fitness>
12.8328

> <Gold.Chemscore.DG>
-14.5485

> <Gold.Chemscore.ZeroCoef>
-5.4800

> <Gold.Chemscore.Hbond>
1.9719

> <Gold.Chemscore.Metal>
0.0000

> <Gold.Chemscore.Lipo>
77.2956

> <Gold.Chemscore.Internal_Hbond>
0.0000

> <Gold.Chemscore.DEClash>
0.0840

> <Gold.Chemscore.DEInternal>
1.6317

> <Gold.Chemscore.Rot>
2.5630

> <Gold.Chemscore.Internal.Correction>
   9.000000E+99

> <Gold.Chemscore.Hbonds>
donor molecule, donor type, donor heavy atom, donor atom, acceptor molecule, acceptor atom, score
      L1  H    17    37       P1  7957  0.99
      P1  H  7997  8008       L1    11  0.35

> <Gold.Chemscore.Hbond.Weighted>
-6.5861

> <Gold.Chemscore.Metal.Weighted>
-0.0000

> <Gold.Chemscore.Lipo.Weighted>
-9.0436

> <Gold.Chemscore.Internal_Hbond.Weighted>
0.0000

> <Gold.Chemscore.DEClash.Weighted>
0.0840

> <Gold.Chemscore.DEInternal.Weighted>
1.6317

> <Gold.Chemscore.Rot.Weighted>
6.5612

> <Gold.Chemscore.Internal.Correction.Weighted>
   9.000000E+99

> <Gold.Protein.RotatedTorsions>
[ 6907 6896 6895 6894 ] final  -88.42 input  -60.11 | X-H torsion
[ 7974 7965 7964 7962 ] final  104.05 input  175.53 | X-H torsion
[ 8008 7997 7996 7995 ] final  -81.82 input   59.86 | X-H torsion
[ 10167 10162 10161 10158 ] final  -31.15 input  -65.29 | X-H torsion
[ 10718 10713 10712 10709 ] final   73.99 input   66.30 | X-H torsion
[ 10763 10752 10751 10750 ] final   19.05 input  -60.55 | X-H torsion
[ 11005 11000 10999 10996 ] final  163.55 input  -57.11 | X-H torsion

> <Gold.Protein.ActiveResidues>
 VAL166  LYS551  ARG553  GLY616  TRP617  ASP618  TYR619  PRO620  LYS621  CYS622 
 ASP623  PHE694  ASN695  SER759  ASP760  ASP761  ALA762  ILE779  LEU786  VAL792 
 PHE793  MET794  SER795  GLU796  ALA797  LYS798  CYS799  TRP800  GLU811  SER814 

> <Gold.Protein.RotatedAtoms>
  150.6869  134.2744  159.4601 H   0  0  0  0  0  0  0  0  0  0  0  0  # atno 6907 bound_to 6896
  152.0663  134.9559  160.0584 H   0  0  0  0  0  0  0  0  0  0  0  0  # atno 6908 bound_to 6896
  152.0966  133.4193  159.4605 H   0  0  0  0  0  0  0  0  0  0  0  0  # atno 6909 bound_to 6896
  145.3378  139.2470  143.3626 H   0  0  0  0  0  0  0  0  0  0  0  0  # atno 7974 bound_to 7965
  154.6022  140.0642  156.9383 H   0  0  0  0  0  0  0  0  0  0  0  0  # atno 8008 bound_to 7997
  155.2113  140.3323  155.4310 H   0  0  0  0  0  0  0  0  0  0  0  0  # atno 8009 bound_to 7997
  156.2325  140.1847  156.7189 H   0  0  0  0  0  0  0  0  0  0  0  0  # atno 8010 bound_to 7997
  140.7240  143.3793  151.1631 H   0  0  0  0  0  0  0  0  0  0  0  0  # atno 10167 bound_to 10162
  157.6572  130.9655  150.1147 H   0  0  0  0  0  0  0  0  0  0  0  0  # atno 10718 bound_to 10713
  153.1196  135.6716  153.9359 H   0  0  0  0  0  0  0  0  0  0  0  0  # atno 10763 bound_to 10752
  153.8878  135.3050  155.3448 H   0  0  0  0  0  0  0  0  0  0  0  0  # atno 10764 bound_to 10752
  154.7609  135.4988  153.9541 H   0  0  0  0  0  0  0  0  0  0  0  0  # atno 10765 bound_to 10752
  140.2369  134.8081  157.3373 H   0  0  0  0  0  0  0  0  0  0  0  0  # atno 11005 bound_to 11000
  146.3019  140.3969  142.8701 LP  0  0  0  0  0  0  0  0  0  0  0  0  # atno 17320 bound_to 7965
  144.8814  140.7405  143.5984 LP  0  0  0  0  0  0  0  0  0  0  0  0  # atno 17321 bound_to 7965
  139.7379  143.8971  152.3040 LP  0  0  0  0  0  0  0  0  0  0  0  0  # atno 17342 bound_to 10162
  139.8782  144.7032  150.8908 LP  0  0  0  0  0  0  0  0  0  0  0  0  # atno 17343 bound_to 10162
  156.2034  130.3662  149.8759 LP  0  0  0  0  0  0  0  0  0  0  0  0  # atno 17370 bound_to 10713
  156.6657  130.8800  151.3554 LP  0  0  0  0  0  0  0  0  0  0  0  0  # atno 17371 bound_to 10713
  140.1693  134.4629  155.7842 LP  0  0  0  0  0  0  0  0  0  0  0  0  # atno 17394 bound_to 11000
  141.2213  133.6934  156.7679 LP  0  0  0  0  0  0  0  0  0  0  0  0  # atno 17395 bound_to 11000

$$$$
