AV-unprocessed.smi:1344|AV-procd|sdf|5509|dock5
  -GOLD-   22720 5 93D 1   1.00000     0.00000
 Structure written by MMmdl.
 32 34  0  0  0  0  0  0  0  0  1 V2000
  153.3843  136.2735  157.2037 O   0  0  0  0  0  0  0  0  0  0  0  0
  152.6322  137.1645  157.5987 C   0  0  0  0  0  0  0  0  0  0  0  0
  152.4953  137.4416  159.0970 C   0  0  0  0  0  0  0  0  0  0  0  0
  152.9178  138.8493  159.4039 C   0  0  0  0  0  0  0  0  0  0  0  0
  153.9283  139.2388  160.2488 C   0  0  0  0  0  0  0  0  0  0  0  0
  154.0940  140.9721  160.3154 S   0  0  0  0  0  0  0  0  0  0  0  0
  152.7562  141.1098  159.1708 C   0  0  0  0  0  0  0  0  0  0  0  0
  152.2203  142.3186  158.6366 N   0  0  0  0  0  0  0  0  0  0  0  0
  152.6932  143.6275  159.0764 C   0  0  0  0  0  0  0  0  0  0  0  0
  151.8294  144.6108  158.2926 C   0  0  0  0  0  0  0  0  0  0  0  0
  151.0029  143.7274  157.5041 N   0  0  0  0  0  0  0  0  0  0  0  0
  151.2427  142.4313  157.7155 C   0  0  0  0  0  0  0  0  0  0  0  0
  150.6509  141.5197  157.1406 O   0  0  0  0  0  0  0  0  0  0  0  0
  152.2545  139.9259  158.8040 N   0  0  0  0  0  0  0  0  0  0  0  0
  151.9027  137.9395  156.7818 N   0  0  0  0  0  0  0  0  0  0  0  0
  151.8959  137.8718  155.3570 C   0  0  0  0  0  0  0  0  0  0  0  0
  152.8587  138.7693  154.6099 C   0  0  0  0  0  0  0  0  0  0  0  0
  151.3870  139.0788  154.5990 C   0  0  0  0  0  0  0  0  0  0  0  0
  151.4640  137.2693  159.4083 H   0  0  0  0  0  0  0  0  0  0  0  0
  153.1061  136.7268  159.6503 H   0  0  0  0  0  0  0  0  0  0  0  0
  154.5870  138.6115  160.8311 H   0  0  0  0  0  0  0  0  0  0  0  0
  152.5573  143.7461  160.1525 H   0  0  0  0  0  0  0  0  0  0  0  0
  153.7514  143.7529  158.8422 H   0  0  0  0  0  0  0  0  0  0  0  0
  151.2130  145.2274  158.9478 H   0  0  0  0  0  0  0  0  0  0  0  0
  152.4249  145.2589  157.6488 H   0  0  0  0  0  0  0  0  0  0  0  0
  150.3120  144.0711  156.8528 H   0  0  0  0  0  0  0  0  0  0  0  0
  151.3167  138.6451  157.2045 H   0  0  0  0  0  0  0  0  0  0  0  0
  151.6960  136.9023  154.9028 H   0  0  0  0  0  0  0  0  0  0  0  0
  153.5046  139.4219  155.1946 H   0  0  0  0  0  0  0  0  0  0  0  0
  153.2972  138.3810  153.6928 H   0  0  0  0  0  0  0  0  0  0  0  0
  150.8420  138.8968  153.6751 H   0  0  0  0  0  0  0  0  0  0  0  0
  151.0499  139.9380  155.1761 H   0  0  0  0  0  0  0  0  0  0  0  0
  1  2  2  0  0  0  0
  2  3  1  0  0  0  0
  2 15  1  0  0  0  0
  3  4  1  0  0  0  0
  3 19  1  0  0  0  0
  3 20  1  0  0  0  0
  4 14  1  0  0  0  0
  4  5  2  0  0  0  0
  5  6  1  0  0  0  0
  5 21  1  0  0  0  0
  6  7  1  0  0  0  0
  7  8  1  0  0  0  0
  7 14  2  0  0  0  0
  8 12  1  0  0  0  0
  8  9  1  0  0  0  0
  9 10  1  0  0  0  0
  9 22  1  0  0  0  0
  9 23  1  0  0  0  0
 10 11  1  0  0  0  0
 10 24  1  0  0  0  0
 10 25  1  0  0  0  0
 11 12  1  0  0  0  0
 11 26  1  0  0  0  0
 12 13  2  0  0  0  0
 15 16  1  0  0  0  0
 15 27  1  0  0  0  0
 16 18  1  0  0  0  0
 16 17  1  0  0  0  0
 16 28  1  0  0  0  0
 17 18  1  0  0  0  0
 17 29  1  0  0  0  0
 17 30  1  0  0  0  0
 18 31  1  0  0  0  0
 18 32  1  0  0  0  0
M  END
> <s_m_source_file>
AV-unprocessed.smi

> <i_m_source_file_index>
1344

> <i_lp_mmshare_version>
43012

> <i_f3d_flags>
0

> <s_epik_input>
W0NIMl0xW0NIMl1bQ0hdMVtOSF1DKD1PKVtDSDJdYzJbY0hdc2MobjIpTjNbQ0gyXVtDSDJdW05IXUMzPU8=

> <s_epik_cmdline>
J2VwaWtfcHl0aG9uJywgJy1waCcsICc3LjAnLCAnLXRuJywgJzgnLCAnLW1hJywgJzIwMCcsICctbWV0YWxfYmluZGluZycsICctaW1hZScsICc8aW5maWxlLm1hZT4nLCAnLW9tYWUnLCAnPG91dGZpbGUubWFlPic=

> <r_lp_tautomer_probability>
1

> <r_epik_Ionization_Penalty>
0.000119825

> <r_epik_Ionization_Penalty_Charging>
0

> <r_epik_Ionization_Penalty_Neutral>
0.000119825

> <r_epik_State_Penalty>
-0

> <r_epik_Charging_Adjusted_Penalty>
0

> <i_epik_Tot_Q>
0

> <i_epik_Tot_abs_Q>
0

> <r_epik_Metal_State_Penalty>
-0

> <b_epik_Metal_Only>
0

> <s_lp_Force_Field>
OPLS_2005

> <r_lp_Energy>
42.6691

> <b_lp_Chiralities_Consistent>
1

> <s_lp_Variant>
AV-unprocessed.smi:1344-1

> <Gold.Version>
5.8.1

> <Gold.Id.Protein>
6NUR|6NUR_protein|mol2

> <Gold.PLP.Fitness>
40.3823

> <Gold.PLP.PLP>
-35.0239

> <Gold.PLP.part.hbond>
-2.0000

> <Gold.PLP.part.metal>
0.0000

> <Gold.PLP.part.buried>
-5.0447

> <Gold.PLP.part.nonpolar>
-28.1670

> <Gold.PLP.part.repulsive>
0.1421

> <Gold.PLP.ligand.clash>
0.0000

> <Gold.PLP.ligand.torsion>
0.3282

> <Gold.PLP.Chemscore.Hbond>
1.9913

> <Gold.PLP.Chemscore.CHOScore>
0.0000

> <Gold.PLP.Chemscore.Metal>
0.0000

> <Gold.Chemscore.Hbonds>
donor molecule, donor type, donor heavy atom, donor atom, acceptor molecule, acceptor atom, score
      L1  H    11    26       P1  8028  1.00
      P1  H 10752 10763       L1     1  0.93

> <Gold.PLP.Chemscore.Internal.Correction>
0.0409

> <Gold.Rescore>
     Score         DG    S(hbond)    S(metal)    S(lipo)     H(rot)  DE(clash)    DE(int)     intcor
     15.30     -17.07       1.97        0.00      78.05       1.61       0.07       1.71       ----

> <Gold.Chemscore.Fitness>
15.2979

> <Gold.Chemscore.DG>
-17.0680

> <Gold.Chemscore.ZeroCoef>
-5.4800

> <Gold.Chemscore.Hbond>
1.9670

> <Gold.Chemscore.Metal>
0.0000

> <Gold.Chemscore.Lipo>
78.0461

> <Gold.Chemscore.Internal_Hbond>
0.0000

> <Gold.Chemscore.DEClash>
0.0650

> <Gold.Chemscore.DEInternal>
1.7050

> <Gold.Chemscore.Rot>
1.6067

> <Gold.Chemscore.Internal.Correction>
   9.000000E+99

> <Gold.Chemscore.Hbonds>
donor molecule, donor type, donor heavy atom, donor atom, acceptor molecule, acceptor atom, score
      L1  H    11    26       P1  8028  0.98
      P1  H 10752 10763       L1     1  0.88

> <Gold.Chemscore.Hbond.Weighted>
-6.5698

> <Gold.Chemscore.Metal.Weighted>
-0.0000

> <Gold.Chemscore.Lipo.Weighted>
-9.1314

> <Gold.Chemscore.Internal_Hbond.Weighted>
0.0000

> <Gold.Chemscore.DEClash.Weighted>
0.0650

> <Gold.Chemscore.DEInternal.Weighted>
1.7050

> <Gold.Chemscore.Rot.Weighted>
4.1132

> <Gold.Chemscore.Internal.Correction.Weighted>
   9.000000E+99

> <Gold.Protein.RotatedTorsions>
[ 6907 6896 6895 6894 ] final  171.89 input  -60.11 | X-H torsion
[ 7974 7965 7964 7962 ] final  -19.52 input  175.53 | X-H torsion
[ 8008 7997 7996 7995 ] final   55.05 input   59.86 | X-H torsion
[ 10167 10162 10161 10158 ] final  -68.29 input  -65.29 | X-H torsion
[ 10718 10713 10712 10709 ] final   91.60 input   66.30 | X-H torsion
[ 10763 10752 10751 10750 ] final  129.99 input  -60.55 | X-H torsion
[ 11005 11000 10999 10996 ] final -108.12 input  -57.11 | X-H torsion

> <Gold.Protein.ActiveResidues>
 VAL166  LYS551  ARG553  GLY616  TRP617  ASP618  TYR619  PRO620  LYS621  CYS622 
 ASP623  PHE694  ASN695  SER759  ASP760  ASP761  ALA762  ILE779  LEU786  VAL792 
 PHE793  MET794  SER795  GLU796  ALA797  LYS798  CYS799  TRP800  GLU811  SER814 

> <Gold.Protein.RotatedAtoms>
  151.7930  133.3361  159.3504 H   0  0  0  0  0  0  0  0  0  0  0  0  # atno 6907 bound_to 6896
  150.7385  134.5825  159.5955 H   0  0  0  0  0  0  0  0  0  0  0  0  # atno 6908 bound_to 6896
  152.3197  134.7397  160.0368 H   0  0  0  0  0  0  0  0  0  0  0  0  # atno 6909 bound_to 6896
  146.1837  140.4073  142.8484 H   0  0  0  0  0  0  0  0  0  0  0  0  # atno 7974 bound_to 7965
  155.4947  140.3472  155.4361 H   0  0  0  0  0  0  0  0  0  0  0  0  # atno 8008 bound_to 7997
  156.0953  140.1421  156.9566 H   0  0  0  0  0  0  0  0  0  0  0  0  # atno 8009 bound_to 7997
  154.4660  140.0917  156.6998 H   0  0  0  0  0  0  0  0  0  0  0  0  # atno 8010 bound_to 7997
  140.5519  143.2312  151.6895 H   0  0  0  0  0  0  0  0  0  0  0  0  # atno 10167 bound_to 10162
  157.6960  131.0413  150.3755 H   0  0  0  0  0  0  0  0  0  0  0  0  # atno 10718 bound_to 10713
  153.7508  135.3210  155.3321 H   0  0  0  0  0  0  0  0  0  0  0  0  # atno 10763 bound_to 10752
  154.8264  135.4567  154.0934 H   0  0  0  0  0  0  0  0  0  0  0  0  # atno 10764 bound_to 10752
  153.2136  135.6939  153.8167 H   0  0  0  0  0  0  0  0  0  0  0  0  # atno 10765 bound_to 10752
  141.0918  133.9041  157.2057 H   0  0  0  0  0  0  0  0  0  0  0  0  # atno 11005 bound_to 11000
  144.8359  140.6781  143.6261 LP  0  0  0  0  0  0  0  0  0  0  0  0  # atno 17320 bound_to 7965
  145.4002  139.1599  143.4181 LP  0  0  0  0  0  0  0  0  0  0  0  0  # atno 17321 bound_to 7965
  139.5031  144.3804  152.0381 LP  0  0  0  0  0  0  0  0  0  0  0  0  # atno 17342 bound_to 10162
  140.2922  144.3741  150.6085 LP  0  0  0  0  0  0  0  0  0  0  0  0  # atno 17343 bound_to 10162
  156.4175  130.3946  149.6848 LP  0  0  0  0  0  0  0  0  0  0  0  0  # atno 17370 bound_to 10713
  156.4111  130.7722  151.2735 LP  0  0  0  0  0  0  0  0  0  0  0  0  # atno 17371 bound_to 10713
  139.9746  135.0118  156.9598 LP  0  0  0  0  0  0  0  0  0  0  0  0  # atno 17394 bound_to 11000
  140.5234  134.0885  155.7297 LP  0  0  0  0  0  0  0  0  0  0  0  0  # atno 17395 bound_to 11000

$$$$
