AV-unprocessed.smi:532|AV-procd|sdf|2852|dock1
  -GOLD-   2262023343D 1   1.00000     0.00000
 Structure written by MMmdl.
 48 50  0  0  0  0  0  0  0  0  2 V2000
  154.0212  141.2140  162.2943 C   0  0  0  0  0  0  0  0  0  0  0  0
  154.8902  140.7495  161.2769 O   0  0  0  0  0  0  0  0  0  0  0  0
  154.3035  140.8240  159.9890 C   0  0  0  0  0  0  0  0  0  0  0  0
  153.2647  139.7052  159.8522 C   0  0  0  0  0  0  0  0  0  0  0  0
  152.6484  139.7089  158.5303 N   0  0  0  0  0  0  0  0  0  0  0  0
  151.9946  140.7259  157.9036 C   0  0  0  0  0  0  0  0  0  0  0  0
  151.8395  141.9953  158.4706 N   0  0  0  0  0  0  0  0  0  0  0  0
  151.6163  142.1678  159.9068 C   0  0  0  0  0  0  0  0  0  0  0  0
  152.3392  143.4019  160.4755 C   0  0  2  0  0  0  0  0  0  0  0  0
  152.1299  143.5227  161.9910 C   0  0  0  0  0  0  0  0  0  0  0  0
  151.8623  144.6639  159.7404 C   0  0  0  0  0  0  0  0  0  0  0  0
  152.0045  144.5024  158.2178 C   0  0  1  0  0  0  0  0  0  0  0  0
  153.4580  144.6711  157.7446 C   0  0  0  0  0  0  0  0  0  0  0  0
  151.3523  143.1785  157.7532 C   0  0  0  0  0  0  0  0  0  0  0  0
  151.4796  140.4003  156.7154 N   0  0  0  0  0  0  0  0  0  0  0  0
  151.8460  139.0727  156.5647 C   0  0  0  0  0  0  0  0  0  0  0  0
  152.5395  138.6292  157.6466 C   0  0  0  0  0  0  0  0  0  0  0  0
  153.0267  137.2393  157.7962 C   0  0  0  0  0  0  0  0  0  0  0  0
  153.6189  136.8781  158.8110 O   0  0  0  0  0  0  0  0  0  0  0  0
  152.7288  136.4664  156.7042 N   0  5  0  0  0  0  0  0  0  0  0  0
  152.0386  136.8778  155.5843 C   0  0  0  0  0  0  0  0  0  0  0  0
  151.8120  136.1154  154.6437 O   0  0  0  0  0  0  0  0  0  0  0  0
  151.5846  138.1676  155.5003 N   0  0  0  0  0  0  0  0  0  0  0  0
  150.8373  138.6295  154.3270 C   0  0  0  0  0  0  0  0  0  0  0  0
  154.5140  141.1308  163.2628 H   0  0  0  0  0  0  0  0  0  0  0  0
  153.1046  140.6238  162.3304 H   0  0  0  0  0  0  0  0  0  0  0  0
  153.7582  142.2613  162.1394 H   0  0  0  0  0  0  0  0  0  0  0  0
  153.8322  141.7974  159.8453 H   0  0  0  0  0  0  0  0  0  0  0  0
  155.0732  140.7149  159.2230 H   0  0  0  0  0  0  0  0  0  0  0  0
  153.7283  138.7443  160.0393 H   0  0  0  0  0  0  0  0  0  0  0  0
  152.4948  139.7932  160.6169 H   0  0  0  0  0  0  0  0  0  0  0  0
  150.5438  142.2331  160.0957 H   0  0  0  0  0  0  0  0  0  0  0  0
  151.9672  141.2770  160.4295 H   0  0  0  0  0  0  0  0  0  0  0  0
  153.4091  143.2790  160.3035 H   0  0  0  0  0  0  0  0  0  0  0  0
  151.0746  143.6448  162.2372 H   0  0  0  0  0  0  0  0  0  0  0  0
  152.6682  144.3809  162.3943 H   0  0  0  0  0  0  0  0  0  0  0  0
  152.4917  142.6341  162.5086 H   0  0  0  0  0  0  0  0  0  0  0  0
  150.8138  144.8451  159.9814 H   0  0  0  0  0  0  0  0  0  0  0  0
  152.4109  145.5410  160.0856 H   0  0  0  0  0  0  0  0  0  0  0  0
  151.4435  145.3155  157.7557 H   0  0  0  0  0  0  0  0  0  0  0  0
  154.1049  143.8843  158.1303 H   0  0  0  0  0  0  0  0  0  0  0  0
  153.8684  145.6253  158.0757 H   0  0  0  0  0  0  0  0  0  0  0  0
  153.5206  144.6544  156.6566 H   0  0  0  0  0  0  0  0  0  0  0  0
  151.4643  143.0519  156.6772 H   0  0  0  0  0  0  0  0  0  0  0  0
  150.2760  143.2395  157.9196 H   0  0  0  0  0  0  0  0  0  0  0  0
  151.4407  138.5252  153.4243 H   0  0  0  0  0  0  0  0  0  0  0  0
  150.5412  139.6756  154.4011 H   0  0  0  0  0  0  0  0  0  0  0  0
  149.9271  138.0422  154.1992 H   0  0  0  0  0  0  0  0  0  0  0  0
  1  2  1  0  0  0  0
  1 25  1  0  0  0  0
  1 26  1  0  0  0  0
  1 27  1  0  0  0  0
  2  3  1  0  0  0  0
  3  4  1  0  0  0  0
  3 28  1  0  0  0  0
  3 29  1  0  0  0  0
  4  5  1  0  0  0  0
  4 30  1  0  0  0  0
  4 31  1  0  0  0  0
  5 17  1  0  0  0  0
  5  6  1  0  0  0  0
  6  7  1  0  0  0  0
  6 15  2  0  0  0  0
  7 14  1  0  0  0  0
  7  8  1  0  0  0  0
  8  9  1  0  0  0  0
  8 32  1  0  0  0  0
  8 33  1  0  0  0  0
  9 10  1  0  0  0  0
  9 11  1  0  0  0  0
  9 34  1  0  0  0  0
 10 35  1  0  0  0  0
 10 36  1  0  0  0  0
 10 37  1  0  0  0  0
 11 12  1  0  0  0  0
 11 38  1  0  0  0  0
 11 39  1  0  0  0  0
 12 13  1  0  0  0  0
 12 14  1  0  0  0  0
 12 40  1  0  0  0  0
 13 41  1  0  0  0  0
 13 42  1  0  0  0  0
 13 43  1  0  0  0  0
 14 44  1  0  0  0  0
 14 45  1  0  0  0  0
 15 16  1  0  0  0  0
 16 23  1  0  0  0  0
 16 17  2  0  0  0  0
 17 18  1  0  0  0  0
 18 19  2  0  0  0  0
 18 20  1  0  0  0  0
 20 21  1  0  0  0  0
 21 22  2  0  0  0  0
 21 23  1  0  0  0  0
 23 24  1  0  0  0  0
 24 46  1  0  0  0  0
 24 47  1  0  0  0  0
 24 48  1  0  0  0  0
M  CHG  1  20  -1
M  END
> <s_m_source_file>
AV-unprocessed.smi

> <i_m_source_file_index>
532

> <i_lp_mmshare_version>
43012

> <i_f3d_flags>
0

> <s_epik_input>
W0NIM11uMWMoPU8pW25IXWMoPU8pYyhjMTIpbihbQ0gyXVtDSDJdT1tDSDNdKWMobjIpTjNbQ0gyXVtDQEBIXShbQ0gzXSlbQ0gyXVtDQEBIXShbQ0gzXSlbQ0gyXTM=

> <s_epik_cmdline>
J2VwaWtfcHl0aG9uJywgJy1waCcsICc3LjAnLCAnLXRuJywgJzgnLCAnLW1hJywgJzIwMCcsICctbWV0YWxfYmluZGluZycsICctaW1hZScsICc8aW5maWxlLm1hZT4nLCAnLW9tYWUnLCAnPG91dGZpbGUubWFlPic=

> <r_lp_tautomer_probability>
1

> <r_epik_Ionization_Penalty>
5.12128

> <r_epik_Ionization_Penalty_Charging>
0.0789629

> <r_epik_Ionization_Penalty_Neutral>
5.04232

> <r_epik_State_Penalty>
5.03111

> <r_epik_Charging_Adjusted_Penalty>
5.11007

> <i_epik_Tot_Q>
-1

> <i_epik_Tot_abs_Q>
1

> <r_epik_Metal_State_Penalty>
1.14201

> <b_epik_Metal_Only>
1

> <s_lp_Force_Field>
OPLS_2005

> <r_lp_Energy>
45.9264

> <b_lp_Chiralities_Consistent>
1

> <s_lp_Variant>
AV-unprocessed.smi:532-5

> <Gold.Version>
5.8.1

> <Gold.Id.Protein>
6NUR|6NUR_protein|mol2

> <Gold.PLP.Fitness>
48.6555

> <Gold.PLP.PLP>
-44.1701

> <Gold.PLP.part.hbond>
-2.1518

> <Gold.PLP.part.metal>
0.0000

> <Gold.PLP.part.buried>
-4.3516

> <Gold.PLP.part.nonpolar>
-38.5814

> <Gold.PLP.part.repulsive>
1.4307

> <Gold.PLP.ligand.clash>
1.2006

> <Gold.PLP.ligand.torsion>
0.3987

> <Gold.PLP.Chemscore.Hbond>
1.9840

> <Gold.PLP.Chemscore.CHOScore>
0.0000

> <Gold.PLP.Chemscore.Metal>
0.0000

> <Gold.PLP.Chemscore.Internal.Correction>
0.5314

> <Gold.Rescore>
     Score         DG    S(hbond)    S(metal)    S(lipo)     H(rot)  DE(clash)    DE(int)     intcor
     13.44     -16.72       0.00        0.00     126.87       1.41       1.85       1.42       ----

> <Gold.Chemscore.Fitness>
13.4448

> <Gold.Chemscore.DG>
-16.7169

> <Gold.Chemscore.ZeroCoef>
-5.4800

> <Gold.Chemscore.Hbond>
0.0043

> <Gold.Chemscore.Metal>
0.0000

> <Gold.Chemscore.Lipo>
126.8738

> <Gold.Chemscore.Internal_Hbond>
0.0000

> <Gold.Chemscore.DEClash>
1.8482

> <Gold.Chemscore.DEInternal>
1.4240

> <Gold.Chemscore.Rot>
1.4147

> <Gold.Chemscore.Internal.Correction>
   9.000000E+99

> <Gold.Chemscore.Hbonds>
donor molecule, donor type, donor heavy atom, donor atom, acceptor molecule, acceptor atom, score
      P1  H 10752 10765       L1    22  0.02

> <Gold.Chemscore.Hbond.Weighted>
-0.0143

> <Gold.Chemscore.Metal.Weighted>
-0.0000

> <Gold.Chemscore.Lipo.Weighted>
-14.8442

> <Gold.Chemscore.Internal_Hbond.Weighted>
0.0000

> <Gold.Chemscore.DEClash.Weighted>
1.8482

> <Gold.Chemscore.DEInternal.Weighted>
1.4240

> <Gold.Chemscore.Rot.Weighted>
3.6216

> <Gold.Chemscore.Internal.Correction.Weighted>
   9.000000E+99

> <Gold.Protein.RotatedTorsions>
[ 6907 6896 6895 6894 ] final   26.16 input  -60.11 | X-H torsion
[ 7974 7965 7964 7962 ] final -112.84 input  175.53 | X-H torsion
[ 8008 7997 7996 7995 ] final  145.60 input   59.86 | X-H torsion
[ 10167 10162 10161 10158 ] final -133.44 input  -65.29 | X-H torsion
[ 10718 10713 10712 10709 ] final  -54.17 input   66.30 | X-H torsion
[ 10763 10752 10751 10750 ] final  110.04 input  -60.55 | X-H torsion
[ 11005 11000 10999 10996 ] final   78.21 input  -57.11 | X-H torsion

> <Gold.Protein.ActiveResidues>
 VAL166  LYS551  ARG553  GLY616  TRP617  ASP618  TYR619  PRO620  LYS621  CYS622 
 ASP623  PHE694  ASN695  SER759  ASP760  ASP761  ALA762  ILE779  LEU786  VAL792 
 PHE793  MET794  SER795  GLU796  ALA797  LYS798  CYS799  TRP800  GLU811  SER814 

> <Gold.Protein.RotatedAtoms>
  151.9832  135.0017  160.0558 H   0  0  0  0  0  0  0  0  0  0  0  0  # atno 6907 bound_to 6896
  152.1677  133.4618  159.4901 H   0  0  0  0  0  0  0  0  0  0  0  0  # atno 6908 bound_to 6896
  150.6897  134.1910  159.4328 H   0  0  0  0  0  0  0  0  0  0  0  0  # atno 6909 bound_to 6896
  145.1392  140.8768  143.3712 H   0  0  0  0  0  0  0  0  0  0  0  0  # atno 7974 bound_to 7965
  156.2878  140.2204  156.5242 H   0  0  0  0  0  0  0  0  0  0  0  0  # atno 8008 bound_to 7997
  154.7503  140.0481  157.0909 H   0  0  0  0  0  0  0  0  0  0  0  0  # atno 8009 bound_to 7997
  155.0118  140.3114  155.4830 H   0  0  0  0  0  0  0  0  0  0  0  0  # atno 8010 bound_to 7997
  139.8982  143.6639  152.2600 H   0  0  0  0  0  0  0  0  0  0  0  0  # atno 10167 bound_to 10162
  156.1473  130.4152  150.0003 H   0  0  0  0  0  0  0  0  0  0  0  0  # atno 10718 bound_to 10713
  153.4433  135.3761  155.2241 H   0  0  0  0  0  0  0  0  0  0  0  0  # atno 10763 bound_to 10752
  154.8754  135.3868  154.4126 H   0  0  0  0  0  0  0  0  0  0  0  0  # atno 10764 bound_to 10752
  153.4675  135.7087  153.6077 H   0  0  0  0  0  0  0  0  0  0  0  0  # atno 10765 bound_to 10752
  139.9222  134.7745  156.1620 H   0  0  0  0  0  0  0  0  0  0  0  0  # atno 11005 bound_to 11000
  145.0550  139.3150  143.5909 LP  0  0  0  0  0  0  0  0  0  0  0  0  # atno 17320 bound_to 7965
  146.3507  139.9972  142.8679 LP  0  0  0  0  0  0  0  0  0  0  0  0  # atno 17321 bound_to 7965
  139.7049  144.7629  151.1211 LP  0  0  0  0  0  0  0  0  0  0  0  0  # atno 17342 bound_to 10162
  140.7712  143.5408  150.9314 LP  0  0  0  0  0  0  0  0  0  0  0  0  # atno 17343 bound_to 10162
  156.7871  130.9242  151.3646 LP  0  0  0  0  0  0  0  0  0  0  0  0  # atno 17370 bound_to 10713
  157.6627  130.8980  149.9865 LP  0  0  0  0  0  0  0  0  0  0  0  0  # atno 17371 bound_to 10713
  141.0752  133.6779  156.2222 LP  0  0  0  0  0  0  0  0  0  0  0  0  # atno 17394 bound_to 11000
  140.6440  134.5136  157.5572 LP  0  0  0  0  0  0  0  0  0  0  0  0  # atno 17395 bound_to 11000

$$$$
