AV-unprocessed.smi:1021|AV-procd|sdf|4457|dock4
  -GOLD-   22720 2433D 1   1.00000     0.00000
 Structure written by MMmdl.
 43 45  0  0  0  0  0  0  0  0  2 V2000
  145.9209  141.5105  153.9801 O   0  0  0  0  0  0  0  0  0  0  0  0
  147.2969  141.3135  153.7333 C   0  0  0  0  0  0  0  0  0  0  0  0
  148.1350  141.8587  154.8992 C   0  0  0  0  0  0  0  0  0  0  0  0
  149.5663  141.2913  154.9314 C   0  0  0  0  0  0  0  0  0  0  0  0
  150.3841  141.8000  156.0793 C   0  0  0  0  0  0  0  0  0  0  0  0
  150.5871  143.1030  156.4301 N   0  3  0  0  0  0  0  0  0  0  0  0
  151.4011  143.1697  157.5612 C   0  0  0  0  0  0  0  0  0  0  0  0
  151.8767  144.2637  158.2774 C   0  0  0  0  0  0  0  0  0  0  0  0
  152.6935  143.9833  159.3924 C   0  0  0  0  0  0  0  0  0  0  0  0
  153.0094  142.6581  159.7558 C   0  0  0  0  0  0  0  0  0  0  0  0
  152.5210  141.5573  159.0214 C   0  0  0  0  0  0  0  0  0  0  0  0
  151.7117  141.8427  157.9216 C   0  0  0  0  0  0  0  0  0  0  0  0
  151.0622  141.0335  156.9811 N   0  0  0  0  0  0  0  0  0  0  0  0
  151.1791  139.5690  157.0723 C   0  0  0  0  0  0  0  0  0  0  0  0
  151.7279  138.9285  155.7817 C   0  0  1  0  0  0  0  0  0  0  0  0
  153.1217  139.1480  155.6826 O   0  0  0  0  0  0  0  0  0  0  0  0
  151.3720  137.4523  155.7044 C   0  0  0  0  0  0  0  0  0  0  0  0
  150.5647  136.9766  154.6488 C   0  0  0  0  0  0  0  0  0  0  0  0
  150.2237  135.6119  154.5750 C   0  0  0  0  0  0  0  0  0  0  0  0
  150.6855  134.7156  155.5578 C   0  0  0  0  0  0  0  0  0  0  0  0
  150.3561  133.4043  155.4870 F   0  0  0  0  0  0  0  0  0  0  0  0
  151.4887  135.1846  156.6150 C   0  0  0  0  0  0  0  0  0  0  0  0
  151.8302  136.5491  156.6893 C   0  0  0  0  0  0  0  0  0  0  0  0
  145.4274  140.9460  153.4046 H   0  0  0  0  0  0  0  0  0  0  0  0
  147.4904  140.2520  153.5758 H   0  0  0  0  0  0  0  0  0  0  0  0
  147.5595  141.8300  152.8097 H   0  0  0  0  0  0  0  0  0  0  0  0
  148.1850  142.9445  154.8106 H   0  0  0  0  0  0  0  0  0  0  0  0
  147.6251  141.6489  155.8407 H   0  0  0  0  0  0  0  0  0  0  0  0
  149.5353  140.2029  154.9912 H   0  0  0  0  0  0  0  0  0  0  0  0
  150.0809  141.5386  154.0026 H   0  0  0  0  0  0  0  0  0  0  0  0
  151.6375  145.2797  157.9993 H   0  0  0  0  0  0  0  0  0  0  0  0
  153.0864  144.8007  159.9795 H   0  0  0  0  0  0  0  0  0  0  0  0
  153.6401  142.4817  160.6149 H   0  0  0  0  0  0  0  0  0  0  0  0
  152.7747  140.5470  159.3057 H   0  0  0  0  0  0  0  0  0  0  0  0
  151.7884  139.3077  157.9376 H   0  0  0  0  0  0  0  0  0  0  0  0
  150.1813  139.1806  157.2804 H   0  0  0  0  0  0  0  0  0  0  0  0
  151.2768  139.4304  154.9249 H   0  0  0  0  0  0  0  0  0  0  0  0
  153.4550  138.6318  154.9643 H   0  0  0  0  0  0  0  0  0  0  0  0
  150.2021  137.6561  153.8915 H   0  0  0  0  0  0  0  0  0  0  0  0
  149.6069  135.2527  153.7643 H   0  0  0  0  0  0  0  0  0  0  0  0
  151.8420  134.4978  157.3702 H   0  0  0  0  0  0  0  0  0  0  0  0
  152.4437  136.9003  157.5061 H   0  0  0  0  0  0  0  0  0  0  0  0
  150.1934  143.8887  155.9288 H   0  0  0  0  0  0  0  0  0  0  0  0
  1  2  1  0  0  0  0
  1 24  1  0  0  0  0
  2  3  1  0  0  0  0
  2 25  1  0  0  0  0
  2 26  1  0  0  0  0
  3  4  1  0  0  0  0
  3 27  1  0  0  0  0
  3 28  1  0  0  0  0
  4  5  1  0  0  0  0
  4 29  1  0  0  0  0
  4 30  1  0  0  0  0
  5 13  1  0  0  0  0
  5  6  2  0  0  0  0
  6  7  1  0  0  0  0
  6 43  1  0  0  0  0
  7 12  2  0  0  0  0
  7  8  1  0  0  0  0
  8  9  2  0  0  0  0
  8 31  1  0  0  0  0
  9 10  1  0  0  0  0
  9 32  1  0  0  0  0
 10 11  2  0  0  0  0
 10 33  1  0  0  0  0
 11 12  1  0  0  0  0
 11 34  1  0  0  0  0
 12 13  1  0  0  0  0
 13 14  1  0  0  0  0
 14 15  1  0  0  0  0
 14 35  1  0  0  0  0
 14 36  1  0  0  0  0
 15 16  1  0  0  0  0
 15 17  1  0  0  0  0
 15 37  1  0  0  0  0
 16 38  1  0  0  0  0
 17 23  1  0  0  0  0
 17 18  2  0  0  0  0
 18 19  1  0  0  0  0
 18 39  1  0  0  0  0
 19 20  2  0  0  0  0
 19 40  1  0  0  0  0
 20 21  1  0  0  0  0
 20 22  1  0  0  0  0
 22 23  2  0  0  0  0
 22 41  1  0  0  0  0
 23 42  1  0  0  0  0
M  CHG  1   6   1
M  END
> <s_m_source_file>
AV-unprocessed.smi

> <i_m_source_file_index>
1021

> <i_lp_mmshare_version>
43012

> <i_f3d_flags>
0

> <s_epik_input>
W09IXVtDSDJdW0NIMl1bQ0gyXWMobjEpbihjKGMxMilbY0hdW2NIXVtjSF1bY0hdMilbQ0gyXVtDQEhdKFtPSF0pYzNbY0hdW2NIXWMoRilbY0hdW2NIXTM=

> <s_epik_cmdline>
J2VwaWtfcHl0aG9uJywgJy1waCcsICc3LjAnLCAnLXRuJywgJzgnLCAnLW1hJywgJzIwMCcsICctbWV0YWxfYmluZGluZycsICctaW1hZScsICc8aW5maWxlLm1hZT4nLCAnLW9tYWUnLCAnPG91dGZpbGUubWFlPic=

> <r_epik_Ionization_Penalty>
0.786441

> <r_epik_Ionization_Penalty_Charging>
0.786439

> <r_epik_Ionization_Penalty_Neutral>
1.96029e-06

> <r_epik_State_Penalty>
0.816472

> <r_epik_Charging_Adjusted_Penalty>
1.60291

> <i_epik_Tot_Q>
1

> <i_epik_Tot_abs_Q>
1

> <r_epik_Metal_State_Penalty>
4.73733

> <b_epik_Metal_Only>
0

> <s_lp_Force_Field>
OPLS_2005

> <r_lp_Energy>
16.4086

> <b_lp_Chiralities_Consistent>
1

> <s_lp_Variant>
AV-unprocessed.smi:1021-4

> <Gold.Version>
5.8.1

> <Gold.Id.Protein>
6NUR|6NUR_protein|mol2

> <Gold.PLP.Fitness>
59.2856

> <Gold.PLP.PLP>
-48.2000

> <Gold.PLP.part.hbond>
-2.8870

> <Gold.PLP.part.metal>
0.0000

> <Gold.PLP.part.buried>
-5.0244

> <Gold.PLP.part.nonpolar>
-42.7608

> <Gold.PLP.part.repulsive>
0.0848

> <Gold.PLP.ligand.clash>
0.0000

> <Gold.PLP.ligand.torsion>
0.3182

> <Gold.PLP.Chemscore.Hbond>
3.8800

> <Gold.PLP.Chemscore.CHOScore>
0.0000

> <Gold.PLP.Chemscore.Metal>
0.0000

> <Gold.Chemscore.Hbonds>
donor molecule, donor type, donor heavy atom, donor atom, acceptor molecule, acceptor atom, score
      L1  H     1    24       P1 10175  0.98
      L1  H     6    43       P1  8028  1.86
      P1  H  7997  8009       L1    16  1.00

> <Gold.PLP.Chemscore.Internal.Correction>
0.0819

> <Gold.Rescore>
     Score         DG    S(hbond)    S(metal)    S(lipo)     H(rot)  DE(clash)    DE(int)     intcor
     21.13     -21.63       2.77        0.00     128.18       3.16       0.04       0.46       ----

> <Gold.Chemscore.Fitness>
21.1288

> <Gold.Chemscore.DG>
-21.6330

> <Gold.Chemscore.ZeroCoef>
-5.4800

> <Gold.Chemscore.Hbond>
2.7685

> <Gold.Chemscore.Metal>
0.0000

> <Gold.Chemscore.Lipo>
128.1777

> <Gold.Chemscore.Internal_Hbond>
0.0000

> <Gold.Chemscore.DEClash>
0.0431

> <Gold.Chemscore.DEInternal>
0.4611

> <Gold.Chemscore.Rot>
3.1604

> <Gold.Chemscore.Internal.Correction>
   9.000000E+99

> <Gold.Chemscore.Hbonds>
donor molecule, donor type, donor heavy atom, donor atom, acceptor molecule, acceptor atom, score
      L1  H     1    24       P1 10175  0.58
      L1  H     6    43       P1  8028  0.86
      P1  H  7997  8009       L1    16  0.74

> <Gold.Chemscore.Hbond.Weighted>
-9.2469

> <Gold.Chemscore.Metal.Weighted>
-0.0000

> <Gold.Chemscore.Lipo.Weighted>
-14.9968

> <Gold.Chemscore.Internal_Hbond.Weighted>
0.0000

> <Gold.Chemscore.DEClash.Weighted>
0.0431

> <Gold.Chemscore.DEInternal.Weighted>
0.4611

> <Gold.Chemscore.Rot.Weighted>
8.0907

> <Gold.Chemscore.Internal.Correction.Weighted>
   9.000000E+99

> <Gold.Protein.RotatedTorsions>
[ 6907 6896 6895 6894 ] final   61.69 input  -60.11 | X-H torsion
[ 7974 7965 7964 7962 ] final   -3.47 input  175.53 | X-H torsion
[ 8008 7997 7996 7995 ] final -162.05 input   59.86 | X-H torsion
[ 10167 10162 10161 10158 ] final  -99.15 input  -65.29 | X-H torsion
[ 10718 10713 10712 10709 ] final   12.90 input   66.30 | X-H torsion
[ 10763 10752 10751 10750 ] final  124.13 input  -60.55 | X-H torsion
[ 11005 11000 10999 10996 ] final  -91.16 input  -57.11 | X-H torsion

> <Gold.Protein.ActiveResidues>
 VAL166  LYS551  ARG553  GLY616  TRP617  ASP618  TYR619  PRO620  LYS621  CYS622 
 ASP623  PHE694  ASN695  SER759  ASP760  ASP761  ALA762  ILE779  LEU786  VAL792 
 PHE793  MET794  SER795  GLU796  ALA797  LYS798  CYS799  TRP800  GLU811  SER814 

> <Gold.Protein.RotatedAtoms>
  152.4110  134.6124  160.0028 H   0  0  0  0  0  0  0  0  0  0  0  0  # atno 6907 bound_to 6896
  151.6301  133.3327  159.3115 H   0  0  0  0  0  0  0  0  0  0  0  0  # atno 6908 bound_to 6896
  150.8001  134.7129  159.6659 H   0  0  0  0  0  0  0  0  0  0  0  0  # atno 6909 bound_to 6896
  146.2389  140.1726  142.8332 H   0  0  0  0  0  0  0  0  0  0  0  0  # atno 7974 bound_to 7965
  155.8011  140.0892  157.1956 H   0  0  0  0  0  0  0  0  0  0  0  0  # atno 8008 bound_to 7997
  154.3982  140.1472  156.3334 H   0  0  0  0  0  0  0  0  0  0  0  0  # atno 8009 bound_to 7997
  155.8461  140.3436  155.5666 H   0  0  0  0  0  0  0  0  0  0  0  0  # atno 8010 bound_to 7997
  140.2655  143.3379  152.0585 H   0  0  0  0  0  0  0  0  0  0  0  0  # atno 10167 bound_to 10162
  157.0168  130.6139  149.5715 H   0  0  0  0  0  0  0  0  0  0  0  0  # atno 10718 bound_to 10713
  153.6565  135.3354  155.3115 H   0  0  0  0  0  0  0  0  0  0  0  0  # atno 10763 bound_to 10752
  154.8525  135.4353  154.1849 H   0  0  0  0  0  0  0  0  0  0  0  0  # atno 10764 bound_to 10752
  153.2805  135.7008  153.7465 H   0  0  0  0  0  0  0  0  0  0  0  0  # atno 10765 bound_to 10752
  141.1551  133.7738  156.9840 H   0  0  0  0  0  0  0  0  0  0  0  0  # atno 11005 bound_to 11000
  144.9999  140.8622  143.5288 LP  0  0  0  0  0  0  0  0  0  0  0  0  # atno 17320 bound_to 7965
  145.1744  139.2386  143.5325 LP  0  0  0  0  0  0  0  0  0  0  0  0  # atno 17321 bound_to 7965
  139.5004  144.6691  151.6286 LP  0  0  0  0  0  0  0  0  0  0  0  0  # atno 17342 bound_to 10162
  140.5932  143.9743  150.6338 LP  0  0  0  0  0  0  0  0  0  0  0  0  # atno 17343 bound_to 10162
  156.0116  130.5208  150.8007 LP  0  0  0  0  0  0  0  0  0  0  0  0  # atno 17370 bound_to 10713
  157.5279  131.0935  150.9993 LP  0  0  0  0  0  0  0  0  0  0  0  0  # atno 17371 bound_to 10713
  140.1047  134.9514  157.1976 LP  0  0  0  0  0  0  0  0  0  0  0  0  # atno 17394 bound_to 11000
  140.3272  134.2850  155.7235 LP  0  0  0  0  0  0  0  0  0  0  0  0  # atno 17395 bound_to 11000

$$$$
