AV-unprocessed.smi:527|AV-procd|sdf|2830|dock4
  -GOLD-   2262023313D 1   1.00000     0.00000
 Structure written by MMmdl.
 43 44  0  0  0  0  0  0  0  0  2 V2000
  153.3469  143.3137  163.1061 C   0  0  0  0  0  0  0  0  0  0  0  0
  152.6092  143.0921  161.7732 C   0  0  1  0  0  0  0  0  0  0  0  0
  151.9146  144.3990  161.3379 C   0  0  0  0  0  0  0  0  0  0  0  0
  151.1494  144.2372  160.0177 C   0  0  0  0  0  0  0  0  0  0  0  0
  152.0762  143.7282  158.9049 C   0  0  0  0  0  0  0  0  0  0  0  0
  152.7786  142.4144  159.3015 C   0  0  2  0  0  0  0  0  0  0  0  0
  151.8233  141.3067  159.3578 N   0  0  0  0  0  0  0  0  0  0  0  0
  151.6933  140.3384  158.4397 C   0  0  0  0  0  0  0  0  0  0  0  0
  152.3858  140.2698  157.4222 O   0  0  0  0  0  0  0  0  0  0  0  0
  150.7233  139.4725  158.7897 N   0  0  0  0  0  0  0  0  0  0  0  0
  150.0690  138.6054  157.9901 C   0  0  0  0  0  0  0  0  0  0  0  0
  149.2000  137.8130  158.3581 O   0  0  0  0  0  0  0  0  0  0  0  0
  150.4506  138.6521  156.5103 C   0  0  0  0  0  0  0  0  0  0  0  0
  149.7379  139.7306  155.8192 N   0  0  0  0  0  0  0  0  0  0  0  0
  148.9785  139.6307  154.6811 C   0  0  0  0  0  0  0  0  0  0  0  0
  148.5229  140.8938  154.4031 C   0  0  0  0  0  0  0  0  0  0  0  0
  149.0237  141.7108  155.3811 N   0  3  0  0  0  0  0  0  0  0  0  0
  149.7631  141.0022  156.2408 C   0  0  0  0  0  0  0  0  0  0  0  0
  153.5391  142.5622  160.6452 C   0  0  2  0  0  0  0  0  0  0  0  0
  154.2634  141.2540  161.0227 C   0  0  0  0  0  0  0  0  0  0  0  0
  154.1891  143.9958  162.9854 H   0  0  0  0  0  0  0  0  0  0  0  0
  153.7268  142.3793  163.5186 H   0  0  0  0  0  0  0  0  0  0  0  0
  152.6798  143.7409  163.8554 H   0  0  0  0  0  0  0  0  0  0  0  0
  151.8316  142.3488  161.9547 H   0  0  0  0  0  0  0  0  0  0  0  0
  151.2247  144.7308  162.1145 H   0  0  0  0  0  0  0  0  0  0  0  0
  152.6571  145.1908  161.2292 H   0  0  0  0  0  0  0  0  0  0  0  0
  150.3178  143.5454  160.1562 H   0  0  0  0  0  0  0  0  0  0  0  0
  150.7102  145.1914  159.7253 H   0  0  0  0  0  0  0  0  0  0  0  0
  151.5136  143.5984  157.9796 H   0  0  0  0  0  0  0  0  0  0  0  0
  152.8303  144.4873  158.6936 H   0  0  0  0  0  0  0  0  0  0  0  0
  153.5158  142.1840  158.5299 H   0  0  0  0  0  0  0  0  0  0  0  0
  151.2212  141.2773  160.1675 H   0  0  0  0  0  0  0  0  0  0  0  0
  150.4621  139.4677  159.7645 H   0  0  0  0  0  0  0  0  0  0  0  0
  151.5228  138.8135  156.3888 H   0  0  0  0  0  0  0  0  0  0  0  0
  150.2060  137.7053  156.0259 H   0  0  0  0  0  0  0  0  0  0  0  0
  148.8240  138.6937  154.1661 H   0  0  0  0  0  0  0  0  0  0  0  0
  147.8975  141.2627  153.6028 H   0  0  0  0  0  0  0  0  0  0  0  0
  150.2820  141.3829  157.1028 H   0  0  0  0  0  0  0  0  0  0  0  0
  154.3145  143.3131  160.4853 H   0  0  0  0  0  0  0  0  0  0  0  0
  153.5616  140.4765  161.3257 H   0  0  0  0  0  0  0  0  0  0  0  0
  154.9654  141.4058  161.8420 H   0  0  0  0  0  0  0  0  0  0  0  0
  154.8405  140.8704  160.1807 H   0  0  0  0  0  0  0  0  0  0  0  0
  148.8617  142.7082  155.4461 H   0  0  0  0  0  0  0  0  0  0  0  0
  1  2  1  0  0  0  0
  1 21  1  0  0  0  0
  1 22  1  0  0  0  0
  1 23  1  0  0  0  0
  2 19  1  0  0  0  0
  2  3  1  0  0  0  0
  2 24  1  0  0  0  0
  3  4  1  0  0  0  0
  3 25  1  0  0  0  0
  3 26  1  0  0  0  0
  4  5  1  0  0  0  0
  4 27  1  0  0  0  0
  4 28  1  0  0  0  0
  5  6  1  0  0  0  0
  5 29  1  0  0  0  0
  5 30  1  0  0  0  0
  6  7  1  0  0  0  0
  6 19  1  0  0  0  0
  6 31  1  0  0  0  0
  7  8  1  0  0  0  0
  7 32  1  0  0  0  0
  8  9  2  0  0  0  0
  8 10  1  0  0  0  0
 10 11  1  0  0  0  0
 10 33  1  0  0  0  0
 11 12  2  0  0  0  0
 11 13  1  0  0  0  0
 13 14  1  0  0  0  0
 13 34  1  0  0  0  0
 13 35  1  0  0  0  0
 14 18  1  0  0  0  0
 14 15  1  0  0  0  0
 15 16  2  0  0  0  0
 15 36  1  0  0  0  0
 16 17  1  0  0  0  0
 16 37  1  0  0  0  0
 17 18  2  0  0  0  0
 17 43  1  0  0  0  0
 18 38  1  0  0  0  0
 19 20  1  0  0  0  0
 19 39  1  0  0  0  0
 20 40  1  0  0  0  0
 20 41  1  0  0  0  0
 20 42  1  0  0  0  0
M  CHG  1  17   1
M  END
> <s_m_source_file>
AV-unprocessed.smi

> <i_m_source_file_index>
527

> <i_lp_mmshare_version>
43012

> <i_f3d_flags>
0

> <s_epik_input>
W0NIM11bQ0BASF0xW0NIMl1bQ0gyXVtDSDJdW0NASF0oW0NASF0xW0NIM10pW05IXUMoPU8pW05IXUMoPU8pW0NIMl1uMltjSF1bY0hdbltjSF0y

> <s_epik_cmdline>
J2VwaWtfcHl0aG9uJywgJy1waCcsICc3LjAnLCAnLXRuJywgJzgnLCAnLW1hJywgJzIwMCcsICctbWV0YWxfYmluZGluZycsICctaW1hZScsICc8aW5maWxlLm1hZT4nLCAnLW9tYWUnLCAnPG91dGZpbGUubWFlPic=

> <r_lp_tautomer_probability>
1

> <r_epik_Ionization_Penalty>
0.816441

> <r_epik_Ionization_Penalty_Charging>
0

> <r_epik_Ionization_Penalty_Neutral>
0.816441

> <r_epik_State_Penalty>
0.849034

> <r_epik_Charging_Adjusted_Penalty>
0.849034

> <i_epik_Tot_Q>
1

> <i_epik_Tot_abs_Q>
1

> <r_epik_Metal_State_Penalty>
0.984327

> <b_epik_Metal_Only>
0

> <s_lp_Force_Field>
OPLS_2005

> <r_lp_Energy>
15.9829

> <b_lp_Chiralities_Consistent>
1

> <s_lp_Variant>
AV-unprocessed.smi:527-16

> <Gold.Version>
5.8.1

> <Gold.Id.Protein>
6NUR|6NUR_protein|mol2

> <Gold.PLP.Fitness>
51.4784

> <Gold.PLP.PLP>
-45.3149

> <Gold.PLP.part.hbond>
-2.0000

> <Gold.PLP.part.metal>
0.0000

> <Gold.PLP.part.buried>
-2.6963

> <Gold.PLP.part.nonpolar>
-40.3587

> <Gold.PLP.part.repulsive>
0.5182

> <Gold.PLP.ligand.clash>
2.4377

> <Gold.PLP.ligand.torsion>
0.6075

> <Gold.PLP.Chemscore.Hbond>
2.9920

> <Gold.PLP.Chemscore.CHOScore>
0.2682

> <Gold.PLP.Chemscore.Metal>
0.0000

> <Gold.Chemscore.Hbonds>
donor molecule, donor type, donor heavy atom, donor atom, acceptor molecule, acceptor atom, score
      L1  H    17    43       P1  8028  2.00
      P1  H  7997  8008       L1     9  0.70

> <Gold.PLP.Chemscore.Internal.Correction>
0.0358

> <Gold.Rescore>
     Score         DG    S(hbond)    S(metal)    S(lipo)     H(rot)  DE(clash)    DE(int)     intcor
     18.30     -20.51       1.88        0.00     112.19       1.71       0.03       2.18       ----

> <Gold.Chemscore.Fitness>
18.2967

> <Gold.Chemscore.DG>
-20.5114

> <Gold.Chemscore.ZeroCoef>
-5.4800

> <Gold.Chemscore.Hbond>
1.8773

> <Gold.Chemscore.Metal>
0.0000

> <Gold.Chemscore.Lipo>
112.1918

> <Gold.Chemscore.Internal_Hbond>
0.0000

> <Gold.Chemscore.DEClash>
0.0310

> <Gold.Chemscore.DEInternal>
2.1837

> <Gold.Chemscore.Rot>
1.7052

> <Gold.Chemscore.Internal.Correction>
   9.000000E+99

> <Gold.Chemscore.Hbonds>
donor molecule, donor type, donor heavy atom, donor atom, acceptor molecule, acceptor atom, score
      L1  H    17    43       P1  8028  0.94
      P1  H  7997  8008       L1     9  0.66

> <Gold.Chemscore.Hbond.Weighted>
-6.2703

> <Gold.Chemscore.Metal.Weighted>
-0.0000

> <Gold.Chemscore.Lipo.Weighted>
-13.1264

> <Gold.Chemscore.Internal_Hbond.Weighted>
0.0000

> <Gold.Chemscore.DEClash.Weighted>
0.0310

> <Gold.Chemscore.DEInternal.Weighted>
2.1837

> <Gold.Chemscore.Rot.Weighted>
4.3653

> <Gold.Chemscore.Internal.Correction.Weighted>
   9.000000E+99

> <Gold.Protein.RotatedTorsions>
[ 6907 6896 6895 6894 ] final   91.57 input  -60.11 | X-H torsion
[ 7974 7965 7964 7962 ] final -107.21 input  175.53 | X-H torsion
[ 8008 7997 7996 7995 ] final  -57.39 input   59.86 | X-H torsion
[ 10167 10162 10161 10158 ] final   51.55 input  -65.29 | X-H torsion
[ 10718 10713 10712 10709 ] final  143.69 input   66.30 | X-H torsion
[ 10763 10752 10751 10750 ] final  -76.59 input  -60.55 | X-H torsion
[ 11005 11000 10999 10996 ] final  -18.08 input  -57.11 | X-H torsion

> <Gold.Protein.ActiveResidues>
 VAL166  LYS551  ARG553  GLY616  TRP617  ASP618  TYR619  PRO620  LYS621  CYS622 
 ASP623  PHE694  ASN695  SER759  ASP760  ASP761  ALA762  ILE779  LEU786  VAL792 
 PHE793  MET794  SER795  GLU796  ALA797  LYS798  CYS799  TRP800  GLU811  SER814 

> <Gold.Protein.RotatedAtoms>
  152.5450  134.1636  159.8567 H   0  0  0  0  0  0  0  0  0  0  0  0  # atno 6907 bound_to 6896
  151.1652  133.4812  159.2601 H   0  0  0  0  0  0  0  0  0  0  0  0  # atno 6908 bound_to 6896
  151.1332  135.0152  159.8647 H   0  0  0  0  0  0  0  0  0  0  0  0  # atno 6909 bound_to 6896
  145.2082  140.9085  143.3330 H   0  0  0  0  0  0  0  0  0  0  0  0  # atno 7974 bound_to 7965
  154.4266  140.1108  156.5789 H   0  0  0  0  0  0  0  0  0  0  0  0  # atno 8008 bound_to 7997
  155.6133  140.3494  155.4610 H   0  0  0  0  0  0  0  0  0  0  0  0  # atno 8009 bound_to 7997
  156.0082  140.1213  157.0470 H   0  0  0  0  0  0  0  0  0  0  0  0  # atno 8010 bound_to 7997
  140.2607  144.3376  150.6319 H   0  0  0  0  0  0  0  0  0  0  0  0  # atno 10167 bound_to 10162
  157.3660  131.0972  151.0872 H   0  0  0  0  0  0  0  0  0  0  0  0  # atno 10718 bound_to 10713
  154.5019  135.5792  153.6537 H   0  0  0  0  0  0  0  0  0  0  0  0  # atno 10763 bound_to 10752
  152.9880  135.6138  154.2991 H   0  0  0  0  0  0  0  0  0  0  0  0  # atno 10764 bound_to 10752
  154.2899  135.2849  155.2638 H   0  0  0  0  0  0  0  0  0  0  0  0  # atno 10765 bound_to 10752
  140.8233  133.8052  155.9682 H   0  0  0  0  0  0  0  0  0  0  0  0  # atno 11005 bound_to 11000
  144.9882  139.3716  143.6228 LP  0  0  0  0  0  0  0  0  0  0  0  0  # atno 17320 bound_to 7965
  146.3403  139.9052  142.8788 LP  0  0  0  0  0  0  0  0  0  0  0  0  # atno 17321 bound_to 7965
  140.5968  143.2167  151.7148 LP  0  0  0  0  0  0  0  0  0  0  0  0  # atno 17342 bound_to 10162
  139.5018  144.3855  152.0333 LP  0  0  0  0  0  0  0  0  0  0  0  0  # atno 17343 bound_to 10162
  157.1994  130.6388  149.5733 LP  0  0  0  0  0  0  0  0  0  0  0  0  # atno 17370 bound_to 10713
  155.9746  130.4696  150.6400 LP  0  0  0  0  0  0  0  0  0  0  0  0  # atno 17371 bound_to 10713
  140.9076  134.2301  157.5005 LP  0  0  0  0  0  0  0  0  0  0  0  0  # atno 17394 bound_to 11000
  139.8707  134.9735  156.4813 LP  0  0  0  0  0  0  0  0  0  0  0  0  # atno 17395 bound_to 11000

$$$$
