AV-unprocessed.smi:928|AV-procd|sdf|4192|dock10
  -GOLD-   22720 2103D 1   1.00000     0.00000
 Structure written by MMmdl.
 43 44  0  0  0  0  0  0  0  0  1 V2000
  155.6425  144.6307  167.8883 C   0  0  0  0  0  0  0  0  0  0  0  0
  155.5592  143.1035  167.9989 C   0  0  0  0  0  0  0  0  0  0  0  0
  155.7277  142.4172  166.6844 C   0  0  0  0  0  0  0  0  0  0  0  0
  155.8139  142.9936  165.4409 C   0  0  0  0  0  0  0  0  0  0  0  0
  156.0314  142.0793  164.4077 N   0  0  0  0  0  0  0  0  0  0  0  0
  156.1086  140.8218  164.8489 C   0  0  0  0  0  0  0  0  0  0  0  0
  156.4655  139.6618  163.9750 C   0  0  0  0  0  0  0  0  0  0  0  0
  155.4949  139.4472  162.7934 C   0  0  0  0  0  0  0  0  0  0  0  0
  154.7761  140.6677  162.4302 N   0  0  0  0  0  0  0  0  0  0  0  0
  154.4372  141.0227  161.1817 C   0  0  0  0  0  0  0  0  0  0  0  0
  154.7851  140.4133  160.1702 O   0  0  0  0  0  0  0  0  0  0  0  0
  153.6230  142.0864  161.1709 N   0  0  0  0  0  0  0  0  0  0  0  0
  152.9503  142.6110  159.9848 C   0  0  1  0  0  0  0  0  0  0  0  0
  151.9815  141.5629  159.4056 C   0  0  0  0  0  0  0  0  0  0  0  0
  151.2932  142.0924  158.1376 C   0  0  0  0  0  0  0  0  0  0  0  0
  150.5658  143.4188  158.4107 C   0  0  0  0  0  0  0  0  0  0  0  0
  151.5163  144.4726  159.0091 C   0  0  0  0  0  0  0  0  0  0  0  0
  152.2424  143.9577  160.2676 C   0  0  1  0  0  0  0  0  0  0  0  0
  151.3064  143.8227  161.3210 O   0  0  0  0  0  0  0  0  0  0  0  0
  155.8665  140.6816  166.5876 S   0  0  0  0  0  0  0  0  0  0  0  0
  155.5036  145.0996  168.8624 H   0  0  0  0  0  0  0  0  0  0  0  0
  154.8745  145.0186  167.2184 H   0  0  0  0  0  0  0  0  0  0  0  0
  156.6118  144.9472  167.5022 H   0  0  0  0  0  0  0  0  0  0  0  0
  156.3210  142.7483  168.6935 H   0  0  0  0  0  0  0  0  0  0  0  0
  154.5989  142.8263  168.4349 H   0  0  0  0  0  0  0  0  0  0  0  0
  155.7580  144.0456  165.2037 H   0  0  0  0  0  0  0  0  0  0  0  0
  157.4753  139.8197  163.5947 H   0  0  0  0  0  0  0  0  0  0  0  0
  156.5065  138.7608  164.5878 H   0  0  0  0  0  0  0  0  0  0  0  0
  156.0510  139.1045  161.9208 H   0  0  0  0  0  0  0  0  0  0  0  0
  154.7897  138.6498  163.0340 H   0  0  0  0  0  0  0  0  0  0  0  0
  154.4426  141.2403  163.1918 H   0  0  0  0  0  0  0  0  0  0  0  0
  153.3927  142.5204  162.0527 H   0  0  0  0  0  0  0  0  0  0  0  0
  153.7125  142.7893  159.2230 H   0  0  0  0  0  0  0  0  0  0  0  0
  152.5215  140.6448  159.1711 H   0  0  0  0  0  0  0  0  0  0  0  0
  151.2274  141.2963  160.1476 H   0  0  0  0  0  0  0  0  0  0  0  0
  152.0370  142.2379  157.3528 H   0  0  0  0  0  0  0  0  0  0  0  0
  150.5874  141.3518  157.7609 H   0  0  0  0  0  0  0  0  0  0  0  0
  150.1278  143.7983  157.4871 H   0  0  0  0  0  0  0  0  0  0  0  0
  149.7340  143.2439  159.0942 H   0  0  0  0  0  0  0  0  0  0  0  0
  152.2589  144.7452  158.2580 H   0  0  0  0  0  0  0  0  0  0  0  0
  150.9668  145.3868  159.2372 H   0  0  0  0  0  0  0  0  0  0  0  0
  152.9772  144.7011  160.5788 H   0  0  0  0  0  0  0  0  0  0  0  0
  150.7452  144.5830  161.3181 H   0  0  0  0  0  0  0  0  0  0  0  0
  1  2  1  0  0  0  0
  1 21  1  0  0  0  0
  1 22  1  0  0  0  0
  1 23  1  0  0  0  0
  2  3  1  0  0  0  0
  2 24  1  0  0  0  0
  2 25  1  0  0  0  0
  3 20  1  0  0  0  0
  3  4  2  0  0  0  0
  4  5  1  0  0  0  0
  4 26  1  0  0  0  0
  5  6  2  0  0  0  0
  6  7  1  0  0  0  0
  6 20  1  0  0  0  0
  7  8  1  0  0  0  0
  7 27  1  0  0  0  0
  7 28  1  0  0  0  0
  8  9  1  0  0  0  0
  8 29  1  0  0  0  0
  8 30  1  0  0  0  0
  9 10  1  0  0  0  0
  9 31  1  0  0  0  0
 10 11  2  0  0  0  0
 10 12  1  0  0  0  0
 12 13  1  0  0  0  0
 12 32  1  0  0  0  0
 13 18  1  0  0  0  0
 13 14  1  0  0  0  0
 13 33  1  0  0  0  0
 14 15  1  0  0  0  0
 14 34  1  0  0  0  0
 14 35  1  0  0  0  0
 15 16  1  0  0  0  0
 15 36  1  0  0  0  0
 15 37  1  0  0  0  0
 16 17  1  0  0  0  0
 16 38  1  0  0  0  0
 16 39  1  0  0  0  0
 17 18  1  0  0  0  0
 17 40  1  0  0  0  0
 17 41  1  0  0  0  0
 18 19  1  0  0  0  0
 18 42  1  0  0  0  0
 19 43  1  0  0  0  0
M  END
> <s_m_source_file>
AV-unprocessed.smi

> <i_m_source_file_index>
928

> <i_lp_mmshare_version>
43012

> <i_f3d_flags>
0

> <s_epik_input>
W0NIM11bQ0gyXWMxW2NIXW5jKHMxKVtDSDJdW0NIMl1bTkhdQyg9TylbTkhdW0NAQEhdMltDSDJdW0NIMl1bQ0gyXVtDSDJdW0NASF0yW09IXQ==

> <s_epik_cmdline>
J2VwaWtfcHl0aG9uJywgJy1waCcsICc3LjAnLCAnLXRuJywgJzgnLCAnLW1hJywgJzIwMCcsICctbWV0YWxfYmluZGluZycsICctaW1hZScsICc8aW5maWxlLm1hZT4nLCAnLW9tYWUnLCAnPG91dGZpbGUubWFlPic=

> <r_epik_Ionization_Penalty>
0.000957396

> <r_epik_Ionization_Penalty_Charging>
0

> <r_epik_Ionization_Penalty_Neutral>
0.000957396

> <r_epik_State_Penalty>
0.000586538

> <r_epik_Charging_Adjusted_Penalty>
0.000586538

> <i_epik_Tot_Q>
0

> <i_epik_Tot_abs_Q>
0

> <r_epik_Metal_State_Penalty>
-0

> <b_epik_Metal_Only>
0

> <s_lp_Force_Field>
OPLS_2005

> <r_lp_Energy>
0.733769

> <b_lp_Chiralities_Consistent>
1

> <s_lp_Variant>
AV-unprocessed.smi:928-2

> <Gold.Version>
5.8.1

> <Gold.Id.Protein>
6NUR|6NUR_protein|mol2

> <Gold.PLP.Fitness>
42.6749

> <Gold.PLP.PLP>
-43.4278

> <Gold.PLP.part.hbond>
-3.2576

> <Gold.PLP.part.metal>
0.0000

> <Gold.PLP.part.buried>
-7.0680

> <Gold.PLP.part.nonpolar>
-33.1402

> <Gold.PLP.part.repulsive>
0.0227

> <Gold.PLP.ligand.clash>
0.0000

> <Gold.PLP.ligand.torsion>
0.5160

> <Gold.PLP.Chemscore.Hbond>
0.0751

> <Gold.PLP.Chemscore.CHOScore>
0.0000

> <Gold.PLP.Chemscore.Metal>
0.0000

> <Gold.PLP.Chemscore.Internal.Correction>
0.0537

> <Gold.Rescore>
     Score         DG    S(hbond)    S(metal)    S(lipo)     H(rot)  DE(clash)    DE(int)     intcor
     12.64     -13.19       0.00        0.00     114.25       2.21       0.01       0.54       ----

> <Gold.Chemscore.Fitness>
12.6403

> <Gold.Chemscore.DG>
-13.1939

> <Gold.Chemscore.ZeroCoef>
-5.4800

> <Gold.Chemscore.Hbond>
0.0000

> <Gold.Chemscore.Metal>
0.0000

> <Gold.Chemscore.Lipo>
114.2518

> <Gold.Chemscore.Internal_Hbond>
0.0000

> <Gold.Chemscore.DEClash>
0.0119

> <Gold.Chemscore.DEInternal>
0.5417

> <Gold.Chemscore.Rot>
2.2084

> <Gold.Chemscore.Internal.Correction>
   9.000000E+99

> <Gold.Chemscore.Hbond.Weighted>
-0.0000

> <Gold.Chemscore.Metal.Weighted>
-0.0000

> <Gold.Chemscore.Lipo.Weighted>
-13.3675

> <Gold.Chemscore.Internal_Hbond.Weighted>
0.0000

> <Gold.Chemscore.DEClash.Weighted>
0.0119

> <Gold.Chemscore.DEInternal.Weighted>
0.5417

> <Gold.Chemscore.Rot.Weighted>
5.6535

> <Gold.Chemscore.Internal.Correction.Weighted>
   9.000000E+99

> <Gold.Protein.RotatedTorsions>
[ 6907 6896 6895 6894 ] final   66.62 input  -60.11 | X-H torsion
[ 7974 7965 7964 7962 ] final  -22.51 input  175.53 | X-H torsion
[ 8008 7997 7996 7995 ] final -127.92 input   59.86 | X-H torsion
[ 10167 10162 10161 10158 ] final   -3.39 input  -65.29 | X-H torsion
[ 10718 10713 10712 10709 ] final   70.62 input   66.30 | X-H torsion
[ 10763 10752 10751 10750 ] final   -3.33 input  -60.55 | X-H torsion
[ 11005 11000 10999 10996 ] final  -47.92 input  -57.11 | X-H torsion

> <Gold.Protein.ActiveResidues>
 VAL166  LYS551  ARG553  GLY616  TRP617  ASP618  TYR619  PRO620  LYS621  CYS622 
 ASP623  PHE694  ASN695  SER759  ASP760  ASP761  ALA762  ILE779  LEU786  VAL792 
 PHE793  MET794  SER795  GLU796  ALA797  LYS798  CYS799  TRP800  GLU811  SER814 

> <Gold.Protein.RotatedAtoms>
  152.4494  134.5426  159.9843 H   0  0  0  0  0  0  0  0  0  0  0  0  # atno 6907 bound_to 6896
  151.5503  133.3413  159.2959 H   0  0  0  0  0  0  0  0  0  0  0  0  # atno 6908 bound_to 6896
  150.8419  134.7745  159.7002 H   0  0  0  0  0  0  0  0  0  0  0  0  # atno 6909 bound_to 6896
  146.1671  140.4488  142.8547 H   0  0  0  0  0  0  0  0  0  0  0  0  # atno 7974 bound_to 7965
  155.2542  140.0433  157.2990 H   0  0  0  0  0  0  0  0  0  0  0  0  # atno 8008 bound_to 7997
  154.5750  140.2384  155.8105 H   0  0  0  0  0  0  0  0  0  0  0  0  # atno 8009 bound_to 7997
  156.2151  140.2987  155.9829 H   0  0  0  0  0  0  0  0  0  0  0  0  # atno 8010 bound_to 7997
  140.6888  143.6545  150.8321 H   0  0  0  0  0  0  0  0  0  0  0  0  # atno 10167 bound_to 10162
  157.6409  130.9486  150.0676 H   0  0  0  0  0  0  0  0  0  0  0  0  # atno 10718 bound_to 10713
  153.3699  135.6994  153.6646 H   0  0  0  0  0  0  0  0  0  0  0  0  # atno 10763 bound_to 10752
  153.5301  135.3594  155.2672 H   0  0  0  0  0  0  0  0  0  0  0  0  # atno 10764 bound_to 10752
  154.8680  135.4178  154.2974 H   0  0  0  0  0  0  0  0  0  0  0  0  # atno 10765 bound_to 10752
  141.0670  133.6691  156.3367 H   0  0  0  0  0  0  0  0  0  0  0  0  # atno 11005 bound_to 11000
  144.8109  140.6383  143.6416 LP  0  0  0  0  0  0  0  0  0  0  0  0  # atno 17320 bound_to 7965
  145.4438  139.1532  143.3956 LP  0  0  0  0  0  0  0  0  0  0  0  0  # atno 17321 bound_to 7965
  140.0255  143.5498  152.2782 LP  0  0  0  0  0  0  0  0  0  0  0  0  # atno 17342 bound_to 10162
  139.6271  144.7639  151.2614 LP  0  0  0  0  0  0  0  0  0  0  0  0  # atno 17343 bound_to 10162
  156.1690  130.3646  149.9192 LP  0  0  0  0  0  0  0  0  0  0  0  0  # atno 17370 bound_to 10713
  156.7172  130.8993  151.3615 LP  0  0  0  0  0  0  0  0  0  0  0  0  # atno 17371 bound_to 10713
  140.5753  134.5800  157.5467 LP  0  0  0  0  0  0  0  0  0  0  0  0  # atno 17394 bound_to 11000
  139.9486  134.7658  156.0503 LP  0  0  0  0  0  0  0  0  0  0  0  0  # atno 17395 bound_to 11000

$$$$
