AV-unprocessed.smi:2674|AV-procd|sdf|10358|dock10
  -GOLD-   2272014383D 1   1.00000     0.00000
 Structure written by MMmdl.
 45 46  0  0  0  0  0  0  0  0  2 V2000
  145.6048  136.3132  153.5917 C   0  0  0  0  0  0  0  0  0  0  0  0
  146.0781  135.7828  152.2876 N   0  3  2  0  0  0  0  0  0  0  0  0
  145.8590  136.7752  151.2006 C   0  0  0  0  0  0  0  0  0  0  0  0
  146.1734  138.2055  151.6750 C   0  0  0  0  0  0  0  0  0  0  0  0
  147.5140  138.3037  152.2407 N   0  0  0  0  0  0  0  0  0  0  0  0
  147.8415  139.0485  153.3066 C   0  0  0  0  0  0  0  0  0  0  0  0
  147.0254  139.7263  153.9318 O   0  0  0  0  0  0  0  0  0  0  0  0
  149.1531  138.9513  153.5872 N   0  0  0  0  0  0  0  0  0  0  0  0
  149.8738  139.5758  154.6401 C   0  0  0  0  0  0  0  0  0  0  0  0
  149.0858  140.0088  155.7306 C   0  0  0  0  0  0  0  0  0  0  0  0
  149.7056  140.6428  156.8247 C   0  0  0  0  0  0  0  0  0  0  0  0
  151.0992  140.8282  156.8001 C   0  0  0  0  0  0  0  0  0  0  0  0
  151.8095  140.3683  155.6761 C   0  0  0  0  0  0  0  0  0  0  0  0
  151.2176  139.7604  154.6260 N   0  0  0  0  0  0  0  0  0  0  0  0
  145.5846  134.4132  151.9356 C   0  0  0  0  0  0  0  0  0  0  0  0
  146.4116  133.7107  150.8255 C   0  0  0  0  0  0  0  0  0  0  0  0
  145.8481  132.3236  150.4746 C   0  0  0  0  0  0  0  0  0  0  0  0
  144.3753  132.4068  150.0547 C   0  0  0  0  0  0  0  0  0  0  0  0
  143.5384  133.0918  151.1425 C   0  0  0  0  0  0  0  0  0  0  0  0
  144.1025  134.4789  151.4866 C   0  0  0  0  0  0  0  0  0  0  0  0
  144.5150  136.3262  153.6361 H   0  0  0  0  0  0  0  0  0  0  0  0
  145.9567  137.3323  153.7520 H   0  0  0  0  0  0  0  0  0  0  0  0
  145.9834  135.7225  154.4255 H   0  0  0  0  0  0  0  0  0  0  0  0
  146.4834  136.5489  150.3373 H   0  0  0  0  0  0  0  0  0  0  0  0
  144.8330  136.7079  150.8345 H   0  0  0  0  0  0  0  0  0  0  0  0
  146.1109  138.9075  150.8439 H   0  0  0  0  0  0  0  0  0  0  0  0
  145.4369  138.5322  152.4115 H   0  0  0  0  0  0  0  0  0  0  0  0
  148.2441  137.7769  151.7835 H   0  0  0  0  0  0  0  0  0  0  0  0
  149.7013  138.3625  152.9779 H   0  0  0  0  0  0  0  0  0  0  0  0
  148.0158  139.8586  155.7338 H   0  0  0  0  0  0  0  0  0  0  0  0
  149.1211  140.9808  157.6678 H   0  0  0  0  0  0  0  0  0  0  0  0
  151.6104  141.3099  157.6205 H   0  0  0  0  0  0  0  0  0  0  0  0
  152.8808  140.4917  155.6179 H   0  0  0  0  0  0  0  0  0  0  0  0
  145.6577  133.7946  152.8322 H   0  0  0  0  0  0  0  0  0  0  0  0
  146.4303  134.3294  149.9270 H   0  0  0  0  0  0  0  0  0  0  0  0
  147.4474  133.5745  151.1366 H   0  0  0  0  0  0  0  0  0  0  0  0
  146.4362  131.8754  149.6733 H   0  0  0  0  0  0  0  0  0  0  0  0
  145.9455  131.6611  151.3357 H   0  0  0  0  0  0  0  0  0  0  0  0
  144.2903  132.9627  149.1199 H   0  0  0  0  0  0  0  0  0  0  0  0
  143.9857  131.4076  149.8575 H   0  0  0  0  0  0  0  0  0  0  0  0
  142.5041  133.1834  150.8103 H   0  0  0  0  0  0  0  0  0  0  0  0
  143.5213  132.4710  152.0392 H   0  0  0  0  0  0  0  0  0  0  0  0
  143.4708  134.9242  152.2543 H   0  0  0  0  0  0  0  0  0  0  0  0
  144.0147  135.1281  150.6141 H   0  0  0  0  0  0  0  0  0  0  0  0
  147.0793  135.6851  152.3798 H   0  0  0  0  0  0  0  0  0  0  0  0
  1  2  1  0  0  0  0
  1 21  1  0  0  0  0
  1 22  1  0  0  0  0
  1 23  1  0  0  0  0
  2  3  1  0  0  0  0
  2 15  1  0  0  0  0
  2 45  1  0  0  0  0
  3  4  1  0  0  0  0
  3 24  1  0  0  0  0
  3 25  1  0  0  0  0
  4  5  1  0  0  0  0
  4 26  1  0  0  0  0
  4 27  1  0  0  0  0
  5  6  1  0  0  0  0
  5 28  1  0  0  0  0
  6  7  2  0  0  0  0
  6  8  1  0  0  0  0
  8  9  1  0  0  0  0
  8 29  1  0  0  0  0
  9 14  1  0  0  0  0
  9 10  2  0  0  0  0
 10 11  1  0  0  0  0
 10 30  1  0  0  0  0
 11 12  2  0  0  0  0
 11 31  1  0  0  0  0
 12 13  1  0  0  0  0
 12 32  1  0  0  0  0
 13 14  2  0  0  0  0
 13 33  1  0  0  0  0
 15 20  1  0  0  0  0
 15 16  1  0  0  0  0
 15 34  1  0  0  0  0
 16 17  1  0  0  0  0
 16 35  1  0  0  0  0
 16 36  1  0  0  0  0
 17 18  1  0  0  0  0
 17 37  1  0  0  0  0
 17 38  1  0  0  0  0
 18 19  1  0  0  0  0
 18 39  1  0  0  0  0
 18 40  1  0  0  0  0
 19 20  1  0  0  0  0
 19 41  1  0  0  0  0
 19 42  1  0  0  0  0
 20 43  1  0  0  0  0
 20 44  1  0  0  0  0
M  CHG  1   2   1
M  END
> <s_m_source_file>
AV-unprocessed.smi

> <i_m_source_file_index>
2674

> <i_lp_mmshare_version>
43012

> <i_f3d_flags>
0

> <s_epik_input>
W0NIMl0xW0NIMl1bQ0gyXVtDSDJdW0NIMl1bQ0hdMU4oW0NIM10pW0NIMl1bQ0gyXVtOSF1DKD1PKVtOSF1jMltjSF1bY0hdW2NIXVtjSF1uMg==

> <s_epik_cmdline>
J2VwaWtfcHl0aG9uJywgJy1waCcsICc3LjAnLCAnLXRuJywgJzgnLCAnLW1hJywgJzIwMCcsICctbWV0YWxfYmluZGluZycsICctaW1hZScsICc8aW5maWxlLm1hZT4nLCAnLW9tYWUnLCAnPG91dGZpbGUubWFlPic=

> <r_epik_Ionization_Penalty>
0.00206741

> <r_epik_Ionization_Penalty_Charging>
0.00203269

> <r_epik_Ionization_Penalty_Neutral>
3.47205e-05

> <r_epik_State_Penalty>
0.00139005

> <r_epik_Charging_Adjusted_Penalty>
0.00342273

> <i_epik_Tot_Q>
1

> <i_epik_Tot_abs_Q>
1

> <r_epik_Metal_State_Penalty>
-0

> <b_epik_Metal_Only>
0

> <s_lp_Force_Field>
OPLS_2005

> <r_lp_Energy>
21.2235

> <b_lp_Chiralities_Consistent>
1

> <s_lp_Variant>
AV-unprocessed.smi:2674-1

> <Gold.Version>
5.8.1

> <Gold.Id.Protein>
6NUR|6NUR_protein|mol2

> <Gold.PLP.Fitness>
45.9636

> <Gold.PLP.PLP>
-35.5147

> <Gold.PLP.part.hbond>
-5.3021

> <Gold.PLP.part.metal>
0.0000

> <Gold.PLP.part.buried>
-1.6919

> <Gold.PLP.part.nonpolar>
-29.3928

> <Gold.PLP.part.repulsive>
0.3834

> <Gold.PLP.ligand.clash>
0.0153

> <Gold.PLP.ligand.torsion>
0.5391

> <Gold.PLP.Chemscore.Hbond>
3.8160

> <Gold.PLP.Chemscore.CHOScore>
0.0000

> <Gold.PLP.Chemscore.Metal>
0.0000

> <Gold.Chemscore.Hbonds>
donor molecule, donor type, donor heavy atom, donor atom, acceptor molecule, acceptor atom, score
      L1  H     2    45       P1  7948  2.00
      L1  H     5    28       P1  7948  0.82
      P1  H  7989  7998       L1    14  0.85

> <Gold.PLP.Chemscore.Internal.Correction>
0.0943

> <Gold.Rescore>
     Score         DG    S(hbond)    S(metal)    S(lipo)     H(rot)  DE(clash)    DE(int)     intcor
     16.20     -18.49       2.46        0.00      78.24       1.70       0.36       1.93       ----

> <Gold.Chemscore.Fitness>
16.1951

> <Gold.Chemscore.DG>
-18.4878

> <Gold.Chemscore.ZeroCoef>
-5.4800

> <Gold.Chemscore.Hbond>
2.4592

> <Gold.Chemscore.Metal>
0.0000

> <Gold.Chemscore.Lipo>
78.2368

> <Gold.Chemscore.Internal_Hbond>
0.0000

> <Gold.Chemscore.DEClash>
0.3617

> <Gold.Chemscore.DEInternal>
1.9310

> <Gold.Chemscore.Rot>
1.7030

> <Gold.Chemscore.Internal.Correction>
   9.000000E+99

> <Gold.Chemscore.Hbonds>
donor molecule, donor type, donor heavy atom, donor atom, acceptor molecule, acceptor atom, score
      L1  H     2    45       P1  7948  0.91
      L1  H     5    28       P1  7948  0.81
      L1  H     8    29       P1  7948  0.01
      P1  H  7989  7998       L1    14  0.11

> <Gold.Chemscore.Hbond.Weighted>
-8.2137

> <Gold.Chemscore.Metal.Weighted>
-0.0000

> <Gold.Chemscore.Lipo.Weighted>
-9.1537

> <Gold.Chemscore.Internal_Hbond.Weighted>
0.0000

> <Gold.Chemscore.DEClash.Weighted>
0.3617

> <Gold.Chemscore.DEInternal.Weighted>
1.9310

> <Gold.Chemscore.Rot.Weighted>
4.3597

> <Gold.Chemscore.Internal.Correction.Weighted>
   9.000000E+99

> <Gold.Protein.RotatedTorsions>
[ 6907 6896 6895 6894 ] final  -92.27 input  -60.11 | X-H torsion
[ 7974 7965 7964 7962 ] final -107.75 input  175.53 | X-H torsion
[ 8008 7997 7996 7995 ] final   19.42 input   59.86 | X-H torsion
[ 10167 10162 10161 10158 ] final   30.11 input  -65.29 | X-H torsion
[ 10718 10713 10712 10709 ] final    3.96 input   66.30 | X-H torsion
[ 10763 10752 10751 10750 ] final -120.88 input  -60.55 | X-H torsion
[ 11005 11000 10999 10996 ] final -139.50 input  -57.11 | X-H torsion

> <Gold.Protein.ActiveResidues>
 VAL166  LYS551  ARG553  GLY616  TRP617  ASP618  TYR619  PRO620  LYS621  CYS622 
 ASP623  PHE694  ASN695  SER759  ASP760  ASP761  ALA762  ILE779  LEU786  VAL792 
 PHE793  MET794  SER795  GLU796  ALA797  LYS798  CYS799  TRP800  GLU811  SER814 

> <Gold.Protein.RotatedAtoms>
  150.6904  134.2149  159.4373 H   0  0  0  0  0  0  0  0  0  0  0  0  # atno 6907 bound_to 6896
  152.0108  134.9874  160.0577 H   0  0  0  0  0  0  0  0  0  0  0  0  # atno 6908 bound_to 6896
  152.1490  133.4475  159.4841 H   0  0  0  0  0  0  0  0  0  0  0  0  # atno 6909 bound_to 6896
  145.2015  140.9058  143.3367 H   0  0  0  0  0  0  0  0  0  0  0  0  # atno 7974 bound_to 7965
  154.9205  140.3026  155.5219 H   0  0  0  0  0  0  0  0  0  0  0  0  # atno 8008 bound_to 7997
  156.3010  140.2372  156.4191 H   0  0  0  0  0  0  0  0  0  0  0  0  # atno 8009 bound_to 7997
  154.8335  140.0417  157.1482 H   0  0  0  0  0  0  0  0  0  0  0  0  # atno 8010 bound_to 7997
  140.4707  144.0767  150.6236 H   0  0  0  0  0  0  0  0  0  0  0  0  # atno 10167 bound_to 10162
  156.8855  130.5669  149.5651 H   0  0  0  0  0  0  0  0  0  0  0  0  # atno 10718 bound_to 10713
  154.8655  135.4187  154.2531 H   0  0  0  0  0  0  0  0  0  0  0  0  # atno 10763 bound_to 10752
  153.3473  135.6997  153.6823 H   0  0  0  0  0  0  0  0  0  0  0  0  # atno 10764 bound_to 10752
  153.5777  135.3579  155.2835 H   0  0  0  0  0  0  0  0  0  0  0  0  # atno 10765 bound_to 10752
  140.8513  134.2282  157.4758 H   0  0  0  0  0  0  0  0  0  0  0  0  # atno 11005 bound_to 11000
  144.9944  139.3659  143.6199 LP  0  0  0  0  0  0  0  0  0  0  0  0  # atno 17320 bound_to 7965
  146.3417  139.9140  142.8776 LP  0  0  0  0  0  0  0  0  0  0  0  0  # atno 17321 bound_to 7965
  140.3981  143.2718  151.9981 LP  0  0  0  0  0  0  0  0  0  0  0  0  # atno 17342 bound_to 10162
  139.4818  144.6021  151.7587 LP  0  0  0  0  0  0  0  0  0  0  0  0  # atno 17343 bound_to 10162
  156.0655  130.5699  150.9280 LP  0  0  0  0  0  0  0  0  0  0  0  0  # atno 17370 bound_to 10713
  157.6115  131.0936  150.8786 LP  0  0  0  0  0  0  0  0  0  0  0  0  # atno 17371 bound_to 10713
  139.8704  134.9685  156.4632 LP  0  0  0  0  0  0  0  0  0  0  0  0  # atno 17394 bound_to 11000
  140.8786  133.7934  155.9442 LP  0  0  0  0  0  0  0  0  0  0  0  0  # atno 17395 bound_to 11000

$$$$
