AV-unprocessed.smi:3220|AV-procd|sdf|12300|dock5
  -GOLD-   2272018143D 1   1.00000     0.00000
 Structure written by MMmdl.
 33 34  0  0  0  0  0  0  0  0  1 V2000
  150.7062  139.9398  158.3379 C   0  0  0  0  0  0  0  0  0  0  0  0
  150.3879  141.2970  157.6934 C   0  0  1  0  0  0  0  0  0  0  0  0
  151.6691  142.1052  157.4115 C   0  0  0  0  0  0  0  0  0  0  0  0
  151.8229  143.2298  158.3174 N   0  0  0  0  0  0  0  0  0  0  0  0
  151.5457  144.5611  158.0874 C   0  0  0  0  0  0  0  0  0  0  0  0
  151.8414  145.2416  159.2335 C   0  0  0  0  0  0  0  0  0  0  0  0
  152.2983  144.2267  160.1203 C   0  0  0  0  0  0  0  0  0  0  0  0
  152.2859  143.0236  159.5691 N   0  0  0  0  0  0  0  0  0  0  0  0
  149.6463  141.0887  156.4512 N   0  0  0  0  0  0  0  0  0  0  0  0
  150.1412  140.5599  155.3220 C   0  0  0  0  0  0  0  0  0  0  0  0
  151.3113  140.1968  155.1987 O   0  0  0  0  0  0  0  0  0  0  0  0
  149.1518  140.4062  154.1613 C   0  0  1  0  0  0  0  0  0  0  0  0
  147.8771  139.6180  154.5173 C   0  0  0  0  0  0  0  0  0  0  0  0
  146.7912  140.6757  154.5197 C   0  0  0  0  0  0  0  0  0  0  0  0
  147.3228  141.6680  153.4958 C   0  0  0  0  0  0  0  0  0  0  0  0
  148.7124  141.7087  153.7799 O   0  0  0  0  0  0  0  0  0  0  0  0
  151.2456  140.0690  159.2766 H   0  0  0  0  0  0  0  0  0  0  0  0
  151.3220  139.3231  157.6825 H   0  0  0  0  0  0  0  0  0  0  0  0
  149.7937  139.3848  158.5581 H   0  0  0  0  0  0  0  0  0  0  0  0
  149.7783  141.8674  158.3969 H   0  0  0  0  0  0  0  0  0  0  0  0
  152.5475  141.4656  157.5113 H   0  0  0  0  0  0  0  0  0  0  0  0
  151.6718  142.4786  156.3864 H   0  0  0  0  0  0  0  0  0  0  0  0
  151.1621  144.9084  157.1393 H   0  0  0  0  0  0  0  0  0  0  0  0
  151.7448  146.3021  159.4120 H   0  0  0  0  0  0  0  0  0  0  0  0
  152.6363  144.3280  161.1410 H   0  0  0  0  0  0  0  0  0  0  0  0
  148.6718  141.3526  156.4561 H   0  0  0  0  0  0  0  0  0  0  0  0
  149.6454  139.9345  153.3098 H   0  0  0  0  0  0  0  0  0  0  0  0
  147.6753  138.8799  153.7401 H   0  0  0  0  0  0  0  0  0  0  0  0
  147.9301  139.0822  155.4660 H   0  0  0  0  0  0  0  0  0  0  0  0
  145.8074  140.2816  154.2642 H   0  0  0  0  0  0  0  0  0  0  0  0
  146.7293  141.1484  155.5008 H   0  0  0  0  0  0  0  0  0  0  0  0
  147.1676  141.3016  152.4799 H   0  0  0  0  0  0  0  0  0  0  0  0
  146.8650  142.6534  153.5832 H   0  0  0  0  0  0  0  0  0  0  0  0
  1  2  1  0  0  0  0
  1 17  1  0  0  0  0
  1 18  1  0  0  0  0
  1 19  1  0  0  0  0
  2  3  1  0  0  0  0
  2  9  1  0  0  0  0
  2 20  1  0  0  0  0
  3  4  1  0  0  0  0
  3 21  1  0  0  0  0
  3 22  1  0  0  0  0
  4  8  1  0  0  0  0
  4  5  1  0  0  0  0
  5  6  2  0  0  0  0
  5 23  1  0  0  0  0
  6  7  1  0  0  0  0
  6 24  1  0  0  0  0
  7  8  2  0  0  0  0
  7 25  1  0  0  0  0
  9 10  1  0  0  0  0
  9 26  1  0  0  0  0
 10 11  2  0  0  0  0
 10 12  1  0  0  0  0
 12 16  1  0  0  0  0
 12 13  1  0  0  0  0
 12 27  1  0  0  0  0
 13 14  1  0  0  0  0
 13 28  1  0  0  0  0
 13 29  1  0  0  0  0
 14 15  1  0  0  0  0
 14 30  1  0  0  0  0
 14 31  1  0  0  0  0
 15 16  1  0  0  0  0
 15 32  1  0  0  0  0
 15 33  1  0  0  0  0
M  END
> <s_m_source_file>
AV-unprocessed.smi

> <i_m_source_file_index>
3220

> <i_lp_mmshare_version>
43012

> <i_f3d_flags>
0

> <s_epik_input>
bjFbY0hdW2NIXVtjSF1uMVtDSDJdW0NAQEhdKFtDSDNdKVtOSF1DKD1PKVtDQEBIXTJbQ0gyXVtDSDJdW0NIMl1PMg==

> <s_epik_cmdline>
J2VwaWtfcHl0aG9uJywgJy1waCcsICc3LjAnLCAnLXRuJywgJzgnLCAnLW1hJywgJzIwMCcsICctbWV0YWxfYmluZGluZycsICctaW1hZScsICc8aW5maWxlLm1hZT4nLCAnLW9tYWUnLCAnPG91dGZpbGUubWFlPic=

> <r_lp_tautomer_probability>
1

> <r_epik_Ionization_Penalty>
0.00033363

> <r_epik_Ionization_Penalty_Charging>
0

> <r_epik_Ionization_Penalty_Neutral>
0.00033363

> <r_epik_State_Penalty>
-0

> <r_epik_Charging_Adjusted_Penalty>
0

> <i_epik_Tot_Q>
0

> <i_epik_Tot_abs_Q>
0

> <r_epik_Metal_State_Penalty>
-0

> <b_epik_Metal_Only>
0

> <s_lp_Force_Field>
OPLS_2005

> <r_lp_Energy>
17.8243

> <b_lp_Chiralities_Consistent>
1

> <s_lp_Variant>
AV-unprocessed.smi:3220-4

> <Gold.Version>
5.8.1

> <Gold.Id.Protein>
6NUR|6NUR_protein|mol2

> <Gold.PLP.Fitness>
38.3386

> <Gold.PLP.PLP>
-32.4738

> <Gold.PLP.part.hbond>
-2.0000

> <Gold.PLP.part.metal>
0.0000

> <Gold.PLP.part.buried>
-5.8764

> <Gold.PLP.part.nonpolar>
-24.5623

> <Gold.PLP.part.repulsive>
0.2433

> <Gold.PLP.ligand.clash>
0.0000

> <Gold.PLP.ligand.torsion>
1.0485

> <Gold.PLP.Chemscore.Hbond>
1.6560

> <Gold.PLP.Chemscore.CHOScore>
0.9894

> <Gold.PLP.Chemscore.Metal>
0.0000

> <Gold.Chemscore.Hbonds>
donor molecule, donor type, donor heavy atom, donor atom, acceptor molecule, acceptor atom, score
      P1  H  7989  7998       L1    11  0.95
      P1  H  8011  8017       L1    16  0.61
      L1  C     5    23       P1  8028  0.64

> <Gold.PLP.Chemscore.Internal.Correction>
0.0256

> <Gold.Rescore>
     Score         DG    S(hbond)    S(metal)    S(lipo)     H(rot)  DE(clash)    DE(int)     intcor
     11.15     -13.26       0.88        0.00      77.00       1.62       0.15       1.96       ----

> <Gold.Chemscore.Fitness>
11.1451

> <Gold.Chemscore.DG>
-13.2641

> <Gold.Chemscore.ZeroCoef>
-5.4800

> <Gold.Chemscore.Hbond>
0.8765

> <Gold.Chemscore.Metal>
0.0000

> <Gold.Chemscore.Lipo>
76.9974

> <Gold.Chemscore.Internal_Hbond>
0.0000

> <Gold.Chemscore.DEClash>
0.1542

> <Gold.Chemscore.DEInternal>
1.9648

> <Gold.Chemscore.Rot>
1.6219

> <Gold.Chemscore.Internal.Correction>
   9.000000E+99

> <Gold.Chemscore.Hbonds>
donor molecule, donor type, donor heavy atom, donor atom, acceptor molecule, acceptor atom, score
      P1  H  7989  7998       L1    11  0.21
      P1  H  8011  8017       L1    16  0.43

> <Gold.Chemscore.Hbond.Weighted>
-2.9274

> <Gold.Chemscore.Metal.Weighted>
-0.0000

> <Gold.Chemscore.Lipo.Weighted>
-9.0087

> <Gold.Chemscore.Internal_Hbond.Weighted>
0.0000

> <Gold.Chemscore.DEClash.Weighted>
0.1542

> <Gold.Chemscore.DEInternal.Weighted>
1.9648

> <Gold.Chemscore.Rot.Weighted>
4.1520

> <Gold.Chemscore.Internal.Correction.Weighted>
   9.000000E+99

> <Gold.Protein.RotatedTorsions>
[ 6907 6896 6895 6894 ] final  139.53 input  -60.11 | X-H torsion
[ 7974 7965 7964 7962 ] final  -30.37 input  175.53 | X-H torsion
[ 8008 7997 7996 7995 ] final  138.86 input   59.86 | X-H torsion
[ 10167 10162 10161 10158 ] final -163.78 input  -65.29 | X-H torsion
[ 10718 10713 10712 10709 ] final  -30.65 input   66.30 | X-H torsion
[ 10763 10752 10751 10750 ] final  140.89 input  -60.55 | X-H torsion
[ 11005 11000 10999 10996 ] final  170.09 input  -57.11 | X-H torsion

> <Gold.Protein.ActiveResidues>
 VAL166  LYS551  ARG553  GLY616  TRP617  ASP618  TYR619  PRO620  LYS621  CYS622 
 ASP623  PHE694  ASN695  SER759  ASP760  ASP761  ALA762  ILE779  LEU786  VAL792 
 PHE793  MET794  SER795  GLU796  ALA797  LYS798  CYS799  TRP800  GLU811  SER814 

> <Gold.Protein.RotatedAtoms>
  152.2538  133.5238  159.5341 H   0  0  0  0  0  0  0  0  0  0  0  0  # atno 6907 bound_to 6896
  150.7102  134.0923  159.3945 H   0  0  0  0  0  0  0  0  0  0  0  0  # atno 6908 bound_to 6896
  151.8842  135.0442  160.0542 H   0  0  0  0  0  0  0  0  0  0  0  0  # atno 6909 bound_to 6896
  146.1148  140.5532  142.8762 H   0  0  0  0  0  0  0  0  0  0  0  0  # atno 7974 bound_to 7965
  156.2994  140.2382  156.4143 H   0  0  0  0  0  0  0  0  0  0  0  0  # atno 8008 bound_to 7997
  154.8413  140.0428  157.1563 H   0  0  0  0  0  0  0  0  0  0  0  0  # atno 8009 bound_to 7997
  154.9099  140.2989  155.5275 H   0  0  0  0  0  0  0  0  0  0  0  0  # atno 8010 bound_to 7997
  139.6297  144.0464  152.2005 H   0  0  0  0  0  0  0  0  0  0  0  0  # atno 10167 bound_to 10162
  156.3972  130.4383  149.7350 H   0  0  0  0  0  0  0  0  0  0  0  0  # atno 10718 bound_to 10713
  153.9302  135.2991  155.3446 H   0  0  0  0  0  0  0  0  0  0  0  0  # atno 10763 bound_to 10752
  154.7531  135.4971  153.9328 H   0  0  0  0  0  0  0  0  0  0  0  0  # atno 10764 bound_to 10752
  153.1096  135.6755  153.9629 H   0  0  0  0  0  0  0  0  0  0  0  0  # atno 10765 bound_to 10752
  140.3047  134.7566  157.3944 H   0  0  0  0  0  0  0  0  0  0  0  0  # atno 11005 bound_to 11000
  144.7543  140.5268  143.6780 LP  0  0  0  0  0  0  0  0  0  0  0  0  # atno 17320 bound_to 7965
  145.5590  139.1479  143.3352 LP  0  0  0  0  0  0  0  0  0  0  0  0  # atno 17321 bound_to 7965
  140.0126  144.6212  150.7634 LP  0  0  0  0  0  0  0  0  0  0  0  0  # atno 17342 bound_to 10162
  140.7432  143.2842  151.3511 LP  0  0  0  0  0  0  0  0  0  0  0  0  # atno 17343 bound_to 10162
  156.4380  130.7847  151.2868 LP  0  0  0  0  0  0  0  0  0  0  0  0  # atno 17370 bound_to 10713
  157.7502  131.0133  150.3421 LP  0  0  0  0  0  0  0  0  0  0  0  0  # atno 17371 bound_to 10713
  140.1078  134.5386  155.8293 LP  0  0  0  0  0  0  0  0  0  0  0  0  # atno 17394 bound_to 11000
  141.2121  133.6715  156.6632 LP  0  0  0  0  0  0  0  0  0  0  0  0  # atno 17395 bound_to 11000

$$$$
