AV-unprocessed.smi:1428|AV-procd|sdf|5817|dock3
  -GOLD-   22720 5473D 1   1.00000     0.00000
 Structure written by MMmdl.
 43 44  0  0  0  0  0  0  0  0  3 V2000
  151.6274  145.4304  159.0752 C   0  0  0  0  0  0  0  0  0  0  0  0
  151.1633  144.3516  158.2708 O   0  0  0  0  0  0  0  0  0  0  0  0
  151.5989  143.0738  158.5664 C   0  0  0  0  0  0  0  0  0  0  0  0
  152.5339  142.9192  159.5374 N   0  0  0  0  0  0  0  0  0  0  0  0
  152.9581  141.6726  159.8285 C   0  0  0  0  0  0  0  0  0  0  0  0
  152.4739  140.5229  159.1783 C   0  0  0  0  0  0  0  0  0  0  0  0
  151.5040  140.6801  158.1712 C   0  0  0  0  0  0  0  0  0  0  0  0
  151.0590  141.9842  157.8439 C   0  0  0  0  0  0  0  0  0  0  0  0
  150.0719  142.2569  156.8567 N   0  0  0  0  0  0  0  0  0  0  0  0
  149.4661  141.3998  156.0179 C   0  0  0  0  0  0  0  0  0  0  0  0
  149.6647  140.1862  155.9716 O   0  0  0  0  0  0  0  0  0  0  0  0
  148.6155  142.0408  155.2034 N   0  0  0  0  0  0  0  0  0  0  0  0
  147.8016  141.4108  154.1644 C   0  0  2  0  0  0  0  0  0  0  0  0
  146.9576  142.4428  153.3899 C   0  0  0  0  0  0  0  0  0  0  0  0
  145.8230  143.0229  154.2524 C   0  0  0  0  0  0  0  0  0  0  0  0
  144.9576  141.9449  154.7937 N   0  3  2  0  0  0  0  0  0  0  0  0
  143.7705  142.4803  155.5061 C   0  0  0  0  0  0  0  0  0  0  0  0
  142.8172  141.3412  155.8849 C   0  0  0  0  0  0  0  0  0  0  0  0
  142.4441  140.6065  154.8199 N   0  5  0  0  0  0  0  0  0  0  0  0
  142.4752  141.1987  157.0574 O   0  0  0  0  0  0  0  0  0  0  0  0
  145.7379  140.9707  155.6034 C   0  0  0  0  0  0  0  0  0  0  0  0
  146.8771  140.3445  154.7778 C   0  0  0  0  0  0  0  0  0  0  0  0
  151.1980  146.3635  158.7107 H   0  0  0  0  0  0  0  0  0  0  0  0
  152.7131  145.5255  159.0266 H   0  0  0  0  0  0  0  0  0  0  0  0
  151.3241  145.3114  160.1164 H   0  0  0  0  0  0  0  0  0  0  0  0
  153.7013  141.5886  160.6077 H   0  0  0  0  0  0  0  0  0  0  0  0
  152.8348  139.5417  159.4496 H   0  0  0  0  0  0  0  0  0  0  0  0
  151.1132  139.8005  157.6840 H   0  0  0  0  0  0  0  0  0  0  0  0
  149.8598  143.2348  156.7223 H   0  0  0  0  0  0  0  0  0  0  0  0
  148.5167  143.0393  155.3158 H   0  0  0  0  0  0  0  0  0  0  0  0
  148.4772  140.9127  153.4666 H   0  0  0  0  0  0  0  0  0  0  0  0
  147.5858  143.2480  153.0075 H   0  0  0  0  0  0  0  0  0  0  0  0
  146.5239  141.9609  152.5129 H   0  0  0  0  0  0  0  0  0  0  0  0
  146.2316  143.6123  155.0748 H   0  0  0  0  0  0  0  0  0  0  0  0
  145.2264  143.7027  153.6431 H   0  0  0  0  0  0  0  0  0  0  0  0
  144.0831  143.0762  156.3664 H   0  0  0  0  0  0  0  0  0  0  0  0
  143.2130  143.1498  154.8494 H   0  0  0  0  0  0  0  0  0  0  0  0
  142.8121  140.8514  153.8929 H   0  0  0  0  0  0  0  0  0  0  0  0
  146.1397  141.4699  156.4865 H   0  0  0  0  0  0  0  0  0  0  0  0
  145.0868  140.1745  155.9656 H   0  0  0  0  0  0  0  0  0  0  0  0
  146.4439  139.7439  153.9767 H   0  0  0  0  0  0  0  0  0  0  0  0
  147.4526  139.6538  155.3955 H   0  0  0  0  0  0  0  0  0  0  0  0
  144.5947  141.4418  153.9962 H   0  0  0  0  0  0  0  0  0  0  0  0
  1  2  1  0  0  0  0
  1 23  1  0  0  0  0
  1 24  1  0  0  0  0
  1 25  1  0  0  0  0
  2  3  1  0  0  0  0
  3  8  1  0  0  0  0
  3  4  2  0  0  0  0
  4  5  1  0  0  0  0
  5  6  2  0  0  0  0
  5 26  1  0  0  0  0
  6  7  1  0  0  0  0
  6 27  1  0  0  0  0
  7  8  2  0  0  0  0
  7 28  1  0  0  0  0
  8  9  1  0  0  0  0
  9 10  1  0  0  0  0
  9 29  1  0  0  0  0
 10 11  2  0  0  0  0
 10 12  1  0  0  0  0
 12 13  1  0  0  0  0
 12 30  1  0  0  0  0
 13 22  1  0  0  0  0
 13 14  1  0  0  0  0
 13 31  1  0  0  0  0
 14 15  1  0  0  0  0
 14 32  1  0  0  0  0
 14 33  1  0  0  0  0
 15 16  1  0  0  0  0
 15 34  1  0  0  0  0
 15 35  1  0  0  0  0
 16 17  1  0  0  0  0
 16 21  1  0  0  0  0
 16 43  1  0  0  0  0
 17 18  1  0  0  0  0
 17 36  1  0  0  0  0
 17 37  1  0  0  0  0
 18 19  1  0  0  0  0
 18 20  2  0  0  0  0
 19 38  1  0  0  0  0
 21 22  1  0  0  0  0
 21 39  1  0  0  0  0
 21 40  1  0  0  0  0
 22 41  1  0  0  0  0
 22 42  1  0  0  0  0
M  CHG  1  16   1
M  CHG  1  19  -1
M  END
> <s_m_source_file>
AV-unprocessed.smi

> <i_m_source_file_index>
1428

> <i_lp_mmshare_version>
43012

> <i_f3d_flags>
0

> <s_epik_input>
W0NIM11PYzFuW2NIXVtjSF1bY0hdYzFbTkhdQyg9TylbTkhdW0NIXTJbQ0gyXVtDSDJdTihbQ0gyXVtDSDJdMilbQ0gyXUMoPU8pW05IMl0=

> <s_epik_cmdline>
J2VwaWtfcHl0aG9uJywgJy1waCcsICc3LjAnLCAnLXRuJywgJzgnLCAnLW1hJywgJzIwMCcsICctbWV0YWxfYmluZGluZycsICctaW1hZScsICc8aW5maWxlLm1hZT4nLCAnLW9tYWUnLCAnPG91dGZpbGUubWFlPic=

> <r_lp_tautomer_probability>
1

> <r_epik_Ionization_Penalty>
5.72888

> <r_epik_Ionization_Penalty_Charging>
5.7288

> <r_epik_Ionization_Penalty_Neutral>
7.84403e-05

> <r_epik_State_Penalty>
6.54882

> <r_epik_Charging_Adjusted_Penalty>
12.2776

> <i_epik_Tot_Q>
0

> <i_epik_Tot_abs_Q>
2

> <r_epik_Metal_State_Penalty>
2.51301

> <b_epik_Metal_Only>
1

> <s_lp_Force_Field>
OPLS_2005

> <r_lp_Energy>
10.1368

> <b_lp_Chiralities_Consistent>
1

> <s_lp_Variant>
AV-unprocessed.smi:1428-5

> <Gold.Version>
5.8.1

> <Gold.Id.Protein>
6NUR|6NUR_protein|mol2

> <Gold.PLP.Fitness>
49.2012

> <Gold.PLP.PLP>
-34.4833

> <Gold.PLP.part.hbond>
-4.0000

> <Gold.PLP.part.metal>
0.0000

> <Gold.PLP.part.buried>
-8.1524

> <Gold.PLP.part.nonpolar>
-23.9455

> <Gold.PLP.part.repulsive>
0.4013

> <Gold.PLP.ligand.clash>
0.0000

> <Gold.PLP.ligand.torsion>
0.0673

> <Gold.PLP.Chemscore.Hbond>
4.9360

> <Gold.PLP.Chemscore.CHOScore>
0.0000

> <Gold.PLP.Chemscore.Metal>
0.0000

> <Gold.Chemscore.Hbonds>
donor molecule, donor type, donor heavy atom, donor atom, acceptor molecule, acceptor atom, score
      L1  H     9    29       P1  8028  0.91
      L1  H    12    30       P1  8028  1.00
      L1  H    16    43       P1 10175  2.00
      L1  H    19    38       P1 10175  1.00

> <Gold.PLP.Chemscore.Internal.Correction>
0.0446

> <Gold.Rescore>
     Score         DG    S(hbond)    S(metal)    S(lipo)     H(rot)  DE(clash)    DE(int)     intcor
     18.06     -20.52       3.80        0.00      70.26       2.29       0.41       2.06       ----

> <Gold.Chemscore.Fitness>
18.0550

> <Gold.Chemscore.DG>
-20.5233

> <Gold.Chemscore.ZeroCoef>
-5.4800

> <Gold.Chemscore.Hbond>
3.7973

> <Gold.Chemscore.Metal>
0.0000

> <Gold.Chemscore.Lipo>
70.2647

> <Gold.Chemscore.Internal_Hbond>
0.0000

> <Gold.Chemscore.DEClash>
0.4051

> <Gold.Chemscore.DEInternal>
2.0632

> <Gold.Chemscore.Rot>
2.2894

> <Gold.Chemscore.Internal.Correction>
   9.000000E+99

> <Gold.Chemscore.Hbonds>
donor molecule, donor type, donor heavy atom, donor atom, acceptor molecule, acceptor atom, score
      L1  H     9    29       P1  8028  0.82
      L1  H    12    30       P1  8028  1.00
      L1  H    16    43       P1 10175  0.29
      L1  H    19    38       P1 10175  0.38

> <Gold.Chemscore.Hbond.Weighted>
-12.6831

> <Gold.Chemscore.Metal.Weighted>
-0.0000

> <Gold.Chemscore.Lipo.Weighted>
-8.2210

> <Gold.Chemscore.Internal_Hbond.Weighted>
0.0000

> <Gold.Chemscore.DEClash.Weighted>
0.4051

> <Gold.Chemscore.DEInternal.Weighted>
2.0632

> <Gold.Chemscore.Rot.Weighted>
5.8608

> <Gold.Chemscore.Internal.Correction.Weighted>
   9.000000E+99

> <Gold.Protein.RotatedTorsions>
[ 6907 6896 6895 6894 ] final   47.57 input  -60.11 | X-H torsion
[ 7974 7965 7964 7962 ] final   52.61 input  175.53 | X-H torsion
[ 8008 7997 7996 7995 ] final   32.62 input   59.86 | X-H torsion
[ 10167 10162 10161 10158 ] final  -32.55 input  -65.29 | X-H torsion
[ 10718 10713 10712 10709 ] final  165.28 input   66.30 | X-H torsion
[ 10763 10752 10751 10750 ] final  -37.71 input  -60.55 | X-H torsion
[ 11005 11000 10999 10996 ] final  141.95 input  -57.11 | X-H torsion

> <Gold.Protein.ActiveResidues>
 VAL166  LYS551  ARG553  GLY616  TRP617  ASP618  TYR619  PRO620  LYS621  CYS622 
 ASP623  PHE694  ASN695  SER759  ASP760  ASP761  ALA762  ILE779  LEU786  VAL792 
 PHE793  MET794  SER795  GLU796  ALA797  LYS798  CYS799  TRP800  GLU811  SER814 

> <Gold.Protein.RotatedAtoms>
  152.2695  134.7948  160.0416 H   0  0  0  0  0  0  0  0  0  0  0  0  # atno 6907 bound_to 6896
  151.8565  133.3444  159.3698 H   0  0  0  0  0  0  0  0  0  0  0  0  # atno 6908 bound_to 6896
  150.7146  134.5175  159.5682 H   0  0  0  0  0  0  0  0  0  0  0  0  # atno 6909 bound_to 6896
  145.9795  139.4228  143.0140 H   0  0  0  0  0  0  0  0  0  0  0  0  # atno 7974 bound_to 7965
  155.1254  140.3252  155.4487 H   0  0  0  0  0  0  0  0  0  0  0  0  # atno 8008 bound_to 7997
  156.2650  140.2020  156.6323 H   0  0  0  0  0  0  0  0  0  0  0  0  # atno 8009 bound_to 7997
  154.6653  140.0542  157.0093 H   0  0  0  0  0  0  0  0  0  0  0  0  # atno 8010 bound_to 7997
  140.7219  143.3686  151.1822 H   0  0  0  0  0  0  0  0  0  0  0  0  # atno 10167 bound_to 10162
  157.0824  131.0396  151.2570 H   0  0  0  0  0  0  0  0  0  0  0  0  # atno 10718 bound_to 10713
  153.9007  135.6802  153.4755 H   0  0  0  0  0  0  0  0  0  0  0  0  # atno 10763 bound_to 10752
  153.1131  135.4774  154.9066 H   0  0  0  0  0  0  0  0  0  0  0  0  # atno 10764 bound_to 10752
  154.7576  135.3202  154.8394 H   0  0  0  0  0  0  0  0  0  0  0  0  # atno 10765 bound_to 10752
  140.0440  134.9290  157.0896 H   0  0  0  0  0  0  0  0  0  0  0  0  # atno 11005 bound_to 11000
  145.7790  140.9864  143.1109 LP  0  0  0  0  0  0  0  0  0  0  0  0  # atno 17320 bound_to 7965
  144.6858  139.9540  143.7478 LP  0  0  0  0  0  0  0  0  0  0  0  0  # atno 17321 bound_to 7965
  139.7252  143.9159  152.3000 LP  0  0  0  0  0  0  0  0  0  0  0  0  # atno 17342 bound_to 10162
  139.8929  144.6955  150.8750 LP  0  0  0  0  0  0  0  0  0  0  0  0  # atno 17343 bound_to 10162
  157.4789  130.7753  149.7394 LP  0  0  0  0  0  0  0  0  0  0  0  0  # atno 17370 bound_to 10713
  155.9920  130.3934  150.2961 LP  0  0  0  0  0  0  0  0  0  0  0  0  # atno 17371 bound_to 10713
  140.4023  134.2069  155.7163 LP  0  0  0  0  0  0  0  0  0  0  0  0  # atno 17394 bound_to 11000
  141.1897  133.8232  157.0945 LP  0  0  0  0  0  0  0  0  0  0  0  0  # atno 17395 bound_to 11000

$$$$
