AV-unprocessed.smi:723|AV-procd|sdf|3506|dock3
  -GOLD-   22720 0503D 1   1.00000     0.00000
 Structure written by MMmdl.
 42 44  0  0  0  0  0  0  0  0  1 V2000
  152.2734  142.4851  159.4518 C   0  0  0  0  0  0  0  0  0  0  0  0
  151.5521  142.7445  158.2600 O   0  0  0  0  0  0  0  0  0  0  0  0
  151.2190  141.5575  157.5604 C   0  0  0  0  0  0  0  0  0  0  0  0
  150.5023  141.9292  156.2560 C   0  0  0  0  0  0  0  0  0  0  0  0
  150.2048  140.7576  155.4550 N   0  0  0  0  0  0  0  0  0  0  0  0
  148.9691  140.2896  155.0535 C   0  0  0  0  0  0  0  0  0  0  0  0
  149.2206  139.1599  154.3271 C   0  0  0  0  0  0  0  0  0  0  0  0
  148.3115  138.2829  153.6832 N   0  0  0  0  0  0  0  0  0  0  0  0
  146.9984  138.1436  153.9291 C   0  0  0  0  0  0  0  0  0  0  0  0
  146.3652  138.7791  154.7724 O   0  0  0  0  0  0  0  0  0  0  0  0
  146.4542  137.2139  153.1332 N   0  0  0  0  0  0  0  0  0  0  0  0
  145.0813  136.8172  153.1331 C   0  0  2  0  0  0  0  0  0  0  0  0
  144.7391  135.3394  153.2091 C   0  0  2  0  0  0  0  0  0  0  0  0
  145.7659  134.2181  153.1499 C   0  0  0  0  0  0  0  0  0  0  0  0
  145.5334  133.3165  151.9214 C   0  0  0  0  0  0  0  0  0  0  0  0
  145.2943  134.0886  150.5982 C   0  0  0  0  0  0  0  0  0  0  0  0
  145.3588  135.6218  150.7399 C   0  0  0  0  0  0  0  0  0  0  0  0
  144.5229  136.0929  151.9204 C   0  0  2  0  0  0  0  0  0  0  0  0
  150.6309  139.0028  154.3311 C   0  0  0  0  0  0  0  0  0  0  0  0
  151.2193  139.9732  155.0137 N   0  0  0  0  0  0  0  0  0  0  0  0
  152.4982  143.4245  159.9565 H   0  0  0  0  0  0  0  0  0  0  0  0
  153.2179  141.9821  159.2396 H   0  0  0  0  0  0  0  0  0  0  0  0
  151.6929  141.8659  160.1372 H   0  0  0  0  0  0  0  0  0  0  0  0
  152.1232  140.9857  157.3444 H   0  0  0  0  0  0  0  0  0  0  0  0
  150.5716  140.9316  158.1769 H   0  0  0  0  0  0  0  0  0  0  0  0
  149.5673  142.4469  156.4740 H   0  0  0  0  0  0  0  0  0  0  0  0
  151.1136  142.6131  155.6653 H   0  0  0  0  0  0  0  0  0  0  0  0
  148.0510  140.7925  155.3191 H   0  0  0  0  0  0  0  0  0  0  0  0
  148.7029  137.6996  152.9583 H   0  0  0  0  0  0  0  0  0  0  0  0
  147.0568  136.7465  152.4719 H   0  0  0  0  0  0  0  0  0  0  0  0
  144.3831  137.4854  153.6351 H   0  0  0  0  0  0  0  0  0  0  0  0
  143.8302  135.0745  153.7463 H   0  0  0  0  0  0  0  0  0  0  0  0
  146.7713  134.6350  153.1012 H   0  0  0  0  0  0  0  0  0  0  0  0
  145.7199  133.6364  154.0710 H   0  0  0  0  0  0  0  0  0  0  0  0
  146.3793  132.6380  151.8063 H   0  0  0  0  0  0  0  0  0  0  0  0
  144.6692  132.6794  152.1131 H   0  0  0  0  0  0  0  0  0  0  0  0
  146.0104  133.7621  149.8434 H   0  0  0  0  0  0  0  0  0  0  0  0
  144.3120  133.8161  150.2102 H   0  0  0  0  0  0  0  0  0  0  0  0
  146.3969  135.9268  150.8700 H   0  0  0  0  0  0  0  0  0  0  0  0
  145.0067  136.1091  149.8303 H   0  0  0  0  0  0  0  0  0  0  0  0
  143.4813  136.2864  151.6706 H   0  0  0  0  0  0  0  0  0  0  0  0
  151.2349  138.2345  153.8710 H   0  0  0  0  0  0  0  0  0  0  0  0
  1  2  1  0  0  0  0
  1 21  1  0  0  0  0
  1 22  1  0  0  0  0
  1 23  1  0  0  0  0
  2  3  1  0  0  0  0
  3  4  1  0  0  0  0
  3 24  1  0  0  0  0
  3 25  1  0  0  0  0
  4  5  1  0  0  0  0
  4 26  1  0  0  0  0
  4 27  1  0  0  0  0
  5 20  1  0  0  0  0
  5  6  1  0  0  0  0
  6  7  2  0  0  0  0
  6 28  1  0  0  0  0
  7  8  1  0  0  0  0
  7 19  1  0  0  0  0
  8  9  1  0  0  0  0
  8 29  1  0  0  0  0
  9 10  2  0  0  0  0
  9 11  1  0  0  0  0
 11 12  1  0  0  0  0
 11 30  1  0  0  0  0
 12 18  1  0  0  0  0
 12 13  1  0  0  0  0
 12 31  1  0  0  0  0
 13 18  1  0  0  0  0
 13 14  1  0  0  0  0
 13 32  1  0  0  0  0
 14 15  1  0  0  0  0
 14 33  1  0  0  0  0
 14 34  1  0  0  0  0
 15 16  1  0  0  0  0
 15 35  1  0  0  0  0
 15 36  1  0  0  0  0
 16 17  1  0  0  0  0
 16 37  1  0  0  0  0
 16 38  1  0  0  0  0
 17 18  1  0  0  0  0
 17 39  1  0  0  0  0
 17 40  1  0  0  0  0
 18 41  1  0  0  0  0
 19 20  2  0  0  0  0
 19 42  1  0  0  0  0
M  END
> <s_m_source_file>
AV-unprocessed.smi

> <i_m_source_file_index>
723

> <i_lp_mmshare_version>
43012

> <i_f3d_flags>
0

> <s_epik_input>
W0NIM11PW0NIMl1bQ0gyXW4xW2NIXWMoW2NIXW4xKVtOSF1DKD1PKVtOSF1bQ0BIXTJbQ0BASF0oW0NAQEhdMjMpW0NIMl1bQ0gyXVtDSDJdW0NIMl0z

> <s_epik_cmdline>
J2VwaWtfcHl0aG9uJywgJy1waCcsICc3LjAnLCAnLXRuJywgJzgnLCAnLW1hJywgJzIwMCcsICctbWV0YWxfYmluZGluZycsICctaW1hZScsICc8aW5maWxlLm1hZT4nLCAnLW9tYWUnLCAnPG91dGZpbGUubWFlPic=

> <r_lp_tautomer_probability>
1

> <r_epik_Ionization_Penalty>
0.00031755

> <r_epik_Ionization_Penalty_Charging>
0

> <r_epik_Ionization_Penalty_Neutral>
0.00031755

> <r_epik_State_Penalty>
-0

> <r_epik_Charging_Adjusted_Penalty>
0

> <i_epik_Tot_Q>
0

> <i_epik_Tot_abs_Q>
0

> <r_epik_Metal_State_Penalty>
-0

> <b_epik_Metal_Only>
0

> <s_lp_Force_Field>
OPLS_2005

> <r_lp_Energy>
44.2387

> <b_lp_Chiralities_Consistent>
1

> <s_lp_Variant>
AV-unprocessed.smi:723-2

> <Gold.Version>
5.8.1

> <Gold.Id.Protein>
6NUR|6NUR_protein|mol2

> <Gold.PLP.Fitness>
40.7494

> <Gold.PLP.PLP>
-33.3496

> <Gold.PLP.part.hbond>
-3.0792

> <Gold.PLP.part.metal>
0.0000

> <Gold.PLP.part.buried>
-4.8056

> <Gold.PLP.part.nonpolar>
-25.7374

> <Gold.PLP.part.repulsive>
0.1861

> <Gold.PLP.ligand.clash>
0.0000

> <Gold.PLP.ligand.torsion>
0.2678

> <Gold.PLP.Chemscore.Hbond>
2.6220

> <Gold.PLP.Chemscore.CHOScore>
0.0000

> <Gold.PLP.Chemscore.Metal>
0.0000

> <Gold.Chemscore.Hbonds>
donor molecule, donor type, donor heavy atom, donor atom, acceptor molecule, acceptor atom, score
      L1  H     8    29       P1  7948  1.00
      L1  H    11    30       P1  7948  0.96
      P1  H  7989  7998       L1    20  0.57

> <Gold.PLP.Chemscore.Internal.Correction>
0.0693

> <Gold.Rescore>
     Score         DG    S(hbond)    S(metal)    S(lipo)     H(rot)  DE(clash)    DE(int)     intcor
     16.13     -17.23       1.95        0.00      79.09       1.56       0.07       1.03       ----

> <Gold.Chemscore.Fitness>
16.1330

> <Gold.Chemscore.DG>
-17.2298

> <Gold.Chemscore.ZeroCoef>
-5.4800

> <Gold.Chemscore.Hbond>
1.9452

> <Gold.Chemscore.Metal>
0.0000

> <Gold.Chemscore.Lipo>
79.0872

> <Gold.Chemscore.Internal_Hbond>
0.0000

> <Gold.Chemscore.DEClash>
0.0706

> <Gold.Chemscore.DEInternal>
1.0263

> <Gold.Chemscore.Rot>
1.5627

> <Gold.Chemscore.Internal.Correction>
   9.000000E+99

> <Gold.Chemscore.Hbonds>
donor molecule, donor type, donor heavy atom, donor atom, acceptor molecule, acceptor atom, score
      L1  H     8    29       P1  7948  1.00
      L1  H    11    30       P1  7948  0.86
      P1  H  7989  7998       L1    20  0.01

> <Gold.Chemscore.Hbond.Weighted>
-6.4971

> <Gold.Chemscore.Metal.Weighted>
-0.0000

> <Gold.Chemscore.Lipo.Weighted>
-9.2532

> <Gold.Chemscore.Internal_Hbond.Weighted>
0.0000

> <Gold.Chemscore.DEClash.Weighted>
0.0706

> <Gold.Chemscore.DEInternal.Weighted>
1.0263

> <Gold.Chemscore.Rot.Weighted>
4.0005

> <Gold.Chemscore.Internal.Correction.Weighted>
   9.000000E+99

> <Gold.Protein.RotatedTorsions>
[ 6907 6896 6895 6894 ] final    6.02 input  -60.11 | X-H torsion
[ 7974 7965 7964 7962 ] final  158.95 input  175.53 | X-H torsion
[ 8008 7997 7996 7995 ] final  -70.38 input   59.86 | X-H torsion
[ 10167 10162 10161 10158 ] final -172.75 input  -65.29 | X-H torsion
[ 10718 10713 10712 10709 ] final   43.15 input   66.30 | X-H torsion
[ 10763 10752 10751 10750 ] final    3.72 input  -60.55 | X-H torsion
[ 11005 11000 10999 10996 ] final -101.31 input  -57.11 | X-H torsion

> <Gold.Protein.ActiveResidues>
 VAL166  LYS551  ARG553  GLY616  TRP617  ASP618  TYR619  PRO620  LYS621  CYS622 
 ASP623  PHE694  ASN695  SER759  ASP760  ASP761  ALA762  ILE779  LEU786  VAL792 
 PHE793  MET794  SER795  GLU796  ALA797  LYS798  CYS799  TRP800  GLU811  SER814 

> <Gold.Protein.RotatedAtoms>
  151.6670  135.0981  160.0190 H   0  0  0  0  0  0  0  0  0  0  0  0  # atno 6907 bound_to 6896
  152.3914  133.6680  159.6249 H   0  0  0  0  0  0  0  0  0  0  0  0  # atno 6908 bound_to 6896
  150.7829  133.8865  159.3342 H   0  0  0  0  0  0  0  0  0  0  0  0  # atno 6909 bound_to 6896
  144.7817  139.7550  143.6257 H   0  0  0  0  0  0  0  0  0  0  0  0  # atno 7974 bound_to 7965
  154.5008  140.0835  156.7793 H   0  0  0  0  0  0  0  0  0  0  0  0  # atno 8008 bound_to 7997
  155.4008  140.3437  155.4238 H   0  0  0  0  0  0  0  0  0  0  0  0  # atno 8009 bound_to 7997
  156.1453  140.1542  156.8843 H   0  0  0  0  0  0  0  0  0  0  0  0  # atno 8010 bound_to 7997
  139.5726  144.1605  152.1406 H   0  0  0  0  0  0  0  0  0  0  0  0  # atno 10167 bound_to 10162
  157.4127  130.7923  149.7444 H   0  0  0  0  0  0  0  0  0  0  0  0  # atno 10718 bound_to 10713
  153.2799  135.6939  153.7396 H   0  0  0  0  0  0  0  0  0  0  0  0  # atno 10763 bound_to 10752
  153.6387  135.3397  155.3065 H   0  0  0  0  0  0  0  0  0  0  0  0  # atno 10764 bound_to 10752
  154.8492  135.4426  154.1849 H   0  0  0  0  0  0  0  0  0  0  0  0  # atno 10765 bound_to 10752
  141.1236  133.8467  157.1215 H   0  0  0  0  0  0  0  0  0  0  0  0  # atno 11005 bound_to 11000
  146.2028  139.5334  142.9732 LP  0  0  0  0  0  0  0  0  0  0  0  0  # atno 17320 bound_to 7965
  145.6032  141.0352  143.2007 LP  0  0  0  0  0  0  0  0  0  0  0  0  # atno 17321 bound_to 7965
  140.1141  144.5431  150.6905 LP  0  0  0  0  0  0  0  0  0  0  0  0  # atno 17342 bound_to 10162
  140.7010  143.2435  151.4863 LP  0  0  0  0  0  0  0  0  0  0  0  0  # atno 17343 bound_to 10162
  155.9855  130.3982  150.3256 LP  0  0  0  0  0  0  0  0  0  0  0  0  # atno 17370 bound_to 10713
  157.1396  131.0293  151.2933 LP  0  0  0  0  0  0  0  0  0  0  0  0  # atno 17371 bound_to 10713
  140.0214  134.9944  157.0600 LP  0  0  0  0  0  0  0  0  0  0  0  0  # atno 17394 bound_to 11000
  140.4433  134.1658  155.7175 LP  0  0  0  0  0  0  0  0  0  0  0  0  # atno 17395 bound_to 11000

$$$$
