AV-unprocessed.smi:2499|AV-procd|sdf|9832|dock3
  -GOLD-   2272013463D 1   1.00000     0.00000
 Structure written by MMmdl.
 27 28  0  0  0  0  0  0  0  0  1 V2000
  152.7524  144.6933  157.9976 C   0  0  0  0  0  0  0  0  0  0  0  0
  151.4037  144.1376  158.4752 C   0  0  1  0  0  0  0  0  0  0  0  0
  150.7315  143.5086  157.3424 N   0  0  0  0  0  0  0  0  0  0  0  0
  150.8796  142.2310  156.9622 C   0  0  0  0  0  0  0  0  0  0  0  0
  151.6116  141.4279  157.5411 O   0  0  0  0  0  0  0  0  0  0  0  0
  150.1301  141.9546  155.8819 N   0  0  0  0  0  0  0  0  0  0  0  0
  150.0311  140.7194  155.1930 C   0  0  0  0  0  0  0  0  0  0  0  0
  148.9071  140.0965  154.8351 N   0  0  0  0  0  0  0  0  0  0  0  0
  149.3355  138.9411  154.1977 C   0  0  0  0  0  0  0  0  0  0  0  0
  150.7066  138.9316  154.2055 C   0  0  0  0  0  0  0  0  0  0  0  0
  151.1635  140.0573  154.8369 O   0  0  0  0  0  0  0  0  0  0  0  0
  151.5918  143.2062  159.6610 C   0  0  0  0  0  0  0  0  0  0  0  0
  152.4716  143.5852  160.8292 C   0  0  0  0  0  0  0  0  0  0  0  0
  152.9019  142.4878  159.8835 C   0  0  0  0  0  0  0  0  0  0  0  0
  153.2655  145.2226  158.8011 H   0  0  0  0  0  0  0  0  0  0  0  0
  152.6195  145.3970  157.1750 H   0  0  0  0  0  0  0  0  0  0  0  0
  153.4112  143.8958  157.6521 H   0  0  0  0  0  0  0  0  0  0  0  0
  150.8031  144.9876  158.8054 H   0  0  0  0  0  0  0  0  0  0  0  0
  150.1083  144.0939  156.8056 H   0  0  0  0  0  0  0  0  0  0  0  0
  149.5702  142.7077  155.5109 H   0  0  0  0  0  0  0  0  0  0  0  0
  148.6381  138.2229  153.7925 H   0  0  0  0  0  0  0  0  0  0  0  0
  151.4538  138.2470  153.8322 H   0  0  0  0  0  0  0  0  0  0  0  0
  150.7003  142.6315  159.9058 H   0  0  0  0  0  0  0  0  0  0  0  0
  153.0100  144.5294  160.7773 H   0  0  0  0  0  0  0  0  0  0  0  0
  152.1383  143.2932  161.8229 H   0  0  0  0  0  0  0  0  0  0  0  0
  152.8572  141.4634  160.2472 H   0  0  0  0  0  0  0  0  0  0  0  0
  153.7231  142.7064  159.2038 H   0  0  0  0  0  0  0  0  0  0  0  0
  1  2  1  0  0  0  0
  1 15  1  0  0  0  0
  1 16  1  0  0  0  0
  1 17  1  0  0  0  0
  2  3  1  0  0  0  0
  2 12  1  0  0  0  0
  2 18  1  0  0  0  0
  3  4  1  0  0  0  0
  3 19  1  0  0  0  0
  4  5  2  0  0  0  0
  4  6  1  0  0  0  0
  6  7  1  0  0  0  0
  6 20  1  0  0  0  0
  7 11  1  0  0  0  0
  7  8  2  0  0  0  0
  8  9  1  0  0  0  0
  9 10  2  0  0  0  0
  9 21  1  0  0  0  0
 10 11  1  0  0  0  0
 10 22  1  0  0  0  0
 12 14  1  0  0  0  0
 12 13  1  0  0  0  0
 12 23  1  0  0  0  0
 13 14  1  0  0  0  0
 13 24  1  0  0  0  0
 13 25  1  0  0  0  0
 14 26  1  0  0  0  0
 14 27  1  0  0  0  0
M  END
> <s_m_source_file>
AV-unprocessed.smi

> <i_m_source_file_index>
2499

> <i_lp_mmshare_version>
43012

> <i_f3d_flags>
0

> <s_epik_input>
W0NIMl0xW0NIMl1bQ0hdMVtDQEhdKFtDSDNdKVtOSF1DKD1PKVtOSF1jMm5bY0hdW2NIXW8y

> <s_epik_cmdline>
J2VwaWtfcHl0aG9uJywgJy1waCcsICc3LjAnLCAnLXRuJywgJzgnLCAnLW1hJywgJzIwMCcsICctbWV0YWxfYmluZGluZycsICctaW1hZScsICc8aW5maWxlLm1hZT4nLCAnLW9tYWUnLCAnPG91dGZpbGUubWFlPic=

> <r_lp_tautomer_probability>
0.785861

> <r_epik_Ionization_Penalty>
5.39182e-05

> <r_epik_Ionization_Penalty_Charging>
0

> <r_epik_Ionization_Penalty_Neutral>
5.39182e-05

> <r_epik_State_Penalty>
0.0482803

> <r_epik_Charging_Adjusted_Penalty>
0.0482803

> <i_epik_Tot_Q>
0

> <i_epik_Tot_abs_Q>
0

> <r_epik_Metal_State_Penalty>
0.0621274

> <b_epik_Metal_Only>
0

> <s_lp_Force_Field>
OPLS_2005

> <r_lp_Energy>
12.2154

> <b_lp_Chiralities_Consistent>
1

> <s_lp_Variant>
AV-unprocessed.smi:2499-2

> <Gold.Version>
5.8.1

> <Gold.Id.Protein>
6NUR|6NUR_protein|mol2

> <Gold.PLP.Fitness>
41.6087

> <Gold.PLP.PLP>
-34.1232

> <Gold.PLP.part.hbond>
-2.9687

> <Gold.PLP.part.metal>
0.0000

> <Gold.PLP.part.buried>
-3.9549

> <Gold.PLP.part.nonpolar>
-26.6631

> <Gold.PLP.part.repulsive>
0.2874

> <Gold.PLP.ligand.clash>
0.0000

> <Gold.PLP.ligand.torsion>
1.3536

> <Gold.PLP.Chemscore.Hbond>
2.6576

> <Gold.PLP.Chemscore.CHOScore>
0.3840

> <Gold.PLP.Chemscore.Metal>
0.0000

> <Gold.Chemscore.Hbonds>
donor molecule, donor type, donor heavy atom, donor atom, acceptor molecule, acceptor atom, score
      L1  H     3    19       P1  8028  1.00
      L1  H     6    20       P1  8028  0.76
      P1  H  7989  7998       L1    11  0.85
      L1  C     9    21       P1  7948  0.39

> <Gold.PLP.Chemscore.Internal.Correction>
1.0679

> <Gold.Rescore>
     Score         DG    S(hbond)    S(metal)    S(lipo)     H(rot)  DE(clash)    DE(int)     intcor
     16.32     -19.42       2.54        0.00      74.86       1.29       0.19       2.92       ----

> <Gold.Chemscore.Fitness>
16.3160

> <Gold.Chemscore.DG>
-19.4248

> <Gold.Chemscore.ZeroCoef>
-5.4800

> <Gold.Chemscore.Hbond>
2.5425

> <Gold.Chemscore.Metal>
0.0000

> <Gold.Chemscore.Lipo>
74.8629

> <Gold.Chemscore.Internal_Hbond>
0.0000

> <Gold.Chemscore.DEClash>
0.1889

> <Gold.Chemscore.DEInternal>
2.9199

> <Gold.Chemscore.Rot>
1.2915

> <Gold.Chemscore.Internal.Correction>
   9.000000E+99

> <Gold.Chemscore.Hbonds>
donor molecule, donor type, donor heavy atom, donor atom, acceptor molecule, acceptor atom, score
      L1  H     3    19       P1  8028  0.98
      L1  H     6    20       P1  8028  0.71
      P1  H  7989  7998       L1    11  0.06

> <Gold.Chemscore.Hbond.Weighted>
-8.4920

> <Gold.Chemscore.Metal.Weighted>
-0.0000

> <Gold.Chemscore.Lipo.Weighted>
-8.7590

> <Gold.Chemscore.Internal_Hbond.Weighted>
0.0000

> <Gold.Chemscore.DEClash.Weighted>
0.1889

> <Gold.Chemscore.DEInternal.Weighted>
2.9199

> <Gold.Chemscore.Rot.Weighted>
3.3062

> <Gold.Chemscore.Internal.Correction.Weighted>
   9.000000E+99

> <Gold.Protein.RotatedTorsions>
[ 6907 6896 6895 6894 ] final  -29.44 input  -60.11 | X-H torsion
[ 7974 7965 7964 7962 ] final   72.04 input  175.53 | X-H torsion
[ 8008 7997 7996 7995 ] final  -78.01 input   59.86 | X-H torsion
[ 10167 10162 10161 10158 ] final -173.78 input  -65.29 | X-H torsion
[ 10718 10713 10712 10709 ] final  -56.31 input   66.30 | X-H torsion
[ 10763 10752 10751 10750 ] final   57.68 input  -60.55 | X-H torsion
[ 11005 11000 10999 10996 ] final   86.43 input  -57.11 | X-H torsion

> <Gold.Protein.ActiveResidues>
 VAL166  LYS551  ARG553  GLY616  TRP617  ASP618  TYR619  PRO620  LYS621  CYS622 
 ASP623  PHE694  ASN695  SER759  ASP760  ASP761  ALA762  ILE779  LEU786  VAL792 
 PHE793  MET794  SER795  GLU796  ALA797  LYS798  CYS799  TRP800  GLU811  SER814 

> <Gold.Protein.RotatedAtoms>
  151.1192  135.0070  159.8530 H   0  0  0  0  0  0  0  0  0  0  0  0  # atno 6907 bound_to 6896
  152.5447  134.1743  159.8619 H   0  0  0  0  0  0  0  0  0  0  0  0  # atno 6908 bound_to 6896
  151.1800  133.4686  159.2627 H   0  0  0  0  0  0  0  0  0  0  0  0  # atno 6909 bound_to 6896
  145.7583  139.2789  143.1391 H   0  0  0  0  0  0  0  0  0  0  0  0  # atno 7974 bound_to 7965
  154.5649  140.0701  156.8876 H   0  0  0  0  0  0  0  0  0  0  0  0  # atno 8008 bound_to 7997
  155.2741  140.3367  155.4245 H   0  0  0  0  0  0  0  0  0  0  0  0  # atno 8009 bound_to 7997
  156.2073  140.1745  156.7758 H   0  0  0  0  0  0  0  0  0  0  0  0  # atno 8010 bound_to 7997
  139.5669  144.1733  152.1326 H   0  0  0  0  0  0  0  0  0  0  0  0  # atno 10167 bound_to 10162
  156.1298  130.4160  150.0288 H   0  0  0  0  0  0  0  0  0  0  0  0  # atno 10718 bound_to 10713
  152.9855  135.5633  154.5430 H   0  0  0  0  0  0  0  0  0  0  0  0  # atno 10763 bound_to 10752
  154.4881  135.2791  155.1520 H   0  0  0  0  0  0  0  0  0  0  0  0  # atno 10764 bound_to 10752
  154.3000  135.6309  153.5474 H   0  0  0  0  0  0  0  0  0  0  0  0  # atno 10765 bound_to 10752
  139.8945  134.8354  156.2719 H   0  0  0  0  0  0  0  0  0  0  0  0  # atno 11005 bound_to 11000
  146.0289  140.8277  142.9886 LP  0  0  0  0  0  0  0  0  0  0  0  0  # atno 17320 bound_to 7965
  144.6835  140.2739  143.7302 LP  0  0  0  0  0  0  0  0  0  0  0  0  # atno 17321 bound_to 7965
  140.1258  144.5333  150.6834 LP  0  0  0  0  0  0  0  0  0  0  0  0  # atno 17342 bound_to 10162
  140.6953  143.2400  151.5018 LP  0  0  0  0  0  0  0  0  0  0  0  0  # atno 17343 bound_to 10162
  156.8204  130.9356  151.3641 LP  0  0  0  0  0  0  0  0  0  0  0  0  # atno 17370 bound_to 10713
  157.6477  130.8858  149.9571 LP  0  0  0  0  0  0  0  0  0  0  0  0  # atno 17371 bound_to 10713
  141.0095  133.7104  156.1089 LP  0  0  0  0  0  0  0  0  0  0  0  0  # atno 17394 bound_to 11000
  140.7387  134.4174  157.5557 LP  0  0  0  0  0  0  0  0  0  0  0  0  # atno 17395 bound_to 11000

$$$$
