AV-unprocessed.smi:784|AV-procd|sdf|3718|dock10
  -GOLD-   22720 1143D 1   1.00000     0.00000
 Structure written by MMmdl.
 38 39  0  0  0  0  0  0  0  0  1 V2000
  144.3711  143.6704  154.7780 C   0  0  0  0  0  0  0  0  0  0  0  0
  145.6648  142.9271  154.9326 C   0  0  0  0  0  0  0  0  0  0  0  0
  146.6012  142.5623  153.9266 C   0  0  0  0  0  0  0  0  0  0  0  0
  147.5841  141.9159  154.6206 C   0  0  0  0  0  0  0  0  0  0  0  0
  148.8663  141.2765  154.2096 C   0  0  0  0  0  0  0  0  0  0  0  0
  149.8376  140.8361  155.7127 S   0  0  0  0  0  0  0  0  0  0  0  0
  148.9834  140.0275  156.5958 O   0  0  0  0  0  0  0  0  0  0  0  0
  151.1563  140.3334  155.2976 O   0  0  0  0  0  0  0  0  0  0  0  0
  150.0725  142.3621  156.4826 N   0  0  0  0  0  0  0  0  0  0  0  0
  151.2809  142.6440  157.2613 C   0  0  0  0  0  0  0  0  0  0  0  0
  151.2205  141.8511  158.5823 C   0  0  0  0  0  0  0  0  0  0  0  0
  152.5709  141.7995  159.3162 C   0  0  0  0  0  0  0  0  0  0  0  0
  152.8588  142.9806  160.2597 C   0  0  0  0  0  0  0  0  0  0  0  0
  152.4321  144.3754  159.7682 C   0  0  0  0  0  0  0  0  0  0  0  0
  152.6194  144.6311  158.2639 C   0  0  0  0  0  0  0  0  0  0  0  0
  151.4146  144.1689  157.4267 C   0  0  0  0  0  0  0  0  0  0  0  0
  147.2792  141.8815  155.9431 O   0  0  0  0  0  0  0  0  0  0  0  0
  146.0538  142.5295  156.1325 N   0  0  0  0  0  0  0  0  0  0  0  0
  144.0468  143.6830  153.7374 H   0  0  0  0  0  0  0  0  0  0  0  0
  144.4739  144.7049  155.1059 H   0  0  0  0  0  0  0  0  0  0  0  0
  143.5762  143.2104  155.3661 H   0  0  0  0  0  0  0  0  0  0  0  0
  146.5608  142.7503  152.8641 H   0  0  0  0  0  0  0  0  0  0  0  0
  148.6792  140.3715  153.6319 H   0  0  0  0  0  0  0  0  0  0  0  0
  149.4591  141.9555  153.5973 H   0  0  0  0  0  0  0  0  0  0  0  0
  149.6634  143.1577  155.9930 H   0  0  0  0  0  0  0  0  0  0  0  0
  152.1391  142.2853  156.6914 H   0  0  0  0  0  0  0  0  0  0  0  0
  150.4356  142.2321  159.2369 H   0  0  0  0  0  0  0  0  0  0  0  0
  150.9386  140.8236  158.3462 H   0  0  0  0  0  0  0  0  0  0  0  0
  152.6170  140.8834  159.9061 H   0  0  0  0  0  0  0  0  0  0  0  0
  153.3770  141.7081  158.5873 H   0  0  0  0  0  0  0  0  0  0  0  0
  152.3747  142.7973  161.2196 H   0  0  0  0  0  0  0  0  0  0  0  0
  153.9286  142.9897  160.4712 H   0  0  0  0  0  0  0  0  0  0  0  0
  151.3907  144.5545  160.0386 H   0  0  0  0  0  0  0  0  0  0  0  0
  153.0029  145.1170  160.3279 H   0  0  0  0  0  0  0  0  0  0  0  0
  152.7268  145.7066  158.1188 H   0  0  0  0  0  0  0  0  0  0  0  0
  153.5470  144.1879  157.9001 H   0  0  0  0  0  0  0  0  0  0  0  0
  151.4985  144.6157  156.4352 H   0  0  0  0  0  0  0  0  0  0  0  0
  150.4986  144.5778  157.8552 H   0  0  0  0  0  0  0  0  0  0  0  0
  1  2  1  0  0  0  0
  1 19  1  0  0  0  0
  1 20  1  0  0  0  0
  1 21  1  0  0  0  0
  2 18  2  0  0  0  0
  2  3  1  0  0  0  0
  3  4  2  0  0  0  0
  3 22  1  0  0  0  0
  4  5  1  0  0  0  0
  4 17  1  0  0  0  0
  5  6  1  0  0  0  0
  5 23  1  0  0  0  0
  5 24  1  0  0  0  0
  6  7  2  0  0  0  0
  6  8  2  0  0  0  0
  6  9  1  0  0  0  0
  9 10  1  0  0  0  0
  9 25  1  0  0  0  0
 10 16  1  0  0  0  0
 10 11  1  0  0  0  0
 10 26  1  0  0  0  0
 11 12  1  0  0  0  0
 11 27  1  0  0  0  0
 11 28  1  0  0  0  0
 12 13  1  0  0  0  0
 12 29  1  0  0  0  0
 12 30  1  0  0  0  0
 13 14  1  0  0  0  0
 13 31  1  0  0  0  0
 13 32  1  0  0  0  0
 14 15  1  0  0  0  0
 14 33  1  0  0  0  0
 14 34  1  0  0  0  0
 15 16  1  0  0  0  0
 15 35  1  0  0  0  0
 15 36  1  0  0  0  0
 16 37  1  0  0  0  0
 16 38  1  0  0  0  0
 17 18  1  0  0  0  0
M  END
> <s_m_source_file>
AV-unprocessed.smi

> <i_m_source_file_index>
784

> <i_lp_mmshare_version>
43012

> <i_f3d_flags>
0

> <s_epik_input>
W0NIM11jMVtjSF1jKG9uMSlbQ0gyXVMoPU8pKD1PKVtOSF1bQ0hdMltDSDJdW0NIMl1bQ0gyXVtDSDJdW0NIMl1bQ0gyXTI=

> <s_epik_cmdline>
J2VwaWtfcHl0aG9uJywgJy1waCcsICc3LjAnLCAnLXRuJywgJzgnLCAnLW1hJywgJzIwMCcsICctbWV0YWxfYmluZGluZycsICctaW1hZScsICc8aW5maWxlLm1hZT4nLCAnLW9tYWUnLCAnPG91dGZpbGUubWFlPic=

> <r_lp_tautomer_probability>
1

> <r_epik_Ionization_Penalty>
4.92328e-05

> <r_epik_Ionization_Penalty_Charging>
0

> <r_epik_Ionization_Penalty_Neutral>
4.92328e-05

> <r_epik_State_Penalty>
-0

> <r_epik_Charging_Adjusted_Penalty>
0

> <i_epik_Tot_Q>
0

> <i_epik_Tot_abs_Q>
0

> <r_epik_Metal_State_Penalty>
0.0438012

> <b_epik_Metal_Only>
0

> <s_lp_Force_Field>
OPLS_2005

> <r_lp_Energy>
5.5121

> <b_lp_Chiralities_Consistent>
1

> <s_lp_Variant>
AV-unprocessed.smi:784-1

> <Gold.Version>
5.8.1

> <Gold.Id.Protein>
6NUR|6NUR_protein|mol2

> <Gold.PLP.Fitness>
48.0516

> <Gold.PLP.PLP>
-42.7317

> <Gold.PLP.part.hbond>
-2.0000

> <Gold.PLP.part.metal>
0.0000

> <Gold.PLP.part.buried>
-3.8147

> <Gold.PLP.part.nonpolar>
-36.7683

> <Gold.PLP.part.repulsive>
0.3913

> <Gold.PLP.ligand.clash>
0.0000

> <Gold.PLP.ligand.torsion>
0.8936

> <Gold.PLP.Chemscore.Hbond>
2.0000

> <Gold.PLP.Chemscore.CHOScore>
0.0000

> <Gold.PLP.Chemscore.Metal>
0.0000

> <Gold.Chemscore.Hbonds>
donor molecule, donor type, donor heavy atom, donor atom, acceptor molecule, acceptor atom, score
      L1  H     9    25       P1  8028  1.00
      P1  H  7989  7998       L1     8  1.00

> <Gold.PLP.Chemscore.Internal.Correction>
1.1072

> <Gold.Rescore>
     Score         DG    S(hbond)    S(metal)    S(lipo)     H(rot)  DE(clash)    DE(int)     intcor
     17.95     -20.81       1.92        0.00     106.23       1.37       0.02       2.85       ----

> <Gold.Chemscore.Fitness>
17.9480

> <Gold.Chemscore.DG>
-20.8135

> <Gold.Chemscore.ZeroCoef>
-5.4800

> <Gold.Chemscore.Hbond>
1.9228

> <Gold.Chemscore.Metal>
0.0000

> <Gold.Chemscore.Lipo>
106.2254

> <Gold.Chemscore.Internal_Hbond>
0.0000

> <Gold.Chemscore.DEClash>
0.0174

> <Gold.Chemscore.DEInternal>
2.8482

> <Gold.Chemscore.Rot>
1.3738

> <Gold.Chemscore.Internal.Correction>
   9.000000E+99

> <Gold.Chemscore.Hbonds>
donor molecule, donor type, donor heavy atom, donor atom, acceptor molecule, acceptor atom, score
      L1  H     9    25       P1  8028  1.00
      P1  H  7989  7998       L1     8  0.81

> <Gold.Chemscore.Hbond.Weighted>
-6.4220

> <Gold.Chemscore.Metal.Weighted>
-0.0000

> <Gold.Chemscore.Lipo.Weighted>
-12.4284

> <Gold.Chemscore.Internal_Hbond.Weighted>
0.0000

> <Gold.Chemscore.DEClash.Weighted>
0.0174

> <Gold.Chemscore.DEInternal.Weighted>
2.8482

> <Gold.Chemscore.Rot.Weighted>
3.5168

> <Gold.Chemscore.Internal.Correction.Weighted>
   9.000000E+99

> <Gold.Protein.RotatedTorsions>
[ 6907 6896 6895 6894 ] final   13.50 input  -60.11 | X-H torsion
[ 7974 7965 7964 7962 ] final   91.23 input  175.53 | X-H torsion
[ 8008 7997 7996 7995 ] final   72.79 input   59.86 | X-H torsion
[ 10167 10162 10161 10158 ] final -105.21 input  -65.29 | X-H torsion
[ 10718 10713 10712 10709 ] final -132.38 input   66.30 | X-H torsion
[ 10763 10752 10751 10750 ] final -149.68 input  -60.55 | X-H torsion
[ 11005 11000 10999 10996 ] final   36.68 input  -57.11 | X-H torsion

> <Gold.Protein.ActiveResidues>
 VAL166  LYS551  ARG553  GLY616  TRP617  ASP618  TYR619  PRO620  LYS621  CYS622 
 ASP623  PHE694  ASN695  SER759  ASP760  ASP761  ALA762  ILE779  LEU786  VAL792 
 PHE793  MET794  SER795  GLU796  ALA797  LYS798  CYS799  TRP800  GLU811  SER814 

> <Gold.Protein.RotatedAtoms>
  151.7874  135.0745  160.0382 H   0  0  0  0  0  0  0  0  0  0  0  0  # atno 6907 bound_to 6896
  152.3181  133.5819  159.5734 H   0  0  0  0  0  0  0  0  0  0  0  0  # atno 6908 bound_to 6896
  150.7355  133.9969  159.3667 H   0  0  0  0  0  0  0  0  0  0  0  0  # atno 6909 bound_to 6896
  145.5084  139.2276  143.2738 H   0  0  0  0  0  0  0  0  0  0  0  0  # atno 7974 bound_to 7965
  155.7741  140.3483  155.5262 H   0  0  0  0  0  0  0  0  0  0  0  0  # atno 8008 bound_to 7997
  155.8793  140.0999  157.1517 H   0  0  0  0  0  0  0  0  0  0  0  0  # atno 8009 bound_to 7997
  154.4023  140.1325  156.4164 H   0  0  0  0  0  0  0  0  0  0  0  0  # atno 8010 bound_to 7997
  140.2010  143.3819  152.1129 H   0  0  0  0  0  0  0  0  0  0  0  0  # atno 10167 bound_to 10162
  156.2340  130.7055  151.0888 H   0  0  0  0  0  0  0  0  0  0  0  0  # atno 10718 bound_to 10713
  154.8163  135.3303  154.7165 H   0  0  0  0  0  0  0  0  0  0  0  0  # atno 10763 bound_to 10752
  153.7806  135.6919  153.4893 H   0  0  0  0  0  0  0  0  0  0  0  0  # atno 10764 bound_to 10752
  153.1983  135.4525  155.0183 H   0  0  0  0  0  0  0  0  0  0  0  0  # atno 10765 bound_to 10752
  140.2301  134.3537  155.7967 H   0  0  0  0  0  0  0  0  0  0  0  0  # atno 11005 bound_to 11000
  146.2182  140.5889  142.9029 LP  0  0  0  0  0  0  0  0  0  0  0  0  # atno 17320 bound_to 7965
  144.7741  140.5702  143.6650 LP  0  0  0  0  0  0  0  0  0  0  0  0  # atno 17321 bound_to 7965
  139.5217  144.7050  151.5382 LP  0  0  0  0  0  0  0  0  0  0  0  0  # atno 17342 bound_to 10162
  140.6390  143.8926  150.6674 LP  0  0  0  0  0  0  0  0  0  0  0  0  # atno 17343 bound_to 10162
  157.7146  131.0717  150.6376 LP  0  0  0  0  0  0  0  0  0  0  0  0  # atno 17370 bound_to 10713
  156.6445  130.4468  149.5740 LP  0  0  0  0  0  0  0  0  0  0  0  0  # atno 17371 bound_to 10713
  141.2218  133.7241  156.8718 LP  0  0  0  0  0  0  0  0  0  0  0  0  # atno 17394 bound_to 11000
  140.1759  134.9067  157.2890 LP  0  0  0  0  0  0  0  0  0  0  0  0  # atno 17395 bound_to 11000

$$$$
