AV-unprocessed.smi:249|AV-procd|sdf|1923|dock3
  -GOLD-   2262021 33D 1   1.00000     0.00000
 Structure written by MMmdl.
 64 67  0  0  0  0  0  0  0  0  2 V2000
  145.5519  128.7474  151.9662 C   0  0  0  0  0  0  0  0  0  0  0  0
  146.3438  129.7215  152.8541 C   0  0  0  0  0  0  0  0  0  0  0  0
  146.7135  130.9939  152.1680 N   0  3  1  0  0  0  0  0  0  0  0  0
  145.5573  131.5868  151.4350 C   0  0  0  0  0  0  0  0  0  0  0  0
  145.9489  132.8536  150.6577 C   0  0  0  0  0  0  0  0  0  0  0  0
  146.5373  133.9276  151.5879 C   0  0  1  0  0  0  0  0  0  0  0  0
  145.5363  134.4758  152.5181 N   0  0  0  0  0  0  0  0  0  0  0  0
  144.1647  134.5905  152.0326 C   0  0  0  0  0  0  0  0  0  0  0  0
  145.9042  135.6078  153.1588 C   0  0  0  0  0  0  0  0  0  0  0  0
  146.0303  135.5471  154.5072 N   0  0  0  0  0  0  0  0  0  0  0  0
  146.4047  136.6332  155.1908 C   0  0  0  0  0  0  0  0  0  0  0  0
  146.6924  137.8528  154.7296 N   0  0  0  0  0  0  0  0  0  0  0  0
  146.5575  137.9156  153.3735 C   0  0  0  0  0  0  0  0  0  0  0  0
  146.1692  136.8492  152.5157 C   0  0  0  0  0  0  0  0  0  0  0  0
  146.1400  137.2853  151.1967 N   0  0  0  0  0  0  0  0  0  0  0  0
  146.4932  138.5399  151.2701 C   0  0  0  0  0  0  0  0  0  0  0  0
  146.7592  139.0008  152.5400 N   0  0  0  0  0  0  0  0  0  0  0  0
  147.1703  140.3431  152.9104 C   0  0  0  0  0  0  0  0  0  0  0  0
  147.3400  140.5168  154.4424 C   0  0  2  0  0  0  0  0  0  0  0  0
  147.2087  141.9859  154.9078 C   0  0  0  0  0  0  0  0  0  0  0  0
  147.9933  142.8617  154.1244 O   0  0  0  0  0  0  0  0  0  0  0  0
  148.5937  139.8174  155.0334 C   0  0  1  0  0  0  0  0  0  0  0  0
  149.9369  140.3787  154.5617 C   0  0  0  0  0  0  0  0  0  0  0  0
  150.7494  140.5459  155.8464 C   0  0  0  0  0  0  0  0  0  0  0  0
  150.1210  139.6734  156.7708 O   0  0  0  0  0  0  0  0  0  0  0  0
  148.7249  139.8043  156.5629 C   0  0  0  0  0  0  0  0  0  0  0  0
  147.7477  133.2770  152.2920 C   0  0  0  0  0  0  0  0  0  0  0  0
  147.3708  131.9949  153.0711 C   0  0  2  0  0  0  0  0  0  0  0  0
  148.6377  131.4509  153.7626 C   0  0  0  0  0  0  0  0  0  0  0  0
  145.4568  127.7784  152.4571 H   0  0  0  0  0  0  0  0  0  0  0  0
  146.0526  128.5839  151.0115 H   0  0  0  0  0  0  0  0  0  0  0  0
  144.5394  129.0970  151.7673 H   0  0  0  0  0  0  0  0  0  0  0  0
  145.7877  129.9396  153.7670 H   0  0  0  0  0  0  0  0  0  0  0  0
  147.2399  129.1842  153.1564 H   0  0  0  0  0  0  0  0  0  0  0  0
  145.1561  130.8756  150.7151 H   0  0  0  0  0  0  0  0  0  0  0  0
  144.7534  131.8079  152.1387 H   0  0  0  0  0  0  0  0  0  0  0  0
  146.6879  132.5904  149.8994 H   0  0  0  0  0  0  0  0  0  0  0  0
  145.0919  133.2368  150.1037 H   0  0  0  0  0  0  0  0  0  0  0  0
  146.8964  134.7503  150.9689 H   0  0  0  0  0  0  0  0  0  0  0  0
  143.5599  135.2453  152.6627 H   0  0  0  0  0  0  0  0  0  0  0  0
  143.6837  133.6124  152.0291 H   0  0  0  0  0  0  0  0  0  0  0  0
  144.1459  134.9857  151.0163 H   0  0  0  0  0  0  0  0  0  0  0  0
  146.4858  136.5073  156.2605 H   0  0  0  0  0  0  0  0  0  0  0  0
  146.5649  139.1699  150.3953 H   0  0  0  0  0  0  0  0  0  0  0  0
  148.0992  140.5612  152.3842 H   0  0  0  0  0  0  0  0  0  0  0  0
  146.4284  141.0387  152.5196 H   0  0  0  0  0  0  0  0  0  0  0  0
  146.4931  140.0033  154.8999 H   0  0  0  0  0  0  0  0  0  0  0  0
  146.1707  142.3153  154.8573 H   0  0  0  0  0  0  0  0  0  0  0  0
  147.5091  142.0838  155.9513 H   0  0  0  0  0  0  0  0  0  0  0  0
  148.4818  143.4268  154.7035 H   0  0  0  0  0  0  0  0  0  0  0  0
  148.5738  138.7752  154.7109 H   0  0  0  0  0  0  0  0  0  0  0  0
  150.4219  139.6649  153.8946 H   0  0  0  0  0  0  0  0  0  0  0  0
  149.8574  141.3206  154.0195 H   0  0  0  0  0  0  0  0  0  0  0  0
  151.8037  140.3020  155.7141 H   0  0  0  0  0  0  0  0  0  0  0  0
  150.6796  141.5705  156.2150 H   0  0  0  0  0  0  0  0  0  0  0  0
  148.3899  140.7349  157.0203 H   0  0  0  0  0  0  0  0  0  0  0  0
  148.1777  138.9820  157.0242 H   0  0  0  0  0  0  0  0  0  0  0  0
  148.4967  133.0256  151.5395 H   0  0  0  0  0  0  0  0  0  0  0  0
  148.2411  133.9915  152.9519 H   0  0  0  0  0  0  0  0  0  0  0  0
  146.6555  132.2604  153.8511 H   0  0  0  0  0  0  0  0  0  0  0  0
  149.1618  132.2468  154.2930 H   0  0  0  0  0  0  0  0  0  0  0  0
  149.3346  131.0238  153.0407 H   0  0  0  0  0  0  0  0  0  0  0  0
  148.4115  130.6933  154.5120 H   0  0  0  0  0  0  0  0  0  0  0  0
  147.4022  130.7518  151.4698 H   0  0  0  0  0  0  0  0  0  0  0  0
  1  2  1  0  0  0  0
  1 30  1  0  0  0  0
  1 31  1  0  0  0  0
  1 32  1  0  0  0  0
  2  3  1  0  0  0  0
  2 33  1  0  0  0  0
  2 34  1  0  0  0  0
  3 28  1  0  0  0  0
  3  4  1  0  0  0  0
  3 64  1  0  0  0  0
  4  5  1  0  0  0  0
  4 35  1  0  0  0  0
  4 36  1  0  0  0  0
  5  6  1  0  0  0  0
  5 37  1  0  0  0  0
  5 38  1  0  0  0  0
  6  7  1  0  0  0  0
  6 27  1  0  0  0  0
  6 39  1  0  0  0  0
  7  8  1  0  0  0  0
  7  9  1  0  0  0  0
  8 40  1  0  0  0  0
  8 41  1  0  0  0  0
  8 42  1  0  0  0  0
  9 14  1  0  0  0  0
  9 10  2  0  0  0  0
 10 11  1  0  0  0  0
 11 12  2  0  0  0  0
 11 43  1  0  0  0  0
 12 13  1  0  0  0  0
 13 17  1  0  0  0  0
 13 14  2  0  0  0  0
 14 15  1  0  0  0  0
 15 16  2  0  0  0  0
 16 17  1  0  0  0  0
 16 44  1  0  0  0  0
 17 18  1  0  0  0  0
 18 19  1  0  0  0  0
 18 45  1  0  0  0  0
 18 46  1  0  0  0  0
 19 20  1  0  0  0  0
 19 22  1  0  0  0  0
 19 47  1  0  0  0  0
 20 21  1  0  0  0  0
 20 48  1  0  0  0  0
 20 49  1  0  0  0  0
 21 50  1  0  0  0  0
 22 26  1  0  0  0  0
 22 23  1  0  0  0  0
 22 51  1  0  0  0  0
 23 24  1  0  0  0  0
 23 52  1  0  0  0  0
 23 53  1  0  0  0  0
 24 25  1  0  0  0  0
 24 54  1  0  0  0  0
 24 55  1  0  0  0  0
 25 26  1  0  0  0  0
 26 56  1  0  0  0  0
 26 57  1  0  0  0  0
 27 28  1  0  0  0  0
 27 58  1  0  0  0  0
 27 59  1  0  0  0  0
 28 29  1  0  0  0  0
 28 60  1  0  0  0  0
 29 61  1  0  0  0  0
 29 62  1  0  0  0  0
 29 63  1  0  0  0  0
M  CHG  1   3   1
M  END
> <s_m_source_file>
AV-unprocessed.smi

> <i_m_source_file_index>
249

> <i_lp_mmshare_version>
43012

> <i_f3d_flags>
0

> <s_epik_input>
W0NIM11bQ0gyXU4xW0NIMl1bQ0gyXVtDQEhdKFtDSDJdW0NASF0xW0NIM10pTihbQ0gzXSljKG5bY0hdbjIpYyhjMjMpbltjSF1uM1tDSDJdW0NASF0oW0NIMl1bT0hdKVtDQEBIXTRbQ0gyXVtDSDJdT1tDSDJdNA==

> <s_epik_cmdline>
J2VwaWtfcHl0aG9uJywgJy1waCcsICc3LjAnLCAnLXRuJywgJzgnLCAnLW1hJywgJzIwMCcsICctbWV0YWxfYmluZGluZycsICctaW1hZScsICc8aW5maWxlLm1hZT4nLCAnLW9tYWUnLCAnPG91dGZpbGUubWFlPic=

> <r_lp_tautomer_probability>
1

> <r_epik_Ionization_Penalty>
0.00294688

> <r_epik_Ionization_Penalty_Charging>
0.00169971

> <r_epik_Ionization_Penalty_Neutral>
0.00124717

> <r_epik_State_Penalty>
-0

> <r_epik_Charging_Adjusted_Penalty>
0.00169971

> <i_epik_Tot_Q>
1

> <i_epik_Tot_abs_Q>
1

> <r_epik_Metal_State_Penalty>
-0

> <b_epik_Metal_Only>
0

> <s_lp_Force_Field>
OPLS_2005

> <r_lp_Energy>
58.1803

> <b_lp_Chiralities_Consistent>
1

> <s_lp_Variant>
AV-unprocessed.smi:249-26

> <Gold.Version>
5.8.1

> <Gold.Id.Protein>
6NUR|6NUR_protein|mol2

> <Gold.PLP.Fitness>
47.9371

> <Gold.PLP.PLP>
-42.6348

> <Gold.PLP.part.hbond>
-3.9997

> <Gold.PLP.part.metal>
0.0000

> <Gold.PLP.part.buried>
3.7813

> <Gold.PLP.part.nonpolar>
-43.3306

> <Gold.PLP.part.repulsive>
2.1191

> <Gold.PLP.ligand.clash>
0.0000

> <Gold.PLP.ligand.torsion>
0.9156

> <Gold.PLP.Chemscore.Hbond>
2.0000

> <Gold.PLP.Chemscore.CHOScore>
0.1020

> <Gold.PLP.Chemscore.Metal>
0.0000

> <Gold.Chemscore.Hbonds>
donor molecule, donor type, donor heavy atom, donor atom, acceptor molecule, acceptor atom, score
      L1  H     3    64       P1 10747  1.00
      L1  H    21    50       P1  8028  1.00
      L1  C    16    44       P1 10171  0.08

> <Gold.PLP.Chemscore.Internal.Correction>
0.8274

> <Gold.Rescore>
     Score         DG    S(hbond)    S(metal)    S(lipo)     H(rot)  DE(clash)    DE(int)     intcor
     10.60     -16.49       1.94        0.00     102.06       2.90       2.06       3.83       ----

> <Gold.Chemscore.Fitness>
10.6018

> <Gold.Chemscore.DG>
-16.4904

> <Gold.Chemscore.ZeroCoef>
-5.4800

> <Gold.Chemscore.Hbond>
1.9447

> <Gold.Chemscore.Metal>
0.0000

> <Gold.Chemscore.Lipo>
102.0567

> <Gold.Chemscore.Internal_Hbond>
0.0000

> <Gold.Chemscore.DEClash>
2.0562

> <Gold.Chemscore.DEInternal>
3.8324

> <Gold.Chemscore.Rot>
2.9006

> <Gold.Chemscore.Internal.Correction>
   9.000000E+99

> <Gold.Chemscore.Hbonds>
donor molecule, donor type, donor heavy atom, donor atom, acceptor molecule, acceptor atom, score
      L1  H     3    64       P1 10747  0.98
      L1  H    21    50       P1  8028  0.99

> <Gold.Chemscore.Hbond.Weighted>
-6.4954

> <Gold.Chemscore.Metal.Weighted>
-0.0000

> <Gold.Chemscore.Lipo.Weighted>
-11.9406

> <Gold.Chemscore.Internal_Hbond.Weighted>
0.0000

> <Gold.Chemscore.DEClash.Weighted>
2.0562

> <Gold.Chemscore.DEInternal.Weighted>
3.8324

> <Gold.Chemscore.Rot.Weighted>
7.4256

> <Gold.Chemscore.Internal.Correction.Weighted>
   9.000000E+99

> <Gold.Protein.RotatedTorsions>
[ 6907 6896 6895 6894 ] final   24.71 input  -60.11 | X-H torsion
[ 7974 7965 7964 7962 ] final   85.77 input  175.53 | X-H torsion
[ 8008 7997 7996 7995 ] final  -57.89 input   59.86 | X-H torsion
[ 10167 10162 10161 10158 ] final  105.01 input  -65.29 | X-H torsion
[ 10718 10713 10712 10709 ] final  -78.94 input   66.30 | X-H torsion
[ 10763 10752 10751 10750 ] final  124.86 input  -60.55 | X-H torsion
[ 11005 11000 10999 10996 ] final  -86.08 input  -57.11 | X-H torsion

> <Gold.Protein.ActiveResidues>
 VAL166  LYS551  ARG553  GLY616  TRP617  ASP618  TYR619  PRO620  LYS621  CYS622 
 ASP623  PHE694  ASN695  SER759  ASP760  ASP761  ALA762  ILE779  LEU786  VAL792 
 PHE793  MET794  SER795  GLU796  ALA797  LYS798  CYS799  TRP800  GLU811  SER814 

> <Gold.Protein.RotatedAtoms>
  151.9615  135.0121  160.0547 H   0  0  0  0  0  0  0  0  0  0  0  0  # atno 6907 bound_to 6896
  152.1864  133.4738  159.4993 H   0  0  0  0  0  0  0  0  0  0  0  0  # atno 6908 bound_to 6896
  150.6927  134.1686  159.4246 H   0  0  0  0  0  0  0  0  0  0  0  0  # atno 6909 bound_to 6896
  145.5812  139.2325  143.2352 H   0  0  0  0  0  0  0  0  0  0  0  0  # atno 7974 bound_to 7965
  154.4286  140.1096  156.5869 H   0  0  0  0  0  0  0  0  0  0  0  0  # atno 8008 bound_to 7997
  155.6053  140.3493  155.4587 H   0  0  0  0  0  0  0  0  0  0  0  0  # atno 8009 bound_to 7997
  156.0141  140.1225  157.0413 H   0  0  0  0  0  0  0  0  0  0  0  0  # atno 8010 bound_to 7997
  139.7129  144.7074  151.0997 H   0  0  0  0  0  0  0  0  0  0  0  0  # atno 10167 bound_to 10162
  156.0105  130.4532  150.3572 H   0  0  0  0  0  0  0  0  0  0  0  0  # atno 10718 bound_to 10713
  153.6680  135.3335  155.3145 H   0  0  0  0  0  0  0  0  0  0  0  0  # atno 10763 bound_to 10752
  154.8498  135.4379  154.1734 H   0  0  0  0  0  0  0  0  0  0  0  0  # atno 10764 bound_to 10752
  153.2718  135.7001  153.7548 H   0  0  0  0  0  0  0  0  0  0  0  0  # atno 10765 bound_to 10752
  141.1634  133.7435  156.9109 H   0  0  0  0  0  0  0  0  0  0  0  0  # atno 11005 bound_to 11000
  146.1715  140.6638  142.9231 LP  0  0  0  0  0  0  0  0  0  0  0  0  # atno 17320 bound_to 7965
  144.7393  140.4898  143.6881 LP  0  0  0  0  0  0  0  0  0  0  0  0  # atno 17321 bound_to 7965
  140.7737  143.5269  150.9470 LP  0  0  0  0  0  0  0  0  0  0  0  0  # atno 17342 bound_to 10162
  139.8954  143.6901  152.3139 LP  0  0  0  0  0  0  0  0  0  0  0  0  # atno 17343 bound_to 10162
  157.1662  131.0357  151.2817 LP  0  0  0  0  0  0  0  0  0  0  0  0  # atno 17370 bound_to 10713
  157.4268  130.7468  149.6958 LP  0  0  0  0  0  0  0  0  0  0  0  0  # atno 17371 bound_to 10713
  140.1517  134.9225  157.2601 LP  0  0  0  0  0  0  0  0  0  0  0  0  # atno 17394 bound_to 11000
  140.2715  134.3455  155.7372 LP  0  0  0  0  0  0  0  0  0  0  0  0  # atno 17395 bound_to 11000

$$$$
