AV-unprocessed.smi:2660|AV-procd|sdf|10314|dock4
  -GOLD-   2272014333D 1   1.00000     0.00000
 Structure written by MMmdl.
 36 37  0  0  0  0  0  0  0  0  1 V2000
  150.1352  144.5444  158.4491 N   0  0  0  0  0  0  0  0  0  0  0  0
  151.0601  144.8634  159.3632 C   0  0  0  0  0  0  0  0  0  0  0  0
  151.1408  146.0329  159.7391 O   0  0  0  0  0  0  0  0  0  0  0  0
  151.8894  143.7222  159.8143 C   0  0  0  0  0  0  0  0  0  0  0  0
  152.4679  143.6774  161.0356 C   0  0  0  0  0  0  0  0  0  0  0  0
  153.2642  142.5481  161.4286 C   0  0  0  0  0  0  0  0  0  0  0  0
  153.4294  141.5096  160.5883 C   0  0  0  0  0  0  0  0  0  0  0  0
  154.2890  140.3050  160.9923 C   0  0  0  0  0  0  0  0  0  0  0  0
  154.7774  140.4510  162.2250 F   0  0  0  0  0  0  0  0  0  0  0  0
  153.5832  139.1760  160.9948 F   0  0  0  0  0  0  0  0  0  0  0  0
  155.3362  140.1716  160.1774 F   0  0  0  0  0  0  0  0  0  0  0  0
  152.8037  141.5283  159.3023 N   0  0  0  0  0  0  0  0  0  0  0  0
  152.9458  140.3741  158.3794 C   0  0  0  0  0  0  0  0  0  0  0  0
  151.5961  139.6546  158.1009 C   0  0  2  0  0  0  0  0  0  0  0  0
  151.3938  138.6473  159.0710 O   0  0  0  0  0  0  0  0  0  0  0  0
  151.5443  139.0687  156.6968 C   0  0  0  0  0  0  0  0  0  0  0  0
  152.5554  138.1844  156.2627 C   0  0  0  0  0  0  0  0  0  0  0  0
  152.5092  137.6337  154.9675 C   0  0  0  0  0  0  0  0  0  0  0  0
  151.4516  137.9632  154.0985 C   0  0  0  0  0  0  0  0  0  0  0  0
  150.4396  138.8440  154.5255 C   0  0  0  0  0  0  0  0  0  0  0  0
  150.4856  139.3956  155.8207 C   0  0  0  0  0  0  0  0  0  0  0  0
  152.0589  142.5981  158.8577 C   0  0  0  0  0  0  0  0  0  0  0  0
  151.5715  142.5844  157.7235 O   0  0  0  0  0  0  0  0  0  0  0  0
  149.5235  145.2615  158.0873 H   0  0  0  0  0  0  0  0  0  0  0  0
  150.0499  143.5918  158.1264 H   0  0  0  0  0  0  0  0  0  0  0  0
  152.3571  144.4761  161.7539 H   0  0  0  0  0  0  0  0  0  0  0  0
  153.7299  142.5570  162.4027 H   0  0  0  0  0  0  0  0  0  0  0  0
  153.3670  140.7421  157.4415 H   0  0  0  0  0  0  0  0  0  0  0  0
  153.7011  139.6535  158.6776 H   0  0  0  0  0  0  0  0  0  0  0  0
  150.7657  140.3535  158.2120 H   0  0  0  0  0  0  0  0  0  0  0  0
  152.1475  138.0771  159.0705 H   0  0  0  0  0  0  0  0  0  0  0  0
  153.3682  137.9203  156.9233 H   0  0  0  0  0  0  0  0  0  0  0  0
  153.2850  136.9566  154.6416 H   0  0  0  0  0  0  0  0  0  0  0  0
  151.4162  137.5395  153.1056 H   0  0  0  0  0  0  0  0  0  0  0  0
  149.6269  139.0958  153.8602 H   0  0  0  0  0  0  0  0  0  0  0  0
  149.7038  140.0683  156.1420 H   0  0  0  0  0  0  0  0  0  0  0  0
  1  2  1  0  0  0  0
  1 24  1  0  0  0  0
  1 25  1  0  0  0  0
  2  3  2  0  0  0  0
  2  4  1  0  0  0  0
  4 22  1  0  0  0  0
  4  5  2  0  0  0  0
  5  6  1  0  0  0  0
  5 26  1  0  0  0  0
  6  7  2  0  0  0  0
  6 27  1  0  0  0  0
  7  8  1  0  0  0  0
  7 12  1  0  0  0  0
  8  9  1  0  0  0  0
  8 10  1  0  0  0  0
  8 11  1  0  0  0  0
 12 13  1  0  0  0  0
 12 22  1  0  0  0  0
 13 14  1  0  0  0  0
 13 28  1  0  0  0  0
 13 29  1  0  0  0  0
 14 15  1  0  0  0  0
 14 16  1  0  0  0  0
 14 30  1  0  0  0  0
 15 31  1  0  0  0  0
 16 21  1  0  0  0  0
 16 17  2  0  0  0  0
 17 18  1  0  0  0  0
 17 32  1  0  0  0  0
 18 19  2  0  0  0  0
 18 33  1  0  0  0  0
 19 20  1  0  0  0  0
 19 34  1  0  0  0  0
 20 21  2  0  0  0  0
 20 35  1  0  0  0  0
 21 36  1  0  0  0  0
 22 23  2  0  0  0  0
M  END
> <s_m_source_file>
AV-unprocessed.smi

> <i_m_source_file_index>
2660

> <i_lp_mmshare_version>
43012

> <i_f3d_flags>
0

> <s_epik_input>
W05IMl1DKD1PKWMxW2NIXVtjSF1jKEMoRikoRilGKW4oYzE9TylbQ0gyXVtDQEhdKFtPSF0pYzJbY0hdW2NIXVtjSF1bY0hdW2NIXTI=

> <s_epik_cmdline>
J2VwaWtfcHl0aG9uJywgJy1waCcsICc3LjAnLCAnLXRuJywgJzgnLCAnLW1hJywgJzIwMCcsICctbWV0YWxfYmluZGluZycsICctaW1hZScsICc8aW5maWxlLm1hZT4nLCAnLW9tYWUnLCAnPG91dGZpbGUubWFlPic=

> <r_lp_tautomer_probability>
1

> <r_epik_Ionization_Penalty>
1.58596e-06

> <r_epik_Ionization_Penalty_Charging>
5.13453e-09

> <r_epik_Ionization_Penalty_Neutral>
1.58083e-06

> <r_epik_State_Penalty>
-0

> <r_epik_Charging_Adjusted_Penalty>
5.13453e-09

> <i_epik_Tot_Q>
0

> <i_epik_Tot_abs_Q>
0

> <r_epik_Metal_State_Penalty>
-0

> <b_epik_Metal_Only>
0

> <s_lp_Force_Field>
OPLS_2005

> <r_lp_Energy>
35.2508

> <b_lp_Chiralities_Consistent>
1

> <s_lp_Variant>
AV-unprocessed.smi:2660-1

> <Gold.Version>
5.8.1

> <Gold.Id.Protein>
6NUR|6NUR_protein|mol2

> <Gold.PLP.Fitness>
48.7516

> <Gold.PLP.PLP>
-47.7179

> <Gold.PLP.part.hbond>
-3.2007

> <Gold.PLP.part.metal>
0.0000

> <Gold.PLP.part.buried>
-4.0029

> <Gold.PLP.part.nonpolar>
-39.5046

> <Gold.PLP.part.repulsive>
0.5253

> <Gold.PLP.ligand.clash>
3.4249

> <Gold.PLP.ligand.torsion>
0.8175

> <Gold.PLP.Chemscore.Hbond>
0.8640

> <Gold.PLP.Chemscore.CHOScore>
0.0000

> <Gold.PLP.Chemscore.Metal>
0.0000

> <Gold.Chemscore.Hbonds>
donor molecule, donor type, donor heavy atom, donor atom, acceptor molecule, acceptor atom, score
      L1  H     1    24       P1  8029  1.00

> <Gold.PLP.Chemscore.Internal.Correction>
3.5016

> <Gold.Rescore>
     Score         DG    S(hbond)    S(metal)    S(lipo)     H(rot)  DE(clash)    DE(int)     intcor
      6.97     -15.12       0.84        0.00     106.63       2.21       2.23       5.93       ----

> <Gold.Chemscore.Fitness>
6.9659

> <Gold.Chemscore.DG>
-15.1210

> <Gold.Chemscore.ZeroCoef>
-5.4800

> <Gold.Chemscore.Hbond>
0.8440

> <Gold.Chemscore.Metal>
0.0000

> <Gold.Chemscore.Lipo>
106.6330

> <Gold.Chemscore.Internal_Hbond>
0.0000

> <Gold.Chemscore.DEClash>
2.2252

> <Gold.Chemscore.DEInternal>
5.9299

> <Gold.Chemscore.Rot>
2.2086

> <Gold.Chemscore.Internal.Correction>
   9.000000E+99

> <Gold.Chemscore.Hbonds>
donor molecule, donor type, donor heavy atom, donor atom, acceptor molecule, acceptor atom, score
      L1  H     1    24       P1  8029  0.29

> <Gold.Chemscore.Hbond.Weighted>
-2.8189

> <Gold.Chemscore.Metal.Weighted>
-0.0000

> <Gold.Chemscore.Lipo.Weighted>
-12.4761

> <Gold.Chemscore.Internal_Hbond.Weighted>
0.0000

> <Gold.Chemscore.DEClash.Weighted>
2.2252

> <Gold.Chemscore.DEInternal.Weighted>
5.9299

> <Gold.Chemscore.Rot.Weighted>
5.6540

> <Gold.Chemscore.Internal.Correction.Weighted>
   9.000000E+99

> <Gold.Protein.RotatedTorsions>
[ 6907 6896 6895 6894 ] final   41.62 input  -60.11 | X-H torsion
[ 7974 7965 7964 7962 ] final  -23.01 input  175.53 | X-H torsion
[ 8008 7997 7996 7995 ] final  -21.27 input   59.86 | X-H torsion
[ 10167 10162 10161 10158 ] final -171.10 input  -65.29 | X-H torsion
[ 10718 10713 10712 10709 ] final  -68.87 input   66.30 | X-H torsion
[ 10763 10752 10751 10750 ] final  109.67 input  -60.55 | X-H torsion
[ 11005 11000 10999 10996 ] final -158.58 input  -57.11 | X-H torsion

> <Gold.Protein.ActiveResidues>
 VAL166  LYS551  ARG553  GLY616  TRP617  ASP618  TYR619  PRO620  LYS621  CYS622 
 ASP623  PHE694  ASN695  SER759  ASP760  ASP761  ALA762  ILE779  LEU786  VAL792 
 PHE793  MET794  SER795  GLU796  ALA797  LYS798  CYS799  TRP800  GLU811  SER814 

> <Gold.Protein.RotatedAtoms>
  152.1976  134.8617  160.0511 H   0  0  0  0  0  0  0  0  0  0  0  0  # atno 6907 bound_to 6896
  151.9482  133.3653  159.3998 H   0  0  0  0  0  0  0  0  0  0  0  0  # atno 6908 bound_to 6896
  150.6948  134.4291  159.5284 H   0  0  0  0  0  0  0  0  0  0  0  0  # atno 6909 bound_to 6896
  146.1642  140.4557  142.8559 H   0  0  0  0  0  0  0  0  0  0  0  0  # atno 7974 bound_to 7965
  154.4716  140.2039  155.9980 H   0  0  0  0  0  0  0  0  0  0  0  0  # atno 8008 bound_to 7997
  156.1020  140.3242  155.7926 H   0  0  0  0  0  0  0  0  0  0  0  0  # atno 8009 bound_to 7997
  155.4781  140.0536  157.2961 H   0  0  0  0  0  0  0  0  0  0  0  0  # atno 8010 bound_to 7997
  139.5822  144.1397  152.1530 H   0  0  0  0  0  0  0  0  0  0  0  0  # atno 10167 bound_to 10162
  156.0483  130.4302  150.2065 H   0  0  0  0  0  0  0  0  0  0  0  0  # atno 10718 bound_to 10713
  153.4381  135.3772  155.2211 H   0  0  0  0  0  0  0  0  0  0  0  0  # atno 10763 bound_to 10752
  154.8753  135.3856  154.4186 H   0  0  0  0  0  0  0  0  0  0  0  0  # atno 10764 bound_to 10752
  153.4728  135.7087  153.6047 H   0  0  0  0  0  0  0  0  0  0  0  0  # atno 10765 bound_to 10752
  140.6520  134.4440  157.5235 H   0  0  0  0  0  0  0  0  0  0  0  0  # atno 11005 bound_to 11000
  144.8068  140.6315  143.6441 LP  0  0  0  0  0  0  0  0  0  0  0  0  # atno 17320 bound_to 7965
  145.4511  139.1523  143.3918 LP  0  0  0  0  0  0  0  0  0  0  0  0  # atno 17321 bound_to 7965
  140.0953  144.5586  150.7026 LP  0  0  0  0  0  0  0  0  0  0  0  0  # atno 17342 bound_to 10162
  140.7099  143.2497  151.4613 LP  0  0  0  0  0  0  0  0  0  0  0  0  # atno 17343 bound_to 10162
  157.0151  130.9962  151.3355 LP  0  0  0  0  0  0  0  0  0  0  0  0  # atno 17370 bound_to 10713
  157.5383  130.8103  149.7998 LP  0  0  0  0  0  0  0  0  0  0  0  0  # atno 17371 bound_to 10713
  139.9042  134.8486  156.1771 LP  0  0  0  0  0  0  0  0  0  0  0  0  # atno 17394 bound_to 11000
  141.0529  133.6879  156.1806 LP  0  0  0  0  0  0  0  0  0  0  0  0  # atno 17395 bound_to 11000

$$$$
