AV-unprocessed.smi:3062|AV-procd|sdf|11683|dock1
  -GOLD-   2272017 83D 1   1.00000     0.00000
 Structure written by MMmdl.
 39 40  0  0  0  0  0  0  0  0  1 V2000
  145.9213  131.5296  161.5877 C   0  0  0  0  0  0  0  0  0  0  0  0
  146.7026  132.5864  160.8544 C   0  0  0  0  0  0  0  0  0  0  0  0
  147.2763  132.2257  159.7538 N   0  0  0  0  0  0  0  0  0  0  0  0
  148.0170  133.1168  159.0034 N   0  0  0  0  0  0  0  0  0  0  0  0
  148.5892  132.5346  157.7837 C   0  0  0  0  0  0  0  0  0  0  0  0
  147.8580  133.0166  156.5120 C   0  0  2  0  0  0  0  0  0  0  0  0
  146.4769  133.1776  156.7669 O   0  0  0  0  0  0  0  0  0  0  0  0
  148.0118  132.0481  155.3281 C   0  0  0  0  0  0  0  0  0  0  0  0
  147.2696  132.5210  154.2101 O   0  0  0  0  0  0  0  0  0  0  0  0
  146.4574  131.5312  153.5933 C   0  0  0  0  0  0  0  0  0  0  0  0
  145.9506  132.0649  152.2885 C   0  0  0  0  0  0  0  0  0  0  0  0
  145.0964  131.4426  151.4141 C   0  0  0  0  0  0  0  0  0  0  0  0
  144.8215  132.2170  150.2486 C   0  0  0  0  0  0  0  0  0  0  0  0
  145.4763  133.4196  150.2432 C   0  0  0  0  0  0  0  0  0  0  0  0
  146.4515  133.6228  151.6724 S   0  0  0  0  0  0  0  0  0  0  0  0
  148.2153  134.4271  159.3251 C   0  0  0  0  0  0  0  0  0  0  0  0
  148.8765  135.1901  158.6192 O   0  0  0  0  0  0  0  0  0  0  0  0
  147.5650  134.8291  160.5745 C   0  0  0  0  0  0  0  0  0  0  0  0
  147.7485  136.1938  160.9507 C   0  0  0  0  0  0  0  0  0  0  0  0
  147.8994  137.2946  161.2757 N   0  0  0  0  0  0  0  0  0  0  0  0
  146.8361  133.9626  161.3216 C   0  0  0  0  0  0  0  0  0  0  0  0
  146.1391  134.3295  162.6247 C   0  0  0  0  0  0  0  0  0  0  0  0
  144.8867  131.8416  161.7328 H   0  0  0  0  0  0  0  0  0  0  0  0
  146.3580  131.3368  162.5679 H   0  0  0  0  0  0  0  0  0  0  0  0
  145.9050  130.5845  161.0425 H   0  0  0  0  0  0  0  0  0  0  0  0
  149.6440  132.8094  157.7257 H   0  0  0  0  0  0  0  0  0  0  0  0
  148.5872  131.4439  157.8342 H   0  0  0  0  0  0  0  0  0  0  0  0
  148.2446  133.9870  156.1993 H   0  0  0  0  0  0  0  0  0  0  0  0
  146.3008  132.8920  157.6503 H   0  0  0  0  0  0  0  0  0  0  0  0
  149.0628  131.9159  155.0661 H   0  0  0  0  0  0  0  0  0  0  0  0
  147.6344  131.0696  155.6289 H   0  0  0  0  0  0  0  0  0  0  0  0
  147.0702  130.6489  153.4089 H   0  0  0  0  0  0  0  0  0  0  0  0
  145.6396  131.2229  154.2464 H   0  0  0  0  0  0  0  0  0  0  0  0
  144.6610  130.4668  151.5708 H   0  0  0  0  0  0  0  0  0  0  0  0
  144.1642  131.8689  149.4655 H   0  0  0  0  0  0  0  0  0  0  0  0
  145.4496  134.1924  149.4891 H   0  0  0  0  0  0  0  0  0  0  0  0
  146.3181  135.3652  162.9119 H   0  0  0  0  0  0  0  0  0  0  0  0
  146.4932  133.6984  163.4405 H   0  0  0  0  0  0  0  0  0  0  0  0
  145.0608  134.1971  162.5305 H   0  0  0  0  0  0  0  0  0  0  0  0
  1  2  1  0  0  0  0
  1 23  1  0  0  0  0
  1 24  1  0  0  0  0
  1 25  1  0  0  0  0
  2 21  1  0  0  0  0
  2  3  2  0  0  0  0
  3  4  1  0  0  0  0
  4  5  1  0  0  0  0
  4 16  1  0  0  0  0
  5  6  1  0  0  0  0
  5 26  1  0  0  0  0
  5 27  1  0  0  0  0
  6  7  1  0  0  0  0
  6  8  1  0  0  0  0
  6 28  1  0  0  0  0
  7 29  1  0  0  0  0
  8  9  1  0  0  0  0
  8 30  1  0  0  0  0
  8 31  1  0  0  0  0
  9 10  1  0  0  0  0
 10 11  1  0  0  0  0
 10 32  1  0  0  0  0
 10 33  1  0  0  0  0
 11 15  1  0  0  0  0
 11 12  2  0  0  0  0
 12 13  1  0  0  0  0
 12 34  1  0  0  0  0
 13 14  2  0  0  0  0
 13 35  1  0  0  0  0
 14 15  1  0  0  0  0
 14 36  1  0  0  0  0
 16 17  2  0  0  0  0
 16 18  1  0  0  0  0
 18 19  1  0  0  0  0
 18 21  2  0  0  0  0
 19 20  3  0  0  0  0
 21 22  1  0  0  0  0
 22 37  1  0  0  0  0
 22 38  1  0  0  0  0
 22 39  1  0  0  0  0
M  END
> <s_m_source_file>
AV-unprocessed.smi

> <i_m_source_file_index>
3062

> <i_lp_mmshare_version>
43012

> <i_f3d_flags>
0

> <s_epik_input>
TiNDYyhjMVtDSDNdKWMoPU8pbihuYzFbQ0gzXSlbQ0gyXVtDQEhdKFtPSF0pW0NIMl1PW0NIMl1jMltjSF1bY0hdW2NIXXMy

> <s_epik_cmdline>
J2VwaWtfcHl0aG9uJywgJy1waCcsICc3LjAnLCAnLXRuJywgJzgnLCAnLW1hJywgJzIwMCcsICctbWV0YWxfYmluZGluZycsICctaW1hZScsICc8aW5maWxlLm1hZT4nLCAnLW9tYWUnLCAnPG91dGZpbGUubWFlPic=

> <r_lp_tautomer_probability>
1

> <r_epik_Ionization_Penalty>
6.86395e-08

> <r_epik_Ionization_Penalty_Charging>
2.24757e-10

> <r_epik_Ionization_Penalty_Neutral>
6.84147e-08

> <r_epik_State_Penalty>
-0

> <r_epik_Charging_Adjusted_Penalty>
2.24757e-10

> <i_epik_Tot_Q>
0

> <i_epik_Tot_abs_Q>
0

> <r_epik_Metal_State_Penalty>
-0

> <b_epik_Metal_Only>
0

> <s_lp_Force_Field>
OPLS_2005

> <r_lp_Energy>
26.0533

> <b_lp_Chiralities_Consistent>
1

> <s_lp_Variant>
AV-unprocessed.smi:3062-1

> <Gold.Version>
5.8.1

> <Gold.Id.Protein>
6NUR|6NUR_protein|mol2

> <Gold.PLP.Fitness>
40.1708

> <Gold.PLP.PLP>
-30.8359

> <Gold.PLP.part.hbond>
-3.0000

> <Gold.PLP.part.metal>
0.0000

> <Gold.PLP.part.buried>
-3.0941

> <Gold.PLP.part.nonpolar>
-24.1932

> <Gold.PLP.part.repulsive>
0.0497

> <Gold.PLP.ligand.clash>
0.0000

> <Gold.PLP.ligand.torsion>
0.7989

> <Gold.PLP.Chemscore.Hbond>
2.6200

> <Gold.PLP.Chemscore.CHOScore>
1.0000

> <Gold.PLP.Chemscore.Metal>
0.0000

> <Gold.Chemscore.Hbonds>
donor molecule, donor type, donor heavy atom, donor atom, acceptor molecule, acceptor atom, score
      P1  H  6896  6909       L1    17  0.45
      P1  H  6931  6943       L1    20  0.98
      P1  H  6934  6947       L1    20  0.72
      L1  C    14    36       P1  7921  1.00

> <Gold.PLP.Chemscore.Internal.Correction>
0.0727

> <Gold.Rescore>
     Score         DG    S(hbond)    S(metal)    S(lipo)     H(rot)  DE(clash)    DE(int)     intcor
     16.57     -17.33       2.73        0.00      78.33       2.51       0.01       0.75       ----

> <Gold.Chemscore.Fitness>
16.5654

> <Gold.Chemscore.DG>
-17.3272

> <Gold.Chemscore.ZeroCoef>
-5.4800

> <Gold.Chemscore.Hbond>
2.7285

> <Gold.Chemscore.Metal>
0.0000

> <Gold.Chemscore.Lipo>
78.3293

> <Gold.Chemscore.Internal_Hbond>
0.0000

> <Gold.Chemscore.DEClash>
0.0120

> <Gold.Chemscore.DEInternal>
0.7497

> <Gold.Chemscore.Rot>
2.5119

> <Gold.Chemscore.Internal.Correction>
   9.000000E+99

> <Gold.Chemscore.Hbonds>
donor molecule, donor type, donor heavy atom, donor atom, acceptor molecule, acceptor atom, score
      P1  H  6896  6909       L1    17  0.03
      P1  H  6931  6943       L1    20  0.91
      P1  H  6934  6947       L1    20  0.72

> <Gold.Chemscore.Hbond.Weighted>
-9.1131

> <Gold.Chemscore.Metal.Weighted>
-0.0000

> <Gold.Chemscore.Lipo.Weighted>
-9.1645

> <Gold.Chemscore.Internal_Hbond.Weighted>
0.0000

> <Gold.Chemscore.DEClash.Weighted>
0.0120

> <Gold.Chemscore.DEInternal.Weighted>
0.7497

> <Gold.Chemscore.Rot.Weighted>
6.4305

> <Gold.Chemscore.Internal.Correction.Weighted>
   9.000000E+99

> <Gold.Protein.RotatedTorsions>
[ 6907 6896 6895 6894 ] final   46.76 input  -60.11 | X-H torsion
[ 7974 7965 7964 7962 ] final  -83.43 input  175.53 | X-H torsion
[ 8008 7997 7996 7995 ] final  117.03 input   59.86 | X-H torsion
[ 10167 10162 10161 10158 ] final   91.80 input  -65.29 | X-H torsion
[ 10718 10713 10712 10709 ] final   -2.92 input   66.30 | X-H torsion
[ 10763 10752 10751 10750 ] final    1.95 input  -60.55 | X-H torsion
[ 11005 11000 10999 10996 ] final  150.24 input  -57.11 | X-H torsion

> <Gold.Protein.ActiveResidues>
 VAL166  LYS551  ARG553  GLY616  TRP617  ASP618  TYR619  PRO620  LYS621  CYS622 
 ASP623  PHE694  ASN695  SER759  ASP760  ASP761  ALA762  ILE779  LEU786  VAL792 
 PHE793  MET794  SER795  GLU796  ALA797  LYS798  CYS799  TRP800  GLU811  SER814 

> <Gold.Protein.RotatedAtoms>
  152.2601  134.8043  160.0431 H   0  0  0  0  0  0  0  0  0  0  0  0  # atno 6907 bound_to 6896
  151.8692  133.3467  159.3737 H   0  0  0  0  0  0  0  0  0  0  0  0  # atno 6908 bound_to 6896
  150.7114  134.5057  159.5627 H   0  0  0  0  0  0  0  0  0  0  0  0  # atno 6909 bound_to 6896
  145.5200  140.9532  143.1660 H   0  0  0  0  0  0  0  0  0  0  0  0  # atno 7974 bound_to 7965
  156.2472  140.2905  156.0615 H   0  0  0  0  0  0  0  0  0  0  0  0  # atno 8008 bound_to 7997
  155.1770  140.0403  157.2892 H   0  0  0  0  0  0  0  0  0  0  0  0  # atno 8009 bound_to 7997
  154.6286  140.2493  155.7469 H   0  0  0  0  0  0  0  0  0  0  0  0  # atno 8010 bound_to 7997
  139.8339  144.6674  150.9366 H   0  0  0  0  0  0  0  0  0  0  0  0  # atno 10167 bound_to 10162
  156.7837  130.5339  149.5747 H   0  0  0  0  0  0  0  0  0  0  0  0  # atno 10718 bound_to 10713
  153.3016  135.6956  153.7198 H   0  0  0  0  0  0  0  0  0  0  0  0  # atno 10763 bound_to 10752
  153.6110  135.3444  155.2979 H   0  0  0  0  0  0  0  0  0  0  0  0  # atno 10764 bound_to 10752
  154.8552  135.4363  154.2128 H   0  0  0  0  0  0  0  0  0  0  0  0  # atno 10765 bound_to 10752
  140.1114  134.8922  157.1941 H   0  0  0  0  0  0  0  0  0  0  0  0  # atno 11005 bound_to 11000
  144.7681  139.6798  143.7206 LP  0  0  0  0  0  0  0  0  0  0  0  0  # atno 17320 bound_to 7965
  146.2112  139.5469  142.9680 LP  0  0  0  0  0  0  0  0  0  0  0  0  # atno 17321 bound_to 7965
  140.7804  143.3975  151.1204 LP  0  0  0  0  0  0  0  0  0  0  0  0  # atno 17342 bound_to 10162
  139.7627  143.8612  152.3104 LP  0  0  0  0  0  0  0  0  0  0  0  0  # atno 17343 bound_to 10162
  156.1202  130.6104  151.0182 LP  0  0  0  0  0  0  0  0  0  0  0  0  # atno 17370 bound_to 10713
  157.6634  131.0876  150.7785 LP  0  0  0  0  0  0  0  0  0  0  0  0  # atno 17371 bound_to 10713
  140.3086  134.3049  155.7272 LP  0  0  0  0  0  0  0  0  0  0  0  0  # atno 17394 bound_to 11000
  141.2131  133.7636  156.9744 LP  0  0  0  0  0  0  0  0  0  0  0  0  # atno 17395 bound_to 11000

$$$$
