AV-unprocessed.smi:2667|AV-procd|sdf|10335|dock9
  -GOLD-   2272014353D 1   1.00000     0.00000
 Structure written by MMmdl.
 44 46  0  0  0  0  0  0  0  0  1 V2000
  143.1688  146.7105  154.7441 C   0  0  0  0  0  0  0  0  0  0  0  0
  142.4311  145.4655  154.2266 C   0  0  0  0  0  0  0  0  0  0  0  0
  142.6833  144.1993  155.0600 C   0  0  0  0  0  0  0  0  0  0  0  0
  141.7707  143.7175  155.7327 O   0  0  0  0  0  0  0  0  0  0  0  0
  144.0538  143.6118  155.0160 C   0  0  0  0  0  0  0  0  0  0  0  0
  144.9233  143.8230  153.9207 C   0  0  0  0  0  0  0  0  0  0  0  0
  146.2126  143.2574  153.9131 C   0  0  0  0  0  0  0  0  0  0  0  0
  146.6663  142.4721  154.9909 C   0  0  0  0  0  0  0  0  0  0  0  0
  147.9462  141.9682  154.9035 O   0  0  0  0  0  0  0  0  0  0  0  0
  148.4464  141.2108  155.9972 C   0  0  0  0  0  0  0  0  0  0  0  0
  149.8080  140.6120  155.6001 C   0  0  1  0  0  0  0  0  0  0  0  0
  149.7912  140.3577  154.2106 O   0  0  0  0  0  0  0  0  0  0  0  0
  151.0026  141.5472  155.8732 C   0  0  0  0  0  0  0  0  0  0  0  0
  151.2844  141.7037  157.2888 N   0  0  0  0  0  0  0  0  0  0  0  0
  151.3442  140.7263  158.2134 C   0  0  0  0  0  0  0  0  0  0  0  0
  151.6216  141.0857  159.4634 N   0  0  0  0  0  0  0  0  0  0  0  0
  151.7607  142.4570  159.3355 C   0  0  0  0  0  0  0  0  0  0  0  0
  152.0599  143.4425  160.3032 C   0  0  0  0  0  0  0  0  0  0  0  0
  152.1511  144.8010  159.9347 C   0  0  0  0  0  0  0  0  0  0  0  0
  151.9443  145.1947  158.5966 C   0  0  0  0  0  0  0  0  0  0  0  0
  151.6456  144.2307  157.6147 C   0  0  0  0  0  0  0  0  0  0  0  0
  151.5570  142.8761  157.9859 C   0  0  0  0  0  0  0  0  0  0  0  0
  145.7933  142.2506  156.0841 C   0  0  0  0  0  0  0  0  0  0  0  0
  144.5027  142.8140  156.0925 C   0  0  0  0  0  0  0  0  0  0  0  0
  142.9678  147.5683  154.1026 H   0  0  0  0  0  0  0  0  0  0  0  0
  144.2485  146.5563  154.7583 H   0  0  0  0  0  0  0  0  0  0  0  0
  142.8501  146.9729  155.7537 H   0  0  0  0  0  0  0  0  0  0  0  0
  141.3589  145.6626  154.2082 H   0  0  0  0  0  0  0  0  0  0  0  0
  142.7386  145.2715  153.1989 H   0  0  0  0  0  0  0  0  0  0  0  0
  144.6241  144.4174  153.0705 H   0  0  0  0  0  0  0  0  0  0  0  0
  146.8637  143.4325  153.0692 H   0  0  0  0  0  0  0  0  0  0  0  0
  148.5422  141.8162  156.9003 H   0  0  0  0  0  0  0  0  0  0  0  0
  147.7314  140.4142  156.2037 H   0  0  0  0  0  0  0  0  0  0  0  0
  149.9647  139.6699  156.1273 H   0  0  0  0  0  0  0  0  0  0  0  0
  149.6112  139.4395  154.0777 H   0  0  0  0  0  0  0  0  0  0  0  0
  151.9021  141.1594  155.3925 H   0  0  0  0  0  0  0  0  0  0  0  0
  150.8215  142.5323  155.4416 H   0  0  0  0  0  0  0  0  0  0  0  0
  151.1730  139.6919  157.9529 H   0  0  0  0  0  0  0  0  0  0  0  0
  152.2201  143.1527  161.3310 H   0  0  0  0  0  0  0  0  0  0  0  0
  152.3806  145.5450  160.6834 H   0  0  0  0  0  0  0  0  0  0  0  0
  152.0154  146.2375  158.3241 H   0  0  0  0  0  0  0  0  0  0  0  0
  151.4848  144.5294  156.5894 H   0  0  0  0  0  0  0  0  0  0  0  0
  146.0891  141.6507  156.9314 H   0  0  0  0  0  0  0  0  0  0  0  0
  143.8626  142.6281  156.9429 H   0  0  0  0  0  0  0  0  0  0  0  0
  1  2  1  0  0  0  0
  1 25  1  0  0  0  0
  1 26  1  0  0  0  0
  1 27  1  0  0  0  0
  2  3  1  0  0  0  0
  2 28  1  0  0  0  0
  2 29  1  0  0  0  0
  3  4  2  0  0  0  0
  3  5  1  0  0  0  0
  5 24  1  0  0  0  0
  5  6  2  0  0  0  0
  6  7  1  0  0  0  0
  6 30  1  0  0  0  0
  7  8  2  0  0  0  0
  7 31  1  0  0  0  0
  8  9  1  0  0  0  0
  8 23  1  0  0  0  0
  9 10  1  0  0  0  0
 10 11  1  0  0  0  0
 10 32  1  0  0  0  0
 10 33  1  0  0  0  0
 11 12  1  0  0  0  0
 11 13  1  0  0  0  0
 11 34  1  0  0  0  0
 12 35  1  0  0  0  0
 13 14  1  0  0  0  0
 13 36  1  0  0  0  0
 13 37  1  0  0  0  0
 14 22  1  0  0  0  0
 14 15  1  0  0  0  0
 15 16  2  0  0  0  0
 15 38  1  0  0  0  0
 16 17  1  0  0  0  0
 17 22  2  0  0  0  0
 17 18  1  0  0  0  0
 18 19  2  0  0  0  0
 18 39  1  0  0  0  0
 19 20  1  0  0  0  0
 19 40  1  0  0  0  0
 20 21  2  0  0  0  0
 20 41  1  0  0  0  0
 21 22  1  0  0  0  0
 21 42  1  0  0  0  0
 23 24  2  0  0  0  0
 23 43  1  0  0  0  0
 24 44  1  0  0  0  0
M  END
> <s_m_source_file>
AV-unprocessed.smi

> <i_m_source_file_index>
2667

> <i_lp_mmshare_version>
43012

> <i_f3d_flags>
0

> <s_epik_input>
W0NIM11bQ0gyXUMoPU8pYzFbY0hdW2NIXWMoW2NIXVtjSF0xKU9bQ0gyXVtDQEhdKFtPSF0pW0NIMl1uKFtjSF1uMiljKGMyMylbY0hdW2NIXVtjSF1bY0hdMw==

> <s_epik_cmdline>
J2VwaWtfcHl0aG9uJywgJy1waCcsICc3LjAnLCAnLXRuJywgJzgnLCAnLW1hJywgJzIwMCcsICctbWV0YWxfYmluZGluZycsICctaW1hZScsICc8aW5maWxlLm1hZT4nLCAnLW9tYWUnLCAnPG91dGZpbGUubWFlPic=

> <r_lp_tautomer_probability>
0.9999

> <r_epik_Ionization_Penalty>
0.0583018

> <r_epik_Ionization_Penalty_Charging>
0

> <r_epik_Ionization_Penalty_Neutral>
0.0583018

> <r_epik_State_Penalty>
0.0504087

> <r_epik_Charging_Adjusted_Penalty>
0.0504087

> <i_epik_Tot_Q>
0

> <i_epik_Tot_abs_Q>
0

> <r_epik_Metal_State_Penalty>
5.26129e-05

> <b_epik_Metal_Only>
0

> <s_lp_Force_Field>
OPLS_2005

> <r_lp_Energy>
23.9231

> <b_lp_Chiralities_Consistent>
1

> <s_lp_Variant>
AV-unprocessed.smi:2667-2

> <Gold.Version>
5.8.1

> <Gold.Id.Protein>
6NUR|6NUR_protein|mol2

> <Gold.PLP.Fitness>
50.1034

> <Gold.PLP.PLP>
-49.4336

> <Gold.PLP.part.hbond>
-1.8768

> <Gold.PLP.part.metal>
0.0000

> <Gold.PLP.part.buried>
-6.2366

> <Gold.PLP.part.nonpolar>
-41.8885

> <Gold.PLP.part.repulsive>
1.3189

> <Gold.PLP.ligand.clash>
0.0000

> <Gold.PLP.ligand.torsion>
0.9093

> <Gold.PLP.Chemscore.Hbond>
0.7840

> <Gold.PLP.Chemscore.CHOScore>
0.0000

> <Gold.PLP.Chemscore.Metal>
0.0000

> <Gold.Chemscore.Hbonds>
donor molecule, donor type, donor heavy atom, donor atom, acceptor molecule, acceptor atom, score
      P1  H  7989  7998       L1    12  0.80

> <Gold.PLP.Chemscore.Internal.Correction>
0.1365

> <Gold.Rescore>
     Score         DG    S(hbond)    S(metal)    S(lipo)     H(rot)  DE(clash)    DE(int)     intcor
     14.64     -16.72       0.68        0.00     131.29       2.49       1.27       0.81       ----

> <Gold.Chemscore.Fitness>
14.6355

> <Gold.Chemscore.DG>
-16.7153

> <Gold.Chemscore.ZeroCoef>
-5.4800

> <Gold.Chemscore.Hbond>
0.6756

> <Gold.Chemscore.Metal>
0.0000

> <Gold.Chemscore.Lipo>
131.2938

> <Gold.Chemscore.Internal_Hbond>
0.0000

> <Gold.Chemscore.DEClash>
1.2656

> <Gold.Chemscore.DEInternal>
0.8141

> <Gold.Chemscore.Rot>
2.4932

> <Gold.Chemscore.Internal.Correction>
   9.000000E+99

> <Gold.Chemscore.Hbonds>
donor molecule, donor type, donor heavy atom, donor atom, acceptor molecule, acceptor atom, score
      P1  H  7989  7998       L1    12  0.40

> <Gold.Chemscore.Hbond.Weighted>
-2.2565

> <Gold.Chemscore.Metal.Weighted>
-0.0000

> <Gold.Chemscore.Lipo.Weighted>
-15.3614

> <Gold.Chemscore.Internal_Hbond.Weighted>
0.0000

> <Gold.Chemscore.DEClash.Weighted>
1.2656

> <Gold.Chemscore.DEInternal.Weighted>
0.8141

> <Gold.Chemscore.Rot.Weighted>
6.3826

> <Gold.Chemscore.Internal.Correction.Weighted>
   9.000000E+99

> <Gold.Protein.RotatedTorsions>
[ 6907 6896 6895 6894 ] final  147.40 input  -60.11 | X-H torsion
[ 7974 7965 7964 7962 ] final -110.22 input  175.53 | X-H torsion
[ 8008 7997 7996 7995 ] final -171.41 input   59.86 | X-H torsion
[ 10167 10162 10161 10158 ] final  148.91 input  -65.29 | X-H torsion
[ 10718 10713 10712 10709 ] final  -72.69 input   66.30 | X-H torsion
[ 10763 10752 10751 10750 ] final -103.04 input  -60.55 | X-H torsion
[ 11005 11000 10999 10996 ] final  -44.38 input  -57.11 | X-H torsion

> <Gold.Protein.ActiveResidues>
 VAL166  LYS551  ARG553  GLY616  TRP617  ASP618  TYR619  PRO620  LYS621  CYS622 
 ASP623  PHE694  ASN695  SER759  ASP760  ASP761  ALA762  ILE779  LEU786  VAL792 
 PHE793  MET794  SER795  GLU796  ALA797  LYS798  CYS799  TRP800  GLU811  SER814 

> <Gold.Protein.RotatedAtoms>
  152.1552  133.4547  159.4833 H   0  0  0  0  0  0  0  0  0  0  0  0  # atno 6907 bound_to 6896
  150.6900  134.2140  159.4379 H   0  0  0  0  0  0  0  0  0  0  0  0  # atno 6908 bound_to 6896
  152.0039  134.9913  160.0616 H   0  0  0  0  0  0  0  0  0  0  0  0  # atno 6909 bound_to 6896
  145.1709  140.8925  143.3536 H   0  0  0  0  0  0  0  0  0  0  0  0  # atno 7974 bound_to 7965
  155.9312  140.1091  157.1130 H   0  0  0  0  0  0  0  0  0  0  0  0  # atno 8008 bound_to 7997
  154.4071  140.1237  156.4871 H   0  0  0  0  0  0  0  0  0  0  0  0  # atno 8009 bound_to 7997
  155.7077  140.3471  155.4962 H   0  0  0  0  0  0  0  0  0  0  0  0  # atno 8010 bound_to 7997
  139.4868  144.5643  151.7174 H   0  0  0  0  0  0  0  0  0  0  0  0  # atno 10167 bound_to 10162
  156.0310  130.4378  150.2631 H   0  0  0  0  0  0  0  0  0  0  0  0  # atno 10718 bound_to 10713
  154.7778  135.4838  153.9781 H   0  0  0  0  0  0  0  0  0  0  0  0  # atno 10763 bound_to 10752
  153.1453  135.6780  153.8972 H   0  0  0  0  0  0  0  0  0  0  0  0  # atno 10764 bound_to 10752
  153.8633  135.3152  155.3417 H   0  0  0  0  0  0  0  0  0  0  0  0  # atno 10765 bound_to 10752
  141.0446  133.6766  156.2864 H   0  0  0  0  0  0  0  0  0  0  0  0  # atno 11005 bound_to 11000
  145.0234  139.3404  143.6061 LP  0  0  0  0  0  0  0  0  0  0  0  0  # atno 17320 bound_to 7965
  146.3468  139.9543  142.8725 LP  0  0  0  0  0  0  0  0  0  0  0  0  # atno 17321 bound_to 7965
  140.5218  144.0867  150.6025 LP  0  0  0  0  0  0  0  0  0  0  0  0  # atno 17342 bound_to 10162
  140.3828  143.2794  152.0151 LP  0  0  0  0  0  0  0  0  0  0  0  0  # atno 17343 bound_to 10162
  157.0733  131.0123  151.3182 LP  0  0  0  0  0  0  0  0  0  0  0  0  # atno 17370 bound_to 10713
  157.4983  130.7864  149.7578 LP  0  0  0  0  0  0  0  0  0  0  0  0  # atno 17371 bound_to 10713
  140.6170  134.5400  157.5542 LP  0  0  0  0  0  0  0  0  0  0  0  0  # atno 17394 bound_to 11000
  139.9302  134.7978  156.0953 LP  0  0  0  0  0  0  0  0  0  0  0  0  # atno 17395 bound_to 11000

$$$$
