AV-unprocessed.smi:3112|AV-procd|sdf|11839|dock3
  -GOLD-   2272017213D 1   1.00000     0.00000
 Structure written by MMmdl.
 37 37  0  0  0  0  0  0  0  0  2 V2000
  146.5312  142.1243  154.4845 C   0  0  0  0  0  0  0  0  0  0  0  0
  147.9062  141.9852  153.8167 C   0  0  0  0  0  0  0  0  0  0  0  0
  148.7226  140.7887  154.3388 C   0  0  1  0  0  0  0  0  0  0  0  0
  149.8491  140.6032  153.5038 O   0  0  0  0  0  0  0  0  0  0  0  0
  149.2200  141.0161  155.7757 C   0  0  0  0  0  0  0  0  0  0  0  0
  150.1739  142.1433  155.8374 N   0  3  0  0  0  0  0  0  0  0  0  0
  150.6521  142.4971  157.1942 C   0  0  1  0  0  0  0  0  0  0  0  0
  149.4572  142.5040  158.1621 C   0  0  0  0  0  0  0  0  0  0  0  0
  151.7920  141.5564  157.6741 C   0  0  2  0  0  0  0  0  0  0  0  0
  151.4197  140.0626  157.6439 C   0  0  0  0  0  0  0  0  0  0  0  0
  152.3495  141.9450  158.9660 N   0  0  0  0  0  0  0  0  0  0  0  0
  153.4332  141.3986  159.6234 C   0  0  0  0  0  0  0  0  0  0  0  0
  153.5969  142.0897  160.7894 C   0  0  0  0  0  0  0  0  0  0  0  0
  152.5540  143.0563  160.7588 C   0  0  0  0  0  0  0  0  0  0  0  0
  151.8124  142.9702  159.6664 N   0  0  0  0  0  0  0  0  0  0  0  0
  146.0072  143.0036  154.1094 H   0  0  0  0  0  0  0  0  0  0  0  0
  146.6274  142.2324  155.5652 H   0  0  0  0  0  0  0  0  0  0  0  0
  145.9007  141.2569  154.2880 H   0  0  0  0  0  0  0  0  0  0  0  0
  147.7831  141.9111  152.7353 H   0  0  0  0  0  0  0  0  0  0  0  0
  148.4654  142.9045  153.9950 H   0  0  0  0  0  0  0  0  0  0  0  0
  148.1059  139.8893  154.3035 H   0  0  0  0  0  0  0  0  0  0  0  0
  149.5506  140.3175  152.6534 H   0  0  0  0  0  0  0  0  0  0  0  0
  148.3767  141.1917  156.4443 H   0  0  0  0  0  0  0  0  0  0  0  0
  149.7291  140.1217  156.1374 H   0  0  0  0  0  0  0  0  0  0  0  0
  150.9751  141.8981  155.2740 H   0  0  0  0  0  0  0  0  0  0  0  0
  151.0427  143.5160  157.1712 H   0  0  0  0  0  0  0  0  0  0  0  0
  149.7723  142.7606  159.1738 H   0  0  0  0  0  0  0  0  0  0  0  0
  148.9629  141.5328  158.2036 H   0  0  0  0  0  0  0  0  0  0  0  0
  148.7114  143.2382  157.8560 H   0  0  0  0  0  0  0  0  0  0  0  0
  152.6028  141.6705  156.9527 H   0  0  0  0  0  0  0  0  0  0  0  0
  151.0687  139.7663  156.6550 H   0  0  0  0  0  0  0  0  0  0  0  0
  150.6358  139.8209  158.3621 H   0  0  0  0  0  0  0  0  0  0  0  0
  152.2840  139.4421  157.8834 H   0  0  0  0  0  0  0  0  0  0  0  0
  153.9931  140.5718  159.2114 H   0  0  0  0  0  0  0  0  0  0  0  0
  154.3477  141.9287  161.5489 H   0  0  0  0  0  0  0  0  0  0  0  0
  152.3166  143.8139  161.4910 H   0  0  0  0  0  0  0  0  0  0  0  0
  149.7398  142.9617  155.4320 H   0  0  0  0  0  0  0  0  0  0  0  0
  1  2  1  0  0  0  0
  1 16  1  0  0  0  0
  1 17  1  0  0  0  0
  1 18  1  0  0  0  0
  2  3  1  0  0  0  0
  2 19  1  0  0  0  0
  2 20  1  0  0  0  0
  3  4  1  0  0  0  0
  3  5  1  0  0  0  0
  3 21  1  0  0  0  0
  4 22  1  0  0  0  0
  5  6  1  0  0  0  0
  5 23  1  0  0  0  0
  5 24  1  0  0  0  0
  6  7  1  0  0  0  0
  6 25  1  0  0  0  0
  6 37  1  0  0  0  0
  7  8  1  0  0  0  0
  7  9  1  0  0  0  0
  7 26  1  0  0  0  0
  8 27  1  0  0  0  0
  8 28  1  0  0  0  0
  8 29  1  0  0  0  0
  9 10  1  0  0  0  0
  9 11  1  0  0  0  0
  9 30  1  0  0  0  0
 10 31  1  0  0  0  0
 10 32  1  0  0  0  0
 10 33  1  0  0  0  0
 11 15  1  0  0  0  0
 11 12  1  0  0  0  0
 12 13  2  0  0  0  0
 12 34  1  0  0  0  0
 13 14  1  0  0  0  0
 13 35  1  0  0  0  0
 14 15  2  0  0  0  0
 14 36  1  0  0  0  0
M  CHG  1   6   1
M  END
> <s_m_source_file>
AV-unprocessed.smi

> <i_m_source_file_index>
3112

> <i_lp_mmshare_version>
43012

> <i_f3d_flags>
0

> <s_epik_input>
W0NIM11bQ0gyXVtDQEhdKFtPSF0pW0NIMl1bTkhdW0NASF0oW0NIM10pW0NASF0oW0NIM10pbjFbY0hdW2NIXVtjSF1uMQ==

> <s_epik_cmdline>
J2VwaWtfcHl0aG9uJywgJy1waCcsICc3LjAnLCAnLXRuJywgJzgnLCAnLW1hJywgJzIwMCcsICctbWV0YWxfYmluZGluZycsICctaW1hZScsICc8aW5maWxlLm1hZT4nLCAnLW9tYWUnLCAnPG91dGZpbGUubWFlPic=

> <r_lp_tautomer_probability>
1

> <r_epik_Ionization_Penalty>
0.0154842

> <r_epik_Ionization_Penalty_Charging>
0.0154724

> <r_epik_Ionization_Penalty_Neutral>
1.17979e-05

> <r_epik_State_Penalty>
0.0121607

> <r_epik_Charging_Adjusted_Penalty>
0.0276331

> <i_epik_Tot_Q>
1

> <i_epik_Tot_abs_Q>
1

> <r_epik_Metal_State_Penalty>
0.0121863

> <b_epik_Metal_Only>
0

> <s_lp_Force_Field>
OPLS_2005

> <r_lp_Energy>
13.0282

> <b_lp_Chiralities_Consistent>
1

> <s_lp_Variant>
AV-unprocessed.smi:3112-4

> <Gold.Version>
5.8.1

> <Gold.Id.Protein>
6NUR|6NUR_protein|mol2

> <Gold.PLP.Fitness>
44.9630

> <Gold.PLP.PLP>
-35.3034

> <Gold.PLP.part.hbond>
-3.6420

> <Gold.PLP.part.metal>
0.0000

> <Gold.PLP.part.buried>
-4.3401

> <Gold.PLP.part.nonpolar>
-25.9915

> <Gold.PLP.part.repulsive>
0.1293

> <Gold.PLP.ligand.clash>
0.0000

> <Gold.PLP.ligand.torsion>
0.3048

> <Gold.PLP.Chemscore.Hbond>
3.3680

> <Gold.PLP.Chemscore.CHOScore>
0.0000

> <Gold.PLP.Chemscore.Metal>
0.0000

> <Gold.Chemscore.Hbonds>
donor molecule, donor type, donor heavy atom, donor atom, acceptor molecule, acceptor atom, score
      L1  H     4    22       P1  7957  0.98
      L1  H     6    37       P1  8028  2.00
      P1  H  7989  7998       L1     4  0.43

> <Gold.PLP.Chemscore.Internal.Correction>
0.1652

> <Gold.Rescore>
     Score         DG    S(hbond)    S(metal)    S(lipo)     H(rot)  DE(clash)    DE(int)     intcor
     14.67     -16.49       2.27        0.00      81.91       2.41       0.10       1.72       ----

> <Gold.Chemscore.Fitness>
14.6687

> <Gold.Chemscore.DG>
-16.4878

> <Gold.Chemscore.ZeroCoef>
-5.4800

> <Gold.Chemscore.Hbond>
2.2728

> <Gold.Chemscore.Metal>
0.0000

> <Gold.Chemscore.Lipo>
81.9080

> <Gold.Chemscore.Internal_Hbond>
0.0000

> <Gold.Chemscore.DEClash>
0.1002

> <Gold.Chemscore.DEInternal>
1.7189

> <Gold.Chemscore.Rot>
2.4089

> <Gold.Chemscore.Internal.Correction>
   9.000000E+99

> <Gold.Chemscore.Hbonds>
donor molecule, donor type, donor heavy atom, donor atom, acceptor molecule, acceptor atom, score
      L1  H     4    22       P1  7957  0.90
      L1  H     6    37       P1  8028  0.93
      P1  H  7989  7998       L1     4  0.31

> <Gold.Chemscore.Hbond.Weighted>
-7.5913

> <Gold.Chemscore.Metal.Weighted>
-0.0000

> <Gold.Chemscore.Lipo.Weighted>
-9.5832

> <Gold.Chemscore.Internal_Hbond.Weighted>
0.0000

> <Gold.Chemscore.DEClash.Weighted>
0.1002

> <Gold.Chemscore.DEInternal.Weighted>
1.7189

> <Gold.Chemscore.Rot.Weighted>
6.1667

> <Gold.Chemscore.Internal.Correction.Weighted>
   9.000000E+99

> <Gold.Protein.RotatedTorsions>
[ 6907 6896 6895 6894 ] final  143.36 input  -60.11 | X-H torsion
[ 7974 7965 7964 7962 ] final -122.49 input  175.53 | X-H torsion
[ 8008 7997 7996 7995 ] final  136.32 input   59.86 | X-H torsion
[ 10167 10162 10161 10158 ] final  133.15 input  -65.29 | X-H torsion
[ 10718 10713 10712 10709 ] final -152.72 input   66.30 | X-H torsion
[ 10763 10752 10751 10750 ] final -160.42 input  -60.55 | X-H torsion
[ 11005 11000 10999 10996 ] final  116.79 input  -57.11 | X-H torsion

> <Gold.Protein.ActiveResidues>
 VAL166  LYS551  ARG553  GLY616  TRP617  ASP618  TYR619  PRO620  LYS621  CYS622 
 ASP623  PHE694  ASN695  SER759  ASP760  ASP761  ALA762  ILE779  LEU786  VAL792 
 PHE793  MET794  SER795  GLU796  ALA797  LYS798  CYS799  TRP800  GLU811  SER814 

> <Gold.Protein.RotatedAtoms>
  152.2072  133.4884  159.5090 H   0  0  0  0  0  0  0  0  0  0  0  0  # atno 6907 bound_to 6896
  150.6982  134.1513  159.4150 H   0  0  0  0  0  0  0  0  0  0  0  0  # atno 6908 bound_to 6896
  151.9432  135.0203  160.0588 H   0  0  0  0  0  0  0  0  0  0  0  0  # atno 6909 bound_to 6896
  145.0288  140.8051  143.4336 H   0  0  0  0  0  0  0  0  0  0  0  0  # atno 7974 bound_to 7965
  156.3004  140.2448  156.3725 H   0  0  0  0  0  0  0  0  0  0  0  0  # atno 8008 bound_to 7997
  154.8775  140.0414  157.1782 H   0  0  0  0  0  0  0  0  0  0  0  0  # atno 8009 bound_to 7997
  154.8730  140.2938  155.5474 H   0  0  0  0  0  0  0  0  0  0  0  0  # atno 8010 bound_to 7997
  139.5309  144.6629  151.4954 H   0  0  0  0  0  0  0  0  0  0  0  0  # atno 10167 bound_to 10162
  156.4763  130.8282  151.2510 H   0  0  0  0  0  0  0  0  0  0  0  0  # atno 10718 bound_to 10713
  154.7391  135.3064  154.8759 H   0  0  0  0  0  0  0  0  0  0  0  0  # atno 10763 bound_to 10752
  153.9579  135.6756  153.4749 H   0  0  0  0  0  0  0  0  0  0  0  0  # atno 10764 bound_to 10752
  153.0992  135.4920  154.8759 H   0  0  0  0  0  0  0  0  0  0  0  0  # atno 10765 bound_to 10752
  139.9053  134.9602  156.7252 H   0  0  0  0  0  0  0  0  0  0  0  0  # atno 11005 bound_to 11000
  145.1797  139.2358  143.5299 LP  0  0  0  0  0  0  0  0  0  0  0  0  # atno 17320 bound_to 7965
  146.3496  140.1568  142.8591 LP  0  0  0  0  0  0  0  0  0  0  0  0  # atno 17321 bound_to 7965
  140.6486  143.8743  150.6763 LP  0  0  0  0  0  0  0  0  0  0  0  0  # atno 17342 bound_to 10162
  140.2100  143.3891  152.1725 LP  0  0  0  0  0  0  0  0  0  0  0  0  # atno 17343 bound_to 10162
  157.7487  131.0060  150.3133 LP  0  0  0  0  0  0  0  0  0  0  0  0  # atno 17370 bound_to 10713
  156.3567  130.3840  149.7284 LP  0  0  0  0  0  0  0  0  0  0  0  0  # atno 17371 bound_to 10713
  140.6969  133.9341  155.8000 LP  0  0  0  0  0  0  0  0  0  0  0  0  # atno 17394 bound_to 11000
  141.0400  134.0634  157.3913 LP  0  0  0  0  0  0  0  0  0  0  0  0  # atno 17395 bound_to 11000

$$$$
