AV-unprocessed.smi:2771|AV-procd|sdf|10662|dock8
  -GOLD-   2272015113D 1   1.00000     0.00000
 Structure written by MMmdl.
 43 44  0  0  0  0  0  0  0  0  1 V2000
  153.5031  140.9455  160.2725 C   0  0  0  0  0  0  0  0  0  0  0  0
  152.7192  142.1382  159.7669 C   0  0  0  0  0  0  0  0  0  0  0  0
  152.8284  143.3958  160.3921 C   0  0  0  0  0  0  0  0  0  0  0  0
  152.0726  144.4620  159.8725 C   0  0  0  0  0  0  0  0  0  0  0  0
  151.2442  144.2283  158.7576 C   0  0  0  0  0  0  0  0  0  0  0  0
  151.1905  142.9351  158.1904 C   0  0  0  0  0  0  0  0  0  0  0  0
  150.3262  142.8025  157.0710 N   0  0  0  0  0  0  0  0  0  0  0  0
  150.3377  141.8506  156.1213 C   0  0  0  0  0  0  0  0  0  0  0  0
  151.1234  140.9038  156.0707 O   0  0  0  0  0  0  0  0  0  0  0  0
  149.3666  142.0531  155.2194 N   0  0  0  0  0  0  0  0  0  0  0  0
  149.0949  141.1992  154.0668 C   0  0  0  0  0  0  0  0  0  0  0  0
  147.7534  140.4449  154.2229 C   0  0  2  0  0  0  0  0  0  0  0  0
  147.5053  139.8167  152.9789 O   0  0  0  0  0  0  0  0  0  0  0  0
  146.5321  141.3500  154.5499 C   0  0  0  0  0  0  0  0  0  0  0  0
  146.5320  142.6741  153.7444 C   0  0  0  0  0  0  0  0  0  0  0  0
  145.3367  143.5749  154.0974 C   0  0  0  0  0  0  0  0  0  0  0  0
  145.2871  143.8793  155.5995 C   0  0  0  0  0  0  0  0  0  0  0  0
  145.2647  142.5795  156.4127 C   0  0  0  0  0  0  0  0  0  0  0  0
  146.4639  141.6847  156.0624 C   0  0  0  0  0  0  0  0  0  0  0  0
  151.9234  141.9137  158.6994 N   0  0  0  0  0  0  0  0  0  0  0  0
  154.2771  141.2520  160.9764 H   0  0  0  0  0  0  0  0  0  0  0  0
  153.9856  140.4257  159.4442 H   0  0  0  0  0  0  0  0  0  0  0  0
  152.8385  140.2445  160.7778 H   0  0  0  0  0  0  0  0  0  0  0  0
  153.4729  143.5419  161.2464 H   0  0  0  0  0  0  0  0  0  0  0  0
  152.1261  145.4430  160.3208 H   0  0  0  0  0  0  0  0  0  0  0  0
  150.6573  145.0368  158.3465 H   0  0  0  0  0  0  0  0  0  0  0  0
  149.6155  143.5138  156.9848 H   0  0  0  0  0  0  0  0  0  0  0  0
  148.7661  142.8555  155.3393 H   0  0  0  0  0  0  0  0  0  0  0  0
  149.0646  141.8817  153.2212 H   0  0  0  0  0  0  0  0  0  0  0  0
  149.9194  140.5126  153.8647 H   0  0  0  0  0  0  0  0  0  0  0  0
  147.8451  139.6772  154.9929 H   0  0  0  0  0  0  0  0  0  0  0  0
  148.3003  139.8391  152.4674 H   0  0  0  0  0  0  0  0  0  0  0  0
  145.6265  140.8006  154.2871 H   0  0  0  0  0  0  0  0  0  0  0  0
  147.4620  143.2147  153.9259 H   0  0  0  0  0  0  0  0  0  0  0  0
  146.4911  142.4821  152.6740 H   0  0  0  0  0  0  0  0  0  0  0  0
  145.3947  144.5059  153.5327 H   0  0  0  0  0  0  0  0  0  0  0  0
  144.4101  143.0866  153.7931 H   0  0  0  0  0  0  0  0  0  0  0  0
  146.1549  144.4765  155.8828 H   0  0  0  0  0  0  0  0  0  0  0  0
  144.4067  144.4797  155.8306 H   0  0  0  0  0  0  0  0  0  0  0  0
  145.2716  142.8088  157.4788 H   0  0  0  0  0  0  0  0  0  0  0  0
  144.3368  142.0402  156.2187 H   0  0  0  0  0  0  0  0  0  0  0  0
  146.3950  140.7740  156.6576 H   0  0  0  0  0  0  0  0  0  0  0  0
  147.3862  142.1799  156.3695 H   0  0  0  0  0  0  0  0  0  0  0  0
  1  2  1  0  0  0  0
  1 21  1  0  0  0  0
  1 22  1  0  0  0  0
  1 23  1  0  0  0  0
  2 20  1  0  0  0  0
  2  3  2  0  0  0  0
  3  4  1  0  0  0  0
  3 24  1  0  0  0  0
  4  5  2  0  0  0  0
  4 25  1  0  0  0  0
  5  6  1  0  0  0  0
  5 26  1  0  0  0  0
  6  7  1  0  0  0  0
  6 20  2  0  0  0  0
  7  8  1  0  0  0  0
  7 27  1  0  0  0  0
  8  9  2  0  0  0  0
  8 10  1  0  0  0  0
 10 11  1  0  0  0  0
 10 28  1  0  0  0  0
 11 12  1  0  0  0  0
 11 29  1  0  0  0  0
 11 30  1  0  0  0  0
 12 13  1  0  0  0  0
 12 14  1  0  0  0  0
 12 31  1  0  0  0  0
 13 32  1  0  0  0  0
 14 19  1  0  0  0  0
 14 15  1  0  0  0  0
 14 33  1  0  0  0  0
 15 16  1  0  0  0  0
 15 34  1  0  0  0  0
 15 35  1  0  0  0  0
 16 17  1  0  0  0  0
 16 36  1  0  0  0  0
 16 37  1  0  0  0  0
 17 18  1  0  0  0  0
 17 38  1  0  0  0  0
 17 39  1  0  0  0  0
 18 19  1  0  0  0  0
 18 40  1  0  0  0  0
 18 41  1  0  0  0  0
 19 42  1  0  0  0  0
 19 43  1  0  0  0  0
M  END
> <s_m_source_file>
AV-unprocessed.smi

> <i_m_source_file_index>
2771

> <i_lp_mmshare_version>
43012

> <i_f3d_flags>
0

> <s_epik_input>
W0NIM11jMVtjSF1bY0hdW2NIXWMobjEpW05IXUMoPU8pW05IXVtDSDJdW0NASF0oW09IXSlbQ0hdMltDSDJdW0NIMl1bQ0gyXVtDSDJdW0NIMl0y

> <s_epik_cmdline>
J2VwaWtfcHl0aG9uJywgJy1waCcsICc3LjAnLCAnLXRuJywgJzgnLCAnLW1hJywgJzIwMCcsICctbWV0YWxfYmluZGluZycsICctaW1hZScsICc8aW5maWxlLm1hZT4nLCAnLW9tYWUnLCAnPG91dGZpbGUubWFlPic=

> <r_lp_tautomer_probability>
1

> <r_epik_Ionization_Penalty>
8.92802e-05

> <r_epik_Ionization_Penalty_Charging>
0

> <r_epik_Ionization_Penalty_Neutral>
8.92802e-05

> <r_epik_State_Penalty>
-0

> <r_epik_Charging_Adjusted_Penalty>
0

> <i_epik_Tot_Q>
0

> <i_epik_Tot_abs_Q>
0

> <r_epik_Metal_State_Penalty>
-0

> <b_epik_Metal_Only>
0

> <s_lp_Force_Field>
OPLS_2005

> <r_lp_Energy>
16.1378

> <b_lp_Chiralities_Consistent>
1

> <s_lp_Variant>
AV-unprocessed.smi:2771-1

> <Gold.Version>
5.8.1

> <Gold.Id.Protein>
6NUR|6NUR_protein|mol2

> <Gold.PLP.Fitness>
51.0846

> <Gold.PLP.PLP>
-44.0527

> <Gold.PLP.part.hbond>
-3.0000

> <Gold.PLP.part.metal>
0.0000

> <Gold.PLP.part.buried>
-6.2818

> <Gold.PLP.part.nonpolar>
-34.2505

> <Gold.PLP.part.repulsive>
0.2267

> <Gold.PLP.ligand.clash>
0.0000

> <Gold.PLP.ligand.torsion>
0.5142

> <Gold.PLP.Chemscore.Hbond>
2.6800

> <Gold.PLP.Chemscore.CHOScore>
0.0000

> <Gold.PLP.Chemscore.Metal>
0.0000

> <Gold.Chemscore.Hbonds>
donor molecule, donor type, donor heavy atom, donor atom, acceptor molecule, acceptor atom, score
      L1  H     7    27       P1  8028  0.82
      L1  H    10    28       P1  8028  0.82
      L1  H    13    32       P1  7957  1.00

> <Gold.PLP.Chemscore.Internal.Correction>
0.0202

> <Gold.Rescore>
     Score         DG    S(hbond)    S(metal)    S(lipo)     H(rot)  DE(clash)    DE(int)     intcor
     18.77     -20.68       2.76        0.00      93.85       1.95       0.04       1.88       ----

> <Gold.Chemscore.Fitness>
18.7677

> <Gold.Chemscore.DG>
-20.6846

> <Gold.Chemscore.ZeroCoef>
-5.4800

> <Gold.Chemscore.Hbond>
2.7621

> <Gold.Chemscore.Metal>
0.0000

> <Gold.Chemscore.Lipo>
93.8499

> <Gold.Chemscore.Internal_Hbond>
0.0000

> <Gold.Chemscore.DEClash>
0.0377

> <Gold.Chemscore.DEInternal>
1.8792

> <Gold.Chemscore.Rot>
1.9536

> <Gold.Chemscore.Internal.Correction>
   9.000000E+99

> <Gold.Chemscore.Hbonds>
donor molecule, donor type, donor heavy atom, donor atom, acceptor molecule, acceptor atom, score
      L1  H     7    27       P1  8028  0.78
      L1  H    10    28       P1  8028  0.81
      L1  H    13    32       P1  7957  1.00

> <Gold.Chemscore.Hbond.Weighted>
-9.2254

> <Gold.Chemscore.Metal.Weighted>
-0.0000

> <Gold.Chemscore.Lipo.Weighted>
-10.9804

> <Gold.Chemscore.Internal_Hbond.Weighted>
0.0000

> <Gold.Chemscore.DEClash.Weighted>
0.0377

> <Gold.Chemscore.DEInternal.Weighted>
1.8792

> <Gold.Chemscore.Rot.Weighted>
5.0013

> <Gold.Chemscore.Internal.Correction.Weighted>
   9.000000E+99

> <Gold.Protein.RotatedTorsions>
[ 6907 6896 6895 6894 ] final -136.14 input  -60.11 | X-H torsion
[ 7974 7965 7964 7962 ] final  -68.28 input  175.53 | X-H torsion
[ 8008 7997 7996 7995 ] final  110.88 input   59.86 | X-H torsion
[ 10167 10162 10161 10158 ] final  -29.52 input  -65.29 | X-H torsion
[ 10718 10713 10712 10709 ] final  146.17 input   66.30 | X-H torsion
[ 10763 10752 10751 10750 ] final  -66.62 input  -60.55 | X-H torsion
[ 11005 11000 10999 10996 ] final  -79.01 input  -57.11 | X-H torsion

> <Gold.Protein.ActiveResidues>
 VAL166  LYS551  ARG553  GLY616  TRP617  ASP618  TYR619  PRO620  LYS621  CYS622 
 ASP623  PHE694  ASN695  SER759  ASP760  ASP761  ALA762  ILE779  LEU786  VAL792 
 PHE793  MET794  SER795  GLU796  ALA797  LYS798  CYS799  TRP800  GLU811  SER814 

> <Gold.Protein.RotatedAtoms>
  151.0064  133.6007  159.2688 H   0  0  0  0  0  0  0  0  0  0  0  0  # atno 6907 bound_to 6896
  151.3174  135.0809  159.9303 H   0  0  0  0  0  0  0  0  0  0  0  0  # atno 6908 bound_to 6896
  152.5288  133.9718  159.7819 H   0  0  0  0  0  0  0  0  0  0  0  0  # atno 6909 bound_to 6896
  145.7185  140.9048  143.0643 H   0  0  0  0  0  0  0  0  0  0  0  0  # atno 7974 bound_to 7965
  156.2085  140.3030  155.9679 H   0  0  0  0  0  0  0  0  0  0  0  0  # atno 8008 bound_to 7997
  155.2783  140.0436  157.3030 H   0  0  0  0  0  0  0  0  0  0  0  0  # atno 8009 bound_to 7997
  154.5666  140.2336  155.8263 H   0  0  0  0  0  0  0  0  0  0  0  0  # atno 8010 bound_to 7997
  140.7259  143.3922  151.1409 H   0  0  0  0  0  0  0  0  0  0  0  0  # atno 10167 bound_to 10162
  157.3364  131.0929  151.1119 H   0  0  0  0  0  0  0  0  0  0  0  0  # atno 10718 bound_to 10713
  154.3625  135.6113  153.5698 H   0  0  0  0  0  0  0  0  0  0  0  0  # atno 10763 bound_to 10752
  152.9793  135.5818  154.4616 H   0  0  0  0  0  0  0  0  0  0  0  0  # atno 10764 bound_to 10752
  154.4356  135.2849  155.1860 H   0  0  0  0  0  0  0  0  0  0  0  0  # atno 10765 bound_to 10752
  141.1666  133.7087  156.8058 H   0  0  0  0  0  0  0  0  0  0  0  0  # atno 11005 bound_to 11000
  144.6923  139.9170  143.7466 LP  0  0  0  0  0  0  0  0  0  0  0  0  # atno 17320 bound_to 7965
  146.0648  139.3639  143.0559 LP  0  0  0  0  0  0  0  0  0  0  0  0  # atno 17321 bound_to 7965
  139.7529  143.8751  152.3081 LP  0  0  0  0  0  0  0  0  0  0  0  0  # atno 17342 bound_to 10162
  139.8611  144.7117  150.9099 LP  0  0  0  0  0  0  0  0  0  0  0  0  # atno 17343 bound_to 10162
  157.2348  130.6542  149.5864 LP  0  0  0  0  0  0  0  0  0  0  0  0  # atno 17370 bound_to 10713
  155.9702  130.4587  150.6010 LP  0  0  0  0  0  0  0  0  0  0  0  0  # atno 17371 bound_to 10713
  140.2223  134.8748  157.3390 LP  0  0  0  0  0  0  0  0  0  0  0  0  # atno 17394 bound_to 11000
  140.1975  134.4295  155.7681 LP  0  0  0  0  0  0  0  0  0  0  0  0  # atno 17395 bound_to 11000

$$$$
