AV-unprocessed.smi:1024|AV-procd|sdf|4465|dock9
  -GOLD-   22720 2443D 1   1.00000     0.00000
 Structure written by MMmdl.
 47 49  0  0  0  0  0  0  0  0  1 V2000
  149.5794  141.1028  153.8123 O   0  0  0  0  0  0  0  0  0  0  0  0
  149.1040  140.9458  154.9380 C   0  0  0  0  0  0  0  0  0  0  0  0
  147.7792  140.8550  155.1448 N   0  0  0  0  0  0  0  0  0  0  0  0
  146.7556  140.9506  154.1112 C   0  0  0  0  0  0  0  0  0  0  0  0
  146.4119  142.4146  153.7924 C   0  0  0  0  0  0  0  0  0  0  0  0
  145.6245  143.0164  154.8490 N   0  0  0  0  0  0  0  0  0  0  0  0
  145.8946  142.9954  156.2108 C   0  0  0  0  0  0  0  0  0  0  0  0
  144.8755  143.6890  156.8237 C   0  0  0  0  0  0  0  0  0  0  0  0
  143.9727  144.1414  155.8641 N   0  0  0  0  0  0  0  0  0  0  0  0
  144.4821  143.7047  154.7194 C   0  0  0  0  0  0  0  0  0  0  0  0
  149.8638  140.8200  156.0559 N   0  0  0  0  0  0  0  0  0  0  0  0
  149.3899  140.4257  157.3916 C   0  0  0  0  0  0  0  0  0  0  0  0
  149.3529  141.6761  158.2917 C   0  0  0  0  0  0  0  0  0  0  0  0
  150.7277  142.3940  158.3968 C   0  0  0  0  0  0  0  0  0  0  0  0
  150.5051  143.7718  159.0743 C   0  0  0  0  0  0  0  0  0  0  0  0
  151.8132  144.5095  159.4116 C   0  0  0  0  0  0  0  0  0  0  0  0
  152.7211  143.6494  160.3002 C   0  0  0  0  0  0  0  0  0  0  0  0
  152.9960  142.2865  159.6515 C   0  0  0  0  0  0  0  0  0  0  0  0
  151.6858  141.5597  159.2956 C   0  0  0  0  0  0  0  0  0  0  0  0
  151.2986  142.5857  156.9598 C   0  0  0  0  0  0  0  0  0  0  0  0
  151.2484  141.2994  156.1122 C   0  0  0  0  0  0  0  0  0  0  0  0
  147.4589  140.7129  156.0916 H   0  0  0  0  0  0  0  0  0  0  0  0
  147.0809  140.4267  153.2107 H   0  0  0  0  0  0  0  0  0  0  0  0
  145.8670  140.4299  154.4689 H   0  0  0  0  0  0  0  0  0  0  0  0
  147.3224  143.0011  153.6622 H   0  0  0  0  0  0  0  0  0  0  0  0
  145.8507  142.4869  152.8597 H   0  0  0  0  0  0  0  0  0  0  0  0
  146.7644  142.5023  156.6195 H   0  0  0  0  0  0  0  0  0  0  0  0
  144.7235  143.8949  157.8730 H   0  0  0  0  0  0  0  0  0  0  0  0
  144.0125  143.8890  153.7641 H   0  0  0  0  0  0  0  0  0  0  0  0
  148.4083  139.9523  157.3893 H   0  0  0  0  0  0  0  0  0  0  0  0
  150.0624  139.6738  157.8056 H   0  0  0  0  0  0  0  0  0  0  0  0
  148.6125  142.3666  157.8844 H   0  0  0  0  0  0  0  0  0  0  0  0
  148.9887  141.4042  159.2831 H   0  0  0  0  0  0  0  0  0  0  0  0
  149.8842  144.4077  158.4420 H   0  0  0  0  0  0  0  0  0  0  0  0
  149.9417  143.6327  159.9983 H   0  0  0  0  0  0  0  0  0  0  0  0
  152.3397  144.7807  158.4962 H   0  0  0  0  0  0  0  0  0  0  0  0
  151.5854  145.4471  159.9195 H   0  0  0  0  0  0  0  0  0  0  0  0
  153.6604  144.1696  160.4901 H   0  0  0  0  0  0  0  0  0  0  0  0
  152.2466  143.5023  161.2712 H   0  0  0  0  0  0  0  0  0  0  0  0
  153.6111  142.4166  158.7614 H   0  0  0  0  0  0  0  0  0  0  0  0
  153.5826  141.6698  160.3328 H   0  0  0  0  0  0  0  0  0  0  0  0
  151.1752  141.3119  160.2272 H   0  0  0  0  0  0  0  0  0  0  0  0
  151.9261  140.6035  158.8332 H   0  0  0  0  0  0  0  0  0  0  0  0
  150.7208  143.3535  156.4432 H   0  0  0  0  0  0  0  0  0  0  0  0
  152.3206  142.9608  156.9844 H   0  0  0  0  0  0  0  0  0  0  0  0
  151.8857  140.5262  156.5414 H   0  0  0  0  0  0  0  0  0  0  0  0
  151.6631  141.4955  155.1224 H   0  0  0  0  0  0  0  0  0  0  0  0
  1  2  2  0  0  0  0
  2  3  1  0  0  0  0
  2 11  1  0  0  0  0
  3  4  1  0  0  0  0
  3 22  1  0  0  0  0
  4  5  1  0  0  0  0
  4 23  1  0  0  0  0
  4 24  1  0  0  0  0
  5  6  1  0  0  0  0
  5 25  1  0  0  0  0
  5 26  1  0  0  0  0
  6 10  1  0  0  0  0
  6  7  1  0  0  0  0
  7  8  2  0  0  0  0
  7 27  1  0  0  0  0
  8  9  1  0  0  0  0
  8 28  1  0  0  0  0
  9 10  2  0  0  0  0
 10 29  1  0  0  0  0
 11 21  1  0  0  0  0
 11 12  1  0  0  0  0
 12 13  1  0  0  0  0
 12 30  1  0  0  0  0
 12 31  1  0  0  0  0
 13 14  1  0  0  0  0
 13 32  1  0  0  0  0
 13 33  1  0  0  0  0
 14 19  1  0  0  0  0
 14 15  1  0  0  0  0
 14 20  1  0  0  0  0
 15 16  1  0  0  0  0
 15 34  1  0  0  0  0
 15 35  1  0  0  0  0
 16 17  1  0  0  0  0
 16 36  1  0  0  0  0
 16 37  1  0  0  0  0
 17 18  1  0  0  0  0
 17 38  1  0  0  0  0
 17 39  1  0  0  0  0
 18 19  1  0  0  0  0
 18 40  1  0  0  0  0
 18 41  1  0  0  0  0
 19 42  1  0  0  0  0
 19 43  1  0  0  0  0
 20 21  1  0  0  0  0
 20 44  1  0  0  0  0
 20 45  1  0  0  0  0
 21 46  1  0  0  0  0
 21 47  1  0  0  0  0
M  END
> <s_m_source_file>
AV-unprocessed.smi

> <i_m_source_file_index>
1024

> <i_lp_mmshare_version>
43012

> <i_f3d_flags>
0

> <s_epik_input>
W2NIXTFuW2NIXVtjSF1uMVtDSDJdW0NIMl1bTkhdQyg9TylOKFtDSDJdW0NIMl0yKVtDSDJdW0NIMl1DMjNbQ0gyXVtDSDJdW0NIMl1bQ0gyXVtDSDJdMw==

> <s_epik_cmdline>
J2VwaWtfcHl0aG9uJywgJy1waCcsICc3LjAnLCAnLXRuJywgJzgnLCAnLW1hJywgJzIwMCcsICctbWV0YWxfYmluZGluZycsICctaW1hZScsICc8aW5maWxlLm1hZT4nLCAnLW9tYWUnLCAnPG91dGZpbGUubWFlPic=

> <r_lp_tautomer_probability>
1

> <r_epik_Ionization_Penalty>
0.632392

> <r_epik_Ionization_Penalty_Charging>
0.632323

> <r_epik_Ionization_Penalty_Neutral>
6.90503e-05

> <r_epik_State_Penalty>
0.649284

> <r_epik_Charging_Adjusted_Penalty>
1.28161

> <i_epik_Tot_Q>
0

> <i_epik_Tot_abs_Q>
0

> <r_epik_Metal_State_Penalty>
0.309626

> <b_epik_Metal_Only>
0

> <s_lp_Force_Field>
OPLS_2005

> <r_lp_Energy>
42.875

> <b_lp_Chiralities_Consistent>
1

> <s_lp_Variant>
AV-unprocessed.smi:1024-2

> <Gold.Version>
5.8.1

> <Gold.Id.Protein>
6NUR|6NUR_protein|mol2

> <Gold.PLP.Fitness>
46.2114

> <Gold.PLP.PLP>
-40.3433

> <Gold.PLP.part.hbond>
-2.0000

> <Gold.PLP.part.metal>
0.0000

> <Gold.PLP.part.buried>
-7.5337

> <Gold.PLP.part.nonpolar>
-32.3841

> <Gold.PLP.part.repulsive>
2.0112

> <Gold.PLP.ligand.clash>
0.0000

> <Gold.PLP.ligand.torsion>
0.4245

> <Gold.PLP.Chemscore.Hbond>
1.2287

> <Gold.PLP.Chemscore.CHOScore>
1.0000

> <Gold.PLP.Chemscore.Metal>
0.0000

> <Gold.Chemscore.Hbonds>
donor molecule, donor type, donor heavy atom, donor atom, acceptor molecule, acceptor atom, score
      P1  H  7989  7998       L1     1  0.32
      P1  H  8011  8017       L1     1  0.91
      L1  C    10    29       P1 10174  1.00

> <Gold.PLP.Chemscore.Internal.Correction>
0.0310

> <Gold.Rescore>
     Score         DG    S(hbond)    S(metal)    S(lipo)     H(rot)  DE(clash)    DE(int)     intcor
     14.98     -16.89       1.12        0.00      98.90       1.52       1.55       0.36       ----

> <Gold.Chemscore.Fitness>
14.9818

> <Gold.Chemscore.DG>
-16.8897

> <Gold.Chemscore.ZeroCoef>
-5.4800

> <Gold.Chemscore.Hbond>
1.1189

> <Gold.Chemscore.Metal>
0.0000

> <Gold.Chemscore.Lipo>
98.8952

> <Gold.Chemscore.Internal_Hbond>
0.0000

> <Gold.Chemscore.DEClash>
1.5506

> <Gold.Chemscore.DEInternal>
0.3573

> <Gold.Chemscore.Rot>
1.5227

> <Gold.Chemscore.Internal.Correction>
   9.000000E+99

> <Gold.Chemscore.Hbonds>
donor molecule, donor type, donor heavy atom, donor atom, acceptor molecule, acceptor atom, score
      P1  H  7989  7998       L1     1  0.30
      P1  H  8011  8017       L1     1  0.86

> <Gold.Chemscore.Hbond.Weighted>
-3.7370

> <Gold.Chemscore.Metal.Weighted>
-0.0000

> <Gold.Chemscore.Lipo.Weighted>
-11.5707

> <Gold.Chemscore.Internal_Hbond.Weighted>
0.0000

> <Gold.Chemscore.DEClash.Weighted>
1.5506

> <Gold.Chemscore.DEInternal.Weighted>
0.3573

> <Gold.Chemscore.Rot.Weighted>
3.8980

> <Gold.Chemscore.Internal.Correction.Weighted>
   9.000000E+99

> <Gold.Protein.RotatedTorsions>
[ 6907 6896 6895 6894 ] final   65.49 input  -60.11 | X-H torsion
[ 7974 7965 7964 7962 ] final  -89.36 input  175.53 | X-H torsion
[ 8008 7997 7996 7995 ] final  108.63 input   59.86 | X-H torsion
[ 10167 10162 10161 10158 ] final   21.73 input  -65.29 | X-H torsion
[ 10718 10713 10712 10709 ] final  -59.62 input   66.30 | X-H torsion
[ 10763 10752 10751 10750 ] final   78.12 input  -60.55 | X-H torsion
[ 11005 11000 10999 10996 ] final  131.72 input  -57.11 | X-H torsion

> <Gold.Protein.ActiveResidues>
 VAL166  LYS551  ARG553  GLY616  TRP617  ASP618  TYR619  PRO620  LYS621  CYS622 
 ASP623  PHE694  ASN695  SER759  ASP760  ASP761  ALA762  ILE779  LEU786  VAL792 
 PHE793  MET794  SER795  GLU796  ALA797  LYS798  CYS799  TRP800  GLU811  SER814 

> <Gold.Protein.RotatedAtoms>
  152.4411  134.5589  159.9888 H   0  0  0  0  0  0  0  0  0  0  0  0  # atno 6907 bound_to 6896
  151.5686  133.3387  159.2993 H   0  0  0  0  0  0  0  0  0  0  0  0  # atno 6908 bound_to 6896
  150.8317  134.7607  159.6923 H   0  0  0  0  0  0  0  0  0  0  0  0  # atno 6909 bound_to 6896
  145.4408  140.9559  143.2076 H   0  0  0  0  0  0  0  0  0  0  0  0  # atno 7974 bound_to 7965
  156.1918  140.3073  155.9347 H   0  0  0  0  0  0  0  0  0  0  0  0  # atno 8008 bound_to 7997
  155.3156  140.0453  157.3054 H   0  0  0  0  0  0  0  0  0  0  0  0  # atno 8009 bound_to 7997
  154.5461  140.2277  155.8570 H   0  0  0  0  0  0  0  0  0  0  0  0  # atno 8010 bound_to 7997
  140.5403  143.9688  150.6515 H   0  0  0  0  0  0  0  0  0  0  0  0  # atno 10167 bound_to 10162
  156.1048  130.4182  150.0741 H   0  0  0  0  0  0  0  0  0  0  0  0  # atno 10718 bound_to 10713
  153.0850  135.4889  154.8579 H   0  0  0  0  0  0  0  0  0  0  0  0  # atno 10763 bound_to 10752
  154.7199  135.3037  154.9066 H   0  0  0  0  0  0  0  0  0  0  0  0  # atno 10764 bound_to 10752
  153.9734  135.6798  153.4801 H   0  0  0  0  0  0  0  0  0  0  0  0  # atno 10765 bound_to 10752
  139.9747  134.9567  156.9478 H   0  0  0  0  0  0  0  0  0  0  0  0  # atno 11005 bound_to 11000
  144.8123  139.5940  143.7024 LP  0  0  0  0  0  0  0  0  0  0  0  0  # atno 17320 bound_to 7965
  146.2557  139.6298  142.9396 LP  0  0  0  0  0  0  0  0  0  0  0  0  # atno 17321 bound_to 7965
  140.3087  143.3212  152.0901 LP  0  0  0  0  0  0  0  0  0  0  0  0  # atno 17342 bound_to 10162
  139.4986  144.6650  151.6376 LP  0  0  0  0  0  0  0  0  0  0  0  0  # atno 17343 bound_to 10162
  156.8719  130.9527  151.3608 LP  0  0  0  0  0  0  0  0  0  0  0  0  # atno 17370 bound_to 10713
  157.6224  130.8665  149.9130 LP  0  0  0  0  0  0  0  0  0  0  0  0  # atno 17371 bound_to 10713
  140.5220  134.0898  155.7294 LP  0  0  0  0  0  0  0  0  0  0  0  0  # atno 17394 bound_to 11000
  141.1425  133.9114  157.2294 LP  0  0  0  0  0  0  0  0  0  0  0  0  # atno 17395 bound_to 11000

$$$$
