AV-unprocessed.smi:2622|AV-procd|sdf|10228|dock7
  -GOLD-   2272014233D 1   1.00000     0.00000
 Structure written by MMmdl.
 27 28  0  0  0  0  0  0  0  0  3 V2000
  151.6830  139.6096  157.4281 O   0  0  0  0  0  0  0  0  0  0  0  0
  152.3718  140.3972  158.1139 C   0  0  0  0  0  0  0  0  0  0  0  0
  153.3616  139.9959  158.7644 O   0  5  0  0  0  0  0  0  0  0  0  0
  151.9786  141.8591  158.1406 C   0  0  0  0  0  0  0  0  0  0  0  0
  152.5039  142.6879  159.1646 C   0  0  0  0  0  0  0  0  0  0  0  0
  152.1640  144.0533  159.2261 C   0  0  0  0  0  0  0  0  0  0  0  0
  151.2960  144.5830  158.2568 C   0  0  0  0  0  0  0  0  0  0  0  0
  150.8070  143.7797  157.2914 N   0  3  0  0  0  0  0  0  0  0  0  0
  151.1014  142.4591  157.1856 C   0  0  0  0  0  0  0  0  0  0  0  0
  150.5062  141.7620  156.1213 N   0  0  0  0  0  0  0  0  0  0  0  0
  149.0508  141.7340  156.1673 C   0  0  0  0  0  0  0  0  0  0  0  0
  148.5135  140.8025  155.0677 C   0  0  0  0  0  0  0  0  0  0  0  0
  149.0185  141.2189  153.8014 O   0  0  0  0  0  0  0  0  0  0  0  0
  150.4416  141.1616  153.7475 C   0  0  0  0  0  0  0  0  0  0  0  0
  151.0345  142.1046  154.8080 C   0  0  0  0  0  0  0  0  0  0  0  0
  153.1721  142.2886  159.9139 H   0  0  0  0  0  0  0  0  0  0  0  0
  152.5651  144.6826  160.0070 H   0  0  0  0  0  0  0  0  0  0  0  0
  150.9793  145.6151  158.2234 H   0  0  0  0  0  0  0  0  0  0  0  0
  148.7187  141.3891  157.1474 H   0  0  0  0  0  0  0  0  0  0  0  0
  148.6571  142.7414  156.0267 H   0  0  0  0  0  0  0  0  0  0  0  0
  148.7985  139.7672  155.2620 H   0  0  0  0  0  0  0  0  0  0  0  0
  147.4243  140.8352  155.0458 H   0  0  0  0  0  0  0  0  0  0  0  0
  150.7810  140.1364  153.9056 H   0  0  0  0  0  0  0  0  0  0  0  0
  150.7734  141.4579  152.7525 H   0  0  0  0  0  0  0  0  0  0  0  0
  150.7854  143.1386  154.5666 H   0  0  0  0  0  0  0  0  0  0  0  0
  152.1224  142.0253  154.8156 H   0  0  0  0  0  0  0  0  0  0  0  0
  150.1782  144.1880  156.5997 H   0  0  0  0  0  0  0  0  0  0  0  0
  1  2  2  0  0  0  0
  2  3  1  0  0  0  0
  2  4  1  0  0  0  0
  4  9  1  0  0  0  0
  4  5  2  0  0  0  0
  5  6  1  0  0  0  0
  5 16  1  0  0  0  0
  6  7  2  0  0  0  0
  6 17  1  0  0  0  0
  7  8  1  0  0  0  0
  7 18  1  0  0  0  0
  8  9  2  0  0  0  0
  8 27  1  0  0  0  0
  9 10  1  0  0  0  0
 10 15  1  0  0  0  0
 10 11  1  0  0  0  0
 11 12  1  0  0  0  0
 11 19  1  0  0  0  0
 11 20  1  0  0  0  0
 12 13  1  0  0  0  0
 12 21  1  0  0  0  0
 12 22  1  0  0  0  0
 13 14  1  0  0  0  0
 14 15  1  0  0  0  0
 14 23  1  0  0  0  0
 14 24  1  0  0  0  0
 15 25  1  0  0  0  0
 15 26  1  0  0  0  0
M  CHG  1   3  -1
M  CHG  1   8   1
M  END
> <s_m_source_file>
AV-unprocessed.smi

> <i_m_source_file_index>
2622

> <i_lp_mmshare_version>
43012

> <i_f3d_flags>
0

> <s_epik_input>
Tz1DKFtPSF0pYzFbY0hdW2NIXVtjSF1uYzFOMltDSDJdW0NIMl1PW0NIMl1bQ0gyXTI=

> <s_epik_cmdline>
J2VwaWtfcHl0aG9uJywgJy1waCcsICc3LjAnLCAnLXRuJywgJzgnLCAnLW1hJywgJzIwMCcsICctbWV0YWxfYmluZGluZycsICctaW1hZScsICc8aW5maWxlLm1hZT4nLCAnLW9tYWUnLCAnPG91dGZpbGUubWFlPic=

> <r_epik_Ionization_Penalty>
2.51472

> <r_epik_Ionization_Penalty_Charging>
2.51472

> <r_epik_Ionization_Penalty_Neutral>
3.20239e-12

> <r_epik_State_Penalty>
2.68069

> <r_epik_Charging_Adjusted_Penalty>
5.19542

> <i_epik_Tot_Q>
0

> <i_epik_Tot_abs_Q>
2

> <r_epik_Metal_State_Penalty>
6.76699

> <b_epik_Metal_Only>
0

> <s_lp_Force_Field>
OPLS_2005

> <r_lp_Energy>
23.1971

> <b_lp_Chiralities_Consistent>
1

> <s_lp_Variant>
AV-unprocessed.smi:2622-2

> <Gold.Version>
5.8.1

> <Gold.Id.Protein>
6NUR|6NUR_protein|mol2

> <Gold.PLP.Fitness>
39.1422

> <Gold.PLP.PLP>
-27.4483

> <Gold.PLP.part.hbond>
-2.0000

> <Gold.PLP.part.metal>
0.0000

> <Gold.PLP.part.buried>
-3.6251

> <Gold.PLP.part.nonpolar>
-21.6348

> <Gold.PLP.part.repulsive>
0.1579

> <Gold.PLP.ligand.clash>
0.0000

> <Gold.PLP.ligand.torsion>
0.2340

> <Gold.PLP.Chemscore.Hbond>
4.0000

> <Gold.PLP.Chemscore.CHOScore>
0.0000

> <Gold.PLP.Chemscore.Metal>
0.0000

> <Gold.Chemscore.Hbonds>
donor molecule, donor type, donor heavy atom, donor atom, acceptor molecule, acceptor atom, score
      L1  H     8    27       P1  8028  2.00
      P1  H  7997  8010       L1     3  1.04

> <Gold.PLP.Chemscore.Internal.Correction>
0.1618

> <Gold.Rescore>
     Score         DG    S(hbond)    S(metal)    S(lipo)     H(rot)  DE(clash)    DE(int)     intcor
     15.23     -17.04       1.86        0.00      67.53       1.00       0.20       1.61       ----

> <Gold.Chemscore.Fitness>
15.2305

> <Gold.Chemscore.DG>
-17.0428

> <Gold.Chemscore.ZeroCoef>
-5.4800

> <Gold.Chemscore.Hbond>
1.8628

> <Gold.Chemscore.Metal>
0.0000

> <Gold.Chemscore.Lipo>
67.5307

> <Gold.Chemscore.Internal_Hbond>
0.0000

> <Gold.Chemscore.DEClash>
0.1993

> <Gold.Chemscore.DEInternal>
1.6130

> <Gold.Chemscore.Rot>
1.0000

> <Gold.Chemscore.Internal.Correction>
   9.000000E+99

> <Gold.Chemscore.Hbonds>
donor molecule, donor type, donor heavy atom, donor atom, acceptor molecule, acceptor atom, score
      L1  H     8    27       P1  8028  0.99
      P1  H  7997  8010       L1     3  0.04

> <Gold.Chemscore.Hbond.Weighted>
-6.2217

> <Gold.Chemscore.Metal.Weighted>
-0.0000

> <Gold.Chemscore.Lipo.Weighted>
-7.9011

> <Gold.Chemscore.Internal_Hbond.Weighted>
0.0000

> <Gold.Chemscore.DEClash.Weighted>
0.1993

> <Gold.Chemscore.DEInternal.Weighted>
1.6130

> <Gold.Chemscore.Rot.Weighted>
2.5600

> <Gold.Chemscore.Internal.Correction.Weighted>
   9.000000E+99

> <Gold.Protein.RotatedTorsions>
[ 6907 6896 6895 6894 ] final  157.19 input  -60.11 | X-H torsion
[ 7974 7965 7964 7962 ] final  -19.88 input  175.53 | X-H torsion
[ 8008 7997 7996 7995 ] final   31.32 input   59.86 | X-H torsion
[ 10167 10162 10161 10158 ] final   61.77 input  -65.29 | X-H torsion
[ 10718 10713 10712 10709 ] final  139.50 input   66.30 | X-H torsion
[ 10763 10752 10751 10750 ] final  172.97 input  -60.55 | X-H torsion
[ 11005 11000 10999 10996 ] final   13.43 input  -57.11 | X-H torsion

> <Gold.Protein.ActiveResidues>
 VAL166  LYS551  ARG553  GLY616  TRP617  ASP618  TYR619  PRO620  LYS621  CYS622 
 ASP623  PHE694  ASN695  SER759  ASP760  ASP761  ALA762  ILE779  LEU786  VAL792 
 PHE793  MET794  SER795  GLU796  ALA797  LYS798  CYS799  TRP800  GLU811  SER814 

> <Gold.Protein.RotatedAtoms>
  152.0187  133.3890  159.4249 H   0  0  0  0  0  0  0  0  0  0  0  0  # atno 6907 bound_to 6896
  150.6892  134.3649  159.4976 H   0  0  0  0  0  0  0  0  0  0  0  0  # atno 6908 bound_to 6896
  152.1420  134.9054  160.0604 H   0  0  0  0  0  0  0  0  0  0  0  0  # atno 6909 bound_to 6896
  146.1818  140.4123  142.8491 H   0  0  0  0  0  0  0  0  0  0  0  0  # atno 7974 bound_to 7965
  155.1046  140.3233  155.4538 H   0  0  0  0  0  0  0  0  0  0  0  0  # atno 8008 bound_to 7997
  156.2707  140.2055  156.6119 H   0  0  0  0  0  0  0  0  0  0  0  0  # atno 8009 bound_to 7997
  154.6803  140.0527  157.0245 H   0  0  0  0  0  0  0  0  0  0  0  0  # atno 8010 bound_to 7997
  140.1512  144.4461  150.6758 H   0  0  0  0  0  0  0  0  0  0  0  0  # atno 10167 bound_to 10162
  157.4136  131.1031  151.0428 H   0  0  0  0  0  0  0  0  0  0  0  0  # atno 10718 bound_to 10713
  154.4335  135.2760  155.1896 H   0  0  0  0  0  0  0  0  0  0  0  0  # atno 10763 bound_to 10752
  154.3792  135.6091  153.5785 H   0  0  0  0  0  0  0  0  0  0  0  0  # atno 10764 bound_to 10752
  152.9837  135.5876  154.4650 H   0  0  0  0  0  0  0  0  0  0  0  0  # atno 10765 bound_to 10752
  140.4809  134.0937  155.7751 H   0  0  0  0  0  0  0  0  0  0  0  0  # atno 11005 bound_to 11000
  144.8328  140.6734  143.6280 LP  0  0  0  0  0  0  0  0  0  0  0  0  # atno 17320 bound_to 7965
  145.4054  139.1590  143.4155 LP  0  0  0  0  0  0  0  0  0  0  0  0  # atno 17321 bound_to 7965
  140.6701  143.2282  151.5645 LP  0  0  0  0  0  0  0  0  0  0  0  0  # atno 17342 bound_to 10162
  139.5425  144.2609  152.1379 LP  0  0  0  0  0  0  0  0  0  0  0  0  # atno 17343 bound_to 10162
  157.1383  130.6132  149.5548 LP  0  0  0  0  0  0  0  0  0  0  0  0  # atno 17370 bound_to 10713
  155.9858  130.4890  150.7050 LP  0  0  0  0  0  0  0  0  0  0  0  0  # atno 17371 bound_to 10713
  141.1532  133.8931  157.2045 LP  0  0  0  0  0  0  0  0  0  0  0  0  # atno 17394 bound_to 11000
  139.9827  135.0092  156.9789 LP  0  0  0  0  0  0  0  0  0  0  0  0  # atno 17395 bound_to 11000

$$$$
