AV-unprocessed.smi:1197|AV-procd|sdf|5009|dock6
  -GOLD-   22720 4 23D 1   1.00000     0.00000
 Structure written by MMmdl.
 41 42  0  0  0  0  0  0  0  0  2 V2000
  150.4534  142.4969  157.4423 C   0  0  0  0  0  0  0  0  0  0  0  0
  151.0109  141.9226  156.2654 O   0  0  0  0  0  0  0  0  0  0  0  0
  150.2707  140.9795  155.5826 C   0  0  0  0  0  0  0  0  0  0  0  0
  148.8649  141.0607  155.6324 C   0  0  0  0  0  0  0  0  0  0  0  0
  148.1018  140.1019  154.9391 C   0  0  0  0  0  0  0  0  0  0  0  0
  148.7723  139.0832  154.2211 C   0  0  0  0  0  0  0  0  0  0  0  0
  148.1148  138.0746  153.4663 N   0  0  0  0  0  0  0  0  0  0  0  0
  146.7954  137.9066  153.2735 C   0  0  0  0  0  0  0  0  0  0  0  0
  145.9113  138.6028  153.7719 O   0  0  0  0  0  0  0  0  0  0  0  0
  146.5519  136.8571  152.4752 N   0  0  0  0  0  0  0  0  0  0  0  0
  145.2296  136.3866  152.0758 C   0  0  0  0  0  0  0  0  0  0  0  0
  145.2181  136.0150  150.5840 C   0  0  0  0  0  0  0  0  0  0  0  0
  145.3089  134.5487  150.3694 N   0  3  0  0  0  0  0  0  0  0  0  0
  146.4411  133.9350  151.1036 C   0  0  0  0  0  0  0  0  0  0  0  0
  146.5233  132.4279  150.8056 C   0  0  0  0  0  0  0  0  0  0  0  0
  145.2904  131.8055  151.1440 O   0  0  0  0  0  0  0  0  0  0  0  0
  144.2057  132.3246  150.3849 C   0  0  0  0  0  0  0  0  0  0  0  0
  144.0475  133.8273  150.6714 C   0  0  0  0  0  0  0  0  0  0  0  0
  150.1824  139.0994  154.2214 C   0  0  0  0  0  0  0  0  0  0  0  0
  150.9198  140.0144  154.8852 N   0  0  0  0  0  0  0  0  0  0  0  0
  151.1610  143.2096  157.8654 H   0  0  0  0  0  0  0  0  0  0  0  0
  150.2541  141.7391  158.2012 H   0  0  0  0  0  0  0  0  0  0  0  0
  149.5310  143.0370  157.2236 H   0  0  0  0  0  0  0  0  0  0  0  0
  148.3792  141.8488  156.1887 H   0  0  0  0  0  0  0  0  0  0  0  0
  147.0255  140.1761  154.9593 H   0  0  0  0  0  0  0  0  0  0  0  0
  148.7182  137.3689  153.0698 H   0  0  0  0  0  0  0  0  0  0  0  0
  147.3440  136.3458  152.1141 H   0  0  0  0  0  0  0  0  0  0  0  0
  144.9216  135.5348  152.6823 H   0  0  0  0  0  0  0  0  0  0  0  0
  144.5102  137.1829  152.2690 H   0  0  0  0  0  0  0  0  0  0  0  0
  144.2868  136.3834  150.1508 H   0  0  0  0  0  0  0  0  0  0  0  0
  146.0261  136.5183  150.0502 H   0  0  0  0  0  0  0  0  0  0  0  0
  147.3760  134.4153  150.8129 H   0  0  0  0  0  0  0  0  0  0  0  0
  146.3152  134.0986  152.1751 H   0  0  0  0  0  0  0  0  0  0  0  0
  146.7591  132.2497  149.7553 H   0  0  0  0  0  0  0  0  0  0  0  0
  147.3212  131.9720  151.3923 H   0  0  0  0  0  0  0  0  0  0  0  0
  144.3699  132.1458  149.3211 H   0  0  0  0  0  0  0  0  0  0  0  0
  143.2951  131.7922  150.6602 H   0  0  0  0  0  0  0  0  0  0  0  0
  143.7804  133.9781  151.7186 H   0  0  0  0  0  0  0  0  0  0  0  0
  143.2265  134.2218  150.0739 H   0  0  0  0  0  0  0  0  0  0  0  0
  150.7389  138.3518  153.6752 H   0  0  0  0  0  0  0  0  0  0  0  0
  145.5025  134.4111  149.3875 H   0  0  0  0  0  0  0  0  0  0  0  0
  1  2  1  0  0  0  0
  1 21  1  0  0  0  0
  1 22  1  0  0  0  0
  1 23  1  0  0  0  0
  2  3  1  0  0  0  0
  3 20  1  0  0  0  0
  3  4  2  0  0  0  0
  4  5  1  0  0  0  0
  4 24  1  0  0  0  0
  5  6  2  0  0  0  0
  5 25  1  0  0  0  0
  6  7  1  0  0  0  0
  6 19  1  0  0  0  0
  7  8  1  0  0  0  0
  7 26  1  0  0  0  0
  8  9  2  0  0  0  0
  8 10  1  0  0  0  0
 10 11  1  0  0  0  0
 10 27  1  0  0  0  0
 11 12  1  0  0  0  0
 11 28  1  0  0  0  0
 11 29  1  0  0  0  0
 12 13  1  0  0  0  0
 12 30  1  0  0  0  0
 12 31  1  0  0  0  0
 13 18  1  0  0  0  0
 13 14  1  0  0  0  0
 13 41  1  0  0  0  0
 14 15  1  0  0  0  0
 14 32  1  0  0  0  0
 14 33  1  0  0  0  0
 15 16  1  0  0  0  0
 15 34  1  0  0  0  0
 15 35  1  0  0  0  0
 16 17  1  0  0  0  0
 17 18  1  0  0  0  0
 17 36  1  0  0  0  0
 17 37  1  0  0  0  0
 18 38  1  0  0  0  0
 18 39  1  0  0  0  0
 19 20  2  0  0  0  0
 19 40  1  0  0  0  0
M  CHG  1  13   1
M  END
> <s_m_source_file>
AV-unprocessed.smi

> <i_m_source_file_index>
1197

> <i_lp_mmshare_version>
43012

> <i_f3d_flags>
0

> <s_epik_input>
W0NIM11PYzFbY0hdW2NIXWMoW2NIXW4xKVtOSF1DKD1PKVtOSF1bQ0gyXVtDSDJdTjJbQ0gyXVtDSDJdT1tDSDJdW0NIMl0y

> <s_epik_cmdline>
J2VwaWtfcHl0aG9uJywgJy1waCcsICc3LjAnLCAnLXRuJywgJzgnLCAnLW1hJywgJzIwMCcsICctbWV0YWxfYmluZGluZycsICctaW1hZScsICc8aW5maWxlLm1hZT4nLCAnLW9tYWUnLCAnPG91dGZpbGUubWFlPic=

> <r_lp_tautomer_probability>
1

> <r_epik_Ionization_Penalty>
0.602607

> <r_epik_Ionization_Penalty_Charging>
0.602531

> <r_epik_Ionization_Penalty_Neutral>
7.65795e-05

> <r_epik_State_Penalty>
0.617039

> <r_epik_Charging_Adjusted_Penalty>
1.21957

> <i_epik_Tot_Q>
1

> <i_epik_Tot_abs_Q>
1

> <r_epik_Metal_State_Penalty>
0.617043

> <b_epik_Metal_Only>
0

> <s_lp_Force_Field>
OPLS_2005

> <r_lp_Energy>
19.492

> <b_lp_Chiralities_Consistent>
1

> <s_lp_Variant>
AV-unprocessed.smi:1197-2

> <Gold.Version>
5.8.1

> <Gold.Id.Protein>
6NUR|6NUR_protein|mol2

> <Gold.PLP.Fitness>
40.2997

> <Gold.PLP.PLP>
-30.1025

> <Gold.PLP.part.hbond>
-4.0000

> <Gold.PLP.part.metal>
0.0000

> <Gold.PLP.part.buried>
-1.2149

> <Gold.PLP.part.nonpolar>
-25.5766

> <Gold.PLP.part.repulsive>
0.5277

> <Gold.PLP.ligand.clash>
0.0000

> <Gold.PLP.ligand.torsion>
0.8584

> <Gold.PLP.Chemscore.Hbond>
3.9600

> <Gold.PLP.Chemscore.CHOScore>
0.0000

> <Gold.PLP.Chemscore.Metal>
0.0000

> <Gold.Chemscore.Hbonds>
donor molecule, donor type, donor heavy atom, donor atom, acceptor molecule, acceptor atom, score
      L1  H     7    26       P1  7948  0.96
      L1  H    10    27       P1  7948  1.00
      L1  H    13    41       P1  7921  1.00
      P1  H  7989  7998       L1    20  0.95

> <Gold.PLP.Chemscore.Internal.Correction>
0.0341

> <Gold.Rescore>
     Score         DG    S(hbond)    S(metal)    S(lipo)     H(rot)  DE(clash)    DE(int)     intcor
     16.67     -19.53       3.12        0.00      70.93       1.83       0.68       2.18       ----

> <Gold.Chemscore.Fitness>
16.6665

> <Gold.Chemscore.DG>
-19.5310

> <Gold.Chemscore.ZeroCoef>
-5.4800

> <Gold.Chemscore.Hbond>
3.1218

> <Gold.Chemscore.Metal>
0.0000

> <Gold.Chemscore.Lipo>
70.9295

> <Gold.Chemscore.Internal_Hbond>
0.0000

> <Gold.Chemscore.DEClash>
0.6847

> <Gold.Chemscore.DEInternal>
2.1798

> <Gold.Chemscore.Rot>
1.8260

> <Gold.Chemscore.Internal.Correction>
   9.000000E+99

> <Gold.Chemscore.Hbonds>
donor molecule, donor type, donor heavy atom, donor atom, acceptor molecule, acceptor atom, score
      L1  H     7    26       P1  7948  0.92
      L1  H    10    27       P1  7948  0.95
      L1  H    13    41       P1  7921  0.92
      P1  H  7989  7998       L1    20  0.11

> <Gold.Chemscore.Hbond.Weighted>
-10.4267

> <Gold.Chemscore.Metal.Weighted>
-0.0000

> <Gold.Chemscore.Lipo.Weighted>
-8.2987

> <Gold.Chemscore.Internal_Hbond.Weighted>
0.0000

> <Gold.Chemscore.DEClash.Weighted>
0.6847

> <Gold.Chemscore.DEInternal.Weighted>
2.1798

> <Gold.Chemscore.Rot.Weighted>
4.6744

> <Gold.Chemscore.Internal.Correction.Weighted>
   9.000000E+99

> <Gold.Protein.RotatedTorsions>
[ 6907 6896 6895 6894 ] final  101.60 input  -60.11 | X-H torsion
[ 7974 7965 7964 7962 ] final   36.76 input  175.53 | X-H torsion
[ 8008 7997 7996 7995 ] final   78.31 input   59.86 | X-H torsion
[ 10167 10162 10161 10158 ] final -122.51 input  -65.29 | X-H torsion
[ 10718 10713 10712 10709 ] final  -87.47 input   66.30 | X-H torsion
[ 10763 10752 10751 10750 ] final  -19.19 input  -60.55 | X-H torsion
[ 11005 11000 10999 10996 ] final -162.83 input  -57.11 | X-H torsion

> <Gold.Protein.ActiveResidues>
 VAL166  LYS551  ARG553  GLY616  TRP617  ASP618  TYR619  PRO620  LYS621  CYS622 
 ASP623  PHE694  ASN695  SER759  ASP760  ASP761  ALA762  ILE779  LEU786  VAL792 
 PHE793  MET794  SER795  GLU796  ALA797  LYS798  CYS799  TRP800  GLU811  SER814 

> <Gold.Protein.RotatedAtoms>
  152.5345  134.0102  159.7934 H   0  0  0  0  0  0  0  0  0  0  0  0  # atno 6907 bound_to 6896
  151.0306  133.5786  159.2668 H   0  0  0  0  0  0  0  0  0  0  0  0  # atno 6908 bound_to 6896
  151.2792  135.0716  159.9216 H   0  0  0  0  0  0  0  0  0  0  0  0  # atno 6909 bound_to 6896
  146.1187  139.5977  142.9304 H   0  0  0  0  0  0  0  0  0  0  0  0  # atno 7974 bound_to 7965
  155.8539  140.3457  155.5711 H   0  0  0  0  0  0  0  0  0  0  0  0  # atno 8008 bound_to 7997
  155.8008  140.0885  157.1978 H   0  0  0  0  0  0  0  0  0  0  0  0  # atno 8009 bound_to 7997
  154.4009  140.1466  156.3259 H   0  0  0  0  0  0  0  0  0  0  0  0  # atno 8010 bound_to 7997
  140.0134  143.5418  152.2253 H   0  0  0  0  0  0  0  0  0  0  0  0  # atno 10167 bound_to 10162
  155.9985  130.4801  150.4872 H   0  0  0  0  0  0  0  0  0  0  0  0  # atno 10718 bound_to 10713
  153.6010  135.6999  153.5384 H   0  0  0  0  0  0  0  0  0  0  0  0  # atno 10763 bound_to 10752
  153.3097  135.4105  155.1325 H   0  0  0  0  0  0  0  0  0  0  0  0  # atno 10764 bound_to 10752
  154.8582  135.3669  154.5545 H   0  0  0  0  0  0  0  0  0  0  0  0  # atno 10765 bound_to 10752
  140.6049  134.4909  157.5209 H   0  0  0  0  0  0  0  0  0  0  0  0  # atno 11005 bound_to 11000
  145.5511  141.0413  143.2278 LP  0  0  0  0  0  0  0  0  0  0  0  0  # atno 17320 bound_to 7965
  144.7577  139.7033  143.7247 LP  0  0  0  0  0  0  0  0  0  0  0  0  # atno 17321 bound_to 7965
  139.6189  144.7625  151.2784 LP  0  0  0  0  0  0  0  0  0  0  0  0  # atno 17342 bound_to 10162
  140.7372  143.6685  150.8102 LP  0  0  0  0  0  0  0  0  0  0  0  0  # atno 17343 bound_to 10162
  157.2871  131.0619  151.2158 LP  0  0  0  0  0  0  0  0  0  0  0  0  # atno 17370 bound_to 10713
  157.3184  130.6925  149.6255 LP  0  0  0  0  0  0  0  0  0  0  0  0  # atno 17371 bound_to 10713
  139.9217  134.8136  156.1192 LP  0  0  0  0  0  0  0  0  0  0  0  0  # atno 17394 bound_to 11000
  141.0847  133.6739  156.2412 LP  0  0  0  0  0  0  0  0  0  0  0  0  # atno 17395 bound_to 11000

$$$$
