AV-unprocessed.smi:1893|AV-procd|sdf|7674|dock6
  -GOLD-   22720 9413D 1   1.00000     0.00000
 Structure written by MMmdl.
 43 44  0  0  0  0  0  0  0  0  2 V2000
  153.0460  142.0367  160.9947 C   0  0  0  0  0  0  0  0  0  0  0  0
  152.1196  142.7630  159.9994 C   0  0  1  0  0  0  0  0  0  0  0  0
  152.7601  144.1133  159.6087 C   0  0  0  0  0  0  0  0  0  0  0  0
  151.9025  144.8866  158.6027 C   0  0  0  0  0  0  0  0  0  0  0  0
  151.6411  144.0105  157.3762 C   0  0  0  0  0  0  0  0  0  0  0  0
  150.9912  142.6840  157.7925 C   0  0  0  0  0  0  0  0  0  0  0  0
  151.8215  141.9431  158.7817 N   0  3  2  0  0  0  0  0  0  0  0  0
  151.2456  140.6011  159.0713 C   0  0  0  0  0  0  0  0  0  0  0  0
  152.1183  139.4736  158.4894 C   0  0  0  0  0  0  0  0  0  0  0  0
  151.5157  138.9011  157.2921 N   0  0  0  0  0  0  0  0  0  0  0  0
  152.1720  138.6417  156.1498 C   0  0  0  0  0  0  0  0  0  0  0  0
  153.3803  138.8385  156.0141 O   0  0  0  0  0  0  0  0  0  0  0  0
  151.3275  138.0895  154.9900 C   0  0  2  0  0  0  0  0  0  0  0  0
  152.1816  137.6396  153.7871 C   0  0  0  0  0  0  0  0  0  0  0  0
  150.3081  139.0577  154.6045 N   0  0  0  0  0  0  0  0  0  0  0  0
  149.1163  138.8682  154.0341 C   0  0  0  0  0  0  0  0  0  0  0  0
  148.4171  139.9815  153.8647 N   0  0  0  0  0  0  0  0  0  0  0  0
  149.2949  140.8851  154.3928 C   0  0  0  0  0  0  0  0  0  0  0  0
  150.4370  140.3834  154.8622 N   0  0  0  0  0  0  0  0  0  0  0  0
  153.2843  142.6802  161.8421 H   0  0  0  0  0  0  0  0  0  0  0  0
  153.9885  141.7534  160.5249 H   0  0  0  0  0  0  0  0  0  0  0  0
  152.5905  141.1370  161.4072 H   0  0  0  0  0  0  0  0  0  0  0  0
  151.1735  142.9676  160.5034 H   0  0  0  0  0  0  0  0  0  0  0  0
  152.9124  144.7264  160.4978 H   0  0  0  0  0  0  0  0  0  0  0  0
  153.7496  143.9425  159.1819 H   0  0  0  0  0  0  0  0  0  0  0  0
  150.9569  145.1758  159.0634 H   0  0  0  0  0  0  0  0  0  0  0  0
  152.4043  145.8089  158.3084 H   0  0  0  0  0  0  0  0  0  0  0  0
  150.9957  144.5376  156.6729 H   0  0  0  0  0  0  0  0  0  0  0  0
  152.5780  143.8151  156.8525 H   0  0  0  0  0  0  0  0  0  0  0  0
  150.0014  142.8684  158.2136 H   0  0  0  0  0  0  0  0  0  0  0  0
  150.8485  142.0688  156.9028 H   0  0  0  0  0  0  0  0  0  0  0  0
  151.0953  140.4658  160.1434 H   0  0  0  0  0  0  0  0  0  0  0  0
  150.2483  140.5200  158.6362 H   0  0  0  0  0  0  0  0  0  0  0  0
  153.1194  139.8444  158.2621 H   0  0  0  0  0  0  0  0  0  0  0  0
  152.2469  138.6695  159.2127 H   0  0  0  0  0  0  0  0  0  0  0  0
  150.5254  138.7066  157.3255 H   0  0  0  0  0  0  0  0  0  0  0  0
  150.8062  137.2063  155.3635 H   0  0  0  0  0  0  0  0  0  0  0  0
  152.9056  136.8788  154.0810 H   0  0  0  0  0  0  0  0  0  0  0  0
  152.7350  138.4681  153.3433 H   0  0  0  0  0  0  0  0  0  0  0  0
  151.5548  137.2076  153.0067 H   0  0  0  0  0  0  0  0  0  0  0  0
  148.7496  137.8951  153.7414 H   0  0  0  0  0  0  0  0  0  0  0  0
  149.0825  141.9432  154.4404 H   0  0  0  0  0  0  0  0  0  0  0  0
  152.7065  141.7764  158.3242 H   0  0  0  0  0  0  0  0  0  0  0  0
  1  2  1  0  0  0  0
  1 20  1  0  0  0  0
  1 21  1  0  0  0  0
  1 22  1  0  0  0  0
  2  7  1  0  0  0  0
  2  3  1  0  0  0  0
  2 23  1  0  0  0  0
  3  4  1  0  0  0  0
  3 24  1  0  0  0  0
  3 25  1  0  0  0  0
  4  5  1  0  0  0  0
  4 26  1  0  0  0  0
  4 27  1  0  0  0  0
  5  6  1  0  0  0  0
  5 28  1  0  0  0  0
  5 29  1  0  0  0  0
  6  7  1  0  0  0  0
  6 30  1  0  0  0  0
  6 31  1  0  0  0  0
  7  8  1  0  0  0  0
  7 43  1  0  0  0  0
  8  9  1  0  0  0  0
  8 32  1  0  0  0  0
  8 33  1  0  0  0  0
  9 10  1  0  0  0  0
  9 34  1  0  0  0  0
  9 35  1  0  0  0  0
 10 11  1  0  0  0  0
 10 36  1  0  0  0  0
 11 12  2  0  0  0  0
 11 13  1  0  0  0  0
 13 14  1  0  0  0  0
 13 15  1  0  0  0  0
 13 37  1  0  0  0  0
 14 38  1  0  0  0  0
 14 39  1  0  0  0  0
 14 40  1  0  0  0  0
 15 19  1  0  0  0  0
 15 16  1  0  0  0  0
 16 17  2  0  0  0  0
 16 41  1  0  0  0  0
 17 18  1  0  0  0  0
 18 19  2  0  0  0  0
 18 42  1  0  0  0  0
M  CHG  1   7   1
M  END
> <s_m_source_file>
AV-unprocessed.smi

> <i_m_source_file_index>
1893

> <i_lp_mmshare_version>
43012

> <i_f3d_flags>
0

> <s_epik_input>
W0NIM11bQ0BASF0xW0NIMl1bQ0gyXVtDSDJdW0NIMl1OMVtDSDJdW0NIMl1bTkhdQyg9TylbQ0BIXShbQ0gzXSluMltjSF1uW2NIXW4y

> <s_epik_cmdline>
J2VwaWtfcHl0aG9uJywgJy1waCcsICc3LjAnLCAnLXRuJywgJzgnLCAnLW1hJywgJzIwMCcsICctbWV0YWxfYmluZGluZycsICctaW1hZScsICc8aW5maWxlLm1hZT4nLCAnLW9tYWUnLCAnPG91dGZpbGUubWFlPic=

> <r_lp_tautomer_probability>
1

> <r_epik_Ionization_Penalty>
0.00266409

> <r_epik_Ionization_Penalty_Charging>
0.00265606

> <r_epik_Ionization_Penalty_Neutral>
8.02794e-06

> <r_epik_State_Penalty>
0.00184955

> <r_epik_Charging_Adjusted_Penalty>
0.00450561

> <i_epik_Tot_Q>
1

> <i_epik_Tot_abs_Q>
1

> <r_epik_Metal_State_Penalty>
-0

> <b_epik_Metal_Only>
0

> <s_lp_Force_Field>
OPLS_2005

> <r_lp_Energy>
24.4169

> <b_lp_Chiralities_Consistent>
1

> <s_lp_Variant>
AV-unprocessed.smi:1893-4

> <Gold.Version>
5.8.1

> <Gold.Id.Protein>
6NUR|6NUR_protein|mol2

> <Gold.PLP.Fitness>
43.4836

> <Gold.PLP.PLP>
-38.0644

> <Gold.PLP.part.hbond>
-1.9614

> <Gold.PLP.part.metal>
0.0000

> <Gold.PLP.part.buried>
-2.6117

> <Gold.PLP.part.nonpolar>
-34.5566

> <Gold.PLP.part.repulsive>
0.7497

> <Gold.PLP.ligand.clash>
0.0000

> <Gold.PLP.ligand.torsion>
1.7920

> <Gold.PLP.Chemscore.Hbond>
1.9920

> <Gold.PLP.Chemscore.CHOScore>
0.9605

> <Gold.PLP.Chemscore.Metal>
0.0000

> <Gold.Chemscore.Hbonds>
donor molecule, donor type, donor heavy atom, donor atom, acceptor molecule, acceptor atom, score
      P1  H  7989  7998       L1    19  1.00
      P1  H  7997  8009       L1    12  0.99
      L1  C    16    41       P1  7948  1.00

> <Gold.PLP.Chemscore.Internal.Correction>
0.1458

> <Gold.Rescore>
     Score         DG    S(hbond)    S(metal)    S(lipo)     H(rot)  DE(clash)    DE(int)     intcor
     15.16     -16.90       1.93        0.00      98.00       2.54       0.51       1.23       ----

> <Gold.Chemscore.Fitness>
15.1599

> <Gold.Chemscore.DG>
-16.8994

> <Gold.Chemscore.ZeroCoef>
-5.4800

> <Gold.Chemscore.Hbond>
1.9311

> <Gold.Chemscore.Metal>
0.0000

> <Gold.Chemscore.Lipo>
97.9998

> <Gold.Chemscore.Internal_Hbond>
0.0000

> <Gold.Chemscore.DEClash>
0.5080

> <Gold.Chemscore.DEInternal>
1.2316

> <Gold.Chemscore.Rot>
2.5377

> <Gold.Chemscore.Internal.Correction>
   9.000000E+99

> <Gold.Chemscore.Hbonds>
donor molecule, donor type, donor heavy atom, donor atom, acceptor molecule, acceptor atom, score
      P1  H  7989  7998       L1    19  0.09
      P1  H  7997  8009       L1    12  0.93

> <Gold.Chemscore.Hbond.Weighted>
-6.4500

> <Gold.Chemscore.Metal.Weighted>
-0.0000

> <Gold.Chemscore.Lipo.Weighted>
-11.4660

> <Gold.Chemscore.Internal_Hbond.Weighted>
0.0000

> <Gold.Chemscore.DEClash.Weighted>
0.5080

> <Gold.Chemscore.DEInternal.Weighted>
1.2316

> <Gold.Chemscore.Rot.Weighted>
6.4966

> <Gold.Chemscore.Internal.Correction.Weighted>
   9.000000E+99

> <Gold.Protein.RotatedTorsions>
[ 6907 6896 6895 6894 ] final  -50.61 input  -60.11 | X-H torsion
[ 7974 7965 7964 7962 ] final  117.04 input  175.53 | X-H torsion
[ 8008 7997 7996 7995 ] final -163.06 input   59.86 | X-H torsion
[ 10167 10162 10161 10158 ] final   14.33 input  -65.29 | X-H torsion
[ 10718 10713 10712 10709 ] final   78.20 input   66.30 | X-H torsion
[ 10763 10752 10751 10750 ] final  -76.60 input  -60.55 | X-H torsion
[ 11005 11000 10999 10996 ] final -120.19 input  -57.11 | X-H torsion

> <Gold.Protein.ActiveResidues>
 VAL166  LYS551  ARG553  GLY616  TRP617  ASP618  TYR619  PRO620  LYS621  CYS622 
 ASP623  PHE694  ASN695  SER759  ASP760  ASP761  ALA762  ILE779  LEU786  VAL792 
 PHE793  MET794  SER795  GLU796  ALA797  LYS798  CYS799  TRP800  GLU811  SER814 

> <Gold.Protein.RotatedAtoms>
  150.8690  134.8060  159.7140 H   0  0  0  0  0  0  0  0  0  0  0  0  # atno 6907 bound_to 6896
  152.4701  134.4977  159.9725 H   0  0  0  0  0  0  0  0  0  0  0  0  # atno 6908 bound_to 6896
  151.5068  133.3454  159.2914 H   0  0  0  0  0  0  0  0  0  0  0  0  # atno 6909 bound_to 6896
  145.1723  139.3095  143.4461 H   0  0  0  0  0  0  0  0  0  0  0  0  # atno 7974 bound_to 7965
  155.8159  140.0912  157.1877 H   0  0  0  0  0  0  0  0  0  0  0  0  # atno 8008 bound_to 7997
  154.3979  140.1446  156.3502 H   0  0  0  0  0  0  0  0  0  0  0  0  # atno 8009 bound_to 7997
  155.8317  140.3442  155.5579 H   0  0  0  0  0  0  0  0  0  0  0  0  # atno 8010 bound_to 7997
  140.5943  143.8733  150.6903 H   0  0  0  0  0  0  0  0  0  0  0  0  # atno 10167 bound_to 10162
  157.6737  130.9857  150.1752 H   0  0  0  0  0  0  0  0  0  0  0  0  # atno 10718 bound_to 10713
  154.5019  135.5792  153.6538 H   0  0  0  0  0  0  0  0  0  0  0  0  # atno 10763 bound_to 10752
  152.9880  135.6138  154.2991 H   0  0  0  0  0  0  0  0  0  0  0  0  # atno 10764 bound_to 10752
  154.2899  135.2849  155.2639 H   0  0  0  0  0  0  0  0  0  0  0  0  # atno 10765 bound_to 10752
  141.0161  134.0193  157.3347 H   0  0  0  0  0  0  0  0  0  0  0  0  # atno 11005 bound_to 11000
  146.3466  140.1873  142.8589 LP  0  0  0  0  0  0  0  0  0  0  0  0  # atno 17320 bound_to 7965
  145.0220  140.8801  143.5161 LP  0  0  0  0  0  0  0  0  0  0  0  0  # atno 17321 bound_to 7965
  140.2264  143.3769  152.1601 LP  0  0  0  0  0  0  0  0  0  0  0  0  # atno 17342 bound_to 10162
  139.5248  144.7088  151.5272 LP  0  0  0  0  0  0  0  0  0  0  0  0  # atno 17343 bound_to 10162
  156.2497  130.3699  149.8246 LP  0  0  0  0  0  0  0  0  0  0  0  0  # atno 17370 bound_to 10713
  156.6022  130.8551  151.3434 LP  0  0  0  0  0  0  0  0  0  0  0  0  # atno 17371 bound_to 10713
  139.9118  135.0191  156.7722 LP  0  0  0  0  0  0  0  0  0  0  0  0  # atno 17394 bound_to 11000
  140.6652  133.9609  155.7826 LP  0  0  0  0  0  0  0  0  0  0  0  0  # atno 17395 bound_to 11000

$$$$
