AV-unprocessed.smi:2562|AV-procd|sdf|10051|dock1
  -GOLD-   2272014 93D 1   1.00000     0.00000
 Structure written by MMmdl.
 31 32  0  0  0  0  0  0  0  0  2 V2000
  152.3159  144.5724  159.9026 C   0  0  0  0  0  0  0  0  0  0  0  0
  152.4117  143.5324  158.7809 C   0  0  0  0  0  0  0  0  0  0  0  0
  151.4259  143.8082  157.6365 C   0  0  0  0  0  0  0  0  0  0  0  0
  151.0858  142.5768  156.8627 C   0  0  0  0  0  0  0  0  0  0  0  0
  151.6574  141.3812  157.0349 N   0  0  0  0  0  0  0  0  0  0  0  0
  151.0581  140.5483  156.1050 N   0  0  0  0  0  0  0  0  0  0  0  0
  150.1869  141.3169  155.4445 C   0  0  0  0  0  0  0  0  0  0  0  0
  149.2890  140.8277  154.3505 C   0  0  1  0  0  0  0  0  0  0  0  0
  149.4790  139.3262  154.0625 C   0  0  0  0  0  0  0  0  0  0  0  0
  148.5158  138.8842  153.0355 N   0  3  0  0  0  0  0  0  0  0  0  0
  147.1278  139.2105  153.4193 C   0  0  0  0  0  0  0  0  0  0  0  0
  147.0048  140.7106  153.7397 C   0  0  0  0  0  0  0  0  0  0  0  0
  147.9407  141.0641  154.7532 O   0  0  0  0  0  0  0  0  0  0  0  0
  150.1666  142.5839  155.8872 N   0  0  0  0  0  0  0  0  0  0  0  0
  149.6029  143.3554  155.5607 H   0  0  0  0  0  0  0  0  0  0  0  0
  153.0266  144.3507  160.6992 H   0  0  0  0  0  0  0  0  0  0  0  0
  151.3180  144.5873  160.3416 H   0  0  0  0  0  0  0  0  0  0  0  0
  152.5347  145.5738  159.5309 H   0  0  0  0  0  0  0  0  0  0  0  0
  153.4304  143.5191  158.3914 H   0  0  0  0  0  0  0  0  0  0  0  0
  152.2256  142.5400  159.1933 H   0  0  0  0  0  0  0  0  0  0  0  0
  150.5038  144.2353  158.0326 H   0  0  0  0  0  0  0  0  0  0  0  0
  151.8425  144.5499  156.9537 H   0  0  0  0  0  0  0  0  0  0  0  0
  149.5031  141.4114  153.4531 H   0  0  0  0  0  0  0  0  0  0  0  0
  150.4931  139.1240  153.7162 H   0  0  0  0  0  0  0  0  0  0  0  0
  149.3256  138.7411  154.9706 H   0  0  0  0  0  0  0  0  0  0  0  0
  148.7309  139.3537  152.1672 H   0  0  0  0  0  0  0  0  0  0  0  0
  146.4533  138.9338  152.6089 H   0  0  0  0  0  0  0  0  0  0  0  0
  146.8473  138.6156  154.2897 H   0  0  0  0  0  0  0  0  0  0  0  0
  147.1730  141.3151  152.8470 H   0  0  0  0  0  0  0  0  0  0  0  0
  145.9988  140.9387  154.0927 H   0  0  0  0  0  0  0  0  0  0  0  0
  148.6026  137.8867  152.9001 H   0  0  0  0  0  0  0  0  0  0  0  0
  1  2  1  0  0  0  0
  1 16  1  0  0  0  0
  1 17  1  0  0  0  0
  1 18  1  0  0  0  0
  2  3  1  0  0  0  0
  2 19  1  0  0  0  0
  2 20  1  0  0  0  0
  3 21  1  0  0  0  0
  3 22  1  0  0  0  0
  3  4  1  0  0  0  0
  4  5  2  0  0  0  0
  4 14  1  0  0  0  0
  5  6  1  0  0  0  0
  6  7  2  0  0  0  0
  7 14  1  0  0  0  0
  7  8  1  0  0  0  0
  8 13  1  0  0  0  0
  8  9  1  0  0  0  0
  8 23  1  0  0  0  0
  9 10  1  0  0  0  0
  9 24  1  0  0  0  0
  9 25  1  0  0  0  0
 10 11  1  0  0  0  0
 10 26  1  0  0  0  0
 10 31  1  0  0  0  0
 11 12  1  0  0  0  0
 11 27  1  0  0  0  0
 11 28  1  0  0  0  0
 12 13  1  0  0  0  0
 12 29  1  0  0  0  0
 12 30  1  0  0  0  0
 14 15  1  0  0  0  0
M  CHG  1  10   1
M  END
> <s_m_source_file>
AV-unprocessed.smi

> <i_m_source_file_index>
2562

> <i_lp_mmshare_version>
43012

> <i_f3d_flags>
0

> <s_epik_input>
W0NIM11bQ0gyXVtDSDJdYzFuW25IXWMobjEpW0NAQEhdMltDSDJdW05IXVtDSDJdW0NIMl1PMg==

> <s_epik_cmdline>
J2VwaWtfcHl0aG9uJywgJy1waCcsICc3LjAnLCAnLXRuJywgJzgnLCAnLW1hJywgJzIwMCcsICctbWV0YWxfYmluZGluZycsICctaW1hZScsICc8aW5maWxlLm1hZT4nLCAnLW9tYWUnLCAnPG91dGZpbGUubWFlPic=

> <r_lp_tautomer_probability>
0.0517155

> <r_epik_Ionization_Penalty>
0.274244

> <r_epik_Ionization_Penalty_Charging>
0.125708

> <r_epik_Ionization_Penalty_Neutral>
0.148536

> <r_epik_State_Penalty>
1.9659

> <r_epik_Charging_Adjusted_Penalty>
2.09161

> <i_epik_Tot_Q>
1

> <i_epik_Tot_abs_Q>
1

> <r_epik_Metal_State_Penalty>
2.08836

> <b_epik_Metal_Only>
0

> <s_lp_Force_Field>
OPLS_2005

> <r_lp_Energy>
12.559

> <b_lp_Chiralities_Consistent>
1

> <s_lp_Variant>
AV-unprocessed.smi:2562-10

> <Gold.Version>
5.8.1

> <Gold.Id.Protein>
6NUR|6NUR_protein|mol2

> <Gold.PLP.Fitness>
41.6107

> <Gold.PLP.PLP>
-29.9923

> <Gold.PLP.part.hbond>
-2.8553

> <Gold.PLP.part.metal>
0.0000

> <Gold.PLP.part.buried>
-2.6635

> <Gold.PLP.part.nonpolar>
-25.3311

> <Gold.PLP.part.repulsive>
0.3698

> <Gold.PLP.ligand.clash>
0.0000

> <Gold.PLP.ligand.torsion>
0.1705

> <Gold.PLP.Chemscore.Hbond>
3.9840

> <Gold.PLP.Chemscore.CHOScore>
0.0000

> <Gold.PLP.Chemscore.Metal>
0.0000

> <Gold.Chemscore.Hbonds>
donor molecule, donor type, donor heavy atom, donor atom, acceptor molecule, acceptor atom, score
      L1  H    10    26       P1  7957  0.89
      L1  H    10    31       P1  7948  2.00
      L1  H    14    15       P1  8028  1.00

> <Gold.PLP.Chemscore.Internal.Correction>
0.0074

> <Gold.Rescore>
     Score         DG    S(hbond)    S(metal)    S(lipo)     H(rot)  DE(clash)    DE(int)     intcor
     18.73     -18.91       2.92        0.00      64.37       1.51       0.03       0.15       ----

> <Gold.Chemscore.Fitness>
18.7275

> <Gold.Chemscore.DG>
-18.9113

> <Gold.Chemscore.ZeroCoef>
-5.4800

> <Gold.Chemscore.Hbond>
2.9248

> <Gold.Chemscore.Metal>
0.0000

> <Gold.Chemscore.Lipo>
64.3746

> <Gold.Chemscore.Internal_Hbond>
0.0000

> <Gold.Chemscore.DEClash>
0.0310

> <Gold.Chemscore.DEInternal>
0.1528

> <Gold.Chemscore.Rot>
1.5115

> <Gold.Chemscore.Internal.Correction>
   9.000000E+99

> <Gold.Chemscore.Hbonds>
donor molecule, donor type, donor heavy atom, donor atom, acceptor molecule, acceptor atom, score
      L1  H    10    26       P1  7957  0.86
      L1  H    10    31       P1  7948  0.96
      L1  H    14    15       P1  8028  0.93

> <Gold.Chemscore.Hbond.Weighted>
-9.7689

> <Gold.Chemscore.Metal.Weighted>
-0.0000

> <Gold.Chemscore.Lipo.Weighted>
-7.5318

> <Gold.Chemscore.Internal_Hbond.Weighted>
0.0000

> <Gold.Chemscore.DEClash.Weighted>
0.0310

> <Gold.Chemscore.DEInternal.Weighted>
0.1528

> <Gold.Chemscore.Rot.Weighted>
3.8695

> <Gold.Chemscore.Internal.Correction.Weighted>
   9.000000E+99

> <Gold.Protein.RotatedTorsions>
[ 6907 6896 6895 6894 ] final   -9.94 input  -60.11 | X-H torsion
[ 7974 7965 7964 7962 ] final  122.58 input  175.53 | X-H torsion
[ 8008 7997 7996 7995 ] final  169.48 input   59.86 | X-H torsion
[ 10167 10162 10161 10158 ] final  173.06 input  -65.29 | X-H torsion
[ 10718 10713 10712 10709 ] final  -40.67 input   66.30 | X-H torsion
[ 10763 10752 10751 10750 ] final   18.03 input  -60.55 | X-H torsion
[ 11005 11000 10999 10996 ] final  -66.52 input  -57.11 | X-H torsion

> <Gold.Protein.ActiveResidues>
 VAL166  LYS551  ARG553  GLY616  TRP617  ASP618  TYR619  PRO620  LYS621  CYS622 
 ASP623  PHE694  ASN695  SER759  ASP760  ASP761  ALA762  ILE779  LEU786  VAL792 
 PHE793  MET794  SER795  GLU796  ALA797  LYS798  CYS799  TRP800  GLU811  SER814 

> <Gold.Protein.RotatedAtoms>
  151.4099  135.0983  159.9581 H   0  0  0  0  0  0  0  0  0  0  0  0  # atno 6907 bound_to 6896
  152.5023  133.8808  159.7355 H   0  0  0  0  0  0  0  0  0  0  0  0  # atno 6908 bound_to 6896
  150.9300  133.6721  159.2841 H   0  0  0  0  0  0  0  0  0  0  0  0  # atno 6909 bound_to 6896
  145.1059  139.3486  143.4788 H   0  0  0  0  0  0  0  0  0  0  0  0  # atno 7974 bound_to 7965
  156.1454  140.1563  156.8855 H   0  0  0  0  0  0  0  0  0  0  0  0  # atno 8008 bound_to 7997
  154.5023  140.0822  156.7861 H   0  0  0  0  0  0  0  0  0  0  0  0  # atno 8009 bound_to 7997
  155.3999  140.3414  155.4258 H   0  0  0  0  0  0  0  0  0  0  0  0  # atno 8010 bound_to 7997
  139.5096  144.3303  152.0118 H   0  0  0  0  0  0  0  0  0  0  0  0  # atno 10167 bound_to 10162
  156.2788  130.4215  149.8359 H   0  0  0  0  0  0  0  0  0  0  0  0  # atno 10718 bound_to 10713
  153.1285  135.6735  153.9217 H   0  0  0  0  0  0  0  0  0  0  0  0  # atno 10763 bound_to 10752
  153.8711  135.3069  155.3443 H   0  0  0  0  0  0  0  0  0  0  0  0  # atno 10764 bound_to 10752
  154.7686  135.4951  153.9685 H   0  0  0  0  0  0  0  0  0  0  0  0  # atno 10765 bound_to 10752
  141.1484  133.6701  156.6152 H   0  0  0  0  0  0  0  0  0  0  0  0  # atno 11005 bound_to 11000
  146.3528  140.0957  142.8610 LP  0  0  0  0  0  0  0  0  0  0  0  0  # atno 17320 bound_to 7965
  145.0902  140.9279  143.4773 LP  0  0  0  0  0  0  0  0  0  0  0  0  # atno 17321 bound_to 7965
  140.2743  144.3930  150.6140 LP  0  0  0  0  0  0  0  0  0  0  0  0  # atno 17342 bound_to 10162
  140.6065  143.2168  151.6970 LP  0  0  0  0  0  0  0  0  0  0  0  0  # atno 17343 bound_to 10162
  156.5814  130.8467  151.3384 LP  0  0  0  0  0  0  0  0  0  0  0  0  # atno 17370 bound_to 10713
  157.7308  130.9690  150.1848 LP  0  0  0  0  0  0  0  0  0  0  0  0  # atno 17371 bound_to 10713
  140.3583  134.7709  157.4516 LP  0  0  0  0  0  0  0  0  0  0  0  0  # atno 17394 bound_to 11000
  140.0805  134.5738  155.8545 LP  0  0  0  0  0  0  0  0  0  0  0  0  # atno 17395 bound_to 11000

$$$$
