AV-unprocessed.smi:1088|AV-procd|sdf|4729|dock7
  -GOLD-   22720 3263D 1   1.00000     0.00000
 Structure written by MMmdl.
 48 49  0  0  0  0  0  0  0  0  2 V2000
  149.4177  138.0734  155.4493 C   0  0  0  0  0  0  0  0  0  0  0  0
  149.4520  139.4789  155.6250 O   0  0  0  0  0  0  0  0  0  0  0  0
  149.2143  140.1834  154.4179 C   0  0  0  0  0  0  0  0  0  0  0  0
  149.2443  141.6931  154.7056 C   0  0  0  0  0  0  0  0  0  0  0  0
  147.8993  142.2395  155.0329 N   0  3  1  0  0  0  0  0  0  0  0  0
  146.8280  141.8203  154.0972 C   0  0  0  0  0  0  0  0  0  0  0  0
  145.5337  141.8378  154.9023 C   0  0  0  0  0  0  0  0  0  0  0  0
  146.0044  141.3833  156.2739 C   0  0  0  0  0  0  0  0  0  0  0  0
  147.3842  142.0445  156.4240 C   0  0  1  0  0  0  0  0  0  0  0  0
  148.3261  141.3146  157.4152 C   0  0  0  0  0  0  0  0  0  0  0  0
  149.5310  142.0952  157.6817 N   0  0  0  0  0  0  0  0  0  0  0  0
  150.7611  141.5898  157.8605 C   0  0  0  0  0  0  0  0  0  0  0  0
  151.0205  140.3902  157.7590 O   0  0  0  0  0  0  0  0  0  0  0  0
  151.8650  142.5973  158.2069 C   0  0  0  0  0  0  0  0  0  0  0  0
  152.5618  142.2620  159.4558 N   0  0  0  0  0  0  0  0  0  0  0  0
  152.4925  143.1263  160.5333 C   0  0  0  0  0  0  0  0  0  0  0  0
  153.1223  142.9045  161.7075 C   0  0  0  0  0  0  0  0  0  0  0  0
  153.9296  141.7079  161.9093 C   0  0  0  0  0  0  0  0  0  0  0  0
  154.5423  141.4763  162.9524 O   0  0  0  0  0  0  0  0  0  0  0  0
  153.9690  140.8312  160.7994 N   0  0  0  0  0  0  0  0  0  0  0  0
  154.7744  139.6331  160.9183 C   0  0  0  0  0  0  0  0  0  0  0  0
  153.3214  141.0765  159.5671 C   0  0  0  0  0  0  0  0  0  0  0  0
  153.4142  140.3019  158.6114 O   0  0  0  0  0  0  0  0  0  0  0  0
  149.6112  137.5799  156.4014 H   0  0  0  0  0  0  0  0  0  0  0  0
  150.1792  137.7456  154.7402 H   0  0  0  0  0  0  0  0  0  0  0  0
  148.4412  137.7439  155.0918 H   0  0  0  0  0  0  0  0  0  0  0  0
  149.9460  139.9072  153.6575 H   0  0  0  0  0  0  0  0  0  0  0  0
  148.2326  139.9113  154.0271 H   0  0  0  0  0  0  0  0  0  0  0  0
  149.9321  141.8957  155.5276 H   0  0  0  0  0  0  0  0  0  0  0  0
  149.6434  142.1891  153.8213 H   0  0  0  0  0  0  0  0  0  0  0  0
  146.7787  142.4715  153.2239 H   0  0  0  0  0  0  0  0  0  0  0  0
  147.0182  140.8036  153.7488 H   0  0  0  0  0  0  0  0  0  0  0  0
  145.1366  142.8524  154.9588 H   0  0  0  0  0  0  0  0  0  0  0  0
  144.7621  141.1922  154.4820 H   0  0  0  0  0  0  0  0  0  0  0  0
  145.3123  141.6600  157.0697 H   0  0  0  0  0  0  0  0  0  0  0  0
  146.1024  140.2966  156.2777 H   0  0  0  0  0  0  0  0  0  0  0  0
  147.2205  143.0528  156.8074 H   0  0  0  0  0  0  0  0  0  0  0  0
  147.8085  141.0807  158.3469 H   0  0  0  0  0  0  0  0  0  0  0  0
  148.6573  140.3657  156.9940 H   0  0  0  0  0  0  0  0  0  0  0  0
  149.4151  143.0942  157.7735 H   0  0  0  0  0  0  0  0  0  0  0  0
  152.5715  142.6272  157.3764 H   0  0  0  0  0  0  0  0  0  0  0  0
  151.4475  143.6035  158.2772 H   0  0  0  0  0  0  0  0  0  0  0  0
  151.9111  144.0313  160.4321 H   0  0  0  0  0  0  0  0  0  0  0  0
  153.0320  143.6250  162.5071 H   0  0  0  0  0  0  0  0  0  0  0  0
  154.3723  138.8509  160.2734 H   0  0  0  0  0  0  0  0  0  0  0  0
  154.7350  139.2718  161.9470 H   0  0  0  0  0  0  0  0  0  0  0  0
  155.7900  139.9055  160.6289 H   0  0  0  0  0  0  0  0  0  0  0  0
  147.9811  143.2409  154.9278 H   0  0  0  0  0  0  0  0  0  0  0  0
  1  2  1  0  0  0  0
  1 24  1  0  0  0  0
  1 25  1  0  0  0  0
  1 26  1  0  0  0  0
  2  3  1  0  0  0  0
  3  4  1  0  0  0  0
  3 27  1  0  0  0  0
  3 28  1  0  0  0  0
  4  5  1  0  0  0  0
  4 29  1  0  0  0  0
  4 30  1  0  0  0  0
  5  9  1  0  0  0  0
  5  6  1  0  0  0  0
  5 48  1  0  0  0  0
  6  7  1  0  0  0  0
  6 31  1  0  0  0  0
  6 32  1  0  0  0  0
  7  8  1  0  0  0  0
  7 33  1  0  0  0  0
  7 34  1  0  0  0  0
  8  9  1  0  0  0  0
  8 35  1  0  0  0  0
  8 36  1  0  0  0  0
  9 10  1  0  0  0  0
  9 37  1  0  0  0  0
 10 11  1  0  0  0  0
 10 38  1  0  0  0  0
 10 39  1  0  0  0  0
 11 12  1  0  0  0  0
 11 40  1  0  0  0  0
 12 13  2  0  0  0  0
 12 14  1  0  0  0  0
 14 15  1  0  0  0  0
 14 41  1  0  0  0  0
 14 42  1  0  0  0  0
 15 22  1  0  0  0  0
 15 16  1  0  0  0  0
 16 17  2  0  0  0  0
 16 43  1  0  0  0  0
 17 18  1  0  0  0  0
 17 44  1  0  0  0  0
 18 19  2  0  0  0  0
 18 20  1  0  0  0  0
 20 21  1  0  0  0  0
 20 22  1  0  0  0  0
 21 45  1  0  0  0  0
 21 46  1  0  0  0  0
 21 47  1  0  0  0  0
 22 23  2  0  0  0  0
M  CHG  1   5   1
M  END
> <s_m_source_file>
AV-unprocessed.smi

> <i_m_source_file_index>
1088

> <i_lp_mmshare_version>
43012

> <i_f3d_flags>
0

> <s_epik_input>
W0NIM11PW0NIMl1bQ0gyXU4xW0NIMl1bQ0gyXVtDSDJdW0NASF0xW0NIMl1bTkhdQyg9TylbQ0gyXW4yW2NIXVtjSF1jKD1PKW4oW0NIM10pYzI9Tw==

> <s_epik_cmdline>
J2VwaWtfcHl0aG9uJywgJy1waCcsICc3LjAnLCAnLXRuJywgJzgnLCAnLW1hJywgJzIwMCcsICctbWV0YWxfYmluZGluZycsICctaW1hZScsICc8aW5maWxlLm1hZT4nLCAnLW9tYWUnLCAnPG91dGZpbGUubWFlPic=

> <r_lp_tautomer_probability>
1

> <r_epik_Ionization_Penalty>
0.0127388

> <r_epik_Ionization_Penalty_Charging>
0.0127387

> <r_epik_Ionization_Penalty_Neutral>
8.26414e-08

> <r_epik_State_Penalty>
0.00987716

> <r_epik_Charging_Adjusted_Penalty>
0.0226159

> <i_epik_Tot_Q>
1

> <i_epik_Tot_abs_Q>
1

> <r_epik_Metal_State_Penalty>
0.00987836

> <b_epik_Metal_Only>
0

> <s_lp_Force_Field>
OPLS_2005

> <r_lp_Energy>
40.5069

> <b_lp_Chiralities_Consistent>
1

> <s_lp_Variant>
AV-unprocessed.smi:1088-2

> <Gold.Version>
5.8.1

> <Gold.Id.Protein>
6NUR|6NUR_protein|mol2

> <Gold.PLP.Fitness>
48.5450

> <Gold.PLP.PLP>
-41.5916

> <Gold.PLP.part.hbond>
-3.0000

> <Gold.PLP.part.metal>
0.0000

> <Gold.PLP.part.buried>
-2.3511

> <Gold.PLP.part.nonpolar>
-34.5403

> <Gold.PLP.part.repulsive>
0.2336

> <Gold.PLP.ligand.clash>
0.0000

> <Gold.PLP.ligand.torsion>
0.5585

> <Gold.PLP.Chemscore.Hbond>
2.6240

> <Gold.PLP.Chemscore.CHOScore>
0.0000

> <Gold.PLP.Chemscore.Metal>
0.0000

> <Gold.Chemscore.Hbonds>
donor molecule, donor type, donor heavy atom, donor atom, acceptor molecule, acceptor atom, score
      L1  H     5    48       P1  8028  1.73
      P1  H  7997  8010       L1    23  0.90

> <Gold.PLP.Chemscore.Internal.Correction>
0.1984

> <Gold.Rescore>
     Score         DG    S(hbond)    S(metal)    S(lipo)     H(rot)  DE(clash)    DE(int)     intcor
      8.81     -13.46       1.72        0.00      75.35       2.57       0.34       4.31       ----

> <Gold.Chemscore.Fitness>
8.8125

> <Gold.Chemscore.DG>
-13.4639

> <Gold.Chemscore.ZeroCoef>
-5.4800

> <Gold.Chemscore.Hbond>
1.7200

> <Gold.Chemscore.Metal>
0.0000

> <Gold.Chemscore.Lipo>
75.3522

> <Gold.Chemscore.Internal_Hbond>
0.0000

> <Gold.Chemscore.DEClash>
0.3444

> <Gold.Chemscore.DEInternal>
4.3070

> <Gold.Chemscore.Rot>
2.5692

> <Gold.Chemscore.Internal.Correction>
   9.000000E+99

> <Gold.Chemscore.Hbonds>
donor molecule, donor type, donor heavy atom, donor atom, acceptor molecule, acceptor atom, score
      L1  H     5    48       P1  8028  0.72
      P1  H  7997  8010       L1    23  0.86

> <Gold.Chemscore.Hbond.Weighted>
-5.7448

> <Gold.Chemscore.Metal.Weighted>
-0.0000

> <Gold.Chemscore.Lipo.Weighted>
-8.8162

> <Gold.Chemscore.Internal_Hbond.Weighted>
0.0000

> <Gold.Chemscore.DEClash.Weighted>
0.3444

> <Gold.Chemscore.DEInternal.Weighted>
4.3070

> <Gold.Chemscore.Rot.Weighted>
6.5772

> <Gold.Chemscore.Internal.Correction.Weighted>
   9.000000E+99

> <Gold.Protein.RotatedTorsions>
[ 6907 6896 6895 6894 ] final -119.18 input  -60.11 | X-H torsion
[ 7974 7965 7964 7962 ] final  167.36 input  175.53 | X-H torsion
[ 8008 7997 7996 7995 ] final   28.28 input   59.86 | X-H torsion
[ 10167 10162 10161 10158 ] final   34.09 input  -65.29 | X-H torsion
[ 10718 10713 10712 10709 ] final  -28.32 input   66.30 | X-H torsion
[ 10763 10752 10751 10750 ] final  141.24 input  -60.55 | X-H torsion
[ 11005 11000 10999 10996 ] final  154.31 input  -57.11 | X-H torsion

> <Gold.Protein.ActiveResidues>
 VAL166  LYS551  ARG553  GLY616  TRP617  ASP618  TYR619  PRO620  LYS621  CYS622 
 ASP623  PHE694  ASN695  SER759  ASP760  ASP761  ALA762  ILE779  LEU786  VAL792 
 PHE793  MET794  SER795  GLU796  ALA797  LYS798  CYS799  TRP800  GLU811  SER814 

> <Gold.Protein.RotatedAtoms>
  150.8283  133.8134  159.3109 H   0  0  0  0  0  0  0  0  0  0  0  0  # atno 6907 bound_to 6896
  151.5872  135.1054  160.0040 H   0  0  0  0  0  0  0  0  0  0  0  0  # atno 6908 bound_to 6896
  152.4366  133.7330  159.6654 H   0  0  0  0  0  0  0  0  0  0  0  0  # atno 6909 bound_to 6896
  144.7427  139.8750  143.6392 H   0  0  0  0  0  0  0  0  0  0  0  0  # atno 7974 bound_to 7965
  155.0561  140.3185  155.4676 H   0  0  0  0  0  0  0  0  0  0  0  0  # atno 8008 bound_to 7997
  156.2823  140.2137  156.5632 H   0  0  0  0  0  0  0  0  0  0  0  0  # atno 8009 bound_to 7997
  154.7170  140.0493  157.0591 H   0  0  0  0  0  0  0  0  0  0  0  0  # atno 8010 bound_to 7997
  140.4348  144.1273  150.6164 H   0  0  0  0  0  0  0  0  0  0  0  0  # atno 10167 bound_to 10162
  156.4268  130.4437  149.7145 H   0  0  0  0  0  0  0  0  0  0  0  0  # atno 10718 bound_to 10713
  153.9359  135.2985  155.3444 H   0  0  0  0  0  0  0  0  0  0  0  0  # atno 10763 bound_to 10752
  154.7502  135.4984  153.9279 H   0  0  0  0  0  0  0  0  0  0  0  0  # atno 10764 bound_to 10752
  153.1067  135.6748  153.9679 H   0  0  0  0  0  0  0  0  0  0  0  0  # atno 10765 bound_to 10752
  140.1478  134.8695  157.2415 H   0  0  0  0  0  0  0  0  0  0  0  0  # atno 11005 bound_to 11000
  146.1253  139.4278  143.0203 LP  0  0  0  0  0  0  0  0  0  0  0  0  # atno 17320 bound_to 7965
  145.7244  141.0064  143.1385 LP  0  0  0  0  0  0  0  0  0  0  0  0  # atno 17321 bound_to 7965
  140.4387  143.2536  151.9502 LP  0  0  0  0  0  0  0  0  0  0  0  0  # atno 17342 bound_to 10162
  139.4786  144.5675  151.8141 LP  0  0  0  0  0  0  0  0  0  0  0  0  # atno 17343 bound_to 10162
  156.4064  130.7700  151.2711 LP  0  0  0  0  0  0  0  0  0  0  0  0  # atno 17370 bound_to 10713
  157.7508  131.0224  150.3792 LP  0  0  0  0  0  0  0  0  0  0  0  0  # atno 17371 bound_to 10713
  140.2642  134.3535  155.7396 LP  0  0  0  0  0  0  0  0  0  0  0  0  # atno 17394 bound_to 11000
  141.2195  133.7387  156.9126 LP  0  0  0  0  0  0  0  0  0  0  0  0  # atno 17395 bound_to 11000

$$$$
