AV-unprocessed.smi:1384|AV-procd|sdf|5627|dock10
  -GOLD-   22720 5243D 1   1.00000     0.00000
 Structure written by MMmdl.
 41 42  0  0  0  0  0  0  0  0  1 V2000
  145.9132  143.2925  153.2786 C   0  0  0  0  0  0  0  0  0  0  0  0
  146.1743  142.2363  154.3621 C   0  0  2  0  0  0  0  0  0  0  0  0
  146.2421  142.8744  155.7628 C   0  0  0  0  0  0  0  0  0  0  0  0
  146.5088  141.8231  156.8551 C   0  0  0  0  0  0  0  0  0  0  0  0
  147.7798  140.9990  156.5740 C   0  0  2  0  0  0  0  0  0  0  0  0
  148.9696  141.8293  156.7544 N   0  0  0  0  0  0  0  0  0  0  0  0
  150.1779  141.3893  157.1369 C   0  0  0  0  0  0  0  0  0  0  0  0
  150.4207  140.2048  157.3731 O   0  0  0  0  0  0  0  0  0  0  0  0
  151.2726  142.4602  157.2494 C   0  0  0  0  0  0  0  0  0  0  0  0
  151.8863  142.5376  158.5866 N   0  0  0  0  0  0  0  0  0  0  0  0
  151.6425  143.7061  159.3301 C   0  0  0  0  0  0  0  0  0  0  0  0
  152.1526  143.8814  160.5565 C   0  0  0  0  0  0  0  0  0  0  0  0
  152.9704  142.8306  161.1115 C   0  0  0  0  0  0  0  0  0  0  0  0
  153.2284  141.6979  160.4175 C   0  0  0  0  0  0  0  0  0  0  0  0
  154.0881  140.5741  160.9923 C   0  0  0  0  0  0  0  0  0  0  0  0
  153.4520  139.4049  160.9085 F   0  0  0  0  0  0  0  0  0  0  0  0
  155.2353  140.4736  160.3200 F   0  0  0  0  0  0  0  0  0  0  0  0
  154.3845  140.7845  162.2758 F   0  0  0  0  0  0  0  0  0  0  0  0
  152.6642  141.5171  159.0640 C   0  0  0  0  0  0  0  0  0  0  0  0
  152.8761  140.5069  158.3908 O   0  0  0  0  0  0  0  0  0  0  0  0
  147.7282  140.3812  155.1601 C   0  0  0  0  0  0  0  0  0  0  0  0
  147.4583  141.4358  154.0722 C   0  0  0  0  0  0  0  0  0  0  0  0
  146.7184  144.0270  153.2389 H   0  0  0  0  0  0  0  0  0  0  0  0
  144.9831  143.8284  153.4690 H   0  0  0  0  0  0  0  0  0  0  0  0
  145.8325  142.8331  152.2930 H   0  0  0  0  0  0  0  0  0  0  0  0
  145.3346  141.5396  154.3503 H   0  0  0  0  0  0  0  0  0  0  0  0
  147.0253  143.6331  155.7847 H   0  0  0  0  0  0  0  0  0  0  0  0
  145.3082  143.3940  155.9799 H   0  0  0  0  0  0  0  0  0  0  0  0
  146.5797  142.3069  157.8300 H   0  0  0  0  0  0  0  0  0  0  0  0
  145.6533  141.1491  156.9142 H   0  0  0  0  0  0  0  0  0  0  0  0
  147.8206  140.1901  157.3059 H   0  0  0  0  0  0  0  0  0  0  0  0
  148.8624  142.8172  156.5746 H   0  0  0  0  0  0  0  0  0  0  0  0
  152.0311  142.2510  156.4935 H   0  0  0  0  0  0  0  0  0  0  0  0
  150.8551  143.4293  156.9698 H   0  0  0  0  0  0  0  0  0  0  0  0
  151.0268  144.4462  158.8392 H   0  0  0  0  0  0  0  0  0  0  0  0
  151.9599  144.7866  161.1130 H   0  0  0  0  0  0  0  0  0  0  0  0
  153.3776  142.9678  162.1020 H   0  0  0  0  0  0  0  0  0  0  0  0
  148.6533  139.8472  154.9407 H   0  0  0  0  0  0  0  0  0  0  0  0
  146.9366  139.6314  155.1299 H   0  0  0  0  0  0  0  0  0  0  0  0
  147.3783  140.9432  153.1024 H   0  0  0  0  0  0  0  0  0  0  0  0
  148.3095  142.1142  154.0008 H   0  0  0  0  0  0  0  0  0  0  0  0
  1  2  1  0  0  0  0
  1 23  1  0  0  0  0
  1 24  1  0  0  0  0
  1 25  1  0  0  0  0
  2 22  1  0  0  0  0
  2  3  1  0  0  0  0
  2 26  1  0  0  0  0
  3  4  1  0  0  0  0
  3 27  1  0  0  0  0
  3 28  1  0  0  0  0
  4  5  1  0  0  0  0
  4 29  1  0  0  0  0
  4 30  1  0  0  0  0
  5  6  1  0  0  0  0
  5 21  1  0  0  0  0
  5 31  1  0  0  0  0
  6  7  1  0  0  0  0
  6 32  1  0  0  0  0
  7  8  2  0  0  0  0
  7  9  1  0  0  0  0
  9 10  1  0  0  0  0
  9 33  1  0  0  0  0
  9 34  1  0  0  0  0
 10 19  1  0  0  0  0
 10 11  1  0  0  0  0
 11 12  2  0  0  0  0
 11 35  1  0  0  0  0
 12 13  1  0  0  0  0
 12 36  1  0  0  0  0
 13 14  2  0  0  0  0
 13 37  1  0  0  0  0
 14 15  1  0  0  0  0
 14 19  1  0  0  0  0
 15 16  1  0  0  0  0
 15 17  1  0  0  0  0
 15 18  1  0  0  0  0
 19 20  2  0  0  0  0
 21 22  1  0  0  0  0
 21 38  1  0  0  0  0
 21 39  1  0  0  0  0
 22 40  1  0  0  0  0
 22 41  1  0  0  0  0
M  END
> <s_m_source_file>
AV-unprocessed.smi

> <i_m_source_file_index>
1384

> <i_lp_mmshare_version>
43012

> <i_f3d_flags>
0

> <s_epik_input>
W0NIM11bQ0BASF0xW0NIMl1bQ0gyXVtDQEhdKFtDSDJdW0NIMl0xKVtOSF1DKD1PKVtDSDJdbjJbY0hdW2NIXVtjSF1jKEMoRikoRilGKWMyPU8=

> <s_epik_cmdline>
J2VwaWtfcHl0aG9uJywgJy1waCcsICc3LjAnLCAnLXRuJywgJzgnLCAnLW1hJywgJzIwMCcsICctbWV0YWxfYmluZGluZycsICctaW1hZScsICc8aW5maWxlLm1hZT4nLCAnLW9tYWUnLCAnPG91dGZpbGUubWFlPic=

> <r_lp_tautomer_probability>
1

> <r_epik_Ionization_Penalty>
2.11165e-08

> <r_epik_Ionization_Penalty_Charging>
2.06965e-09

> <r_epik_Ionization_Penalty_Neutral>
1.90469e-08

> <r_epik_State_Penalty>
-0

> <r_epik_Charging_Adjusted_Penalty>
2.06965e-09

> <i_epik_Tot_Q>
0

> <i_epik_Tot_abs_Q>
0

> <r_epik_Metal_State_Penalty>
-0

> <b_epik_Metal_Only>
0

> <s_lp_Force_Field>
OPLS_2005

> <r_lp_Energy>
18.4349

> <b_lp_Chiralities_Consistent>
1

> <s_lp_Variant>
AV-unprocessed.smi:1384-2

> <Gold.Version>
5.8.1

> <Gold.Id.Protein>
6NUR|6NUR_protein|mol2

> <Gold.PLP.Fitness>
49.7693

> <Gold.PLP.PLP>
-45.8809

> <Gold.PLP.part.hbond>
-2.0000

> <Gold.PLP.part.metal>
0.0000

> <Gold.PLP.part.buried>
-3.7463

> <Gold.PLP.part.nonpolar>
-39.5941

> <Gold.PLP.part.repulsive>
0.0120

> <Gold.PLP.ligand.clash>
0.1382

> <Gold.PLP.ligand.torsion>
0.6178

> <Gold.PLP.Chemscore.Hbond>
1.6458

> <Gold.PLP.Chemscore.CHOScore>
0.0000

> <Gold.PLP.Chemscore.Metal>
0.0000

> <Gold.Chemscore.Hbonds>
donor molecule, donor type, donor heavy atom, donor atom, acceptor molecule, acceptor atom, score
      L1  H     6    32       P1  8028  0.81
      P1  H  7997  8010       L1    20  0.36

> <Gold.PLP.Chemscore.Internal.Correction>
0.3246

> <Gold.Rescore>
     Score         DG    S(hbond)    S(metal)    S(lipo)     H(rot)  DE(clash)    DE(int)     intcor
     14.26     -18.41       1.72        0.00      94.65       1.52       0.07       4.07       ----

> <Gold.Chemscore.Fitness>
14.2634

> <Gold.Chemscore.DG>
-18.4073

> <Gold.Chemscore.ZeroCoef>
-5.4800

> <Gold.Chemscore.Hbond>
1.7232

> <Gold.Chemscore.Metal>
0.0000

> <Gold.Chemscore.Lipo>
94.6473

> <Gold.Chemscore.Internal_Hbond>
0.0000

> <Gold.Chemscore.DEClash>
0.0731

> <Gold.Chemscore.DEInternal>
4.0708

> <Gold.Chemscore.Rot>
1.5242

> <Gold.Chemscore.Internal.Correction>
   9.000000E+99

> <Gold.Chemscore.Hbonds>
donor molecule, donor type, donor heavy atom, donor atom, acceptor molecule, acceptor atom, score
      L1  H     6    32       P1  8028  0.79
      P1  H  7997  8010       L1    20  0.35

> <Gold.Chemscore.Hbond.Weighted>
-5.7554

> <Gold.Chemscore.Metal.Weighted>
-0.0000

> <Gold.Chemscore.Lipo.Weighted>
-11.0737

> <Gold.Chemscore.Internal_Hbond.Weighted>
0.0000

> <Gold.Chemscore.DEClash.Weighted>
0.0731

> <Gold.Chemscore.DEInternal.Weighted>
4.0708

> <Gold.Chemscore.Rot.Weighted>
3.9019

> <Gold.Chemscore.Internal.Correction.Weighted>
   9.000000E+99

> <Gold.Protein.RotatedTorsions>
[ 6907 6896 6895 6894 ] final   50.61 input  -60.11 | X-H torsion
[ 7974 7965 7964 7962 ] final  125.35 input  175.53 | X-H torsion
[ 8008 7997 7996 7995 ] final   47.04 input   59.86 | X-H torsion
[ 10167 10162 10161 10158 ] final -148.49 input  -65.29 | X-H torsion
[ 10718 10713 10712 10709 ] final   40.73 input   66.30 | X-H torsion
[ 10763 10752 10751 10750 ] final   95.08 input  -60.55 | X-H torsion
[ 11005 11000 10999 10996 ] final   31.49 input  -57.11 | X-H torsion

> <Gold.Protein.ActiveResidues>
 VAL166  LYS551  ARG553  GLY616  TRP617  ASP618  TYR619  PRO620  LYS621  CYS622 
 ASP623  PHE694  ASN695  SER759  ASP760  ASP761  ALA762  ILE779  LEU786  VAL792 
 PHE793  MET794  SER795  GLU796  ALA797  LYS798  CYS799  TRP800  GLU811  SER814 

> <Gold.Protein.RotatedAtoms>
  152.3037  134.7581  160.0351 H   0  0  0  0  0  0  0  0  0  0  0  0  # atno 6907 bound_to 6896
  151.8086  133.3373  159.3556 H   0  0  0  0  0  0  0  0  0  0  0  0  # atno 6908 bound_to 6896
  150.7286  134.5616  159.5889 H   0  0  0  0  0  0  0  0  0  0  0  0  # atno 6909 bound_to 6896
  145.0740  139.3708  143.4943 H   0  0  0  0  0  0  0  0  0  0  0  0  # atno 7974 bound_to 7965
  155.3624  140.3419  155.4241 H   0  0  0  0  0  0  0  0  0  0  0  0  # atno 8008 bound_to 7997
  156.1706  140.1630  156.8488 H   0  0  0  0  0  0  0  0  0  0  0  0  # atno 8009 bound_to 7997
  154.5230  140.0762  156.8188 H   0  0  0  0  0  0  0  0  0  0  0  0  # atno 8010 bound_to 7997
  139.7527  143.8494  152.2590 H   0  0  0  0  0  0  0  0  0  0  0  0  # atno 10167 bound_to 10162
  157.3854  130.7777  149.7226 H   0  0  0  0  0  0  0  0  0  0  0  0  # atno 10718 bound_to 10713
  153.2491  135.4266  155.0778 H   0  0  0  0  0  0  0  0  0  0  0  0  # atno 10763 bound_to 10752
  154.8374  135.3421  154.6539 H   0  0  0  0  0  0  0  0  0  0  0  0  # atno 10764 bound_to 10752
  153.6960  135.7031  153.5133 H   0  0  0  0  0  0  0  0  0  0  0  0  # atno 10765 bound_to 10752
  140.2834  134.2947  155.7794 H   0  0  0  0  0  0  0  0  0  0  0  0  # atno 11005 bound_to 11000
  146.3529  140.0499  142.8636 LP  0  0  0  0  0  0  0  0  0  0  0  0  # atno 17320 bound_to 7965
  145.1258  140.9489  143.4574 LP  0  0  0  0  0  0  0  0  0  0  0  0  # atno 17321 bound_to 7965
  139.8477  144.7179  150.9252 LP  0  0  0  0  0  0  0  0  0  0  0  0  # atno 17342 bound_to 10162
  140.7799  143.3927  151.1283 LP  0  0  0  0  0  0  0  0  0  0  0  0  # atno 17343 bound_to 10162
  155.9785  130.4050  150.3642 LP  0  0  0  0  0  0  0  0  0  0  0  0  # atno 17370 bound_to 10713
  157.1751  131.0378  151.2776 LP  0  0  0  0  0  0  0  0  0  0  0  0  # atno 17371 bound_to 10713
  141.2159  133.7539  156.9515 LP  0  0  0  0  0  0  0  0  0  0  0  0  # atno 17394 bound_to 11000
  140.1262  134.9385  157.2274 LP  0  0  0  0  0  0  0  0  0  0  0  0  # atno 17395 bound_to 11000

$$$$
