AV-unprocessed.smi:1381|AV-procd|sdf|5616|dock8
  -GOLD-   22720 5223D 1   1.00000     0.00000
 Structure written by MMmdl.
 42 43  0  0  0  0  0  0  0  0  3 V2000
  151.7577  140.8612  156.8506 C   0  0  0  0  0  0  0  0  0  0  0  0
  151.2255  139.8383  155.9065 C   0  0  0  0  0  0  0  0  0  0  0  0
  151.1197  138.4777  155.9738 C   0  0  0  0  0  0  0  0  0  0  0  0
  150.5250  138.1395  154.7291 C   0  0  0  0  0  0  0  0  0  0  0  0
  150.2464  136.7855  154.4038 N   0  0  0  0  0  0  0  0  0  0  0  0
  150.7730  135.6661  154.9330 C   0  0  0  0  0  0  0  0  0  0  0  0
  151.6321  135.7379  155.8200 O   0  0  0  0  0  0  0  0  0  0  0  0
  150.2545  134.5376  154.3737 N   0  5  0  0  0  0  0  0  0  0  0  0
  148.8996  134.0384  154.6043 C   0  0  0  0  0  0  0  0  0  0  0  0
  148.4694  133.1102  153.4533 C   0  0  0  0  0  0  0  0  0  0  0  0
  147.4391  133.7604  152.6034 N   0  3  1  0  0  0  0  0  0  0  0  0
  146.8404  132.8525  151.5959 C   0  0  0  0  0  0  0  0  0  0  0  0
  145.8617  133.6274  150.6943 C   0  0  1  0  0  0  0  0  0  0  0  0
  145.1601  132.7144  149.6829 C   0  0  0  0  0  0  0  0  0  0  0  0
  144.8659  134.2398  151.5075 O   0  0  0  0  0  0  0  0  0  0  0  0
  145.4103  135.1796  152.4287 C   0  0  1  0  0  0  0  0  0  0  0  0
  144.2495  135.8382  153.1820 C   0  0  0  0  0  0  0  0  0  0  0  0
  146.3791  134.4503  153.3779 C   0  0  0  0  0  0  0  0  0  0  0  0
  150.2887  139.2002  153.9711 N   0  0  0  0  0  0  0  0  0  0  0  0
  150.7371  140.2937  154.7212 O   0  0  0  0  0  0  0  0  0  0  0  0
  151.7080  140.5035  157.8790 H   0  0  0  0  0  0  0  0  0  0  0  0
  151.1840  141.7862  156.7876 H   0  0  0  0  0  0  0  0  0  0  0  0
  152.7982  141.0912  156.6218 H   0  0  0  0  0  0  0  0  0  0  0  0
  151.4208  137.8300  156.7836 H   0  0  0  0  0  0  0  0  0  0  0  0
  149.5567  136.6450  153.6809 H   0  0  0  0  0  0  0  0  0  0  0  0
  148.8115  133.5018  155.5502 H   0  0  0  0  0  0  0  0  0  0  0  0
  148.1874  134.8611  154.6731 H   0  0  0  0  0  0  0  0  0  0  0  0
  149.3428  132.8453  152.8549 H   0  0  0  0  0  0  0  0  0  0  0  0
  148.0881  132.1690  153.8534 H   0  0  0  0  0  0  0  0  0  0  0  0
  147.6309  132.4089  150.9890 H   0  0  0  0  0  0  0  0  0  0  0  0
  146.3249  132.0346  152.1023 H   0  0  0  0  0  0  0  0  0  0  0  0
  146.4016  134.4010  150.1454 H   0  0  0  0  0  0  0  0  0  0  0  0
  145.8817  132.2310  149.0237 H   0  0  0  0  0  0  0  0  0  0  0  0
  144.4701  133.2827  149.0589 H   0  0  0  0  0  0  0  0  0  0  0  0
  144.5891  131.9329  150.1849 H   0  0  0  0  0  0  0  0  0  0  0  0
  145.9483  135.9526  151.8770 H   0  0  0  0  0  0  0  0  0  0  0  0
  144.6140  136.5786  153.8945 H   0  0  0  0  0  0  0  0  0  0  0  0
  143.6673  135.0999  153.7343 H   0  0  0  0  0  0  0  0  0  0  0  0
  143.5749  136.3457  152.4919 H   0  0  0  0  0  0  0  0  0  0  0  0
  145.8383  133.7212  153.9837 H   0  0  0  0  0  0  0  0  0  0  0  0
  146.8351  135.1651  154.0647 H   0  0  0  0  0  0  0  0  0  0  0  0
  147.9281  134.4763  152.0849 H   0  0  0  0  0  0  0  0  0  0  0  0
  1  2  1  0  0  0  0
  1 21  1  0  0  0  0
  1 22  1  0  0  0  0
  1 23  1  0  0  0  0
  2 20  1  0  0  0  0
  2  3  2  0  0  0  0
  3  4  1  0  0  0  0
  3 24  1  0  0  0  0
  4  5  1  0  0  0  0
  4 19  2  0  0  0  0
  5  6  1  0  0  0  0
  5 25  1  0  0  0  0
  6  7  2  0  0  0  0
  6  8  1  0  0  0  0
  8  9  1  0  0  0  0
  9 10  1  0  0  0  0
  9 26  1  0  0  0  0
  9 27  1  0  0  0  0
 10 11  1  0  0  0  0
 10 28  1  0  0  0  0
 10 29  1  0  0  0  0
 11 18  1  0  0  0  0
 11 12  1  0  0  0  0
 11 42  1  0  0  0  0
 12 13  1  0  0  0  0
 12 30  1  0  0  0  0
 12 31  1  0  0  0  0
 13 14  1  0  0  0  0
 13 15  1  0  0  0  0
 13 32  1  0  0  0  0
 14 33  1  0  0  0  0
 14 34  1  0  0  0  0
 14 35  1  0  0  0  0
 15 16  1  0  0  0  0
 16 17  1  0  0  0  0
 16 18  1  0  0  0  0
 16 36  1  0  0  0  0
 17 37  1  0  0  0  0
 17 38  1  0  0  0  0
 17 39  1  0  0  0  0
 18 40  1  0  0  0  0
 18 41  1  0  0  0  0
 19 20  1  0  0  0  0
M  CHG  1   8  -1
M  CHG  1  11   1
M  END
> <s_m_source_file>
AV-unprocessed.smi

> <i_m_source_file_index>
1381

> <i_lp_mmshare_version>
43012

> <i_f3d_flags>
0

> <s_epik_input>
W0NIM11jMVtjSF1jKG5vMSlbTkhdQyg9TylbTkhdW0NIMl1bQ0gyXU4yW0NIMl1bQ0BASF0oW0NIM10pT1tDQEBIXShbQ0gzXSlbQ0gyXTI=

> <s_epik_cmdline>
J2VwaWtfcHl0aG9uJywgJy1waCcsICc3LjAnLCAnLXRuJywgJzgnLCAnLW1hJywgJzIwMCcsICctbWV0YWxfYmluZGluZycsICctaW1hZScsICc8aW5maWxlLm1hZT4nLCAnLW9tYWUnLCAnPG91dGZpbGUubWFlPic=

> <r_epik_Ionization_Penalty>
6.8073

> <r_epik_Ionization_Penalty_Charging>
6.80729

> <r_epik_Ionization_Penalty_Neutral>
5.65391e-06

> <r_epik_State_Penalty>
7.47323

> <r_epik_Charging_Adjusted_Penalty>
14.2805

> <i_epik_Tot_Q>
0

> <i_epik_Tot_abs_Q>
2

> <r_epik_Metal_State_Penalty>
3.40035

> <b_epik_Metal_Only>
1

> <s_lp_Force_Field>
OPLS_2005

> <r_lp_Energy>
11.4992

> <b_lp_Chiralities_Consistent>
1

> <s_lp_Variant>
AV-unprocessed.smi:1381-15

> <Gold.Version>
5.8.1

> <Gold.Id.Protein>
6NUR|6NUR_protein|mol2

> <Gold.PLP.Fitness>
40.3508

> <Gold.PLP.PLP>
-28.4405

> <Gold.PLP.part.hbond>
-5.2536

> <Gold.PLP.part.metal>
0.0000

> <Gold.PLP.part.buried>
-2.6088

> <Gold.PLP.part.nonpolar>
-22.2198

> <Gold.PLP.part.repulsive>
2.6199

> <Gold.PLP.ligand.clash>
0.0000

> <Gold.PLP.ligand.torsion>
1.3412

> <Gold.PLP.Chemscore.Hbond>
4.8325

> <Gold.PLP.Chemscore.CHOScore>
0.0000

> <Gold.PLP.Chemscore.Metal>
0.0000

> <Gold.Chemscore.Hbonds>
donor molecule, donor type, donor heavy atom, donor atom, acceptor molecule, acceptor atom, score
      L1  H     5    25       P1  7948  1.00
      L1  H    11    42       P1  7948  1.90
      P1  H  7989  7998       L1    20  0.65
      P1  H 10752 10763       L1     7  1.00

> <Gold.PLP.Chemscore.Internal.Correction>
0.0952

> <Gold.Rescore>
     Score         DG    S(hbond)    S(metal)    S(lipo)     H(rot)  DE(clash)    DE(int)     intcor
     12.59     -15.27       2.07        0.00      59.25       1.58       0.02       2.66       ----

> <Gold.Chemscore.Fitness>
12.5880

> <Gold.Chemscore.DG>
-15.2721

> <Gold.Chemscore.ZeroCoef>
-5.4800

> <Gold.Chemscore.Hbond>
2.0667

> <Gold.Chemscore.Metal>
0.0000

> <Gold.Chemscore.Lipo>
59.2490

> <Gold.Chemscore.Internal_Hbond>
0.0000

> <Gold.Chemscore.DEClash>
0.0211

> <Gold.Chemscore.DEInternal>
2.6629

> <Gold.Chemscore.Rot>
1.5792

> <Gold.Chemscore.Internal.Correction>
   9.000000E+99

> <Gold.Chemscore.Hbonds>
donor molecule, donor type, donor heavy atom, donor atom, acceptor molecule, acceptor atom, score
      L1  H     5    25       P1  7948  0.72
      L1  H    11    42       P1  7948  0.21
      P1  H  7989  7998       L1    20  0.06
      P1  H 10752 10763       L1     7  0.64

> <Gold.Chemscore.Hbond.Weighted>
-6.9028

> <Gold.Chemscore.Metal.Weighted>
-0.0000

> <Gold.Chemscore.Lipo.Weighted>
-6.9321

> <Gold.Chemscore.Internal_Hbond.Weighted>
0.0000

> <Gold.Chemscore.DEClash.Weighted>
0.0211

> <Gold.Chemscore.DEInternal.Weighted>
2.6629

> <Gold.Chemscore.Rot.Weighted>
4.0428

> <Gold.Chemscore.Internal.Correction.Weighted>
   9.000000E+99

> <Gold.Protein.RotatedTorsions>
[ 6907 6896 6895 6894 ] final -106.92 input  -60.11 | X-H torsion
[ 7974 7965 7964 7962 ] final  157.23 input  175.53 | X-H torsion
[ 8008 7997 7996 7995 ] final -144.12 input   59.86 | X-H torsion
[ 10167 10162 10161 10158 ] final -102.83 input  -65.29 | X-H torsion
[ 10718 10713 10712 10709 ] final    2.55 input   66.30 | X-H torsion
[ 10763 10752 10751 10750 ] final   95.10 input  -60.55 | X-H torsion
[ 11005 11000 10999 10996 ] final   54.35 input  -57.11 | X-H torsion

> <Gold.Protein.ActiveResidues>
 VAL166  LYS551  ARG553  GLY616  TRP617  ASP618  TYR619  PRO620  LYS621  CYS622 
 ASP623  PHE694  ASN695  SER759  ASP760  ASP761  ALA762  ILE779  LEU786  VAL792 
 PHE793  MET794  SER795  GLU796  ALA797  LYS798  CYS799  TRP800  GLU811  SER814 

> <Gold.Protein.RotatedAtoms>
  150.7415  133.9903  159.3604 H   0  0  0  0  0  0  0  0  0  0  0  0  # atno 6907 bound_to 6896
  151.7851  135.0749  160.0388 H   0  0  0  0  0  0  0  0  0  0  0  0  # atno 6908 bound_to 6896
  152.3247  133.5855  159.5805 H   0  0  0  0  0  0  0  0  0  0  0  0  # atno 6909 bound_to 6896
  144.7916  139.7312  143.6219 H   0  0  0  0  0  0  0  0  0  0  0  0  # atno 7974 bound_to 7965
  155.5216  140.0592  157.2905 H   0  0  0  0  0  0  0  0  0  0  0  0  # atno 8008 bound_to 7997
  154.4515  140.1951  156.0450 H   0  0  0  0  0  0  0  0  0  0  0  0  # atno 8009 bound_to 7997
  156.0714  140.3259  155.7585 H   0  0  0  0  0  0  0  0  0  0  0  0  # atno 8010 bound_to 7997
  140.2265  143.3638  152.0924 H   0  0  0  0  0  0  0  0  0  0  0  0  # atno 10167 bound_to 10162
  156.8647  130.5599  149.5661 H   0  0  0  0  0  0  0  0  0  0  0  0  # atno 10718 bound_to 10713
  153.2492  135.4266  155.0780 H   0  0  0  0  0  0  0  0  0  0  0  0  # atno 10763 bound_to 10752
  154.8374  135.3422  154.6537 H   0  0  0  0  0  0  0  0  0  0  0  0  # atno 10764 bound_to 10752
  153.6958  135.7031  153.5133 H   0  0  0  0  0  0  0  0  0  0  0  0  # atno 10765 bound_to 10752
  140.0693  134.5492  155.9064 H   0  0  0  0  0  0  0  0  0  0  0  0  # atno 11005 bound_to 11000
  146.2169  139.5566  142.9644 LP  0  0  0  0  0  0  0  0  0  0  0  0  # atno 17320 bound_to 7965
  145.5781  141.0386  143.2137 LP  0  0  0  0  0  0  0  0  0  0  0  0  # atno 17321 bound_to 7965
  139.5125  144.6918  151.5739 LP  0  0  0  0  0  0  0  0  0  0  0  0  # atno 17342 bound_to 10162
  140.6217  143.9246  150.6531 LP  0  0  0  0  0  0  0  0  0  0  0  0  # atno 17343 bound_to 10162
  156.0758  130.5780  150.9470 LP  0  0  0  0  0  0  0  0  0  0  0  0  # atno 17370 bound_to 10713
  157.6230  131.0928  150.8587 LP  0  0  0  0  0  0  0  0  0  0  0  0  # atno 17371 bound_to 10713
  141.2005  133.6613  156.5903 LP  0  0  0  0  0  0  0  0  0  0  0  0  # atno 17394 bound_to 11000
  140.3651  134.7654  157.4560 LP  0  0  0  0  0  0  0  0  0  0  0  0  # atno 17395 bound_to 11000

$$$$
