AV-unprocessed.smi:1240|AV-procd|sdf|5208|dock8
  -GOLD-   22720 4303D 1   1.00000     0.00000
 Structure written by MMmdl.
 49 51  0  0  0  0  0  0  0  0  3 V2000
  146.2106  130.7693  153.6851 O   0  0  0  0  0  0  0  0  0  0  0  0
  147.0127  130.6090  152.7655 C   0  0  0  0  0  0  0  0  0  0  0  0
  148.1978  130.0015  152.9193 N   0  0  0  0  0  0  0  0  0  0  0  0
  148.7013  129.4540  154.1740 C   0  0  0  0  0  0  0  0  0  0  0  0
  149.9925  130.1481  154.6967 C   0  0  1  0  0  0  0  0  0  0  0  0
  149.8758  130.6946  156.1486 C   0  0  2  0  0  0  0  0  0  0  0  0
  148.5537  131.3573  156.5091 C   0  0  0  0  0  0  0  0  0  0  0  0
  148.9122  132.2529  157.6949 C   0  0  0  0  0  0  0  0  0  0  0  0
  150.3196  132.4528  157.6330 O   0  0  0  0  0  0  0  0  0  0  0  0
  150.8328  131.8503  156.4550 C   0  0  0  0  0  0  0  0  0  0  0  0
  151.1837  129.2528  154.5849 N   0  3  0  0  0  0  0  0  0  0  0  0
  152.4926  129.8590  154.9384 C   0  0  0  0  0  0  0  0  0  0  0  0
  153.6300  128.8828  154.5956 C   0  0  0  0  0  0  0  0  0  0  0  0
  153.4257  127.6553  155.2856 O   0  0  0  0  0  0  0  0  0  0  0  0
  152.2091  127.0226  154.9060 C   0  0  0  0  0  0  0  0  0  0  0  0
  151.0196  127.9362  155.2481 C   0  0  0  0  0  0  0  0  0  0  0  0
  146.8358  131.0182  151.4975 N   0  0  0  0  0  0  0  0  0  0  0  0
  145.7102  131.6740  150.9288 C   0  0  0  0  0  0  0  0  0  0  0  0
  144.7267  132.1710  151.8127 C   0  0  0  0  0  0  0  0  0  0  0  0
  143.6021  132.8446  151.2943 C   0  0  0  0  0  0  0  0  0  0  0  0
  143.4781  133.0183  149.9611 N   0  3  0  0  0  0  0  0  0  0  0  0
  144.3981  132.5739  149.0781 C   0  0  0  0  0  0  0  0  0  0  0  0
  145.5440  131.8931  149.5373 C   0  0  0  0  0  0  0  0  0  0  0  0
  148.7998  129.9163  152.1128 H   0  0  0  0  0  0  0  0  0  0  0  0
  147.8986  129.5526  154.9046 H   0  0  0  0  0  0  0  0  0  0  0  0
  148.8597  128.3835  154.0389 H   0  0  0  0  0  0  0  0  0  0  0  0
  150.1994  131.0073  154.0575 H   0  0  0  0  0  0  0  0  0  0  0  0
  150.0607  129.8931  156.8649 H   0  0  0  0  0  0  0  0  0  0  0  0
  148.1988  131.9719  155.6804 H   0  0  0  0  0  0  0  0  0  0  0  0
  147.7686  130.6457  156.7643 H   0  0  0  0  0  0  0  0  0  0  0  0
  148.3805  133.2041  157.6573 H   0  0  0  0  0  0  0  0  0  0  0  0
  148.6693  131.7669  158.6403 H   0  0  0  0  0  0  0  0  0  0  0  0
  151.8616  131.5213  156.6039 H   0  0  0  0  0  0  0  0  0  0  0  0
  150.8240  132.5868  155.6497 H   0  0  0  0  0  0  0  0  0  0  0  0
  152.6411  130.7937  154.3983 H   0  0  0  0  0  0  0  0  0  0  0  0
  152.5283  130.0908  156.0034 H   0  0  0  0  0  0  0  0  0  0  0  0
  153.6829  128.7072  153.5198 H   0  0  0  0  0  0  0  0  0  0  0  0
  154.5894  129.3027  154.8977 H   0  0  0  0  0  0  0  0  0  0  0  0
  152.2254  126.7875  153.8404 H   0  0  0  0  0  0  0  0  0  0  0  0
  152.1212  126.0759  155.4392 H   0  0  0  0  0  0  0  0  0  0  0  0
  150.9529  128.0629  156.3288 H   0  0  0  0  0  0  0  0  0  0  0  0
  150.0924  127.4641  154.9217 H   0  0  0  0  0  0  0  0  0  0  0  0
  147.6229  130.8939  150.8775 H   0  0  0  0  0  0  0  0  0  0  0  0
  144.8261  132.0342  152.8800 H   0  0  0  0  0  0  0  0  0  0  0  0
  142.8051  133.2485  151.9016 H   0  0  0  0  0  0  0  0  0  0  0  0
  144.1949  132.7802  148.0374 H   0  0  0  0  0  0  0  0  0  0  0  0
  146.2765  131.5648  148.8158 H   0  0  0  0  0  0  0  0  0  0  0  0
  151.2458  129.0351  153.6005 H   0  0  0  0  0  0  0  0  0  0  0  0
  142.6575  133.5101  149.6065 H   0  0  0  0  0  0  0  0  0  0  0  0
  1  2  2  0  0  0  0
  2  3  1  0  0  0  0
  2 17  1  0  0  0  0
  3  4  1  0  0  0  0
  3 24  1  0  0  0  0
  4  5  1  0  0  0  0
  4 25  1  0  0  0  0
  4 26  1  0  0  0  0
  5  6  1  0  0  0  0
  5 11  1  0  0  0  0
  5 27  1  0  0  0  0
  6 10  1  0  0  0  0
  6  7  1  0  0  0  0
  6 28  1  0  0  0  0
  7  8  1  0  0  0  0
  7 29  1  0  0  0  0
  7 30  1  0  0  0  0
  8  9  1  0  0  0  0
  8 31  1  0  0  0  0
  8 32  1  0  0  0  0
  9 10  1  0  0  0  0
 10 33  1  0  0  0  0
 10 34  1  0  0  0  0
 11 16  1  0  0  0  0
 11 12  1  0  0  0  0
 11 48  1  0  0  0  0
 12 13  1  0  0  0  0
 12 35  1  0  0  0  0
 12 36  1  0  0  0  0
 13 14  1  0  0  0  0
 13 37  1  0  0  0  0
 13 38  1  0  0  0  0
 14 15  1  0  0  0  0
 15 16  1  0  0  0  0
 15 39  1  0  0  0  0
 15 40  1  0  0  0  0
 16 41  1  0  0  0  0
 16 42  1  0  0  0  0
 17 18  1  0  0  0  0
 17 43  1  0  0  0  0
 18 23  1  0  0  0  0
 18 19  2  0  0  0  0
 19 20  1  0  0  0  0
 19 44  1  0  0  0  0
 20 21  2  0  0  0  0
 20 45  1  0  0  0  0
 21 22  1  0  0  0  0
 21 49  1  0  0  0  0
 22 23  2  0  0  0  0
 22 46  1  0  0  0  0
 23 47  1  0  0  0  0
M  CHG  1  11   1
M  CHG  1  21   1
M  END
> <s_m_source_file>
AV-unprocessed.smi

> <i_m_source_file_index>
1240

> <i_lp_mmshare_version>
43012

> <i_f3d_flags>
0

> <s_epik_input>
W2NIXTFbY0hdbltjSF1bY0hdYzFbTkhdQyg9TylbTkhdW0NIMl1bQ0BIXShbQ0BASF0yW0NIMl1bQ0gyXU9bQ0gyXTIpTjNbQ0gyXVtDSDJdT1tDSDJdW0NIMl0z

> <s_epik_cmdline>
J2VwaWtfcHl0aG9uJywgJy1waCcsICc3LjAnLCAnLXRuJywgJzgnLCAnLW1hJywgJzIwMCcsICctbWV0YWxfYmluZGluZycsICctaW1hZScsICc8aW5maWxlLm1hZT4nLCAnLW9tYWUnLCAnPG91dGZpbGUubWFlPic=

> <r_epik_Ionization_Penalty>
2.08105

> <r_epik_Ionization_Penalty_Charging>
2.08103

> <r_epik_Ionization_Penalty_Neutral>
2.04144e-05

> <r_epik_State_Penalty>
2.15598

> <r_epik_Charging_Adjusted_Penalty>
4.23701

> <i_epik_Tot_Q>
2

> <i_epik_Tot_abs_Q>
2

> <r_epik_Metal_State_Penalty>
2.25158

> <b_epik_Metal_Only>
0

> <s_lp_Force_Field>
OPLS_2005

> <r_lp_Energy>
49.9195

> <b_lp_Chiralities_Consistent>
1

> <s_lp_Variant>
AV-unprocessed.smi:1240-14

> <Gold.Version>
5.8.1

> <Gold.Id.Protein>
6NUR|6NUR_protein|mol2

> <Gold.PLP.Fitness>
46.6892

> <Gold.PLP.PLP>
-33.9930

> <Gold.PLP.part.hbond>
-4.1505

> <Gold.PLP.part.metal>
0.0000

> <Gold.PLP.part.buried>
-4.3310

> <Gold.PLP.part.nonpolar>
-26.2245

> <Gold.PLP.part.repulsive>
0.3903

> <Gold.PLP.ligand.clash>
0.0000

> <Gold.PLP.ligand.torsion>
1.1579

> <Gold.PLP.Chemscore.Hbond>
4.9225

> <Gold.PLP.Chemscore.CHOScore>
0.0000

> <Gold.PLP.Chemscore.Metal>
0.0000

> <Gold.Chemscore.Hbonds>
donor molecule, donor type, donor heavy atom, donor atom, acceptor molecule, acceptor atom, score
      L1  H     3    24       P1 10747  0.64
      L1  H    11    48       P1 10737  0.05
      L1  H    17    43       P1 10747  0.88
      L1  H    21    49       P1 10186  2.00
      P1  H  6896  6907       L1     9  0.98

> <Gold.PLP.Chemscore.Internal.Correction>
0.2446

> <Gold.Rescore>
     Score         DG    S(hbond)    S(metal)    S(lipo)     H(rot)  DE(clash)    DE(int)     intcor
     19.29     -22.12       3.28        0.00      86.78       1.74       0.18       2.65       ----

> <Gold.Chemscore.Fitness>
19.2895

> <Gold.Chemscore.DG>
-22.1203

> <Gold.Chemscore.ZeroCoef>
-5.4800

> <Gold.Chemscore.Hbond>
3.2776

> <Gold.Chemscore.Metal>
0.0000

> <Gold.Chemscore.Lipo>
86.7764

> <Gold.Chemscore.Internal_Hbond>
0.0000

> <Gold.Chemscore.DEClash>
0.1837

> <Gold.Chemscore.DEInternal>
2.6471

> <Gold.Chemscore.Rot>
1.7421

> <Gold.Chemscore.Internal.Correction>
   9.000000E+99

> <Gold.Chemscore.Hbonds>
donor molecule, donor type, donor heavy atom, donor atom, acceptor molecule, acceptor atom, score
      L1  H     3    24       P1 10747  0.10
      L1  H    11    48       P1 10737  0.07
      L1  H    17    43       P1 10747  0.84
      L1  H    21    49       P1 10186  1.00
      P1  H  6896  6907       L1     9  0.86

> <Gold.Chemscore.Hbond.Weighted>
-10.9472

> <Gold.Chemscore.Metal.Weighted>
-0.0000

> <Gold.Chemscore.Lipo.Weighted>
-10.1528

> <Gold.Chemscore.Internal_Hbond.Weighted>
0.0000

> <Gold.Chemscore.DEClash.Weighted>
0.1837

> <Gold.Chemscore.DEInternal.Weighted>
2.6471

> <Gold.Chemscore.Rot.Weighted>
4.4597

> <Gold.Chemscore.Internal.Correction.Weighted>
   9.000000E+99

> <Gold.Protein.RotatedTorsions>
[ 6907 6896 6895 6894 ] final -152.00 input  -60.11 | X-H torsion
[ 7974 7965 7964 7962 ] final   28.99 input  175.53 | X-H torsion
[ 8008 7997 7996 7995 ] final -126.17 input   59.86 | X-H torsion
[ 10167 10162 10161 10158 ] final   91.18 input  -65.29 | X-H torsion
[ 10718 10713 10712 10709 ] final   39.86 input   66.30 | X-H torsion
[ 10763 10752 10751 10750 ] final   55.51 input  -60.55 | X-H torsion
[ 11005 11000 10999 10996 ] final  -76.91 input  -57.11 | X-H torsion

> <Gold.Protein.ActiveResidues>
 VAL166  LYS551  ARG553  GLY616  TRP617  ASP618  TYR619  PRO620  LYS621  CYS622 
 ASP623  PHE694  ASN695  SER759  ASP760  ASP761  ALA762  ILE779  LEU786  VAL792 
 PHE793  MET794  SER795  GLU796  ALA797  LYS798  CYS799  TRP800  GLU811  SER814 

> <Gold.Protein.RotatedAtoms>
  151.2213  133.4501  159.2600 H   0  0  0  0  0  0  0  0  0  0  0  0  # atno 6907 bound_to 6896
  151.0882  134.9900  159.8400 H   0  0  0  0  0  0  0  0  0  0  0  0  # atno 6908 bound_to 6896
  152.5432  134.2148  159.8817 H   0  0  0  0  0  0  0  0  0  0  0  0  # atno 6909 bound_to 6896
  146.1697  139.6982  142.8976 H   0  0  0  0  0  0  0  0  0  0  0  0  # atno 7974 bound_to 7965
  155.2253  140.0423  157.2954 H   0  0  0  0  0  0  0  0  0  0  0  0  # atno 8008 bound_to 7997
  154.5923  140.2430  155.7874 H   0  0  0  0  0  0  0  0  0  0  0  0  # atno 8009 bound_to 7997
  156.2267  140.2952  156.0094 H   0  0  0  0  0  0  0  0  0  0  0  0  # atno 8010 bound_to 7997
  139.8400  144.6646  150.9295 H   0  0  0  0  0  0  0  0  0  0  0  0  # atno 10167 bound_to 10162
  157.3754  130.7724  149.7151 H   0  0  0  0  0  0  0  0  0  0  0  0  # atno 10718 bound_to 10713
  152.9818  135.5708  154.5078 H   0  0  0  0  0  0  0  0  0  0  0  0  # atno 10763 bound_to 10752
  154.4587  135.2781  155.1731 H   0  0  0  0  0  0  0  0  0  0  0  0  # atno 10764 bound_to 10752
  154.3328  135.6246  153.5613 H   0  0  0  0  0  0  0  0  0  0  0  0  # atno 10765 bound_to 10752
  141.1657  133.7002  156.7741 H   0  0  0  0  0  0  0  0  0  0  0  0  # atno 11005 bound_to 11000
  145.4373  141.0420  143.2877 LP  0  0  0  0  0  0  0  0  0  0  0  0  # atno 17320 bound_to 7965
  144.8145  139.5902  143.7014 LP  0  0  0  0  0  0  0  0  0  0  0  0  # atno 17321 bound_to 7965
  140.7799  143.3921  151.1291 LP  0  0  0  0  0  0  0  0  0  0  0  0  # atno 17342 bound_to 10162
  139.7568  143.8695  152.3091 LP  0  0  0  0  0  0  0  0  0  0  0  0  # atno 17343 bound_to 10162
  155.9764  130.4076  150.3780 LP  0  0  0  0  0  0  0  0  0  0  0  0  # atno 17370 bound_to 10713
  157.1877  131.0407  151.2716 LP  0  0  0  0  0  0  0  0  0  0  0  0  # atno 17371 bound_to 10713
  140.2442  134.8590  157.3604 LP  0  0  0  0  0  0  0  0  0  0  0  0  # atno 17394 bound_to 11000
  140.1766  134.4542  155.7798 LP  0  0  0  0  0  0  0  0  0  0  0  0  # atno 17395 bound_to 11000

$$$$
