AV-unprocessed.smi:1180|AV-procd|sdf|4962|dock7
  -GOLD-   22720 3553D 1   1.00000     0.00000
 Structure written by MMmdl.
 38 39  0  0  0  0  0  0  0  0  1 V2000
  147.3162  141.6291  153.4932 C   0  0  0  0  0  0  0  0  0  0  0  0
  148.0946  141.0947  154.6757 C   0  0  0  0  0  0  0  0  0  0  0  0
  149.2727  140.4563  154.3245 N   0  0  0  0  0  0  0  0  0  0  0  0
  150.0527  139.9316  155.3398 C   0  0  0  0  0  0  0  0  0  0  0  0
  151.3244  139.2476  154.8692 C   0  0  0  0  0  0  0  0  0  0  0  0
  149.6806  140.0431  156.6403 C   0  0  0  0  0  0  0  0  0  0  0  0
  150.5155  139.4869  157.7934 C   0  0  0  0  0  0  0  0  0  0  0  0
  151.9002  140.1108  157.9905 C   0  0  0  0  0  0  0  0  0  0  0  0
  152.7923  139.9403  157.1589 O   0  0  0  0  0  0  0  0  0  0  0  0
  152.0626  140.8398  159.1044 N   0  0  0  0  0  0  0  0  0  0  0  0
  153.2886  141.5354  159.4809 C   0  0  0  0  0  0  0  0  0  0  0  0
  153.0889  143.0612  159.5632 C   0  0  2  0  0  0  0  0  0  0  0  0
  152.5239  143.5414  160.8949 C   0  0  0  0  0  0  0  0  0  0  0  0
  151.5616  144.6724  160.5154 C   0  0  0  0  0  0  0  0  0  0  0  0
  151.7474  144.8792  159.1220 O   0  0  0  0  0  0  0  0  0  0  0  0
  152.0952  143.6298  158.5516 C   0  0  0  0  0  0  0  0  0  0  0  0
  148.4149  140.7468  156.9550 C   0  0  0  0  0  0  0  0  0  0  0  0
  148.0327  140.8954  158.1150 O   0  0  0  0  0  0  0  0  0  0  0  0
  147.6547  141.2516  155.8873 N   0  0  0  0  0  0  0  0  0  0  0  0
  149.5887  140.3546  153.3708 H   0  0  0  0  0  0  0  0  0  0  0  0
  146.3193  141.9514  153.7964 H   0  0  0  0  0  0  0  0  0  0  0  0
  147.2068  140.8612  152.7267 H   0  0  0  0  0  0  0  0  0  0  0  0
  147.8335  142.4843  153.0572 H   0  0  0  0  0  0  0  0  0  0  0  0
  151.3073  138.1896  155.1318 H   0  0  0  0  0  0  0  0  0  0  0  0
  152.1983  139.7048  155.3337 H   0  0  0  0  0  0  0  0  0  0  0  0
  151.4437  139.3218  153.7875 H   0  0  0  0  0  0  0  0  0  0  0  0
  150.6561  138.4171  157.6393 H   0  0  0  0  0  0  0  0  0  0  0  0
  149.9599  139.5611  158.7292 H   0  0  0  0  0  0  0  0  0  0  0  0
  151.2775  140.9267  159.7335 H   0  0  0  0  0  0  0  0  0  0  0  0
  153.6098  141.1476  160.4481 H   0  0  0  0  0  0  0  0  0  0  0  0
  154.0844  141.2955  158.7738 H   0  0  0  0  0  0  0  0  0  0  0  0
  154.0463  143.5617  159.4083 H   0  0  0  0  0  0  0  0  0  0  0  0
  151.9836  142.7510  161.4175 H   0  0  0  0  0  0  0  0  0  0  0  0
  153.3202  143.8897  161.5539 H   0  0  0  0  0  0  0  0  0  0  0  0
  150.5288  144.3728  160.6988 H   0  0  0  0  0  0  0  0  0  0  0  0
  151.7528  145.5892  161.0735 H   0  0  0  0  0  0  0  0  0  0  0  0
  152.5268  143.7490  157.5574 H   0  0  0  0  0  0  0  0  0  0  0  0
  151.2058  143.0025  158.4707 H   0  0  0  0  0  0  0  0  0  0  0  0
  1 21  1  0  0  0  0
  1 22  1  0  0  0  0
  1 23  1  0  0  0  0
  1  2  1  0  0  0  0
  2  3  1  0  0  0  0
  2 19  2  0  0  0  0
  3  4  1  0  0  0  0
  3 20  1  0  0  0  0
  4  6  2  0  0  0  0
  4  5  1  0  0  0  0
  5 24  1  0  0  0  0
  5 25  1  0  0  0  0
  5 26  1  0  0  0  0
  6 17  1  0  0  0  0
  6  7  1  0  0  0  0
  7  8  1  0  0  0  0
  7 27  1  0  0  0  0
  7 28  1  0  0  0  0
  8  9  2  0  0  0  0
  8 10  1  0  0  0  0
 10 11  1  0  0  0  0
 10 29  1  0  0  0  0
 11 12  1  0  0  0  0
 11 30  1  0  0  0  0
 11 31  1  0  0  0  0
 12 16  1  0  0  0  0
 12 13  1  0  0  0  0
 12 32  1  0  0  0  0
 13 14  1  0  0  0  0
 13 33  1  0  0  0  0
 13 34  1  0  0  0  0
 14 15  1  0  0  0  0
 14 35  1  0  0  0  0
 14 36  1  0  0  0  0
 15 16  1  0  0  0  0
 16 37  1  0  0  0  0
 16 38  1  0  0  0  0
 17 18  2  0  0  0  0
 17 19  1  0  0  0  0
M  END
> <s_m_source_file>
AV-unprocessed.smi

> <i_m_source_file_index>
1180

> <i_lp_mmshare_version>
43012

> <i_f3d_flags>
0

> <s_epik_input>
W0NIM11jMW5jKFtDSDNdKWMoYyg9TylbbkhdMSlbQ0gyXUMoPU8pW05IXVtDSDJdW0NAQEhdMltDSDJdW0NIMl1PW0NIMl0y

> <s_epik_cmdline>
J2VwaWtfcHl0aG9uJywgJy1waCcsICc3LjAnLCAnLXRuJywgJzgnLCAnLW1hJywgJzIwMCcsICctbWV0YWxfYmluZGluZycsICctaW1hZScsICc8aW5maWxlLm1hZT4nLCAnLW9tYWUnLCAnPG91dGZpbGUubWFlPic=

> <r_lp_tautomer_probability>
0.156392

> <r_epik_Ionization_Penalty>
0.014237

> <r_epik_Ionization_Penalty_Charging>
0.0141173

> <r_epik_Ionization_Penalty_Neutral>
0.000119724

> <r_epik_State_Penalty>
1.52876

> <r_epik_Charging_Adjusted_Penalty>
1.54288

> <i_epik_Tot_Q>
0

> <i_epik_Tot_abs_Q>
0

> <r_epik_Metal_State_Penalty>
1.70686

> <b_epik_Metal_Only>
0

> <s_lp_Force_Field>
OPLS_2005

> <r_lp_Energy>
24.076

> <b_lp_Chiralities_Consistent>
1

> <s_lp_Variant>
AV-unprocessed.smi:1180-3

> <Gold.Version>
5.8.1

> <Gold.Id.Protein>
6NUR|6NUR_protein|mol2

> <Gold.PLP.Fitness>
40.7084

> <Gold.PLP.PLP>
-35.4934

> <Gold.PLP.part.hbond>
-2.1062

> <Gold.PLP.part.metal>
0.0000

> <Gold.PLP.part.buried>
-5.1990

> <Gold.PLP.part.nonpolar>
-27.3312

> <Gold.PLP.part.repulsive>
0.4656

> <Gold.PLP.ligand.clash>
0.0000

> <Gold.PLP.ligand.torsion>
0.3581

> <Gold.PLP.Chemscore.Hbond>
1.9750

> <Gold.PLP.Chemscore.CHOScore>
0.0000

> <Gold.PLP.Chemscore.Metal>
0.0000

> <Gold.Chemscore.Hbonds>
donor molecule, donor type, donor heavy atom, donor atom, acceptor molecule, acceptor atom, score
      L1  H     3    20       P1  7957  0.50
      P1  H  7997  8009       L1     9  0.96

> <Gold.PLP.Chemscore.Internal.Correction>
0.0062

> <Gold.Rescore>
     Score         DG    S(hbond)    S(metal)    S(lipo)     H(rot)  DE(clash)    DE(int)     intcor
     15.75     -17.75       1.99        0.00      87.48       1.81       0.16       1.85       ----

> <Gold.Chemscore.Fitness>
15.7468

> <Gold.Chemscore.DG>
-17.7495

> <Gold.Chemscore.ZeroCoef>
-5.4800

> <Gold.Chemscore.Hbond>
1.9935

> <Gold.Chemscore.Metal>
0.0000

> <Gold.Chemscore.Lipo>
87.4844

> <Gold.Chemscore.Internal_Hbond>
0.0000

> <Gold.Chemscore.DEClash>
0.1568

> <Gold.Chemscore.DEInternal>
1.8458

> <Gold.Chemscore.Rot>
1.8065

> <Gold.Chemscore.Internal.Correction>
   9.000000E+99

> <Gold.Chemscore.Hbonds>
donor molecule, donor type, donor heavy atom, donor atom, acceptor molecule, acceptor atom, score
      L1  H     3    20       P1  7957  0.50
      P1  H  7997  8009       L1     9  0.92

> <Gold.Chemscore.Hbond.Weighted>
-6.6584

> <Gold.Chemscore.Metal.Weighted>
-0.0000

> <Gold.Chemscore.Lipo.Weighted>
-10.2357

> <Gold.Chemscore.Internal_Hbond.Weighted>
0.0000

> <Gold.Chemscore.DEClash.Weighted>
0.1568

> <Gold.Chemscore.DEInternal.Weighted>
1.8458

> <Gold.Chemscore.Rot.Weighted>
4.6246

> <Gold.Chemscore.Internal.Correction.Weighted>
   9.000000E+99

> <Gold.Protein.RotatedTorsions>
[ 6907 6896 6895 6894 ] final  -35.26 input  -60.11 | X-H torsion
[ 7974 7965 7964 7962 ] final  156.62 input  175.53 | X-H torsion
[ 8008 7997 7996 7995 ] final -164.21 input   59.86 | X-H torsion
[ 10167 10162 10161 10158 ] final  159.08 input  -65.29 | X-H torsion
[ 10718 10713 10712 10709 ] final   -0.10 input   66.30 | X-H torsion
[ 10763 10752 10751 10750 ] final  -71.87 input  -60.55 | X-H torsion
[ 11005 11000 10999 10996 ] final  170.82 input  -57.11 | X-H torsion

> <Gold.Protein.ActiveResidues>
 VAL166  LYS551  ARG553  GLY616  TRP617  ASP618  TYR619  PRO620  LYS621  CYS622 
 ASP623  PHE694  ASN695  SER759  ASP760  ASP761  ALA762  ILE779  LEU786  VAL792 
 PHE793  MET794  SER795  GLU796  ALA797  LYS798  CYS799  TRP800  GLU811  SER814 

> <Gold.Protein.RotatedAtoms>
  151.0421  134.9614  159.8166 H   0  0  0  0  0  0  0  0  0  0  0  0  # atno 6907 bound_to 6896
  152.5366  134.2645  159.8958 H   0  0  0  0  0  0  0  0  0  0  0  0  # atno 6908 bound_to 6896
  151.2658  133.4237  159.2652 H   0  0  0  0  0  0  0  0  0  0  0  0  # atno 6909 bound_to 6896
  144.7952  139.7229  143.6205 H   0  0  0  0  0  0  0  0  0  0  0  0  # atno 7974 bound_to 7965
  155.8324  140.0936  157.1784 H   0  0  0  0  0  0  0  0  0  0  0  0  # atno 8008 bound_to 7997
  154.3980  140.1416  156.3690 H   0  0  0  0  0  0  0  0  0  0  0  0  # atno 8009 bound_to 7997
  155.8152  140.3448  155.5484 H   0  0  0  0  0  0  0  0  0  0  0  0  # atno 8010 bound_to 7997
  139.4830  144.4764  151.8505 H   0  0  0  0  0  0  0  0  0  0  0  0  # atno 10167 bound_to 10162
  156.8254  130.5470  149.5692 H   0  0  0  0  0  0  0  0  0  0  0  0  # atno 10718 bound_to 10713
  154.4377  135.5948  153.6109 H   0  0  0  0  0  0  0  0  0  0  0  0  # atno 10763 bound_to 10752
  152.9803  135.5990  154.3761 H   0  0  0  0  0  0  0  0  0  0  0  0  # atno 10764 bound_to 10752
  154.3607  135.2841  155.2300 H   0  0  0  0  0  0  0  0  0  0  0  0  # atno 10765 bound_to 10752
  140.3124  134.7506  157.4001 H   0  0  0  0  0  0  0  0  0  0  0  0  # atno 11005 bound_to 11000
  146.2217  139.5649  142.9614 LP  0  0  0  0  0  0  0  0  0  0  0  0  # atno 17320 bound_to 7965
  145.5692  141.0396  143.2183 LP  0  0  0  0  0  0  0  0  0  0  0  0  # atno 17321 bound_to 7965
  140.4236  144.2210  150.5887 LP  0  0  0  0  0  0  0  0  0  0  0  0  # atno 17342 bound_to 10162
  140.4849  143.2366  151.8902 LP  0  0  0  0  0  0  0  0  0  0  0  0  # atno 17343 bound_to 10162
  156.0964  130.5936  150.9821 LP  0  0  0  0  0  0  0  0  0  0  0  0  # atno 17370 bound_to 10713
  157.6435  131.0907  150.8202 LP  0  0  0  0  0  0  0  0  0  0  0  0  # atno 17371 bound_to 10713
  140.1013  134.5469  155.8350 LP  0  0  0  0  0  0  0  0  0  0  0  0  # atno 17394 bound_to 11000
  141.2105  133.6696  156.6515 LP  0  0  0  0  0  0  0  0  0  0  0  0  # atno 17395 bound_to 11000

$$$$
