AV-unprocessed.smi:2755|AV-procd|sdf|10617|dock10
  -GOLD-   2272015 63D 1   1.00000     0.00000
 Structure written by MMmdl.
 32 32  0  0  0  0  0  0  0  0  1 V2000
  150.7019  144.6932  160.1349 C   0  0  0  0  0  0  0  0  0  0  0  0
  151.4350  144.6821  158.7890 C   0  0  0  0  0  0  0  0  0  0  0  0
  152.1536  143.3525  158.5186 C   0  0  0  0  0  0  0  0  0  0  0  0
  151.2622  142.3403  157.7852 C   0  0  0  0  0  0  0  0  0  0  0  0
  151.9795  141.0112  157.5145 C   0  0  0  0  0  0  0  0  0  0  0  0
  151.1999  140.1933  156.5973 N   0  0  0  0  0  0  0  0  0  0  0  0
  151.5425  139.9239  155.3270 C   0  0  0  0  0  0  0  0  0  0  0  0
  152.5794  140.3455  154.8159 O   0  0  0  0  0  0  0  0  0  0  0  0
  150.5945  139.0536  154.4841 C   0  0  0  0  0  0  0  0  0  0  0  0
  149.3109  139.6801  154.1526 N   0  0  0  0  0  0  0  0  0  0  0  0
  148.2896  138.8518  153.7524 N   0  0  0  0  0  0  0  0  0  0  0  0
  147.2632  139.5917  153.5205 C   0  0  0  0  0  0  0  0  0  0  0  0
  146.0240  139.1577  153.0971 N   0  0  0  0  0  0  0  0  0  0  0  0
  147.3908  141.3498  153.7488 S   0  0  0  0  0  0  0  0  0  0  0  0
  149.0752  141.0574  154.2268 C   0  0  0  0  0  0  0  0  0  0  0  0
  149.8497  141.9511  154.5639 O   0  0  0  0  0  0  0  0  0  0  0  0
  150.2038  145.6491  160.2977 H   0  0  0  0  0  0  0  0  0  0  0  0
  151.3945  144.5338  160.9618 H   0  0  0  0  0  0  0  0  0  0  0  0
  149.9431  143.9114  160.1766 H   0  0  0  0  0  0  0  0  0  0  0  0
  150.7203  144.8813  157.9897 H   0  0  0  0  0  0  0  0  0  0  0  0
  152.1569  145.4994  158.7680 H   0  0  0  0  0  0  0  0  0  0  0  0
  153.0513  143.5397  157.9281 H   0  0  0  0  0  0  0  0  0  0  0  0
  152.4893  142.9221  159.4630 H   0  0  0  0  0  0  0  0  0  0  0  0
  150.3637  142.1550  158.3754 H   0  0  0  0  0  0  0  0  0  0  0  0
  150.9282  142.7704  156.8398 H   0  0  0  0  0  0  0  0  0  0  0  0
  152.9667  141.1998  157.0893 H   0  0  0  0  0  0  0  0  0  0  0  0
  152.1263  140.4636  158.4468 H   0  0  0  0  0  0  0  0  0  0  0  0
  150.3346  139.8080  156.9475 H   0  0  0  0  0  0  0  0  0  0  0  0
  151.1083  138.7777  153.5619 H   0  0  0  0  0  0  0  0  0  0  0  0
  150.4194  138.1191  155.0199 H   0  0  0  0  0  0  0  0  0  0  0  0
  145.8038  138.1871  152.9253 H   0  0  0  0  0  0  0  0  0  0  0  0
  145.2463  139.7769  152.9193 H   0  0  0  0  0  0  0  0  0  0  0  0
  1  2  1  0  0  0  0
  1 17  1  0  0  0  0
  1 18  1  0  0  0  0
  1 19  1  0  0  0  0
  2  3  1  0  0  0  0
  2 20  1  0  0  0  0
  2 21  1  0  0  0  0
  3  4  1  0  0  0  0
  3 22  1  0  0  0  0
  3 23  1  0  0  0  0
  4  5  1  0  0  0  0
  4 24  1  0  0  0  0
  4 25  1  0  0  0  0
  5  6  1  0  0  0  0
  5 26  1  0  0  0  0
  5 27  1  0  0  0  0
  6  7  1  0  0  0  0
  6 28  1  0  0  0  0
  7  8  2  0  0  0  0
  7  9  1  0  0  0  0
  9 10  1  0  0  0  0
  9 29  1  0  0  0  0
  9 30  1  0  0  0  0
 10 15  1  0  0  0  0
 10 11  1  0  0  0  0
 11 12  2  0  0  0  0
 12 13  1  0  0  0  0
 12 14  1  0  0  0  0
 13 31  1  0  0  0  0
 13 32  1  0  0  0  0
 14 15  1  0  0  0  0
 15 16  2  0  0  0  0
M  END
> <s_m_source_file>
AV-unprocessed.smi

> <i_m_source_file_index>
2755

> <i_lp_mmshare_version>
43012

> <i_f3d_flags>
0

> <s_epik_input>
W0NIM11bQ0gyXVtDSDJdW0NIMl1bQ0gyXVtOSF1DKD1PKVtDSDJdbjFuYyhbTkgyXSlzYzE9Tw==

> <s_epik_cmdline>
J2VwaWtfcHl0aG9uJywgJy1waCcsICc3LjAnLCAnLXRuJywgJzgnLCAnLW1hJywgJzIwMCcsICctbWV0YWxfYmluZGluZycsICctaW1hZScsICc8aW5maWxlLm1hZT4nLCAnLW9tYWUnLCAnPG91dGZpbGUubWFlPic=

> <r_lp_tautomer_probability>
1

> <r_epik_Ionization_Penalty>
4.62415e-07

> <r_epik_Ionization_Penalty_Charging>
1.84682e-08

> <r_epik_Ionization_Penalty_Neutral>
4.43947e-07

> <r_epik_State_Penalty>
-0

> <r_epik_Charging_Adjusted_Penalty>
1.84682e-08

> <i_epik_Tot_Q>
0

> <i_epik_Tot_abs_Q>
0

> <r_epik_Metal_State_Penalty>
-0

> <b_epik_Metal_Only>
0

> <s_lp_Force_Field>
OPLS_2005

> <r_lp_Energy>
7.41943

> <b_lp_Chiralities_Consistent>
1

> <s_lp_Variant>
AV-unprocessed.smi:2755-1

> <Gold.Version>
5.8.1

> <Gold.Id.Protein>
6NUR|6NUR_protein|mol2

> <Gold.PLP.Fitness>
39.3508

> <Gold.PLP.PLP>
-33.5814

> <Gold.PLP.part.hbond>
-4.7755

> <Gold.PLP.part.metal>
0.0000

> <Gold.PLP.part.buried>
-2.7453

> <Gold.PLP.part.nonpolar>
-27.4726

> <Gold.PLP.part.repulsive>
0.4318

> <Gold.PLP.ligand.clash>
0.0342

> <Gold.PLP.ligand.torsion>
0.5799

> <Gold.PLP.Chemscore.Hbond>
2.3132

> <Gold.PLP.Chemscore.CHOScore>
0.0000

> <Gold.PLP.Chemscore.Metal>
0.0000

> <Gold.Chemscore.Hbonds>
donor molecule, donor type, donor heavy atom, donor atom, acceptor molecule, acceptor atom, score
      L1  H    13    32       P1 10175  1.00
      P1  H  7989  7998       L1     8  0.20
      P1  H  7997  8008       L1     8  0.67
      P1  H  8011  8017       L1    16  0.02

> <Gold.PLP.Chemscore.Internal.Correction>
0.0238

> <Gold.Rescore>
     Score         DG    S(hbond)    S(metal)    S(lipo)     H(rot)  DE(clash)    DE(int)     intcor
     10.18     -13.32       2.23        0.00      64.86       2.81       1.17       1.97       ----

> <Gold.Chemscore.Fitness>
10.1764

> <Gold.Chemscore.DG>
-13.3206

> <Gold.Chemscore.ZeroCoef>
-5.4800

> <Gold.Chemscore.Hbond>
2.2267

> <Gold.Chemscore.Metal>
0.0000

> <Gold.Chemscore.Lipo>
64.8632

> <Gold.Chemscore.Internal_Hbond>
0.0000

> <Gold.Chemscore.DEClash>
1.1724

> <Gold.Chemscore.DEInternal>
1.9718

> <Gold.Chemscore.Rot>
2.8069

> <Gold.Chemscore.Internal.Correction>
   9.000000E+99

> <Gold.Chemscore.Hbonds>
donor molecule, donor type, donor heavy atom, donor atom, acceptor molecule, acceptor atom, score
      L1  H    13    32       P1 10175  1.00
      P1  H  7989  7998       L1     8  0.01
      P1  H  7997  8008       L1     8  0.64

> <Gold.Chemscore.Hbond.Weighted>
-7.4372

> <Gold.Chemscore.Metal.Weighted>
-0.0000

> <Gold.Chemscore.Lipo.Weighted>
-7.5890

> <Gold.Chemscore.Internal_Hbond.Weighted>
0.0000

> <Gold.Chemscore.DEClash.Weighted>
1.1724

> <Gold.Chemscore.DEInternal.Weighted>
1.9718

> <Gold.Chemscore.Rot.Weighted>
7.1856

> <Gold.Chemscore.Internal.Correction.Weighted>
   9.000000E+99

> <Gold.Protein.RotatedTorsions>
[ 6907 6896 6895 6894 ] final -109.65 input  -60.11 | X-H torsion
[ 7974 7965 7964 7962 ] final -107.38 input  175.53 | X-H torsion
[ 8008 7997 7996 7995 ] final  -20.29 input   59.86 | X-H torsion
[ 10167 10162 10161 10158 ] final -117.72 input  -65.29 | X-H torsion
[ 10718 10713 10712 10709 ] final -142.21 input   66.30 | X-H torsion
[ 10763 10752 10751 10750 ] final   83.11 input  -60.55 | X-H torsion
[ 11005 11000 10999 10996 ] final  122.21 input  -57.11 | X-H torsion

> <Gold.Protein.ActiveResidues>
 VAL166  LYS551  ARG553  GLY616  TRP617  ASP618  TYR619  PRO620  LYS621  CYS622 
 ASP623  PHE694  ASN695  SER759  ASP760  ASP761  ALA762  ILE779  LEU786  VAL792 
 PHE793  MET794  SER795  GLU796  ALA797  LYS798  CYS799  TRP800  GLU811  SER814 

> <Gold.Protein.RotatedAtoms>
  150.7575  133.9498  159.3481 H   0  0  0  0  0  0  0  0  0  0  0  0  # atno 6907 bound_to 6896
  151.7414  135.0851  160.0325 H   0  0  0  0  0  0  0  0  0  0  0  0  # atno 6908 bound_to 6896
  152.3526  133.6160  159.5992 H   0  0  0  0  0  0  0  0  0  0  0  0  # atno 6909 bound_to 6896
  145.2060  140.9076  143.3342 H   0  0  0  0  0  0  0  0  0  0  0  0  # atno 7974 bound_to 7965
  154.4780  140.2066  155.9832 H   0  0  0  0  0  0  0  0  0  0  0  0  # atno 8008 bound_to 7997
  156.1120  140.3227  155.8055 H   0  0  0  0  0  0  0  0  0  0  0  0  # atno 8009 bound_to 7997
  155.4619  140.0524  157.2980 H   0  0  0  0  0  0  0  0  0  0  0  0  # atno 8010 bound_to 7997
  140.0653  143.4929  152.2010 H   0  0  0  0  0  0  0  0  0  0  0  0  # atno 10167 bound_to 10162
  156.3431  130.7648  151.1788 H   0  0  0  0  0  0  0  0  0  0  0  0  # atno 10718 bound_to 10713
  153.1261  135.4703  154.9275 H   0  0  0  0  0  0  0  0  0  0  0  0  # atno 10763 bound_to 10752
  154.7622  135.3134  154.8359 H   0  0  0  0  0  0  0  0  0  0  0  0  # atno 10764 bound_to 10752
  153.8912  135.6884  153.4814 H   0  0  0  0  0  0  0  0  0  0  0  0  # atno 10765 bound_to 10752
  139.9259  134.9640  156.8075 H   0  0  0  0  0  0  0  0  0  0  0  0  # atno 11005 bound_to 11000
  144.9902  139.3697  143.6219 LP  0  0  0  0  0  0  0  0  0  0  0  0  # atno 17320 bound_to 7965
  146.3408  139.9081  142.8784 LP  0  0  0  0  0  0  0  0  0  0  0  0  # atno 17321 bound_to 7965
  139.5869  144.7534  151.3498 LP  0  0  0  0  0  0  0  0  0  0  0  0  # atno 17342 bound_to 10162
  140.7152  143.7285  150.7642 LP  0  0  0  0  0  0  0  0  0  0  0  0  # atno 17343 bound_to 10162
  157.7450  131.0449  150.4815 LP  0  0  0  0  0  0  0  0  0  0  0  0  # atno 17370 bound_to 10713
  156.4998  130.4114  149.6359 LP  0  0  0  0  0  0  0  0  0  0  0  0  # atno 17371 bound_to 10713
  140.6339  133.9880  155.7675 LP  0  0  0  0  0  0  0  0  0  0  0  0  # atno 17394 bound_to 11000
  141.0815  134.0055  157.3378 LP  0  0  0  0  0  0  0  0  0  0  0  0  # atno 17395 bound_to 11000

$$$$
