AV-unprocessed.smi:2299|AV-procd|sdf|9230|dock3
  -GOLD-   2272012453D 1   1.00000     0.00000
 Structure written by MMmdl.
 42 43  0  0  0  0  0  0  0  0  1 V2000
  153.8237  136.3598  164.3689 C   0  0  0  0  0  0  0  0  0  0  0  0
  154.7328  136.7004  163.1786 C   0  0  0  0  0  0  0  0  0  0  0  0
  155.9356  135.7499  163.0847 C   0  0  0  0  0  0  0  0  0  0  0  0
  155.1665  138.1421  163.2090 C   0  0  0  0  0  0  0  0  0  0  0  0
  155.8652  138.6659  164.2134 N   0  0  0  0  0  0  0  0  0  0  0  0
  156.0465  139.9986  163.8711 C   0  0  0  0  0  0  0  0  0  0  0  0
  155.4469  140.2402  162.6607 C   0  0  0  0  0  0  0  0  0  0  0  0
  154.8888  139.0344  162.2320 N   0  0  0  0  0  0  0  0  0  0  0  0
  154.1400  138.7764  160.9997 C   0  0  0  0  0  0  0  0  0  0  0  0
  153.9255  140.0079  160.1145 C   0  0  0  0  0  0  0  0  0  0  0  0
  154.4371  140.0593  158.9963 O   0  0  0  0  0  0  0  0  0  0  0  0
  153.1673  140.9886  160.6299 N   0  0  0  0  0  0  0  0  0  0  0  0
  152.7970  142.2312  159.9519 C   0  0  2  0  0  0  0  0  0  0  0  0
  152.2835  143.2647  160.9792 C   0  0  0  0  0  0  0  0  0  0  0  0
  152.3820  144.7229  160.5026 C   0  0  0  0  0  0  0  0  0  0  0  0
  151.5327  145.0566  159.2672 C   0  0  0  0  0  0  0  0  0  0  0  0
  151.9812  144.3212  157.9929 C   0  0  0  0  0  0  0  0  0  0  0  0
  151.5102  142.9425  157.9461 N   0  0  0  0  0  0  0  0  0  0  0  0
  151.8229  141.9492  158.7923 C   0  0  0  0  0  0  0  0  0  0  0  0
  151.3344  140.8287  158.6471 O   0  0  0  0  0  0  0  0  0  0  0  0
  152.9459  137.0064  164.3879 H   0  0  0  0  0  0  0  0  0  0  0  0
  154.3474  136.4810  165.3178 H   0  0  0  0  0  0  0  0  0  0  0  0
  153.4731  135.3289  164.3128 H   0  0  0  0  0  0  0  0  0  0  0  0
  154.1363  136.5297  162.2842 H   0  0  0  0  0  0  0  0  0  0  0  0
  156.5344  135.9626  162.1985 H   0  0  0  0  0  0  0  0  0  0  0  0
  155.6111  134.7109  163.0219 H   0  0  0  0  0  0  0  0  0  0  0  0
  156.5852  135.8421  163.9558 H   0  0  0  0  0  0  0  0  0  0  0  0
  156.5848  140.6759  164.5176 H   0  0  0  0  0  0  0  0  0  0  0  0
  155.3823  141.1562  162.0921 H   0  0  0  0  0  0  0  0  0  0  0  0
  154.6722  138.0213  160.4199 H   0  0  0  0  0  0  0  0  0  0  0  0
  153.1708  138.3535  161.2679 H   0  0  0  0  0  0  0  0  0  0  0  0
  152.7839  140.8527  161.5544 H   0  0  0  0  0  0  0  0  0  0  0  0
  153.7064  142.6243  159.4933 H   0  0  0  0  0  0  0  0  0  0  0  0
  151.2558  143.0326  161.2628 H   0  0  0  0  0  0  0  0  0  0  0  0
  152.8665  143.1855  161.8978 H   0  0  0  0  0  0  0  0  0  0  0  0
  152.0737  145.3748  161.3208 H   0  0  0  0  0  0  0  0  0  0  0  0
  153.4256  144.9706  160.3046 H   0  0  0  0  0  0  0  0  0  0  0  0
  150.4778  144.8627  159.4670 H   0  0  0  0  0  0  0  0  0  0  0  0
  151.6094  146.1295  159.0874 H   0  0  0  0  0  0  0  0  0  0  0  0
  151.5636  144.8290  157.1232 H   0  0  0  0  0  0  0  0  0  0  0  0
  153.0653  144.3585  157.8764 H   0  0  0  0  0  0  0  0  0  0  0  0
  150.8710  142.7186  157.1971 H   0  0  0  0  0  0  0  0  0  0  0  0
  1  2  1  0  0  0  0
  1 21  1  0  0  0  0
  1 22  1  0  0  0  0
  1 23  1  0  0  0  0
  2  3  1  0  0  0  0
  2  4  1  0  0  0  0
  2 24  1  0  0  0  0
  3 25  1  0  0  0  0
  3 26  1  0  0  0  0
  3 27  1  0  0  0  0
  4  8  1  0  0  0  0
  4  5  2  0  0  0  0
  5  6  1  0  0  0  0
  6  7  2  0  0  0  0
  6 28  1  0  0  0  0
  7  8  1  0  0  0  0
  7 29  1  0  0  0  0
  8  9  1  0  0  0  0
  9 10  1  0  0  0  0
  9 30  1  0  0  0  0
  9 31  1  0  0  0  0
 10 11  2  0  0  0  0
 10 12  1  0  0  0  0
 12 13  1  0  0  0  0
 12 32  1  0  0  0  0
 13 19  1  0  0  0  0
 13 14  1  0  0  0  0
 13 33  1  0  0  0  0
 14 15  1  0  0  0  0
 14 34  1  0  0  0  0
 14 35  1  0  0  0  0
 15 16  1  0  0  0  0
 15 36  1  0  0  0  0
 15 37  1  0  0  0  0
 16 17  1  0  0  0  0
 16 38  1  0  0  0  0
 16 39  1  0  0  0  0
 17 18  1  0  0  0  0
 17 40  1  0  0  0  0
 17 41  1  0  0  0  0
 18 19  1  0  0  0  0
 18 42  1  0  0  0  0
 19 20  2  0  0  0  0
M  END
> <s_m_source_file>
AV-unprocessed.smi

> <i_m_source_file_index>
2299

> <i_lp_mmshare_version>
43012

> <i_f3d_flags>
0

> <s_epik_input>
W0NIM11bQ0hdKFtDSDNdKWMxbltjSF1bY0hdbjFbQ0gyXUMoPU8pW05IXVtDQEBIXTJbQ0gyXVtDSDJdW0NIMl1bQ0gyXVtOSF1DMj1P

> <s_epik_cmdline>
J2VwaWtfcHl0aG9uJywgJy1waCcsICc3LjAnLCAnLXRuJywgJzgnLCAnLW1hJywgJzIwMCcsICctbWV0YWxfYmluZGluZycsICctaW1hZScsICc8aW5maWxlLm1hZT4nLCAnLW9tYWUnLCAnPG91dGZpbGUubWFlPic=

> <r_lp_tautomer_probability>
1

> <r_epik_Ionization_Penalty>
0.557868

> <r_epik_Ionization_Penalty_Charging>
0.557868

> <r_epik_Ionization_Penalty_Neutral>
1.99744e-07

> <r_epik_State_Penalty>
0.568774

> <r_epik_Charging_Adjusted_Penalty>
1.12664

> <i_epik_Tot_Q>
0

> <i_epik_Tot_abs_Q>
0

> <r_epik_Metal_State_Penalty>
0.289303

> <b_epik_Metal_Only>
0

> <s_lp_Force_Field>
OPLS_2005

> <r_lp_Energy>
12.6328

> <b_lp_Chiralities_Consistent>
1

> <s_lp_Variant>
AV-unprocessed.smi:2299-3

> <Gold.Version>
5.8.1

> <Gold.Id.Protein>
6NUR|6NUR_protein|mol2

> <Gold.PLP.Fitness>
43.2828

> <Gold.PLP.PLP>
-40.6440

> <Gold.PLP.part.hbond>
-1.0000

> <Gold.PLP.part.metal>
0.0000

> <Gold.PLP.part.buried>
-4.0146

> <Gold.PLP.part.nonpolar>
-35.5816

> <Gold.PLP.part.repulsive>
0.1371

> <Gold.PLP.ligand.clash>
0.0000

> <Gold.PLP.ligand.torsion>
0.2041

> <Gold.PLP.Chemscore.Hbond>
0.9920

> <Gold.PLP.Chemscore.CHOScore>
0.0000

> <Gold.PLP.Chemscore.Metal>
0.0000

> <Gold.Chemscore.Hbonds>
donor molecule, donor type, donor heavy atom, donor atom, acceptor molecule, acceptor atom, score
      P1  H  7997  8008       L1    11  0.99

> <Gold.PLP.Chemscore.Internal.Correction>
0.0710

> <Gold.Rescore>
     Score         DG    S(hbond)    S(metal)    S(lipo)     H(rot)  DE(clash)    DE(int)     intcor
     15.98     -16.40       0.99        0.00     102.34       1.70       0.09       0.33       ----

> <Gold.Chemscore.Fitness>
15.9834

> <Gold.Chemscore.DG>
-16.4031

> <Gold.Chemscore.ZeroCoef>
-5.4800

> <Gold.Chemscore.Hbond>
0.9886

> <Gold.Chemscore.Metal>
0.0000

> <Gold.Chemscore.Lipo>
102.3444

> <Gold.Chemscore.Internal_Hbond>
0.0000

> <Gold.Chemscore.DEClash>
0.0856

> <Gold.Chemscore.DEInternal>
0.3340

> <Gold.Chemscore.Rot>
1.7004

> <Gold.Chemscore.Internal.Correction>
   9.000000E+99

> <Gold.Chemscore.Hbonds>
donor molecule, donor type, donor heavy atom, donor atom, acceptor molecule, acceptor atom, score
      P1  H  7997  8008       L1    11  0.94

> <Gold.Chemscore.Hbond.Weighted>
-3.3018

> <Gold.Chemscore.Metal.Weighted>
-0.0000

> <Gold.Chemscore.Lipo.Weighted>
-11.9743

> <Gold.Chemscore.Internal_Hbond.Weighted>
0.0000

> <Gold.Chemscore.DEClash.Weighted>
0.0856

> <Gold.Chemscore.DEInternal.Weighted>
0.3340

> <Gold.Chemscore.Rot.Weighted>
4.3530

> <Gold.Chemscore.Internal.Correction.Weighted>
   9.000000E+99

> <Gold.Protein.RotatedTorsions>
[ 6907 6896 6895 6894 ] final   99.73 input  -60.11 | X-H torsion
[ 7974 7965 7964 7962 ] final   31.73 input  175.53 | X-H torsion
[ 8008 7997 7996 7995 ] final -120.18 input   59.86 | X-H torsion
[ 10167 10162 10161 10158 ] final -174.58 input  -65.29 | X-H torsion
[ 10718 10713 10712 10709 ] final -102.40 input   66.30 | X-H torsion
[ 10763 10752 10751 10750 ] final -105.75 input  -60.55 | X-H torsion
[ 11005 11000 10999 10996 ] final  151.29 input  -57.11 | X-H torsion

> <Gold.Protein.ActiveResidues>
 VAL166  LYS551  ARG553  GLY616  TRP617  ASP618  TYR619  PRO620  LYS621  CYS622 
 ASP623  PHE694  ASN695  SER759  ASP760  ASP761  ALA762  ILE779  LEU786  VAL792 
 PHE793  MET794  SER795  GLU796  ALA797  LYS798  CYS799  TRP800  GLU811  SER814 

> <Gold.Protein.RotatedAtoms>
  152.5386  134.0384  159.8056 H   0  0  0  0  0  0  0  0  0  0  0  0  # atno 6907 bound_to 6896
  151.0544  133.5589  159.2647 H   0  0  0  0  0  0  0  0  0  0  0  0  # atno 6908 bound_to 6896
  151.2511  135.0630  159.9116 H   0  0  0  0  0  0  0  0  0  0  0  0  # atno 6909 bound_to 6896
  146.1531  139.6618  142.9085 H   0  0  0  0  0  0  0  0  0  0  0  0  # atno 7974 bound_to 7965
  155.1277  140.0399  157.2766 H   0  0  0  0  0  0  0  0  0  0  0  0  # atno 8008 bound_to 7997
  154.6566  140.2581  155.7128 H   0  0  0  0  0  0  0  0  0  0  0  0  # atno 8009 bound_to 7997
  156.2601  140.2825  156.1022 H   0  0  0  0  0  0  0  0  0  0  0  0  # atno 8010 bound_to 7997
  139.5626  144.1833  152.1262 H   0  0  0  0  0  0  0  0  0  0  0  0  # atno 10167 bound_to 10162
  156.0227  130.5418  150.7103 H   0  0  0  0  0  0  0  0  0  0  0  0  # atno 10718 bound_to 10713
  154.7967  135.4737  154.0178 H   0  0  0  0  0  0  0  0  0  0  0  0  # atno 10763 bound_to 10752
  153.1715  135.6826  153.8609 H   0  0  0  0  0  0  0  0  0  0  0  0  # atno 10764 bound_to 10752
  153.8189  135.3207  155.3386 H   0  0  0  0  0  0  0  0  0  0  0  0  # atno 10765 bound_to 10752
  140.1206  134.8866  157.2067 H   0  0  0  0  0  0  0  0  0  0  0  0  # atno 11005 bound_to 11000
  145.4774  141.0437  143.2665 LP  0  0  0  0  0  0  0  0  0  0  0  0  # atno 17320 bound_to 7965
  144.7929  139.6291  143.7105 LP  0  0  0  0  0  0  0  0  0  0  0  0  # atno 17321 bound_to 7965
  140.1349  144.5254  150.6779 LP  0  0  0  0  0  0  0  0  0  0  0  0  # atno 17342 bound_to 10162
  140.6907  143.2374  151.5139 LP  0  0  0  0  0  0  0  0  0  0  0  0  # atno 17343 bound_to 10162
  157.4743  131.0896  151.0608 LP  0  0  0  0  0  0  0  0  0  0  0  0  # atno 17370 bound_to 10713
  157.1059  130.6001  149.5470 LP  0  0  0  0  0  0  0  0  0  0  0  0  # atno 17371 bound_to 10713
  140.2970  134.3175  155.7300 LP  0  0  0  0  0  0  0  0  0  0  0  0  # atno 17394 bound_to 11000
  141.2151  133.7569  156.9586 LP  0  0  0  0  0  0  0  0  0  0  0  0  # atno 17395 bound_to 11000

$$$$
