AV-unprocessed.smi:1326|AV-procd|sdf|5476|dock9
  -GOLD-   22720 5 43D 1   1.00000     0.00000
 Structure written by MMmdl.
 38 38  0  0  0  0  0  0  0  0  2 V2000
  150.0778  135.1082  154.9283 C   0  0  0  0  0  0  0  0  0  0  0  0
  150.4299  136.5620  155.1608 C   0  0  0  0  0  0  0  0  0  0  0  0
  149.6416  137.4731  154.7327 N   0  0  0  0  0  0  0  0  0  0  0  0
  149.9636  138.8240  154.9479 C   0  0  0  0  0  0  0  0  0  0  0  0
  148.9694  139.8381  154.4098 C   0  0  0  0  0  0  0  0  0  0  0  0
  151.1035  139.1811  155.6060 C   0  0  0  0  0  0  0  0  0  0  0  0
  151.4982  140.6345  155.8694 C   0  0  0  0  0  0  0  0  0  0  0  0
  151.3194  141.1254  157.3077 C   0  0  0  0  0  0  0  0  0  0  0  0
  150.2767  141.6886  157.6409 O   0  0  0  0  0  0  0  0  0  0  0  0
  152.3335  140.8875  158.1540 N   0  0  0  0  0  0  0  0  0  0  0  0
  152.3466  141.2290  159.5708 C   0  0  0  0  0  0  0  0  0  0  0  0
  152.9333  142.6345  159.7962 C   0  0  0  0  0  0  0  0  0  0  0  0
  152.0915  143.7760  159.1907 C   0  0  0  0  0  0  0  0  0  0  0  0
  152.5282  144.1359  157.7605 C   0  0  0  0  0  0  0  0  0  0  0  0
  152.1386  145.0194  160.0918 C   0  0  0  0  0  0  0  0  0  0  0  0
  151.9894  138.1005  156.0756 C   0  0  0  0  0  0  0  0  0  0  0  0
  153.0407  138.3686  156.6563 O   0  0  0  0  0  0  0  0  0  0  0  0
  151.6053  136.8156  155.8313 N   0  5  0  0  0  0  0  0  0  0  0  0
  149.0644  135.0065  154.5373 H   0  0  0  0  0  0  0  0  0  0  0  0
  150.1396  134.5475  155.8616 H   0  0  0  0  0  0  0  0  0  0  0  0
  150.7684  134.6640  154.2111 H   0  0  0  0  0  0  0  0  0  0  0  0
  149.4623  140.5418  153.7388 H   0  0  0  0  0  0  0  0  0  0  0  0
  148.5154  140.3978  155.2278 H   0  0  0  0  0  0  0  0  0  0  0  0
  148.1688  139.3501  153.8528 H   0  0  0  0  0  0  0  0  0  0  0  0
  152.5435  140.7670  155.5899 H   0  0  0  0  0  0  0  0  0  0  0  0
  150.9528  141.3070  155.2066 H   0  0  0  0  0  0  0  0  0  0  0  0
  153.1511  140.4188  157.7894 H   0  0  0  0  0  0  0  0  0  0  0  0
  151.3180  141.1818  159.9268 H   0  0  0  0  0  0  0  0  0  0  0  0
  152.9069  140.4821  160.1357 H   0  0  0  0  0  0  0  0  0  0  0  0
  153.0239  142.8006  160.8709 H   0  0  0  0  0  0  0  0  0  0  0  0
  153.9488  142.6764  159.3994 H   0  0  0  0  0  0  0  0  0  0  0  0
  151.0528  143.4455  159.1507 H   0  0  0  0  0  0  0  0  0  0  0  0
  153.5784  144.4274  157.7285 H   0  0  0  0  0  0  0  0  0  0  0  0
  151.9421  144.9685  157.3704 H   0  0  0  0  0  0  0  0  0  0  0  0
  152.3918  143.3002  157.0750 H   0  0  0  0  0  0  0  0  0  0  0  0
  153.1554  145.4029  160.1849 H   0  0  0  0  0  0  0  0  0  0  0  0
  151.7750  144.7937  161.0947 H   0  0  0  0  0  0  0  0  0  0  0  0
  151.5164  145.8201  159.6915 H   0  0  0  0  0  0  0  0  0  0  0  0
  1  2  1  0  0  0  0
  1 19  1  0  0  0  0
  1 20  1  0  0  0  0
  1 21  1  0  0  0  0
  2 18  1  0  0  0  0
  2  3  2  0  0  0  0
  3  4  1  0  0  0  0
  4  5  1  0  0  0  0
  4  6  2  0  0  0  0
  5 22  1  0  0  0  0
  5 23  1  0  0  0  0
  5 24  1  0  0  0  0
  6  7  1  0  0  0  0
  6 16  1  0  0  0  0
  7  8  1  0  0  0  0
  7 25  1  0  0  0  0
  7 26  1  0  0  0  0
  8  9  2  0  0  0  0
  8 10  1  0  0  0  0
 10 11  1  0  0  0  0
 10 27  1  0  0  0  0
 11 12  1  0  0  0  0
 11 28  1  0  0  0  0
 11 29  1  0  0  0  0
 12 13  1  0  0  0  0
 12 30  1  0  0  0  0
 12 31  1  0  0  0  0
 13 14  1  0  0  0  0
 13 15  1  0  0  0  0
 13 32  1  0  0  0  0
 14 33  1  0  0  0  0
 14 34  1  0  0  0  0
 14 35  1  0  0  0  0
 15 36  1  0  0  0  0
 15 37  1  0  0  0  0
 15 38  1  0  0  0  0
 16 17  2  0  0  0  0
 16 18  1  0  0  0  0
M  CHG  1  18  -1
M  END
> <s_m_source_file>
AV-unprocessed.smi

> <i_m_source_file_index>
1326

> <i_lp_mmshare_version>
43012

> <i_f3d_flags>
0

> <s_epik_input>
W0NIM11jMW5jKFtDSDNdKWMoYyg9TylbbkhdMSlbQ0gyXUMoPU8pW05IXVtDSDJdW0NIMl1bQ0hdKFtDSDNdKVtDSDNd

> <s_epik_cmdline>
J2VwaWtfcHl0aG9uJywgJy1waCcsICc3LjAnLCAnLXRuJywgJzgnLCAnLW1hJywgJzIwMCcsICctbWV0YWxfYmluZGluZycsICctaW1hZScsICc8aW5maWxlLm1hZT4nLCAnLW9tYWUnLCAnPG91dGZpbGUubWFlPic=

> <r_lp_tautomer_probability>
0.839158

> <r_epik_Ionization_Penalty>
6.68288

> <r_epik_Ionization_Penalty_Charging>
7.3825e-08

> <r_epik_Ionization_Penalty_Neutral>
6.68288

> <r_epik_State_Penalty>
4.52336

> <r_epik_Charging_Adjusted_Penalty>
4.52336

> <i_epik_Tot_Q>
-1

> <i_epik_Tot_abs_Q>
1

> <r_epik_Metal_State_Penalty>
0.854958

> <b_epik_Metal_Only>
1

> <s_lp_Force_Field>
OPLS_2005

> <r_lp_Energy>
8.11969

> <b_lp_Chiralities_Consistent>
1

> <s_lp_Variant>
AV-unprocessed.smi:1326-3

> <Gold.Version>
5.8.1

> <Gold.Id.Protein>
6NUR|6NUR_protein|mol2

> <Gold.PLP.Fitness>
44.2528

> <Gold.PLP.PLP>
-37.6450

> <Gold.PLP.part.hbond>
-2.0000

> <Gold.PLP.part.metal>
0.0000

> <Gold.PLP.part.buried>
-5.1501

> <Gold.PLP.part.nonpolar>
-32.1860

> <Gold.PLP.part.repulsive>
0.3735

> <Gold.PLP.ligand.clash>
0.0000

> <Gold.PLP.ligand.torsion>
1.1843

> <Gold.PLP.Chemscore.Hbond>
2.9840

> <Gold.PLP.Chemscore.CHOScore>
0.0000

> <Gold.PLP.Chemscore.Metal>
0.0000

> <Gold.Chemscore.Hbonds>
donor molecule, donor type, donor heavy atom, donor atom, acceptor molecule, acceptor atom, score
      P1  H  7997  8009       L1    17  0.65
      P1  H 10752 10763       L1    18  1.40

> <Gold.PLP.Chemscore.Internal.Correction>
0.0244

> <Gold.Rescore>
     Score         DG    S(hbond)    S(metal)    S(lipo)     H(rot)  DE(clash)    DE(int)     intcor
     14.30     -15.93       1.38        0.00      89.86       1.83       0.16       1.46       ----

> <Gold.Chemscore.Fitness>
14.3038

> <Gold.Chemscore.DG>
-15.9321

> <Gold.Chemscore.ZeroCoef>
-5.4800

> <Gold.Chemscore.Hbond>
1.3844

> <Gold.Chemscore.Metal>
0.0000

> <Gold.Chemscore.Lipo>
89.8587

> <Gold.Chemscore.Internal_Hbond>
0.0000

> <Gold.Chemscore.DEClash>
0.1644

> <Gold.Chemscore.DEInternal>
1.4639

> <Gold.Chemscore.Rot>
1.8302

> <Gold.Chemscore.Internal.Correction>
   9.000000E+99

> <Gold.Chemscore.Hbonds>
donor molecule, donor type, donor heavy atom, donor atom, acceptor molecule, acceptor atom, score
      P1  H  7997  8009       L1    17  0.61
      P1  H 10752 10763       L1    18  0.33

> <Gold.Chemscore.Hbond.Weighted>
-4.6240

> <Gold.Chemscore.Metal.Weighted>
-0.0000

> <Gold.Chemscore.Lipo.Weighted>
-10.5135

> <Gold.Chemscore.Internal_Hbond.Weighted>
0.0000

> <Gold.Chemscore.DEClash.Weighted>
0.1644

> <Gold.Chemscore.DEInternal.Weighted>
1.4639

> <Gold.Chemscore.Rot.Weighted>
4.6854

> <Gold.Chemscore.Internal.Correction.Weighted>
   9.000000E+99

> <Gold.Protein.RotatedTorsions>
[ 6907 6896 6895 6894 ] final -148.19 input  -60.11 | X-H torsion
[ 7974 7965 7964 7962 ] final -125.06 input  175.53 | X-H torsion
[ 8008 7997 7996 7995 ] final -168.01 input   59.86 | X-H torsion
[ 10167 10162 10161 10158 ] final  -37.46 input  -65.29 | X-H torsion
[ 10718 10713 10712 10709 ] final  -47.23 input   66.30 | X-H torsion
[ 10763 10752 10751 10750 ] final   81.67 input  -60.55 | X-H torsion
[ 11005 11000 10999 10996 ] final   56.91 input  -57.11 | X-H torsion

> <Gold.Protein.ActiveResidues>
 VAL166  LYS551  ARG553  GLY616  TRP617  ASP618  TYR619  PRO620  LYS621  CYS622 
 ASP623  PHE694  ASN695  SER759  ASP760  ASP761  ALA762  ILE779  LEU786  VAL792 
 PHE793  MET794  SER795  GLU796  ALA797  LYS798  CYS799  TRP800  GLU811  SER814 

> <Gold.Protein.RotatedAtoms>
  151.1662  133.4813  159.2593 H   0  0  0  0  0  0  0  0  0  0  0  0  # atno 6907 bound_to 6896
  151.1403  135.0175  159.8632 H   0  0  0  0  0  0  0  0  0  0  0  0  # atno 6908 bound_to 6896
  152.5462  134.1557  159.8590 H   0  0  0  0  0  0  0  0  0  0  0  0  # atno 6909 bound_to 6896
  145.0015  140.7825  143.4493 H   0  0  0  0  0  0  0  0  0  0  0  0  # atno 7974 bound_to 7965
  155.8855  140.1016  157.1455 H   0  0  0  0  0  0  0  0  0  0  0  0  # atno 8008 bound_to 7997
  154.4009  140.1321  156.4313 H   0  0  0  0  0  0  0  0  0  0  0  0  # atno 8009 bound_to 7997
  155.7594  140.3463  155.5192 H   0  0  0  0  0  0  0  0  0  0  0  0  # atno 8010 bound_to 7997
  140.7117  143.3340  151.2504 H   0  0  0  0  0  0  0  0  0  0  0  0  # atno 10167 bound_to 10162
  156.2105  130.4160  149.9121 H   0  0  0  0  0  0  0  0  0  0  0  0  # atno 10718 bound_to 10713
  153.1137  135.4756  154.9079 H   0  0  0  0  0  0  0  0  0  0  0  0  # atno 10763 bound_to 10752
  154.7507  135.3105  154.8566 H   0  0  0  0  0  0  0  0  0  0  0  0  # atno 10764 bound_to 10752
  153.9148  135.6861  153.4803 H   0  0  0  0  0  0  0  0  0  0  0  0  # atno 10765 bound_to 10752
  140.0492  134.5761  155.9284 H   0  0  0  0  0  0  0  0  0  0  0  0  # atno 11005 bound_to 11000
  145.2146  139.2188  143.5125 LP  0  0  0  0  0  0  0  0  0  0  0  0  # atno 17320 bound_to 7965
  146.3453  140.1991  142.8589 LP  0  0  0  0  0  0  0  0  0  0  0  0  # atno 17321 bound_to 7965
  139.6830  143.9821  152.2819 LP  0  0  0  0  0  0  0  0  0  0  0  0  # atno 17342 bound_to 10162
  139.9457  144.6653  150.8221 LP  0  0  0  0  0  0  0  0  0  0  0  0  # atno 17343 bound_to 10162
  156.6800  130.8854  151.3574 LP  0  0  0  0  0  0  0  0  0  0  0  0  # atno 17370 bound_to 10713
  157.7036  130.9360  150.0860 LP  0  0  0  0  0  0  0  0  0  0  0  0  # atno 17371 bound_to 10713
  141.1922  133.6574  156.5491 LP  0  0  0  0  0  0  0  0  0  0  0  0  # atno 17394 bound_to 11000
  140.3944  134.7412  157.4741 LP  0  0  0  0  0  0  0  0  0  0  0  0  # atno 17395 bound_to 11000

$$$$
