AV-unprocessed.smi:821|AV-procd|sdf|3838|dock7
  -GOLD-   22720 1283D 1   1.00000     0.00000
 Structure written by MMmdl.
 44 45  0  0  0  0  0  0  0  0  1 V2000
  152.6721  139.1853  154.7337 C   0  0  0  0  0  0  0  0  0  0  0  0
  151.8016  138.1088  155.4047 C   0  0  2  0  0  0  0  0  0  0  0  0
  150.4702  137.9135  154.6466 C   0  0  0  0  0  0  0  0  0  0  0  0
  149.4598  138.9466  154.8764 N   0  0  0  0  0  0  0  0  0  0  0  0
  149.8916  140.2695  154.4308 C   0  0  0  0  0  0  0  0  0  0  0  0
  148.8029  141.3346  154.6497 C   0  0  0  0  0  0  0  0  0  0  0  0
  147.6055  140.9399  153.9884 O   0  0  0  0  0  0  0  0  0  0  0  0
  147.1247  139.6765  154.4345 C   0  0  0  0  0  0  0  0  0  0  0  0
  148.2069  138.6067  154.2096 C   0  0  0  0  0  0  0  0  0  0  0  0
  151.5276  138.5037  156.7844 N   0  0  0  0  0  0  0  0  0  0  0  0
  152.4524  138.7098  157.7342 C   0  0  0  0  0  0  0  0  0  0  0  0
  153.6605  138.5640  157.5458 O   0  0  0  0  0  0  0  0  0  0  0  0
  151.9247  139.1267  159.1134 C   0  0  0  0  0  0  0  0  0  0  0  0
  152.3914  140.4629  159.5204 N   0  0  0  0  0  0  0  0  0  0  0  0
  153.4377  140.5176  160.4584 C   0  0  0  0  0  0  0  0  0  0  0  0
  153.9364  141.6833  160.8915 C   0  0  0  0  0  0  0  0  0  0  0  0
  153.3710  142.9035  160.3693 C   0  0  0  0  0  0  0  0  0  0  0  0
  152.3652  142.8829  159.4644 C   0  0  0  0  0  0  0  0  0  0  0  0
  151.7576  144.1645  158.8985 C   0  0  0  0  0  0  0  0  0  0  0  0
  152.0764  144.3063  157.6113 F   0  0  0  0  0  0  0  0  0  0  0  0
  150.4280  144.1357  158.9976 F   0  0  0  0  0  0  0  0  0  0  0  0
  152.1913  145.2466  159.5469 F   0  0  0  0  0  0  0  0  0  0  0  0
  151.8236  141.5921  158.9930 C   0  0  0  0  0  0  0  0  0  0  0  0
  150.9090  141.5220  158.1698 O   0  0  0  0  0  0  0  0  0  0  0  0
  152.9060  138.9140  153.7039 H   0  0  0  0  0  0  0  0  0  0  0  0
  153.6199  139.3143  155.2575 H   0  0  0  0  0  0  0  0  0  0  0  0
  152.1668  140.1515  154.7174 H   0  0  0  0  0  0  0  0  0  0  0  0
  152.3599  137.1704  155.3901 H   0  0  0  0  0  0  0  0  0  0  0  0
  150.6546  137.7939  153.5775 H   0  0  0  0  0  0  0  0  0  0  0  0
  150.0443  136.9626  154.9702 H   0  0  0  0  0  0  0  0  0  0  0  0
  150.7880  140.5745  154.9702 H   0  0  0  0  0  0  0  0  0  0  0  0
  150.1574  140.2361  153.3731 H   0  0  0  0  0  0  0  0  0  0  0  0
  148.6092  141.4753  155.7143 H   0  0  0  0  0  0  0  0  0  0  0  0
  149.1284  142.2968  154.2541 H   0  0  0  0  0  0  0  0  0  0  0  0
  146.8511  139.7349  155.4891 H   0  0  0  0  0  0  0  0  0  0  0  0
  146.2200  139.4229  153.8817 H   0  0  0  0  0  0  0  0  0  0  0  0
  148.3780  138.4895  153.1383 H   0  0  0  0  0  0  0  0  0  0  0  0
  147.8421  137.6456  154.5736 H   0  0  0  0  0  0  0  0  0  0  0  0
  150.5583  138.6397  157.0319 H   0  0  0  0  0  0  0  0  0  0  0  0
  150.8332  139.0938  159.1209 H   0  0  0  0  0  0  0  0  0  0  0  0
  152.2364  138.3713  159.8358 H   0  0  0  0  0  0  0  0  0  0  0  0
  153.8095  139.5603  160.7939 H   0  0  0  0  0  0  0  0  0  0  0  0
  154.7428  141.7090  161.6094 H   0  0  0  0  0  0  0  0  0  0  0  0
  153.7713  143.8440  160.7172 H   0  0  0  0  0  0  0  0  0  0  0  0
  1  2  1  0  0  0  0
  1 25  1  0  0  0  0
  1 26  1  0  0  0  0
  1 27  1  0  0  0  0
  2  3  1  0  0  0  0
  2 10  1  0  0  0  0
  2 28  1  0  0  0  0
  3  4  1  0  0  0  0
  3 29  1  0  0  0  0
  3 30  1  0  0  0  0
  4  9  1  0  0  0  0
  4  5  1  0  0  0  0
  5  6  1  0  0  0  0
  5 31  1  0  0  0  0
  5 32  1  0  0  0  0
  6  7  1  0  0  0  0
  6 33  1  0  0  0  0
  6 34  1  0  0  0  0
  7  8  1  0  0  0  0
  8  9  1  0  0  0  0
  8 35  1  0  0  0  0
  8 36  1  0  0  0  0
  9 37  1  0  0  0  0
  9 38  1  0  0  0  0
 10 11  1  0  0  0  0
 10 39  1  0  0  0  0
 11 12  2  0  0  0  0
 11 13  1  0  0  0  0
 13 14  1  0  0  0  0
 13 40  1  0  0  0  0
 13 41  1  0  0  0  0
 14 23  1  0  0  0  0
 14 15  1  0  0  0  0
 15 16  2  0  0  0  0
 15 42  1  0  0  0  0
 16 17  1  0  0  0  0
 16 43  1  0  0  0  0
 17 18  2  0  0  0  0
 17 44  1  0  0  0  0
 18 19  1  0  0  0  0
 18 23  1  0  0  0  0
 19 20  1  0  0  0  0
 19 21  1  0  0  0  0
 19 22  1  0  0  0  0
 23 24  2  0  0  0  0
M  END
> <s_m_source_file>
AV-unprocessed.smi

> <i_m_source_file_index>
821

> <i_lp_mmshare_version>
43012

> <i_f3d_flags>
0

> <s_epik_input>
W0NIMl0xW0NIMl1PW0NIMl1bQ0gyXU4xW0NIMl1bQ0BASF0oW0NIM10pW05IXUMoPU8pW0NIMl1uMltjSF1bY0hdW2NIXWMoQyhGKShGKUYpYzI9Tw==

> <s_epik_cmdline>
J2VwaWtfcHl0aG9uJywgJy1waCcsICc3LjAnLCAnLXRuJywgJzgnLCAnLW1hJywgJzIwMCcsICctbWV0YWxfYmluZGluZycsICctaW1hZScsICc8aW5maWxlLm1hZT4nLCAnLW9tYWUnLCAnPG91dGZpbGUubWFlPic=

> <r_lp_tautomer_probability>
1

> <r_epik_Ionization_Penalty>
0.237382

> <r_epik_Ionization_Penalty_Charging>
1.90699e-09

> <r_epik_Ionization_Penalty_Neutral>
0.237382

> <r_epik_State_Penalty>
0.228245

> <r_epik_Charging_Adjusted_Penalty>
0.228245

> <i_epik_Tot_Q>
0

> <i_epik_Tot_abs_Q>
0

> <r_epik_Metal_State_Penalty>
0.228219

> <b_epik_Metal_Only>
0

> <s_lp_Force_Field>
OPLS_2005

> <r_lp_Energy>
36.3962

> <b_lp_Chiralities_Consistent>
1

> <s_lp_Variant>
AV-unprocessed.smi:821-1

> <Gold.Version>
5.8.1

> <Gold.Id.Protein>
6NUR|6NUR_protein|mol2

> <Gold.PLP.Fitness>
51.5213

> <Gold.PLP.PLP>
-49.4962

> <Gold.PLP.part.hbond>
-1.0000

> <Gold.PLP.part.metal>
0.0000

> <Gold.PLP.part.buried>
-4.1837

> <Gold.PLP.part.nonpolar>
-45.7342

> <Gold.PLP.part.repulsive>
0.3390

> <Gold.PLP.ligand.clash>
0.0370

> <Gold.PLP.ligand.torsion>
0.6394

> <Gold.PLP.Chemscore.Hbond>
1.0000

> <Gold.PLP.Chemscore.CHOScore>
0.0000

> <Gold.PLP.Chemscore.Metal>
0.0000

> <Gold.Chemscore.Hbonds>
donor molecule, donor type, donor heavy atom, donor atom, acceptor molecule, acceptor atom, score
      P1  H  7997  8009       L1    12  1.00

> <Gold.PLP.Chemscore.Internal.Correction>
0.3410

> <Gold.Rescore>
     Score         DG    S(hbond)    S(metal)    S(lipo)     H(rot)  DE(clash)    DE(int)     intcor
     12.50     -15.63       0.98        0.00     104.53       2.09       0.23       2.90       ----

> <Gold.Chemscore.Fitness>
12.5036

> <Gold.Chemscore.DG>
-15.6273

> <Gold.Chemscore.ZeroCoef>
-5.4800

> <Gold.Chemscore.Hbond>
0.9802

> <Gold.Chemscore.Metal>
0.0000

> <Gold.Chemscore.Lipo>
104.5292

> <Gold.Chemscore.Internal_Hbond>
0.0000

> <Gold.Chemscore.DEClash>
0.2253

> <Gold.Chemscore.DEInternal>
2.8984

> <Gold.Chemscore.Rot>
2.0924

> <Gold.Chemscore.Internal.Correction>
   9.000000E+99

> <Gold.Chemscore.Hbonds>
donor molecule, donor type, donor heavy atom, donor atom, acceptor molecule, acceptor atom, score
      P1  H  7997  8009       L1    12  0.90

> <Gold.Chemscore.Hbond.Weighted>
-3.2740

> <Gold.Chemscore.Metal.Weighted>
-0.0000

> <Gold.Chemscore.Lipo.Weighted>
-12.2299

> <Gold.Chemscore.Internal_Hbond.Weighted>
0.0000

> <Gold.Chemscore.DEClash.Weighted>
0.2253

> <Gold.Chemscore.DEInternal.Weighted>
2.8984

> <Gold.Chemscore.Rot.Weighted>
5.3566

> <Gold.Chemscore.Internal.Correction.Weighted>
   9.000000E+99

> <Gold.Protein.RotatedTorsions>
[ 6907 6896 6895 6894 ] final -126.18 input  -60.11 | X-H torsion
[ 7974 7965 7964 7962 ] final  -92.87 input  175.53 | X-H torsion
[ 8008 7997 7996 7995 ] final  159.16 input   59.86 | X-H torsion
[ 10167 10162 10161 10158 ] final   83.19 input  -65.29 | X-H torsion
[ 10718 10713 10712 10709 ] final   77.74 input   66.30 | X-H torsion
[ 10763 10752 10751 10750 ] final  -84.02 input  -60.55 | X-H torsion
[ 11005 11000 10999 10996 ] final  141.97 input  -57.11 | X-H torsion

> <Gold.Protein.ActiveResidues>
 VAL166  LYS551  ARG553  GLY616  TRP617  ASP618  TYR619  PRO620  LYS621  CYS622 
 ASP623  PHE694  ASN695  SER759  ASP760  ASP761  ALA762  ILE779  LEU786  VAL792 
 PHE793  MET794  SER795  GLU796  ALA797  LYS798  CYS799  TRP800  GLU811  SER814 

> <Gold.Protein.RotatedAtoms>
  150.8943  133.7202  159.2895 H   0  0  0  0  0  0  0  0  0  0  0  0  # atno 6907 bound_to 6896
  151.4742  135.1046  159.9769 H   0  0  0  0  0  0  0  0  0  0  0  0  # atno 6908 bound_to 6896
  152.4839  133.8275  159.7141 H   0  0  0  0  0  0  0  0  0  0  0  0  # atno 6909 bound_to 6896
  145.3941  140.9531  143.2324 H   0  0  0  0  0  0  0  0  0  0  0  0  # atno 7974 bound_to 7965
  156.2257  140.1839  156.7370 H   0  0  0  0  0  0  0  0  0  0  0  0  # atno 8008 bound_to 7997
  154.5937  140.0647  156.9301 H   0  0  0  0  0  0  0  0  0  0  0  0  # atno 8009 bound_to 7997
  155.2293  140.3313  155.4308 H   0  0  0  0  0  0  0  0  0  0  0  0  # atno 8010 bound_to 7997
  139.9210  144.6212  150.8440 H   0  0  0  0  0  0  0  0  0  0  0  0  # atno 10167 bound_to 10162
  157.6721  130.9836  150.1685 H   0  0  0  0  0  0  0  0  0  0  0  0  # atno 10718 bound_to 10713
  154.5946  135.5535  153.7312 H   0  0  0  0  0  0  0  0  0  0  0  0  # atno 10763 bound_to 10752
  153.0130  135.6351  154.1801 H   0  0  0  0  0  0  0  0  0  0  0  0  # atno 10764 bound_to 10752
  154.1741  135.2890  155.3052 H   0  0  0  0  0  0  0  0  0  0  0  0  # atno 10765 bound_to 10752
  140.0441  134.9289  157.0898 H   0  0  0  0  0  0  0  0  0  0  0  0  # atno 11005 bound_to 11000
  144.8419  139.5458  143.6896 LP  0  0  0  0  0  0  0  0  0  0  0  0  # atno 17320 bound_to 7965
  146.2783  139.6811  142.9247 LP  0  0  0  0  0  0  0  0  0  0  0  0  # atno 17321 bound_to 7965
  140.7662  143.3297  151.2437 LP  0  0  0  0  0  0  0  0  0  0  0  0  # atno 17342 bound_to 10162
  139.6862  143.9770  152.2835 LP  0  0  0  0  0  0  0  0  0  0  0  0  # atno 17343 bound_to 10162
  156.2445  130.3694  149.8301 LP  0  0  0  0  0  0  0  0  0  0  0  0  # atno 17370 bound_to 10713
  156.6091  130.8579  151.3450 LP  0  0  0  0  0  0  0  0  0  0  0  0  # atno 17371 bound_to 10713
  140.4021  134.2071  155.7163 LP  0  0  0  0  0  0  0  0  0  0  0  0  # atno 17394 bound_to 11000
  141.1898  133.8230  157.0942 LP  0  0  0  0  0  0  0  0  0  0  0  0  # atno 17395 bound_to 11000

$$$$
