AV-unprocessed.smi:546|AV-procd|sdf|2883|dock10
  -GOLD-   2262023373D 1   1.00000     0.00000
 Structure written by MMmdl.
 52 54  0  0  0  0  0  0  0  0  1 V2000
  153.1251  137.8004  160.1606 C   0  0  0  0  0  0  0  0  0  0  0  0
  153.8276  137.4343  158.8514 C   0  0  0  0  0  0  0  0  0  0  0  0
  153.7220  138.5203  157.9464 O   0  0  0  0  0  0  0  0  0  0  0  0
  152.3751  138.8558  157.6528 C   0  0  0  0  0  0  0  0  0  0  0  0
  152.3342  139.9269  156.5544 C   0  0  0  0  0  0  0  0  0  0  0  0
  151.0226  140.5669  156.4673 N   0  0  0  0  0  0  0  0  0  0  0  0
  150.4757  141.5393  157.2514 C   0  0  0  0  0  0  0  0  0  0  0  0
  151.1228  142.0659  158.3722 N   0  0  0  0  0  0  0  0  0  0  0  0
  150.7819  143.3602  158.9615 C   0  0  0  0  0  0  0  0  0  0  0  0
  152.0344  144.2271  159.1962 C   0  0  1  0  0  0  0  0  0  0  0  0
  151.6681  145.6011  159.7720 C   0  0  0  0  0  0  0  0  0  0  0  0
  153.0323  143.4820  160.0986 C   0  0  0  0  0  0  0  0  0  0  0  0
  153.3212  142.0801  159.5364 C   0  0  1  0  0  0  0  0  0  0  0  0
  154.2531  141.2819  160.4571 C   0  0  0  0  0  0  0  0  0  0  0  0
  151.9918  141.3368  159.2963 C   0  0  0  0  0  0  0  0  0  0  0  0
  149.2815  141.9751  156.8381 N   0  0  0  0  0  0  0  0  0  0  0  0
  149.0282  141.1982  155.7198 C   0  0  0  0  0  0  0  0  0  0  0  0
  150.0586  140.3488  155.4808 C   0  0  0  0  0  0  0  0  0  0  0  0
  150.0676  139.4261  154.3369 C   0  0  0  0  0  0  0  0  0  0  0  0
  150.9917  138.6525  154.0959 O   0  0  0  0  0  0  0  0  0  0  0  0
  148.9535  139.5172  153.5710 N   0  0  0  0  0  0  0  0  0  0  0  0
  147.8829  140.3481  153.7561 C   0  0  0  0  0  0  0  0  0  0  0  0
  146.9396  140.3211  152.9658 O   0  0  0  0  0  0  0  0  0  0  0  0
  147.9114  141.1928  154.8360 N   0  0  0  0  0  0  0  0  0  0  0  0
  146.7943  142.1074  155.0801 C   0  0  0  0  0  0  0  0  0  0  0  0
  148.9090  138.9033  152.7707 H   0  0  0  0  0  0  0  0  0  0  0  0
  153.2179  136.9959  160.8903 H   0  0  0  0  0  0  0  0  0  0  0  0
  152.0624  137.9792  159.9964 H   0  0  0  0  0  0  0  0  0  0  0  0
  153.5554  138.7017  160.5980 H   0  0  0  0  0  0  0  0  0  0  0  0
  154.8778  137.2105  159.0441 H   0  0  0  0  0  0  0  0  0  0  0  0
  153.3713  136.5401  158.4242 H   0  0  0  0  0  0  0  0  0  0  0  0
  151.8304  137.9681  157.3283 H   0  0  0  0  0  0  0  0  0  0  0  0
  151.8817  139.2287  158.5512 H   0  0  0  0  0  0  0  0  0  0  0  0
  153.0904  140.6896  156.7372 H   0  0  0  0  0  0  0  0  0  0  0  0
  152.6102  139.4781  155.6074 H   0  0  0  0  0  0  0  0  0  0  0  0
  150.0963  143.8896  158.2984 H   0  0  0  0  0  0  0  0  0  0  0  0
  150.2454  143.2010  159.8978 H   0  0  0  0  0  0  0  0  0  0  0  0
  152.5117  144.3909  158.2302 H   0  0  0  0  0  0  0  0  0  0  0  0
  151.1793  145.5067  160.7423 H   0  0  0  0  0  0  0  0  0  0  0  0
  150.9892  146.1358  159.1072 H   0  0  0  0  0  0  0  0  0  0  0  0
  152.5559  146.2201  159.9042 H   0  0  0  0  0  0  0  0  0  0  0  0
  153.9590  144.0506  160.1841 H   0  0  0  0  0  0  0  0  0  0  0  0
  152.6226  143.3972  161.1063 H   0  0  0  0  0  0  0  0  0  0  0  0
  153.8286  142.2002  158.5784 H   0  0  0  0  0  0  0  0  0  0  0  0
  153.8024  141.1239  161.4375 H   0  0  0  0  0  0  0  0  0  0  0  0
  155.1992  141.8033  160.6049 H   0  0  0  0  0  0  0  0  0  0  0  0
  154.4785  140.3034  160.0321 H   0  0  0  0  0  0  0  0  0  0  0  0
  151.4648  141.2111  160.2432 H   0  0  0  0  0  0  0  0  0  0  0  0
  152.1689  140.3259  158.9309 H   0  0  0  0  0  0  0  0  0  0  0  0
  145.8487  141.5642  155.1122 H   0  0  0  0  0  0  0  0  0  0  0  0
  146.7330  142.8515  154.2848 H   0  0  0  0  0  0  0  0  0  0  0  0
  146.8894  142.6424  156.0249 H   0  0  0  0  0  0  0  0  0  0  0  0
  1  2  1  0  0  0  0
  1 27  1  0  0  0  0
  1 28  1  0  0  0  0
  1 29  1  0  0  0  0
  2  3  1  0  0  0  0
  2 30  1  0  0  0  0
  2 31  1  0  0  0  0
  3  4  1  0  0  0  0
  4  5  1  0  0  0  0
  4 32  1  0  0  0  0
  4 33  1  0  0  0  0
  5  6  1  0  0  0  0
  5 34  1  0  0  0  0
  5 35  1  0  0  0  0
  6 18  1  0  0  0  0
  6  7  1  0  0  0  0
  7  8  1  0  0  0  0
  7 16  2  0  0  0  0
  8 15  1  0  0  0  0
  8  9  1  0  0  0  0
  9 10  1  0  0  0  0
  9 36  1  0  0  0  0
  9 37  1  0  0  0  0
 10 11  1  0  0  0  0
 10 12  1  0  0  0  0
 10 38  1  0  0  0  0
 11 39  1  0  0  0  0
 11 40  1  0  0  0  0
 11 41  1  0  0  0  0
 12 13  1  0  0  0  0
 12 42  1  0  0  0  0
 12 43  1  0  0  0  0
 13 14  1  0  0  0  0
 13 15  1  0  0  0  0
 13 44  1  0  0  0  0
 14 45  1  0  0  0  0
 14 46  1  0  0  0  0
 14 47  1  0  0  0  0
 15 48  1  0  0  0  0
 15 49  1  0  0  0  0
 16 17  1  0  0  0  0
 17 24  1  0  0  0  0
 17 18  2  0  0  0  0
 18 19  1  0  0  0  0
 19 20  2  0  0  0  0
 19 21  1  0  0  0  0
 21 26  1  0  0  0  0
 21 22  1  0  0  0  0
 22 23  2  0  0  0  0
 22 24  1  0  0  0  0
 24 25  1  0  0  0  0
 25 50  1  0  0  0  0
 25 51  1  0  0  0  0
 25 52  1  0  0  0  0
M  END
> <s_m_source_file>
AV-unprocessed.smi

> <i_m_source_file_index>
546

> <i_lp_mmshare_version>
43012

> <i_f3d_flags>
0

> <s_epik_input>
W0NIM11uMWMoPU8pW25IXWMoPU8pYyhjMTIpbihbQ0gyXVtDSDJdT1tDSDJdW0NIM10pYyhuMilOM1tDSDJdW0NAQEhdKFtDSDNdKVtDSDJdW0NAQEhdKFtDSDNdKVtDSDJdMw==

> <s_epik_cmdline>
J2VwaWtfcHl0aG9uJywgJy1waCcsICc3LjAnLCAnLXRuJywgJzgnLCAnLW1hJywgJzIwMCcsICctbWV0YWxfYmluZGluZycsICctaW1hZScsICc8aW5maWxlLm1hZT4nLCAnLW9tYWUnLCAnPG91dGZpbGUubWFlPic=

> <r_lp_tautomer_probability>
1

> <r_epik_Ionization_Penalty>
0.000576472

> <r_epik_Ionization_Penalty_Charging>
0.000118943

> <r_epik_Ionization_Penalty_Neutral>
0.000457529

> <r_epik_State_Penalty>
-0

> <r_epik_Charging_Adjusted_Penalty>
0.000118943

> <i_epik_Tot_Q>
0

> <i_epik_Tot_abs_Q>
0

> <r_epik_Metal_State_Penalty>
0.0916165

> <b_epik_Metal_Only>
0

> <s_lp_Force_Field>
OPLS_2005

> <r_lp_Energy>
35.568

> <b_lp_Chiralities_Consistent>
1

> <s_lp_Variant>
AV-unprocessed.smi:546-1

> <Gold.Version>
5.8.1

> <Gold.Id.Protein>
6NUR|6NUR_protein|mol2

> <Gold.PLP.Fitness>
50.7707

> <Gold.PLP.PLP>
-48.3507

> <Gold.PLP.part.hbond>
-2.0857

> <Gold.PLP.part.metal>
0.0000

> <Gold.PLP.part.buried>
-3.2890

> <Gold.PLP.part.nonpolar>
-43.7187

> <Gold.PLP.part.repulsive>
1.5918

> <Gold.PLP.ligand.clash>
0.0000

> <Gold.PLP.ligand.torsion>
0.6084

> <Gold.PLP.Chemscore.Hbond>
1.1119

> <Gold.PLP.Chemscore.CHOScore>
0.0000

> <Gold.PLP.Chemscore.Metal>
0.0000

> <Gold.Chemscore.Hbonds>
donor molecule, donor type, donor heavy atom, donor atom, acceptor molecule, acceptor atom, score
      L1  H    21    26       P1  7957  0.11
      P1  H  7997  8008       L1     3  1.00

> <Gold.PLP.Chemscore.Internal.Correction>
0.3012

> <Gold.Rescore>
     Score         DG    S(hbond)    S(metal)    S(lipo)     H(rot)  DE(clash)    DE(int)     intcor
     14.97     -17.14       0.95        0.00     106.25       1.55       0.33       1.84       ----

> <Gold.Chemscore.Fitness>
14.9709

> <Gold.Chemscore.DG>
-17.1393

> <Gold.Chemscore.ZeroCoef>
-5.4800

> <Gold.Chemscore.Hbond>
0.9543

> <Gold.Chemscore.Metal>
0.0000

> <Gold.Chemscore.Lipo>
106.2479

> <Gold.Chemscore.Internal_Hbond>
0.0000

> <Gold.Chemscore.DEClash>
0.3305

> <Gold.Chemscore.DEInternal>
1.8380

> <Gold.Chemscore.Rot>
1.5465

> <Gold.Chemscore.Internal.Correction>
   9.000000E+99

> <Gold.Chemscore.Hbonds>
donor molecule, donor type, donor heavy atom, donor atom, acceptor molecule, acceptor atom, score
      L1  H    21    26       P1  7957  0.11
      P1  H  7997  8008       L1     3  0.52

> <Gold.Chemscore.Hbond.Weighted>
-3.1874

> <Gold.Chemscore.Metal.Weighted>
-0.0000

> <Gold.Chemscore.Lipo.Weighted>
-12.4310

> <Gold.Chemscore.Internal_Hbond.Weighted>
0.0000

> <Gold.Chemscore.DEClash.Weighted>
0.3305

> <Gold.Chemscore.DEInternal.Weighted>
1.8380

> <Gold.Chemscore.Rot.Weighted>
3.9591

> <Gold.Chemscore.Internal.Correction.Weighted>
   9.000000E+99

> <Gold.Protein.RotatedTorsions>
[ 6907 6896 6895 6894 ] final  135.21 input  -60.11 | X-H torsion
[ 7974 7965 7964 7962 ] final -155.59 input  175.53 | X-H torsion
[ 8008 7997 7996 7995 ] final -103.54 input   59.86 | X-H torsion
[ 10167 10162 10161 10158 ] final   82.64 input  -65.29 | X-H torsion
[ 10718 10713 10712 10709 ] final  115.62 input   66.30 | X-H torsion
[ 10763 10752 10751 10750 ] final   47.23 input  -60.55 | X-H torsion
[ 11005 11000 10999 10996 ] final   81.68 input  -57.11 | X-H torsion

> <Gold.Protein.ActiveResidues>
 VAL166  LYS551  ARG553  GLY616  TRP617  ASP618  TYR619  PRO620  LYS621  CYS622 
 ASP623  PHE694  ASN695  SER759  ASP760  ASP761  ALA762  ILE779  LEU786  VAL792 
 PHE793  MET794  SER795  GLU796  ALA797  LYS798  CYS799  TRP800  GLU811  SER814 

> <Gold.Protein.RotatedAtoms>
  152.3029  133.5673  159.5629 H   0  0  0  0  0  0  0  0  0  0  0  0  # atno 6907 bound_to 6896
  150.7286  134.0265  159.3728 H   0  0  0  0  0  0  0  0  0  0  0  0  # atno 6908 bound_to 6896
  151.8164  135.0665  160.0470 H   0  0  0  0  0  0  0  0  0  0  0  0  # atno 6909 bound_to 6896
  144.7633  140.4227  143.5961 H   0  0  0  0  0  0  0  0  0  0  0  0  # atno 7974 bound_to 7965
  154.8724  140.0422  157.1732 H   0  0  0  0  0  0  0  0  0  0  0  0  # atno 8008 bound_to 7997
  154.8725  140.2960  155.5452 H   0  0  0  0  0  0  0  0  0  0  0  0  # atno 8009 bound_to 7997
  156.2999  140.2426  156.3716 H   0  0  0  0  0  0  0  0  0  0  0  0  # atno 8010 bound_to 7997
  139.9267  144.6178  150.8386 H   0  0  0  0  0  0  0  0  0  0  0  0  # atno 10167 bound_to 10162
  157.6210  131.1015  150.7356 H   0  0  0  0  0  0  0  0  0  0  0  0  # atno 10718 bound_to 10713
  152.9802  135.5983  154.3729 H   0  0  0  0  0  0  0  0  0  0  0  0  # atno 10763 bound_to 10752
  154.3401  135.2768  155.2429 H   0  0  0  0  0  0  0  0  0  0  0  0  # atno 10764 bound_to 10752
  154.4514  135.5988  153.6249 H   0  0  0  0  0  0  0  0  0  0  0  0  # atno 10765 bound_to 10752
  139.9090  134.8014  156.2073 H   0  0  0  0  0  0  0  0  0  0  0  0  # atno 11005 bound_to 11000
  145.6551  139.1571  143.2840 LP  0  0  0  0  0  0  0  0  0  0  0  0  # atno 17320 bound_to 7965
  146.1716  140.6636  142.9230 LP  0  0  0  0  0  0  0  0  0  0  0  0  # atno 17321 bound_to 7965
  140.7648  143.3259  151.2517 LP  0  0  0  0  0  0  0  0  0  0  0  0  # atno 17342 bound_to 10162
  139.6816  143.9844  152.2812 LP  0  0  0  0  0  0  0  0  0  0  0  0  # atno 17343 bound_to 10162
  156.7714  130.4830  149.5418 LP  0  0  0  0  0  0  0  0  0  0  0  0  # atno 17370 bound_to 10713
  156.1356  130.6209  151.0396 LP  0  0  0  0  0  0  0  0  0  0  0  0  # atno 17371 bound_to 10713
  141.0487  133.6900  156.1732 LP  0  0  0  0  0  0  0  0  0  0  0  0  # atno 17394 bound_to 11000
  140.6843  134.4733  157.5589 LP  0  0  0  0  0  0  0  0  0  0  0  0  # atno 17395 bound_to 11000

$$$$
