AV-unprocessed.smi:2325|AV-procd|sdf|9295|dock2
  -GOLD-   2272012513D 1   1.00000     0.00000
 Structure written by MMmdl.
 40 41  0  0  0  0  0  0  0  0  1 V2000
  150.9531  137.5873  154.3896 C   0  0  0  0  0  0  0  0  0  0  0  0
  150.4340  136.8308  155.5126 N   0  0  0  0  0  0  0  0  0  0  0  0
  150.9123  137.0240  156.7642 N   0  0  0  0  0  0  0  0  0  0  0  0
  150.1950  136.1646  157.4885 C   0  0  0  0  0  0  0  0  0  0  0  0
  149.2789  135.4206  156.8012 N   0  0  0  0  0  0  0  0  0  0  0  0
  149.4855  135.8915  155.5753 C   0  0  0  0  0  0  0  0  0  0  0  0
  148.8025  135.4885  154.3968 N   0  0  0  0  0  0  0  0  0  0  0  0
  147.7877  134.6143  154.2920 C   0  0  0  0  0  0  0  0  0  0  0  0
  147.2882  133.9903  155.2282 O   0  0  0  0  0  0  0  0  0  0  0  0
  147.3744  134.5030  153.0219 N   0  0  0  0  0  0  0  0  0  0  0  0
  146.2708  133.6601  152.5664 C   0  0  2  0  0  0  0  0  0  0  0  0
  146.7288  132.6634  151.5203 C   0  0  0  0  0  0  0  0  0  0  0  0
  145.4364  132.3319  150.7652 C   0  0  0  0  0  0  0  0  0  0  0  0
  145.6812  132.0995  149.2666 C   0  0  0  0  0  0  0  0  0  0  0  0
  144.6917  131.1412  151.3930 C   0  0  0  0  0  0  0  0  0  0  0  0
  144.6038  133.4809  150.9148 O   0  0  0  0  0  0  0  0  0  0  0  0
  145.1562  134.4311  151.8249 C   0  0  0  0  0  0  0  0  0  0  0  0
  144.0310  134.8851  152.7683 C   0  0  0  0  0  0  0  0  0  0  0  0
  145.6607  135.6126  150.9701 C   0  0  0  0  0  0  0  0  0  0  0  0
  151.3034  136.9027  153.6166 H   0  0  0  0  0  0  0  0  0  0  0  0
  151.7848  138.2193  154.7038 H   0  0  0  0  0  0  0  0  0  0  0  0
  150.1644  138.2170  153.9772 H   0  0  0  0  0  0  0  0  0  0  0  0
  150.3377  136.0706  158.5550 H   0  0  0  0  0  0  0  0  0  0  0  0
  149.1163  135.9218  153.5412 H   0  0  0  0  0  0  0  0  0  0  0  0
  147.8442  135.0531  152.3181 H   0  0  0  0  0  0  0  0  0  0  0  0
  145.8490  133.1013  153.4043 H   0  0  0  0  0  0  0  0  0  0  0  0
  147.4493  133.1330  150.8484 H   0  0  0  0  0  0  0  0  0  0  0  0
  147.2107  131.7857  151.9528 H   0  0  0  0  0  0  0  0  0  0  0  0
  146.3368  131.2439  149.1019 H   0  0  0  0  0  0  0  0  0  0  0  0
  146.1458  132.9701  148.8025 H   0  0  0  0  0  0  0  0  0  0  0  0
  144.7457  131.9087  148.7399 H   0  0  0  0  0  0  0  0  0  0  0  0
  145.2823  130.2268  151.3270 H   0  0  0  0  0  0  0  0  0  0  0  0
  143.7433  130.9600  150.8861 H   0  0  0  0  0  0  0  0  0  0  0  0
  144.4701  131.3172  152.4459 H   0  0  0  0  0  0  0  0  0  0  0  0
  144.3894  135.6213  153.4877 H   0  0  0  0  0  0  0  0  0  0  0  0
  143.6205  134.0444  153.3282 H   0  0  0  0  0  0  0  0  0  0  0  0
  143.2108  135.3396  152.2121 H   0  0  0  0  0  0  0  0  0  0  0  0
  146.0615  136.4152  151.5899 H   0  0  0  0  0  0  0  0  0  0  0  0
  144.8508  136.0365  150.3761 H   0  0  0  0  0  0  0  0  0  0  0  0
  146.4434  135.3032  150.2772 H   0  0  0  0  0  0  0  0  0  0  0  0
  1  2  1  0  0  0  0
  1 20  1  0  0  0  0
  1 21  1  0  0  0  0
  1 22  1  0  0  0  0
  2  6  1  0  0  0  0
  2  3  1  0  0  0  0
  3  4  2  0  0  0  0
  4  5  1  0  0  0  0
  4 23  1  0  0  0  0
  5  6  2  0  0  0  0
  6  7  1  0  0  0  0
  7  8  1  0  0  0  0
  7 24  1  0  0  0  0
  8  9  2  0  0  0  0
  8 10  1  0  0  0  0
 10 11  1  0  0  0  0
 10 25  1  0  0  0  0
 11 17  1  0  0  0  0
 11 12  1  0  0  0  0
 11 26  1  0  0  0  0
 12 13  1  0  0  0  0
 12 27  1  0  0  0  0
 12 28  1  0  0  0  0
 13 14  1  0  0  0  0
 13 15  1  0  0  0  0
 13 16  1  0  0  0  0
 14 29  1  0  0  0  0
 14 30  1  0  0  0  0
 14 31  1  0  0  0  0
 15 32  1  0  0  0  0
 15 33  1  0  0  0  0
 15 34  1  0  0  0  0
 16 17  1  0  0  0  0
 17 18  1  0  0  0  0
 17 19  1  0  0  0  0
 18 35  1  0  0  0  0
 18 36  1  0  0  0  0
 18 37  1  0  0  0  0
 19 38  1  0  0  0  0
 19 39  1  0  0  0  0
 19 40  1  0  0  0  0
M  END
> <s_m_source_file>
AV-unprocessed.smi

> <i_m_source_file_index>
2325

> <i_lp_mmshare_version>
43012

> <i_f3d_flags>
0

> <s_epik_input>
W0NIM11uMW5bY0hdbmMxW05IXUMoPU8pW05IXVtDQEBIXShDKE8yKShbQ0gzXSlbQ0gzXSlbQ0gyXUMyKFtDSDNdKVtDSDNd

> <s_epik_cmdline>
J2VwaWtfcHl0aG9uJywgJy1waCcsICc3LjAnLCAnLXRuJywgJzgnLCAnLW1hJywgJzIwMCcsICctbWV0YWxfYmluZGluZycsICctaW1hZScsICc8aW5maWxlLm1hZT4nLCAnLW9tYWUnLCAnPG91dGZpbGUubWFlPic=

> <r_lp_tautomer_probability>
1

> <r_epik_Ionization_Penalty>
1.97832e-05

> <r_epik_Ionization_Penalty_Charging>
0

> <r_epik_Ionization_Penalty_Neutral>
1.97832e-05

> <r_epik_State_Penalty>
-0

> <r_epik_Charging_Adjusted_Penalty>
0

> <i_epik_Tot_Q>
0

> <i_epik_Tot_abs_Q>
0

> <r_epik_Metal_State_Penalty>
-0

> <b_epik_Metal_Only>
0

> <s_lp_Force_Field>
OPLS_2005

> <r_lp_Energy>
17.1508

> <b_lp_Chiralities_Consistent>
1

> <s_lp_Variant>
AV-unprocessed.smi:2325-1

> <Gold.Version>
5.8.1

> <Gold.Id.Protein>
6NUR|6NUR_protein|mol2

> <Gold.PLP.Fitness>
33.4832

> <Gold.PLP.PLP>
-27.4889

> <Gold.PLP.part.hbond>
-2.0000

> <Gold.PLP.part.metal>
0.0000

> <Gold.PLP.part.buried>
-2.7159

> <Gold.PLP.part.nonpolar>
-22.2993

> <Gold.PLP.part.repulsive>
0.1622

> <Gold.PLP.ligand.clash>
0.0000

> <Gold.PLP.ligand.torsion>
0.0084

> <Gold.PLP.Chemscore.Hbond>
2.0000

> <Gold.PLP.Chemscore.CHOScore>
0.0000

> <Gold.PLP.Chemscore.Metal>
0.0000

> <Gold.Chemscore.Hbonds>
donor molecule, donor type, donor heavy atom, donor atom, acceptor molecule, acceptor atom, score
      L1  H     7    24       P1  7948  1.00
      L1  H    10    25       P1  7948  1.00

> <Gold.PLP.Chemscore.Internal.Correction>
0.0111

> <Gold.Rescore>
     Score         DG    S(hbond)    S(metal)    S(lipo)     H(rot)  DE(clash)    DE(int)     intcor
     15.27     -16.53       1.89        0.00      62.38       1.00       0.01       1.25       ----

> <Gold.Chemscore.Fitness>
15.2726

> <Gold.Chemscore.DG>
-16.5306

> <Gold.Chemscore.ZeroCoef>
-5.4800

> <Gold.Chemscore.Hbond>
1.8899

> <Gold.Chemscore.Metal>
0.0000

> <Gold.Chemscore.Lipo>
62.3806

> <Gold.Chemscore.Internal_Hbond>
0.0000

> <Gold.Chemscore.DEClash>
0.0077

> <Gold.Chemscore.DEInternal>
1.2503

> <Gold.Chemscore.Rot>
1.0000

> <Gold.Chemscore.Internal.Correction>
   9.000000E+99

> <Gold.Chemscore.Hbonds>
donor molecule, donor type, donor heavy atom, donor atom, acceptor molecule, acceptor atom, score
      L1  H     7    24       P1  7948  0.82
      L1  H    10    25       P1  7948  0.88

> <Gold.Chemscore.Hbond.Weighted>
-6.3121

> <Gold.Chemscore.Metal.Weighted>
-0.0000

> <Gold.Chemscore.Lipo.Weighted>
-7.2985

> <Gold.Chemscore.Internal_Hbond.Weighted>
0.0000

> <Gold.Chemscore.DEClash.Weighted>
0.0077

> <Gold.Chemscore.DEInternal.Weighted>
1.2503

> <Gold.Chemscore.Rot.Weighted>
2.5600

> <Gold.Chemscore.Internal.Correction.Weighted>
   9.000000E+99

> <Gold.Protein.RotatedTorsions>
[ 6907 6896 6895 6894 ] final  132.83 input  -60.11 | X-H torsion
[ 7974 7965 7964 7962 ] final  163.71 input  175.53 | X-H torsion
[ 8008 7997 7996 7995 ] final -174.58 input   59.86 | X-H torsion
[ 10167 10162 10161 10158 ] final   70.29 input  -65.29 | X-H torsion
[ 10718 10713 10712 10709 ] final   15.90 input   66.30 | X-H torsion
[ 10763 10752 10751 10750 ] final   -7.50 input  -60.55 | X-H torsion
[ 11005 11000 10999 10996 ] final  143.50 input  -57.11 | X-H torsion

> <Gold.Protein.ActiveResidues>
 VAL166  LYS551  ARG553  GLY616  TRP617  ASP618  TYR619  PRO620  LYS621  CYS622 
 ASP623  PHE694  ASN695  SER759  ASP760  ASP761  ALA762  ILE779  LEU786  VAL792 
 PHE793  MET794  SER795  GLU796  ALA797  LYS798  CYS799  TRP800  GLU811  SER814 

> <Gold.Protein.RotatedAtoms>
  152.3283  133.5929  159.5791 H   0  0  0  0  0  0  0  0  0  0  0  0  # atno 6907 bound_to 6896
  150.7409  133.9907  159.3615 H   0  0  0  0  0  0  0  0  0  0  0  0  # atno 6908 bound_to 6896
  151.7784  135.0768  160.0421 H   0  0  0  0  0  0  0  0  0  0  0  0  # atno 6909 bound_to 6896
  144.7578  139.8221  143.6344 H   0  0  0  0  0  0  0  0  0  0  0  0  # atno 7974 bound_to 7965
  155.9719  140.1164  157.0804 H   0  0  0  0  0  0  0  0  0  0  0  0  # atno 8008 bound_to 7997
  154.4158  140.1161  156.5385 H   0  0  0  0  0  0  0  0  0  0  0  0  # atno 8009 bound_to 7997
  155.6585  140.3473  155.4776 H   0  0  0  0  0  0  0  0  0  0  0  0  # atno 8010 bound_to 7997
  140.0585  144.5252  150.7311 H   0  0  0  0  0  0  0  0  0  0  0  0  # atno 10167 bound_to 10162
  157.0601  130.6305  149.5784 H   0  0  0  0  0  0  0  0  0  0  0  0  # atno 10718 bound_to 10713
  153.4273  135.7011  153.6254 H   0  0  0  0  0  0  0  0  0  0  0  0  # atno 10763 bound_to 10752
  153.4683  135.3720  155.2377 H   0  0  0  0  0  0  0  0  0  0  0  0  # atno 10764 bound_to 10752
  154.8724  135.4037  154.3651 H   0  0  0  0  0  0  0  0  0  0  0  0  # atno 10765 bound_to 10752
  140.0559  134.9231  157.1099 H   0  0  0  0  0  0  0  0  0  0  0  0  # atno 11005 bound_to 11000
  146.1607  139.4720  142.9990 LP  0  0  0  0  0  0  0  0  0  0  0  0  # atno 17320 bound_to 7965
  145.6721  141.0213  143.1652 LP  0  0  0  0  0  0  0  0  0  0  0  0  # atno 17321 bound_to 7965
  140.7183  143.2565  151.4362 LP  0  0  0  0  0  0  0  0  0  0  0  0  # atno 17342 bound_to 10162
  139.5908  144.1502  152.2086 LP  0  0  0  0  0  0  0  0  0  0  0  0  # atno 17343 bound_to 10162
  155.9981  130.5054  150.7558 LP  0  0  0  0  0  0  0  0  0  0  0  0  # atno 17370 bound_to 10713
  157.4961  131.0915  151.0369 LP  0  0  0  0  0  0  0  0  0  0  0  0  # atno 17371 bound_to 10713
  140.3845  134.2251  155.7169 LP  0  0  0  0  0  0  0  0  0  0  0  0  # atno 17394 bound_to 11000
  141.1951  133.8112  157.0727 LP  0  0  0  0  0  0  0  0  0  0  0  0  # atno 17395 bound_to 11000

$$$$
