AV-unprocessed.smi:1709|AV-procd|sdf|6891|dock2
  -GOLD-   22720 8 93D 1   1.00000     0.00000
 Structure written by MMmdl.
 43 45  0  0  0  0  0  0  0  0  2 V2000
  149.7092  138.7005  154.1225 C   0  0  0  0  0  0  0  0  0  0  0  0
  150.6861  138.0747  155.1055 C   0  0  0  0  0  0  0  0  0  0  0  0
  151.5032  138.9156  155.8905 C   0  0  0  0  0  0  0  0  0  0  0  0
  152.4059  138.3402  156.8001 C   0  0  0  0  0  0  0  0  0  0  0  0
  152.4539  136.9389  156.8859 C   0  0  0  0  0  0  0  0  0  0  0  0
  151.6767  136.1281  156.1389 N   0  0  0  0  0  0  0  0  0  0  0  0
  150.7959  136.6655  155.2557 C   0  0  0  0  0  0  0  0  0  0  0  0
  149.9358  135.8836  154.4231 N   0  0  0  0  0  0  0  0  0  0  0  0
  149.2989  134.7111  154.6311 C   0  0  0  0  0  0  0  0  0  0  0  0
  149.4076  134.1124  155.6997 O   0  0  0  0  0  0  0  0  0  0  0  0
  148.5542  134.2471  153.6144 N   0  0  0  0  0  0  0  0  0  0  0  0
  147.7910  133.0035  153.6151 C   0  0  2  0  0  0  0  0  0  0  0  0
  148.6652  131.7702  153.8069 C   0  0  0  0  0  0  0  0  0  0  0  0
  147.7654  130.6508  153.2805 C   0  0  0  0  0  0  0  0  0  0  0  0
  146.9693  131.2479  152.1835 N   0  3  1  0  0  0  0  0  0  0  0  0
  145.5807  130.7361  152.0822 C   0  0  0  0  0  0  0  0  0  0  0  0
  144.8407  131.3944  150.9031 C   0  0  0  0  0  0  0  0  0  0  0  0
  144.9709  132.9321  150.8882 C   0  0  0  0  0  0  0  0  0  0  0  0
  145.7519  133.4655  152.0990 C   0  0  0  0  0  0  0  0  0  0  0  0
  147.1010  132.7304  152.2680 C   0  0  1  0  0  0  0  0  0  0  0  0
  149.7844  139.7884  154.1252 H   0  0  0  0  0  0  0  0  0  0  0  0
  148.6841  138.4349  154.3823 H   0  0  0  0  0  0  0  0  0  0  0  0
  149.9114  138.3551  153.1083 H   0  0  0  0  0  0  0  0  0  0  0  0
  151.4409  139.9902  155.7990 H   0  0  0  0  0  0  0  0  0  0  0  0
  153.0443  138.9568  157.4154 H   0  0  0  0  0  0  0  0  0  0  0  0
  153.1330  136.4550  157.5719 H   0  0  0  0  0  0  0  0  0  0  0  0
  149.7821  136.2788  153.5069 H   0  0  0  0  0  0  0  0  0  0  0  0
  148.5213  134.8035  152.7712 H   0  0  0  0  0  0  0  0  0  0  0  0
  147.0491  133.0145  154.4165 H   0  0  0  0  0  0  0  0  0  0  0  0
  149.5676  131.8424  153.1975 H   0  0  0  0  0  0  0  0  0  0  0  0
  148.9662  131.6182  154.8441 H   0  0  0  0  0  0  0  0  0  0  0  0
  148.3330  129.7863  152.9355 H   0  0  0  0  0  0  0  0  0  0  0  0
  147.1038  130.3167  154.0814 H   0  0  0  0  0  0  0  0  0  0  0  0
  145.6003  129.6533  151.9531 H   0  0  0  0  0  0  0  0  0  0  0  0
  145.0486  130.9308  153.0147 H   0  0  0  0  0  0  0  0  0  0  0  0
  145.2292  130.9958  149.9651 H   0  0  0  0  0  0  0  0  0  0  0  0
  143.7881  131.1115  150.9343 H   0  0  0  0  0  0  0  0  0  0  0  0
  145.4797  133.2383  149.9734 H   0  0  0  0  0  0  0  0  0  0  0  0
  143.9830  133.3926  150.8521 H   0  0  0  0  0  0  0  0  0  0  0  0
  145.9201  134.5370  151.9882 H   0  0  0  0  0  0  0  0  0  0  0  0
  145.1451  133.3477  152.9980 H   0  0  0  0  0  0  0  0  0  0  0  0
  147.7682  133.0196  151.4541 H   0  0  0  0  0  0  0  0  0  0  0  0
  147.4276  130.9882  151.3217 H   0  0  0  0  0  0  0  0  0  0  0  0
  1  2  1  0  0  0  0
  1 21  1  0  0  0  0
  1 22  1  0  0  0  0
  1 23  1  0  0  0  0
  2  7  1  0  0  0  0
  2  3  2  0  0  0  0
  3  4  1  0  0  0  0
  3 24  1  0  0  0  0
  4  5  2  0  0  0  0
  4 25  1  0  0  0  0
  5  6  1  0  0  0  0
  5 26  1  0  0  0  0
  6  7  2  0  0  0  0
  7  8  1  0  0  0  0
  8  9  1  0  0  0  0
  8 27  1  0  0  0  0
  9 10  2  0  0  0  0
  9 11  1  0  0  0  0
 11 12  1  0  0  0  0
 11 28  1  0  0  0  0
 12 20  1  0  0  0  0
 12 13  1  0  0  0  0
 12 29  1  0  0  0  0
 13 14  1  0  0  0  0
 13 30  1  0  0  0  0
 13 31  1  0  0  0  0
 14 15  1  0  0  0  0
 14 32  1  0  0  0  0
 14 33  1  0  0  0  0
 15 20  1  0  0  0  0
 15 16  1  0  0  0  0
 15 43  1  0  0  0  0
 16 17  1  0  0  0  0
 16 34  1  0  0  0  0
 16 35  1  0  0  0  0
 17 18  1  0  0  0  0
 17 36  1  0  0  0  0
 17 37  1  0  0  0  0
 18 19  1  0  0  0  0
 18 38  1  0  0  0  0
 18 39  1  0  0  0  0
 19 20  1  0  0  0  0
 19 40  1  0  0  0  0
 19 41  1  0  0  0  0
 20 42  1  0  0  0  0
M  CHG  1  15   1
M  END
> <s_m_source_file>
AV-unprocessed.smi

> <i_m_source_file_index>
1709

> <i_lp_mmshare_version>
43012

> <i_f3d_flags>
0

> <s_epik_input>
W0NIM11jMVtjSF1bY0hdW2NIXW5jMVtOSF1DKD1PKVtOSF1bQ0BIXShbQ0gyXVtDSDJdMilbQ0BASF0oTjIzKVtDSDJdW0NIMl1bQ0gyXVtDSDJdMw==

> <s_epik_cmdline>
J2VwaWtfcHl0aG9uJywgJy1waCcsICc3LjAnLCAnLXRuJywgJzgnLCAnLW1hJywgJzIwMCcsICctbWV0YWxfYmluZGluZycsICctaW1hZScsICc8aW5maWxlLm1hZT4nLCAnLW9tYWUnLCAnPG91dGZpbGUubWFlPic=

> <r_epik_Ionization_Penalty>
0.00101524

> <r_epik_Ionization_Penalty_Charging>
0.000974069

> <r_epik_Ionization_Penalty_Neutral>
4.11757e-05

> <r_epik_State_Penalty>
0.000633842

> <r_epik_Charging_Adjusted_Penalty>
0.00160791

> <i_epik_Tot_Q>
1

> <i_epik_Tot_abs_Q>
1

> <r_epik_Metal_State_Penalty>
-0

> <b_epik_Metal_Only>
0

> <s_lp_Force_Field>
OPLS_2005

> <r_lp_Energy>
44.7529

> <b_lp_Chiralities_Consistent>
1

> <s_lp_Variant>
AV-unprocessed.smi:1709-1

> <Gold.Version>
5.8.1

> <Gold.Id.Protein>
6NUR|6NUR_protein|mol2

> <Gold.PLP.Fitness>
43.7555

> <Gold.PLP.PLP>
-32.6910

> <Gold.PLP.part.hbond>
-4.6036

> <Gold.PLP.part.metal>
0.0000

> <Gold.PLP.part.buried>
-2.0534

> <Gold.PLP.part.nonpolar>
-26.2235

> <Gold.PLP.part.repulsive>
0.1043

> <Gold.PLP.ligand.clash>
0.0000

> <Gold.PLP.ligand.torsion>
0.2509

> <Gold.PLP.Chemscore.Hbond>
3.8525

> <Gold.PLP.Chemscore.CHOScore>
0.0000

> <Gold.PLP.Chemscore.Metal>
0.0000

> <Gold.Chemscore.Hbonds>
donor molecule, donor type, donor heavy atom, donor atom, acceptor molecule, acceptor atom, score
      L1  H     8    27       P1  7948  0.95
      L1  H    11    28       P1  7948  1.00
      L1  H    15    43       P1 10747  1.00
      P1  H 10752 10763       L1     6  0.86

> <Gold.PLP.Chemscore.Internal.Correction>
0.0088

> <Gold.Rescore>
     Score         DG    S(hbond)    S(metal)    S(lipo)     H(rot)  DE(clash)    DE(int)     intcor
     20.02     -20.34       2.58        0.00      75.18       1.00       0.00       0.31       ----

> <Gold.Chemscore.Fitness>
20.0218

> <Gold.Chemscore.DG>
-20.3368

> <Gold.Chemscore.ZeroCoef>
-5.4800

> <Gold.Chemscore.Hbond>
2.5812

> <Gold.Chemscore.Metal>
0.0000

> <Gold.Chemscore.Lipo>
75.1771

> <Gold.Chemscore.Internal_Hbond>
0.0000

> <Gold.Chemscore.DEClash>
0.0000

> <Gold.Chemscore.DEInternal>
0.3150

> <Gold.Chemscore.Rot>
1.0000

> <Gold.Chemscore.Internal.Correction>
   9.000000E+99

> <Gold.Chemscore.Hbonds>
donor molecule, donor type, donor heavy atom, donor atom, acceptor molecule, acceptor atom, score
      L1  H     8    27       P1  7948  0.21
      L1  H    11    28       P1  7948  0.29
      L1  H    15    43       P1 10747  0.95
      P1  H 10752 10763       L1     6  0.04

> <Gold.Chemscore.Hbond.Weighted>
-8.6210

> <Gold.Chemscore.Metal.Weighted>
-0.0000

> <Gold.Chemscore.Lipo.Weighted>
-8.7957

> <Gold.Chemscore.Internal_Hbond.Weighted>
0.0000

> <Gold.Chemscore.DEClash.Weighted>
0.0000

> <Gold.Chemscore.DEInternal.Weighted>
0.3150

> <Gold.Chemscore.Rot.Weighted>
2.5600

> <Gold.Chemscore.Internal.Correction.Weighted>
   9.000000E+99

> <Gold.Protein.RotatedTorsions>
[ 6907 6896 6895 6894 ] final -106.55 input  -60.11 | X-H torsion
[ 7974 7965 7964 7962 ] final -145.00 input  175.53 | X-H torsion
[ 8008 7997 7996 7995 ] final -121.31 input   59.86 | X-H torsion
[ 10167 10162 10161 10158 ] final  134.42 input  -65.29 | X-H torsion
[ 10718 10713 10712 10709 ] final   -4.62 input   66.30 | X-H torsion
[ 10763 10752 10751 10750 ] final   75.63 input  -60.55 | X-H torsion
[ 11005 11000 10999 10996 ] final  -22.65 input  -57.11 | X-H torsion

> <Gold.Protein.ActiveResidues>
 VAL166  LYS551  ARG553  GLY616  TRP617  ASP618  TYR619  PRO620  LYS621  CYS622 
 ASP623  PHE694  ASN695  SER759  ASP760  ASP761  ALA762  ILE779  LEU786  VAL792 
 PHE793  MET794  SER795  GLU796  ALA797  LYS798  CYS799  TRP800  GLU811  SER814 

> <Gold.Protein.RotatedAtoms>
  150.7395  133.9960  159.3622 H   0  0  0  0  0  0  0  0  0  0  0  0  # atno 6907 bound_to 6896
  151.7911  135.0733  160.0396 H   0  0  0  0  0  0  0  0  0  0  0  0  # atno 6908 bound_to 6896
  152.3207  133.5814  159.5779 H   0  0  0  0  0  0  0  0  0  0  0  0  # atno 6909 bound_to 6896
  144.8258  140.5639  143.5548 H   0  0  0  0  0  0  0  0  0  0  0  0  # atno 7974 bound_to 7965
  155.1459  140.0403  157.2809 H   0  0  0  0  0  0  0  0  0  0  0  0  # atno 8008 bound_to 7997
  154.6439  140.2553  155.7264 H   0  0  0  0  0  0  0  0  0  0  0  0  # atno 8009 bound_to 7997
  156.2545  140.2850  156.0844 H   0  0  0  0  0  0  0  0  0  0  0  0  # atno 8010 bound_to 7997
  139.5257  144.6568  151.5137 H   0  0  0  0  0  0  0  0  0  0  0  0  # atno 10167 bound_to 10162
  156.7586  130.5262  149.5789 H   0  0  0  0  0  0  0  0  0  0  0  0  # atno 10718 bound_to 10713
  153.0668  135.4981  154.8217 H   0  0  0  0  0  0  0  0  0  0  0  0  # atno 10763 bound_to 10752
  154.6965  135.2994  154.9406 H   0  0  0  0  0  0  0  0  0  0  0  0  # atno 10764 bound_to 10752
  154.0144  135.6750  153.4820 H   0  0  0  0  0  0  0  0  0  0  0  0  # atno 10765 bound_to 10752
  140.8677  133.7743  156.0149 H   0  0  0  0  0  0  0  0  0  0  0  0  # atno 11005 bound_to 11000
  145.5004  139.1483  143.3660 LP  0  0  0  0  0  0  0  0  0  0  0  0  # atno 17320 bound_to 7965
  146.2563  140.5144  142.8872 LP  0  0  0  0  0  0  0  0  0  0  0  0  # atno 17321 bound_to 7965
  140.6398  143.8912  150.6681 LP  0  0  0  0  0  0  0  0  0  0  0  0  # atno 17342 bound_to 10162
  140.2243  143.3784  152.1617 LP  0  0  0  0  0  0  0  0  0  0  0  0  # atno 17343 bound_to 10162
  156.1354  130.6207  151.0392 LP  0  0  0  0  0  0  0  0  0  0  0  0  # atno 17370 bound_to 10713
  157.6745  131.0854  150.7530 LP  0  0  0  0  0  0  0  0  0  0  0  0  # atno 17371 bound_to 10713
  140.8610  134.2841  157.5234 LP  0  0  0  0  0  0  0  0  0  0  0  0  # atno 17394 bound_to 11000
  139.8710  134.9518  156.4095 LP  0  0  0  0  0  0  0  0  0  0  0  0  # atno 17395 bound_to 11000

$$$$
