AV-unprocessed.smi:2505|AV-procd|sdf|9860|dock6
  -GOLD-   2272013493D 1   1.00000     0.00000
 Structure written by MMmdl.
 48 52  0  0  0  0  0  0  0  0  1 V2000
  151.2168  135.3871  155.5286 O   0  0  0  0  0  0  0  0  0  0  0  0
  150.3263  135.5867  154.7060 C   0  0  0  0  0  0  0  0  0  0  0  0
  149.9232  136.8010  154.2878 N   0  0  0  0  0  0  0  0  0  0  0  0
  150.2637  138.0814  154.7993 C   0  0  0  0  0  0  0  0  0  0  0  0
  150.0758  139.3130  154.1244 C   0  0  0  0  0  0  0  0  0  0  0  0
  150.4459  140.4881  154.6776 N   0  0  0  0  0  0  0  0  0  0  0  0
  151.0120  140.4387  155.8863 C   0  0  0  0  0  0  0  0  0  0  0  0
  151.3771  141.7494  156.5113 C   0  0  0  0  0  0  0  0  0  0  0  0
  151.9673  141.8070  157.9056 C   0  0  0  0  0  0  0  0  0  0  0  0
  150.5712  142.3098  157.6652 C   0  0  0  0  0  0  0  0  0  0  0  0
  151.2360  139.3424  156.6160 N   0  0  0  0  0  0  0  0  0  0  0  0
  150.8691  138.1630  156.0707 C   0  0  0  0  0  0  0  0  0  0  0  0
  149.6799  134.5651  154.1195 N   0  0  0  0  0  0  0  0  0  0  0  0
  149.8704  133.1306  154.3415 C   0  0  1  0  0  0  0  0  0  0  0  0
  149.9820  132.8032  155.8308 C   0  0  2  0  0  0  0  0  0  0  0  0
  151.0822  132.3330  156.7134 C   0  0  0  0  0  0  0  0  0  0  0  0
  150.2973  131.2212  157.4579 C   0  0  0  0  0  0  0  0  0  0  0  0
  149.0500  131.0654  156.7380 O   0  0  0  0  0  0  0  0  0  0  0  0
  149.3585  131.4858  155.4242 C   0  0  1  0  0  0  0  0  0  0  0  0
  148.5371  132.2840  154.3911 C   0  0  0  0  0  0  0  0  0  0  0  0
  147.2221  132.9409  154.8491 C   0  0  0  0  0  0  0  0  0  0  0  0
  146.3579  133.1211  153.6051 C   0  0  0  0  0  0  0  0  0  0  0  0
  146.7051  131.9220  152.7318 C   0  0  0  0  0  0  0  0  0  0  0  0
  148.1363  131.5288  153.1157 C   0  0  0  0  0  0  0  0  0  0  0  0
  149.2468  136.8034  153.5381 H   0  0  0  0  0  0  0  0  0  0  0  0
  149.6465  139.3846  153.1380 H   0  0  0  0  0  0  0  0  0  0  0  0
  151.7560  142.4492  155.7690 H   0  0  0  0  0  0  0  0  0  0  0  0
  152.0749  140.8717  158.4517 H   0  0  0  0  0  0  0  0  0  0  0  0
  152.7445  142.5457  158.0899 H   0  0  0  0  0  0  0  0  0  0  0  0
  150.4129  143.3859  157.6889 H   0  0  0  0  0  0  0  0  0  0  0  0
  149.7496  141.7093  158.0511 H   0  0  0  0  0  0  0  0  0  0  0  0
  151.0605  137.2762  156.6570 H   0  0  0  0  0  0  0  0  0  0  0  0
  148.9907  134.8114  153.4239 H   0  0  0  0  0  0  0  0  0  0  0  0
  150.6703  132.6855  153.7426 H   0  0  0  0  0  0  0  0  0  0  0  0
  149.2951  133.4281  156.4097 H   0  0  0  0  0  0  0  0  0  0  0  0
  151.9196  131.9302  156.1422 H   0  0  0  0  0  0  0  0  0  0  0  0
  151.4483  133.1096  157.3854 H   0  0  0  0  0  0  0  0  0  0  0  0
  150.8567  130.2850  157.4603 H   0  0  0  0  0  0  0  0  0  0  0  0
  150.0882  131.4941  158.4926 H   0  0  0  0  0  0  0  0  0  0  0  0
  150.0590  130.7898  154.9482 H   0  0  0  0  0  0  0  0  0  0  0  0
  146.7081  132.2838  155.5519 H   0  0  0  0  0  0  0  0  0  0  0  0
  147.3618  133.8941  155.3589 H   0  0  0  0  0  0  0  0  0  0  0  0
  145.2940  133.1805  153.8359 H   0  0  0  0  0  0  0  0  0  0  0  0
  146.6375  134.0416  153.0921 H   0  0  0  0  0  0  0  0  0  0  0  0
  146.0279  131.0974  152.9578 H   0  0  0  0  0  0  0  0  0  0  0  0
  146.6067  132.1465  151.6692 H   0  0  0  0  0  0  0  0  0  0  0  0
  148.8181  131.7582  152.2973 H   0  0  0  0  0  0  0  0  0  0  0  0
  148.1948  130.4494  153.2609 H   0  0  0  0  0  0  0  0  0  0  0  0
  1  2  2  0  0  0  0
  2  3  1  0  0  0  0
  2 13  1  0  0  0  0
  3  4  1  0  0  0  0
  3 25  1  0  0  0  0
  4 12  1  0  0  0  0
  4  5  2  0  0  0  0
  5  6  1  0  0  0  0
  5 26  1  0  0  0  0
  6  7  2  0  0  0  0
  7  8  1  0  0  0  0
  7 11  1  0  0  0  0
  8 10  1  0  0  0  0
  8  9  1  0  0  0  0
  8 27  1  0  0  0  0
  9 10  1  0  0  0  0
  9 28  1  0  0  0  0
  9 29  1  0  0  0  0
 10 30  1  0  0  0  0
 10 31  1  0  0  0  0
 11 12  2  0  0  0  0
 12 32  1  0  0  0  0
 13 14  1  0  0  0  0
 13 33  1  0  0  0  0
 14 20  1  0  0  0  0
 14 15  1  0  0  0  0
 14 34  1  0  0  0  0
 15 19  1  0  0  0  0
 15 16  1  0  0  0  0
 15 35  1  0  0  0  0
 16 17  1  0  0  0  0
 16 36  1  0  0  0  0
 16 37  1  0  0  0  0
 17 18  1  0  0  0  0
 17 38  1  0  0  0  0
 17 39  1  0  0  0  0
 18 19  1  0  0  0  0
 19 20  1  0  0  0  0
 19 40  1  0  0  0  0
 20 24  1  0  0  0  0
 20 21  1  0  0  0  0
 21 22  1  0  0  0  0
 21 41  1  0  0  0  0
 21 42  1  0  0  0  0
 22 23  1  0  0  0  0
 22 43  1  0  0  0  0
 22 44  1  0  0  0  0
 23 24  1  0  0  0  0
 23 45  1  0  0  0  0
 23 46  1  0  0  0  0
 24 47  1  0  0  0  0
 24 48  1  0  0  0  0
M  END
> <s_m_source_file>
AV-unprocessed.smi

> <i_m_source_file_index>
2505

> <i_lp_mmshare_version>
43012

> <i_f3d_flags>
0

> <s_epik_input>
W0NIMl0xW0NIMl1bQ0hdMWMobltjSF0yKW5bY0hdYzJbTkhdQyg9TylbTkhdW0NAQEhdM1tDQEBIXShbQ0gyXVtDSDJdTzQpW0NASF00QzM1W0NIMl1bQ0gyXVtDSDJdW0NIMl01

> <s_epik_cmdline>
J2VwaWtfcHl0aG9uJywgJy1waCcsICc3LjAnLCAnLXRuJywgJzgnLCAnLW1hJywgJzIwMCcsICctbWV0YWxfYmluZGluZycsICctaW1hZScsICc8aW5maWxlLm1hZT4nLCAnLW9tYWUnLCAnPG91dGZpbGUubWFlPic=

> <r_lp_tautomer_probability>
1

> <r_epik_Ionization_Penalty>
2.6075e-05

> <r_epik_Ionization_Penalty_Charging>
0

> <r_epik_Ionization_Penalty_Neutral>
2.6075e-05

> <r_epik_State_Penalty>
-0

> <r_epik_Charging_Adjusted_Penalty>
0

> <i_epik_Tot_Q>
0

> <i_epik_Tot_abs_Q>
0

> <r_epik_Metal_State_Penalty>
-0

> <b_epik_Metal_Only>
0

> <s_lp_Force_Field>
OPLS_2005

> <r_lp_Energy>
84.9225

> <b_lp_Chiralities_Consistent>
1

> <s_lp_Variant>
AV-unprocessed.smi:2505-8

> <Gold.Version>
5.8.1

> <Gold.Id.Protein>
6NUR|6NUR_protein|mol2

> <Gold.PLP.Fitness>
44.0847

> <Gold.PLP.PLP>
-31.8716

> <Gold.PLP.part.hbond>
-4.3777

> <Gold.PLP.part.metal>
0.0000

> <Gold.PLP.part.buried>
-1.2534

> <Gold.PLP.part.nonpolar>
-25.2754

> <Gold.PLP.part.repulsive>
0.2426

> <Gold.PLP.ligand.clash>
0.0000

> <Gold.PLP.ligand.torsion>
0.4254

> <Gold.PLP.Chemscore.Hbond>
3.2209

> <Gold.PLP.Chemscore.CHOScore>
1.0000

> <Gold.PLP.Chemscore.Metal>
0.0000

> <Gold.Chemscore.Hbonds>
donor molecule, donor type, donor heavy atom, donor atom, acceptor molecule, acceptor atom, score
      L1  H     3    25       P1  7948  0.83
      L1  H    13    33       P1  7948  0.56
      P1  H  7989  7998       L1     6  0.80
      P1  H 10752 10764       L1     1  1.00
      L1  C     5    26       P1  7957  1.00

> <Gold.PLP.Chemscore.Internal.Correction>
0.4012

> <Gold.Rescore>
     Score         DG    S(hbond)    S(metal)    S(lipo)     H(rot)  DE(clash)    DE(int)     intcor
     15.70     -18.99       1.90        0.00      86.81       1.17       0.34       2.94       ----

> <Gold.Chemscore.Fitness>
15.7049

> <Gold.Chemscore.DG>
-18.9860

> <Gold.Chemscore.ZeroCoef>
-5.4800

> <Gold.Chemscore.Hbond>
1.9030

> <Gold.Chemscore.Metal>
0.0000

> <Gold.Chemscore.Lipo>
86.8081

> <Gold.Chemscore.Internal_Hbond>
0.0000

> <Gold.Chemscore.DEClash>
0.3388

> <Gold.Chemscore.DEInternal>
2.9423

> <Gold.Chemscore.Rot>
1.1744

> <Gold.Chemscore.Internal.Correction>
   9.000000E+99

> <Gold.Chemscore.Hbonds>
donor molecule, donor type, donor heavy atom, donor atom, acceptor molecule, acceptor atom, score
      L1  H     3    25       P1  7948  0.81
      L1  H    13    33       P1  7948  0.12
      P1  H  7989  7998       L1     6  0.08
      P1  H 10752 10764       L1     1  0.91

> <Gold.Chemscore.Hbond.Weighted>
-6.3559

> <Gold.Chemscore.Metal.Weighted>
-0.0000

> <Gold.Chemscore.Lipo.Weighted>
-10.1565

> <Gold.Chemscore.Internal_Hbond.Weighted>
0.0000

> <Gold.Chemscore.DEClash.Weighted>
0.3388

> <Gold.Chemscore.DEInternal.Weighted>
2.9423

> <Gold.Chemscore.Rot.Weighted>
3.0064

> <Gold.Chemscore.Internal.Correction.Weighted>
   9.000000E+99

> <Gold.Protein.RotatedTorsions>
[ 6907 6896 6895 6894 ] final   40.35 input  -60.11 | X-H torsion
[ 7974 7965 7964 7962 ] final   45.38 input  175.53 | X-H torsion
[ 8008 7997 7996 7995 ] final  -59.51 input   59.86 | X-H torsion
[ 10167 10162 10161 10158 ] final -130.05 input  -65.29 | X-H torsion
[ 10718 10713 10712 10709 ] final  130.78 input   66.30 | X-H torsion
[ 10763 10752 10751 10750 ] final  -42.40 input  -60.55 | X-H torsion
[ 11005 11000 10999 10996 ] final  125.59 input  -57.11 | X-H torsion

> <Gold.Protein.ActiveResidues>
 VAL166  LYS551  ARG553  GLY616  TRP617  ASP618  TYR619  PRO620  LYS621  CYS622 
 ASP623  PHE694  ASN695  SER759  ASP760  ASP761  ALA762  ILE779  LEU786  VAL792 
 PHE793  MET794  SER795  GLU796  ALA797  LYS798  CYS799  TRP800  GLU811  SER814 

> <Gold.Protein.RotatedAtoms>
  152.1813  134.8751  160.0525 H   0  0  0  0  0  0  0  0  0  0  0  0  # atno 6907 bound_to 6896
  151.9674  133.3710  159.4066 H   0  0  0  0  0  0  0  0  0  0  0  0  # atno 6908 bound_to 6896
  150.6918  134.4099  159.5201 H   0  0  0  0  0  0  0  0  0  0  0  0  # atno 6909 bound_to 6896
  146.0485  139.4970  142.9733 H   0  0  0  0  0  0  0  0  0  0  0  0  # atno 7974 bound_to 7965
  154.4356  140.1060  156.6127 H   0  0  0  0  0  0  0  0  0  0  0  0  # atno 8008 bound_to 7997
  155.5792  140.3490  155.4517 H   0  0  0  0  0  0  0  0  0  0  0  0  # atno 8009 bound_to 7997
  156.0331  140.1265  157.0226 H   0  0  0  0  0  0  0  0  0  0  0  0  # atno 8010 bound_to 7997
  139.9334  143.6246  152.2523 H   0  0  0  0  0  0  0  0  0  0  0  0  # atno 10167 bound_to 10162
  157.5029  131.1095  150.9401 H   0  0  0  0  0  0  0  0  0  0  0  0  # atno 10718 bound_to 10713
  153.9784  135.6720  153.4749 H   0  0  0  0  0  0  0  0  0  0  0  0  # atno 10763 bound_to 10752
  153.0760  135.4948  154.8401 H   0  0  0  0  0  0  0  0  0  0  0  0  # atno 10764 bound_to 10752
  154.7179  135.3111  154.9056 H   0  0  0  0  0  0  0  0  0  0  0  0  # atno 10765 bound_to 10752
  139.9414  134.9635  156.8581 H   0  0  0  0  0  0  0  0  0  0  0  0  # atno 11005 bound_to 11000
  145.6765  141.0202  143.1629 LP  0  0  0  0  0  0  0  0  0  0  0  0  # atno 17320 bound_to 7965
  144.7110  139.8371  143.7414 LP  0  0  0  0  0  0  0  0  0  0  0  0  # atno 17321 bound_to 7965
  139.6763  144.7658  151.1690 LP  0  0  0  0  0  0  0  0  0  0  0  0  # atno 17342 bound_to 10162
  140.7631  143.5790  150.8915 LP  0  0  0  0  0  0  0  0  0  0  0  0  # atno 17343 bound_to 10162
  157.0066  130.5620  149.5316 LP  0  0  0  0  0  0  0  0  0  0  0  0  # atno 17370 bound_to 10713
  156.0240  130.5335  150.8356 LP  0  0  0  0  0  0  0  0  0  0  0  0  # atno 17371 bound_to 10713
  140.5943  134.0232  155.7512 LP  0  0  0  0  0  0  0  0  0  0  0  0  # atno 17394 bound_to 11000
  141.1049  133.9709  157.3014 LP  0  0  0  0  0  0  0  0  0  0  0  0  # atno 17395 bound_to 11000

$$$$
