AV-unprocessed.smi:2345|AV-procd|sdf|9363|dock3
  -GOLD-   2272012583D 1   1.00000     0.00000
 Structure written by MMmdl.
 37 38  0  0  0  0  0  0  0  0  1 V2000
  146.8620  142.2155  154.3727 C   0  0  0  0  0  0  0  0  0  0  0  0
  148.2688  141.6360  154.2040 C   0  0  0  0  0  0  0  0  0  0  0  0
  148.7048  140.5434  155.5845 S   0  0  0  0  0  0  0  0  0  0  0  0
  149.8466  139.3903  154.7531 C   0  0  2  0  0  0  0  0  0  0  0  0
  149.6160  137.9253  155.1229 C   0  0  0  0  0  0  0  0  0  0  0  0
  150.8937  137.2290  154.6586 C   0  0  0  0  0  0  0  0  0  0  0  0
  152.0183  138.2533  154.8603 C   0  0  0  0  0  0  0  0  0  0  0  0
  151.3434  139.6309  155.0423 C   0  0  2  0  0  0  0  0  0  0  0  0
  151.5652  140.1445  156.3944 N   0  0  0  0  0  0  0  0  0  0  0  0
  151.3149  141.3981  156.7960 C   0  0  0  0  0  0  0  0  0  0  0  0
  150.8976  142.2832  156.0490 O   0  0  0  0  0  0  0  0  0  0  0  0
  151.6000  141.5595  158.0984 N   0  0  0  0  0  0  0  0  0  0  0  0
  151.4824  142.7527  158.8562 C   0  0  0  0  0  0  0  0  0  0  0  0
  150.6389  143.7714  158.3674 C   0  0  0  0  0  0  0  0  0  0  0  0
  150.5311  144.9702  159.1002 C   0  0  0  0  0  0  0  0  0  0  0  0
  151.2076  145.2041  160.2445 N   0  0  0  0  0  0  0  0  0  0  0  0
  152.0346  144.2368  160.6962 C   0  0  0  0  0  0  0  0  0  0  0  0
  152.2177  143.0022  160.0411 C   0  0  0  0  0  0  0  0  0  0  0  0
  153.1044  142.1047  160.5346 F   0  0  0  0  0  0  0  0  0  0  0  0
  146.6089  142.8701  153.5386 H   0  0  0  0  0  0  0  0  0  0  0  0
  146.7848  142.7996  155.2901 H   0  0  0  0  0  0  0  0  0  0  0  0
  146.1131  141.4239  154.4139 H   0  0  0  0  0  0  0  0  0  0  0  0
  148.3291  141.0763  153.2708 H   0  0  0  0  0  0  0  0  0  0  0  0
  148.9995  142.4428  154.1454 H   0  0  0  0  0  0  0  0  0  0  0  0
  149.6949  139.4979  153.6778 H   0  0  0  0  0  0  0  0  0  0  0  0
  149.5100  137.8233  156.2038 H   0  0  0  0  0  0  0  0  0  0  0  0
  148.7253  137.5049  154.6559 H   0  0  0  0  0  0  0  0  0  0  0  0
  151.0767  136.2978  155.1955 H   0  0  0  0  0  0  0  0  0  0  0  0
  150.8091  136.9854  153.5987 H   0  0  0  0  0  0  0  0  0  0  0  0
  152.6207  137.9831  155.7288 H   0  0  0  0  0  0  0  0  0  0  0  0
  152.6897  138.2562  154.0011 H   0  0  0  0  0  0  0  0  0  0  0  0
  151.7379  140.3518  154.3237 H   0  0  0  0  0  0  0  0  0  0  0  0
  151.9088  139.4844  157.0767 H   0  0  0  0  0  0  0  0  0  0  0  0
  152.0518  140.7845  158.5607 H   0  0  0  0  0  0  0  0  0  0  0  0
  150.0757  143.6372  157.4554 H   0  0  0  0  0  0  0  0  0  0  0  0
  149.8855  145.7643  158.7553 H   0  0  0  0  0  0  0  0  0  0  0  0
  152.5780  144.4589  161.6026 H   0  0  0  0  0  0  0  0  0  0  0  0
  1  2  1  0  0  0  0
  1 20  1  0  0  0  0
  1 21  1  0  0  0  0
  1 22  1  0  0  0  0
  2  3  1  0  0  0  0
  2 23  1  0  0  0  0
  2 24  1  0  0  0  0
  3  4  1  0  0  0  0
  4  8  1  0  0  0  0
  4  5  1  0  0  0  0
  4 25  1  0  0  0  0
  5  6  1  0  0  0  0
  5 26  1  0  0  0  0
  5 27  1  0  0  0  0
  6  7  1  0  0  0  0
  6 28  1  0  0  0  0
  6 29  1  0  0  0  0
  7  8  1  0  0  0  0
  7 30  1  0  0  0  0
  7 31  1  0  0  0  0
  8  9  1  0  0  0  0
  8 32  1  0  0  0  0
  9 10  1  0  0  0  0
  9 33  1  0  0  0  0
 10 11  2  0  0  0  0
 10 12  1  0  0  0  0
 12 13  1  0  0  0  0
 12 34  1  0  0  0  0
 13 18  1  0  0  0  0
 13 14  2  0  0  0  0
 14 15  1  0  0  0  0
 14 35  1  0  0  0  0
 15 16  2  0  0  0  0
 15 36  1  0  0  0  0
 16 17  1  0  0  0  0
 17 18  2  0  0  0  0
 17 37  1  0  0  0  0
 18 19  1  0  0  0  0
M  END
> <s_m_source_file>
AV-unprocessed.smi

> <i_m_source_file_index>
2345

> <i_lp_mmshare_version>
43012

> <i_f3d_flags>
0

> <s_epik_input>
W0NIM11bQ0gyXVNbQ0BASF0xW0NIMl1bQ0gyXVtDSDJdW0NASF0xW05IXUMoPU8pW05IXWMyW2NIXVtjSF1uW2NIXWMyRg==

> <s_epik_cmdline>
J2VwaWtfcHl0aG9uJywgJy1waCcsICc3LjAnLCAnLXRuJywgJzgnLCAnLW1hJywgJzIwMCcsICctbWV0YWxfYmluZGluZycsICctaW1hZScsICc8aW5maWxlLm1hZT4nLCAnLW9tYWUnLCAnPG91dGZpbGUubWFlPic=

> <r_epik_Ionization_Penalty>
0.00333745

> <r_epik_Ionization_Penalty_Charging>
0

> <r_epik_Ionization_Penalty_Neutral>
0.00333745

> <r_epik_State_Penalty>
0.00233401

> <r_epik_Charging_Adjusted_Penalty>
0.00233401

> <i_epik_Tot_Q>
0

> <i_epik_Tot_abs_Q>
0

> <r_epik_Metal_State_Penalty>
-0

> <b_epik_Metal_Only>
0

> <s_lp_Force_Field>
OPLS_2005

> <r_lp_Energy>
24.389

> <b_lp_Chiralities_Consistent>
1

> <s_lp_Variant>
AV-unprocessed.smi:2345-3

> <Gold.Version>
5.8.1

> <Gold.Id.Protein>
6NUR|6NUR_protein|mol2

> <Gold.PLP.Fitness>
40.5826

> <Gold.PLP.PLP>
-39.5517

> <Gold.PLP.part.hbond>
0.0000

> <Gold.PLP.part.metal>
0.0000

> <Gold.PLP.part.buried>
-2.9360

> <Gold.PLP.part.nonpolar>
-36.6746

> <Gold.PLP.part.repulsive>
0.4952

> <Gold.PLP.ligand.clash>
0.0000

> <Gold.PLP.ligand.torsion>
1.0654

> <Gold.PLP.Chemscore.Hbond>
0.0000

> <Gold.PLP.Chemscore.CHOScore>
0.9975

> <Gold.PLP.Chemscore.Metal>
0.0000

> <Gold.Chemscore.Hbonds>
donor molecule, donor type, donor heavy atom, donor atom, acceptor molecule, acceptor atom, score
      L1  C    15    36       P1  8029  1.00

> <Gold.PLP.Chemscore.Internal.Correction>
0.1692

> <Gold.Rescore>
     Score         DG    S(hbond)    S(metal)    S(lipo)     H(rot)  DE(clash)    DE(int)     intcor
     11.00     -14.03       0.00        0.00     102.54       1.35       0.55       2.48       ----

> <Gold.Chemscore.Fitness>
10.9993

> <Gold.Chemscore.DG>
-14.0278

> <Gold.Chemscore.ZeroCoef>
-5.4800

> <Gold.Chemscore.Hbond>
0.0000

> <Gold.Chemscore.Metal>
0.0000

> <Gold.Chemscore.Lipo>
102.5422

> <Gold.Chemscore.Internal_Hbond>
0.0000

> <Gold.Chemscore.DEClash>
0.5477

> <Gold.Chemscore.DEInternal>
2.4808

> <Gold.Chemscore.Rot>
1.3475

> <Gold.Chemscore.Internal.Correction>
   9.000000E+99

> <Gold.Chemscore.Hbond.Weighted>
-0.0000

> <Gold.Chemscore.Metal.Weighted>
-0.0000

> <Gold.Chemscore.Lipo.Weighted>
-11.9974

> <Gold.Chemscore.Internal_Hbond.Weighted>
0.0000

> <Gold.Chemscore.DEClash.Weighted>
0.5477

> <Gold.Chemscore.DEInternal.Weighted>
2.4808

> <Gold.Chemscore.Rot.Weighted>
3.4496

> <Gold.Chemscore.Internal.Correction.Weighted>
   9.000000E+99

> <Gold.Protein.RotatedTorsions>
[ 6907 6896 6895 6894 ] final   72.43 input  -60.11 | X-H torsion
[ 7974 7965 7964 7962 ] final  145.92 input  175.53 | X-H torsion
[ 8008 7997 7996 7995 ] final -162.39 input   59.86 | X-H torsion
[ 10167 10162 10161 10158 ] final -141.61 input  -65.29 | X-H torsion
[ 10718 10713 10712 10709 ] final -148.37 input   66.30 | X-H torsion
[ 10763 10752 10751 10750 ] final -105.04 input  -60.55 | X-H torsion
[ 11005 11000 10999 10996 ] final  -17.77 input  -57.11 | X-H torsion

> <Gold.Protein.ActiveResidues>
 VAL166  LYS551  ARG553  GLY616  TRP617  ASP618  TYR619  PRO620  LYS621  CYS622 
 ASP623  PHE694  ASN695  SER759  ASP760  ASP761  ALA762  ILE779  LEU786  VAL792 
 PHE793  MET794  SER795  GLU796  ALA797  LYS798  CYS799  TRP800  GLU811  SER814 

> <Gold.Protein.RotatedAtoms>
  152.4867  134.4572  159.9593 H   0  0  0  0  0  0  0  0  0  0  0  0  # atno 6907 bound_to 6896
  151.4567  133.3597  159.2811 H   0  0  0  0  0  0  0  0  0  0  0  0  # atno 6908 bound_to 6896
  150.8984  134.8419  159.7403 H   0  0  0  0  0  0  0  0  0  0  0  0  # atno 6909 bound_to 6896
  144.8713  139.5841  143.5885 H   0  0  0  0  0  0  0  0  0  0  0  0  # atno 7974 bound_to 7965
  155.8061  140.0899  157.1930 H   0  0  0  0  0  0  0  0  0  0  0  0  # atno 8008 bound_to 7997
  154.3981  140.1463  156.3391 H   0  0  0  0  0  0  0  0  0  0  0  0  # atno 8009 bound_to 7997
  155.8413  140.3438  155.5636 H   0  0  0  0  0  0  0  0  0  0  0  0  # atno 8010 bound_to 7997
  139.8168  143.7628  152.2665 H   0  0  0  0  0  0  0  0  0  0  0  0  # atno 10167 bound_to 10162
  156.4194  130.8021  151.2243 H   0  0  0  0  0  0  0  0  0  0  0  0  # atno 10718 bound_to 10713
  154.7919  135.4764  154.0073 H   0  0  0  0  0  0  0  0  0  0  0  0  # atno 10763 bound_to 10752
  153.1644  135.6814  153.8703 H   0  0  0  0  0  0  0  0  0  0  0  0  # atno 10764 bound_to 10752
  153.8306  135.3192  155.3396 H   0  0  0  0  0  0  0  0  0  0  0  0  # atno 10765 bound_to 10752
  140.8201  133.8074  155.9651 H   0  0  0  0  0  0  0  0  0  0  0  0  # atno 11005 bound_to 11000
  146.2932  139.7201  142.9145 LP  0  0  0  0  0  0  0  0  0  0  0  0  # atno 17320 bound_to 7965
  145.4125  141.0398  143.3009 LP  0  0  0  0  0  0  0  0  0  0  0  0  # atno 17321 bound_to 7965
  139.7794  144.7449  151.0110 LP  0  0  0  0  0  0  0  0  0  0  0  0  # atno 17342 bound_to 10162
  140.7815  143.4558  151.0347 LP  0  0  0  0  0  0  0  0  0  0  0  0  # atno 17343 bound_to 10162
  157.7508  131.0233  150.3827 LP  0  0  0  0  0  0  0  0  0  0  0  0  # atno 17370 bound_to 10713
  156.4142  130.3940  149.6870 LP  0  0  0  0  0  0  0  0  0  0  0  0  # atno 17371 bound_to 10713
  140.9107  134.2263  157.4987 LP  0  0  0  0  0  0  0  0  0  0  0  0  # atno 17394 bound_to 11000
  139.8709  134.9749  156.4863 LP  0  0  0  0  0  0  0  0  0  0  0  0  # atno 17395 bound_to 11000

$$$$
