AV-unprocessed.smi:3038|AV-procd|sdf|11589|dock2
  -GOLD-   2272016563D 1   1.00000     0.00000
 Structure written by MMmdl.
 37 39  0  0  0  0  0  0  0  0  2 V2000
  147.1744  131.9751  154.0873 O   0  0  0  0  0  0  0  0  0  0  0  0
  147.8425  132.8983  153.6230 C   0  0  0  0  0  0  0  0  0  0  0  0
  149.3388  132.9876  153.9290 C   0  0  0  0  0  0  0  0  0  0  0  0
  149.5818  133.0814  155.3570 N   0  0  0  0  0  0  0  0  0  0  0  0
  150.7189  133.1668  156.0505 C   0  0  0  0  0  0  0  0  0  0  0  0
  150.4929  133.2162  157.3545 N   0  0  0  0  0  0  0  0  0  0  0  0
  149.1117  133.1574  157.4375 N   0  0  0  0  0  0  0  0  0  0  0  0
  148.5654  133.0774  156.2555 N   0  0  0  0  0  0  0  0  0  0  0  0
  147.3305  133.8567  152.8338 N   0  0  0  0  0  0  0  0  0  0  0  0
  145.9316  133.9615  152.4330 C   0  0  2  0  0  0  0  0  0  0  0  0
  145.3941  132.5949  151.9695 C   0  0  0  0  0  0  0  0  0  0  0  0
  143.9539  132.7133  151.4364 C   0  0  0  0  0  0  0  0  0  0  0  0
  143.8375  133.7272  150.3568 N   0  3  2  0  0  0  0  0  0  0  0  0
  144.4006  133.2748  149.0628 C   0  0  0  0  0  0  0  0  0  0  0  0
  143.8077  133.9796  147.8648 C   0  0  0  0  0  0  0  0  0  0  0  0
  143.4029  132.5577  148.1833 C   0  0  0  0  0  0  0  0  0  0  0  0
  144.3408  135.0582  150.7838 C   0  0  0  0  0  0  0  0  0  0  0  0
  145.7908  134.9916  151.3003 C   0  0  0  0  0  0  0  0  0  0  0  0
  149.8543  132.1064  153.5447 H   0  0  0  0  0  0  0  0  0  0  0  0
  149.7672  133.8571  153.4283 H   0  0  0  0  0  0  0  0  0  0  0  0
  151.7026  133.1858  155.6050 H   0  0  0  0  0  0  0  0  0  0  0  0
  147.9574  134.5741  152.4978 H   0  0  0  0  0  0  0  0  0  0  0  0
  145.3381  134.3074  153.2817 H   0  0  0  0  0  0  0  0  0  0  0  0
  146.0422  132.1819  151.1953 H   0  0  0  0  0  0  0  0  0  0  0  0
  145.4174  131.8837  152.7961 H   0  0  0  0  0  0  0  0  0  0  0  0
  143.5998  131.7456  151.0793 H   0  0  0  0  0  0  0  0  0  0  0  0
  143.2883  133.0009  152.2512 H   0  0  0  0  0  0  0  0  0  0  0  0
  145.4467  132.9751  149.0597 H   0  0  0  0  0  0  0  0  0  0  0  0
  143.0698  134.7610  148.0376 H   0  0  0  0  0  0  0  0  0  0  0  0
  144.4526  134.1319  147.0017 H   0  0  0  0  0  0  0  0  0  0  0  0
  143.7815  131.7742  147.5299 H   0  0  0  0  0  0  0  0  0  0  0  0
  142.3968  132.3970  148.5672 H   0  0  0  0  0  0  0  0  0  0  0  0
  144.2624  135.7683  149.9598 H   0  0  0  0  0  0  0  0  0  0  0  0
  143.6904  135.4341  151.5749 H   0  0  0  0  0  0  0  0  0  0  0  0
  146.0978  135.9768  151.6540 H   0  0  0  0  0  0  0  0  0  0  0  0
  146.4644  134.7402  150.4798 H   0  0  0  0  0  0  0  0  0  0  0  0
  142.8482  133.8432  150.1884 H   0  0  0  0  0  0  0  0  0  0  0  0
  1  2  2  0  0  0  0
  2  3  1  0  0  0  0
  2  9  1  0  0  0  0
  3  4  1  0  0  0  0
  3 19  1  0  0  0  0
  3 20  1  0  0  0  0
  4  8  1  0  0  0  0
  4  5  1  0  0  0  0
  5  6  2  0  0  0  0
  5 21  1  0  0  0  0
  6  7  1  0  0  0  0
  7  8  2  0  0  0  0
  9 10  1  0  0  0  0
  9 22  1  0  0  0  0
 10 18  1  0  0  0  0
 10 11  1  0  0  0  0
 10 23  1  0  0  0  0
 11 12  1  0  0  0  0
 11 24  1  0  0  0  0
 11 25  1  0  0  0  0
 12 13  1  0  0  0  0
 12 26  1  0  0  0  0
 12 27  1  0  0  0  0
 13 14  1  0  0  0  0
 13 17  1  0  0  0  0
 13 37  1  0  0  0  0
 14 16  1  0  0  0  0
 14 15  1  0  0  0  0
 14 28  1  0  0  0  0
 15 16  1  0  0  0  0
 15 29  1  0  0  0  0
 15 30  1  0  0  0  0
 16 31  1  0  0  0  0
 16 32  1  0  0  0  0
 17 18  1  0  0  0  0
 17 33  1  0  0  0  0
 17 34  1  0  0  0  0
 18 35  1  0  0  0  0
 18 36  1  0  0  0  0
M  CHG  1  13   1
M  END
> <s_m_source_file>
AV-unprocessed.smi

> <i_m_source_file_index>
3038

> <i_lp_mmshare_version>
43012

> <i_f3d_flags>
0

> <s_epik_input>
bjFubltjSF1uMVtDSDJdQyg9TylbTkhdW0NIXTJbQ0gyXVtDSDJdTihbQ0gyXVtDSDJdMilbQ0hdM1tDSDJdW0NIMl0z

> <s_epik_cmdline>
J2VwaWtfcHl0aG9uJywgJy1waCcsICc3LjAnLCAnLXRuJywgJzgnLCAnLW1hJywgJzIwMCcsICctbWV0YWxfYmluZGluZycsICctaW1hZScsICc8aW5maWxlLm1hZT4nLCAnLW9tYWUnLCAnPG91dGZpbGUubWFlPic=

> <r_lp_tautomer_probability>
1

> <r_epik_Ionization_Penalty>
0.284275

> <r_epik_Ionization_Penalty_Charging>
0.284273

> <r_epik_Ionization_Penalty_Neutral>
2.31262e-06

> <r_epik_State_Penalty>
0.277002

> <r_epik_Charging_Adjusted_Penalty>
0.561274

> <i_epik_Tot_Q>
1

> <i_epik_Tot_abs_Q>
1

> <r_epik_Metal_State_Penalty>
0.277002

> <b_epik_Metal_Only>
0

> <s_lp_Force_Field>
OPLS_2005

> <r_lp_Energy>
29.3434

> <b_lp_Chiralities_Consistent>
1

> <s_lp_Variant>
AV-unprocessed.smi:3038-2

> <Gold.Version>
5.8.1

> <Gold.Id.Protein>
6NUR|6NUR_protein|mol2

> <Gold.PLP.Fitness>
37.2694

> <Gold.PLP.PLP>
-25.5739

> <Gold.PLP.part.hbond>
-3.0000

> <Gold.PLP.part.metal>
0.0000

> <Gold.PLP.part.buried>
6.4318

> <Gold.PLP.part.nonpolar>
-30.0778

> <Gold.PLP.part.repulsive>
0.0778

> <Gold.PLP.ligand.clash>
0.0000

> <Gold.PLP.ligand.torsion>
0.7897

> <Gold.PLP.Chemscore.Hbond>
4.0000

> <Gold.PLP.Chemscore.CHOScore>
0.0000

> <Gold.PLP.Chemscore.Metal>
0.0000

> <Gold.Chemscore.Hbonds>
donor molecule, donor type, donor heavy atom, donor atom, acceptor molecule, acceptor atom, score
      L1  H     9    22       P1  7948  1.00
      L1  H    13    37       P1 10186  1.98
      P1  H  6896  6907       L1     6  1.00

> <Gold.PLP.Chemscore.Internal.Correction>
1.2750

> <Gold.Rescore>
     Score         DG    S(hbond)    S(metal)    S(lipo)     H(rot)  DE(clash)    DE(int)     intcor
     10.67     -17.58       2.82        0.00      72.12       2.25       3.12       3.79       ----

> <Gold.Chemscore.Fitness>
10.6707

> <Gold.Chemscore.DG>
-17.5819

> <Gold.Chemscore.ZeroCoef>
-5.4800

> <Gold.Chemscore.Hbond>
2.8238

> <Gold.Chemscore.Metal>
0.0000

> <Gold.Chemscore.Lipo>
72.1161

> <Gold.Chemscore.Internal_Hbond>
0.0000

> <Gold.Chemscore.DEClash>
3.1191

> <Gold.Chemscore.DEInternal>
3.7921

> <Gold.Chemscore.Rot>
2.2528

> <Gold.Chemscore.Internal.Correction>
   9.000000E+99

> <Gold.Chemscore.Hbonds>
donor molecule, donor type, donor heavy atom, donor atom, acceptor molecule, acceptor atom, score
      L1  H     9    22       P1  7948  0.53
      L1  H    13    37       P1 10186  0.92
      P1  H  6896  6907       L1     6  0.47

> <Gold.Chemscore.Hbond.Weighted>
-9.4316

> <Gold.Chemscore.Metal.Weighted>
-0.0000

> <Gold.Chemscore.Lipo.Weighted>
-8.4376

> <Gold.Chemscore.Internal_Hbond.Weighted>
0.0000

> <Gold.Chemscore.DEClash.Weighted>
3.1191

> <Gold.Chemscore.DEInternal.Weighted>
3.7921

> <Gold.Chemscore.Rot.Weighted>
5.7672

> <Gold.Chemscore.Internal.Correction.Weighted>
   9.000000E+99

> <Gold.Protein.RotatedTorsions>
[ 6907 6896 6895 6894 ] final -143.95 input  -60.11 | X-H torsion
[ 7974 7965 7964 7962 ] final  135.85 input  175.53 | X-H torsion
[ 8008 7997 7996 7995 ] final  -12.63 input   59.86 | X-H torsion
[ 10167 10162 10161 10158 ] final   75.37 input  -65.29 | X-H torsion
[ 10718 10713 10712 10709 ] final    2.04 input   66.30 | X-H torsion
[ 10763 10752 10751 10750 ] final  130.90 input  -60.55 | X-H torsion
[ 11005 11000 10999 10996 ] final   27.57 input  -57.11 | X-H torsion

> <Gold.Protein.ActiveResidues>
 VAL166  LYS551  ARG553  GLY616  TRP617  ASP618  TYR619  PRO620  LYS621  CYS622 
 ASP623  PHE694  ASN695  SER759  ASP760  ASP761  ALA762  ILE779  LEU786  VAL792 
 PHE793  MET794  SER795  GLU796  ALA797  LYS798  CYS799  TRP800  GLU811  SER814 

> <Gold.Protein.RotatedAtoms>
  151.1075  133.5198  159.2606 H   0  0  0  0  0  0  0  0  0  0  0  0  # atno 6907 bound_to 6896
  151.2005  135.0440  159.8880 H   0  0  0  0  0  0  0  0  0  0  0  0  # atno 6908 bound_to 6896
  152.5448  134.0903  159.8327 H   0  0  0  0  0  0  0  0  0  0  0  0  # atno 6909 bound_to 6896
  144.9622  139.4697  143.5474 H   0  0  0  0  0  0  0  0  0  0  0  0  # atno 7974 bound_to 7965
  154.5361  140.2271  155.8721 H   0  0  0  0  0  0  0  0  0  0  0  0  # atno 8008 bound_to 7997
  156.1812  140.3099  155.9116 H   0  0  0  0  0  0  0  0  0  0  0  0  # atno 8009 bound_to 7997
  155.3352  140.0447  157.3034 H   0  0  0  0  0  0  0  0  0  0  0  0  # atno 8010 bound_to 7997
  140.0037  144.5667  150.7716 H   0  0  0  0  0  0  0  0  0  0  0  0  # atno 10167 bound_to 10162
  156.8571  130.5573  149.5665 H   0  0  0  0  0  0  0  0  0  0  0  0  # atno 10718 bound_to 10713
  153.7656  135.3189  155.3344 H   0  0  0  0  0  0  0  0  0  0  0  0  # atno 10763 bound_to 10752
  154.8215  135.4600  154.0795 H   0  0  0  0  0  0  0  0  0  0  0  0  # atno 10764 bound_to 10752
  153.2039  135.6926  153.8281 H   0  0  0  0  0  0  0  0  0  0  0  0  # atno 10765 bound_to 10752
  140.3249  134.2502  155.7711 H   0  0  0  0  0  0  0  0  0  0  0  0  # atno 11005 bound_to 11000
  146.3357  139.8780  142.8829 LP  0  0  0  0  0  0  0  0  0  0  0  0  # atno 17320 bound_to 7965
  145.2682  141.0100  143.3787 LP  0  0  0  0  0  0  0  0  0  0  0  0  # atno 17321 bound_to 7965
  140.7409  143.2810  151.3598 LP  0  0  0  0  0  0  0  0  0  0  0  0  # atno 17342 bound_to 10162
  139.6254  144.0825  152.2429 LP  0  0  0  0  0  0  0  0  0  0  0  0  # atno 17343 bound_to 10162
  156.0797  130.5810  150.9540 LP  0  0  0  0  0  0  0  0  0  0  0  0  # atno 17370 bound_to 10713
  157.6271  131.0924  150.8513 LP  0  0  0  0  0  0  0  0  0  0  0  0  # atno 17371 bound_to 10713
  141.2078  133.7796  157.0099 LP  0  0  0  0  0  0  0  0  0  0  0  0  # atno 17394 bound_to 11000
  140.0910  134.9592  157.1776 LP  0  0  0  0  0  0  0  0  0  0  0  0  # atno 17395 bound_to 11000

$$$$
