AV-unprocessed.smi:37|AV-procd|sdf|319|dock1
  -GOLD-   2262016143D 1   1.00000     0.00000
 Structure written by MMmdl.
 43 44  0  0  0  0  0  0  0  0  2 V2000
  144.0705  145.2423  155.7732 C   0  0  0  0  0  0  0  0  0  0  0  0
  144.3803  143.9319  156.5095 C   0  0  0  0  0  0  0  0  0  0  0  0
  144.8672  142.8383  155.5615 C   0  0  0  0  0  0  0  0  0  0  0  0
  144.3061  141.7439  155.5025 O   0  0  0  0  0  0  0  0  0  0  0  0
  145.9393  143.2128  154.8458 O   0  0  0  0  0  0  0  0  0  0  0  0
  146.4513  142.3483  153.8456 C   0  0  0  0  0  0  0  0  0  0  0  0
  147.1565  141.1627  154.5123 C   0  0  2  0  0  0  0  0  0  0  0  0
  148.4176  141.5745  155.0430 O   0  0  0  0  0  0  0  0  0  0  0  0
  149.4334  140.7483  154.5593 C   0  0  1  0  0  0  0  0  0  0  0  0
  150.4771  140.5235  155.6287 N   0  0  0  0  0  0  0  0  0  0  0  0
  150.3130  141.0180  156.9123 C   0  0  0  0  0  0  0  0  0  0  0  0
  151.2472  140.8131  157.8634 C   0  0  0  0  0  0  0  0  0  0  0  0
  151.0590  141.3004  159.1019 F   0  0  0  0  0  0  0  0  0  0  0  0
  152.4570  140.0592  157.5393 C   0  0  0  0  0  0  0  0  0  0  0  0
  153.3068  139.8782  158.4098 O   0  0  0  0  0  0  0  0  0  0  0  0
  152.5905  139.5836  156.2670 N   0  5  0  0  0  0  0  0  0  0  0  0
  151.6468  139.7865  155.3017 C   0  0  0  0  0  0  0  0  0  0  0  0
  151.7552  139.3596  154.1518 O   0  0  0  0  0  0  0  0  0  0  0  0
  148.7563  139.4540  154.1047 C   0  0  1  0  0  0  0  0  0  0  0  0
  148.3467  138.2444  155.6458 Br  0  0  0  0  0  0  0  0  0  0  0  0
  147.4744  140.0297  153.5297 C   0  0  1  0  0  0  0  0  0  0  0  0
  146.4201  139.0782  153.4620 O   0  0  0  0  0  0  0  0  0  0  0  0
  146.2302  138.3551  152.3438 C   0  0  0  0  0  0  0  0  0  0  0  0
  146.7679  138.5547  151.2546 O   0  0  0  0  0  0  0  0  0  0  0  0
  145.2560  137.1976  152.5500 C   0  0  0  0  0  0  0  0  0  0  0  0
  145.2415  136.2311  151.3579 C   0  0  0  0  0  0  0  0  0  0  0  0
  143.6962  145.9934  156.4689 H   0  0  0  0  0  0  0  0  0  0  0  0
  143.3102  145.0955  155.0052 H   0  0  0  0  0  0  0  0  0  0  0  0
  144.9598  145.6523  155.2931 H   0  0  0  0  0  0  0  0  0  0  0  0
  145.1415  144.1023  157.2713 H   0  0  0  0  0  0  0  0  0  0  0  0
  143.4880  143.5785  157.0270 H   0  0  0  0  0  0  0  0  0  0  0  0
  145.6218  141.9897  153.2345 H   0  0  0  0  0  0  0  0  0  0  0  0
  147.1402  142.8798  153.1874 H   0  0  0  0  0  0  0  0  0  0  0  0
  146.5567  140.7745  155.3371 H   0  0  0  0  0  0  0  0  0  0  0  0
  149.9393  141.2747  153.7474 H   0  0  0  0  0  0  0  0  0  0  0  0
  149.4232  141.5709  157.1736 H   0  0  0  0  0  0  0  0  0  0  0  0
  149.3636  138.9108  153.3799 H   0  0  0  0  0  0  0  0  0  0  0  0
  147.6804  140.4631  152.5492 H   0  0  0  0  0  0  0  0  0  0  0  0
  145.5333  136.6611  153.4579 H   0  0  0  0  0  0  0  0  0  0  0  0
  144.2576  137.6034  152.7150 H   0  0  0  0  0  0  0  0  0  0  0  0
  144.5675  135.3963  151.5495 H   0  0  0  0  0  0  0  0  0  0  0  0
  146.2332  135.8184  151.1694 H   0  0  0  0  0  0  0  0  0  0  0  0
  144.9027  136.7246  150.4464 H   0  0  0  0  0  0  0  0  0  0  0  0
  1  2  1  0  0  0  0
  1 27  1  0  0  0  0
  1 28  1  0  0  0  0
  1 29  1  0  0  0  0
  2  3  1  0  0  0  0
  2 30  1  0  0  0  0
  2 31  1  0  0  0  0
  3  4  2  0  0  0  0
  3  5  1  0  0  0  0
  5  6  1  0  0  0  0
  6  7  1  0  0  0  0
  6 32  1  0  0  0  0
  6 33  1  0  0  0  0
  7 21  1  0  0  0  0
  7  8  1  0  0  0  0
  7 34  1  0  0  0  0
  8  9  1  0  0  0  0
  9 10  1  0  0  0  0
  9 19  1  0  0  0  0
  9 35  1  0  0  0  0
 10 17  1  0  0  0  0
 10 11  1  0  0  0  0
 11 12  2  0  0  0  0
 11 36  1  0  0  0  0
 12 13  1  0  0  0  0
 12 14  1  0  0  0  0
 14 15  2  0  0  0  0
 14 16  1  0  0  0  0
 16 17  1  0  0  0  0
 17 18  2  0  0  0  0
 19 20  1  0  0  0  0
 19 21  1  0  0  0  0
 19 37  1  0  0  0  0
 21 22  1  0  0  0  0
 21 38  1  0  0  0  0
 22 23  1  0  0  0  0
 23 24  2  0  0  0  0
 23 25  1  0  0  0  0
 25 26  1  0  0  0  0
 25 39  1  0  0  0  0
 25 40  1  0  0  0  0
 26 41  1  0  0  0  0
 26 42  1  0  0  0  0
 26 43  1  0  0  0  0
M  CHG  1  16  -1
M  END
> <s_m_source_file>
AV-unprocessed.smi

> <i_m_source_file_index>
37

> <i_lp_mmshare_version>
43012

> <i_f3d_flags>
0

> <s_epik_input>
W0NIM11bQ0gyXUMoPU8pT1tDSDJdW0NAQEhdMU9bQ0BASF0objJbY0hdYyhGKWMoPU8pW25IXWMyPU8pW0NAQEhdKEJyKVtDQEhdMU9DKD1PKVtDSDJdW0NIM10=

> <s_epik_cmdline>
J2VwaWtfcHl0aG9uJywgJy1waCcsICc3LjAnLCAnLXRuJywgJzgnLCAnLW1hJywgJzIwMCcsICctbWV0YWxfYmluZGluZycsICctaW1hZScsICc8aW5maWxlLm1hZT4nLCAnLW9tYWUnLCAnPG91dGZpbGUubWFlPic=

> <r_epik_Ionization_Penalty>
1.08158

> <r_epik_Ionization_Penalty_Charging>
9.05154e-09

> <r_epik_Ionization_Penalty_Neutral>
1.08158

> <r_epik_State_Penalty>
1.13706

> <r_epik_Charging_Adjusted_Penalty>
1.13706

> <i_epik_Tot_Q>
-1

> <i_epik_Tot_abs_Q>
1

> <r_epik_Metal_State_Penalty>
0.00343535

> <b_epik_Metal_Only>
0

> <s_epik_Chemistry_Notes>
This compound has an ester and may undergo hydrolysis at high or low pH. This compound contains an acetal/aminal-like group ( X-CH(R)-Y where X, Y are N, S, or O) that may be acid/base labile, releasing an aldehyde.

> <s_lp_Force_Field>
OPLS_2005

> <r_lp_Energy>
34.8687

> <b_lp_Chiralities_Consistent>
1

> <s_lp_Variant>
AV-unprocessed.smi:37-17

> <Gold.Version>
5.8.1

> <Gold.Id.Protein>
6NUR|6NUR_protein|mol2

> <Gold.PLP.Fitness>
43.6052

> <Gold.PLP.PLP>
-35.2622

> <Gold.PLP.part.hbond>
-4.0000

> <Gold.PLP.part.metal>
0.0000

> <Gold.PLP.part.buried>
0.4062

> <Gold.PLP.part.nonpolar>
-32.5323

> <Gold.PLP.part.repulsive>
1.4056

> <Gold.PLP.ligand.clash>
0.0000

> <Gold.PLP.ligand.torsion>
0.8156

> <Gold.PLP.Chemscore.Hbond>
3.2112

> <Gold.PLP.Chemscore.CHOScore>
0.0000

> <Gold.PLP.Chemscore.Metal>
0.0000

> <Gold.Chemscore.Hbonds>
donor molecule, donor type, donor heavy atom, donor atom, acceptor molecule, acceptor atom, score
      P1  H  7954  7966       L1    24  0.91
      P1  H  7989  7998       L1    18  0.66
      P1  H  7997  8008       L1    15  0.14
      P1  H  7997  8009       L1    16  1.43

> <Gold.PLP.Chemscore.Internal.Correction>
0.3407

> <Gold.Rescore>
     Score         DG    S(hbond)    S(metal)    S(lipo)     H(rot)  DE(clash)    DE(int)     intcor
      6.01      -8.50       1.70        0.00      48.78       3.27       1.39       1.10       ----

> <Gold.Chemscore.Fitness>
6.0083

> <Gold.Chemscore.DG>
-8.4952

> <Gold.Chemscore.ZeroCoef>
-5.4800

> <Gold.Chemscore.Hbond>
1.6978

> <Gold.Chemscore.Metal>
0.0000

> <Gold.Chemscore.Lipo>
48.7843

> <Gold.Chemscore.Internal_Hbond>
0.0000

> <Gold.Chemscore.DEClash>
1.3860

> <Gold.Chemscore.DEInternal>
1.1009

> <Gold.Chemscore.Rot>
3.2669

> <Gold.Chemscore.Internal.Correction>
   9.000000E+99

> <Gold.Chemscore.Hbonds>
donor molecule, donor type, donor heavy atom, donor atom, acceptor molecule, acceptor atom, score
      P1  H  7954  7966       L1    24  0.86
      P1  H  7989  7998       L1    18  0.07
      P1  H  7997  8008       L1    15  0.07
      P1  H  7997  8009       L1    16  0.15

> <Gold.Chemscore.Hbond.Weighted>
-5.6708

> <Gold.Chemscore.Metal.Weighted>
-0.0000

> <Gold.Chemscore.Lipo.Weighted>
-5.7078

> <Gold.Chemscore.Internal_Hbond.Weighted>
0.0000

> <Gold.Chemscore.DEClash.Weighted>
1.3860

> <Gold.Chemscore.DEInternal.Weighted>
1.1009

> <Gold.Chemscore.Rot.Weighted>
8.3634

> <Gold.Chemscore.Internal.Correction.Weighted>
   9.000000E+99

> <Gold.Protein.RotatedTorsions>
[ 6907 6896 6895 6894 ] final  -15.51 input  -60.11 | X-H torsion
[ 7974 7965 7964 7962 ] final  163.78 input  175.53 | X-H torsion
[ 8008 7997 7996 7995 ] final -133.33 input   59.86 | X-H torsion
[ 10167 10162 10161 10158 ] final  -86.98 input  -65.29 | X-H torsion
[ 10718 10713 10712 10709 ] final   72.91 input   66.30 | X-H torsion
[ 10763 10752 10751 10750 ] final   87.72 input  -60.55 | X-H torsion
[ 11005 11000 10999 10996 ] final  -89.01 input  -57.11 | X-H torsion

> <Gold.Protein.ActiveResidues>
 VAL166  LYS551  ARG553  GLY616  TRP617  ASP618  TYR619  PRO620  LYS621  CYS622 
 ASP623  PHE694  ASN695  SER759  ASP760  ASP761  ALA762  ILE779  LEU786  VAL792 
 PHE793  MET794  SER795  GLU796  ALA797  LYS798  CYS799  TRP800  GLU811  SER814 

> <Gold.Protein.RotatedAtoms>
  151.3229  135.0823  159.9311 H   0  0  0  0  0  0  0  0  0  0  0  0  # atno 6907 bound_to 6896
  152.5252  133.9621  159.7732 H   0  0  0  0  0  0  0  0  0  0  0  0  # atno 6908 bound_to 6896
  150.9945  133.6064  159.2733 H   0  0  0  0  0  0  0  0  0  0  0  0  # atno 6909 bound_to 6896
  144.7574  139.8231  143.6345 H   0  0  0  0  0  0  0  0  0  0  0  0  # atno 7974 bound_to 7965
  155.3437  140.0473  157.3045 H   0  0  0  0  0  0  0  0  0  0  0  0  # atno 8008 bound_to 7997
  154.5264  140.2242  155.8848 H   0  0  0  0  0  0  0  0  0  0  0  0  # atno 8009 bound_to 7997
  156.1743  140.3088  155.9037 H   0  0  0  0  0  0  0  0  0  0  0  0  # atno 8010 bound_to 7997
  140.3889  143.2714  151.9290 H   0  0  0  0  0  0  0  0  0  0  0  0  # atno 10167 bound_to 10162
  157.6523  130.9602  150.0994 H   0  0  0  0  0  0  0  0  0  0  0  0  # atno 10718 bound_to 10713
  153.1696  135.4533  154.9884 H   0  0  0  0  0  0  0  0  0  0  0  0  # atno 10763 bound_to 10752
  154.7956  135.3236  154.7676 H   0  0  0  0  0  0  0  0  0  0  0  0  # atno 10764 bound_to 10752
  153.8154  135.6951  153.4889 H   0  0  0  0  0  0  0  0  0  0  0  0  # atno 10765 bound_to 10752
  141.1592  133.7604  156.9534 H   0  0  0  0  0  0  0  0  0  0  0  0  # atno 11005 bound_to 11000
  146.1600  139.4711  142.9994 LP  0  0  0  0  0  0  0  0  0  0  0  0  # atno 17320 bound_to 7965
  145.6732  141.0211  143.1646 LP  0  0  0  0  0  0  0  0  0  0  0  0  # atno 17321 bound_to 7965
  139.4790  144.5747  151.8032 LP  0  0  0  0  0  0  0  0  0  0  0  0  # atno 17342 bound_to 10162
  140.4860  144.1380  150.5941 LP  0  0  0  0  0  0  0  0  0  0  0  0  # atno 17343 bound_to 10162
  156.1921  130.3655  149.8896 LP  0  0  0  0  0  0  0  0  0  0  0  0  # atno 17370 bound_to 10713
  156.6822  130.8862  151.3577 LP  0  0  0  0  0  0  0  0  0  0  0  0  # atno 17371 bound_to 10713
  140.1242  134.9398  157.2246 LP  0  0  0  0  0  0  0  0  0  0  0  0  # atno 17394 bound_to 11000
  140.3034  134.3106  155.7284 LP  0  0  0  0  0  0  0  0  0  0  0  0  # atno 17395 bound_to 11000

$$$$
