AV-unprocessed.smi:189|AV-procd|sdf|1483|dock7
  -GOLD-   2262019303D 1   1.00000     0.00000
 Structure written by MMmdl.
 53 57  0  0  0  0  0  0  0  0  1 V2000
  149.7155  141.5694  155.9041 C   0  0  0  0  0  0  0  0  0  0  0  0
  150.3751  141.4187  157.2859 C   0  0  2  0  0  0  0  0  0  0  0  0
  150.4791  142.7637  158.0309 C   0  0  0  0  0  0  0  0  0  0  0  0
  151.9742  143.0907  158.0043 C   0  0  1  0  0  0  0  0  0  0  0  0
  152.4858  144.0667  159.0832 C   0  0  0  0  0  0  0  0  0  0  0  0
  152.5754  143.4309  160.4789 C   0  0  0  0  0  0  0  0  0  0  0  0
  153.3777  142.1237  160.4360 C   0  0  0  0  0  0  0  0  0  0  0  0
  152.7316  141.1283  159.4642 C   0  0  0  0  0  0  0  0  0  0  0  0
  152.6314  141.7037  158.0299 C   0  0  1  0  0  0  0  0  0  0  0  0
  151.7479  140.9102  157.1819 N   0  0  0  0  0  0  0  0  0  0  0  0
  152.0123  139.5965  156.9336 C   0  0  0  0  0  0  0  0  0  0  0  0
  153.2115  139.0820  157.3168 N   0  0  0  0  0  0  0  0  0  0  0  0
  153.5101  137.8004  157.0908 C   0  0  0  0  0  0  0  0  0  0  0  0
  152.7660  136.8636  156.5035 N   0  0  0  0  0  0  0  0  0  0  0  0
  151.5591  137.3646  156.1151 C   0  0  0  0  0  0  0  0  0  0  0  0
  151.1022  138.7033  156.2919 C   0  0  0  0  0  0  0  0  0  0  0  0
  149.8140  138.8229  155.7815 N   0  0  0  0  0  0  0  0  0  0  0  0
  149.5325  137.6345  155.3235 C   0  0  0  0  0  0  0  0  0  0  0  0
  150.5280  136.6975  155.4766 N   0  0  0  0  0  0  0  0  0  0  0  0
  150.4802  135.3011  155.0686 C   0  0  0  0  0  0  0  0  0  0  0  0
  149.3169  134.5036  155.7065 C   0  0  2  0  0  0  0  0  0  0  0  0
  148.0909  134.9955  155.1956 O   0  0  0  0  0  0  0  0  0  0  0  0
  149.3027  134.6171  157.2327 C   0  0  0  0  0  0  0  0  0  0  0  0
  149.7386  133.2336  157.6995 C   0  0  0  0  0  0  0  0  0  0  0  0
  149.1615  132.3833  156.7252 O   0  0  0  0  0  0  0  0  0  0  0  0
  149.3951  132.9832  155.4593 C   0  0  0  0  0  0  0  0  0  0  0  0
  148.7065  141.9713  155.9971 H   0  0  0  0  0  0  0  0  0  0  0  0
  149.6383  140.6145  155.3852 H   0  0  0  0  0  0  0  0  0  0  0  0
  150.2860  142.2468  155.2678 H   0  0  0  0  0  0  0  0  0  0  0  0
  149.7746  140.7387  157.8916 H   0  0  0  0  0  0  0  0  0  0  0  0
  149.8751  143.5536  157.5830 H   0  0  0  0  0  0  0  0  0  0  0  0
  150.1342  142.6356  159.0571 H   0  0  0  0  0  0  0  0  0  0  0  0
  152.1805  143.5387  157.0305 H   0  0  0  0  0  0  0  0  0  0  0  0
  153.4803  144.4106  158.7963 H   0  0  0  0  0  0  0  0  0  0  0  0
  151.8556  144.9560  159.1138 H   0  0  0  0  0  0  0  0  0  0  0  0
  153.0415  144.1304  161.1734 H   0  0  0  0  0  0  0  0  0  0  0  0
  151.5747  143.2362  160.8656 H   0  0  0  0  0  0  0  0  0  0  0  0
  154.4051  142.3263  160.1310 H   0  0  0  0  0  0  0  0  0  0  0  0
  153.4285  141.6873  161.4338 H   0  0  0  0  0  0  0  0  0  0  0  0
  153.3070  140.2025  159.4565 H   0  0  0  0  0  0  0  0  0  0  0  0
  151.7405  140.8646  159.8363 H   0  0  0  0  0  0  0  0  0  0  0  0
  153.6251  141.7901  157.5928 H   0  0  0  0  0  0  0  0  0  0  0  0
  154.4848  137.4807  157.4280 H   0  0  0  0  0  0  0  0  0  0  0  0
  148.5844  137.4070  154.8582 H   0  0  0  0  0  0  0  0  0  0  0  0
  150.4044  135.2640  153.9811 H   0  0  0  0  0  0  0  0  0  0  0  0
  151.4367  134.8411  155.3214 H   0  0  0  0  0  0  0  0  0  0  0  0
  148.2272  135.2614  154.2988 H   0  0  0  0  0  0  0  0  0  0  0  0
  149.9511  135.4055  157.6169 H   0  0  0  0  0  0  0  0  0  0  0  0
  148.2953  134.8149  157.6028 H   0  0  0  0  0  0  0  0  0  0  0  0
  150.8253  133.1362  157.6780 H   0  0  0  0  0  0  0  0  0  0  0  0
  149.3879  132.9962  158.7041 H   0  0  0  0  0  0  0  0  0  0  0  0
  148.6882  132.6233  154.7106 H   0  0  0  0  0  0  0  0  0  0  0  0
  150.3935  132.6865  155.1380 H   0  0  0  0  0  0  0  0  0  0  0  0
  1  2  1  0  0  0  0
  1 27  1  0  0  0  0
  1 28  1  0  0  0  0
  1 29  1  0  0  0  0
  2 10  1  0  0  0  0
  2  3  1  0  0  0  0
  2 30  1  0  0  0  0
  3  4  1  0  0  0  0
  3 31  1  0  0  0  0
  3 32  1  0  0  0  0
  4  9  1  0  0  0  0
  4  5  1  0  0  0  0
  4 33  1  0  0  0  0
  5  6  1  0  0  0  0
  5 34  1  0  0  0  0
  5 35  1  0  0  0  0
  6  7  1  0  0  0  0
  6 36  1  0  0  0  0
  6 37  1  0  0  0  0
  7  8  1  0  0  0  0
  7 38  1  0  0  0  0
  7 39  1  0  0  0  0
  8  9  1  0  0  0  0
  8 40  1  0  0  0  0
  8 41  1  0  0  0  0
  9 10  1  0  0  0  0
  9 42  1  0  0  0  0
 10 11  1  0  0  0  0
 11 16  1  0  0  0  0
 11 12  2  0  0  0  0
 12 13  1  0  0  0  0
 13 14  2  0  0  0  0
 13 43  1  0  0  0  0
 14 15  1  0  0  0  0
 15 19  1  0  0  0  0
 15 16  2  0  0  0  0
 16 17  1  0  0  0  0
 17 18  2  0  0  0  0
 18 19  1  0  0  0  0
 18 44  1  0  0  0  0
 19 20  1  0  0  0  0
 20 21  1  0  0  0  0
 20 45  1  0  0  0  0
 20 46  1  0  0  0  0
 21 26  1  0  0  0  0
 21 22  1  0  0  0  0
 21 23  1  0  0  0  0
 22 47  1  0  0  0  0
 23 24  1  0  0  0  0
 23 48  1  0  0  0  0
 23 49  1  0  0  0  0
 24 25  1  0  0  0  0
 24 50  1  0  0  0  0
 24 51  1  0  0  0  0
 25 26  1  0  0  0  0
 26 52  1  0  0  0  0
 26 53  1  0  0  0  0
M  END
> <s_m_source_file>
AV-unprocessed.smi

> <i_m_source_file_index>
189

> <i_lp_mmshare_version>
43012

> <i_f3d_flags>
0

> <s_epik_input>
W0NIMl0xW0NIMl1bQ0gyXVtDSDJdW0NASF0oW0NASF0xMilOKFtDQEhdKFtDSDNdKVtDSDJdMiljKG5bY0hdbjMpYyhjMzQpbltjSF1uNFtDSDJdW0NAQF01KFtPSF0pW0NIMl1bQ0gyXU9bQ0gyXTU=

> <s_epik_cmdline>
J2VwaWtfcHl0aG9uJywgJy1waCcsICc3LjAnLCAnLXRuJywgJzgnLCAnLW1hJywgJzIwMCcsICctbWV0YWxfYmluZGluZycsICctaW1hZScsICc8aW5maWxlLm1hZT4nLCAnLW9tYWUnLCAnPG91dGZpbGUubWFlPic=

> <r_lp_tautomer_probability>
1

> <r_epik_Ionization_Penalty>
0.00594261

> <r_epik_Ionization_Penalty_Charging>
0

> <r_epik_Ionization_Penalty_Neutral>
0.00594261

> <r_epik_State_Penalty>
0.00429776

> <r_epik_Charging_Adjusted_Penalty>
0.00429776

> <i_epik_Tot_Q>
0

> <i_epik_Tot_abs_Q>
0

> <r_epik_Metal_State_Penalty>
-0

> <b_epik_Metal_Only>
0

> <s_lp_Force_Field>
OPLS_2005

> <r_lp_Energy>
57.6623

> <b_lp_Chiralities_Consistent>
1

> <s_lp_Variant>
AV-unprocessed.smi:189-9

> <Gold.Version>
5.8.1

> <Gold.Id.Protein>
6NUR|6NUR_protein|mol2

> <Gold.PLP.Fitness>
50.0910

> <Gold.PLP.PLP>
-39.9738

> <Gold.PLP.part.hbond>
-3.0000

> <Gold.PLP.part.metal>
0.0000

> <Gold.PLP.part.buried>
-4.4302

> <Gold.PLP.part.nonpolar>
-31.8388

> <Gold.PLP.part.repulsive>
0.0512

> <Gold.PLP.ligand.clash>
0.0000

> <Gold.PLP.ligand.torsion>
0.1909

> <Gold.PLP.Chemscore.Hbond>
2.9280

> <Gold.PLP.Chemscore.CHOScore>
0.4862

> <Gold.PLP.Chemscore.Metal>
0.0000

> <Gold.Chemscore.Hbonds>
donor molecule, donor type, donor heavy atom, donor atom, acceptor molecule, acceptor atom, score
      P1  H  7997  8009       L1    12  1.00
      P1  H 10752 10764       L1    14  0.91

> <Gold.PLP.Chemscore.Internal.Correction>
0.2563

> <Gold.Rescore>
     Score         DG    S(hbond)    S(metal)    S(lipo)     H(rot)  DE(clash)    DE(int)     intcor
     17.94     -21.47       2.47        0.00     104.36       1.74       0.38       3.15       ----

> <Gold.Chemscore.Fitness>
17.9386

> <Gold.Chemscore.DG>
-21.4688

> <Gold.Chemscore.ZeroCoef>
-5.4800

> <Gold.Chemscore.Hbond>
2.4664

> <Gold.Chemscore.Metal>
0.0000

> <Gold.Chemscore.Lipo>
104.3611

> <Gold.Chemscore.Internal_Hbond>
0.0000

> <Gold.Chemscore.DEClash>
0.3786

> <Gold.Chemscore.DEInternal>
3.1516

> <Gold.Chemscore.Rot>
1.7420

> <Gold.Chemscore.Internal.Correction>
   9.000000E+99

> <Gold.Chemscore.Hbonds>
donor molecule, donor type, donor heavy atom, donor atom, acceptor molecule, acceptor atom, score
      P1  H  7997  8009       L1    12  0.65
      P1  H 10752 10764       L1    14  0.42

> <Gold.Chemscore.Hbond.Weighted>
-8.2379

> <Gold.Chemscore.Metal.Weighted>
-0.0000

> <Gold.Chemscore.Lipo.Weighted>
-12.2103

> <Gold.Chemscore.Internal_Hbond.Weighted>
0.0000

> <Gold.Chemscore.DEClash.Weighted>
0.3786

> <Gold.Chemscore.DEInternal.Weighted>
3.1516

> <Gold.Chemscore.Rot.Weighted>
4.4594

> <Gold.Chemscore.Internal.Correction.Weighted>
   9.000000E+99

> <Gold.Protein.RotatedTorsions>
[ 6907 6896 6895 6894 ] final -178.46 input  -60.11 | X-H torsion
[ 7974 7965 7964 7962 ] final   -1.76 input  175.53 | X-H torsion
[ 8008 7997 7996 7995 ] final  154.25 input   59.86 | X-H torsion
[ 10167 10162 10161 10158 ] final  104.17 input  -65.29 | X-H torsion
[ 10718 10713 10712 10709 ] final   51.98 input   66.30 | X-H torsion
[ 10763 10752 10751 10750 ] final  -24.74 input  -60.55 | X-H torsion
[ 11005 11000 10999 10996 ] final -161.17 input  -57.11 | X-H torsion

> <Gold.Protein.ActiveResidues>
 VAL166  LYS551  ARG553  GLY616  TRP617  ASP618  TYR619  PRO620  LYS621  CYS622 
 ASP623  PHE694  ASN695  SER759  ASP760  ASP761  ALA762  ILE779  LEU786  VAL792 
 PHE793  MET794  SER795  GLU796  ALA797  LYS798  CYS799  TRP800  GLU811  SER814 

> <Gold.Protein.RotatedAtoms>
  151.6376  133.3328  159.3122 H   0  0  0  0  0  0  0  0  0  0  0  0  # atno 6907 bound_to 6896
  150.8024  134.7131  159.6625 H   0  0  0  0  0  0  0  0  0  0  0  0  # atno 6908 bound_to 6896
  152.4118  134.6116  160.0078 H   0  0  0  0  0  0  0  0  0  0  0  0  # atno 6909 bound_to 6896
  146.2413  140.1468  142.8334 H   0  0  0  0  0  0  0  0  0  0  0  0  # atno 7974 bound_to 7965
  156.2541  140.1971  156.6617 H   0  0  0  0  0  0  0  0  0  0  0  0  # atno 8008 bound_to 7997
  154.6459  140.0578  156.9925 H   0  0  0  0  0  0  0  0  0  0  0  0  # atno 8009 bound_to 7997
  155.1491  140.3249  155.4438 H   0  0  0  0  0  0  0  0  0  0  0  0  # atno 8010 bound_to 7997
  139.7200  144.7060  151.0888 H   0  0  0  0  0  0  0  0  0  0  0  0  # atno 10167 bound_to 10162
  157.5032  130.8451  149.8342 H   0  0  0  0  0  0  0  0  0  0  0  0  # atno 10718 bound_to 10713
  153.6887  135.6963  153.5096 H   0  0  0  0  0  0  0  0  0  0  0  0  # atno 10763 bound_to 10752
  153.2430  135.4300  155.0717 H   0  0  0  0  0  0  0  0  0  0  0  0  # atno 10764 bound_to 10752
  154.8379  135.3512  154.6429 H   0  0  0  0  0  0  0  0  0  0  0  0  # atno 10765 bound_to 10752
  140.6234  134.4727  157.5225 H   0  0  0  0  0  0  0  0  0  0  0  0  # atno 11005 bound_to 11000
  145.0200  140.8786  143.5172 LP  0  0  0  0  0  0  0  0  0  0  0  0  # atno 17320 bound_to 7965
  145.1515  139.2511  143.5438 LP  0  0  0  0  0  0  0  0  0  0  0  0  # atno 17321 bound_to 7965
  140.7751  143.5179  150.9572 LP  0  0  0  0  0  0  0  0  0  0  0  0  # atno 17342 bound_to 10162
  139.8866  143.7006  152.3150 LP  0  0  0  0  0  0  0  0  0  0  0  0  # atno 17343 bound_to 10162
  156.0242  130.3785  150.1872 LP  0  0  0  0  0  0  0  0  0  0  0  0  # atno 17370 bound_to 10713
  157.0062  130.9937  151.3378 LP  0  0  0  0  0  0  0  0  0  0  0  0  # atno 17371 bound_to 10713
  139.9144  134.8276  156.1415 LP  0  0  0  0  0  0  0  0  0  0  0  0  # atno 17394 bound_to 11000
  141.0726  133.6790  156.2172 LP  0  0  0  0  0  0  0  0  0  0  0  0  # atno 17395 bound_to 11000

$$$$
