AV-unprocessed.smi:2054|AV-procd|sdf|8332|dock3
  -GOLD-   2272010593D 1   1.00000     0.00000
 Structure written by MMmdl.
 42 43  0  0  0  0  0  0  0  0  1 V2000
  153.5617  131.9736  165.2607 C   0  0  0  0  0  0  0  0  0  0  0  0
  155.1922  132.5668  164.6461 S   0  0  0  0  0  0  0  0  0  0  0  0
  155.9267  133.1172  165.7956 O   0  0  0  0  0  0  0  0  0  0  0  0
  155.8054  131.5188  163.8162 O   0  0  0  0  0  0  0  0  0  0  0  0
  154.7659  133.8861  163.6030 N   0  0  0  0  0  0  0  0  0  0  0  0
  155.1489  133.7794  162.1808 C   0  0  0  0  0  0  0  0  0  0  0  0
  154.3722  134.7799  161.3098 C   0  0  0  0  0  0  0  0  0  0  0  0
  154.5474  136.2177  161.8243 C   0  0  0  0  0  0  0  0  0  0  0  0
  153.7676  137.2185  160.9615 C   0  0  0  0  0  0  0  0  0  0  0  0
  152.8884  136.8258  160.1940 O   0  0  0  0  0  0  0  0  0  0  0  0
  154.1008  138.5114  161.0967 N   0  0  0  0  0  0  0  0  0  0  0  0
  153.4815  139.6175  160.3757 C   0  0  0  0  0  0  0  0  0  0  0  0
  154.2660  140.9269  160.5610 C   0  0  0  0  0  0  0  0  0  0  0  0
  153.3616  142.1447  160.5330 C   0  0  0  0  0  0  0  0  0  0  0  0
  152.8070  142.6022  159.3184 C   0  0  0  0  0  0  0  0  0  0  0  0
  151.9819  143.7433  159.3453 C   0  0  0  0  0  0  0  0  0  0  0  0
  151.7450  144.3802  160.5787 C   0  0  0  0  0  0  0  0  0  0  0  0
  152.3466  143.8453  161.7353 C   0  0  0  0  0  0  0  0  0  0  0  0
  153.1397  142.7522  161.7204 N   0  0  0  0  0  0  0  0  0  0  0  0
  154.0837  136.2636  163.2889 C   0  0  0  0  0  0  0  0  0  0  0  0
  154.8558  135.2535  164.1542 C   0  0  0  0  0  0  0  0  0  0  0  0
  153.7211  131.1825  165.9930 H   0  0  0  0  0  0  0  0  0  0  0  0
  152.9691  131.5798  164.4363 H   0  0  0  0  0  0  0  0  0  0  0  0
  153.0286  132.7986  165.7322 H   0  0  0  0  0  0  0  0  0  0  0  0
  156.2221  133.9526  162.0901 H   0  0  0  0  0  0  0  0  0  0  0  0
  154.9640  132.7681  161.8221 H   0  0  0  0  0  0  0  0  0  0  0  0
  154.7157  134.7050  160.2773 H   0  0  0  0  0  0  0  0  0  0  0  0
  153.3161  134.5047  161.3038 H   0  0  0  0  0  0  0  0  0  0  0  0
  155.6076  136.4747  161.7861 H   0  0  0  0  0  0  0  0  0  0  0  0
  154.8347  138.7464  161.7495 H   0  0  0  0  0  0  0  0  0  0  0  0
  153.3899  139.3710  159.3164 H   0  0  0  0  0  0  0  0  0  0  0  0
  152.4663  139.7384  160.7545 H   0  0  0  0  0  0  0  0  0  0  0  0
  154.8083  140.9056  161.5074 H   0  0  0  0  0  0  0  0  0  0  0  0
  155.0196  141.0310  159.7789 H   0  0  0  0  0  0  0  0  0  0  0  0
  153.0099  142.0941  158.3871 H   0  0  0  0  0  0  0  0  0  0  0  0
  151.5400  144.1235  158.4362 H   0  0  0  0  0  0  0  0  0  0  0  0
  151.1182  145.2576  160.6369 H   0  0  0  0  0  0  0  0  0  0  0  0
  152.1873  144.3088  162.6977 H   0  0  0  0  0  0  0  0  0  0  0  0
  154.2187  137.2668  163.6952 H   0  0  0  0  0  0  0  0  0  0  0  0
  153.0161  136.0467  163.3541 H   0  0  0  0  0  0  0  0  0  0  0  0
  154.4523  135.2733  165.1663 H   0  0  0  0  0  0  0  0  0  0  0  0
  155.9065  135.5374  164.2265 H   0  0  0  0  0  0  0  0  0  0  0  0
  1  2  1  0  0  0  0
  1 22  1  0  0  0  0
  1 23  1  0  0  0  0
  1 24  1  0  0  0  0
  2  3  2  0  0  0  0
  2  4  2  0  0  0  0
  2  5  1  0  0  0  0
  5 21  1  0  0  0  0
  5  6  1  0  0  0  0
  6  7  1  0  0  0  0
  6 25  1  0  0  0  0
  6 26  1  0  0  0  0
  7  8  1  0  0  0  0
  7 27  1  0  0  0  0
  7 28  1  0  0  0  0
  8  9  1  0  0  0  0
  8 20  1  0  0  0  0
  8 29  1  0  0  0  0
  9 10  2  0  0  0  0
  9 11  1  0  0  0  0
 11 12  1  0  0  0  0
 11 30  1  0  0  0  0
 12 13  1  0  0  0  0
 12 31  1  0  0  0  0
 12 32  1  0  0  0  0
 13 14  1  0  0  0  0
 13 33  1  0  0  0  0
 13 34  1  0  0  0  0
 14 19  1  0  0  0  0
 14 15  2  0  0  0  0
 15 16  1  0  0  0  0
 15 35  1  0  0  0  0
 16 17  2  0  0  0  0
 16 36  1  0  0  0  0
 17 18  1  0  0  0  0
 17 37  1  0  0  0  0
 18 19  2  0  0  0  0
 18 38  1  0  0  0  0
 20 21  1  0  0  0  0
 20 39  1  0  0  0  0
 20 40  1  0  0  0  0
 21 41  1  0  0  0  0
 21 42  1  0  0  0  0
M  END
> <s_m_source_file>
AV-unprocessed.smi

> <i_m_source_file_index>
2054

> <i_lp_mmshare_version>
43012

> <i_f3d_flags>
0

> <s_epik_input>
W0NIM11TKD1PKSg9TylOMVtDSDJdW0NIMl1bQ0hdKFtDSDJdW0NIMl0xKUMoPU8pW05IXVtDSDJdW0NIMl1jMltjSF1bY0hdW2NIXVtjSF1uMg==

> <s_epik_cmdline>
J2VwaWtfcHl0aG9uJywgJy1waCcsICc3LjAnLCAnLXRuJywgJzgnLCAnLW1hJywgJzIwMCcsICctbWV0YWxfYmluZGluZycsICctaW1hZScsICc8aW5maWxlLm1hZT4nLCAnLW9tYWUnLCAnPG91dGZpbGUubWFlPic=

> <r_epik_Ionization_Penalty>
0.0277532

> <r_epik_Ionization_Penalty_Charging>
0

> <r_epik_Ionization_Penalty_Neutral>
0.0277532

> <r_epik_State_Penalty>
0.022734

> <r_epik_Charging_Adjusted_Penalty>
0.022734

> <i_epik_Tot_Q>
0

> <i_epik_Tot_abs_Q>
0

> <r_epik_Metal_State_Penalty>
0.021713

> <b_epik_Metal_Only>
0

> <s_lp_Force_Field>
OPLS_2005

> <r_lp_Energy>
2.16831

> <b_lp_Chiralities_Consistent>
1

> <s_lp_Variant>
AV-unprocessed.smi:2054-1

> <Gold.Version>
5.8.1

> <Gold.Id.Protein>
6NUR|6NUR_protein|mol2

> <Gold.PLP.Fitness>
44.0768

> <Gold.PLP.PLP>
-43.4417

> <Gold.PLP.part.hbond>
-0.7210

> <Gold.PLP.part.metal>
0.0000

> <Gold.PLP.part.buried>
-5.8494

> <Gold.PLP.part.nonpolar>
-37.5655

> <Gold.PLP.part.repulsive>
0.1906

> <Gold.PLP.ligand.clash>
0.0000

> <Gold.PLP.ligand.torsion>
1.2878

> <Gold.PLP.Chemscore.Hbond>
0.8125

> <Gold.PLP.Chemscore.CHOScore>
0.0000

> <Gold.PLP.Chemscore.Metal>
0.0000

> <Gold.Chemscore.Hbonds>
donor molecule, donor type, donor heavy atom, donor atom, acceptor molecule, acceptor atom, score
      P1  H  6896  6907       L1    10  1.00

> <Gold.PLP.Chemscore.Internal.Correction>
0.7732

> <Gold.Rescore>
     Score         DG    S(hbond)    S(metal)    S(lipo)     H(rot)  DE(clash)    DE(int)     intcor
     16.51     -17.65       0.99        0.00     116.16       1.84       0.07       1.07       ----

> <Gold.Chemscore.Fitness>
16.5115

> <Gold.Chemscore.DG>
-17.6495

> <Gold.Chemscore.ZeroCoef>
-5.4800

> <Gold.Chemscore.Hbond>
0.9863

> <Gold.Chemscore.Metal>
0.0000

> <Gold.Chemscore.Lipo>
116.1579

> <Gold.Chemscore.Internal_Hbond>
0.0000

> <Gold.Chemscore.DEClash>
0.0665

> <Gold.Chemscore.DEInternal>
1.0716

> <Gold.Chemscore.Rot>
1.8419

> <Gold.Chemscore.Internal.Correction>
   9.000000E+99

> <Gold.Chemscore.Hbonds>
donor molecule, donor type, donor heavy atom, donor atom, acceptor molecule, acceptor atom, score
      P1  H  6896  6907       L1    10  0.97

> <Gold.Chemscore.Hbond.Weighted>
-3.2944

> <Gold.Chemscore.Metal.Weighted>
-0.0000

> <Gold.Chemscore.Lipo.Weighted>
-13.5905

> <Gold.Chemscore.Internal_Hbond.Weighted>
0.0000

> <Gold.Chemscore.DEClash.Weighted>
0.0665

> <Gold.Chemscore.DEInternal.Weighted>
1.0716

> <Gold.Chemscore.Rot.Weighted>
4.7153

> <Gold.Chemscore.Internal.Correction.Weighted>
   9.000000E+99

> <Gold.Protein.RotatedTorsions>
[ 6907 6896 6895 6894 ] final   36.07 input  -60.11 | X-H torsion
[ 7974 7965 7964 7962 ] final   -8.99 input  175.53 | X-H torsion
[ 8008 7997 7996 7995 ] final -163.79 input   59.86 | X-H torsion
[ 10167 10162 10161 10158 ] final -162.78 input  -65.29 | X-H torsion
[ 10718 10713 10712 10709 ] final  -55.79 input   66.30 | X-H torsion
[ 10763 10752 10751 10750 ] final  -77.93 input  -60.55 | X-H torsion
[ 11005 11000 10999 10996 ] final  158.61 input  -57.11 | X-H torsion

> <Gold.Protein.ActiveResidues>
 VAL166  LYS551  ARG553  GLY616  TRP617  ASP618  TYR619  PRO620  LYS621  CYS622 
 ASP623  PHE694  ASN695  SER759  ASP760  ASP761  ALA762  ILE779  LEU786  VAL792 
 PHE793  MET794  SER795  GLU796  ALA797  LYS798  CYS799  TRP800  GLU811  SER814 

> <Gold.Protein.RotatedAtoms>
  152.1248  134.9179  160.0561 H   0  0  0  0  0  0  0  0  0  0  0  0  # atno 6907 bound_to 6896
  152.0306  133.3931  159.4304 H   0  0  0  0  0  0  0  0  0  0  0  0  # atno 6908 bound_to 6896
  150.6851  134.3446  159.4926 H   0  0  0  0  0  0  0  0  0  0  0  0  # atno 6909 bound_to 6896
  146.2264  140.2550  142.8349 H   0  0  0  0  0  0  0  0  0  0  0  0  # atno 7974 bound_to 7965
  155.8263  140.0927  157.1819 H   0  0  0  0  0  0  0  0  0  0  0  0  # atno 8008 bound_to 7997
  154.3979  140.1427  156.3621 H   0  0  0  0  0  0  0  0  0  0  0  0  # atno 8009 bound_to 7997
  155.8213  140.3446  155.5518 H   0  0  0  0  0  0  0  0  0  0  0  0  # atno 8010 bound_to 7997
  139.6368  144.0335  152.2060 H   0  0  0  0  0  0  0  0  0  0  0  0  # atno 10167 bound_to 10162
  156.1340  130.4158  150.0218 H   0  0  0  0  0  0  0  0  0  0  0  0  # atno 10718 bound_to 10713
  154.5193  135.5747  153.6668 H   0  0  0  0  0  0  0  0  0  0  0  0  # atno 10763 bound_to 10752
  152.9914  135.6178  154.2775 H   0  0  0  0  0  0  0  0  0  0  0  0  # atno 10764 bound_to 10752
  154.2695  135.2854  155.2724 H   0  0  0  0  0  0  0  0  0  0  0  0  # atno 10765 bound_to 10752
  140.1881  134.8427  157.2881 H   0  0  0  0  0  0  0  0  0  0  0  0  # atno 11005 bound_to 11000
  144.9382  140.8050  143.5647 LP  0  0  0  0  0  0  0  0  0  0  0  0  # atno 17320 bound_to 7965
  145.2500  139.2036  143.4947 LP  0  0  0  0  0  0  0  0  0  0  0  0  # atno 17321 bound_to 7965
  140.0015  144.6290  150.7726 LP  0  0  0  0  0  0  0  0  0  0  0  0  # atno 17342 bound_to 10162
  140.7469  143.2898  151.3361 LP  0  0  0  0  0  0  0  0  0  0  0  0  # atno 17343 bound_to 10162
  156.8122  130.9329  151.3644 LP  0  0  0  0  0  0  0  0  0  0  0  0  # atno 17370 bound_to 10713
  157.6515  130.8888  149.9643 LP  0  0  0  0  0  0  0  0  0  0  0  0  # atno 17371 bound_to 10713
  140.2190  134.4046  155.7575 LP  0  0  0  0  0  0  0  0  0  0  0  0  # atno 17394 bound_to 11000
  141.2225  133.7156  156.8460 LP  0  0  0  0  0  0  0  0  0  0  0  0  # atno 17395 bound_to 11000

$$$$
