AV-unprocessed.smi:91|AV-procd|sdf|837|dock7
  -GOLD-   2262017263D 1   1.00000     0.00000
 Structure written by MMmdl.
 60 63  0  0  0  0  0  0  0  0  1 V2000
  149.4468  130.4088  159.1316 C   0  0  0  0  0  0  0  0  0  0  0  0
  148.3145  131.0699  158.5952 O   0  0  0  0  0  0  0  0  0  0  0  0
  148.4419  132.4825  158.6328 C   0  0  0  0  0  0  0  0  0  0  0  0
  149.2069  132.9768  157.3974 C   0  0  2  0  0  0  0  0  0  0  0  0
  149.4765  134.4918  157.4229 C   0  0  0  0  0  0  0  0  0  0  0  0
  150.1046  134.9006  156.1723 N   0  0  0  0  0  0  0  0  0  0  0  0
  150.6969  136.1193  156.1124 C   0  0  0  0  0  0  0  0  0  0  0  0
  151.2000  136.5752  154.9340 N   0  0  0  0  0  0  0  0  0  0  0  0
  151.7890  137.7731  154.8705 C   0  0  0  0  0  0  0  0  0  0  0  0
  151.9743  138.6648  155.8456 N   0  0  0  0  0  0  0  0  0  0  0  0
  151.4624  138.2182  157.0279 C   0  0  0  0  0  0  0  0  0  0  0  0
  150.8146  136.9697  157.2478 C   0  0  0  0  0  0  0  0  0  0  0  0
  150.4150  136.8713  158.5757 N   0  0  0  0  0  0  0  0  0  0  0  0
  150.8095  137.9938  159.1115 C   0  0  0  0  0  0  0  0  0  0  0  0
  151.4412  138.8634  158.2524 N   0  0  0  0  0  0  0  0  0  0  0  0
  151.9655  140.1761  158.5869 C   0  0  0  0  0  0  0  0  0  0  0  0
  151.0208  141.3282  158.1637 C   0  0  2  0  0  0  0  0  0  0  0  0
  151.1107  141.6415  156.6501 C   0  0  0  0  0  0  0  0  0  0  0  0
  149.8608  142.0495  156.1320 O   0  0  0  0  0  0  0  0  0  0  0  0
  151.2261  142.5883  159.0420 C   0  0  1  0  0  0  0  0  0  0  0  0
  152.6199  143.1889  158.9838 C   0  0  0  0  0  0  0  0  0  0  0  0
  152.3841  144.5957  159.5198 C   0  0  0  0  0  0  0  0  0  0  0  0
  151.0821  144.9568  159.0750 O   0  0  0  0  0  0  0  0  0  0  0  0
  150.3822  143.7997  158.6270 C   0  0  0  0  0  0  0  0  0  0  0  0
  149.3251  134.5285  154.9970 C   0  0  0  0  0  0  0  0  0  0  0  0
  149.0424  133.0099  154.9794 C   0  0  0  0  0  0  0  0  0  0  0  0
  147.9760  132.6931  153.9200 C   0  0  0  0  0  0  0  0  0  0  0  0
  150.3171  132.1940  154.6757 C   0  0  0  0  0  0  0  0  0  0  0  0
  148.4645  132.6193  156.2306 O   0  0  0  0  0  0  0  0  0  0  0  0
  149.3002  129.3301  159.0802 H   0  0  0  0  0  0  0  0  0  0  0  0
  149.6017  130.6782  160.1772 H   0  0  0  0  0  0  0  0  0  0  0  0
  150.3491  130.6531  158.5697 H   0  0  0  0  0  0  0  0  0  0  0  0
  147.4507  132.9380  158.6562 H   0  0  0  0  0  0  0  0  0  0  0  0
  148.9627  132.7915  159.5404 H   0  0  0  0  0  0  0  0  0  0  0  0
  150.1603  132.4487  157.3802 H   0  0  0  0  0  0  0  0  0  0  0  0
  148.5444  135.0443  157.5513 H   0  0  0  0  0  0  0  0  0  0  0  0
  150.1204  134.7362  158.2688 H   0  0  0  0  0  0  0  0  0  0  0  0
  152.1648  138.0578  153.8989 H   0  0  0  0  0  0  0  0  0  0  0  0
  150.6436  138.2241  160.1539 H   0  0  0  0  0  0  0  0  0  0  0  0
  152.1356  140.1934  159.6633 H   0  0  0  0  0  0  0  0  0  0  0  0
  152.9446  140.2941  158.1212 H   0  0  0  0  0  0  0  0  0  0  0  0
  150.0019  140.9807  158.3418 H   0  0  0  0  0  0  0  0  0  0  0  0
  151.8427  142.4249  156.4545 H   0  0  0  0  0  0  0  0  0  0  0  0
  151.4518  140.7699  156.0922 H   0  0  0  0  0  0  0  0  0  0  0  0
  149.8737  142.9875  156.0170 H   0  0  0  0  0  0  0  0  0  0  0  0
  150.9978  142.3510  160.0825 H   0  0  0  0  0  0  0  0  0  0  0  0
  153.3524  142.6375  159.5739 H   0  0  0  0  0  0  0  0  0  0  0  0
  152.9744  143.2355  157.9531 H   0  0  0  0  0  0  0  0  0  0  0  0
  152.3909  144.5931  160.6105 H   0  0  0  0  0  0  0  0  0  0  0  0
  153.1366  145.3060  159.1766 H   0  0  0  0  0  0  0  0  0  0  0  0
  150.2927  143.8577  157.5414 H   0  0  0  0  0  0  0  0  0  0  0  0
  149.3759  143.7675  159.0455 H   0  0  0  0  0  0  0  0  0  0  0  0
  148.3844  135.0802  155.0302 H   0  0  0  0  0  0  0  0  0  0  0  0
  149.8214  134.8220  154.0725 H   0  0  0  0  0  0  0  0  0  0  0  0
  148.3138  132.9703  152.9207 H   0  0  0  0  0  0  0  0  0  0  0  0
  147.0499  133.2340  154.1176 H   0  0  0  0  0  0  0  0  0  0  0  0
  147.7374  131.6293  153.9063 H   0  0  0  0  0  0  0  0  0  0  0  0
  150.6850  132.4072  153.6715 H   0  0  0  0  0  0  0  0  0  0  0  0
  150.1217  131.1229  154.7347 H   0  0  0  0  0  0  0  0  0  0  0  0
  151.1316  132.4204  155.3630 H   0  0  0  0  0  0  0  0  0  0  0  0
  1  2  1  0  0  0  0
  1 30  1  0  0  0  0
  1 31  1  0  0  0  0
  1 32  1  0  0  0  0
  2  3  1  0  0  0  0
  3  4  1  0  0  0  0
  3 33  1  0  0  0  0
  3 34  1  0  0  0  0
  4 29  1  0  0  0  0
  4  5  1  0  0  0  0
  4 35  1  0  0  0  0
  5  6  1  0  0  0  0
  5 36  1  0  0  0  0
  5 37  1  0  0  0  0
  6  7  1  0  0  0  0
  6 25  1  0  0  0  0
  7 12  1  0  0  0  0
  7  8  2  0  0  0  0
  8  9  1  0  0  0  0
  9 10  2  0  0  0  0
  9 38  1  0  0  0  0
 10 11  1  0  0  0  0
 11 15  1  0  0  0  0
 11 12  2  0  0  0  0
 12 13  1  0  0  0  0
 13 14  2  0  0  0  0
 14 15  1  0  0  0  0
 14 39  1  0  0  0  0
 15 16  1  0  0  0  0
 16 17  1  0  0  0  0
 16 40  1  0  0  0  0
 16 41  1  0  0  0  0
 17 18  1  0  0  0  0
 17 20  1  0  0  0  0
 17 42  1  0  0  0  0
 18 19  1  0  0  0  0
 18 43  1  0  0  0  0
 18 44  1  0  0  0  0
 19 45  1  0  0  0  0
 20 24  1  0  0  0  0
 20 21  1  0  0  0  0
 20 46  1  0  0  0  0
 21 22  1  0  0  0  0
 21 47  1  0  0  0  0
 21 48  1  0  0  0  0
 22 23  1  0  0  0  0
 22 49  1  0  0  0  0
 22 50  1  0  0  0  0
 23 24  1  0  0  0  0
 24 51  1  0  0  0  0
 24 52  1  0  0  0  0
 25 26  1  0  0  0  0
 25 53  1  0  0  0  0
 25 54  1  0  0  0  0
 26 27  1  0  0  0  0
 26 28  1  0  0  0  0
 26 29  1  0  0  0  0
 27 55  1  0  0  0  0
 27 56  1  0  0  0  0
 27 57  1  0  0  0  0
 28 58  1  0  0  0  0
 28 59  1  0  0  0  0
 28 60  1  0  0  0  0
M  END
> <s_m_source_file>
AV-unprocessed.smi

> <i_m_source_file_index>
91

> <i_lp_mmshare_version>
43012

> <i_f3d_flags>
0

> <s_epik_input>
W0NIM11PW0NIMl1bQ0BASF0oTzEpW0NIMl1OKFtDSDJdQzEoW0NIM10pW0NIM10pYyhuW2NIXW4yKWMoYzIzKW5bY0hdbjNbQ0gyXVtDQEhdKFtDSDJdW09IXSlbQ0BASF00W0NIMl1bQ0gyXU9bQ0gyXTQ=

> <s_epik_cmdline>
J2VwaWtfcHl0aG9uJywgJy1waCcsICc3LjAnLCAnLXRuJywgJzgnLCAnLW1hJywgJzIwMCcsICctbWV0YWxfYmluZGluZycsICctaW1hZScsICc8aW5maWxlLm1hZT4nLCAnLW9tYWUnLCAnPG91dGZpbGUubWFlPic=

> <r_lp_tautomer_probability>
1

> <r_epik_Ionization_Penalty>
8.63591e-05

> <r_epik_Ionization_Penalty_Charging>
0

> <r_epik_Ionization_Penalty_Neutral>
8.63591e-05

> <r_epik_State_Penalty>
-0

> <r_epik_Charging_Adjusted_Penalty>
0

> <i_epik_Tot_Q>
0

> <i_epik_Tot_abs_Q>
0

> <r_epik_Metal_State_Penalty>
-0

> <b_epik_Metal_Only>
0

> <s_lp_Force_Field>
OPLS_2005

> <r_lp_Energy>
47.5582

> <b_lp_Chiralities_Consistent>
1

> <s_lp_Variant>
AV-unprocessed.smi:91-5

> <Gold.Version>
5.8.1

> <Gold.Id.Protein>
6NUR|6NUR_protein|mol2

> <Gold.PLP.Fitness>
40.9174

> <Gold.PLP.PLP>
-37.0486

> <Gold.PLP.part.hbond>
-2.4203

> <Gold.PLP.part.metal>
0.0000

> <Gold.PLP.part.buried>
-7.3720

> <Gold.PLP.part.nonpolar>
-28.0746

> <Gold.PLP.part.repulsive>
0.3026

> <Gold.PLP.ligand.clash>
0.0000

> <Gold.PLP.ligand.torsion>
1.4367

> <Gold.PLP.Chemscore.Hbond>
2.0714

> <Gold.PLP.Chemscore.CHOScore>
0.0000

> <Gold.PLP.Chemscore.Metal>
0.0000

> <Gold.Chemscore.Hbonds>
donor molecule, donor type, donor heavy atom, donor atom, acceptor molecule, acceptor atom, score
      L1  H    19    45       P1  8028  1.00
      P1  H  6896  6908       L1    13  0.20
      P1  H 10752 10763       L1     8  0.60

> <Gold.PLP.Chemscore.Internal.Correction>
0.5278

> <Gold.Rescore>
     Score         DG    S(hbond)    S(metal)    S(lipo)     H(rot)  DE(clash)    DE(int)     intcor
      9.82     -12.63       0.99        0.00      99.15       3.03       0.25       2.57       ----

> <Gold.Chemscore.Fitness>
9.8189

> <Gold.Chemscore.DG>
-12.6322

> <Gold.Chemscore.ZeroCoef>
-5.4800

> <Gold.Chemscore.Hbond>
0.9892

> <Gold.Chemscore.Metal>
0.0000

> <Gold.Chemscore.Lipo>
99.1541

> <Gold.Chemscore.Internal_Hbond>
0.0000

> <Gold.Chemscore.DEClash>
0.2463

> <Gold.Chemscore.DEInternal>
2.5670

> <Gold.Chemscore.Rot>
3.0284

> <Gold.Chemscore.Internal.Correction>
   9.000000E+99

> <Gold.Chemscore.Hbonds>
donor molecule, donor type, donor heavy atom, donor atom, acceptor molecule, acceptor atom, score
      L1  H    19    45       P1  8028  0.88
      P1  H  6896  6908       L1    13  0.12
      P1  H 10752 10763       L1     8  0.02

> <Gold.Chemscore.Hbond.Weighted>
-3.3040

> <Gold.Chemscore.Metal.Weighted>
-0.0000

> <Gold.Chemscore.Lipo.Weighted>
-11.6010

> <Gold.Chemscore.Internal_Hbond.Weighted>
0.0000

> <Gold.Chemscore.DEClash.Weighted>
0.2463

> <Gold.Chemscore.DEInternal.Weighted>
2.5670

> <Gold.Chemscore.Rot.Weighted>
7.7528

> <Gold.Chemscore.Internal.Correction.Weighted>
   9.000000E+99

> <Gold.Protein.RotatedTorsions>
[ 6907 6896 6895 6894 ] final -137.18 input  -60.11 | X-H torsion
[ 7974 7965 7964 7962 ] final  -54.39 input  175.53 | X-H torsion
[ 8008 7997 7996 7995 ] final -139.00 input   59.86 | X-H torsion
[ 10167 10162 10161 10158 ] final   93.59 input  -65.29 | X-H torsion
[ 10718 10713 10712 10709 ] final -112.85 input   66.30 | X-H torsion
[ 10763 10752 10751 10750 ] final   74.94 input  -60.55 | X-H torsion
[ 11005 11000 10999 10996 ] final   42.15 input  -57.11 | X-H torsion

> <Gold.Protein.ActiveResidues>
 VAL166  LYS551  ARG553  GLY616  TRP617  ASP618  TYR619  PRO620  LYS621  CYS622 
 ASP623  PHE694  ASN695  SER759  ASP760  ASP761  ALA762  ILE779  LEU786  VAL792 
 PHE793  MET794  SER795  GLU796  ALA797  LYS798  CYS799  TRP800  GLU811  SER814 

> <Gold.Protein.RotatedAtoms>
  151.0193  133.5892  159.2672 H   0  0  0  0  0  0  0  0  0  0  0  0  # atno 6907 bound_to 6896
  151.3014  135.0769  159.9250 H   0  0  0  0  0  0  0  0  0  0  0  0  # atno 6908 bound_to 6896
  152.5319  133.9874  159.7889 H   0  0  0  0  0  0  0  0  0  0  0  0  # atno 6909 bound_to 6896
  145.8861  140.8107  142.9815 H   0  0  0  0  0  0  0  0  0  0  0  0  # atno 7974 bound_to 7965
  155.4376  140.0529  157.3013 H   0  0  0  0  0  0  0  0  0  0  0  0  # atno 8008 bound_to 7997
  154.4832  140.2090  155.9673 H   0  0  0  0  0  0  0  0  0  0  0  0  # atno 8009 bound_to 7997
  156.1236  140.3184  155.8250 H   0  0  0  0  0  0  0  0  0  0  0  0  # atno 8010 bound_to 7997
  139.8165  144.6750  150.9573 H   0  0  0  0  0  0  0  0  0  0  0  0  # atno 10167 bound_to 10162
  156.0730  130.5941  150.8563 H   0  0  0  0  0  0  0  0  0  0  0  0  # atno 10718 bound_to 10713
  153.0621  135.5007  154.8117 H   0  0  0  0  0  0  0  0  0  0  0  0  # atno 10763 bound_to 10752
  154.6898  135.2982  154.9498 H   0  0  0  0  0  0  0  0  0  0  0  0  # atno 10764 bound_to 10752
  154.0256  135.6736  153.4829 H   0  0  0  0  0  0  0  0  0  0  0  0  # atno 10765 bound_to 10752
  140.1767  134.4155  155.8224 H   0  0  0  0  0  0  0  0  0  0  0  0  # atno 11005 bound_to 11000
  144.6728  140.1458  143.7433 LP  0  0  0  0  0  0  0  0  0  0  0  0  # atno 17320 bound_to 7965
  145.8965  139.2405  143.1519 LP  0  0  0  0  0  0  0  0  0  0  0  0  # atno 17321 bound_to 7965
  140.7815  143.4133  151.0957 LP  0  0  0  0  0  0  0  0  0  0  0  0  # atno 17342 bound_to 10162
  139.7796  143.8374  152.3135 LP  0  0  0  0  0  0  0  0  0  0  0  0  # atno 17343 bound_to 10162
  157.5811  131.0946  150.9269 LP  0  0  0  0  0  0  0  0  0  0  0  0  # atno 17370 bound_to 10713
  156.9464  130.5403  149.5281 LP  0  0  0  0  0  0  0  0  0  0  0  0  # atno 17371 bound_to 10713
  141.2221  133.6981  156.7858 LP  0  0  0  0  0  0  0  0  0  0  0  0  # atno 17394 bound_to 11000
  140.2315  134.8682  157.3481 LP  0  0  0  0  0  0  0  0  0  0  0  0  # atno 17395 bound_to 11000

$$$$
