AV-unprocessed.smi:234|AV-procd|sdf|1798|dock9
  -GOLD-   2262020363D 1   1.00000     0.00000
 Structure written by MMmdl.
 59 62  0  0  0  0  0  0  0  0  1 V2000
  152.6475  138.6483  154.4352 C   0  0  0  0  0  0  0  0  0  0  0  0
  151.5764  139.2254  155.3699 C   0  0  0  0  0  0  0  0  0  0  0  0
  150.2586  139.0290  154.8747 O   0  0  0  0  0  0  0  0  0  0  0  0
  149.2351  139.0623  155.8612 C   0  0  1  0  0  0  0  0  0  0  0  0
  147.8106  139.1880  155.3195 C   0  0  0  0  0  0  0  0  0  0  0  0
  147.4151  138.2032  156.4282 C   0  0  1  0  0  0  0  0  0  0  0  0
  146.3747  137.2456  156.0361 N   0  0  0  0  0  0  0  0  0  0  0  0
  145.1152  137.2632  156.7727 C   0  0  0  0  0  0  0  0  0  0  0  0
  146.1834  137.0222  154.7120 C   0  0  0  0  0  0  0  0  0  0  0  0
  145.6743  138.0025  153.9186 N   0  0  0  0  0  0  0  0  0  0  0  0
  145.4727  137.7769  152.6171 C   0  0  0  0  0  0  0  0  0  0  0  0
  145.7057  136.6650  151.9169 N   0  0  0  0  0  0  0  0  0  0  0  0
  146.2135  135.6778  152.7094 C   0  0  0  0  0  0  0  0  0  0  0  0
  146.4738  135.7694  154.1055 C   0  0  0  0  0  0  0  0  0  0  0  0
  146.9836  134.5649  154.5741 N   0  0  0  0  0  0  0  0  0  0  0  0
  147.0256  133.8049  153.5138 C   0  0  0  0  0  0  0  0  0  0  0  0
  146.5907  134.3960  152.3486 N   0  0  0  0  0  0  0  0  0  0  0  0
  146.5400  133.7856  151.0285 C   0  0  0  0  0  0  0  0  0  0  0  0
  145.0966  133.6104  150.4868 C   0  0  2  0  0  0  0  0  0  0  0  0
  144.6278  134.8872  150.0845 O   0  0  0  0  0  0  0  0  0  0  0  0
  144.1160  133.0545  151.5145 C   0  0  0  0  0  0  0  0  0  0  0  0
  143.0678  132.3733  150.6485 C   0  0  0  0  0  0  0  0  0  0  0  0
  143.8504  131.7718  149.6318 O   0  0  0  0  0  0  0  0  0  0  0  0
  144.9212  132.6459  149.2801 C   0  0  2  0  0  0  0  0  0  0  0  0
  146.1283  131.7645  148.9226 C   0  0  0  0  0  0  0  0  0  0  0  0
  148.8679  137.6499  156.3832 C   0  0  0  0  0  0  0  0  0  0  0  0
  149.1533  136.4892  155.4124 C   0  0  0  0  0  0  0  0  0  0  0  0
  149.4970  137.2779  157.7265 C   0  0  0  0  0  0  0  0  0  0  0  0
  153.6311  138.6957  154.9027 H   0  0  0  0  0  0  0  0  0  0  0  0
  152.7085  139.2008  153.4989 H   0  0  0  0  0  0  0  0  0  0  0  0
  152.4405  137.6039  154.2006 H   0  0  0  0  0  0  0  0  0  0  0  0
  151.6388  138.7091  156.3281 H   0  0  0  0  0  0  0  0  0  0  0  0
  151.7626  140.2798  155.5774 H   0  0  0  0  0  0  0  0  0  0  0  0
  149.4401  139.7570  156.6794 H   0  0  0  0  0  0  0  0  0  0  0  0
  147.3699  140.1798  155.4202 H   0  0  0  0  0  0  0  0  0  0  0  0
  147.6957  138.7928  154.3087 H   0  0  0  0  0  0  0  0  0  0  0  0
  147.2029  138.7189  157.3670 H   0  0  0  0  0  0  0  0  0  0  0  0
  144.2845  137.5935  156.1467 H   0  0  0  0  0  0  0  0  0  0  0  0
  145.1655  137.9366  157.6271 H   0  0  0  0  0  0  0  0  0  0  0  0
  144.8852  136.2650  157.1456 H   0  0  0  0  0  0  0  0  0  0  0  0
  145.0661  138.6059  152.0568 H   0  0  0  0  0  0  0  0  0  0  0  0
  147.3856  132.7868  153.5504 H   0  0  0  0  0  0  0  0  0  0  0  0
  147.1295  134.4006  150.3472 H   0  0  0  0  0  0  0  0  0  0  0  0
  147.0463  132.8224  151.0919 H   0  0  0  0  0  0  0  0  0  0  0  0
  144.8524  135.0149  149.1756 H   0  0  0  0  0  0  0  0  0  0  0  0
  144.6055  132.2985  152.1293 H   0  0  0  0  0  0  0  0  0  0  0  0
  143.6996  133.8093  152.1833 H   0  0  0  0  0  0  0  0  0  0  0  0
  142.4817  131.6349  151.1956 H   0  0  0  0  0  0  0  0  0  0  0  0
  142.3856  133.1018  150.2079 H   0  0  0  0  0  0  0  0  0  0  0  0
  144.6239  133.1996  148.3874 H   0  0  0  0  0  0  0  0  0  0  0  0
  146.9879  132.3661  148.6270 H   0  0  0  0  0  0  0  0  0  0  0  0
  145.8892  131.1066  148.0869 H   0  0  0  0  0  0  0  0  0  0  0  0
  146.4237  131.1327  149.7606 H   0  0  0  0  0  0  0  0  0  0  0  0
  148.7450  135.5469  155.7779 H   0  0  0  0  0  0  0  0  0  0  0  0
  150.2246  136.3417  155.2732 H   0  0  0  0  0  0  0  0  0  0  0  0
  148.7244  136.6627  154.4253 H   0  0  0  0  0  0  0  0  0  0  0  0
  149.1394  136.3151  158.0911 H   0  0  0  0  0  0  0  0  0  0  0  0
  149.2702  138.0187  158.4937 H   0  0  0  0  0  0  0  0  0  0  0  0
  150.5830  137.2155  157.6503 H   0  0  0  0  0  0  0  0  0  0  0  0
  1  2  1  0  0  0  0
  1 29  1  0  0  0  0
  1 30  1  0  0  0  0
  1 31  1  0  0  0  0
  2  3  1  0  0  0  0
  2 32  1  0  0  0  0
  2 33  1  0  0  0  0
  3  4  1  0  0  0  0
  4 26  1  0  0  0  0
  4  5  1  0  0  0  0
  4 34  1  0  0  0  0
  5  6  1  0  0  0  0
  5 35  1  0  0  0  0
  5 36  1  0  0  0  0
  6  7  1  0  0  0  0
  6 26  1  0  0  0  0
  6 37  1  0  0  0  0
  7  8  1  0  0  0  0
  7  9  1  0  0  0  0
  8 38  1  0  0  0  0
  8 39  1  0  0  0  0
  8 40  1  0  0  0  0
  9 14  1  0  0  0  0
  9 10  2  0  0  0  0
 10 11  1  0  0  0  0
 11 12  2  0  0  0  0
 11 41  1  0  0  0  0
 12 13  1  0  0  0  0
 13 17  1  0  0  0  0
 13 14  2  0  0  0  0
 14 15  1  0  0  0  0
 15 16  2  0  0  0  0
 16 17  1  0  0  0  0
 16 42  1  0  0  0  0
 17 18  1  0  0  0  0
 18 19  1  0  0  0  0
 18 43  1  0  0  0  0
 18 44  1  0  0  0  0
 19 24  1  0  0  0  0
 19 20  1  0  0  0  0
 19 21  1  0  0  0  0
 20 45  1  0  0  0  0
 21 22  1  0  0  0  0
 21 46  1  0  0  0  0
 21 47  1  0  0  0  0
 22 23  1  0  0  0  0
 22 48  1  0  0  0  0
 22 49  1  0  0  0  0
 23 24  1  0  0  0  0
 24 25  1  0  0  0  0
 24 50  1  0  0  0  0
 25 51  1  0  0  0  0
 25 52  1  0  0  0  0
 25 53  1  0  0  0  0
 26 27  1  0  0  0  0
 26 28  1  0  0  0  0
 27 54  1  0  0  0  0
 27 55  1  0  0  0  0
 27 56  1  0  0  0  0
 28 57  1  0  0  0  0
 28 58  1  0  0  0  0
 28 59  1  0  0  0  0
M  END
> <s_m_source_file>
AV-unprocessed.smi

> <i_m_source_file_index>
234

> <i_lp_mmshare_version>
43012

> <i_f3d_flags>
0

> <s_epik_input>
W0NIM11bQ0gyXU9bQ0BASF0oQzEoW0NIM10pW0NIM10pW0NIMl1bQ0BIXTFOKFtDSDNdKWMobltjSF1uMiljKGMyMyluW2NIXW4zW0NIMl1bQ0BAXTQoW09IXSlbQ0gyXVtDSDJdT1tDQEhdNFtDSDNd

> <s_epik_cmdline>
J2VwaWtfcHl0aG9uJywgJy1waCcsICc3LjAnLCAnLXRuJywgJzgnLCAnLW1hJywgJzIwMCcsICctbWV0YWxfYmluZGluZycsICctaW1hZScsICc8aW5maWxlLm1hZT4nLCAnLW9tYWUnLCAnPG91dGZpbGUubWFlPic=

> <r_lp_tautomer_probability>
1

> <r_epik_Ionization_Penalty>
0.00349132

> <r_epik_Ionization_Penalty_Charging>
0

> <r_epik_Ionization_Penalty_Neutral>
0.00349132

> <r_epik_State_Penalty>
0.00242418

> <r_epik_Charging_Adjusted_Penalty>
0.00242418

> <i_epik_Tot_Q>
0

> <i_epik_Tot_abs_Q>
0

> <r_epik_Metal_State_Penalty>
-0

> <b_epik_Metal_Only>
0

> <s_lp_Force_Field>
OPLS_2005

> <r_lp_Energy>
48.9285

> <b_lp_Chiralities_Consistent>
1

> <s_lp_Variant>
AV-unprocessed.smi:234-14

> <Gold.Version>
5.8.1

> <Gold.Id.Protein>
6NUR|6NUR_protein|mol2

> <Gold.PLP.Fitness>
37.5678

> <Gold.PLP.PLP>
-28.6662

> <Gold.PLP.part.hbond>
-2.0000

> <Gold.PLP.part.metal>
0.0000

> <Gold.PLP.part.buried>
0.8512

> <Gold.PLP.part.nonpolar>
-27.0644

> <Gold.PLP.part.repulsive>
0.7258

> <Gold.PLP.ligand.clash>
0.0000

> <Gold.PLP.ligand.torsion>
1.8240

> <Gold.PLP.Chemscore.Hbond>
1.8480

> <Gold.PLP.Chemscore.CHOScore>
1.9942

> <Gold.PLP.Chemscore.Metal>
0.0000

> <Gold.Chemscore.Hbonds>
donor molecule, donor type, donor heavy atom, donor atom, acceptor molecule, acceptor atom, score
      L1  H    20    45       P1  7921  1.00
      P1  H 10785 10796       L1    23  0.82
      L1  C    11    41       P1 10171  0.99
      L1  C    11    41       P1 10175  1.00

> <Gold.PLP.Chemscore.Internal.Correction>
1.0231

> <Gold.Rescore>
     Score         DG    S(hbond)    S(metal)    S(lipo)     H(rot)  DE(clash)    DE(int)     intcor
      9.03     -13.59       1.70        0.00      78.14       2.62       1.35       3.21       ----

> <Gold.Chemscore.Fitness>
9.0268

> <Gold.Chemscore.DG>
-13.5903

> <Gold.Chemscore.ZeroCoef>
-5.4800

> <Gold.Chemscore.Hbond>
1.7007

> <Gold.Chemscore.Metal>
0.0000

> <Gold.Chemscore.Lipo>
78.1367

> <Gold.Chemscore.Internal_Hbond>
0.0000

> <Gold.Chemscore.DEClash>
1.3538

> <Gold.Chemscore.DEInternal>
3.2097

> <Gold.Chemscore.Rot>
2.6219

> <Gold.Chemscore.Internal.Correction>
   9.000000E+99

> <Gold.Chemscore.Hbonds>
donor molecule, donor type, donor heavy atom, donor atom, acceptor molecule, acceptor atom, score
      L1  H    20    45       P1  7921  0.91
      P1  H 10785 10796       L1    23  0.78

> <Gold.Chemscore.Hbond.Weighted>
-5.6804

> <Gold.Chemscore.Metal.Weighted>
-0.0000

> <Gold.Chemscore.Lipo.Weighted>
-9.1420

> <Gold.Chemscore.Internal_Hbond.Weighted>
0.0000

> <Gold.Chemscore.DEClash.Weighted>
1.3538

> <Gold.Chemscore.DEInternal.Weighted>
3.2097

> <Gold.Chemscore.Rot.Weighted>
6.7121

> <Gold.Chemscore.Internal.Correction.Weighted>
   9.000000E+99

> <Gold.Protein.RotatedTorsions>
[ 6907 6896 6895 6894 ] final  108.00 input  -60.11 | X-H torsion
[ 7974 7965 7964 7962 ] final   76.90 input  175.53 | X-H torsion
[ 8008 7997 7996 7995 ] final  155.93 input   59.86 | X-H torsion
[ 10167 10162 10161 10158 ] final  126.85 input  -65.29 | X-H torsion
[ 10718 10713 10712 10709 ] final -128.94 input   66.30 | X-H torsion
[ 10763 10752 10751 10750 ] final   68.98 input  -60.55 | X-H torsion
[ 11005 11000 10999 10996 ] final  -13.30 input  -57.11 | X-H torsion

> <Gold.Protein.ActiveResidues>
 VAL166  LYS551  ARG553  GLY616  TRP617  ASP618  TYR619  PRO620  LYS621  CYS622 
 ASP623  PHE694  ASN695  SER759  ASP760  ASP761  ALA762  ILE779  LEU786  VAL792 
 PHE793  MET794  SER795  GLU796  ALA797  LYS798  CYS799  TRP800  GLU811  SER814 

> <Gold.Protein.RotatedAtoms>
  152.5131  133.9153  159.7507 H   0  0  0  0  0  0  0  0  0  0  0  0  # atno 6907 bound_to 6896
  150.9537  133.6513  159.2774 H   0  0  0  0  0  0  0  0  0  0  0  0  # atno 6908 bound_to 6896
  151.3782  135.0940  159.9540 H   0  0  0  0  0  0  0  0  0  0  0  0  # atno 6909 bound_to 6896
  145.6969  139.2570  143.1728 H   0  0  0  0  0  0  0  0  0  0  0  0  # atno 7974 bound_to 7965
  156.2451  140.1926  156.6878 H   0  0  0  0  0  0  0  0  0  0  0  0  # atno 8008 bound_to 7997
  154.6274  140.0600  156.9716 H   0  0  0  0  0  0  0  0  0  0  0  0  # atno 8009 bound_to 7997
  155.1765  140.3272  155.4385 H   0  0  0  0  0  0  0  0  0  0  0  0  # atno 8010 bound_to 7997
  139.5609  144.6881  151.4046 H   0  0  0  0  0  0  0  0  0  0  0  0  # atno 10167 bound_to 10162
  156.1999  130.6850  151.0527 H   0  0  0  0  0  0  0  0  0  0  0  0  # atno 10718 bound_to 10713
  153.0263  135.5227  154.7218 H   0  0  0  0  0  0  0  0  0  0  0  0  # atno 10763 bound_to 10752
  154.6271  135.2896  155.0262 H   0  0  0  0  0  0  0  0  0  0  0  0  # atno 10764 bound_to 10752
  154.1227  135.6605  153.4959 H   0  0  0  0  0  0  0  0  0  0  0  0  # atno 10765 bound_to 10752
  140.7747  133.8410  155.9238 H   0  0  0  0  0  0  0  0  0  0  0  0  # atno 11005 bound_to 11000
  146.0833  140.7740  142.9631 LP  0  0  0  0  0  0  0  0  0  0  0  0  # atno 17320 bound_to 7965
  144.6980  140.3522  143.7179 LP  0  0  0  0  0  0  0  0  0  0  0  0  # atno 17321 bound_to 7965
  140.6888  143.7909  150.7225 LP  0  0  0  0  0  0  0  0  0  0  0  0  # atno 17342 bound_to 10162
  140.1385  143.4462  152.2209 LP  0  0  0  0  0  0  0  0  0  0  0  0  # atno 17343 bound_to 10162
  157.6980  131.0787  150.6910 LP  0  0  0  0  0  0  0  0  0  0  0  0  # atno 17370 bound_to 10713
  156.6968  130.4611  149.5584 LP  0  0  0  0  0  0  0  0  0  0  0  0  # atno 17371 bound_to 10713
  140.9540  134.1742  157.4706 LP  0  0  0  0  0  0  0  0  0  0  0  0  # atno 17394 bound_to 11000
  139.8751  134.9920  156.5575 LP  0  0  0  0  0  0  0  0  0  0  0  0  # atno 17395 bound_to 11000

$$$$
