AV-unprocessed.smi:1893|AV-procd|sdf|7678|dock5
  -GOLD-   22720 9423D 1   1.00000     0.00000
 Structure written by MMmdl.
 43 44  0  0  0  0  0  0  0  0  2 V2000
  145.1244  135.8248  150.6544 C   0  0  0  0  0  0  0  0  0  0  0  0
  145.5101  135.1417  151.9839 C   0  0  1  0  0  0  0  0  0  0  0  0
  146.1074  133.7530  151.6608 C   0  0  0  0  0  0  0  0  0  0  0  0
  146.5270  132.9960  152.9226 C   0  0  0  0  0  0  0  0  0  0  0  0
  147.5048  133.8551  153.7224 C   0  0  0  0  0  0  0  0  0  0  0  0
  146.8793  135.2185  154.0452 C   0  0  0  0  0  0  0  0  0  0  0  0
  146.4625  135.9521  152.8143 N   0  3  2  0  0  0  0  0  0  0  0  0
  145.9801  137.3268  153.1358 C   0  0  0  0  0  0  0  0  0  0  0  0
  146.4026  138.3709  152.0862 C   0  0  0  0  0  0  0  0  0  0  0  0
  147.4793  139.2056  152.6000 N   0  0  0  0  0  0  0  0  0  0  0  0
  147.4082  139.9211  153.7328 C   0  0  0  0  0  0  0  0  0  0  0  0
  146.4040  139.9488  154.4451 O   0  0  0  0  0  0  0  0  0  0  0  0
  148.6673  140.7153  154.1135 C   0  0  1  0  0  0  0  0  0  0  0  0
  148.4299  141.6957  155.2773 C   0  0  0  0  0  0  0  0  0  0  0  0
  149.7637  139.8043  154.4121 N   0  0  0  0  0  0  0  0  0  0  0  0
  150.2305  138.7456  153.7438 C   0  0  0  0  0  0  0  0  0  0  0  0
  151.2679  138.1592  154.3244 N   0  0  0  0  0  0  0  0  0  0  0  0
  151.3980  138.9610  155.4226 C   0  0  0  0  0  0  0  0  0  0  0  0
  150.5258  139.9645  155.5205 N   0  0  0  0  0  0  0  0  0  0  0  0
  144.5898  135.1328  150.0028 H   0  0  0  0  0  0  0  0  0  0  0  0
  146.0056  136.1689  150.1119 H   0  0  0  0  0  0  0  0  0  0  0  0
  144.4560  136.6727  150.7976 H   0  0  0  0  0  0  0  0  0  0  0  0
  144.5990  134.9938  152.5661 H   0  0  0  0  0  0  0  0  0  0  0  0
  145.3829  133.1524  151.1094 H   0  0  0  0  0  0  0  0  0  0  0  0
  146.9720  133.8678  151.0049 H   0  0  0  0  0  0  0  0  0  0  0  0
  145.6505  132.7632  153.5286 H   0  0  0  0  0  0  0  0  0  0  0  0
  146.9887  132.0443  152.6574 H   0  0  0  0  0  0  0  0  0  0  0  0
  147.7809  133.3434  154.6449 H   0  0  0  0  0  0  0  0  0  0  0  0
  148.4272  133.9948  153.1567 H   0  0  0  0  0  0  0  0  0  0  0  0
  146.0155  135.0853  154.6986 H   0  0  0  0  0  0  0  0  0  0  0  0
  147.6112  135.7923  154.6101 H   0  0  0  0  0  0  0  0  0  0  0  0
  144.8940  137.3593  153.1713 H   0  0  0  0  0  0  0  0  0  0  0  0
  146.3262  137.6144  154.1300 H   0  0  0  0  0  0  0  0  0  0  0  0
  146.7574  137.9017  151.1692 H   0  0  0  0  0  0  0  0  0  0  0  0
  145.5480  138.9963  151.8223 H   0  0  0  0  0  0  0  0  0  0  0  0
  148.3387  139.2356  152.0703 H   0  0  0  0  0  0  0  0  0  0  0  0
  148.9494  141.3086  153.2415 H   0  0  0  0  0  0  0  0  0  0  0  0
  147.6235  142.3933  155.0485 H   0  0  0  0  0  0  0  0  0  0  0  0
  149.3251  142.2858  155.4750 H   0  0  0  0  0  0  0  0  0  0  0  0
  148.1687  141.1756  156.2001 H   0  0  0  0  0  0  0  0  0  0  0  0
  149.8047  138.3995  152.8132 H   0  0  0  0  0  0  0  0  0  0  0  0
  152.1616  138.8037  156.1703 H   0  0  0  0  0  0  0  0  0  0  0  0
  147.2916  136.0679  152.2491 H   0  0  0  0  0  0  0  0  0  0  0  0
  1  2  1  0  0  0  0
  1 20  1  0  0  0  0
  1 21  1  0  0  0  0
  1 22  1  0  0  0  0
  2  7  1  0  0  0  0
  2  3  1  0  0  0  0
  2 23  1  0  0  0  0
  3  4  1  0  0  0  0
  3 24  1  0  0  0  0
  3 25  1  0  0  0  0
  4  5  1  0  0  0  0
  4 26  1  0  0  0  0
  4 27  1  0  0  0  0
  5  6  1  0  0  0  0
  5 28  1  0  0  0  0
  5 29  1  0  0  0  0
  6  7  1  0  0  0  0
  6 30  1  0  0  0  0
  6 31  1  0  0  0  0
  7  8  1  0  0  0  0
  7 43  1  0  0  0  0
  8  9  1  0  0  0  0
  8 32  1  0  0  0  0
  8 33  1  0  0  0  0
  9 10  1  0  0  0  0
  9 34  1  0  0  0  0
  9 35  1  0  0  0  0
 10 11  1  0  0  0  0
 10 36  1  0  0  0  0
 11 12  2  0  0  0  0
 11 13  1  0  0  0  0
 13 14  1  0  0  0  0
 13 15  1  0  0  0  0
 13 37  1  0  0  0  0
 14 38  1  0  0  0  0
 14 39  1  0  0  0  0
 14 40  1  0  0  0  0
 15 19  1  0  0  0  0
 15 16  1  0  0  0  0
 16 17  2  0  0  0  0
 16 41  1  0  0  0  0
 17 18  1  0  0  0  0
 18 19  2  0  0  0  0
 18 42  1  0  0  0  0
M  CHG  1   7   1
M  END
> <s_m_source_file>
AV-unprocessed.smi

> <i_m_source_file_index>
1893

> <i_lp_mmshare_version>
43012

> <i_f3d_flags>
0

> <s_epik_input>
W0NIM11bQ0BASF0xW0NIMl1bQ0gyXVtDSDJdW0NIMl1OMVtDSDJdW0NIMl1bTkhdQyg9TylbQ0BIXShbQ0gzXSluMltjSF1uW2NIXW4y

> <s_epik_cmdline>
J2VwaWtfcHl0aG9uJywgJy1waCcsICc3LjAnLCAnLXRuJywgJzgnLCAnLW1hJywgJzIwMCcsICctbWV0YWxfYmluZGluZycsICctaW1hZScsICc8aW5maWxlLm1hZT4nLCAnLW9tYWUnLCAnPG91dGZpbGUubWFlPic=

> <r_lp_tautomer_probability>
1

> <r_epik_Ionization_Penalty>
0.00266409

> <r_epik_Ionization_Penalty_Charging>
0.00265606

> <r_epik_Ionization_Penalty_Neutral>
8.02794e-06

> <r_epik_State_Penalty>
0.00184955

> <r_epik_Charging_Adjusted_Penalty>
0.00450561

> <i_epik_Tot_Q>
1

> <i_epik_Tot_abs_Q>
1

> <r_epik_Metal_State_Penalty>
-0

> <b_epik_Metal_Only>
0

> <s_lp_Force_Field>
OPLS_2005

> <r_lp_Energy>
26.1161

> <b_lp_Chiralities_Consistent>
1

> <s_lp_Variant>
AV-unprocessed.smi:1893-8

> <Gold.Version>
5.8.1

> <Gold.Id.Protein>
6NUR|6NUR_protein|mol2

> <Gold.PLP.Fitness>
42.3466

> <Gold.PLP.PLP>
-30.2050

> <Gold.PLP.part.hbond>
-2.0815

> <Gold.PLP.part.metal>
0.0000

> <Gold.PLP.part.buried>
0.0672

> <Gold.PLP.part.nonpolar>
-27.9353

> <Gold.PLP.part.repulsive>
0.3677

> <Gold.PLP.ligand.clash>
0.0000

> <Gold.PLP.ligand.torsion>
1.0909

> <Gold.PLP.Chemscore.Hbond>
3.0000

> <Gold.PLP.Chemscore.CHOScore>
1.7258

> <Gold.PLP.Chemscore.Metal>
0.0000

> <Gold.Chemscore.Hbonds>
donor molecule, donor type, donor heavy atom, donor atom, acceptor molecule, acceptor atom, score
      L1  H     7    43       P1  7948  2.00
      L1  H    10    36       P1  7957  1.00
      L1  C    16    41       P1  7948  1.00
      L1  C    16    41       P1  7957  0.71

> <Gold.PLP.Chemscore.Internal.Correction>
0.1460

> <Gold.Rescore>
     Score         DG    S(hbond)    S(metal)    S(lipo)     H(rot)  DE(clash)    DE(int)     intcor
      9.36     -11.59       1.99        0.00      51.01       2.54       0.01       2.22       ----

> <Gold.Chemscore.Fitness>
9.3551

> <Gold.Chemscore.DG>
-11.5878

> <Gold.Chemscore.ZeroCoef>
-5.4800

> <Gold.Chemscore.Hbond>
1.9869

> <Gold.Chemscore.Metal>
0.0000

> <Gold.Chemscore.Lipo>
51.0097

> <Gold.Chemscore.Internal_Hbond>
0.0000

> <Gold.Chemscore.DEClash>
0.0086

> <Gold.Chemscore.DEInternal>
2.2241

> <Gold.Chemscore.Rot>
2.5377

> <Gold.Chemscore.Internal.Correction>
   9.000000E+99

> <Gold.Chemscore.Hbonds>
donor molecule, donor type, donor heavy atom, donor atom, acceptor molecule, acceptor atom, score
      L1  H     7    43       P1  7948  1.00
      L1  H    10    36       P1  7957  0.98

> <Gold.Chemscore.Hbond.Weighted>
-6.6363

> <Gold.Chemscore.Metal.Weighted>
-0.0000

> <Gold.Chemscore.Lipo.Weighted>
-5.9681

> <Gold.Chemscore.Internal_Hbond.Weighted>
0.0000

> <Gold.Chemscore.DEClash.Weighted>
0.0086

> <Gold.Chemscore.DEInternal.Weighted>
2.2241

> <Gold.Chemscore.Rot.Weighted>
6.4966

> <Gold.Chemscore.Internal.Correction.Weighted>
   9.000000E+99

> <Gold.Protein.RotatedTorsions>
[ 6907 6896 6895 6894 ] final   71.87 input  -60.11 | X-H torsion
[ 7974 7965 7964 7962 ] final   19.42 input  175.53 | X-H torsion
[ 8008 7997 7996 7995 ] final  -70.54 input   59.86 | X-H torsion
[ 10167 10162 10161 10158 ] final -119.73 input  -65.29 | X-H torsion
[ 10718 10713 10712 10709 ] final  -56.04 input   66.30 | X-H torsion
[ 10763 10752 10751 10750 ] final  -68.89 input  -60.55 | X-H torsion
[ 11005 11000 10999 10996 ] final   38.23 input  -57.11 | X-H torsion

> <Gold.Protein.ActiveResidues>
 VAL166  LYS551  ARG553  GLY616  TRP617  ASP618  TYR619  PRO620  LYS621  CYS622 
 ASP623  PHE694  ASN695  SER759  ASP760  ASP761  ALA762  ILE779  LEU786  VAL792 
 PHE793  MET794  SER795  GLU796  ALA797  LYS798  CYS799  TRP800  GLU811  SER814 

> <Gold.Protein.RotatedAtoms>
  152.4835  134.4656  159.9618 H   0  0  0  0  0  0  0  0  0  0  0  0  # atno 6907 bound_to 6896
  151.4657  133.3575  159.2823 H   0  0  0  0  0  0  0  0  0  0  0  0  # atno 6908 bound_to 6896
  150.8926  134.8357  159.7365 H   0  0  0  0  0  0  0  0  0  0  0  0  # atno 6909 bound_to 6896
  146.2150  139.8316  142.8659 H   0  0  0  0  0  0  0  0  0  0  0  0  # atno 7974 bound_to 7965
  154.5019  140.0832  156.7816 H   0  0  0  0  0  0  0  0  0  0  0  0  # atno 8008 bound_to 7997
  155.3982  140.3436  155.4237 H   0  0  0  0  0  0  0  0  0  0  0  0  # atno 8009 bound_to 7997
  156.1467  140.1546  156.8822 H   0  0  0  0  0  0  0  0  0  0  0  0  # atno 8010 bound_to 7997
  140.0435  143.5130  152.2118 H   0  0  0  0  0  0  0  0  0  0  0  0  # atno 10167 bound_to 10162
  156.1320  130.4159  150.0252 H   0  0  0  0  0  0  0  0  0  0  0  0  # atno 10718 bound_to 10713
  154.3956  135.6043  153.5868 H   0  0  0  0  0  0  0  0  0  0  0  0  # atno 10763 bound_to 10752
  152.9787  135.5894  154.4246 H   0  0  0  0  0  0  0  0  0  0  0  0  # atno 10764 bound_to 10752
  154.4036  135.2843  155.2059 H   0  0  0  0  0  0  0  0  0  0  0  0  # atno 10765 bound_to 10752
  140.2147  134.3713  155.8032 H   0  0  0  0  0  0  0  0  0  0  0  0  # atno 11005 bound_to 11000
  145.2992  141.0189  143.3619 LP  0  0  0  0  0  0  0  0  0  0  0  0  # atno 17320 bound_to 7965
  144.9019  139.4638  143.6628 LP  0  0  0  0  0  0  0  0  0  0  0  0  # atno 17321 bound_to 7965
  139.5999  144.7579  151.3197 LP  0  0  0  0  0  0  0  0  0  0  0  0  # atno 17342 bound_to 10162
  140.7249  143.7031  150.7829 LP  0  0  0  0  0  0  0  0  0  0  0  0  # atno 17343 bound_to 10162
  156.8162  130.9342  151.3643 LP  0  0  0  0  0  0  0  0  0  0  0  0  # atno 17370 bound_to 10713
  157.6497  130.8874  149.9608 LP  0  0  0  0  0  0  0  0  0  0  0  0  # atno 17371 bound_to 10713
  141.2225  133.7161  156.8476 LP  0  0  0  0  0  0  0  0  0  0  0  0  # atno 17394 bound_to 11000
  140.1914  134.8963  157.3064 LP  0  0  0  0  0  0  0  0  0  0  0  0  # atno 17395 bound_to 11000

$$$$
