AV-unprocessed.smi:668|AV-procd|sdf|3260|dock4
  -GOLD-   22720 0213D 1   1.00000     0.00000
 Structure written by MMmdl.
 38 39  0  0  0  0  0  0  0  0  1 V2000
  150.3838  142.0557  157.8624 C   0  0  0  0  0  0  0  0  0  0  0  0
  150.9949  141.4058  156.7534 O   0  0  0  0  0  0  0  0  0  0  0  0
  150.2314  140.5373  156.0006 C   0  0  0  0  0  0  0  0  0  0  0  0
  149.0099  140.0791  156.5325 C   0  0  0  0  0  0  0  0  0  0  0  0
  148.2256  139.1901  155.7729 C   0  0  0  0  0  0  0  0  0  0  0  0
  148.6867  138.7911  154.4951 C   0  0  0  0  0  0  0  0  0  0  0  0
  148.0045  137.8894  153.6329 N   0  0  0  0  0  0  0  0  0  0  0  0
  146.6854  137.6583  153.5194 C   0  0  0  0  0  0  0  0  0  0  0  0
  145.7999  138.2328  154.1518 O   0  0  0  0  0  0  0  0  0  0  0  0
  146.4398  136.7061  152.6085 N   0  0  0  0  0  0  0  0  0  0  0  0
  145.1105  136.2032  152.2573 C   0  0  1  0  0  0  0  0  0  0  0  0
  145.0697  135.7036  150.8009 C   0  0  0  0  0  0  0  0  0  0  0  0
  144.2347  134.4164  150.7955 C   0  0  0  0  0  0  0  0  0  0  0  0
  143.6345  134.2959  152.1994 C   0  0  0  0  0  0  0  0  0  0  0  0
  144.6065  135.0280  153.1366 C   0  0  1  0  0  0  0  0  0  0  0  0
  145.7080  134.0733  153.6473 C   0  0  0  0  0  0  0  0  0  0  0  0
  145.3084  133.0110  154.3508 N   0  0  0  0  0  0  0  0  0  0  0  0
  146.8971  134.2917  153.4204 O   0  0  0  0  0  0  0  0  0  0  0  0
  149.9271  139.3010  154.0589 C   0  0  0  0  0  0  0  0  0  0  0  0
  150.6841  140.1526  154.7820 N   0  0  0  0  0  0  0  0  0  0  0  0
  151.1145  142.7017  158.3486 H   0  0  0  0  0  0  0  0  0  0  0  0
  150.0332  141.3365  158.6041 H   0  0  0  0  0  0  0  0  0  0  0  0
  149.5478  142.6813  157.5465 H   0  0  0  0  0  0  0  0  0  0  0  0
  148.6815  140.4005  157.5099 H   0  0  0  0  0  0  0  0  0  0  0  0
  147.3008  138.8297  156.1939 H   0  0  0  0  0  0  0  0  0  0  0  0
  148.5966  137.3730  152.9987 H   0  0  0  0  0  0  0  0  0  0  0  0
  147.2250  136.2839  152.1346 H   0  0  0  0  0  0  0  0  0  0  0  0
  144.3930  137.0218  152.3458 H   0  0  0  0  0  0  0  0  0  0  0  0
  144.6330  136.4612  150.1490 H   0  0  0  0  0  0  0  0  0  0  0  0
  146.0694  135.4903  150.4193 H   0  0  0  0  0  0  0  0  0  0  0  0
  143.4640  134.4288  150.0242 H   0  0  0  0  0  0  0  0  0  0  0  0
  144.8811  133.5615  150.5934 H   0  0  0  0  0  0  0  0  0  0  0  0
  142.6662  134.7977  152.2253 H   0  0  0  0  0  0  0  0  0  0  0  0
  143.4617  133.2563  152.4818 H   0  0  0  0  0  0  0  0  0  0  0  0
  144.0659  135.4192  154.0003 H   0  0  0  0  0  0  0  0  0  0  0  0
  145.9891  132.3534  154.7025 H   0  0  0  0  0  0  0  0  0  0  0  0
  144.3243  132.8664  154.5239 H   0  0  0  0  0  0  0  0  0  0  0  0
  150.3269  139.0182  153.0958 H   0  0  0  0  0  0  0  0  0  0  0  0
  1  2  1  0  0  0  0
  1 21  1  0  0  0  0
  1 22  1  0  0  0  0
  1 23  1  0  0  0  0
  2  3  1  0  0  0  0
  3 20  1  0  0  0  0
  3  4  2  0  0  0  0
  4  5  1  0  0  0  0
  4 24  1  0  0  0  0
  5  6  2  0  0  0  0
  5 25  1  0  0  0  0
  6  7  1  0  0  0  0
  6 19  1  0  0  0  0
  7  8  1  0  0  0  0
  7 26  1  0  0  0  0
  8  9  2  0  0  0  0
  8 10  1  0  0  0  0
 10 11  1  0  0  0  0
 10 27  1  0  0  0  0
 11 15  1  0  0  0  0
 11 12  1  0  0  0  0
 11 28  1  0  0  0  0
 12 13  1  0  0  0  0
 12 29  1  0  0  0  0
 12 30  1  0  0  0  0
 13 14  1  0  0  0  0
 13 31  1  0  0  0  0
 13 32  1  0  0  0  0
 14 15  1  0  0  0  0
 14 33  1  0  0  0  0
 14 34  1  0  0  0  0
 15 16  1  0  0  0  0
 15 35  1  0  0  0  0
 16 17  1  0  0  0  0
 16 18  2  0  0  0  0
 17 36  1  0  0  0  0
 17 37  1  0  0  0  0
 19 20  2  0  0  0  0
 19 38  1  0  0  0  0
M  END
> <s_m_source_file>
AV-unprocessed.smi

> <i_m_source_file_index>
668

> <i_lp_mmshare_version>
43012

> <i_f3d_flags>
0

> <s_epik_input>
W0NIM11PYzFbY0hdW2NIXWMoW2NIXW4xKVtOSF1DKD1PKVtOSF1bQ0BASF0yW0NIMl1bQ0gyXVtDSDJdW0NASF0yQyg9TylbTkgyXQ==

> <s_epik_cmdline>
J2VwaWtfcHl0aG9uJywgJy1waCcsICc3LjAnLCAnLXRuJywgJzgnLCAnLW1hJywgJzIwMCcsICctbWV0YWxfYmluZGluZycsICctaW1hZScsICc8aW5maWxlLm1hZT4nLCAnLW9tYWUnLCAnPG91dGZpbGUubWFlPic=

> <r_lp_tautomer_probability>
1

> <r_epik_Ionization_Penalty>
9.0916e-05

> <r_epik_Ionization_Penalty_Charging>
0

> <r_epik_Ionization_Penalty_Neutral>
9.0916e-05

> <r_epik_State_Penalty>
-0

> <r_epik_Charging_Adjusted_Penalty>
0

> <i_epik_Tot_Q>
0

> <i_epik_Tot_abs_Q>
0

> <r_epik_Metal_State_Penalty>
-0

> <b_epik_Metal_Only>
0

> <s_lp_Force_Field>
OPLS_2005

> <r_lp_Energy>
16.947

> <b_lp_Chiralities_Consistent>
1

> <s_lp_Variant>
AV-unprocessed.smi:668-2

> <Gold.Version>
5.8.1

> <Gold.Id.Protein>
6NUR|6NUR_protein|mol2

> <Gold.PLP.Fitness>
36.7872

> <Gold.PLP.PLP>
-23.7717

> <Gold.PLP.part.hbond>
-4.0000

> <Gold.PLP.part.metal>
0.0000

> <Gold.PLP.part.buried>
-3.5023

> <Gold.PLP.part.nonpolar>
-17.0541

> <Gold.PLP.part.repulsive>
0.3786

> <Gold.PLP.ligand.clash>
0.0000

> <Gold.PLP.ligand.torsion>
0.7502

> <Gold.PLP.Chemscore.Hbond>
3.9920

> <Gold.PLP.Chemscore.CHOScore>
0.8370

> <Gold.PLP.Chemscore.Metal>
0.0000

> <Gold.Chemscore.Hbonds>
donor molecule, donor type, donor heavy atom, donor atom, acceptor molecule, acceptor atom, score
      L1  H     7    26       P1  7948  1.00
      L1  H    10    27       P1  7948  0.99
      L1  H    17    37       P1 10957  1.00
      P1  H  7989  7998       L1    20  1.00
      L1  C    19    38       P1  7957  0.84

> <Gold.PLP.Chemscore.Internal.Correction>
0.0288

> <Gold.Rescore>
     Score         DG    S(hbond)    S(metal)    S(lipo)     H(rot)  DE(clash)    DE(int)     intcor
     14.87     -18.07       3.59        0.00      45.97       1.86       0.91       2.29       ----

> <Gold.Chemscore.Fitness>
14.8746

> <Gold.Chemscore.DG>
-18.0739

> <Gold.Chemscore.ZeroCoef>
-5.4800

> <Gold.Chemscore.Hbond>
3.5896

> <Gold.Chemscore.Metal>
0.0000

> <Gold.Chemscore.Lipo>
45.9693

> <Gold.Chemscore.Internal_Hbond>
0.0000

> <Gold.Chemscore.DEClash>
0.9138

> <Gold.Chemscore.DEInternal>
2.2854

> <Gold.Chemscore.Rot>
1.8648

> <Gold.Chemscore.Internal.Correction>
   9.000000E+99

> <Gold.Chemscore.Hbonds>
donor molecule, donor type, donor heavy atom, donor atom, acceptor molecule, acceptor atom, score
      L1  H     7    26       P1  7948  0.98
      L1  H    10    27       P1  7948  0.94
      L1  H    17    37       P1 10957  0.93
      P1  H  7989  7998       L1    20  0.26

> <Gold.Chemscore.Hbond.Weighted>
-11.9894

> <Gold.Chemscore.Metal.Weighted>
-0.0000

> <Gold.Chemscore.Lipo.Weighted>
-5.3784

> <Gold.Chemscore.Internal_Hbond.Weighted>
0.0000

> <Gold.Chemscore.DEClash.Weighted>
0.9138

> <Gold.Chemscore.DEInternal.Weighted>
2.2854

> <Gold.Chemscore.Rot.Weighted>
4.7739

> <Gold.Chemscore.Internal.Correction.Weighted>
   9.000000E+99

> <Gold.Protein.RotatedTorsions>
[ 6907 6896 6895 6894 ] final  -86.17 input  -60.11 | X-H torsion
[ 7974 7965 7964 7962 ] final -169.44 input  175.53 | X-H torsion
[ 8008 7997 7996 7995 ] final -129.86 input   59.86 | X-H torsion
[ 10167 10162 10161 10158 ] final   39.54 input  -65.29 | X-H torsion
[ 10718 10713 10712 10709 ] final   72.98 input   66.30 | X-H torsion
[ 10763 10752 10751 10750 ] final  -77.51 input  -60.55 | X-H torsion
[ 11005 11000 10999 10996 ] final   30.05 input  -57.11 | X-H torsion

> <Gold.Protein.ActiveResidues>
 VAL166  LYS551  ARG553  GLY616  TRP617  ASP618  TYR619  PRO620  LYS621  CYS622 
 ASP623  PHE694  ASN695  SER759  ASP760  ASP761  ALA762  ILE779  LEU786  VAL792 
 PHE793  MET794  SER795  GLU796  ALA797  LYS798  CYS799  TRP800  GLU811  SER814 

> <Gold.Protein.RotatedAtoms>
  150.6867  134.3092  159.4738 H   0  0  0  0  0  0  0  0  0  0  0  0  # atno 6907 bound_to 6896
  152.0980  134.9359  160.0579 H   0  0  0  0  0  0  0  0  0  0  0  0  # atno 6908 bound_to 6896
  152.0649  133.4045  159.4471 H   0  0  0  0  0  0  0  0  0  0  0  0  # atno 6909 bound_to 6896
  144.7185  140.2221  143.6315 H   0  0  0  0  0  0  0  0  0  0  0  0  # atno 7974 bound_to 7965
  155.2862  140.0446  157.3019 H   0  0  0  0  0  0  0  0  0  0  0  0  # atno 8008 bound_to 7997
  154.5567  140.2334  155.8366 H   0  0  0  0  0  0  0  0  0  0  0  0  # atno 8009 bound_to 7997
  156.2013  140.3024  155.9541 H   0  0  0  0  0  0  0  0  0  0  0  0  # atno 8010 bound_to 7997
  140.3830  144.1955  150.6130 H   0  0  0  0  0  0  0  0  0  0  0  0  # atno 10167 bound_to 10162
  157.6527  130.9606  150.1005 H   0  0  0  0  0  0  0  0  0  0  0  0  # atno 10718 bound_to 10713
  154.5139  135.5761  153.6627 H   0  0  0  0  0  0  0  0  0  0  0  0  # atno 10763 bound_to 10752
  152.9903  135.6165  154.2843 H   0  0  0  0  0  0  0  0  0  0  0  0  # atno 10764 bound_to 10752
  154.2759  135.2852  155.2698 H   0  0  0  0  0  0  0  0  0  0  0  0  # atno 10765 bound_to 10752
  140.2985  134.2783  155.7759 H   0  0  0  0  0  0  0  0  0  0  0  0  # atno 11005 bound_to 11000
  145.8491  139.2167  143.1782 LP  0  0  0  0  0  0  0  0  0  0  0  0  # atno 17320 bound_to 7965
  146.0277  140.8288  142.9892 LP  0  0  0  0  0  0  0  0  0  0  0  0  # atno 17321 bound_to 7965
  140.4918  143.2345  151.8807 LP  0  0  0  0  0  0  0  0  0  0  0  0  # atno 17342 bound_to 10162
  139.4794  144.5157  151.8871 LP  0  0  0  0  0  0  0  0  0  0  0  0  # atno 17343 bound_to 10162
  156.1929  130.3655  149.8886 LP  0  0  0  0  0  0  0  0  0  0  0  0  # atno 17370 bound_to 10713
  156.6810  130.8858  151.3576 LP  0  0  0  0  0  0  0  0  0  0  0  0  # atno 17371 bound_to 10713
  141.2133  133.7631  156.9731 LP  0  0  0  0  0  0  0  0  0  0  0  0  # atno 17394 bound_to 11000
  140.1131  134.9464  157.2094 LP  0  0  0  0  0  0  0  0  0  0  0  0  # atno 17395 bound_to 11000

$$$$
