AV-unprocessed.smi:447|AV-procd|sdf|2602|dock4
  -GOLD-   2262022593D 1   1.00000     0.00000
 Structure written by MMmdl.
 46 48  0  0  0  0  0  0  0  0  2 V2000
  150.9687  134.3056  155.9742 C   0  0  0  0  0  0  0  0  0  0  0  0
  151.0651  135.7909  156.3031 C   0  0  0  0  0  0  0  0  0  0  0  0
  151.0380  136.1664  157.4733 O   0  0  0  0  0  0  0  0  0  0  0  0
  151.1726  136.6265  155.2588 N   0  0  0  0  0  0  0  0  0  0  0  0
  151.3414  138.0766  155.3419 C   0  0  1  0  0  0  0  0  0  0  0  0
  152.6349  138.4731  154.6163 C   0  0  0  0  0  0  0  0  0  0  0  0
  150.1750  138.8495  154.7911 C   0  0  0  0  0  0  0  0  0  0  0  0
  149.2324  138.3786  153.9236 N   0  3  0  0  0  0  0  0  0  0  0  0
  148.3210  139.3876  153.6157 C   0  0  0  0  0  0  0  0  0  0  0  0
  147.1992  139.3827  152.7927 C   0  0  0  0  0  0  0  0  0  0  0  0
  146.4858  140.5949  152.6885 C   0  0  0  0  0  0  0  0  0  0  0  0
  146.8969  141.7507  153.3838 C   0  0  0  0  0  0  0  0  0  0  0  0
  148.0368  141.7427  154.2143 C   0  0  0  0  0  0  0  0  0  0  0  0
  148.7324  140.5382  154.3174 C   0  0  0  0  0  0  0  0  0  0  0  0
  149.8743  140.1603  155.0329 N   0  0  0  0  0  0  0  0  0  0  0  0
  150.5566  141.1643  155.8659 C   0  0  0  0  0  0  0  0  0  0  0  0
  150.9297  140.6447  157.2700 C   0  0  2  0  0  0  0  0  0  0  0  0
  149.7944  140.0013  157.8092 O   0  0  0  0  0  0  0  0  0  0  0  0
  151.4517  141.7393  158.1888 C   0  0  0  0  0  0  0  0  0  0  0  0
  151.4304  143.0855  157.7651 C   0  0  0  0  0  0  0  0  0  0  0  0
  151.9286  144.1014  158.6036 C   0  0  0  0  0  0  0  0  0  0  0  0
  152.4408  143.7785  159.8748 C   0  0  0  0  0  0  0  0  0  0  0  0
  152.4563  142.4385  160.3064 C   0  0  0  0  0  0  0  0  0  0  0  0
  151.9669  141.4213  159.4646 C   0  0  0  0  0  0  0  0  0  0  0  0
  150.1712  134.1226  155.2536 H   0  0  0  0  0  0  0  0  0  0  0  0
  150.7577  133.7228  156.8715 H   0  0  0  0  0  0  0  0  0  0  0  0
  151.9081  133.9505  155.5501 H   0  0  0  0  0  0  0  0  0  0  0  0
  151.1809  136.2228  154.3333 H   0  0  0  0  0  0  0  0  0  0  0  0
  151.4511  138.3321  156.3962 H   0  0  0  0  0  0  0  0  0  0  0  0
  152.8322  139.5410  154.7104 H   0  0  0  0  0  0  0  0  0  0  0  0
  152.5806  138.2400  153.5524 H   0  0  0  0  0  0  0  0  0  0  0  0
  153.4950  137.9454  155.0297 H   0  0  0  0  0  0  0  0  0  0  0  0
  146.8850  138.4995  152.2561 H   0  0  0  0  0  0  0  0  0  0  0  0
  145.6075  140.6400  152.0608 H   0  0  0  0  0  0  0  0  0  0  0  0
  146.3267  142.6623  153.2777 H   0  0  0  0  0  0  0  0  0  0  0  0
  148.3445  142.6340  154.7408 H   0  0  0  0  0  0  0  0  0  0  0  0
  151.4463  141.5036  155.3355 H   0  0  0  0  0  0  0  0  0  0  0  0
  149.8992  142.0319  155.9395 H   0  0  0  0  0  0  0  0  0  0  0  0
  151.6973  139.8762  157.1806 H   0  0  0  0  0  0  0  0  0  0  0  0
  149.6088  139.2349  157.2880 H   0  0  0  0  0  0  0  0  0  0  0  0
  151.0353  143.3446  156.7938 H   0  0  0  0  0  0  0  0  0  0  0  0
  151.9118  145.1297  158.2743 H   0  0  0  0  0  0  0  0  0  0  0  0
  152.8166  144.5588  160.5198 H   0  0  0  0  0  0  0  0  0  0  0  0
  152.8461  142.1901  161.2824 H   0  0  0  0  0  0  0  0  0  0  0  0
  151.9858  140.3955  159.8024 H   0  0  0  0  0  0  0  0  0  0  0  0
  149.2160  137.4291  153.5743 H   0  0  0  0  0  0  0  0  0  0  0  0
  1  2  1  0  0  0  0
  1 25  1  0  0  0  0
  1 26  1  0  0  0  0
  1 27  1  0  0  0  0
  2  3  2  0  0  0  0
  2  4  1  0  0  0  0
  4  5  1  0  0  0  0
  4 28  1  0  0  0  0
  5  6  1  0  0  0  0
  5  7  1  0  0  0  0
  5 29  1  0  0  0  0
  6 30  1  0  0  0  0
  6 31  1  0  0  0  0
  6 32  1  0  0  0  0
  7 15  1  0  0  0  0
  7  8  2  0  0  0  0
  8  9  1  0  0  0  0
  8 46  1  0  0  0  0
  9 14  2  0  0  0  0
  9 10  1  0  0  0  0
 10 11  2  0  0  0  0
 10 33  1  0  0  0  0
 11 12  1  0  0  0  0
 11 34  1  0  0  0  0
 12 13  2  0  0  0  0
 12 35  1  0  0  0  0
 13 14  1  0  0  0  0
 13 36  1  0  0  0  0
 14 15  1  0  0  0  0
 15 16  1  0  0  0  0
 16 17  1  0  0  0  0
 16 37  1  0  0  0  0
 16 38  1  0  0  0  0
 17 18  1  0  0  0  0
 17 19  1  0  0  0  0
 17 39  1  0  0  0  0
 18 40  1  0  0  0  0
 19 24  1  0  0  0  0
 19 20  2  0  0  0  0
 20 21  1  0  0  0  0
 20 41  1  0  0  0  0
 21 22  2  0  0  0  0
 21 42  1  0  0  0  0
 22 23  1  0  0  0  0
 22 43  1  0  0  0  0
 23 24  2  0  0  0  0
 23 44  1  0  0  0  0
 24 45  1  0  0  0  0
M  CHG  1   8   1
M  END
> <s_m_source_file>
AV-unprocessed.smi

> <i_m_source_file_index>
447

> <i_lp_mmshare_version>
43012

> <i_f3d_flags>
0

> <s_epik_input>
W0NIM11DKD1PKVtOSF1bQ0BIXShbQ0gzXSljKG4xKW4oYyhjMTIpW2NIXVtjSF1bY0hdW2NIXTIpW0NIMl1bQ0BIXShbT0hdKWMzW2NIXVtjSF1bY0hdW2NIXVtjSF0z

> <s_epik_cmdline>
J2VwaWtfcHl0aG9uJywgJy1waCcsICc3LjAnLCAnLXRuJywgJzgnLCAnLW1hJywgJzIwMCcsICctbWV0YWxfYmluZGluZycsICctaW1hZScsICc8aW5maWxlLm1hZT4nLCAnLW9tYWUnLCAnPG91dGZpbGUubWFlPic=

> <r_epik_Ionization_Penalty>
0.950381

> <r_epik_Ionization_Penalty_Charging>
0.950379

> <r_epik_Ionization_Penalty_Neutral>
1.42115e-06

> <r_epik_State_Penalty>
0.994584

> <r_epik_Charging_Adjusted_Penalty>
1.94496

> <i_epik_Tot_Q>
1

> <i_epik_Tot_abs_Q>
1

> <r_epik_Metal_State_Penalty>
1.10485

> <b_epik_Metal_Only>
0

> <s_lp_Force_Field>
OPLS_2005

> <r_lp_Energy>
11.3805

> <b_lp_Chiralities_Consistent>
1

> <s_lp_Variant>
AV-unprocessed.smi:447-6

> <Gold.Version>
5.8.1

> <Gold.Id.Protein>
6NUR|6NUR_protein|mol2

> <Gold.PLP.Fitness>
52.1600

> <Gold.PLP.PLP>
-48.3053

> <Gold.PLP.part.hbond>
-1.7238

> <Gold.PLP.part.metal>
0.0000

> <Gold.PLP.part.buried>
-0.0045

> <Gold.PLP.part.nonpolar>
-46.8737

> <Gold.PLP.part.repulsive>
0.4653

> <Gold.PLP.ligand.clash>
0.0000

> <Gold.PLP.ligand.torsion>
0.7707

> <Gold.PLP.Chemscore.Hbond>
1.7763

> <Gold.PLP.Chemscore.CHOScore>
0.0000

> <Gold.PLP.Chemscore.Metal>
0.0000

> <Gold.Chemscore.Hbonds>
donor molecule, donor type, donor heavy atom, donor atom, acceptor molecule, acceptor atom, score
      L1  H     8    46       P1  7948  1.54

> <Gold.PLP.Chemscore.Internal.Correction>
0.0672

> <Gold.Rescore>
     Score         DG    S(hbond)    S(metal)    S(lipo)     H(rot)  DE(clash)    DE(int)     intcor
     15.36     -17.28       0.76        0.00     132.02       2.41       1.45       0.47       ----

> <Gold.Chemscore.Fitness>
15.3626

> <Gold.Chemscore.DG>
-17.2812

> <Gold.Chemscore.ZeroCoef>
-5.4800

> <Gold.Chemscore.Hbond>
0.7567

> <Gold.Chemscore.Metal>
0.0000

> <Gold.Chemscore.Lipo>
132.0207

> <Gold.Chemscore.Internal_Hbond>
0.0000

> <Gold.Chemscore.DEClash>
1.4453

> <Gold.Chemscore.DEInternal>
0.4733

> <Gold.Chemscore.Rot>
2.4112

> <Gold.Chemscore.Internal.Correction>
   9.000000E+99

> <Gold.Chemscore.Hbonds>
donor molecule, donor type, donor heavy atom, donor atom, acceptor molecule, acceptor atom, score
      L1  H     8    46       P1  7948  0.72

> <Gold.Chemscore.Hbond.Weighted>
-2.5274

> <Gold.Chemscore.Metal.Weighted>
-0.0000

> <Gold.Chemscore.Lipo.Weighted>
-15.4464

> <Gold.Chemscore.Internal_Hbond.Weighted>
0.0000

> <Gold.Chemscore.DEClash.Weighted>
1.4453

> <Gold.Chemscore.DEInternal.Weighted>
0.4733

> <Gold.Chemscore.Rot.Weighted>
6.1727

> <Gold.Chemscore.Internal.Correction.Weighted>
   9.000000E+99

> <Gold.Protein.RotatedTorsions>
[ 6907 6896 6895 6894 ] final  -80.21 input  -60.11 | X-H torsion
[ 7974 7965 7964 7962 ] final   37.37 input  175.53 | X-H torsion
[ 8008 7997 7996 7995 ] final   57.17 input   59.86 | X-H torsion
[ 10167 10162 10161 10158 ] final   38.52 input  -65.29 | X-H torsion
[ 10718 10713 10712 10709 ] final   -9.87 input   66.30 | X-H torsion
[ 10763 10752 10751 10750 ] final -153.71 input  -60.55 | X-H torsion
[ 11005 11000 10999 10996 ] final  152.47 input  -57.11 | X-H torsion

> <Gold.Protein.ActiveResidues>
 VAL166  LYS551  ARG553  GLY616  TRP617  ASP618  TYR619  PRO620  LYS621  CYS622 
 ASP623  PHE694  ASN695  SER759  ASP760  ASP761  ALA762  ILE779  LEU786  VAL792 
 PHE793  MET794  SER795  GLU796  ALA797  LYS798  CYS799  TRP800  GLU811  SER814 

> <Gold.Protein.RotatedAtoms>
  150.6934  134.4004  159.5116 H   0  0  0  0  0  0  0  0  0  0  0  0  # atno 6907 bound_to 6896
  152.1779  134.8776  160.0538 H   0  0  0  0  0  0  0  0  0  0  0  0  # atno 6908 bound_to 6896
  151.9778  133.3712  159.4133 H   0  0  0  0  0  0  0  0  0  0  0  0  # atno 6909 bound_to 6896
  146.1142  139.5902  142.9332 H   0  0  0  0  0  0  0  0  0  0  0  0  # atno 7974 bound_to 7965
  155.5294  140.3481  155.4423 H   0  0  0  0  0  0  0  0  0  0  0  0  # atno 8008 bound_to 7997
  156.0729  140.1367  156.9833 H   0  0  0  0  0  0  0  0  0  0  0  0  # atno 8009 bound_to 7997
  154.4538  140.0962  156.6671 H   0  0  0  0  0  0  0  0  0  0  0  0  # atno 8010 bound_to 7997
  140.3928  144.1829  150.6131 H   0  0  0  0  0  0  0  0  0  0  0  0  # atno 10167 bound_to 10162
  156.6817  130.5039  149.5969 H   0  0  0  0  0  0  0  0  0  0  0  0  # atno 10718 bound_to 10713
  154.7909  135.3206  154.7779 H   0  0  0  0  0  0  0  0  0  0  0  0  # atno 10763 bound_to 10752
  153.8468  135.6866  153.4801 H   0  0  0  0  0  0  0  0  0  0  0  0  # atno 10764 bound_to 10752
  153.1579  135.4673  154.9670 H   0  0  0  0  0  0  0  0  0  0  0  0  # atno 10765 bound_to 10752
  140.1311  134.8801  157.2204 H   0  0  0  0  0  0  0  0  0  0  0  0  # atno 11005 bound_to 11000
  145.5601  141.0405  143.2231 LP  0  0  0  0  0  0  0  0  0  0  0  0  # atno 17320 bound_to 7965
  144.7538  139.7126  143.7262 LP  0  0  0  0  0  0  0  0  0  0  0  0  # atno 17321 bound_to 7965
  140.4821  143.2375  151.8940 LP  0  0  0  0  0  0  0  0  0  0  0  0  # atno 17342 bound_to 10162
  139.4788  144.5258  151.8737 LP  0  0  0  0  0  0  0  0  0  0  0  0  # atno 17343 bound_to 10162
  156.1863  130.6531  151.1010 LP  0  0  0  0  0  0  0  0  0  0  0  0  # atno 17370 bound_to 10713
  157.7041  131.0764  150.6724 LP  0  0  0  0  0  0  0  0  0  0  0  0  # atno 17371 bound_to 10713
  140.2841  134.3315  155.7334 LP  0  0  0  0  0  0  0  0  0  0  0  0  # atno 17394 bound_to 11000
  141.2170  133.7496  156.9408 LP  0  0  0  0  0  0  0  0  0  0  0  0  # atno 17395 bound_to 11000

$$$$
