AV-unprocessed.smi:1413|AV-procd|sdf|5758|dock2
  -GOLD-   22720 5393D 1   1.00000     0.00000
 Structure written by MMmdl.
 53 55  0  0  0  0  0  0  0  0  1 V2000
  152.0099  144.2884  157.3430 C   0  0  0  0  0  0  0  0  0  0  0  0
  151.1890  143.5494  158.4149 C   0  0  1  0  0  0  0  0  0  0  0  0
  150.4843  142.2858  157.8834 C   0  0  0  0  0  0  0  0  0  0  0  0
  151.4355  141.1932  157.6995 N   0  0  0  0  0  0  0  0  0  0  0  0
  150.9696  140.0965  156.9426 C   0  0  0  0  0  0  0  0  0  0  0  0
  151.4532  139.8809  155.6309 C   0  0  0  0  0  0  0  0  0  0  0  0
  150.9696  138.7844  154.8927 C   0  0  0  0  0  0  0  0  0  0  0  0
  150.0127  137.9294  155.4729 C   0  0  0  0  0  0  0  0  0  0  0  0
  149.5549  136.8250  154.7033 N   0  0  0  0  0  0  0  0  0  0  0  0
  149.1871  135.6015  155.1208 C   0  0  0  0  0  0  0  0  0  0  0  0
  149.1680  135.2224  156.2915 O   0  0  0  0  0  0  0  0  0  0  0  0
  148.8195  134.8300  154.0881 N   0  0  0  0  0  0  0  0  0  0  0  0
  148.3356  133.4552  154.1893 C   0  0  2  0  0  0  0  0  0  0  0  0
  149.4759  132.5408  154.6702 C   0  0  0  0  0  0  0  0  0  0  0  0
  147.7690  133.0158  152.8254 C   0  0  1  0  0  0  0  0  0  0  0  0
  146.9999  131.6935  152.8511 C   0  0  0  0  0  0  0  0  0  0  0  0
  146.0997  131.8374  151.6462 C   0  0  0  0  0  0  0  0  0  0  0  0
  145.7272  133.3150  151.7105 C   0  0  0  0  0  0  0  0  0  0  0  0
  146.8214  133.9699  152.3476 O   0  0  0  0  0  0  0  0  0  0  0  0
  149.6016  138.2119  156.7975 C   0  0  0  0  0  0  0  0  0  0  0  0
  150.0641  139.2618  157.5088 N   0  0  0  0  0  0  0  0  0  0  0  0
  152.2324  140.9193  158.8925 C   0  0  0  0  0  0  0  0  0  0  0  0
  152.9352  142.2010  159.3741 C   0  0  2  0  0  0  0  0  0  0  0  0
  153.6733  141.9850  160.6995 C   0  0  0  0  0  0  0  0  0  0  0  0
  151.9687  143.2327  159.5701 O   0  0  0  0  0  0  0  0  0  0  0  0
  151.3646  144.6374  156.5366 H   0  0  0  0  0  0  0  0  0  0  0  0
  152.7713  143.6520  156.8928 H   0  0  0  0  0  0  0  0  0  0  0  0
  152.5087  145.1601  157.7670 H   0  0  0  0  0  0  0  0  0  0  0  0
  150.4168  144.2415  158.7514 H   0  0  0  0  0  0  0  0  0  0  0  0
  149.7296  141.9602  158.6005 H   0  0  0  0  0  0  0  0  0  0  0  0
  149.9534  142.5288  156.9641 H   0  0  0  0  0  0  0  0  0  0  0  0
  152.1947  140.5306  155.1906 H   0  0  0  0  0  0  0  0  0  0  0  0
  151.3323  138.6056  153.8911 H   0  0  0  0  0  0  0  0  0  0  0  0
  149.4485  137.0033  153.7154 H   0  0  0  0  0  0  0  0  0  0  0  0
  148.8579  135.2272  153.1611 H   0  0  0  0  0  0  0  0  0  0  0  0
  147.5258  133.4162  154.9204 H   0  0  0  0  0  0  0  0  0  0  0  0
  149.1332  131.5147  154.8039 H   0  0  0  0  0  0  0  0  0  0  0  0
  149.8722  132.8745  155.6299 H   0  0  0  0  0  0  0  0  0  0  0  0
  150.3006  132.5265  153.9568 H   0  0  0  0  0  0  0  0  0  0  0  0
  148.5697  132.9479  152.0865 H   0  0  0  0  0  0  0  0  0  0  0  0
  147.6500  130.8199  152.7937 H   0  0  0  0  0  0  0  0  0  0  0  0
  146.3980  131.6142  153.7576 H   0  0  0  0  0  0  0  0  0  0  0  0
  146.6600  131.6295  150.7338 H   0  0  0  0  0  0  0  0  0  0  0  0
  145.2332  131.1763  151.6745 H   0  0  0  0  0  0  0  0  0  0  0  0
  145.5312  133.7354  150.7240 H   0  0  0  0  0  0  0  0  0  0  0  0
  144.8361  133.4584  152.3225 H   0  0  0  0  0  0  0  0  0  0  0  0
  148.9012  137.5874  157.3290 H   0  0  0  0  0  0  0  0  0  0  0  0
  151.5817  140.5274  159.6756 H   0  0  0  0  0  0  0  0  0  0  0  0
  152.9825  140.1565  158.6793 H   0  0  0  0  0  0  0  0  0  0  0  0
  153.6659  142.5183  158.6301 H   0  0  0  0  0  0  0  0  0  0  0  0
  154.4359  141.2120  160.6027 H   0  0  0  0  0  0  0  0  0  0  0  0
  152.9858  141.6808  161.4892 H   0  0  0  0  0  0  0  0  0  0  0  0
  154.1681  142.9009  161.0234 H   0  0  0  0  0  0  0  0  0  0  0  0
  1  2  1  0  0  0  0
  1 26  1  0  0  0  0
  1 27  1  0  0  0  0
  1 28  1  0  0  0  0
  2 25  1  0  0  0  0
  2  3  1  0  0  0  0
  2 29  1  0  0  0  0
  3  4  1  0  0  0  0
  3 30  1  0  0  0  0
  3 31  1  0  0  0  0
  4  5  1  0  0  0  0
  4 22  1  0  0  0  0
  5 21  1  0  0  0  0
  5  6  2  0  0  0  0
  6  7  1  0  0  0  0
  6 32  1  0  0  0  0
  7  8  2  0  0  0  0
  7 33  1  0  0  0  0
  8  9  1  0  0  0  0
  8 20  1  0  0  0  0
  9 10  1  0  0  0  0
  9 34  1  0  0  0  0
 10 11  2  0  0  0  0
 10 12  1  0  0  0  0
 12 13  1  0  0  0  0
 12 35  1  0  0  0  0
 13 14  1  0  0  0  0
 13 15  1  0  0  0  0
 13 36  1  0  0  0  0
 14 37  1  0  0  0  0
 14 38  1  0  0  0  0
 14 39  1  0  0  0  0
 15 19  1  0  0  0  0
 15 16  1  0  0  0  0
 15 40  1  0  0  0  0
 16 17  1  0  0  0  0
 16 41  1  0  0  0  0
 16 42  1  0  0  0  0
 17 18  1  0  0  0  0
 17 43  1  0  0  0  0
 17 44  1  0  0  0  0
 18 19  1  0  0  0  0
 18 45  1  0  0  0  0
 18 46  1  0  0  0  0
 20 21  2  0  0  0  0
 20 47  1  0  0  0  0
 22 23  1  0  0  0  0
 22 48  1  0  0  0  0
 22 49  1  0  0  0  0
 23 24  1  0  0  0  0
 23 25  1  0  0  0  0
 23 50  1  0  0  0  0
 24 51  1  0  0  0  0
 24 52  1  0  0  0  0
 24 53  1  0  0  0  0
M  END
> <s_m_source_file>
AV-unprocessed.smi

> <i_m_source_file_index>
1413

> <i_lp_mmshare_version>
43012

> <i_f3d_flags>
0

> <s_epik_input>
W0NIM11bQ0BASF0xW0NIMl1OKFtDSDJdW0NASF0oTzEpW0NIM10pYzJbY0hdW2NIXWMoW2NIXW4yKVtOSF1DKD1PKVtOSF1bQ0BIXShbQ0gzXSlbQ0BASF0zW0NIMl1bQ0gyXVtDSDJdTzM=

> <s_epik_cmdline>
J2VwaWtfcHl0aG9uJywgJy1waCcsICc3LjAnLCAnLXRuJywgJzgnLCAnLW1hJywgJzIwMCcsICctbWV0YWxfYmluZGluZycsICctaW1hZScsICc8aW5maWxlLm1hZT4nLCAnLW9tYWUnLCAnPG91dGZpbGUubWFlPic=

> <r_lp_tautomer_probability>
1

> <r_epik_Ionization_Penalty>
0.00271172

> <r_epik_Ionization_Penalty_Charging>
0

> <r_epik_Ionization_Penalty_Neutral>
0.00271172

> <r_epik_State_Penalty>
0.00186503

> <r_epik_Charging_Adjusted_Penalty>
0.00186503

> <i_epik_Tot_Q>
0

> <i_epik_Tot_abs_Q>
0

> <r_epik_Metal_State_Penalty>
-0

> <b_epik_Metal_Only>
0

> <s_lp_Force_Field>
OPLS_2005

> <r_lp_Energy>
37.0266

> <b_lp_Chiralities_Consistent>
1

> <s_lp_Variant>
AV-unprocessed.smi:1413-11

> <Gold.Version>
5.8.1

> <Gold.Id.Protein>
6NUR|6NUR_protein|mol2

> <Gold.PLP.Fitness>
48.7009

> <Gold.PLP.PLP>
-43.6876

> <Gold.PLP.part.hbond>
-2.0000

> <Gold.PLP.part.metal>
0.0000

> <Gold.PLP.part.buried>
-5.2422

> <Gold.PLP.part.nonpolar>
-36.2936

> <Gold.PLP.part.repulsive>
0.2585

> <Gold.PLP.ligand.clash>
0.0000

> <Gold.PLP.ligand.torsion>
0.5536

> <Gold.PLP.Chemscore.Hbond>
1.9204

> <Gold.PLP.Chemscore.CHOScore>
0.0000

> <Gold.PLP.Chemscore.Metal>
0.0000

> <Gold.Chemscore.Hbonds>
donor molecule, donor type, donor heavy atom, donor atom, acceptor molecule, acceptor atom, score
      L1  H     9    34       P1  7948  0.92
      L1  H    12    35       P1  7948  1.00

> <Gold.PLP.Chemscore.Internal.Correction>
0.3593

> <Gold.Rescore>
     Score         DG    S(hbond)    S(metal)    S(lipo)     H(rot)  DE(clash)    DE(int)     intcor
     19.97     -20.63       1.66        0.00     111.55       1.35       0.07       0.59       ----

> <Gold.Chemscore.Fitness>
19.9688

> <Gold.Chemscore.DG>
-20.6333

> <Gold.Chemscore.ZeroCoef>
-5.4800

> <Gold.Chemscore.Hbond>
1.6619

> <Gold.Chemscore.Metal>
0.0000

> <Gold.Chemscore.Lipo>
111.5480

> <Gold.Chemscore.Internal_Hbond>
0.0000

> <Gold.Chemscore.DEClash>
0.0739

> <Gold.Chemscore.DEInternal>
0.5906

> <Gold.Chemscore.Rot>
1.3471

> <Gold.Chemscore.Internal.Correction>
   9.000000E+99

> <Gold.Chemscore.Hbonds>
donor molecule, donor type, donor heavy atom, donor atom, acceptor molecule, acceptor atom, score
      L1  H     9    34       P1  7948  0.77
      L1  H    12    35       P1  7948  0.49

> <Gold.Chemscore.Hbond.Weighted>
-5.5507

> <Gold.Chemscore.Metal.Weighted>
-0.0000

> <Gold.Chemscore.Lipo.Weighted>
-13.0511

> <Gold.Chemscore.Internal_Hbond.Weighted>
0.0000

> <Gold.Chemscore.DEClash.Weighted>
0.0739

> <Gold.Chemscore.DEInternal.Weighted>
0.5906

> <Gold.Chemscore.Rot.Weighted>
3.4485

> <Gold.Chemscore.Internal.Correction.Weighted>
   9.000000E+99

> <Gold.Protein.RotatedTorsions>
[ 6907 6896 6895 6894 ] final   81.20 input  -60.11 | X-H torsion
[ 7974 7965 7964 7962 ] final  -66.51 input  175.53 | X-H torsion
[ 8008 7997 7996 7995 ] final   73.01 input   59.86 | X-H torsion
[ 10167 10162 10161 10158 ] final  115.41 input  -65.29 | X-H torsion
[ 10718 10713 10712 10709 ] final  145.41 input   66.30 | X-H torsion
[ 10763 10752 10751 10750 ] final  -30.15 input  -60.55 | X-H torsion
[ 11005 11000 10999 10996 ] final  -29.14 input  -57.11 | X-H torsion

> <Gold.Protein.ActiveResidues>
 VAL166  LYS551  ARG553  GLY616  TRP617  ASP618  TYR619  PRO620  LYS621  CYS622 
 ASP623  PHE694  ASN695  SER759  ASP760  ASP761  ALA762  ILE779  LEU786  VAL792 
 PHE793  MET794  SER795  GLU796  ALA797  LYS798  CYS799  TRP800  GLU811  SER814 

> <Gold.Protein.RotatedAtoms>
  152.5261  134.3240  159.9158 H   0  0  0  0  0  0  0  0  0  0  0  0  # atno 6907 bound_to 6896
  151.3189  133.4042  159.2660 H   0  0  0  0  0  0  0  0  0  0  0  0  # atno 6908 bound_to 6896
  150.9976  134.9313  159.7993 H   0  0  0  0  0  0  0  0  0  0  0  0  # atno 6909 bound_to 6896
  145.7409  140.8954  143.0530 H   0  0  0  0  0  0  0  0  0  0  0  0  # atno 7974 bound_to 7965
  155.7773  140.3483  155.5279 H   0  0  0  0  0  0  0  0  0  0  0  0  # atno 8008 bound_to 7997
  155.8763  140.0994  157.1537 H   0  0  0  0  0  0  0  0  0  0  0  0  # atno 8009 bound_to 7997
  154.4021  140.1331  156.4128 H   0  0  0  0  0  0  0  0  0  0  0  0  # atno 8010 bound_to 7997
  139.6319  144.7116  151.2414 H   0  0  0  0  0  0  0  0  0  0  0  0  # atno 10167 bound_to 10162
  157.3456  131.0942  151.1045 H   0  0  0  0  0  0  0  0  0  0  0  0  # atno 10718 bound_to 10713
  153.7762  135.6908  153.4897 H   0  0  0  0  0  0  0  0  0  0  0  0  # atno 10763 bound_to 10752
  153.1842  135.4495  155.0065 H   0  0  0  0  0  0  0  0  0  0  0  0  # atno 10764 bound_to 10752
  154.8099  135.3373  154.7268 H   0  0  0  0  0  0  0  0  0  0  0  0  # atno 10765 bound_to 10752
  140.9270  133.7362  156.0882 H   0  0  0  0  0  0  0  0  0  0  0  0  # atno 11005 bound_to 11000
  144.6871  139.9459  143.7476 LP  0  0  0  0  0  0  0  0  0  0  0  0  # atno 17320 bound_to 7965
  146.0449  139.3456  143.0675 LP  0  0  0  0  0  0  0  0  0  0  0  0  # atno 17321 bound_to 7965
  140.7444  143.6465  150.8287 LP  0  0  0  0  0  0  0  0  0  0  0  0  # atno 17342 bound_to 10162
  140.0091  143.5662  152.2846 LP  0  0  0  0  0  0  0  0  0  0  0  0  # atno 17343 bound_to 10162
  157.2240  130.6494  149.5822 LP  0  0  0  0  0  0  0  0  0  0  0  0  # atno 17370 bound_to 10713
  155.9714  130.4620  150.6129 LP  0  0  0  0  0  0  0  0  0  0  0  0  # atno 17371 bound_to 10713
  140.7913  134.3614  157.5464 LP  0  0  0  0  0  0  0  0  0  0  0  0  # atno 17394 bound_to 11000
  139.8787  134.9142  156.3101 LP  0  0  0  0  0  0  0  0  0  0  0  0  # atno 17395 bound_to 11000

$$$$
