AV-unprocessed.smi:1389|AV-procd|sdf|5646|dock5
  -GOLD-   22720 5263D 1   1.00000     0.00000
 Structure written by MMmdl.
 51 53  0  0  0  0  0  0  0  0  1 V2000
  149.5575  136.2819  157.3876 C   0  0  0  0  0  0  0  0  0  0  0  0
  150.1121  136.8806  156.0695 C   0  0  2  0  0  0  0  0  0  0  0  0
  150.7598  135.7467  155.2248 C   0  0  0  0  0  0  0  0  0  0  0  0
  149.8459  135.1772  154.2371 N   0  0  0  0  0  0  0  0  0  0  0  0
  149.3427  133.9347  154.2644 C   0  0  0  0  0  0  0  0  0  0  0  0
  149.6117  133.1069  155.1347 O   0  0  0  0  0  0  0  0  0  0  0  0
  148.4960  133.7348  153.2410 N   0  0  0  0  0  0  0  0  0  0  0  0
  147.7174  132.5772  152.9546 C   0  0  0  0  0  0  0  0  0  0  0  0
  148.0407  131.2983  153.4701 C   0  0  0  0  0  0  0  0  0  0  0  0
  147.2309  130.1984  153.1359 C   0  0  0  0  0  0  0  0  0  0  0  0
  146.1295  130.4137  152.2894 C   0  0  0  0  0  0  0  0  0  0  0  0
  145.8190  131.6211  151.7760 N   0  0  0  0  0  0  0  0  0  0  0  0
  146.5912  132.6885  152.0954 C   0  0  0  0  0  0  0  0  0  0  0  0
  146.2611  133.9317  151.5171 N   0  0  0  0  0  0  0  0  0  0  0  0
  145.2528  133.8374  150.4654 C   0  0  0  0  0  0  0  0  0  0  0  0
  144.4040  135.1056  150.5676 C   0  0  0  0  0  0  0  0  0  0  0  0
  144.5034  135.4632  152.0451 C   0  0  0  0  0  0  0  0  0  0  0  0
  145.9373  135.0616  152.3872 C   0  0  0  0  0  0  0  0  0  0  0  0
  151.0242  138.0252  156.3018 N   0  0  0  0  0  0  0  0  0  0  0  0
  151.3731  138.7375  155.0671 C   0  0  0  0  0  0  0  0  0  0  0  0
  152.3017  139.9393  155.3128 C   0  0  0  0  0  0  0  0  0  0  0  0
  151.6958  140.8326  156.2364 O   0  0  0  0  0  0  0  0  0  0  0  0
  151.4114  140.2028  157.4777 C   0  0  0  0  0  0  0  0  0  0  0  0
  150.4754  139.0037  157.2481 C   0  0  0  0  0  0  0  0  0  0  0  0
  148.9074  135.4254  157.2155 H   0  0  0  0  0  0  0  0  0  0  0  0
  148.9421  136.9902  157.9398 H   0  0  0  0  0  0  0  0  0  0  0  0
  150.3658  135.9534  158.0419 H   0  0  0  0  0  0  0  0  0  0  0  0
  149.2538  137.2459  155.5036 H   0  0  0  0  0  0  0  0  0  0  0  0
  151.5960  136.1227  154.6382 H   0  0  0  0  0  0  0  0  0  0  0  0
  151.1682  134.9786  155.8839 H   0  0  0  0  0  0  0  0  0  0  0  0
  149.5615  135.7855  153.4833 H   0  0  0  0  0  0  0  0  0  0  0  0
  148.3016  134.5385  152.6618 H   0  0  0  0  0  0  0  0  0  0  0  0
  148.9002  131.1398  154.1031 H   0  0  0  0  0  0  0  0  0  0  0  0
  147.4520  129.2122  153.5163 H   0  0  0  0  0  0  0  0  0  0  0  0
  145.4852  129.5934  152.0095 H   0  0  0  0  0  0  0  0  0  0  0  0
  145.7156  133.7481  149.4824 H   0  0  0  0  0  0  0  0  0  0  0  0
  144.6274  132.9565  150.6215 H   0  0  0  0  0  0  0  0  0  0  0  0
  144.8487  135.8994  149.9660 H   0  0  0  0  0  0  0  0  0  0  0  0
  143.3778  134.9585  150.2300 H   0  0  0  0  0  0  0  0  0  0  0  0
  144.2966  136.5143  152.2473 H   0  0  0  0  0  0  0  0  0  0  0  0
  143.8010  134.8599  152.6218 H   0  0  0  0  0  0  0  0  0  0  0  0
  146.0580  134.8619  153.4520 H   0  0  0  0  0  0  0  0  0  0  0  0
  146.6195  135.8754  152.1394 H   0  0  0  0  0  0  0  0  0  0  0  0
  151.8906  138.0776  154.3736 H   0  0  0  0  0  0  0  0  0  0  0  0
  150.4652  139.0775  154.5667 H   0  0  0  0  0  0  0  0  0  0  0  0
  153.2689  139.6085  155.6949 H   0  0  0  0  0  0  0  0  0  0  0  0
  152.4914  140.4685  154.3788 H   0  0  0  0  0  0  0  0  0  0  0  0
  152.3392  139.8829  157.9547 H   0  0  0  0  0  0  0  0  0  0  0  0
  150.9431  140.9267  158.1445 H   0  0  0  0  0  0  0  0  0  0  0  0
  149.5087  139.3620  156.8912 H   0  0  0  0  0  0  0  0  0  0  0  0
  150.3044  138.5454  158.2204 H   0  0  0  0  0  0  0  0  0  0  0  0
  1  2  1  0  0  0  0
  1 25  1  0  0  0  0
  1 26  1  0  0  0  0
  1 27  1  0  0  0  0
  2  3  1  0  0  0  0
  2 19  1  0  0  0  0
  2 28  1  0  0  0  0
  3  4  1  0  0  0  0
  3 29  1  0  0  0  0
  3 30  1  0  0  0  0
  4  5  1  0  0  0  0
  4 31  1  0  0  0  0
  5  6  2  0  0  0  0
  5  7  1  0  0  0  0
  7  8  1  0  0  0  0
  7 32  1  0  0  0  0
  8 13  1  0  0  0  0
  8  9  2  0  0  0  0
  9 10  1  0  0  0  0
  9 33  1  0  0  0  0
 10 11  2  0  0  0  0
 10 34  1  0  0  0  0
 11 12  1  0  0  0  0
 11 35  1  0  0  0  0
 12 13  2  0  0  0  0
 13 14  1  0  0  0  0
 14 18  1  0  0  0  0
 14 15  1  0  0  0  0
 15 16  1  0  0  0  0
 15 36  1  0  0  0  0
 15 37  1  0  0  0  0
 16 17  1  0  0  0  0
 16 38  1  0  0  0  0
 16 39  1  0  0  0  0
 17 18  1  0  0  0  0
 17 40  1  0  0  0  0
 17 41  1  0  0  0  0
 18 42  1  0  0  0  0
 18 43  1  0  0  0  0
 19 24  1  0  0  0  0
 19 20  1  0  0  0  0
 20 21  1  0  0  0  0
 20 44  1  0  0  0  0
 20 45  1  0  0  0  0
 21 22  1  0  0  0  0
 21 46  1  0  0  0  0
 21 47  1  0  0  0  0
 22 23  1  0  0  0  0
 23 24  1  0  0  0  0
 23 48  1  0  0  0  0
 23 49  1  0  0  0  0
 24 50  1  0  0  0  0
 24 51  1  0  0  0  0
M  END
> <s_m_source_file>
AV-unprocessed.smi

> <i_m_source_file_index>
1389

> <i_lp_mmshare_version>
43012

> <i_f3d_flags>
0

> <s_epik_input>
W0NIMl0xW0NIMl1PW0NIMl1bQ0gyXU4xW0NASF0oW0NIM10pW0NIMl1bTkhdQyg9TylbTkhdYzJbY0hdW2NIXVtjSF1uYzJOM1tDSDJdW0NIMl1bQ0gyXVtDSDJdMw==

> <s_epik_cmdline>
J2VwaWtfcHl0aG9uJywgJy1waCcsICc3LjAnLCAnLXRuJywgJzgnLCAnLW1hJywgJzIwMCcsICctbWV0YWxfYmluZGluZycsICctaW1hZScsICc8aW5maWxlLm1hZT4nLCAnLW9tYWUnLCAnPG91dGZpbGUubWFlPic=

> <r_lp_tautomer_probability>
1

> <r_epik_Ionization_Penalty>
0.365229

> <r_epik_Ionization_Penalty_Charging>
0

> <r_epik_Ionization_Penalty_Neutral>
0.365229

> <r_epik_State_Penalty>
0.350519

> <r_epik_Charging_Adjusted_Penalty>
0.350519

> <i_epik_Tot_Q>
0

> <i_epik_Tot_abs_Q>
0

> <r_epik_Metal_State_Penalty>
0.33386

> <b_epik_Metal_Only>
0

> <s_lp_Force_Field>
OPLS_2005

> <r_lp_Energy>
57.3938

> <b_lp_Chiralities_Consistent>
1

> <s_lp_Variant>
AV-unprocessed.smi:1389-1

> <Gold.Version>
5.8.1

> <Gold.Id.Protein>
6NUR|6NUR_protein|mol2

> <Gold.PLP.Fitness>
38.9434

> <Gold.PLP.PLP>
-34.5170

> <Gold.PLP.part.hbond>
-2.0850

> <Gold.PLP.part.metal>
0.0000

> <Gold.PLP.part.buried>
-3.6821

> <Gold.PLP.part.nonpolar>
-27.7440

> <Gold.PLP.part.repulsive>
0.3724

> <Gold.PLP.ligand.clash>
0.0000

> <Gold.PLP.ligand.torsion>
0.8353

> <Gold.PLP.Chemscore.Hbond>
1.9760

> <Gold.PLP.Chemscore.CHOScore>
0.0000

> <Gold.PLP.Chemscore.Metal>
0.0000

> <Gold.Chemscore.Hbonds>
donor molecule, donor type, donor heavy atom, donor atom, acceptor molecule, acceptor atom, score
      L1  H     4    31       P1  7948  0.95
      L1  H     7    32       P1  7948  0.94

> <Gold.PLP.Chemscore.Internal.Correction>
0.1690

> <Gold.Rescore>
     Score         DG    S(hbond)    S(metal)    S(lipo)     H(rot)  DE(clash)    DE(int)     intcor
     11.56     -14.52       1.37        0.00      72.40       1.57       0.01       2.95       ----

> <Gold.Chemscore.Fitness>
11.5580

> <Gold.Chemscore.DG>
-14.5153

> <Gold.Chemscore.ZeroCoef>
-5.4800

> <Gold.Chemscore.Hbond>
1.3739

> <Gold.Chemscore.Metal>
0.0000

> <Gold.Chemscore.Lipo>
72.3954

> <Gold.Chemscore.Internal_Hbond>
0.0000

> <Gold.Chemscore.DEClash>
0.0086

> <Gold.Chemscore.DEInternal>
2.9487

> <Gold.Chemscore.Rot>
1.5718

> <Gold.Chemscore.Internal.Correction>
   9.000000E+99

> <Gold.Chemscore.Hbonds>
donor molecule, donor type, donor heavy atom, donor atom, acceptor molecule, acceptor atom, score
      L1  H     4    31       P1  7948  0.21
      L1  H     7    32       P1  7948  0.27

> <Gold.Chemscore.Hbond.Weighted>
-4.5890

> <Gold.Chemscore.Metal.Weighted>
-0.0000

> <Gold.Chemscore.Lipo.Weighted>
-8.4703

> <Gold.Chemscore.Internal_Hbond.Weighted>
0.0000

> <Gold.Chemscore.DEClash.Weighted>
0.0086

> <Gold.Chemscore.DEInternal.Weighted>
2.9487

> <Gold.Chemscore.Rot.Weighted>
4.0239

> <Gold.Chemscore.Internal.Correction.Weighted>
   9.000000E+99

> <Gold.Protein.RotatedTorsions>
[ 6907 6896 6895 6894 ] final -178.61 input  -60.11 | X-H torsion
[ 7974 7965 7964 7962 ] final -168.79 input  175.53 | X-H torsion
[ 8008 7997 7996 7995 ] final  126.16 input   59.86 | X-H torsion
[ 10167 10162 10161 10158 ] final  145.26 input  -65.29 | X-H torsion
[ 10718 10713 10712 10709 ] final   76.59 input   66.30 | X-H torsion
[ 10763 10752 10751 10750 ] final  157.39 input  -60.55 | X-H torsion
[ 11005 11000 10999 10996 ] final   -3.07 input  -57.11 | X-H torsion

> <Gold.Protein.ActiveResidues>
 VAL166  LYS551  ARG553  GLY616  TRP617  ASP618  TYR619  PRO620  LYS621  CYS622 
 ASP623  PHE694  ASN695  SER759  ASP760  ASP761  ALA762  ILE779  LEU786  VAL792 
 PHE793  MET794  SER795  GLU796  ALA797  LYS798  CYS799  TRP800  GLU811  SER814 

> <Gold.Protein.RotatedAtoms>
  151.6399  133.3326  159.3127 H   0  0  0  0  0  0  0  0  0  0  0  0  # atno 6907 bound_to 6896
  150.8013  134.7112  159.6614 H   0  0  0  0  0  0  0  0  0  0  0  0  # atno 6908 bound_to 6896
  152.4105  134.6136  160.0083 H   0  0  0  0  0  0  0  0  0  0  0  0  # atno 6909 bound_to 6896
  144.7197  140.2318  143.6303 H   0  0  0  0  0  0  0  0  0  0  0  0  # atno 7974 bound_to 7965
  156.2856  140.2699  156.2066 H   0  0  0  0  0  0  0  0  0  0  0  0  # atno 8008 bound_to 7997
  155.0307  140.0386  157.2491 H   0  0  0  0  0  0  0  0  0  0  0  0  # atno 8009 bound_to 7997
  154.7357  140.2715  155.6422 H   0  0  0  0  0  0  0  0  0  0  0  0  # atno 8010 bound_to 7997
  139.4929  144.5914  151.6673 H   0  0  0  0  0  0  0  0  0  0  0  0  # atno 10167 bound_to 10162
  157.6679  130.9781  150.1519 H   0  0  0  0  0  0  0  0  0  0  0  0  # atno 10718 bound_to 10713
  154.1995  135.2791  155.2995 H   0  0  0  0  0  0  0  0  0  0  0  0  # atno 10763 bound_to 10752
  154.5865  135.5573  153.7240 H   0  0  0  0  0  0  0  0  0  0  0  0  # atno 10764 bound_to 10752
  153.0091  135.6358  154.2133 H   0  0  0  0  0  0  0  0  0  0  0  0  # atno 10765 bound_to 10752
  140.6653  133.9284  155.8461 H   0  0  0  0  0  0  0  0  0  0  0  0  # atno 11005 bound_to 11000
  145.8403  139.2127  143.1831 LP  0  0  0  0  0  0  0  0  0  0  0  0  # atno 17320 bound_to 7965
  146.0352  140.8219  142.9856 LP  0  0  0  0  0  0  0  0  0  0  0  0  # atno 17321 bound_to 7965
  140.5541  144.0376  150.6140 LP  0  0  0  0  0  0  0  0  0  0  0  0  # atno 17342 bound_to 10162
  140.3440  143.3002  152.0558 LP  0  0  0  0  0  0  0  0  0  0  0  0  # atno 17343 bound_to 10162
  156.2316  130.3682  149.8438 LP  0  0  0  0  0  0  0  0  0  0  0  0  # atno 17370 bound_to 10713
  156.6264  130.8647  151.3486 LP  0  0  0  0  0  0  0  0  0  0  0  0  # atno 17371 bound_to 10713
  141.0434  134.0589  157.3874 LP  0  0  0  0  0  0  0  0  0  0  0  0  # atno 17394 bound_to 11000
  139.8999  135.0160  156.7218 LP  0  0  0  0  0  0  0  0  0  0  0  0  # atno 17395 bound_to 11000

$$$$
