AV-unprocessed.smi:203|AV-procd|sdf|1590|dock7
  -GOLD-   2262019493D 1   1.00000     0.00000
 Structure written by MMmdl.
 57 61  0  0  0  0  0  0  0  0  1 V2000
  149.0500  141.9754  153.8466 O   0  0  0  0  0  0  0  0  0  0  0  0
  149.1053  141.4738  154.9669 C   0  0  0  0  0  0  0  0  0  0  0  0
  150.3863  140.9396  155.5836 C   0  0  0  0  0  0  0  0  0  0  0  0
  149.9877  140.6307  157.0410 C   0  0  1  0  0  0  0  0  0  0  0  0
  150.6584  141.5546  158.1083 C   0  0  2  0  0  0  0  0  0  0  0  0
  150.8211  143.0192  157.6232 C   0  0  0  0  0  0  0  0  0  0  0  0
  151.4653  143.9032  158.6998 C   0  0  0  0  0  0  0  0  0  0  0  0
  152.8058  143.3023  159.1376 C   0  0  0  0  0  0  0  0  0  0  0  0
  152.6148  141.8546  159.6100 C   0  0  0  0  0  0  0  0  0  0  0  0
  151.9575  141.0451  158.5852 N   0  0  0  0  0  0  0  0  0  0  0  0
  151.9944  139.7353  158.9141 C   0  0  0  0  0  0  0  0  0  0  0  0
  150.8128  139.1334  159.1941 N   0  0  0  0  0  0  0  0  0  0  0  0
  150.7931  137.8568  159.5888 C   0  0  0  0  0  0  0  0  0  0  0  0
  151.8199  137.0235  159.7722 N   0  0  0  0  0  0  0  0  0  0  0  0
  153.0073  137.6262  159.4759 C   0  0  0  0  0  0  0  0  0  0  0  0
  153.1848  138.9646  159.0302 C   0  0  0  0  0  0  0  0  0  0  0  0
  154.5356  139.2249  158.8302 N   0  0  0  0  0  0  0  0  0  0  0  0
  155.1264  138.1116  159.1684 C   0  0  0  0  0  0  0  0  0  0  0  0
  154.2848  137.1080  159.5899 N   0  0  0  0  0  0  0  0  0  0  0  0
  154.6732  135.8028  160.0893 C   0  0  0  0  0  0  0  0  0  0  0  0
  155.3847  135.8811  161.4586 C   0  0  2  0  0  0  0  0  0  0  0  0
  155.5058  134.5602  161.9468 O   0  0  0  0  0  0  0  0  0  0  0  0
  154.6565  136.7510  162.5106 C   0  0  1  0  0  0  0  0  0  0  0  0
  153.4063  136.1137  163.1220 C   0  0  0  0  0  0  0  0  0  0  0  0
  153.2670  136.8055  164.4706 C   0  0  0  0  0  0  0  0  0  0  0  0
  154.6244  137.4785  164.6846 C   0  0  0  0  0  0  0  0  0  0  0  0
  155.4551  136.9345  163.6718 O   0  0  0  0  0  0  0  0  0  0  0  0
  148.4452  140.6937  157.0568 C   0  0  0  0  0  0  0  0  0  0  0  0
  148.0791  141.3173  155.8003 N   0  0  0  0  0  0  0  0  0  0  0  0
  150.6875  140.0322  155.0592 H   0  0  0  0  0  0  0  0  0  0  0  0
  151.1988  141.6614  155.5007 H   0  0  0  0  0  0  0  0  0  0  0  0
  150.2485  139.5937  157.2542 H   0  0  0  0  0  0  0  0  0  0  0  0
  149.9942  141.5809  158.9728 H   0  0  0  0  0  0  0  0  0  0  0  0
  151.4393  143.0545  156.7259 H   0  0  0  0  0  0  0  0  0  0  0  0
  149.8588  143.4475  157.3458 H   0  0  0  0  0  0  0  0  0  0  0  0
  151.6123  144.9143  158.3193 H   0  0  0  0  0  0  0  0  0  0  0  0
  150.7978  143.9847  159.5586 H   0  0  0  0  0  0  0  0  0  0  0  0
  153.5101  143.3267  158.3050 H   0  0  0  0  0  0  0  0  0  0  0  0
  153.2445  143.9015  159.9358 H   0  0  0  0  0  0  0  0  0  0  0  0
  153.5849  141.4224  159.8607 H   0  0  0  0  0  0  0  0  0  0  0  0
  152.0158  141.8414  160.5218 H   0  0  0  0  0  0  0  0  0  0  0  0
  149.8157  137.4481  159.7992 H   0  0  0  0  0  0  0  0  0  0  0  0
  156.2006  137.9998  159.1458 H   0  0  0  0  0  0  0  0  0  0  0  0
  153.7783  135.1832  160.1625 H   0  0  0  0  0  0  0  0  0  0  0  0
  155.3197  135.3294  159.3494 H   0  0  0  0  0  0  0  0  0  0  0  0
  156.3938  136.2703  161.3171 H   0  0  0  0  0  0  0  0  0  0  0  0
  154.6865  134.1110  161.8057 H   0  0  0  0  0  0  0  0  0  0  0  0
  154.4043  137.7259  162.0886 H   0  0  0  0  0  0  0  0  0  0  0  0
  152.5239  136.2339  162.4930 H   0  0  0  0  0  0  0  0  0  0  0  0
  153.5656  135.0455  163.2759 H   0  0  0  0  0  0  0  0  0  0  0  0
  152.4674  137.5468  164.4621 H   0  0  0  0  0  0  0  0  0  0  0  0
  153.0472  136.0821  165.2565 H   0  0  0  0  0  0  0  0  0  0  0  0
  154.5494  138.5579  164.5450 H   0  0  0  0  0  0  0  0  0  0  0  0
  155.0375  137.2907  165.6757 H   0  0  0  0  0  0  0  0  0  0  0  0
  148.0167  139.6913  157.0866 H   0  0  0  0  0  0  0  0  0  0  0  0
  148.0435  141.2460  157.9063 H   0  0  0  0  0  0  0  0  0  0  0  0
  147.1333  141.6025  155.5903 H   0  0  0  0  0  0  0  0  0  0  0  0
  1  2  2  0  0  0  0
  2 29  1  0  0  0  0
  2  3  1  0  0  0  0
  3  4  1  0  0  0  0
  3 30  1  0  0  0  0
  3 31  1  0  0  0  0
  4  5  1  0  0  0  0
  4 28  1  0  0  0  0
  4 32  1  0  0  0  0
  5 10  1  0  0  0  0
  5  6  1  0  0  0  0
  5 33  1  0  0  0  0
  6  7  1  0  0  0  0
  6 34  1  0  0  0  0
  6 35  1  0  0  0  0
  7  8  1  0  0  0  0
  7 36  1  0  0  0  0
  7 37  1  0  0  0  0
  8  9  1  0  0  0  0
  8 38  1  0  0  0  0
  8 39  1  0  0  0  0
  9 10  1  0  0  0  0
  9 40  1  0  0  0  0
  9 41  1  0  0  0  0
 10 11  1  0  0  0  0
 11 16  1  0  0  0  0
 11 12  2  0  0  0  0
 12 13  1  0  0  0  0
 13 14  2  0  0  0  0
 13 42  1  0  0  0  0
 14 15  1  0  0  0  0
 15 19  1  0  0  0  0
 15 16  2  0  0  0  0
 16 17  1  0  0  0  0
 17 18  2  0  0  0  0
 18 19  1  0  0  0  0
 18 43  1  0  0  0  0
 19 20  1  0  0  0  0
 20 21  1  0  0  0  0
 20 44  1  0  0  0  0
 20 45  1  0  0  0  0
 21 22  1  0  0  0  0
 21 23  1  0  0  0  0
 21 46  1  0  0  0  0
 22 47  1  0  0  0  0
 23 27  1  0  0  0  0
 23 24  1  0  0  0  0
 23 48  1  0  0  0  0
 24 25  1  0  0  0  0
 24 49  1  0  0  0  0
 24 50  1  0  0  0  0
 25 26  1  0  0  0  0
 25 51  1  0  0  0  0
 25 52  1  0  0  0  0
 26 27  1  0  0  0  0
 26 53  1  0  0  0  0
 26 54  1  0  0  0  0
 28 29  1  0  0  0  0
 28 55  1  0  0  0  0
 28 56  1  0  0  0  0
 29 57  1  0  0  0  0
M  END
> <s_m_source_file>
AV-unprocessed.smi

> <i_m_source_file_index>
203

> <i_lp_mmshare_version>
43012

> <i_f3d_flags>
0

> <s_epik_input>
Tz1DMVtDSDJdW0NASF0oW0NIMl1bTkhdMSlbQ0BASF0yW0NIMl1bQ0gyXVtDSDJdW0NIMl1OMmMobltjSF1uMyljKGMzNCluW2NIXW40W0NIMl1bQ0BIXShbT0hdKVtDQEBIXTVbQ0gyXVtDSDJdW0NIMl1PNQ==

> <s_epik_cmdline>
J2VwaWtfcHl0aG9uJywgJy1waCcsICc3LjAnLCAnLXRuJywgJzgnLCAnLW1hJywgJzIwMCcsICctbWV0YWxfYmluZGluZycsICctaW1hZScsICc8aW5maWxlLm1hZT4nLCAnLW9tYWUnLCAnPG91dGZpbGUubWFlPic=

> <r_lp_tautomer_probability>
1

> <r_epik_Ionization_Penalty>
0.00175146

> <r_epik_Ionization_Penalty_Charging>
0

> <r_epik_Ionization_Penalty_Neutral>
0.00175146

> <r_epik_State_Penalty>
0.00109045

> <r_epik_Charging_Adjusted_Penalty>
0.00109045

> <i_epik_Tot_Q>
0

> <i_epik_Tot_abs_Q>
0

> <r_epik_Metal_State_Penalty>
-0

> <b_epik_Metal_Only>
0

> <s_lp_Force_Field>
OPLS_2005

> <r_lp_Energy>
55.9411

> <b_lp_Chiralities_Consistent>
1

> <s_lp_Variant>
AV-unprocessed.smi:203-9

> <Gold.Version>
5.8.1

> <Gold.Id.Protein>
6NUR|6NUR_protein|mol2

> <Gold.PLP.Fitness>
50.8167

> <Gold.PLP.PLP>
-45.0141

> <Gold.PLP.part.hbond>
-4.1967

> <Gold.PLP.part.metal>
0.0000

> <Gold.PLP.part.buried>
-4.8065

> <Gold.PLP.part.nonpolar>
-36.0893

> <Gold.PLP.part.repulsive>
0.2478

> <Gold.PLP.ligand.clash>
0.0229

> <Gold.PLP.ligand.torsion>
1.1904

> <Gold.PLP.Chemscore.Hbond>
2.6240

> <Gold.PLP.Chemscore.CHOScore>
0.0000

> <Gold.PLP.Chemscore.Metal>
0.0000

> <Gold.Chemscore.Hbonds>
donor molecule, donor type, donor heavy atom, donor atom, acceptor molecule, acceptor atom, score
      P1  H  6896  6908       L1    14  1.00
      P1  H  7997  8009       L1    17  1.00
      P1  H  8011  8017       L1     1  0.46

> <Gold.PLP.Chemscore.Internal.Correction>
0.3343

> <Gold.Rescore>
     Score         DG    S(hbond)    S(metal)    S(lipo)     H(rot)  DE(clash)    DE(int)     intcor
     16.12     -18.86       2.39        0.00     105.67       2.72       0.29       2.44       ----

> <Gold.Chemscore.Fitness>
16.1190

> <Gold.Chemscore.DG>
-18.8558

> <Gold.Chemscore.ZeroCoef>
-5.4800

> <Gold.Chemscore.Hbond>
2.3856

> <Gold.Chemscore.Metal>
0.0000

> <Gold.Chemscore.Lipo>
105.6715

> <Gold.Chemscore.Internal_Hbond>
0.0000

> <Gold.Chemscore.DEClash>
0.2921

> <Gold.Chemscore.DEInternal>
2.4447

> <Gold.Chemscore.Rot>
2.7171

> <Gold.Chemscore.Internal.Correction>
   9.000000E+99

> <Gold.Chemscore.Hbonds>
donor molecule, donor type, donor heavy atom, donor atom, acceptor molecule, acceptor atom, score
      P1  H  6896  6908       L1    14  0.98
      P1  H  7997  8009       L1    17  0.84
      P1  H  8011  8017       L1     1  0.46

> <Gold.Chemscore.Hbond.Weighted>
-7.9679

> <Gold.Chemscore.Metal.Weighted>
-0.0000

> <Gold.Chemscore.Lipo.Weighted>
-12.3636

> <Gold.Chemscore.Internal_Hbond.Weighted>
0.0000

> <Gold.Chemscore.DEClash.Weighted>
0.2921

> <Gold.Chemscore.DEInternal.Weighted>
2.4447

> <Gold.Chemscore.Rot.Weighted>
6.9557

> <Gold.Chemscore.Internal.Correction.Weighted>
   9.000000E+99

> <Gold.Protein.RotatedTorsions>
[ 6907 6896 6895 6894 ] final -109.00 input  -60.11 | X-H torsion
[ 7974 7965 7964 7962 ] final  -54.28 input  175.53 | X-H torsion
[ 8008 7997 7996 7995 ] final  107.50 input   59.86 | X-H torsion
[ 10167 10162 10161 10158 ] final   13.68 input  -65.29 | X-H torsion
[ 10718 10713 10712 10709 ] final   29.76 input   66.30 | X-H torsion
[ 10763 10752 10751 10750 ] final  -93.94 input  -60.55 | X-H torsion
[ 11005 11000 10999 10996 ] final -137.07 input  -57.11 | X-H torsion

> <Gold.Protein.ActiveResidues>
 VAL166  LYS551  ARG553  GLY616  TRP617  ASP618  TYR619  PRO620  LYS621  CYS622 
 ASP623  PHE694  ASN695  SER759  ASP760  ASP761  ALA762  ILE779  LEU786  VAL792 
 PHE793  MET794  SER795  GLU796  ALA797  LYS798  CYS799  TRP800  GLU811  SER814 

> <Gold.Protein.RotatedAtoms>
  150.7536  133.9593  159.3510 H   0  0  0  0  0  0  0  0  0  0  0  0  # atno 6907 bound_to 6896
  151.7518  135.0829  160.0341 H   0  0  0  0  0  0  0  0  0  0  0  0  # atno 6908 bound_to 6896
  152.3461  133.6087  159.5947 H   0  0  0  0  0  0  0  0  0  0  0  0  # atno 6909 bound_to 6896
  145.8874  140.8097  142.9809 H   0  0  0  0  0  0  0  0  0  0  0  0  # atno 7974 bound_to 7965
  156.1829  140.3093  155.9183 H   0  0  0  0  0  0  0  0  0  0  0  0  # atno 8008 bound_to 7997
  155.3345  140.0462  157.3060 H   0  0  0  0  0  0  0  0  0  0  0  0  # atno 8009 bound_to 7997
  154.5363  140.2247  155.8727 H   0  0  0  0  0  0  0  0  0  0  0  0  # atno 8010 bound_to 7997
  140.5986  143.8650  150.6943 H   0  0  0  0  0  0  0  0  0  0  0  0  # atno 10167 bound_to 10162
  157.2508  130.7114  149.6404 H   0  0  0  0  0  0  0  0  0  0  0  0  # atno 10718 bound_to 10713
  154.7008  135.5176  153.8523 H   0  0  0  0  0  0  0  0  0  0  0  0  # atno 10763 bound_to 10752
  153.0702  135.6598  154.0273 H   0  0  0  0  0  0  0  0  0  0  0  0  # atno 10764 bound_to 10752
  154.0132  135.3000  155.3369 H   0  0  0  0  0  0  0  0  0  0  0  0  # atno 10765 bound_to 10752
  140.8746  134.2008  157.4630 H   0  0  0  0  0  0  0  0  0  0  0  0  # atno 11005 bound_to 11000
  144.6729  140.1477  143.7432 LP  0  0  0  0  0  0  0  0  0  0  0  0  # atno 17320 bound_to 7965
  145.8950  139.2397  143.1527 LP  0  0  0  0  0  0  0  0  0  0  0  0  # atno 17321 bound_to 7965
  140.2191  143.3823  152.1657 LP  0  0  0  0  0  0  0  0  0  0  0  0  # atno 17342 bound_to 10162
  139.5275  144.7120  151.5175 LP  0  0  0  0  0  0  0  0  0  0  0  0  # atno 17343 bound_to 10162
  155.9666  130.4428  150.5396 LP  0  0  0  0  0  0  0  0  0  0  0  0  # atno 17370 bound_to 10713
  157.3280  131.0694  151.1882 LP  0  0  0  0  0  0  0  0  0  0  0  0  # atno 17371 bound_to 10713
  139.8714  134.9790  156.5018 LP  0  0  0  0  0  0  0  0  0  0  0  0  # atno 17394 bound_to 11000
  140.8533  133.8115  155.9190 LP  0  0  0  0  0  0  0  0  0  0  0  0  # atno 17395 bound_to 11000

$$$$
