AV-unprocessed.smi:3350|AV-procd|sdf|12943|dock1
  -GOLD-   2272019373D 1   1.00000     0.00000
 Structure written by MMmdl.
 41 42  0  0  0  0  0  0  0  0  1 V2000
  144.8464  134.8824  153.1209 C   0  0  0  0  0  0  0  0  0  0  0  0
  145.3784  135.7065  151.9405 C   0  0  2  0  0  0  0  0  0  0  0  0
  145.8069  134.7977  150.7673 C   0  0  0  0  0  0  0  0  0  0  0  0
  145.1880  133.4842  150.8174 N   0  0  0  0  0  0  0  0  0  0  0  0
  145.7986  132.2485  150.8790 C   0  0  0  0  0  0  0  0  0  0  0  0
  144.8100  131.3070  150.8895 C   0  0  0  0  0  0  0  0  0  0  0  0
  143.6130  132.0739  150.8325 C   0  0  0  0  0  0  0  0  0  0  0  0
  143.8422  133.3766  150.7940 N   0  0  0  0  0  0  0  0  0  0  0  0
  146.5025  136.5220  152.3985 N   0  0  0  0  0  0  0  0  0  0  0  0
  146.4172  137.5699  153.2306 C   0  0  0  0  0  0  0  0  0  0  0  0
  145.3744  137.9381  153.7715 O   0  0  0  0  0  0  0  0  0  0  0  0
  147.6015  138.1856  153.3676 N   0  0  0  0  0  0  0  0  0  0  0  0
  147.8756  139.4265  154.0958 C   0  0  2  0  0  0  0  0  0  0  0  0
  147.0678  140.6037  153.5175 C   0  0  0  0  0  0  0  0  0  0  0  0
  149.3922  139.7154  154.1795 C   0  0  1  0  0  0  0  0  0  0  0  0
  149.7743  140.8396  155.1452 C   0  0  0  0  0  0  0  0  0  0  0  0
  151.1822  140.4759  155.5953 C   0  0  0  0  0  0  0  0  0  0  0  0
  151.3902  139.0554  155.0663 C   0  0  0  0  0  0  0  0  0  0  0  0
  150.0886  138.6043  154.7247 O   0  0  0  0  0  0  0  0  0  0  0  0
  143.9878  134.2800  152.8226 H   0  0  0  0  0  0  0  0  0  0  0  0
  144.5245  135.5290  153.9380 H   0  0  0  0  0  0  0  0  0  0  0  0
  145.6081  134.2057  153.5101 H   0  0  0  0  0  0  0  0  0  0  0  0
  144.5638  136.3521  151.6068 H   0  0  0  0  0  0  0  0  0  0  0  0
  145.5617  135.2636  149.8119 H   0  0  0  0  0  0  0  0  0  0  0  0
  146.8891  134.6601  150.7754 H   0  0  0  0  0  0  0  0  0  0  0  0
  146.8732  132.1430  150.9007 H   0  0  0  0  0  0  0  0  0  0  0  0
  144.9242  130.2341  150.9294 H   0  0  0  0  0  0  0  0  0  0  0  0
  142.5911  131.7250  150.8194 H   0  0  0  0  0  0  0  0  0  0  0  0
  147.4078  136.3014  152.0103 H   0  0  0  0  0  0  0  0  0  0  0  0
  148.3856  137.7873  152.8721 H   0  0  0  0  0  0  0  0  0  0  0  0
  147.5136  139.2502  155.1094 H   0  0  0  0  0  0  0  0  0  0  0  0
  147.1602  141.4901  154.1454 H   0  0  0  0  0  0  0  0  0  0  0  0
  146.0071  140.3590  153.4555 H   0  0  0  0  0  0  0  0  0  0  0  0
  147.4059  140.8762  152.5176 H   0  0  0  0  0  0  0  0  0  0  0  0
  149.8046  139.9350  153.1930 H   0  0  0  0  0  0  0  0  0  0  0  0
  149.7223  141.8235  154.6781 H   0  0  0  0  0  0  0  0  0  0  0  0
  149.1074  140.8436  156.0086 H   0  0  0  0  0  0  0  0  0  0  0  0
  151.9297  141.1569  155.1877 H   0  0  0  0  0  0  0  0  0  0  0  0
  151.2550  140.5084  156.6831 H   0  0  0  0  0  0  0  0  0  0  0  0
  152.0120  139.0686  154.1704 H   0  0  0  0  0  0  0  0  0  0  0  0
  151.8602  138.3975  155.7975 H   0  0  0  0  0  0  0  0  0  0  0  0
  1  2  1  0  0  0  0
  1 20  1  0  0  0  0
  1 21  1  0  0  0  0
  1 22  1  0  0  0  0
  2  3  1  0  0  0  0
  2  9  1  0  0  0  0
  2 23  1  0  0  0  0
  3  4  1  0  0  0  0
  3 24  1  0  0  0  0
  3 25  1  0  0  0  0
  4  8  1  0  0  0  0
  4  5  1  0  0  0  0
  5  6  2  0  0  0  0
  5 26  1  0  0  0  0
  6  7  1  0  0  0  0
  6 27  1  0  0  0  0
  7  8  2  0  0  0  0
  7 28  1  0  0  0  0
  9 10  1  0  0  0  0
  9 29  1  0  0  0  0
 10 11  2  0  0  0  0
 10 12  1  0  0  0  0
 12 13  1  0  0  0  0
 12 30  1  0  0  0  0
 13 14  1  0  0  0  0
 13 15  1  0  0  0  0
 13 31  1  0  0  0  0
 14 32  1  0  0  0  0
 14 33  1  0  0  0  0
 14 34  1  0  0  0  0
 15 19  1  0  0  0  0
 15 16  1  0  0  0  0
 15 35  1  0  0  0  0
 16 17  1  0  0  0  0
 16 36  1  0  0  0  0
 16 37  1  0  0  0  0
 17 18  1  0  0  0  0
 17 38  1  0  0  0  0
 17 39  1  0  0  0  0
 18 19  1  0  0  0  0
 18 40  1  0  0  0  0
 18 41  1  0  0  0  0
M  END
> <s_m_source_file>
AV-unprocessed.smi

> <i_m_source_file_index>
3350

> <i_lp_mmshare_version>
43012

> <i_f3d_flags>
0

> <s_epik_input>
bjFbY0hdW2NIXVtjSF1uMVtDSDJdW0NAQEhdKFtDSDNdKVtOSF1DKD1PKVtOSF1bQ0BIXShbQ0gzXSlbQ0BASF0yW0NIMl1bQ0gyXVtDSDJdTzI=

> <s_epik_cmdline>
J2VwaWtfcHl0aG9uJywgJy1waCcsICc3LjAnLCAnLXRuJywgJzgnLCAnLW1hJywgJzIwMCcsICctbWV0YWxfYmluZGluZycsICctaW1hZScsICc8aW5maWxlLm1hZT4nLCAnLW9tYWUnLCAnPG91dGZpbGUubWFlPic=

> <r_lp_tautomer_probability>
1

> <r_epik_Ionization_Penalty>
6.42349e-05

> <r_epik_Ionization_Penalty_Charging>
0

> <r_epik_Ionization_Penalty_Neutral>
6.42349e-05

> <r_epik_State_Penalty>
-0

> <r_epik_Charging_Adjusted_Penalty>
0

> <i_epik_Tot_Q>
0

> <i_epik_Tot_abs_Q>
0

> <r_epik_Metal_State_Penalty>
-0

> <b_epik_Metal_Only>
0

> <s_lp_Force_Field>
OPLS_2005

> <r_lp_Energy>
15.1483

> <b_lp_Chiralities_Consistent>
1

> <s_lp_Variant>
AV-unprocessed.smi:3350-5

> <Gold.Version>
5.8.1

> <Gold.Id.Protein>
6NUR|6NUR_protein|mol2

> <Gold.PLP.Fitness>
42.6904

> <Gold.PLP.PLP>
-32.6672

> <Gold.PLP.part.hbond>
-1.9385

> <Gold.PLP.part.metal>
0.0000

> <Gold.PLP.part.buried>
-2.4300

> <Gold.PLP.part.nonpolar>
-28.6360

> <Gold.PLP.part.repulsive>
0.5791

> <Gold.PLP.ligand.clash>
0.0000

> <Gold.PLP.ligand.torsion>
0.7166

> <Gold.PLP.Chemscore.Hbond>
1.8960

> <Gold.PLP.Chemscore.CHOScore>
1.8799

> <Gold.PLP.Chemscore.Metal>
0.0000

> <Gold.Chemscore.Hbonds>
donor molecule, donor type, donor heavy atom, donor atom, acceptor molecule, acceptor atom, score
      L1  H     9    29       P1  7948  1.00
      L1  H    12    30       P1  7948  0.88
      L1  C     5    26       P1 10747  0.97
      L1  C     7    28       P1 10952  0.92

> <Gold.PLP.Chemscore.Internal.Correction>
0.1287

> <Gold.Rescore>
     Score         DG    S(hbond)    S(metal)    S(lipo)     H(rot)  DE(clash)    DE(int)     intcor
     15.04     -16.45       1.89        0.00      79.64       1.82       0.06       1.35       ----

> <Gold.Chemscore.Fitness>
15.0356

> <Gold.Chemscore.DG>
-16.4493

> <Gold.Chemscore.ZeroCoef>
-5.4800

> <Gold.Chemscore.Hbond>
1.8892

> <Gold.Chemscore.Metal>
0.0000

> <Gold.Chemscore.Lipo>
79.6389

> <Gold.Chemscore.Internal_Hbond>
0.0000

> <Gold.Chemscore.DEClash>
0.0609

> <Gold.Chemscore.DEInternal>
1.3528

> <Gold.Chemscore.Rot>
1.8197

> <Gold.Chemscore.Internal.Correction>
   9.000000E+99

> <Gold.Chemscore.Hbonds>
donor molecule, donor type, donor heavy atom, donor atom, acceptor molecule, acceptor atom, score
      L1  H     9    29       P1  7948  0.93
      L1  H    12    30       P1  7948  0.86

> <Gold.Chemscore.Hbond.Weighted>
-6.3099

> <Gold.Chemscore.Metal.Weighted>
-0.0000

> <Gold.Chemscore.Lipo.Weighted>
-9.3177

> <Gold.Chemscore.Internal_Hbond.Weighted>
0.0000

> <Gold.Chemscore.DEClash.Weighted>
0.0609

> <Gold.Chemscore.DEInternal.Weighted>
1.3528

> <Gold.Chemscore.Rot.Weighted>
4.6583

> <Gold.Chemscore.Internal.Correction.Weighted>
   9.000000E+99

> <Gold.Protein.RotatedTorsions>
[ 6907 6896 6895 6894 ] final  -98.58 input  -60.11 | X-H torsion
[ 7974 7965 7964 7962 ] final  169.20 input  175.53 | X-H torsion
[ 8008 7997 7996 7995 ] final  133.04 input   59.86 | X-H torsion
[ 10167 10162 10161 10158 ] final   58.71 input  -65.29 | X-H torsion
[ 10718 10713 10712 10709 ] final  -17.16 input   66.30 | X-H torsion
[ 10763 10752 10751 10750 ] final  -22.76 input  -60.55 | X-H torsion
[ 11005 11000 10999 10996 ] final  -71.79 input  -57.11 | X-H torsion

> <Gold.Protein.ActiveResidues>
 VAL166  LYS551  ARG553  GLY616  TRP617  ASP618  TYR619  PRO620  LYS621  CYS622 
 ASP623  PHE694  ASN695  SER759  ASP760  ASP761  ALA762  ILE779  LEU786  VAL792 
 PHE793  MET794  SER795  GLU796  ALA797  LYS798  CYS799  TRP800  GLU811  SER814 

> <Gold.Protein.RotatedAtoms>
  150.7051  134.1172  159.4021 H   0  0  0  0  0  0  0  0  0  0  0  0  # atno 6907 bound_to 6896
  151.9159  135.0317  160.0527 H   0  0  0  0  0  0  0  0  0  0  0  0  # atno 6908 bound_to 6896
  152.2297  133.5013  159.5245 H   0  0  0  0  0  0  0  0  0  0  0  0  # atno 6909 bound_to 6896
  144.7363  139.9019  143.6410 H   0  0  0  0  0  0  0  0  0  0  0  0  # atno 7974 bound_to 7965
  156.2988  140.2531  156.3188 H   0  0  0  0  0  0  0  0  0  0  0  0  # atno 8008 bound_to 7997
  154.9255  140.0399  157.2039 H   0  0  0  0  0  0  0  0  0  0  0  0  # atno 8009 bound_to 7997
  154.8269  140.2869  155.5753 H   0  0  0  0  0  0  0  0  0  0  0  0  # atno 8010 bound_to 7997
  140.1843  144.4151  150.6601 H   0  0  0  0  0  0  0  0  0  0  0  0  # atno 10167 bound_to 10162
  156.5775  130.4765  149.6335 H   0  0  0  0  0  0  0  0  0  0  0  0  # atno 10718 bound_to 10713
  153.6571  135.6978  153.5189 H   0  0  0  0  0  0  0  0  0  0  0  0  # atno 10763 bound_to 10752
  153.2660  135.4229  155.0941 H   0  0  0  0  0  0  0  0  0  0  0  0  # atno 10764 bound_to 10752
  154.8461  135.3567  154.6116 H   0  0  0  0  0  0  0  0  0  0  0  0  # atno 10765 bound_to 10752
  141.1598  133.6828  156.6960 H   0  0  0  0  0  0  0  0  0  0  0  0  # atno 11005 bound_to 11000
  146.1065  139.4066  143.0314 LP  0  0  0  0  0  0  0  0  0  0  0  0  # atno 17320 bound_to 7965
  145.7504  140.9975  143.1254 LP  0  0  0  0  0  0  0  0  0  0  0  0  # atno 17321 bound_to 7965
  140.6499  143.2222  151.6101 LP  0  0  0  0  0  0  0  0  0  0  0  0  # atno 17342 bound_to 10162
  139.5283  144.2993  152.1087 LP  0  0  0  0  0  0  0  0  0  0  0  0  # atno 17343 bound_to 10162
  156.2661  130.6990  151.1773 LP  0  0  0  0  0  0  0  0  0  0  0  0  # atno 17370 bound_to 10713
  157.7334  131.0591  150.5578 LP  0  0  0  0  0  0  0  0  0  0  0  0  # atno 17371 bound_to 10713
  140.2995  134.8175  157.4085 LP  0  0  0  0  0  0  0  0  0  0  0  0  # atno 17394 bound_to 11000
  140.1275  134.5139  155.8133 LP  0  0  0  0  0  0  0  0  0  0  0  0  # atno 17395 bound_to 11000

$$$$
