AV-unprocessed.smi:3330|AV-procd|sdf|12804|dock10
  -GOLD-   2272019163D 1   1.00000     0.00000
 Structure written by MMmdl.
 39 40  0  0  0  0  0  0  0  0  2 V2000
  150.4068  141.6992  155.9022 C   0  0  0  0  0  0  0  0  0  0  0  0
  150.9916  142.3107  157.1864 C   0  0  1  0  0  0  0  0  0  0  0  0
  150.0950  143.4036  157.6323 N   0  3  0  0  0  0  0  0  0  0  0  0
  149.0485  143.0019  158.5941 C   0  0  0  0  0  0  0  0  0  0  0  0
  147.9331  142.2128  157.8940 C   0  0  0  0  0  0  0  0  0  0  0  0
  146.6194  142.7998  158.1683 N   0  0  0  0  0  0  0  0  0  0  0  0
  145.7483  143.1780  157.2243 C   0  0  0  0  0  0  0  0  0  0  0  0
  145.8860  143.0980  156.0043 O   0  0  0  0  0  0  0  0  0  0  0  0
  144.5266  143.7565  157.9043 C   0  0  0  0  0  0  0  0  0  0  0  0
  144.9389  143.6176  159.2849 N   0  0  0  0  0  0  0  0  0  0  0  0
  146.1535  143.0662  159.4023 C   0  0  0  0  0  0  0  0  0  0  0  0
  146.7381  142.8545  160.4637 O   0  0  0  0  0  0  0  0  0  0  0  0
  151.1828  141.2584  158.3144 C   0  0  1  0  0  0  0  0  0  0  0  0
  151.8895  139.9748  157.8384 C   0  0  0  0  0  0  0  0  0  0  0  0
  151.8955  141.8231  159.4559 N   0  0  0  0  0  0  0  0  0  0  0  0
  153.1088  141.4445  159.9979 C   0  0  0  0  0  0  0  0  0  0  0  0
  153.3861  142.3053  161.0208 C   0  0  0  0  0  0  0  0  0  0  0  0
  152.2760  143.1945  161.0254 C   0  0  0  0  0  0  0  0  0  0  0  0
  151.3916  142.9091  160.0838 N   0  0  0  0  0  0  0  0  0  0  0  0
  151.0814  140.9669  155.4588 H   0  0  0  0  0  0  0  0  0  0  0  0
  150.2359  142.4675  155.1472 H   0  0  0  0  0  0  0  0  0  0  0  0
  149.4539  141.2049  156.0943 H   0  0  0  0  0  0  0  0  0  0  0  0
  151.9639  142.7347  156.9285 H   0  0  0  0  0  0  0  0  0  0  0  0
  150.6559  144.1220  158.0673 H   0  0  0  0  0  0  0  0  0  0  0  0
  149.4855  142.3901  159.3825 H   0  0  0  0  0  0  0  0  0  0  0  0
  148.6431  143.8944  159.0720 H   0  0  0  0  0  0  0  0  0  0  0  0
  148.1145  142.1816  156.8182 H   0  0  0  0  0  0  0  0  0  0  0  0
  147.9472  141.1736  158.2279 H   0  0  0  0  0  0  0  0  0  0  0  0
  144.3703  144.8011  157.6338 H   0  0  0  0  0  0  0  0  0  0  0  0
  143.6310  143.1724  157.6905 H   0  0  0  0  0  0  0  0  0  0  0  0
  144.3675  143.9166  160.0622 H   0  0  0  0  0  0  0  0  0  0  0  0
  150.1937  140.9601  158.6680 H   0  0  0  0  0  0  0  0  0  0  0  0
  151.2787  139.4198  157.1269 H   0  0  0  0  0  0  0  0  0  0  0  0
  152.0870  139.3034  158.6749 H   0  0  0  0  0  0  0  0  0  0  0  0
  152.8430  140.1954  157.3576 H   0  0  0  0  0  0  0  0  0  0  0  0
  153.6721  140.6073  159.6130 H   0  0  0  0  0  0  0  0  0  0  0  0
  154.2527  142.3039  161.6652 H   0  0  0  0  0  0  0  0  0  0  0  0
  152.0913  144.0371  161.6752 H   0  0  0  0  0  0  0  0  0  0  0  0
  149.6506  143.7958  156.8139 H   0  0  0  0  0  0  0  0  0  0  0  0
  1  2  1  0  0  0  0
  1 20  1  0  0  0  0
  1 21  1  0  0  0  0
  1 22  1  0  0  0  0
  2  3  1  0  0  0  0
  2 13  1  0  0  0  0
  2 23  1  0  0  0  0
  3  4  1  0  0  0  0
  3 24  1  0  0  0  0
  3 39  1  0  0  0  0
  4  5  1  0  0  0  0
  4 25  1  0  0  0  0
  4 26  1  0  0  0  0
  5  6  1  0  0  0  0
  5 27  1  0  0  0  0
  5 28  1  0  0  0  0
  6 11  1  0  0  0  0
  6  7  1  0  0  0  0
  7  8  2  0  0  0  0
  7  9  1  0  0  0  0
  9 10  1  0  0  0  0
  9 29  1  0  0  0  0
  9 30  1  0  0  0  0
 10 11  1  0  0  0  0
 10 31  1  0  0  0  0
 11 12  2  0  0  0  0
 13 14  1  0  0  0  0
 13 15  1  0  0  0  0
 13 32  1  0  0  0  0
 14 33  1  0  0  0  0
 14 34  1  0  0  0  0
 14 35  1  0  0  0  0
 15 19  1  0  0  0  0
 15 16  1  0  0  0  0
 16 17  2  0  0  0  0
 16 36  1  0  0  0  0
 17 18  1  0  0  0  0
 17 37  1  0  0  0  0
 18 19  2  0  0  0  0
 18 38  1  0  0  0  0
M  CHG  1   3   1
M  END
> <s_m_source_file>
AV-unprocessed.smi

> <i_m_source_file_index>
3330

> <i_lp_mmshare_version>
43012

> <i_f3d_flags>
0

> <s_epik_input>
bjFbY0hdW2NIXVtjSF1uMVtDQEBIXShbQ0gzXSlbQ0BIXShbQ0gzXSlbTkhdW0NIMl1bQ0gyXU4yQyg9TylbQ0gyXVtOSF1DMj1P

> <s_epik_cmdline>
J2VwaWtfcHl0aG9uJywgJy1waCcsICc3LjAnLCAnLXRuJywgJzgnLCAnLW1hJywgJzIwMCcsICctbWV0YWxfYmluZGluZycsICctaW1hZScsICc8aW5maWxlLm1hZT4nLCAnLW9tYWUnLCAnPG91dGZpbGUubWFlPic=

> <r_lp_tautomer_probability>
1

> <r_epik_Ionization_Penalty>
0.0124905

> <r_epik_Ionization_Penalty_Charging>
0.0123685

> <r_epik_Ionization_Penalty_Neutral>
0.000122059

> <r_epik_State_Penalty>
0.00957041

> <r_epik_Charging_Adjusted_Penalty>
0.0219389

> <i_epik_Tot_Q>
1

> <i_epik_Tot_abs_Q>
1

> <r_epik_Metal_State_Penalty>
0.0858301

> <b_epik_Metal_Only>
0

> <s_lp_Force_Field>
OPLS_2005

> <r_lp_Energy>
25.1369

> <b_lp_Chiralities_Consistent>
1

> <s_lp_Variant>
AV-unprocessed.smi:3330-4

> <Gold.Version>
5.8.1

> <Gold.Id.Protein>
6NUR|6NUR_protein|mol2

> <Gold.PLP.Fitness>
43.2731

> <Gold.PLP.PLP>
-33.5683

> <Gold.PLP.part.hbond>
-3.6876

> <Gold.PLP.part.metal>
0.0000

> <Gold.PLP.part.buried>
-5.5605

> <Gold.PLP.part.nonpolar>
-24.8178

> <Gold.PLP.part.repulsive>
0.2384

> <Gold.PLP.ligand.clash>
0.0000

> <Gold.PLP.ligand.torsion>
0.9627

> <Gold.PLP.Chemscore.Hbond>
3.8249

> <Gold.PLP.Chemscore.CHOScore>
0.0000

> <Gold.PLP.Chemscore.Metal>
0.0000

> <Gold.Chemscore.Hbonds>
donor molecule, donor type, donor heavy atom, donor atom, acceptor molecule, acceptor atom, score
      L1  H     3    39       P1  8028  2.00
      P1  H  6933  6944       L1    12  0.82
      P1  H  6934  6946       L1    12  0.96

> <Gold.PLP.Chemscore.Internal.Correction>
0.1555

> <Gold.Rescore>
     Score         DG    S(hbond)    S(metal)    S(lipo)     H(rot)  DE(clash)    DE(int)     intcor
     11.50     -15.16       2.54        0.00      68.67       2.67       0.13       3.53       ----

> <Gold.Chemscore.Fitness>
11.5030

> <Gold.Chemscore.DG>
-15.1577

> <Gold.Chemscore.ZeroCoef>
-5.4800

> <Gold.Chemscore.Hbond>
2.5357

> <Gold.Chemscore.Metal>
0.0000

> <Gold.Chemscore.Lipo>
68.6750

> <Gold.Chemscore.Internal_Hbond>
0.0000

> <Gold.Chemscore.DEClash>
0.1277

> <Gold.Chemscore.DEInternal>
3.5270

> <Gold.Chemscore.Rot>
2.6666

> <Gold.Chemscore.Internal.Correction>
   9.000000E+99

> <Gold.Chemscore.Hbonds>
donor molecule, donor type, donor heavy atom, donor atom, acceptor molecule, acceptor atom, score
      L1  H     3    39       P1  8028  0.97
      P1  H  6933  6944       L1    12  0.78
      P1  H  6934  6946       L1    12  0.62

> <Gold.Chemscore.Hbond.Weighted>
-8.4693

> <Gold.Chemscore.Metal.Weighted>
-0.0000

> <Gold.Chemscore.Lipo.Weighted>
-8.0350

> <Gold.Chemscore.Internal_Hbond.Weighted>
0.0000

> <Gold.Chemscore.DEClash.Weighted>
0.1277

> <Gold.Chemscore.DEInternal.Weighted>
3.5270

> <Gold.Chemscore.Rot.Weighted>
6.8265

> <Gold.Chemscore.Internal.Correction.Weighted>
   9.000000E+99

> <Gold.Protein.RotatedTorsions>
[ 6907 6896 6895 6894 ] final  129.05 input  -60.11 | X-H torsion
[ 7974 7965 7964 7962 ] final  100.80 input  175.53 | X-H torsion
[ 8008 7997 7996 7995 ] final  -17.49 input   59.86 | X-H torsion
[ 10167 10162 10161 10158 ] final    0.79 input  -65.29 | X-H torsion
[ 10718 10713 10712 10709 ] final  -72.96 input   66.30 | X-H torsion
[ 10763 10752 10751 10750 ] final  -80.98 input  -60.55 | X-H torsion
[ 11005 11000 10999 10996 ] final  121.96 input  -57.11 | X-H torsion

> <Gold.Protein.ActiveResidues>
 VAL166  LYS551  ARG553  GLY616  TRP617  ASP618  TYR619  PRO620  LYS621  CYS622 
 ASP623  PHE694  ASN695  SER759  ASP760  ASP761  ALA762  ILE779  LEU786  VAL792 
 PHE793  MET794  SER795  GLU796  ALA797  LYS798  CYS799  TRP800  GLU811  SER814 

> <Gold.Protein.RotatedAtoms>
  152.3661  133.6358  159.6051 H   0  0  0  0  0  0  0  0  0  0  0  0  # atno 6907 bound_to 6896
  150.7635  133.9346  159.3446 H   0  0  0  0  0  0  0  0  0  0  0  0  # atno 6908 bound_to 6896
  151.7176  135.0901  160.0330 H   0  0  0  0  0  0  0  0  0  0  0  0  # atno 6909 bound_to 6896
  145.3808  139.2380  143.3405 H   0  0  0  0  0  0  0  0  0  0  0  0  # atno 7974 bound_to 7965
  154.4974  140.2141  155.9418 H   0  0  0  0  0  0  0  0  0  0  0  0  # atno 8008 bound_to 7997
  156.1389  140.3183  155.8431 H   0  0  0  0  0  0  0  0  0  0  0  0  # atno 8009 bound_to 7997
  155.4158  140.0493  157.3019 H   0  0  0  0  0  0  0  0  0  0  0  0  # atno 8010 bound_to 7997
  140.6713  143.7041  150.7928 H   0  0  0  0  0  0  0  0  0  0  0  0  # atno 10167 bound_to 10162
  156.0299  130.4383  150.2670 H   0  0  0  0  0  0  0  0  0  0  0  0  # atno 10718 bound_to 10713
  154.5580  135.5642  153.6981 H   0  0  0  0  0  0  0  0  0  0  0  0  # atno 10763 bound_to 10752
  153.0009  135.6267  154.2284 H   0  0  0  0  0  0  0  0  0  0  0  0  # atno 10764 bound_to 10752
  154.2221  135.2869  155.2901 H   0  0  0  0  0  0  0  0  0  0  0  0  # atno 10765 bound_to 10752
  139.9248  134.9640  156.8037 H   0  0  0  0  0  0  0  0  0  0  0  0  # atno 11005 bound_to 11000
  146.2843  140.4475  142.8764 LP  0  0  0  0  0  0  0  0  0  0  0  0  # atno 17320 bound_to 7965
  144.8509  140.7000  143.6169 LP  0  0  0  0  0  0  0  0  0  0  0  0  # atno 17321 bound_to 7965
  140.0727  143.5045  152.2571 LP  0  0  0  0  0  0  0  0  0  0  0  0  # atno 17342 bound_to 10162
  139.5982  144.7574  151.3234 LP  0  0  0  0  0  0  0  0  0  0  0  0  # atno 17343 bound_to 10162
  157.0773  131.0133  151.3169 LP  0  0  0  0  0  0  0  0  0  0  0  0  # atno 17370 bound_to 10713
  157.4954  130.7847  149.7550 LP  0  0  0  0  0  0  0  0  0  0  0  0  # atno 17371 bound_to 10713
  140.6369  133.9854  155.7688 LP  0  0  0  0  0  0  0  0  0  0  0  0  # atno 17394 bound_to 11000
  141.0797  134.0081  157.3405 LP  0  0  0  0  0  0  0  0  0  0  0  0  # atno 17395 bound_to 11000

$$$$
