AV-unprocessed.smi:726|AV-procd|sdf|3514|dock3
  -GOLD-   22720 0513D 1   1.00000     0.00000
 Structure written by MMmdl.
 24 24  0  0  0  0  0  0  0  0  2 V2000
  151.7502  140.0919  157.9405 C   0  0  0  0  0  0  0  0  0  0  0  0
  151.2001  139.6819  156.5805 C   0  0  0  0  0  0  0  0  0  0  0  0
  150.5550  140.6056  155.8308 C   0  0  0  0  0  0  0  0  0  0  0  0
  150.0803  140.2811  154.4760 C   0  0  0  0  0  0  0  0  0  0  0  0
  149.4271  141.0764  153.8030 O   0  0  0  0  0  0  0  0  0  0  0  0
  150.4548  138.9540  153.9720 C   0  0  0  0  0  0  0  0  0  0  0  0
  151.0951  138.0986  154.7921 C   0  0  0  0  0  0  0  0  0  0  0  0
  151.5048  136.9006  154.3512 O   0  0  0  0  0  0  0  0  0  0  0  0
  151.4251  138.3556  156.1419 N   0  0  0  0  0  0  0  0  0  0  0  0
  151.8220  137.2924  157.0953 C   0  0  2  0  0  0  0  0  0  0  0  0
  150.9089  137.2382  158.3380 C   0  0  0  0  0  0  0  0  0  0  0  0
  153.3314  137.2768  157.4075 C   0  0  0  0  0  0  0  0  0  0  0  0
  153.8832  138.3551  157.7216 O   0  0  0  0  0  0  0  0  0  0  0  0
  153.9089  136.1702  157.3280 O   0  5  0  0  0  0  0  0  0  0  0  0
  151.8672  141.1743  158.0013 H   0  0  0  0  0  0  0  0  0  0  0  0
  152.7336  139.6594  158.1267 H   0  0  0  0  0  0  0  0  0  0  0  0
  151.0691  139.7859  158.7350 H   0  0  0  0  0  0  0  0  0  0  0  0
  150.4031  141.6117  156.1939 H   0  0  0  0  0  0  0  0  0  0  0  0
  150.2317  138.7012  152.9456 H   0  0  0  0  0  0  0  0  0  0  0  0
  151.7014  136.3220  156.6209 H   0  0  0  0  0  0  0  0  0  0  0  0
  151.1651  136.3917  158.9758 H   0  0  0  0  0  0  0  0  0  0  0  0
  149.8658  137.1188  158.0454 H   0  0  0  0  0  0  0  0  0  0  0  0
  150.9782  138.1385  158.9475 H   0  0  0  0  0  0  0  0  0  0  0  0
  150.9526  136.6601  153.6237 H   0  0  0  0  0  0  0  0  0  0  0  0
  1  2  1  0  0  0  0
  1 15  1  0  0  0  0
  1 16  1  0  0  0  0
  1 17  1  0  0  0  0
  2  9  1  0  0  0  0
  2  3  2  0  0  0  0
  3  4  1  0  0  0  0
  3 18  1  0  0  0  0
  4  5  2  0  0  0  0
  4  6  1  0  0  0  0
  6  7  2  0  0  0  0
  6 19  1  0  0  0  0
  7  8  1  0  0  0  0
  7  9  1  0  0  0  0
  8 24  1  0  0  0  0
  9 10  1  0  0  0  0
 10 11  1  0  0  0  0
 10 12  1  0  0  0  0
 10 20  1  0  0  0  0
 11 21  1  0  0  0  0
 11 22  1  0  0  0  0
 11 23  1  0  0  0  0
 12 13  2  0  0  0  0
 12 14  1  0  0  0  0
M  CHG  1  14  -1
M  END
> <s_m_source_file>
AV-unprocessed.smi

> <i_m_source_file_index>
726

> <i_lp_mmshare_version>
43012

> <i_f3d_flags>
0

> <s_epik_input>
W0NIM11jMVtjSF1jKFtPSF0pW2NIXWMoPU8pbjFbQ0BIXShbQ0gzXSlDKD1PKVtPSF0=

> <s_epik_cmdline>
J2VwaWtfcHl0aG9uJywgJy1waCcsICc3LjAnLCAnLXRuJywgJzgnLCAnLW1hJywgJzIwMCcsICctbWV0YWxfYmluZGluZycsICctaW1hZScsICc8aW5maWxlLm1hZT4nLCAnLW9tYWUnLCAnPG91dGZpbGUubWFlPic=

> <r_epik_Ionization_Penalty>
0.000857085

> <r_epik_Ionization_Penalty_Charging>
0.000857085

> <r_epik_Ionization_Penalty_Neutral>
0

> <r_epik_State_Penalty>
1.45659

> <r_epik_Charging_Adjusted_Penalty>
1.45745

> <i_epik_Tot_Q>
-1

> <i_epik_Tot_abs_Q>
1

> <r_epik_Metal_State_Penalty>
1.45659

> <b_epik_Metal_Only>
0

> <s_lp_Force_Field>
OPLS_2005

> <r_lp_Energy>
4.32013

> <b_lp_Chiralities_Consistent>
1

> <s_lp_Variant>
AV-unprocessed.smi:726-5

> <Gold.Version>
5.8.1

> <Gold.Id.Protein>
6NUR|6NUR_protein|mol2

> <Gold.PLP.Fitness>
38.0121

> <Gold.PLP.PLP>
-20.1212

> <Gold.PLP.part.hbond>
-6.0000

> <Gold.PLP.part.metal>
0.0000

> <Gold.PLP.part.buried>
0.9677

> <Gold.PLP.part.nonpolar>
-15.3798

> <Gold.PLP.part.repulsive>
1.8374

> <Gold.PLP.ligand.clash>
0.0000

> <Gold.PLP.ligand.torsion>
0.7317

> <Gold.PLP.Chemscore.Hbond>
6.3419

> <Gold.PLP.Chemscore.CHOScore>
0.0000

> <Gold.PLP.Chemscore.Metal>
0.0000

> <Gold.Chemscore.Hbonds>
donor molecule, donor type, donor heavy atom, donor atom, acceptor molecule, acceptor atom, score
      L1  H     8    24       P1  7949  0.35
      P1  H  7997  8009       L1    13  1.95
      P1  H  8011  8017       L1     5  0.93
      P1  H 10752 10763       L1     8  1.00
      P1  H 10752 10764       L1    14  1.53

> <Gold.PLP.Chemscore.Internal.Correction>
0.3286

> <Gold.Rescore>
     Score         DG    S(hbond)    S(metal)    S(lipo)     H(rot)  DE(clash)    DE(int)     intcor
     12.90     -16.19       3.68        0.00      32.65       2.11       0.97       2.32       ----

> <Gold.Chemscore.Fitness>
12.8964

> <Gold.Chemscore.DG>
-16.1856

> <Gold.Chemscore.ZeroCoef>
-5.4800

> <Gold.Chemscore.Hbond>
3.6807

> <Gold.Chemscore.Metal>
0.0000

> <Gold.Chemscore.Lipo>
32.6480

> <Gold.Chemscore.Internal_Hbond>
0.0000

> <Gold.Chemscore.DEClash>
0.9711

> <Gold.Chemscore.DEInternal>
2.3181

> <Gold.Chemscore.Rot>
2.1124

> <Gold.Chemscore.Internal.Correction>
   9.000000E+99

> <Gold.Chemscore.Hbonds>
donor molecule, donor type, donor heavy atom, donor atom, acceptor molecule, acceptor atom, score
      L1  H     8    24       P1  7949  0.08
      P1  H  7997  8009       L1    13  0.93
      P1  H  8011  8017       L1     5  0.86
      P1  H 10752 10763       L1     8  0.30
      P1  H 10752 10764       L1    14  0.70

> <Gold.Chemscore.Hbond.Weighted>
-12.2936

> <Gold.Chemscore.Metal.Weighted>
-0.0000

> <Gold.Chemscore.Lipo.Weighted>
-3.8198

> <Gold.Chemscore.Internal_Hbond.Weighted>
0.0000

> <Gold.Chemscore.DEClash.Weighted>
0.9711

> <Gold.Chemscore.DEInternal.Weighted>
2.3181

> <Gold.Chemscore.Rot.Weighted>
5.4078

> <Gold.Chemscore.Internal.Correction.Weighted>
   9.000000E+99

> <Gold.Protein.RotatedTorsions>
[ 6907 6896 6895 6894 ] final -108.18 input  -60.11 | X-H torsion
[ 7974 7965 7964 7962 ] final  123.48 input  175.53 | X-H torsion
[ 8008 7997 7996 7995 ] final  144.49 input   59.86 | X-H torsion
[ 10167 10162 10161 10158 ] final   88.87 input  -65.29 | X-H torsion
[ 10718 10713 10712 10709 ] final   48.03 input   66.30 | X-H torsion
[ 10763 10752 10751 10750 ] final   31.58 input  -60.55 | X-H torsion
[ 11005 11000 10999 10996 ] final  -11.94 input  -57.11 | X-H torsion

> <Gold.Protein.ActiveResidues>
 VAL166  LYS551  ARG553  GLY616  TRP617  ASP618  TYR619  PRO620  LYS621  CYS622 
 ASP623  PHE694  ASN695  SER759  ASP760  ASP761  ALA762  ILE779  LEU786  VAL792 
 PHE793  MET794  SER795  GLU796  ALA797  LYS798  CYS799  TRP800  GLU811  SER814 

> <Gold.Protein.RotatedAtoms>
  150.7487  133.9716  159.3547 H   0  0  0  0  0  0  0  0  0  0  0  0  # atno 6907 bound_to 6896
  151.7650  135.0799  160.0360 H   0  0  0  0  0  0  0  0  0  0  0  0  # atno 6908 bound_to 6896
  152.3378  133.5994  159.5891 H   0  0  0  0  0  0  0  0  0  0  0  0  # atno 6909 bound_to 6896
  145.0954  139.3557  143.4839 H   0  0  0  0  0  0  0  0  0  0  0  0  # atno 7974 bound_to 7965
  156.2907  140.2234  156.5062 H   0  0  0  0  0  0  0  0  0  0  0  0  # atno 8008 bound_to 7997
  154.7648  140.0471  157.1024 H   0  0  0  0  0  0  0  0  0  0  0  0  # atno 8009 bound_to 7997
  154.9947  140.3094  155.4895 H   0  0  0  0  0  0  0  0  0  0  0  0  # atno 8010 bound_to 7997
  139.8630  144.6534  150.9037 H   0  0  0  0  0  0  0  0  0  0  0  0  # atno 10167 bound_to 10162
  157.4645  130.8217  149.7922 H   0  0  0  0  0  0  0  0  0  0  0  0  # atno 10718 bound_to 10713
  153.0308  135.6435  154.1222 H   0  0  0  0  0  0  0  0  0  0  0  0  # atno 10763 bound_to 10752
  154.0944  135.2864  155.3266 H   0  0  0  0  0  0  0  0  0  0  0  0  # atno 10764 bound_to 10752
  154.6442  135.5449  153.7888 H   0  0  0  0  0  0  0  0  0  0  0  0  # atno 10765 bound_to 10752
  140.7605  133.8519  155.9120 H   0  0  0  0  0  0  0  0  0  0  0  0  # atno 11005 bound_to 11000
  146.3531  140.0807  142.8618 LP  0  0  0  0  0  0  0  0  0  0  0  0  # atno 17320 bound_to 7965
  145.1017  140.9350  143.4708 LP  0  0  0  0  0  0  0  0  0  0  0  0  # atno 17321 bound_to 7965
  140.7772  143.3728  151.1618 LP  0  0  0  0  0  0  0  0  0  0  0  0  # atno 17342 bound_to 10162
  139.7356  143.9004  152.3034 LP  0  0  0  0  0  0  0  0  0  0  0  0  # atno 17343 bound_to 10162
  156.0044  130.3863  150.2485 LP  0  0  0  0  0  0  0  0  0  0  0  0  # atno 17370 bound_to 10713
  157.0665  131.0104  151.3205 LP  0  0  0  0  0  0  0  0  0  0  0  0  # atno 17371 bound_to 10713
  140.9668  134.1584  157.4610 LP  0  0  0  0  0  0  0  0  0  0  0  0  # atno 17394 bound_to 11000
  139.8771  134.9964  156.5794 LP  0  0  0  0  0  0  0  0  0  0  0  0  # atno 17395 bound_to 11000

$$$$
