AV-unprocessed.smi:1033|AV-procd|sdf|4492|dock1
  -GOLD-   22720 2473D 1   1.00000     0.00000
 Structure written by MMmdl.
 56 58  0  0  0  0  0  0  0  0  2 V2000
  153.0359  142.7242  161.6233 C   0  0  0  0  0  0  0  0  0  0  0  0
  152.4133  142.4429  160.2672 C   0  0  0  0  0  0  0  0  0  0  0  0
  152.8188  141.2951  159.5496 C   0  0  0  0  0  0  0  0  0  0  0  0
  152.2690  141.0013  158.2828 C   0  0  0  0  0  0  0  0  0  0  0  0
  152.5202  139.9526  157.4148 N   0  0  0  0  0  0  0  0  0  0  0  0
  151.7082  140.2413  156.4024 C   0  0  0  0  0  0  0  0  0  0  0  0
  150.9611  141.3568  156.5100 N   0  0  0  0  0  0  0  0  0  0  0  0
  150.0237  141.8761  155.5296 C   0  0  0  0  0  0  0  0  0  0  0  0
  149.2842  140.7523  154.7782 C   0  0  2  0  0  0  0  0  0  0  0  0
  150.1432  140.1985  153.7998 O   0  0  0  0  0  0  0  0  0  0  0  0
  148.0107  141.2662  154.0778 C   0  0  0  0  0  0  0  0  0  0  0  0
  147.2266  142.1970  154.9290 N   0  3  0  0  0  0  0  0  0  0  0  0
  146.9988  141.6652  156.2972 C   0  0  0  0  0  0  0  0  0  0  0  0
  146.2585  142.7066  157.1624 C   0  0  0  0  0  0  0  0  0  0  0  0
  144.9865  143.1407  156.5845 N   0  0  0  0  0  0  0  0  0  0  0  0
  143.9443  142.1071  156.6631 C   0  0  0  0  0  0  0  0  0  0  0  0
  143.5841  141.5901  158.0742 C   0  0  1  0  0  0  0  0  0  0  0  0
  143.1336  142.6788  159.0608 C   0  0  0  0  0  0  0  0  0  0  0  0
  142.6192  140.5606  157.9980 O   0  0  0  0  0  0  0  0  0  0  0  0
  145.2434  143.6562  155.2375 C   0  0  0  0  0  0  0  0  0  0  0  0
  145.9440  142.6370  154.3181 C   0  0  0  0  0  0  0  0  0  0  0  0
  151.2944  141.8945  157.7490 C   0  0  0  0  0  0  0  0  0  0  0  0
  150.8791  143.0370  158.4556 C   0  0  0  0  0  0  0  0  0  0  0  0
  151.4391  143.3159  159.7198 C   0  0  0  0  0  0  0  0  0  0  0  0
  150.9873  144.5547  160.4731 C   0  0  0  0  0  0  0  0  0  0  0  0
  153.7650  141.9597  161.8935 H   0  0  0  0  0  0  0  0  0  0  0  0
  152.2701  142.7451  162.3989 H   0  0  0  0  0  0  0  0  0  0  0  0
  153.5486  143.6864  161.6155 H   0  0  0  0  0  0  0  0  0  0  0  0
  153.5612  140.6301  159.9662 H   0  0  0  0  0  0  0  0  0  0  0  0
  151.6576  139.6084  155.5285 H   0  0  0  0  0  0  0  0  0  0  0  0
  149.3078  142.5148  156.0490 H   0  0  0  0  0  0  0  0  0  0  0  0
  150.5646  142.5182  154.8327 H   0  0  0  0  0  0  0  0  0  0  0  0
  149.0342  139.9702  155.4942 H   0  0  0  0  0  0  0  0  0  0  0  0
  149.7063  140.2339  152.9615 H   0  0  0  0  0  0  0  0  0  0  0  0
  148.2614  141.7610  153.1384 H   0  0  0  0  0  0  0  0  0  0  0  0
  147.3917  140.4067  153.8141 H   0  0  0  0  0  0  0  0  0  0  0  0
  146.4398  140.7300  156.2461 H   0  0  0  0  0  0  0  0  0  0  0  0
  147.9577  141.4326  156.7618 H   0  0  0  0  0  0  0  0  0  0  0  0
  146.0947  142.3079  158.1643 H   0  0  0  0  0  0  0  0  0  0  0  0
  146.9029  143.5771  157.2933 H   0  0  0  0  0  0  0  0  0  0  0  0
  143.0386  142.4238  156.1463 H   0  0  0  0  0  0  0  0  0  0  0  0
  144.3010  141.2409  156.1039 H   0  0  0  0  0  0  0  0  0  0  0  0
  144.4781  141.1207  158.4863 H   0  0  0  0  0  0  0  0  0  0  0  0
  143.8803  143.4696  159.1366 H   0  0  0  0  0  0  0  0  0  0  0  0
  142.9892  142.2649  160.0593 H   0  0  0  0  0  0  0  0  0  0  0  0
  142.1923  143.1376  158.7575 H   0  0  0  0  0  0  0  0  0  0  0  0
  143.0092  139.8137  157.5704 H   0  0  0  0  0  0  0  0  0  0  0  0
  144.3203  144.0042  154.7767 H   0  0  0  0  0  0  0  0  0  0  0  0
  145.8735  144.5432  155.3156 H   0  0  0  0  0  0  0  0  0  0  0  0
  146.1254  143.1071  153.3526 H   0  0  0  0  0  0  0  0  0  0  0  0
  145.3018  141.7758  154.1304 H   0  0  0  0  0  0  0  0  0  0  0  0
  150.1390  143.6958  158.0256 H   0  0  0  0  0  0  0  0  0  0  0  0
  150.2401  145.1134  159.9087 H   0  0  0  0  0  0  0  0  0  0  0  0
  151.8316  145.2192  160.6585 H   0  0  0  0  0  0  0  0  0  0  0  0
  150.5456  144.2794  161.4311 H   0  0  0  0  0  0  0  0  0  0  0  0
  147.7972  143.0231  155.0421 H   0  0  0  0  0  0  0  0  0  0  0  0
  1  2  1  0  0  0  0
  1 26  1  0  0  0  0
  1 27  1  0  0  0  0
  1 28  1  0  0  0  0
  2 24  1  0  0  0  0
  2  3  2  0  0  0  0
  3  4  1  0  0  0  0
  3 29  1  0  0  0  0
  4 22  2  0  0  0  0
  4  5  1  0  0  0  0
  5  6  2  0  0  0  0
  6  7  1  0  0  0  0
  6 30  1  0  0  0  0
  7  8  1  0  0  0  0
  7 22  1  0  0  0  0
  8  9  1  0  0  0  0
  8 31  1  0  0  0  0
  8 32  1  0  0  0  0
  9 10  1  0  0  0  0
  9 11  1  0  0  0  0
  9 33  1  0  0  0  0
 10 34  1  0  0  0  0
 11 12  1  0  0  0  0
 11 35  1  0  0  0  0
 11 36  1  0  0  0  0
 12 21  1  0  0  0  0
 12 13  1  0  0  0  0
 12 56  1  0  0  0  0
 13 14  1  0  0  0  0
 13 37  1  0  0  0  0
 13 38  1  0  0  0  0
 14 15  1  0  0  0  0
 14 39  1  0  0  0  0
 14 40  1  0  0  0  0
 15 16  1  0  0  0  0
 15 20  1  0  0  0  0
 16 17  1  0  0  0  0
 16 41  1  0  0  0  0
 16 42  1  0  0  0  0
 17 18  1  0  0  0  0
 17 19  1  0  0  0  0
 17 43  1  0  0  0  0
 18 44  1  0  0  0  0
 18 45  1  0  0  0  0
 18 46  1  0  0  0  0
 19 47  1  0  0  0  0
 20 21  1  0  0  0  0
 20 48  1  0  0  0  0
 20 49  1  0  0  0  0
 21 50  1  0  0  0  0
 21 51  1  0  0  0  0
 22 23  1  0  0  0  0
 23 24  2  0  0  0  0
 23 52  1  0  0  0  0
 24 25  1  0  0  0  0
 25 53  1  0  0  0  0
 25 54  1  0  0  0  0
 25 55  1  0  0  0  0
M  CHG  1  12   1
M  END
> <s_m_source_file>
AV-unprocessed.smi

> <i_m_source_file_index>
1033

> <i_lp_mmshare_version>
43012

> <i_f3d_flags>
0

> <s_epik_input>
W0NIM11jKFtjSF0xKWMoW0NIM10pW2NIXWMoYzEyKW4oW2NIXW4yKVtDSDJdW0NASF0oW09IXSlbQ0gyXU4zW0NIMl1bQ0gyXU4oW0NIMl1bQ0gyXTMpW0NIMl1bQ0BIXShbQ0gzXSlbT0hd

> <s_epik_cmdline>
J2VwaWtfcHl0aG9uJywgJy1waCcsICc3LjAnLCAnLXRuJywgJzgnLCAnLW1hJywgJzIwMCcsICctbWV0YWxfYmluZGluZycsICctaW1hZScsICc8aW5maWxlLm1hZT4nLCAnLW9tYWUnLCAnPG91dGZpbGUubWFlPic=

> <r_epik_Ionization_Penalty>
0.131893

> <r_epik_Ionization_Penalty_Charging>
0.00208556

> <r_epik_Ionization_Penalty_Neutral>
0.129808

> <r_epik_State_Penalty>
0.452125

> <r_epik_Charging_Adjusted_Penalty>
0.454211

> <i_epik_Tot_Q>
1

> <i_epik_Tot_abs_Q>
1

> <r_epik_Metal_State_Penalty>
0.376389

> <b_epik_Metal_Only>
0

> <s_lp_Force_Field>
OPLS_2005

> <r_lp_Energy>
36.4064

> <b_lp_Chiralities_Consistent>
1

> <s_lp_Variant>
AV-unprocessed.smi:1033-3

> <Gold.Version>
5.8.1

> <Gold.Id.Protein>
6NUR|6NUR_protein|mol2

> <Gold.PLP.Fitness>
59.4949

> <Gold.PLP.PLP>
-46.1028

> <Gold.PLP.part.hbond>
-4.0000

> <Gold.PLP.part.metal>
0.0000

> <Gold.PLP.part.buried>
-6.3651

> <Gold.PLP.part.nonpolar>
-35.1274

> <Gold.PLP.part.repulsive>
0.2070

> <Gold.PLP.ligand.clash>
0.0000

> <Gold.PLP.ligand.torsion>
0.6727

> <Gold.PLP.Chemscore.Hbond>
4.8000

> <Gold.PLP.Chemscore.CHOScore>
0.0000

> <Gold.PLP.Chemscore.Metal>
0.0000

> <Gold.Chemscore.Hbonds>
donor molecule, donor type, donor heavy atom, donor atom, acceptor molecule, acceptor atom, score
      L1  H    10    34       P1  7957  1.00
      L1  H    12    56       P1  8028  1.79
      P1  H  7989  7998       L1    10  0.80
      P1  H  7997  8008       L1     5  1.00

> <Gold.PLP.Chemscore.Internal.Correction>
0.3375

> <Gold.Rescore>
     Score         DG    S(hbond)    S(metal)    S(lipo)     H(rot)  DE(clash)    DE(int)     intcor
     18.27     -20.14       2.65        0.00     116.76       3.07       0.27       1.60       ----

> <Gold.Chemscore.Fitness>
18.2749

> <Gold.Chemscore.DG>
-20.1437

> <Gold.Chemscore.ZeroCoef>
-5.4800

> <Gold.Chemscore.Hbond>
2.6495

> <Gold.Chemscore.Metal>
0.0000

> <Gold.Chemscore.Lipo>
116.7604

> <Gold.Chemscore.Internal_Hbond>
0.0000

> <Gold.Chemscore.DEClash>
0.2676

> <Gold.Chemscore.DEInternal>
1.6012

> <Gold.Chemscore.Rot>
3.0650

> <Gold.Chemscore.Internal.Correction>
   9.000000E+99

> <Gold.Chemscore.Hbonds>
donor molecule, donor type, donor heavy atom, donor atom, acceptor molecule, acceptor atom, score
      L1  H    10    34       P1  7957  0.98
      L1  H    12    56       P1  8028  0.64
      P1  H  7989  7998       L1    10  0.27
      P1  H  7997  8008       L1     5  0.42

> <Gold.Chemscore.Hbond.Weighted>
-8.8492

> <Gold.Chemscore.Metal.Weighted>
-0.0000

> <Gold.Chemscore.Lipo.Weighted>
-13.6610

> <Gold.Chemscore.Internal_Hbond.Weighted>
0.0000

> <Gold.Chemscore.DEClash.Weighted>
0.2676

> <Gold.Chemscore.DEInternal.Weighted>
1.6012

> <Gold.Chemscore.Rot.Weighted>
7.8465

> <Gold.Chemscore.Internal.Correction.Weighted>
   9.000000E+99

> <Gold.Protein.RotatedTorsions>
[ 6907 6896 6895 6894 ] final  155.49 input  -60.11 | X-H torsion
[ 7974 7965 7964 7962 ] final   36.84 input  175.53 | X-H torsion
[ 8008 7997 7996 7995 ] final  -64.66 input   59.86 | X-H torsion
[ 10167 10162 10161 10158 ] final -116.60 input  -65.29 | X-H torsion
[ 10718 10713 10712 10709 ] final -135.02 input   66.30 | X-H torsion
[ 10763 10752 10751 10750 ] final   62.09 input  -60.55 | X-H torsion
[ 11005 11000 10999 10996 ] final   17.20 input  -57.11 | X-H torsion

> <Gold.Protein.ActiveResidues>
 VAL166  LYS551  ARG553  GLY616  TRP617  ASP618  TYR619  PRO620  LYS621  CYS622 
 ASP623  PHE694  ASN695  SER759  ASP760  ASP761  ALA762  ILE779  LEU786  VAL792 
 PHE793  MET794  SER795  GLU796  ALA797  LYS798  CYS799  TRP800  GLU811  SER814 

> <Gold.Protein.RotatedAtoms>
  152.0433  133.3987  159.4345 H   0  0  0  0  0  0  0  0  0  0  0  0  # atno 6907 bound_to 6896
  150.6874  134.3390  159.4869 H   0  0  0  0  0  0  0  0  0  0  0  0  # atno 6908 bound_to 6896
  152.1191  134.9218  160.0614 H   0  0  0  0  0  0  0  0  0  0  0  0  # atno 6909 bound_to 6896
  146.1182  139.5968  142.9307 H   0  0  0  0  0  0  0  0  0  0  0  0  # atno 7974 bound_to 7965
  154.4625  140.0949  156.6932 H   0  0  0  0  0  0  0  0  0  0  0  0  # atno 8008 bound_to 7997
  155.4953  140.3472  155.4343 H   0  0  0  0  0  0  0  0  0  0  0  0  # atno 8009 bound_to 7997
  156.0896  140.1394  156.9597 H   0  0  0  0  0  0  0  0  0  0  0  0  # atno 8010 bound_to 7997
  140.0774  143.4819  152.1945 H   0  0  0  0  0  0  0  0  0  0  0  0  # atno 10167 bound_to 10162
  156.2616  130.7213  151.1149 H   0  0  0  0  0  0  0  0  0  0  0  0  # atno 10718 bound_to 10713
  152.9971  135.5477  154.6138 H   0  0  0  0  0  0  0  0  0  0  0  0  # atno 10763 bound_to 10752
  154.5453  135.2822  155.1061 H   0  0  0  0  0  0  0  0  0  0  0  0  # atno 10764 bound_to 10752
  154.2322  135.6431  153.5231 H   0  0  0  0  0  0  0  0  0  0  0  0  # atno 10765 bound_to 10752
  140.4386  134.1345  155.7688 H   0  0  0  0  0  0  0  0  0  0  0  0  # atno 11005 bound_to 11000
  145.5522  141.0412  143.2272 LP  0  0  0  0  0  0  0  0  0  0  0  0  # atno 17320 bound_to 7965
  144.7572  139.7045  143.7249 LP  0  0  0  0  0  0  0  0  0  0  0  0  # atno 17321 bound_to 7965
  139.5799  144.7505  151.3666 LP  0  0  0  0  0  0  0  0  0  0  0  0  # atno 17342 bound_to 10162
  140.7095  143.7428  150.7541 LP  0  0  0  0  0  0  0  0  0  0  0  0  # atno 17343 bound_to 10162
  157.7252  131.0654  150.5961 LP  0  0  0  0  0  0  0  0  0  0  0  0  # atno 17370 bound_to 10713
  156.6049  130.4364  149.5882 LP  0  0  0  0  0  0  0  0  0  0  0  0  # atno 17371 bound_to 10713
  141.1715  133.8599  157.1555 LP  0  0  0  0  0  0  0  0  0  0  0  0  # atno 17394 bound_to 11000
  140.0085  134.9998  157.0344 LP  0  0  0  0  0  0  0  0  0  0  0  0  # atno 17395 bound_to 11000

$$$$
