AV-unprocessed.smi:1803|AV-procd|sdf|7286|dock7
  -GOLD-   22720 8543D 1   1.00000     0.00000
 Structure written by MMmdl.
 36 38  0  0  0  0  0  0  0  0  2 V2000
  147.0582  132.7698  154.3726 O   0  0  0  0  0  0  0  0  0  0  0  0
  147.7700  133.6571  153.9056 C   0  0  0  0  0  0  0  0  0  0  0  0
  149.0184  133.8668  154.3758 N   0  0  0  0  0  0  0  0  0  0  0  0
  149.7693  133.2147  155.3974 C   0  0  0  0  0  0  0  0  0  0  0  0
  150.2639  133.8248  156.4869 N   0  0  0  0  0  0  0  0  0  0  0  0
  150.9624  132.9483  157.3058 N   0  0  0  0  0  0  0  0  0  0  0  0
  150.9756  131.7117  156.8010 C   0  0  0  0  0  0  0  0  0  0  0  0
  150.1361  131.4993  155.2751 S   0  0  0  0  0  0  0  0  0  0  0  0
  147.3606  134.4682  152.9162 N   0  0  0  0  0  0  0  0  0  0  0  0
  146.0604  134.4172  152.2562 C   0  0  1  0  0  0  0  0  0  0  0  0
  145.4638  135.7974  152.0071 C   0  0  0  0  0  0  0  0  0  0  0  0
  144.4335  135.5112  150.9136 C   0  0  0  0  0  0  0  0  0  0  0  0
  145.0082  134.4250  150.0871 N   0  3  2  0  0  0  0  0  0  0  0  0
  144.0117  133.4690  149.5451 C   0  0  0  0  0  0  0  0  0  0  0  0
  144.7006  132.3885  148.6909 C   0  0  0  0  0  0  0  0  0  0  0  0
  145.9018  131.7296  149.4012 C   0  0  0  0  0  0  0  0  0  0  0  0
  146.1099  132.2693  150.8246 C   0  0  0  0  0  0  0  0  0  0  0  0
  146.1386  133.8146  150.8431 C   0  0  2  0  0  0  0  0  0  0  0  0
  149.5016  134.6382  153.9384 H   0  0  0  0  0  0  0  0  0  0  0  0
  151.4847  130.9195  157.3296 H   0  0  0  0  0  0  0  0  0  0  0  0
  148.0080  135.1740  152.5937 H   0  0  0  0  0  0  0  0  0  0  0  0
  145.3492  133.8511  152.8616 H   0  0  0  0  0  0  0  0  0  0  0  0
  145.0207  136.2380  152.9008 H   0  0  0  0  0  0  0  0  0  0  0  0
  146.2261  136.4826  151.6323 H   0  0  0  0  0  0  0  0  0  0  0  0
  143.5045  135.1745  151.3768 H   0  0  0  0  0  0  0  0  0  0  0  0
  144.2057  136.3917  150.3126 H   0  0  0  0  0  0  0  0  0  0  0  0
  143.4626  133.0045  150.3659 H   0  0  0  0  0  0  0  0  0  0  0  0
  143.2793  134.0091  148.9440 H   0  0  0  0  0  0  0  0  0  0  0  0
  143.9710  131.6275  148.4120 H   0  0  0  0  0  0  0  0  0  0  0  0
  145.0415  132.8331  147.7550 H   0  0  0  0  0  0  0  0  0  0  0  0
  145.7735  130.6469  149.4309 H   0  0  0  0  0  0  0  0  0  0  0  0
  146.8048  131.9099  148.8166 H   0  0  0  0  0  0  0  0  0  0  0  0
  145.3101  131.9014  151.4689 H   0  0  0  0  0  0  0  0  0  0  0  0
  147.0363  131.8708  151.2387 H   0  0  0  0  0  0  0  0  0  0  0  0
  147.0497  134.1598  150.3511 H   0  0  0  0  0  0  0  0  0  0  0  0
  145.4336  134.8701  149.2865 H   0  0  0  0  0  0  0  0  0  0  0  0
  1  2  2  0  0  0  0
  2  3  1  0  0  0  0
  2  9  1  0  0  0  0
  3  4  1  0  0  0  0
  3 19  1  0  0  0  0
  4  8  1  0  0  0  0
  4  5  2  0  0  0  0
  5  6  1  0  0  0  0
  6  7  2  0  0  0  0
  7  8  1  0  0  0  0
  7 20  1  0  0  0  0
  9 10  1  0  0  0  0
  9 21  1  0  0  0  0
 10 18  1  0  0  0  0
 10 11  1  0  0  0  0
 10 22  1  0  0  0  0
 11 12  1  0  0  0  0
 11 23  1  0  0  0  0
 11 24  1  0  0  0  0
 12 13  1  0  0  0  0
 12 25  1  0  0  0  0
 12 26  1  0  0  0  0
 13 18  1  0  0  0  0
 13 14  1  0  0  0  0
 13 36  1  0  0  0  0
 14 15  1  0  0  0  0
 14 27  1  0  0  0  0
 14 28  1  0  0  0  0
 15 16  1  0  0  0  0
 15 29  1  0  0  0  0
 15 30  1  0  0  0  0
 16 17  1  0  0  0  0
 16 31  1  0  0  0  0
 16 32  1  0  0  0  0
 17 18  1  0  0  0  0
 17 33  1  0  0  0  0
 17 34  1  0  0  0  0
 18 35  1  0  0  0  0
M  CHG  1  13   1
M  END
> <s_m_source_file>
AV-unprocessed.smi

> <i_m_source_file_index>
1803

> <i_lp_mmshare_version>
43012

> <i_f3d_flags>
0

> <s_epik_input>
czFbY0hdbm5jMVtOSF1DKD1PKVtOSF1bQ0BIXShbQ0gyXVtDSDJdMilbQ0BASF0oTjIzKVtDSDJdW0NIMl1bQ0gyXVtDSDJdMw==

> <s_epik_cmdline>
J2VwaWtfcHl0aG9uJywgJy1waCcsICc3LjAnLCAnLXRuJywgJzgnLCAnLW1hJywgJzIwMCcsICctbWV0YWxfYmluZGluZycsICctaW1hZScsICc8aW5maWxlLm1hZT4nLCAnLW9tYWUnLCAnPG91dGZpbGUubWFlPic=

> <r_lp_tautomer_probability>
1

> <r_epik_Ionization_Penalty>
0.00213286

> <r_epik_Ionization_Penalty_Charging>
0.00107044

> <r_epik_Ionization_Penalty_Neutral>
0.00106242

> <r_epik_State_Penalty>
-0

> <r_epik_Charging_Adjusted_Penalty>
0.00107044

> <i_epik_Tot_Q>
1

> <i_epik_Tot_abs_Q>
1

> <r_epik_Metal_State_Penalty>
0.292783

> <b_epik_Metal_Only>
0

> <s_lp_Force_Field>
OPLS_2005

> <r_lp_Energy>
41.2336

> <b_lp_Chiralities_Consistent>
1

> <s_lp_Variant>
AV-unprocessed.smi:1803-8

> <Gold.Version>
5.8.1

> <Gold.Id.Protein>
6NUR|6NUR_protein|mol2

> <Gold.PLP.Fitness>
36.9274

> <Gold.PLP.PLP>
-29.4889

> <Gold.PLP.part.hbond>
-3.0000

> <Gold.PLP.part.metal>
0.0000

> <Gold.PLP.part.buried>
-0.7492

> <Gold.PLP.part.nonpolar>
-25.9678

> <Gold.PLP.part.repulsive>
0.1058

> <Gold.PLP.ligand.clash>
0.0000

> <Gold.PLP.ligand.torsion>
0.7727

> <Gold.PLP.Chemscore.Hbond>
2.9920

> <Gold.PLP.Chemscore.CHOScore>
0.0000

> <Gold.PLP.Chemscore.Metal>
0.0000

> <Gold.Chemscore.Hbonds>
donor molecule, donor type, donor heavy atom, donor atom, acceptor molecule, acceptor atom, score
      L1  H     9    21       P1  7948  1.00
      L1  H    13    36       P1  7921  1.00
      P1  H  6896  6907       L1     6  0.98

> <Gold.PLP.Chemscore.Internal.Correction>
0.0080

> <Gold.Rescore>
     Score         DG    S(hbond)    S(metal)    S(lipo)     H(rot)  DE(clash)    DE(int)     intcor
     20.60     -21.53       2.89        0.00      76.54       1.00       0.14       0.79       ----

> <Gold.Chemscore.Fitness>
20.6039

> <Gold.Chemscore.DG>
-21.5344

> <Gold.Chemscore.ZeroCoef>
-5.4800

> <Gold.Chemscore.Hbond>
2.8921

> <Gold.Chemscore.Metal>
0.0000

> <Gold.Chemscore.Lipo>
76.5352

> <Gold.Chemscore.Internal_Hbond>
0.0000

> <Gold.Chemscore.DEClash>
0.1397

> <Gold.Chemscore.DEInternal>
0.7907

> <Gold.Chemscore.Rot>
1.0000

> <Gold.Chemscore.Internal.Correction>
   9.000000E+99

> <Gold.Chemscore.Hbonds>
donor molecule, donor type, donor heavy atom, donor atom, acceptor molecule, acceptor atom, score
      L1  H     9    21       P1  7948  0.94
      L1  H    13    36       P1  7921  0.96
      P1  H  6896  6907       L1     6  0.90

> <Gold.Chemscore.Hbond.Weighted>
-9.6597

> <Gold.Chemscore.Metal.Weighted>
-0.0000

> <Gold.Chemscore.Lipo.Weighted>
-8.9546

> <Gold.Chemscore.Internal_Hbond.Weighted>
0.0000

> <Gold.Chemscore.DEClash.Weighted>
0.1397

> <Gold.Chemscore.DEInternal.Weighted>
0.7907

> <Gold.Chemscore.Rot.Weighted>
2.5600

> <Gold.Chemscore.Internal.Correction.Weighted>
   9.000000E+99

> <Gold.Protein.RotatedTorsions>
[ 6907 6896 6895 6894 ] final -158.63 input  -60.11 | X-H torsion
[ 7974 7965 7964 7962 ] final  -29.22 input  175.53 | X-H torsion
[ 8008 7997 7996 7995 ] final   25.93 input   59.86 | X-H torsion
[ 10167 10162 10161 10158 ] final   -6.26 input  -65.29 | X-H torsion
[ 10718 10713 10712 10709 ] final  -63.03 input   66.30 | X-H torsion
[ 10763 10752 10751 10750 ] final  127.37 input  -60.55 | X-H torsion
[ 11005 11000 10999 10996 ] final -153.89 input  -57.11 | X-H torsion

> <Gold.Protein.ActiveResidues>
 VAL166  LYS551  ARG553  GLY616  TRP617  ASP618  TYR619  PRO620  LYS621  CYS622 
 ASP623  PHE694  ASN695  SER759  ASP760  ASP761  ALA762  ILE779  LEU786  VAL792 
 PHE793  MET794  SER795  GLU796  ALA797  LYS798  CYS799  TRP800  GLU811  SER814 

> <Gold.Protein.RotatedAtoms>
  151.3211  133.4039  159.2654 H   0  0  0  0  0  0  0  0  0  0  0  0  # atno 6907 bound_to 6896
  151.0033  134.9340  159.7977 H   0  0  0  0  0  0  0  0  0  0  0  0  # atno 6908 bound_to 6896
  152.5281  134.3176  159.9189 H   0  0  0  0  0  0  0  0  0  0  0  0  # atno 6909 bound_to 6896
  146.1232  140.5384  142.8726 H   0  0  0  0  0  0  0  0  0  0  0  0  # atno 7974 bound_to 7965
  155.0194  140.3146  155.4799 H   0  0  0  0  0  0  0  0  0  0  0  0  # atno 8008 bound_to 7997
  156.2895  140.2200  156.5253 H   0  0  0  0  0  0  0  0  0  0  0  0  # atno 8009 bound_to 7997
  154.7465  140.0469  157.0845 H   0  0  0  0  0  0  0  0  0  0  0  0  # atno 8010 bound_to 7997
  140.6991  143.6214  150.8609 H   0  0  0  0  0  0  0  0  0  0  0  0  # atno 10167 bound_to 10162
  156.0817  130.4216  150.1219 H   0  0  0  0  0  0  0  0  0  0  0  0  # atno 10718 bound_to 10713
  153.7083  135.3272  155.3240 H   0  0  0  0  0  0  0  0  0  0  0  0  # atno 10763 bound_to 10752
  154.8392  135.4471  154.1340 H   0  0  0  0  0  0  0  0  0  0  0  0  # atno 10764 bound_to 10752
  153.2426  135.6972  153.7845 H   0  0  0  0  0  0  0  0  0  0  0  0  # atno 10765 bound_to 10752
  140.7032  134.3914  157.5207 H   0  0  0  0  0  0  0  0  0  0  0  0  # atno 11005 bound_to 11000
  144.7617  140.5437  143.6731 LP  0  0  0  0  0  0  0  0  0  0  0  0  # atno 17320 bound_to 7965
  145.5421  139.1475  143.3441 LP  0  0  0  0  0  0  0  0  0  0  0  0  # atno 17321 bound_to 7965
  139.9935  143.5821  152.2902 LP  0  0  0  0  0  0  0  0  0  0  0  0  # atno 17342 bound_to 10162
  139.6485  144.7659  151.2195 LP  0  0  0  0  0  0  0  0  0  0  0  0  # atno 17343 bound_to 10162
  156.9249  130.9695  151.3542 LP  0  0  0  0  0  0  0  0  0  0  0  0  # atno 17370 bound_to 10713
  157.5936  130.8461  149.8696 LP  0  0  0  0  0  0  0  0  0  0  0  0  # atno 17371 bound_to 10713
  139.8891  134.8839  156.2439 LP  0  0  0  0  0  0  0  0  0  0  0  0  # atno 17394 bound_to 11000
  141.0146  133.7076  156.1167 LP  0  0  0  0  0  0  0  0  0  0  0  0  # atno 17395 bound_to 11000

$$$$
