AV-unprocessed.smi:3228|AV-procd|sdf|12323|dock4
  -GOLD-   2272018173D 1   1.00000     0.00000
 Structure written by MMmdl.
 30 31  0  0  0  0  0  0  0  0  2 V2000
  151.0547  140.8643  155.3066 O   0  0  0  0  0  0  0  0  0  0  0  0
  150.2074  141.7217  155.5670 C   0  0  0  0  0  0  0  0  0  0  0  0
  150.4150  142.5795  156.5746 N   0  0  0  0  0  0  0  0  0  0  0  0
  151.5959  142.6029  157.4293 C   0  0  0  0  0  0  0  0  0  0  0  0
  151.3368  143.4219  158.7062 C   0  0  2  0  0  0  0  0  0  0  0  0
  151.2386  144.9380  158.4675 C   0  0  0  0  0  0  0  0  0  0  0  0
  151.7265  145.6159  159.7579 C   0  0  0  0  0  0  0  0  0  0  0  0
  152.2065  144.4908  160.6821 C   0  0  0  0  0  0  0  0  0  0  0  0
  152.4422  143.2946  159.7592 C   0  0  1  0  0  0  0  0  0  0  0  0
  152.3719  142.0748  160.4685 O   0  0  0  0  0  0  0  0  0  0  0  0
  149.0328  141.9111  154.9235 N   0  5  0  0  0  0  0  0  0  0  0  0
  148.4292  140.8805  154.3093 C   0  0  0  0  0  0  0  0  0  0  0  0
  147.2969  141.0108  153.6080 N   0  0  0  0  0  0  0  0  0  0  0  0
  146.8497  139.8127  153.0482 C   0  0  0  0  0  0  0  0  0  0  0  0
  147.6655  138.7469  153.3215 C   0  0  0  0  0  0  0  0  0  0  0  0
  149.0280  139.2190  154.2966 S   0  0  0  0  0  0  0  0  0  0  0  0
  149.6992  143.2669  156.7584 H   0  0  0  0  0  0  0  0  0  0  0  0
  151.8647  141.5786  157.6917 H   0  0  0  0  0  0  0  0  0  0  0  0
  152.4377  143.0230  156.8763 H   0  0  0  0  0  0  0  0  0  0  0  0
  150.3969  143.0929  159.1543 H   0  0  0  0  0  0  0  0  0  0  0  0
  151.8847  145.2340  157.6397 H   0  0  0  0  0  0  0  0  0  0  0  0
  150.2230  145.2383  158.2067 H   0  0  0  0  0  0  0  0  0  0  0  0
  152.5456  146.2993  159.5316 H   0  0  0  0  0  0  0  0  0  0  0  0
  150.9363  146.2001  160.2306 H   0  0  0  0  0  0  0  0  0  0  0  0
  153.0974  144.7638  161.2489 H   0  0  0  0  0  0  0  0  0  0  0  0
  151.4174  144.2592  161.3993 H   0  0  0  0  0  0  0  0  0  0  0  0
  153.4224  143.3836  159.2879 H   0  0  0  0  0  0  0  0  0  0  0  0
  152.1491  142.2634  161.3672 H   0  0  0  0  0  0  0  0  0  0  0  0
  145.9393  139.8108  152.4675 H   0  0  0  0  0  0  0  0  0  0  0  0
  147.5506  137.7198  153.0101 H   0  0  0  0  0  0  0  0  0  0  0  0
  1  2  2  0  0  0  0
  2  3  1  0  0  0  0
  2 11  1  0  0  0  0
  3  4  1  0  0  0  0
  3 17  1  0  0  0  0
  4  5  1  0  0  0  0
  4 18  1  0  0  0  0
  4 19  1  0  0  0  0
  5  9  1  0  0  0  0
  5  6  1  0  0  0  0
  5 20  1  0  0  0  0
  6  7  1  0  0  0  0
  6 21  1  0  0  0  0
  6 22  1  0  0  0  0
  7  8  1  0  0  0  0
  7 23  1  0  0  0  0
  7 24  1  0  0  0  0
  8  9  1  0  0  0  0
  8 25  1  0  0  0  0
  8 26  1  0  0  0  0
  9 10  1  0  0  0  0
  9 27  1  0  0  0  0
 10 28  1  0  0  0  0
 11 12  1  0  0  0  0
 12 16  1  0  0  0  0
 12 13  2  0  0  0  0
 13 14  1  0  0  0  0
 14 15  2  0  0  0  0
 14 29  1  0  0  0  0
 15 16  1  0  0  0  0
 15 30  1  0  0  0  0
M  CHG  1  11  -1
M  END
> <s_m_source_file>
AV-unprocessed.smi

> <i_m_source_file_index>
3228

> <i_lp_mmshare_version>
43012

> <i_f3d_flags>
0

> <s_epik_input>
czFbY0hdW2NIXW5jMVtOSF1DKD1PKVtOSF1bQ0gyXVtDQEBIXTJbQ0gyXVtDSDJdW0NIMl1bQ0BIXTJbT0hd

> <s_epik_cmdline>
J2VwaWtfcHl0aG9uJywgJy1waCcsICc3LjAnLCAnLXRuJywgJzgnLCAnLW1hJywgJzIwMCcsICctbWV0YWxfYmluZGluZycsICctaW1hZScsICc8aW5maWxlLm1hZT4nLCAnLW9tYWUnLCAnPG91dGZpbGUubWFlPic=

> <r_lp_tautomer_probability>
0.999

> <r_epik_Ionization_Penalty>
8.49756

> <r_epik_Ionization_Penalty_Charging>
6.79645

> <r_epik_Ionization_Penalty_Neutral>
1.70111

> <r_epik_State_Penalty>
6.79662

> <r_epik_Charging_Adjusted_Penalty>
13.5931

> <i_epik_Tot_Q>
-1

> <i_epik_Tot_abs_Q>
1

> <r_epik_Metal_State_Penalty>
2.71629

> <b_epik_Metal_Only>
1

> <s_lp_Force_Field>
OPLS_2005

> <r_lp_Energy>
18.1026

> <b_lp_Chiralities_Consistent>
1

> <s_lp_Variant>
AV-unprocessed.smi:3228-5

> <Gold.Version>
5.8.1

> <Gold.Id.Protein>
6NUR|6NUR_protein|mol2

> <Gold.PLP.Fitness>
44.2616

> <Gold.PLP.PLP>
-34.1211

> <Gold.PLP.part.hbond>
-2.3003

> <Gold.PLP.part.metal>
0.0000

> <Gold.PLP.part.buried>
-5.3139

> <Gold.PLP.part.nonpolar>
-27.2223

> <Gold.PLP.part.repulsive>
1.5666

> <Gold.PLP.ligand.clash>
0.0000

> <Gold.PLP.ligand.torsion>
0.3240

> <Gold.PLP.Chemscore.Hbond>
1.6569

> <Gold.PLP.Chemscore.CHOScore>
1.9365

> <Gold.PLP.Chemscore.Metal>
0.0000

> <Gold.Chemscore.Hbonds>
donor molecule, donor type, donor heavy atom, donor atom, acceptor molecule, acceptor atom, score
      L1  H     3    17       P1  8028  0.67
      P1  H  7989  7998       L1     1  0.75
      L1  C    14    29       P1 10175  1.00
      L1  C    15    30       P1  7948  1.00

> <Gold.PLP.Chemscore.Internal.Correction>
0.0085

> <Gold.Rescore>
     Score         DG    S(hbond)    S(metal)    S(lipo)     H(rot)  DE(clash)    DE(int)     intcor
     13.56     -15.72       1.50        0.00      85.29       1.85       0.52       1.64       ----

> <Gold.Chemscore.Fitness>
13.5576

> <Gold.Chemscore.DG>
-15.7249

> <Gold.Chemscore.ZeroCoef>
-5.4800

> <Gold.Chemscore.Hbond>
1.4961

> <Gold.Chemscore.Metal>
0.0000

> <Gold.Chemscore.Lipo>
85.2934

> <Gold.Chemscore.Internal_Hbond>
0.0000

> <Gold.Chemscore.DEClash>
0.5241

> <Gold.Chemscore.DEInternal>
1.6432

> <Gold.Chemscore.Rot>
1.8481

> <Gold.Chemscore.Internal.Correction>
   9.000000E+99

> <Gold.Chemscore.Hbonds>
donor molecule, donor type, donor heavy atom, donor atom, acceptor molecule, acceptor atom, score
      L1  H     3    17       P1  8028  0.66
      P1  H  7989  7998       L1     1  0.67

> <Gold.Chemscore.Hbond.Weighted>
-4.9968

> <Gold.Chemscore.Metal.Weighted>
-0.0000

> <Gold.Chemscore.Lipo.Weighted>
-9.9793

> <Gold.Chemscore.Internal_Hbond.Weighted>
0.0000

> <Gold.Chemscore.DEClash.Weighted>
0.5241

> <Gold.Chemscore.DEInternal.Weighted>
1.6432

> <Gold.Chemscore.Rot.Weighted>
4.7313

> <Gold.Chemscore.Internal.Correction.Weighted>
   9.000000E+99

> <Gold.Protein.RotatedTorsions>
[ 6907 6896 6895 6894 ] final -144.17 input  -60.11 | X-H torsion
[ 7974 7965 7964 7962 ] final  -36.19 input  175.53 | X-H torsion
[ 8008 7997 7996 7995 ] final   23.31 input   59.86 | X-H torsion
[ 10167 10162 10161 10158 ] final  108.77 input  -65.29 | X-H torsion
[ 10718 10713 10712 10709 ] final  112.99 input   66.30 | X-H torsion
[ 10763 10752 10751 10750 ] final  126.55 input  -60.55 | X-H torsion
[ 11005 11000 10999 10996 ] final  -42.47 input  -57.11 | X-H torsion

> <Gold.Protein.ActiveResidues>
 VAL166  LYS551  ARG553  GLY616  TRP617  ASP618  TYR619  PRO620  LYS621  CYS622 
 ASP623  PHE694  ASN695  SER759  ASP760  ASP761  ALA762  ILE779  LEU786  VAL792 
 PHE793  MET794  SER795  GLU796  ALA797  LYS798  CYS799  TRP800  GLU811  SER814 

> <Gold.Protein.RotatedAtoms>
  151.1104  133.5177  159.2605 H   0  0  0  0  0  0  0  0  0  0  0  0  # atno 6907 bound_to 6896
  151.1973  135.0427  159.8867 H   0  0  0  0  0  0  0  0  0  0  0  0  # atno 6908 bound_to 6896
  152.5450  134.0937  159.8341 H   0  0  0  0  0  0  0  0  0  0  0  0  # atno 6909 bound_to 6896
  146.0683  140.6249  142.8964 H   0  0  0  0  0  0  0  0  0  0  0  0  # atno 7974 bound_to 7965
  154.9790  140.3099  155.4954 H   0  0  0  0  0  0  0  0  0  0  0  0  # atno 8008 bound_to 7997
  156.2956  140.2270  156.4827 H   0  0  0  0  0  0  0  0  0  0  0  0  # atno 8009 bound_to 7997
  154.7807  140.0446  157.1113 H   0  0  0  0  0  0  0  0  0  0  0  0  # atno 8010 bound_to 7997
  139.6819  144.7117  151.1500 H   0  0  0  0  0  0  0  0  0  0  0  0  # atno 10167 bound_to 10162
  157.6363  131.0976  150.6975 H   0  0  0  0  0  0  0  0  0  0  0  0  # atno 10718 bound_to 10713
  153.6952  135.3292  155.3211 H   0  0  0  0  0  0  0  0  0  0  0  0  # atno 10763 bound_to 10752
  154.8429  135.4441  154.1468 H   0  0  0  0  0  0  0  0  0  0  0  0  # atno 10764 bound_to 10752
  153.2520  135.6982  153.7747 H   0  0  0  0  0  0  0  0  0  0  0  0  # atno 10765 bound_to 10752
  141.0317  133.6817  156.2599 H   0  0  0  0  0  0  0  0  0  0  0  0  # atno 11005 bound_to 11000
  144.7216  140.4391  143.7004 LP  0  0  0  0  0  0  0  0  0  0  0  0  # atno 17320 bound_to 7965
  145.6438  139.1554  143.2901 LP  0  0  0  0  0  0  0  0  0  0  0  0  # atno 17321 bound_to 7965
  140.7655  143.5686  150.9020 LP  0  0  0  0  0  0  0  0  0  0  0  0  # atno 17342 bound_to 10162
  139.9358  143.6439  152.3065 LP  0  0  0  0  0  0  0  0  0  0  0  0  # atno 17343 bound_to 10162
  156.7306  130.4708  149.5500 LP  0  0  0  0  0  0  0  0  0  0  0  0  # atno 17370 bound_to 10713
  156.1605  130.6370  151.0712 LP  0  0  0  0  0  0  0  0  0  0  0  0  # atno 17371 bound_to 10713
  140.6394  134.5182  157.5568 LP  0  0  0  0  0  0  0  0  0  0  0  0  # atno 17394 bound_to 11000
  139.9213  134.8144  156.1204 LP  0  0  0  0  0  0  0  0  0  0  0  0  # atno 17395 bound_to 11000

$$$$
