AV-unprocessed.smi:3218|AV-procd|sdf|12294|dock9
  -GOLD-   2272018133D 1   1.00000     0.00000
 Structure written by MMmdl.
 37 38  0  0  0  0  0  0  0  0  1 V2000
  154.7762  140.0767  162.5056 C   0  0  0  0  0  0  0  0  0  0  0  0
  154.1761  141.0625  161.5449 C   0  0  0  0  0  0  0  0  0  0  0  0
  154.3776  141.1431  160.1374 C   0  0  0  0  0  0  0  0  0  0  0  0
  153.7039  142.1343  159.5770 N   0  0  0  0  0  0  0  0  0  0  0  0
  153.0486  142.7178  160.6027 N   0  0  0  0  0  0  0  0  0  0  0  0
  152.2011  143.8675  160.3552 C   0  0  0  0  0  0  0  0  0  0  0  0
  151.5120  143.7691  158.9877 C   0  0  0  0  0  0  0  0  0  0  0  0
  150.7918  142.5104  158.8908 N   0  0  0  0  0  0  0  0  0  0  0  0
  151.2466  141.7709  157.7257 C   0  0  0  0  0  0  0  0  0  0  0  0
  150.9284  140.2789  157.9048 C   0  0  0  0  0  0  0  0  0  0  0  0
  151.6298  139.4685  156.9141 N   0  0  0  0  0  0  0  0  0  0  0  0
  152.5107  138.3883  157.3256 C   0  0  0  0  0  0  0  0  0  0  0  0
  153.2227  137.9467  156.0390 C   0  0  0  0  0  0  0  0  0  0  0  0
  152.4164  138.5585  154.8882 C   0  0  0  0  0  0  0  0  0  0  0  0
  151.5374  139.5840  155.5841 C   0  0  0  0  0  0  0  0  0  0  0  0
  150.8465  140.3973  154.9721 O   0  0  0  0  0  0  0  0  0  0  0  0
  153.3161  142.0926  161.8019 C   0  0  0  0  0  0  0  0  0  0  0  0
  154.8713  139.0863  162.0602 H   0  0  0  0  0  0  0  0  0  0  0  0
  154.1702  139.9669  163.4052 H   0  0  0  0  0  0  0  0  0  0  0  0
  155.7727  140.3833  162.8237 H   0  0  0  0  0  0  0  0  0  0  0  0
  154.9920  140.5146  159.5098 H   0  0  0  0  0  0  0  0  0  0  0  0
  151.4623  143.9371  161.1555 H   0  0  0  0  0  0  0  0  0  0  0  0
  152.8156  144.7673  160.4106 H   0  0  0  0  0  0  0  0  0  0  0  0
  150.8185  144.6013  158.8583 H   0  0  0  0  0  0  0  0  0  0  0  0
  152.2520  143.8301  158.1885 H   0  0  0  0  0  0  0  0  0  0  0  0
  149.8005  142.6886  158.8142 H   0  0  0  0  0  0  0  0  0  0  0  0
  150.7555  142.1599  156.8326 H   0  0  0  0  0  0  0  0  0  0  0  0
  152.3211  141.9103  157.5976 H   0  0  0  0  0  0  0  0  0  0  0  0
  151.2149  139.9514  158.9054 H   0  0  0  0  0  0  0  0  0  0  0  0
  149.8543  140.1053  157.8186 H   0  0  0  0  0  0  0  0  0  0  0  0
  153.2181  138.7191  158.0871 H   0  0  0  0  0  0  0  0  0  0  0  0
  151.9138  137.5755  157.7415 H   0  0  0  0  0  0  0  0  0  0  0  0
  154.2414  138.3368  156.0236 H   0  0  0  0  0  0  0  0  0  0  0  0
  153.2863  136.8606  155.9638 H   0  0  0  0  0  0  0  0  0  0  0  0
  153.0553  139.0228  154.1362 H   0  0  0  0  0  0  0  0  0  0  0  0
  151.7868  137.8123  154.4025 H   0  0  0  0  0  0  0  0  0  0  0  0
  152.8785  142.4311  162.7298 H   0  0  0  0  0  0  0  0  0  0  0  0
  1  2  1  0  0  0  0
  1 18  1  0  0  0  0
  1 19  1  0  0  0  0
  1 20  1  0  0  0  0
  2 17  2  0  0  0  0
  2  3  1  0  0  0  0
  3  4  2  0  0  0  0
  3 21  1  0  0  0  0
  4  5  1  0  0  0  0
  5  6  1  0  0  0  0
  5 17  1  0  0  0  0
  6  7  1  0  0  0  0
  6 22  1  0  0  0  0
  6 23  1  0  0  0  0
  7  8  1  0  0  0  0
  7 24  1  0  0  0  0
  7 25  1  0  0  0  0
  8  9  1  0  0  0  0
  8 26  1  0  0  0  0
  9 10  1  0  0  0  0
  9 27  1  0  0  0  0
  9 28  1  0  0  0  0
 10 11  1  0  0  0  0
 10 29  1  0  0  0  0
 10 30  1  0  0  0  0
 11 15  1  0  0  0  0
 11 12  1  0  0  0  0
 12 13  1  0  0  0  0
 12 31  1  0  0  0  0
 12 32  1  0  0  0  0
 13 14  1  0  0  0  0
 13 33  1  0  0  0  0
 13 34  1  0  0  0  0
 14 15  1  0  0  0  0
 14 35  1  0  0  0  0
 14 36  1  0  0  0  0
 15 16  2  0  0  0  0
 17 37  1  0  0  0  0
M  END
> <s_m_source_file>
AV-unprocessed.smi

> <i_m_source_file_index>
3218

> <i_lp_mmshare_version>
43012

> <i_f3d_flags>
0

> <s_epik_input>
W0NIM11jMVtjSF1ubihbY0hdMSlbQ0gyXVtDSDJdW05IXVtDSDJdW0NIMl1OMltDSDJdW0NIMl1bQ0gyXUMyPU8=

> <s_epik_cmdline>
J2VwaWtfcHl0aG9uJywgJy1waCcsICc3LjAnLCAnLXRuJywgJzgnLCAnLW1hJywgJzIwMCcsICctbWV0YWxfYmluZGluZycsICctaW1hZScsICc8aW5maWxlLm1hZT4nLCAnLW9tYWUnLCAnPG91dGZpbGUubWFlPic=

> <r_lp_tautomer_probability>
1

> <r_epik_Ionization_Penalty>
2.53806

> <r_epik_Ionization_Penalty_Charging>
0

> <r_epik_Ionization_Penalty_Neutral>
2.53806

> <r_epik_State_Penalty>
2.70334

> <r_epik_Charging_Adjusted_Penalty>
2.70334

> <i_epik_Tot_Q>
0

> <i_epik_Tot_abs_Q>
0

> <r_epik_Metal_State_Penalty>
2.70114

> <b_epik_Metal_Only>
0

> <s_lp_Force_Field>
OPLS_2005

> <r_lp_Energy>
17.5506

> <b_lp_Chiralities_Consistent>
1

> <s_lp_Variant>
AV-unprocessed.smi:3218-2

> <Gold.Version>
5.8.1

> <Gold.Id.Protein>
6NUR|6NUR_protein|mol2

> <Gold.PLP.Fitness>
41.1092

> <Gold.PLP.PLP>
-39.8316

> <Gold.PLP.part.hbond>
-1.0000

> <Gold.PLP.part.metal>
0.0000

> <Gold.PLP.part.buried>
-3.8475

> <Gold.PLP.part.nonpolar>
-34.9208

> <Gold.PLP.part.repulsive>
0.0714

> <Gold.PLP.ligand.clash>
0.0000

> <Gold.PLP.ligand.torsion>
0.8983

> <Gold.PLP.Chemscore.Hbond>
1.0000

> <Gold.PLP.Chemscore.CHOScore>
0.0000

> <Gold.PLP.Chemscore.Metal>
0.0000

> <Gold.Chemscore.Hbonds>
donor molecule, donor type, donor heavy atom, donor atom, acceptor molecule, acceptor atom, score
      P1  H  7989  7998       L1    16  1.00

> <Gold.PLP.Chemscore.Internal.Correction>
0.0742

> <Gold.Rescore>
     Score         DG    S(hbond)    S(metal)    S(lipo)     H(rot)  DE(clash)    DE(int)     intcor
     14.11     -14.79       0.99        0.00      93.88       1.95       0.03       0.65       ----

> <Gold.Chemscore.Fitness>
14.1065

> <Gold.Chemscore.DG>
-14.7896

> <Gold.Chemscore.ZeroCoef>
-5.4800

> <Gold.Chemscore.Hbond>
0.9906

> <Gold.Chemscore.Metal>
0.0000

> <Gold.Chemscore.Lipo>
93.8762

> <Gold.Chemscore.Internal_Hbond>
0.0000

> <Gold.Chemscore.DEClash>
0.0291

> <Gold.Chemscore.DEInternal>
0.6540

> <Gold.Chemscore.Rot>
1.9463

> <Gold.Chemscore.Internal.Correction>
   9.000000E+99

> <Gold.Chemscore.Hbonds>
donor molecule, donor type, donor heavy atom, donor atom, acceptor molecule, acceptor atom, score
      P1  H  7989  7998       L1    16  0.77

> <Gold.Chemscore.Hbond.Weighted>
-3.3085

> <Gold.Chemscore.Metal.Weighted>
-0.0000

> <Gold.Chemscore.Lipo.Weighted>
-10.9835

> <Gold.Chemscore.Internal_Hbond.Weighted>
0.0000

> <Gold.Chemscore.DEClash.Weighted>
0.0291

> <Gold.Chemscore.DEInternal.Weighted>
0.6540

> <Gold.Chemscore.Rot.Weighted>
4.9824

> <Gold.Chemscore.Internal.Correction.Weighted>
   9.000000E+99

> <Gold.Protein.RotatedTorsions>
[ 6907 6896 6895 6894 ] final    2.54 input  -60.11 | X-H torsion
[ 7974 7965 7964 7962 ] final  130.47 input  175.53 | X-H torsion
[ 8008 7997 7996 7995 ] final  -72.13 input   59.86 | X-H torsion
[ 10167 10162 10161 10158 ] final  113.72 input  -65.29 | X-H torsion
[ 10718 10713 10712 10709 ] final -105.94 input   66.30 | X-H torsion
[ 10763 10752 10751 10750 ] final -110.16 input  -60.55 | X-H torsion
[ 11005 11000 10999 10996 ] final -133.52 input  -57.11 | X-H torsion

> <Gold.Protein.ActiveResidues>
 VAL166  LYS551  ARG553  GLY616  TRP617  ASP618  TYR619  PRO620  LYS621  CYS622 
 ASP623  PHE694  ASN695  SER759  ASP760  ASP761  ALA762  ILE779  LEU786  VAL792 
 PHE793  MET794  SER795  GLU796  ALA797  LYS798  CYS799  TRP800  GLU811  SER814 

> <Gold.Protein.RotatedAtoms>
  151.6105  135.1040  160.0079 H   0  0  0  0  0  0  0  0  0  0  0  0  # atno 6907 bound_to 6896
  152.4211  133.7113  159.6491 H   0  0  0  0  0  0  0  0  0  0  0  0  # atno 6908 bound_to 6896
  150.8098  133.8369  159.3209 H   0  0  0  0  0  0  0  0  0  0  0  0  # atno 6909 bound_to 6896
  145.0176  139.4162  143.5213 H   0  0  0  0  0  0  0  0  0  0  0  0  # atno 7974 bound_to 7965
  154.5142  140.0803  156.8049 H   0  0  0  0  0  0  0  0  0  0  0  0  # atno 8008 bound_to 7997
  155.3717  140.3423  155.4225 H   0  0  0  0  0  0  0  0  0  0  0  0  # atno 8009 bound_to 7997
  156.1608  140.1588  156.8602 H   0  0  0  0  0  0  0  0  0  0  0  0  # atno 8010 bound_to 7997
  139.6441  144.7125  151.2178 H   0  0  0  0  0  0  0  0  0  0  0  0  # atno 10167 bound_to 10162
  156.0368  130.5588  150.7611 H   0  0  0  0  0  0  0  0  0  0  0  0  # atno 10718 bound_to 10713
  154.8233  135.4574  154.0842 H   0  0  0  0  0  0  0  0  0  0  0  0  # atno 10763 bound_to 10752
  153.2178  135.6890  153.8043 H   0  0  0  0  0  0  0  0  0  0  0  0  # atno 10764 bound_to 10752
  153.7471  135.3303  155.3291 H   0  0  0  0  0  0  0  0  0  0  0  0  # atno 10765 bound_to 10752
  140.9073  134.1613  157.4416 H   0  0  0  0  0  0  0  0  0  0  0  0  # atno 11005 bound_to 11000
  146.3480  139.9656  142.8712 LP  0  0  0  0  0  0  0  0  0  0  0  0  # atno 17320 bound_to 7965
  145.1939  140.9824  143.4195 LP  0  0  0  0  0  0  0  0  0  0  0  0  # atno 17321 bound_to 7965
  140.7506  143.6261  150.8467 LP  0  0  0  0  0  0  0  0  0  0  0  0  # atno 17342 bound_to 10162
  139.9902  143.5855  152.2913 LP  0  0  0  0  0  0  0  0  0  0  0  0  # atno 17343 bound_to 10162
  157.5130  131.0926  151.0175 LP  0  0  0  0  0  0  0  0  0  0  0  0  # atno 17370 bound_to 10713
  157.0525  130.5793  149.5372 LP  0  0  0  0  0  0  0  0  0  0  0  0  # atno 17371 bound_to 10713
  139.8751  134.9922  156.5585 LP  0  0  0  0  0  0  0  0  0  0  0  0  # atno 17394 bound_to 11000
  140.8154  133.8395  155.8848 LP  0  0  0  0  0  0  0  0  0  0  0  0  # atno 17395 bound_to 11000

$$$$
