AV-unprocessed.smi:1868|AV-procd|sdf|7587|dock2
  -GOLD-   22720 9293D 1   1.00000     0.00000
 Structure written by MMmdl.
 47 49  0  0  0  0  0  0  0  0  2 V2000
  153.0907  139.1256  158.1503 C   0  0  0  0  0  0  0  0  0  0  0  0
  152.9093  140.2866  159.0757 C   0  0  0  0  0  0  0  0  0  0  0  0
  153.3988  140.2904  160.3153 N   0  0  0  0  0  0  0  0  0  0  0  0
  153.0152  141.5302  160.7891 C   0  0  0  0  0  0  0  0  0  0  0  0
  153.2335  142.1418  162.0443 C   0  0  0  0  0  0  0  0  0  0  0  0
  152.7373  143.4361  162.3034 C   0  0  0  0  0  0  0  0  0  0  0  0
  152.0168  144.1358  161.3139 C   0  0  0  0  0  0  0  0  0  0  0  0
  151.7885  143.5453  160.0562 C   0  0  0  0  0  0  0  0  0  0  0  0
  152.2865  142.2532  159.8021 C   0  0  0  0  0  0  0  0  0  0  0  0
  152.2380  141.4033  158.7008 N   0  0  0  0  0  0  0  0  0  0  0  0
  151.5993  141.6775  157.4204 C   0  0  0  0  0  0  0  0  0  0  0  0
  150.0692  141.8284  157.5363 C   0  0  1  0  0  0  0  0  0  0  0  0
  149.7518  143.1617  157.8871 O   0  0  0  0  0  0  0  0  0  0  0  0
  149.3633  141.4894  156.2085 C   0  0  0  0  0  0  0  0  0  0  0  0
  148.0683  142.2000  156.0472 N   0  3  2  0  0  0  0  0  0  0  0  0
  147.1070  141.9354  157.1505 C   0  0  0  0  0  0  0  0  0  0  0  0
  145.8395  142.7964  157.0021 C   0  0  0  0  0  0  0  0  0  0  0  0
  145.1593  142.6038  155.6344 C   0  0  2  0  0  0  0  0  0  0  0  0
  144.4231  141.2573  155.5196 C   0  0  0  0  0  0  0  0  0  0  0  0
  146.1946  142.8145  154.5151 C   0  0  0  0  0  0  0  0  0  0  0  0
  147.4544  141.9538  154.7171 C   0  0  0  0  0  0  0  0  0  0  0  0
  153.6108  138.3116  158.6566 H   0  0  0  0  0  0  0  0  0  0  0  0
  153.6821  139.4232  157.2843 H   0  0  0  0  0  0  0  0  0  0  0  0
  152.1244  138.7544  157.8095 H   0  0  0  0  0  0  0  0  0  0  0  0
  153.7843  141.6143  162.8089 H   0  0  0  0  0  0  0  0  0  0  0  0
  152.9104  143.8942  163.2663 H   0  0  0  0  0  0  0  0  0  0  0  0
  151.6401  145.1269  161.5211 H   0  0  0  0  0  0  0  0  0  0  0  0
  151.2362  144.0796  159.2975 H   0  0  0  0  0  0  0  0  0  0  0  0
  152.0391  142.5842  157.0024 H   0  0  0  0  0  0  0  0  0  0  0  0
  151.8489  140.8758  156.7248 H   0  0  0  0  0  0  0  0  0  0  0  0
  149.7147  141.1763  158.3332 H   0  0  0  0  0  0  0  0  0  0  0  0
  149.2197  143.5349  157.2000 H   0  0  0  0  0  0  0  0  0  0  0  0
  150.0327  141.7561  155.3888 H   0  0  0  0  0  0  0  0  0  0  0  0
  149.1967  140.4143  156.1253 H   0  0  0  0  0  0  0  0  0  0  0  0
  146.8487  140.8758  157.1654 H   0  0  0  0  0  0  0  0  0  0  0  0
  147.5654  142.1553  158.1139 H   0  0  0  0  0  0  0  0  0  0  0  0
  145.1383  142.5737  157.8072 H   0  0  0  0  0  0  0  0  0  0  0  0
  146.1107  143.8464  157.1213 H   0  0  0  0  0  0  0  0  0  0  0  0
  144.3997  143.3799  155.5307 H   0  0  0  0  0  0  0  0  0  0  0  0
  145.0995  140.4082  155.6125 H   0  0  0  0  0  0  0  0  0  0  0  0
  143.9165  141.1700  154.5581 H   0  0  0  0  0  0  0  0  0  0  0  0
  143.6646  141.1603  156.2969 H   0  0  0  0  0  0  0  0  0  0  0  0
  145.7488  142.6038  153.5424 H   0  0  0  0  0  0  0  0  0  0  0  0
  146.4861  143.8656  154.4910 H   0  0  0  0  0  0  0  0  0  0  0  0
  148.1725  142.1923  153.9315 H   0  0  0  0  0  0  0  0  0  0  0  0
  147.2168  140.8942  154.6133 H   0  0  0  0  0  0  0  0  0  0  0  0
  148.2869  143.1861  156.0756 H   0  0  0  0  0  0  0  0  0  0  0  0
  1  2  1  0  0  0  0
  1 22  1  0  0  0  0
  1 23  1  0  0  0  0
  1 24  1  0  0  0  0
  2 10  1  0  0  0  0
  2  3  2  0  0  0  0
  3  4  1  0  0  0  0
  4  9  2  0  0  0  0
  4  5  1  0  0  0  0
  5  6  2  0  0  0  0
  5 25  1  0  0  0  0
  6  7  1  0  0  0  0
  6 26  1  0  0  0  0
  7  8  2  0  0  0  0
  7 27  1  0  0  0  0
  8  9  1  0  0  0  0
  8 28  1  0  0  0  0
  9 10  1  0  0  0  0
 10 11  1  0  0  0  0
 11 12  1  0  0  0  0
 11 29  1  0  0  0  0
 11 30  1  0  0  0  0
 12 13  1  0  0  0  0
 12 14  1  0  0  0  0
 12 31  1  0  0  0  0
 13 32  1  0  0  0  0
 14 15  1  0  0  0  0
 14 33  1  0  0  0  0
 14 34  1  0  0  0  0
 15 21  1  0  0  0  0
 15 16  1  0  0  0  0
 15 47  1  0  0  0  0
 16 17  1  0  0  0  0
 16 35  1  0  0  0  0
 16 36  1  0  0  0  0
 17 18  1  0  0  0  0
 17 37  1  0  0  0  0
 17 38  1  0  0  0  0
 18 19  1  0  0  0  0
 18 20  1  0  0  0  0
 18 39  1  0  0  0  0
 19 40  1  0  0  0  0
 19 41  1  0  0  0  0
 19 42  1  0  0  0  0
 20 21  1  0  0  0  0
 20 43  1  0  0  0  0
 20 44  1  0  0  0  0
 21 45  1  0  0  0  0
 21 46  1  0  0  0  0
M  CHG  1  15   1
M  END
> <s_m_source_file>
AV-unprocessed.smi

> <i_m_source_file_index>
1868

> <i_lp_mmshare_version>
43012

> <i_f3d_flags>
0

> <s_epik_input>
W2NIXTFbY0hdW2NIXVtjSF1jKGMxMiluKGMobjIpW0NIM10pW0NIMl1bQ0BIXShbT0hdKVtDSDJdTjNbQ0gyXVtDSDJdW0NIXShbQ0gzXSlbQ0gyXVtDSDJdMw==

> <s_epik_cmdline>
J2VwaWtfcHl0aG9uJywgJy1waCcsICc3LjAnLCAnLXRuJywgJzgnLCAnLW1hJywgJzIwMCcsICctbWV0YWxfYmluZGluZycsICctaW1hZScsICc8aW5maWxlLm1hZT4nLCAnLW9tYWUnLCAnPG91dGZpbGUubWFlPic=

> <r_epik_Ionization_Penalty>
0.101157

> <r_epik_Ionization_Penalty_Charging>
0.00181365

> <r_epik_Ionization_Penalty_Neutral>
0.0993436

> <r_epik_State_Penalty>
0.0871902

> <r_epik_Charging_Adjusted_Penalty>
0.0890039

> <i_epik_Tot_Q>
1

> <i_epik_Tot_abs_Q>
1

> <r_epik_Metal_State_Penalty>
9.24346e-05

> <b_epik_Metal_Only>
0

> <s_lp_Force_Field>
OPLS_2005

> <r_lp_Energy>
23.8168

> <b_lp_Chiralities_Consistent>
1

> <s_lp_Variant>
AV-unprocessed.smi:1868-4

> <Gold.Version>
5.8.1

> <Gold.Id.Protein>
6NUR|6NUR_protein|mol2

> <Gold.PLP.Fitness>
52.1692

> <Gold.PLP.PLP>
-44.3387

> <Gold.PLP.part.hbond>
-2.0000

> <Gold.PLP.part.metal>
0.0000

> <Gold.PLP.part.buried>
-5.8053

> <Gold.PLP.part.nonpolar>
-35.4258

> <Gold.PLP.part.repulsive>
0.0424

> <Gold.PLP.ligand.clash>
0.0002

> <Gold.PLP.ligand.torsion>
0.6459

> <Gold.PLP.Chemscore.Hbond>
3.0000

> <Gold.PLP.Chemscore.CHOScore>
0.0000

> <Gold.PLP.Chemscore.Metal>
0.0000

> <Gold.Chemscore.Hbonds>
donor molecule, donor type, donor heavy atom, donor atom, acceptor molecule, acceptor atom, score
      L1  H    13    32       P1  8028  1.00
      L1  H    15    47       P1  8028  2.00

> <Gold.PLP.Chemscore.Internal.Correction>
0.1224

> <Gold.Rescore>
     Score         DG    S(hbond)    S(metal)    S(lipo)     H(rot)  DE(clash)    DE(int)     intcor
     17.00     -19.53       1.91        0.00     107.66       1.92       0.40       2.13       ----

> <Gold.Chemscore.Fitness>
16.9983

> <Gold.Chemscore.DG>
-19.5320

> <Gold.Chemscore.ZeroCoef>
-5.4800

> <Gold.Chemscore.Hbond>
1.9072

> <Gold.Chemscore.Metal>
0.0000

> <Gold.Chemscore.Lipo>
107.6642

> <Gold.Chemscore.Internal_Hbond>
0.0000

> <Gold.Chemscore.DEClash>
0.4014

> <Gold.Chemscore.DEInternal>
2.1323

> <Gold.Chemscore.Rot>
1.9198

> <Gold.Chemscore.Internal.Correction>
   9.000000E+99

> <Gold.Chemscore.Hbonds>
donor molecule, donor type, donor heavy atom, donor atom, acceptor molecule, acceptor atom, score
      L1  H    13    32       P1  8028  0.63
      L1  H    15    47       P1  8028  0.78

> <Gold.Chemscore.Hbond.Weighted>
-6.3700

> <Gold.Chemscore.Metal.Weighted>
-0.0000

> <Gold.Chemscore.Lipo.Weighted>
-12.5967

> <Gold.Chemscore.Internal_Hbond.Weighted>
0.0000

> <Gold.Chemscore.DEClash.Weighted>
0.4014

> <Gold.Chemscore.DEInternal.Weighted>
2.1323

> <Gold.Chemscore.Rot.Weighted>
4.9147

> <Gold.Chemscore.Internal.Correction.Weighted>
   9.000000E+99

> <Gold.Protein.RotatedTorsions>
[ 6907 6896 6895 6894 ] final  -80.51 input  -60.11 | X-H torsion
[ 7974 7965 7964 7962 ] final  118.92 input  175.53 | X-H torsion
[ 8008 7997 7996 7995 ] final   87.49 input   59.86 | X-H torsion
[ 10167 10162 10161 10158 ] final -143.50 input  -65.29 | X-H torsion
[ 10718 10713 10712 10709 ] final  133.02 input   66.30 | X-H torsion
[ 10763 10752 10751 10750 ] final  -89.99 input  -60.55 | X-H torsion
[ 11005 11000 10999 10996 ] final    1.13 input  -57.11 | X-H torsion

> <Gold.Protein.ActiveResidues>
 VAL166  LYS551  ARG553  GLY616  TRP617  ASP618  TYR619  PRO620  LYS621  CYS622 
 ASP623  PHE694  ASN695  SER759  ASP760  ASP761  ALA762  ILE779  LEU786  VAL792 
 PHE793  MET794  SER795  GLU796  ALA797  LYS798  CYS799  TRP800  GLU811  SER814 

> <Gold.Protein.RotatedAtoms>
  150.6928  134.3958  159.5096 H   0  0  0  0  0  0  0  0  0  0  0  0  # atno 6907 bound_to 6896
  152.1740  134.8808  160.0541 H   0  0  0  0  0  0  0  0  0  0  0  0  # atno 6908 bound_to 6896
  151.9823  133.3727  159.4149 H   0  0  0  0  0  0  0  0  0  0  0  0  # atno 6909 bound_to 6896
  145.1494  139.3219  143.4574 H   0  0  0  0  0  0  0  0  0  0  0  0  # atno 7974 bound_to 7965
  155.9761  140.3381  155.6619 H   0  0  0  0  0  0  0  0  0  0  0  0  # atno 8008 bound_to 7997
  155.6611  140.0716  157.2572 H   0  0  0  0  0  0  0  0  0  0  0  0  # atno 8009 bound_to 7997
  154.4179  140.1708  156.1765 H   0  0  0  0  0  0  0  0  0  0  0  0  # atno 8010 bound_to 7997
  139.7988  143.7863  152.2656 H   0  0  0  0  0  0  0  0  0  0  0  0  # atno 10167 bound_to 10162
  157.4814  131.1086  150.9676 H   0  0  0  0  0  0  0  0  0  0  0  0  # atno 10718 bound_to 10713
  154.6611  135.5320  153.8019 H   0  0  0  0  0  0  0  0  0  0  0  0  # atno 10763 bound_to 10752
  153.0443  135.6506  154.0870 H   0  0  0  0  0  0  0  0  0  0  0  0  # atno 10764 bound_to 10752
  154.0778  135.2949  155.3276 H   0  0  0  0  0  0  0  0  0  0  0  0  # atno 10765 bound_to 10752
  140.6189  133.9680  155.8214 H   0  0  0  0  0  0  0  0  0  0  0  0  # atno 11005 bound_to 11000
  146.3496  140.1562  142.8591 LP  0  0  0  0  0  0  0  0  0  0  0  0  # atno 17320 bound_to 7965
  145.0447  140.8972  143.5031 LP  0  0  0  0  0  0  0  0  0  0  0  0  # atno 17321 bound_to 7965
  139.7977  144.7386  150.9868 LP  0  0  0  0  0  0  0  0  0  0  0  0  # atno 17342 bound_to 10162
  140.7820  143.4377  151.0598 LP  0  0  0  0  0  0  0  0  0  0  0  0  # atno 17343 bound_to 10162
  157.0408  130.5748  149.5356 LP  0  0  0  0  0  0  0  0  0  0  0  0  # atno 17370 bound_to 10713
  156.0124  130.5216  150.8029 LP  0  0  0  0  0  0  0  0  0  0  0  0  # atno 17371 bound_to 10713
  141.0756  134.0139  157.3462 LP  0  0  0  0  0  0  0  0  0  0  0  0  # atno 17394 bound_to 11000
  139.9161  135.0197  156.7888 LP  0  0  0  0  0  0  0  0  0  0  0  0  # atno 17395 bound_to 11000

$$$$
