AV-unprocessed.smi:124|AV-procd|sdf|1148|dock3
  -GOLD-   2262018283D 1   1.00000     0.00000
 Structure written by MMmdl.
 52 56  0  0  0  0  0  0  0  0  1 V2000
  143.9753  137.7510  155.8677 O   0  0  0  0  0  0  0  0  0  0  0  0
  145.1297  137.7911  155.4389 C   0  0  0  0  0  0  0  0  0  0  0  0
  146.2686  138.2388  156.3734 C   0  0  0  0  0  0  0  0  0  0  0  0
  146.5666  137.2525  157.4056 N   0  0  0  0  0  0  0  0  0  0  0  0
  147.0838  136.0015  156.9849 C   0  0  0  0  0  0  0  0  0  0  0  0
  147.2867  135.7442  155.7967 O   0  0  0  0  0  0  0  0  0  0  0  0
  147.3589  135.0636  158.0678 C   0  0  0  0  0  0  0  0  0  0  0  0
  147.8280  133.8372  157.7813 F   0  0  0  0  0  0  0  0  0  0  0  0
  147.1468  135.4049  159.3570 C   0  0  0  0  0  0  0  0  0  0  0  0
  146.6672  136.6462  159.7413 N   0  0  0  0  0  0  0  0  0  0  0  0
  146.4557  136.9918  161.1987 C   0  0  1  0  0  0  0  0  0  0  0  0
  145.6028  135.9162  161.8807 C   0  0  0  0  0  0  0  0  0  0  0  0
  146.6604  135.0094  162.4722 C   0  0  0  0  0  0  0  0  0  0  0  0
  147.7464  136.0099  162.8509 C   0  0  0  0  0  0  0  0  0  0  0  0
  147.6950  137.0211  161.8475 O   0  0  0  0  0  0  0  0  0  0  0  0
  146.3517  137.6104  158.7591 C   0  0  0  0  0  0  0  0  0  0  0  0
  145.9117  138.7171  159.0797 O   0  0  0  0  0  0  0  0  0  0  0  0
  145.5195  137.4589  154.0683 C   0  0  0  0  0  0  0  0  0  0  0  0
  146.4822  138.1440  153.3536 C   0  0  0  0  0  0  0  0  0  0  0  0
  147.3769  139.2404  153.7159 C   0  0  0  0  0  0  0  0  0  0  0  0
  146.9155  140.5752  153.6964 C   0  0  0  0  0  0  0  0  0  0  0  0
  147.7766  141.6363  154.0376 C   0  0  0  0  0  0  0  0  0  0  0  0
  149.1114  141.3724  154.3978 C   0  0  0  0  0  0  0  0  0  0  0  0
  149.5836  140.0466  154.4138 C   0  0  0  0  0  0  0  0  0  0  0  0
  148.7206  138.9876  154.0714 C   0  0  0  0  0  0  0  0  0  0  0  0
  146.5693  137.6054  152.0821 N   0  0  0  0  0  0  0  0  0  0  0  0
  145.6804  136.5659  151.9248 C   0  0  0  0  0  0  0  0  0  0  0  0
  145.4066  135.7234  150.8318 C   0  0  0  0  0  0  0  0  0  0  0  0
  144.4158  134.7339  150.9517 C   0  0  0  0  0  0  0  0  0  0  0  0
  143.7079  134.6008  152.1601 C   0  0  0  0  0  0  0  0  0  0  0  0
  143.9910  135.4499  153.2488 C   0  0  0  0  0  0  0  0  0  0  0  0
  144.9910  136.4532  153.1694 C   0  0  0  0  0  0  0  0  0  0  0  0
  147.2170  137.9447  151.3853 H   0  0  0  0  0  0  0  0  0  0  0  0
  147.1796  138.4305  155.8065 H   0  0  0  0  0  0  0  0  0  0  0  0
  146.0316  139.1762  156.8794 H   0  0  0  0  0  0  0  0  0  0  0  0
  147.3641  134.6644  160.1122 H   0  0  0  0  0  0  0  0  0  0  0  0
  146.0104  137.9877  161.2154 H   0  0  0  0  0  0  0  0  0  0  0  0
  145.0163  136.3870  162.6707 H   0  0  0  0  0  0  0  0  0  0  0  0
  144.9254  135.4174  161.1865 H   0  0  0  0  0  0  0  0  0  0  0  0
  146.3010  134.4284  163.3217 H   0  0  0  0  0  0  0  0  0  0  0  0
  147.0298  134.3168  161.7150 H   0  0  0  0  0  0  0  0  0  0  0  0
  147.5230  136.4649  163.8168 H   0  0  0  0  0  0  0  0  0  0  0  0
  148.7351  135.5548  162.9100 H   0  0  0  0  0  0  0  0  0  0  0  0
  145.8922  140.7891  153.4241 H   0  0  0  0  0  0  0  0  0  0  0  0
  147.4121  142.6529  154.0235 H   0  0  0  0  0  0  0  0  0  0  0  0
  149.7722  142.1856  154.6600 H   0  0  0  0  0  0  0  0  0  0  0  0
  150.6079  139.8409  154.6878 H   0  0  0  0  0  0  0  0  0  0  0  0
  149.0947  137.9740  154.0841 H   0  0  0  0  0  0  0  0  0  0  0  0
  145.9514  135.8376  149.9062 H   0  0  0  0  0  0  0  0  0  0  0  0
  144.1962  134.0818  150.1190 H   0  0  0  0  0  0  0  0  0  0  0  0
  142.9427  133.8443  152.2540 H   0  0  0  0  0  0  0  0  0  0  0  0
  143.4248  135.3217  154.1576 H   0  0  0  0  0  0  0  0  0  0  0  0
  1  2  2  0  0  0  0
  2  3  1  0  0  0  0
  2 18  1  0  0  0  0
  3  4  1  0  0  0  0
  3 34  1  0  0  0  0
  3 35  1  0  0  0  0
  4 16  1  0  0  0  0
  4  5  1  0  0  0  0
  5  6  2  0  0  0  0
  5  7  1  0  0  0  0
  7  8  1  0  0  0  0
  7  9  2  0  0  0  0
  9 10  1  0  0  0  0
  9 36  1  0  0  0  0
 10 11  1  0  0  0  0
 10 16  1  0  0  0  0
 11 15  1  0  0  0  0
 11 12  1  0  0  0  0
 11 37  1  0  0  0  0
 12 13  1  0  0  0  0
 12 38  1  0  0  0  0
 12 39  1  0  0  0  0
 13 14  1  0  0  0  0
 13 40  1  0  0  0  0
 13 41  1  0  0  0  0
 14 15  1  0  0  0  0
 14 42  1  0  0  0  0
 14 43  1  0  0  0  0
 16 17  2  0  0  0  0
 18 32  1  0  0  0  0
 18 19  2  0  0  0  0
 19 20  1  0  0  0  0
 19 26  1  0  0  0  0
 20 25  1  0  0  0  0
 20 21  2  0  0  0  0
 21 22  1  0  0  0  0
 21 44  1  0  0  0  0
 22 23  2  0  0  0  0
 22 45  1  0  0  0  0
 23 24  1  0  0  0  0
 23 46  1  0  0  0  0
 24 25  2  0  0  0  0
 24 47  1  0  0  0  0
 25 48  1  0  0  0  0
 26 33  1  0  0  0  0
 26 27  1  0  0  0  0
 27 32  1  0  0  0  0
 27 28  2  0  0  0  0
 28 29  1  0  0  0  0
 28 49  1  0  0  0  0
 29 30  2  0  0  0  0
 29 50  1  0  0  0  0
 30 31  1  0  0  0  0
 30 51  1  0  0  0  0
 31 32  2  0  0  0  0
 31 52  1  0  0  0  0
M  END
> <s_m_source_file>
AV-unprocessed.smi

> <i_m_source_file_index>
124

> <i_lp_mmshare_version>
43012

> <i_f3d_flags>
0

> <s_epik_input>
W2NIXTFbY0hdW2NIXVtjSF1bY0hdYzEtYyhbbkhdMiljKGMoYzIzKVtjSF1bY0hdW2NIXVtjSF0zKUMoPU8pW0NIMl1uNGMoPU8pYyhGKVtjSF1uKGM0PU8pW0NAQEhdNVtDSDJdW0NIMl1bQ0gyXU81

> <s_epik_cmdline>
J2VwaWtfcHl0aG9uJywgJy1waCcsICc3LjAnLCAnLXRuJywgJzgnLCAnLW1hJywgJzIwMCcsICctbWV0YWxfYmluZGluZycsICctaW1hZScsICc8aW5maWxlLm1hZT4nLCAnLW9tYWUnLCAnPG91dGZpbGUubWFlPic=

> <r_lp_tautomer_probability>
1

> <r_epik_Ionization_Penalty>
1.43207e-08

> <r_epik_Ionization_Penalty_Charging>
5.01743e-09

> <r_epik_Ionization_Penalty_Neutral>
9.30329e-09

> <r_epik_State_Penalty>
-0

> <r_epik_Charging_Adjusted_Penalty>
5.01743e-09

> <i_epik_Tot_Q>
0

> <i_epik_Tot_abs_Q>
0

> <r_epik_Metal_State_Penalty>
-0

> <b_epik_Metal_Only>
0

> <s_epik_Chemistry_Notes>
This compound contains an acetal/aminal-like group ( X-CH(R)-Y where X, Y are N, S, or O) that may be acid/base labile, releasing an aldehyde.

> <s_lp_Force_Field>
OPLS_2005

> <r_lp_Energy>
48.1056

> <b_lp_Chiralities_Consistent>
1

> <s_lp_Variant>
AV-unprocessed.smi:124-2

> <Gold.Version>
5.8.1

> <Gold.Id.Protein>
6NUR|6NUR_protein|mol2

> <Gold.PLP.Fitness>
45.9178

> <Gold.PLP.PLP>
-45.2942

> <Gold.PLP.part.hbond>
-3.7205

> <Gold.PLP.part.metal>
0.0000

> <Gold.PLP.part.buried>
-5.4331

> <Gold.PLP.part.nonpolar>
-36.4125

> <Gold.PLP.part.repulsive>
0.1387

> <Gold.PLP.ligand.clash>
0.0000

> <Gold.PLP.ligand.torsion>
2.2003

> <Gold.PLP.Chemscore.Hbond>
1.2028

> <Gold.PLP.Chemscore.CHOScore>
0.0000

> <Gold.PLP.Chemscore.Metal>
0.0000

> <Gold.Chemscore.Hbonds>
donor molecule, donor type, donor heavy atom, donor atom, acceptor molecule, acceptor atom, score
      P1  H  6931  6943       L1    15  1.00
      P1  H  6934  6947       L1    17  0.17

> <Gold.PLP.Chemscore.Internal.Correction>
1.4159

> <Gold.Rescore>
     Score         DG    S(hbond)    S(metal)    S(lipo)     H(rot)  DE(clash)    DE(int)     intcor
     14.60     -17.73       1.15        0.00     105.97       1.55       0.05       3.08       ----

> <Gold.Chemscore.Fitness>
14.5987

> <Gold.Chemscore.DG>
-17.7292

> <Gold.Chemscore.ZeroCoef>
-5.4800

> <Gold.Chemscore.Hbond>
1.1460

> <Gold.Chemscore.Metal>
0.0000

> <Gold.Chemscore.Lipo>
105.9729

> <Gold.Chemscore.Internal_Hbond>
0.0000

> <Gold.Chemscore.DEClash>
0.0507

> <Gold.Chemscore.DEInternal>
3.0798

> <Gold.Chemscore.Rot>
1.5537

> <Gold.Chemscore.Internal.Correction>
   9.000000E+99

> <Gold.Chemscore.Hbonds>
donor molecule, donor type, donor heavy atom, donor atom, acceptor molecule, acceptor atom, score
      P1  H  6931  6943       L1    15  0.89
      P1  H  6934  6947       L1    17  0.04

> <Gold.Chemscore.Hbond.Weighted>
-3.8277

> <Gold.Chemscore.Metal.Weighted>
-0.0000

> <Gold.Chemscore.Lipo.Weighted>
-12.3988

> <Gold.Chemscore.Internal_Hbond.Weighted>
0.0000

> <Gold.Chemscore.DEClash.Weighted>
0.0507

> <Gold.Chemscore.DEInternal.Weighted>
3.0798

> <Gold.Chemscore.Rot.Weighted>
3.9774

> <Gold.Chemscore.Internal.Correction.Weighted>
   9.000000E+99

> <Gold.Protein.RotatedTorsions>
[ 6907 6896 6895 6894 ] final  141.72 input  -60.11 | X-H torsion
[ 7974 7965 7964 7962 ] final  -38.04 input  175.53 | X-H torsion
[ 8008 7997 7996 7995 ] final   45.85 input   59.86 | X-H torsion
[ 10167 10162 10161 10158 ] final  -90.85 input  -65.29 | X-H torsion
[ 10718 10713 10712 10709 ] final   37.86 input   66.30 | X-H torsion
[ 10763 10752 10751 10750 ] final   43.22 input  -60.55 | X-H torsion
[ 11005 11000 10999 10996 ] final  -81.53 input  -57.11 | X-H torsion

> <Gold.Protein.ActiveResidues>
 VAL166  LYS551  ARG553  GLY616  TRP617  ASP618  TYR619  PRO620  LYS621  CYS622 
 ASP623  PHE694  ASN695  SER759  ASP760  ASP761  ALA762  ILE779  LEU786  VAL792 
 PHE793  MET794  SER795  GLU796  ALA797  LYS798  CYS799  TRP800  GLU811  SER814 

> <Gold.Protein.RotatedAtoms>
  152.2275  133.5032  159.5196 H   0  0  0  0  0  0  0  0  0  0  0  0  # atno 6907 bound_to 6896
  150.7028  134.1260  159.4061 H   0  0  0  0  0  0  0  0  0  0  0  0  # atno 6908 bound_to 6896
  151.9181  135.0310  160.0570 H   0  0  0  0  0  0  0  0  0  0  0  0  # atno 6909 bound_to 6896
  146.0522  140.6465  142.9036 H   0  0  0  0  0  0  0  0  0  0  0  0  # atno 7974 bound_to 7965
  155.3427  140.3409  155.4239 H   0  0  0  0  0  0  0  0  0  0  0  0  # atno 8008 bound_to 7997
  156.1805  140.1662  156.8319 H   0  0  0  0  0  0  0  0  0  0  0  0  # atno 8009 bound_to 7997
  154.5328  140.0741  156.8358 H   0  0  0  0  0  0  0  0  0  0  0  0  # atno 8010 bound_to 7997
  140.3508  143.2892  151.9728 H   0  0  0  0  0  0  0  0  0  0  0  0  # atno 10167 bound_to 10162
  157.3520  130.7603  149.6985 H   0  0  0  0  0  0  0  0  0  0  0  0  # atno 10718 bound_to 10713
  152.9865  135.6108  154.3076 H   0  0  0  0  0  0  0  0  0  0  0  0  # atno 10763 bound_to 10752
  154.2793  135.2777  155.2706 H   0  0  0  0  0  0  0  0  0  0  0  0  # atno 10764 bound_to 10752
  154.5052  135.5856  153.6618 H   0  0  0  0  0  0  0  0  0  0  0  0  # atno 10765 bound_to 10752
  141.1666  133.7201  156.8436 H   0  0  0  0  0  0  0  0  0  0  0  0  # atno 11005 bound_to 11000
  144.7129  140.4103  143.7067 LP  0  0  0  0  0  0  0  0  0  0  0  0  # atno 17320 bound_to 7965
  145.6705  139.1598  143.2757 LP  0  0  0  0  0  0  0  0  0  0  0  0  # atno 17321 bound_to 7965
  139.4827  144.6078  151.7490 LP  0  0  0  0  0  0  0  0  0  0  0  0  # atno 17342 bound_to 10162
  140.5221  144.0863  150.6026 LP  0  0  0  0  0  0  0  0  0  0  0  0  # atno 17343 bound_to 10162
  155.9723  130.4138  150.4099 LP  0  0  0  0  0  0  0  0  0  0  0  0  # atno 17370 bound_to 10713
  157.2163  131.0472  151.2571 LP  0  0  0  0  0  0  0  0  0  0  0  0  # atno 17371 bound_to 10713
  140.1966  134.8927  157.3121 LP  0  0  0  0  0  0  0  0  0  0  0  0  # atno 17394 bound_to 11000
  140.2233  134.3997  155.7556 LP  0  0  0  0  0  0  0  0  0  0  0  0  # atno 17395 bound_to 11000

$$$$
