AV-unprocessed.smi:199|AV-procd|sdf|1565|dock2
  -GOLD-   2262019443D 1   1.00000     0.00000
 Structure written by MMmdl.
 51 55  0  0  0  0  0  0  0  0  1 V2000
  150.7634  138.4220  153.8069 C   0  0  0  0  0  0  0  0  0  0  0  0
  150.5336  139.2620  155.0737 C   0  0  1  0  0  0  0  0  0  0  0  0
  151.7682  139.7398  155.5888 O   0  0  0  0  0  0  0  0  0  0  0  0
  151.4630  140.7949  156.4824 C   0  0  0  0  0  0  0  0  0  0  0  0
  150.4128  141.5893  155.7158 C   0  0  0  0  0  0  0  0  0  0  0  0
  149.6399  140.5231  154.9331 C   0  0  1  0  0  0  0  0  0  0  0  0
  149.5425  140.9522  153.5847 O   0  0  0  0  0  0  0  0  0  0  0  0
  148.2059  140.3203  155.4824 C   0  0  0  0  0  0  0  0  0  0  0  0
  147.3836  139.4496  154.6550 N   0  0  0  0  0  0  0  0  0  0  0  0
  146.7235  139.7940  153.4975 C   0  0  0  0  0  0  0  0  0  0  0  0
  146.0554  138.8282  152.9304 N   0  0  0  0  0  0  0  0  0  0  0  0
  146.2524  137.7352  153.7660 C   0  0  0  0  0  0  0  0  0  0  0  0
  145.8183  136.3776  153.7523 C   0  0  0  0  0  0  0  0  0  0  0  0
  145.0181  135.8503  152.7856 N   0  0  0  0  0  0  0  0  0  0  0  0
  145.3774  135.9515  151.3768 C   0  0  2  0  0  0  0  0  0  0  0  0
  144.1124  135.4233  150.6809 C   0  0  0  0  0  0  0  0  0  0  0  0
  143.6621  134.3366  151.6687 C   0  0  0  0  0  0  0  0  0  0  0  0
  144.7687  134.4168  152.7388 C   0  0  1  0  0  0  0  0  0  0  0  0
  146.1125  133.8421  152.2207 C   0  0  1  0  0  0  0  0  0  0  0  0
  146.1039  132.4016  151.6760 C   0  0  0  0  0  0  0  0  0  0  0  0
  147.0151  132.2775  150.6053 O   0  0  0  0  0  0  0  0  0  0  0  0
  146.5098  134.9171  151.1929 C   0  0  0  0  0  0  0  0  0  0  0  0
  146.2594  135.5743  154.7568 N   0  0  0  0  0  0  0  0  0  0  0  0
  147.0416  136.0626  155.7229 C   0  0  0  0  0  0  0  0  0  0  0  0
  147.5060  137.3036  155.8715 N   0  0  0  0  0  0  0  0  0  0  0  0
  147.0888  138.1120  154.8561 C   0  0  0  0  0  0  0  0  0  0  0  0
  149.8192  138.0637  153.3960 H   0  0  0  0  0  0  0  0  0  0  0  0
  151.3787  137.5501  154.0292 H   0  0  0  0  0  0  0  0  0  0  0  0
  151.2745  138.9948  153.0327 H   0  0  0  0  0  0  0  0  0  0  0  0
  150.1222  138.6127  155.8473 H   0  0  0  0  0  0  0  0  0  0  0  0
  151.0508  140.3890  157.4078 H   0  0  0  0  0  0  0  0  0  0  0  0
  152.3455  141.3865  156.7262 H   0  0  0  0  0  0  0  0  0  0  0  0
  149.7838  142.1873  156.3762 H   0  0  0  0  0  0  0  0  0  0  0  0
  150.9223  142.2791  155.0407 H   0  0  0  0  0  0  0  0  0  0  0  0
  149.3737  140.1982  153.0410 H   0  0  0  0  0  0  0  0  0  0  0  0
  148.2477  139.8974  156.4870 H   0  0  0  0  0  0  0  0  0  0  0  0
  147.6957  141.2795  155.5797 H   0  0  0  0  0  0  0  0  0  0  0  0
  146.7606  140.7888  153.0783 H   0  0  0  0  0  0  0  0  0  0  0  0
  145.6468  136.9540  151.0419 H   0  0  0  0  0  0  0  0  0  0  0  0
  143.3554  136.2043  150.5995 H   0  0  0  0  0  0  0  0  0  0  0  0
  144.3100  135.0354  149.6810 H   0  0  0  0  0  0  0  0  0  0  0  0
  142.6971  134.6018  152.1026 H   0  0  0  0  0  0  0  0  0  0  0  0
  143.5536  133.3539  151.2124 H   0  0  0  0  0  0  0  0  0  0  0  0
  144.4523  133.9697  153.6795 H   0  0  0  0  0  0  0  0  0  0  0  0
  146.8324  133.8762  153.0407 H   0  0  0  0  0  0  0  0  0  0  0  0
  146.3408  131.6686  152.4461 H   0  0  0  0  0  0  0  0  0  0  0  0
  145.1083  132.1533  151.3083 H   0  0  0  0  0  0  0  0  0  0  0  0
  147.6372  131.5986  150.8173 H   0  0  0  0  0  0  0  0  0  0  0  0
  146.5629  134.5399  150.1707 H   0  0  0  0  0  0  0  0  0  0  0  0
  147.4828  135.3428  151.4407 H   0  0  0  0  0  0  0  0  0  0  0  0
  147.3380  135.3580  156.4857 H   0  0  0  0  0  0  0  0  0  0  0  0
  1  2  1  0  0  0  0
  1 27  1  0  0  0  0
  1 28  1  0  0  0  0
  1 29  1  0  0  0  0
  2  6  1  0  0  0  0
  2  3  1  0  0  0  0
  2 30  1  0  0  0  0
  3  4  1  0  0  0  0
  4  5  1  0  0  0  0
  4 31  1  0  0  0  0
  4 32  1  0  0  0  0
  5  6  1  0  0  0  0
  5 33  1  0  0  0  0
  5 34  1  0  0  0  0
  6  7  1  0  0  0  0
  6  8  1  0  0  0  0
  7 35  1  0  0  0  0
  8  9  1  0  0  0  0
  8 36  1  0  0  0  0
  8 37  1  0  0  0  0
  9 26  1  0  0  0  0
  9 10  1  0  0  0  0
 10 11  2  0  0  0  0
 10 38  1  0  0  0  0
 11 12  1  0  0  0  0
 12 26  2  0  0  0  0
 12 13  1  0  0  0  0
 13 14  1  0  0  0  0
 13 23  2  0  0  0  0
 14 18  1  0  0  0  0
 14 15  1  0  0  0  0
 15 22  1  0  0  0  0
 15 16  1  0  0  0  0
 15 39  1  0  0  0  0
 16 17  1  0  0  0  0
 16 40  1  0  0  0  0
 16 41  1  0  0  0  0
 17 18  1  0  0  0  0
 17 42  1  0  0  0  0
 17 43  1  0  0  0  0
 18 19  1  0  0  0  0
 18 44  1  0  0  0  0
 19 20  1  0  0  0  0
 19 22  1  0  0  0  0
 19 45  1  0  0  0  0
 20 21  1  0  0  0  0
 20 46  1  0  0  0  0
 20 47  1  0  0  0  0
 21 48  1  0  0  0  0
 22 49  1  0  0  0  0
 22 50  1  0  0  0  0
 23 24  1  0  0  0  0
 24 25  2  0  0  0  0
 24 51  1  0  0  0  0
 25 26  1  0  0  0  0
M  END
> <s_m_source_file>
AV-unprocessed.smi

> <i_m_source_file_index>
199

> <i_lp_mmshare_version>
43012

> <i_f3d_flags>
0

> <s_epik_input>
W0NIMl0xW0NIMl1PW0NAQEhdKFtDSDNdKVtDQEBdMShbT0hdKVtDSDJdbihbY0hdbjIpYyhjMjMpbltjSF1uYzNOKFtDQEBIXTQ1KVtDQEhdKFtDSDJdW0NIMl00KVtDQEhdKFtDSDJdNSlbQ0gyXVtPSF0=

> <s_epik_cmdline>
J2VwaWtfcHl0aG9uJywgJy1waCcsICc3LjAnLCAnLXRuJywgJzgnLCAnLW1hJywgJzIwMCcsICctbWV0YWxfYmluZGluZycsICctaW1hZScsICc8aW5maWxlLm1hZT4nLCAnLW9tYWUnLCAnPG91dGZpbGUubWFlPic=

> <r_lp_tautomer_probability>
1

> <r_epik_Ionization_Penalty>
0.00583903

> <r_epik_Ionization_Penalty_Charging>
0

> <r_epik_Ionization_Penalty_Neutral>
0.00583903

> <r_epik_State_Penalty>
-0

> <r_epik_Charging_Adjusted_Penalty>
0

> <i_epik_Tot_Q>
0

> <i_epik_Tot_abs_Q>
0

> <r_epik_Metal_State_Penalty>
-0

> <b_epik_Metal_Only>
0

> <s_lp_Force_Field>
OPLS_2005

> <r_lp_Energy>
84.4473

> <b_lp_Chiralities_Consistent>
1

> <s_lp_Variant>
AV-unprocessed.smi:199-6

> <Gold.Version>
5.8.1

> <Gold.Id.Protein>
6NUR|6NUR_protein|mol2

> <Gold.PLP.Fitness>
36.6487

> <Gold.PLP.PLP>
-31.0417

> <Gold.PLP.part.hbond>
-3.9387

> <Gold.PLP.part.metal>
0.0000

> <Gold.PLP.part.buried>
-4.9281

> <Gold.PLP.part.nonpolar>
-22.7217

> <Gold.PLP.part.repulsive>
1.7142

> <Gold.PLP.ligand.clash>
0.0000

> <Gold.PLP.ligand.torsion>
0.8751

> <Gold.PLP.Chemscore.Hbond>
2.4363

> <Gold.PLP.Chemscore.CHOScore>
0.0000

> <Gold.PLP.Chemscore.Metal>
0.0000

> <Gold.Chemscore.Hbonds>
donor molecule, donor type, donor heavy atom, donor atom, acceptor molecule, acceptor atom, score
      L1  H     7    35       P1  7957  0.54
      L1  H    21    48       P1 10747  0.85
      P1  H  7989  7998       L1     7  0.11
      P1  H  8011  8017       L1     7  1.00

> <Gold.PLP.Chemscore.Internal.Correction>
0.0485

> <Gold.Rescore>
     Score         DG    S(hbond)    S(metal)    S(lipo)     H(rot)  DE(clash)    DE(int)     intcor
      9.90     -13.47       1.96        0.00      79.54       3.07       1.80       1.78       ----

> <Gold.Chemscore.Fitness>
9.9019

> <Gold.Chemscore.DG>
-13.4746

> <Gold.Chemscore.ZeroCoef>
-5.4800

> <Gold.Chemscore.Hbond>
1.9625

> <Gold.Chemscore.Metal>
0.0000

> <Gold.Chemscore.Lipo>
79.5424

> <Gold.Chemscore.Internal_Hbond>
0.0000

> <Gold.Chemscore.DEClash>
1.7973

> <Gold.Chemscore.DEInternal>
1.7754

> <Gold.Chemscore.Rot>
3.0729

> <Gold.Chemscore.Internal.Correction>
   9.000000E+99

> <Gold.Chemscore.Hbonds>
donor molecule, donor type, donor heavy atom, donor atom, acceptor molecule, acceptor atom, score
      L1  H     7    35       P1  7957  0.56
      L1  H    21    48       P1 10747  0.83
      P1  H  8011  8017       L1     7  0.48

> <Gold.Chemscore.Hbond.Weighted>
-6.5549

> <Gold.Chemscore.Metal.Weighted>
-0.0000

> <Gold.Chemscore.Lipo.Weighted>
-9.3065

> <Gold.Chemscore.Internal_Hbond.Weighted>
0.0000

> <Gold.Chemscore.DEClash.Weighted>
1.7973

> <Gold.Chemscore.DEInternal.Weighted>
1.7754

> <Gold.Chemscore.Rot.Weighted>
7.8667

> <Gold.Chemscore.Internal.Correction.Weighted>
   9.000000E+99

> <Gold.Protein.RotatedTorsions>
[ 6907 6896 6895 6894 ] final   79.54 input  -60.11 | X-H torsion
[ 7974 7965 7964 7962 ] final   16.71 input  175.53 | X-H torsion
[ 8008 7997 7996 7995 ] final  -21.78 input   59.86 | X-H torsion
[ 10167 10162 10161 10158 ] final  -84.25 input  -65.29 | X-H torsion
[ 10718 10713 10712 10709 ] final  -95.72 input   66.30 | X-H torsion
[ 10763 10752 10751 10750 ] final   48.21 input  -60.55 | X-H torsion
[ 11005 11000 10999 10996 ] final  160.40 input  -57.11 | X-H torsion

> <Gold.Protein.ActiveResidues>
 VAL166  LYS551  ARG553  GLY616  TRP617  ASP618  TYR619  PRO620  LYS621  CYS622 
 ASP623  PHE694  ASN695  SER759  ASP760  ASP761  ALA762  ILE779  LEU786  VAL792 
 PHE793  MET794  SER795  GLU796  ALA797  LYS798  CYS799  TRP800  GLU811  SER814 

> <Gold.Protein.RotatedAtoms>
  152.5202  134.3495  159.9245 H   0  0  0  0  0  0  0  0  0  0  0  0  # atno 6907 bound_to 6896
  151.3445  133.3943  159.2682 H   0  0  0  0  0  0  0  0  0  0  0  0  # atno 6908 bound_to 6896
  150.9776  134.9156  159.7883 H   0  0  0  0  0  0  0  0  0  0  0  0  # atno 6909 bound_to 6896
  146.2241  139.8708  142.8588 H   0  0  0  0  0  0  0  0  0  0  0  0  # atno 7974 bound_to 7965
  154.4684  140.2025  156.0057 H   0  0  0  0  0  0  0  0  0  0  0  0  # atno 8008 bound_to 7997
  156.0968  140.3250  155.7859 H   0  0  0  0  0  0  0  0  0  0  0  0  # atno 8009 bound_to 7997
  155.4864  140.0542  157.2950 H   0  0  0  0  0  0  0  0  0  0  0  0  # atno 8010 bound_to 7997
  140.4150  143.2607  151.8966 H   0  0  0  0  0  0  0  0  0  0  0  0  # atno 10167 bound_to 10162
  156.0048  130.5121  150.6119 H   0  0  0  0  0  0  0  0  0  0  0  0  # atno 10718 bound_to 10713
  152.9793  135.5951  154.3889 H   0  0  0  0  0  0  0  0  0  0  0  0  # atno 10763 bound_to 10752
  154.3546  135.2767  155.2355 H   0  0  0  0  0  0  0  0  0  0  0  0  # atno 10764 bound_to 10752
  154.4379  135.6020  153.6165 H   0  0  0  0  0  0  0  0  0  0  0  0  # atno 10765 bound_to 10752
  140.2056  134.8305  157.3065 H   0  0  0  0  0  0  0  0  0  0  0  0  # atno 11005 bound_to 11000
  145.2610  141.0077  143.3826 LP  0  0  0  0  0  0  0  0  0  0  0  0  # atno 17320 bound_to 7965
  144.9299  139.4311  143.6500 LP  0  0  0  0  0  0  0  0  0  0  0  0  # atno 17321 bound_to 7965
  139.4782  144.5497  151.8404 LP  0  0  0  0  0  0  0  0  0  0  0  0  # atno 17342 bound_to 10162
  140.4596  144.1741  150.5905 LP  0  0  0  0  0  0  0  0  0  0  0  0  # atno 17343 bound_to 10162
  157.3950  131.0801  151.1360 LP  0  0  0  0  0  0  0  0  0  0  0  0  # atno 17370 bound_to 10713
  157.2040  130.6407  149.5749 LP  0  0  0  0  0  0  0  0  0  0  0  0  # atno 17371 bound_to 10713
  140.2006  134.4259  155.7664 LP  0  0  0  0  0  0  0  0  0  0  0  0  # atno 17394 bound_to 11000
  141.2227  133.7070  156.8178 LP  0  0  0  0  0  0  0  0  0  0  0  0  # atno 17395 bound_to 11000

$$$$
