AV-unprocessed.smi:1323|AV-procd|sdf|5466|dock2
  -GOLD-   22720 5 33D 1   1.00000     0.00000
 Structure written by MMmdl.
 45 46  0  0  0  0  0  0  0  0  1 V2000
  148.1563  138.7216  153.9953 C   0  0  0  0  0  0  0  0  0  0  0  0
  149.5879  139.2010  154.2828 C   0  0  1  0  0  0  0  0  0  0  0  0
  149.6630  140.0266  155.5850 C   0  0  0  0  0  0  0  0  0  0  0  0
  151.0880  140.5405  155.8480 C   0  0  0  0  0  0  0  0  0  0  0  0
  152.1107  139.3933  155.8476 C   0  0  0  0  0  0  0  0  0  0  0  0
  152.0274  138.5723  154.5516 C   0  0  0  0  0  0  0  0  0  0  0  0
  150.5995  138.0329  154.3146 C   0  0  1  0  0  0  0  0  0  0  0  0
  150.1806  137.1482  155.3471 O   0  0  0  0  0  0  0  0  0  0  0  0
  150.6341  135.8067  155.2603 C   0  0  0  0  0  0  0  0  0  0  0  0
  150.5776  135.1778  156.6613 C   0  0  0  0  0  0  0  0  0  0  0  0
  149.3583  135.5521  157.3730 N   0  0  0  0  0  0  0  0  0  0  0  0
  149.3184  136.2905  158.4938 C   0  0  0  0  0  0  0  0  0  0  0  0
  150.3233  136.7677  159.0227 O   0  0  0  0  0  0  0  0  0  0  0  0
  147.9310  136.5473  159.0969 C   0  0  0  0  0  0  0  0  0  0  0  0
  147.6567  135.6789  160.2538 N   0  0  0  0  0  0  0  0  0  0  0  0
  147.9006  134.2999  160.0949 C   0  0  0  0  0  0  0  0  0  0  0  0
  147.6543  133.4174  161.0760 C   0  0  0  0  0  0  0  0  0  0  0  0
  147.1228  133.9141  162.3232 C   0  0  0  0  0  0  0  0  0  0  0  0
  146.8894  135.2315  162.4871 C   0  0  0  0  0  0  0  0  0  0  0  0
  147.1650  136.2002  161.4200 C   0  0  0  0  0  0  0  0  0  0  0  0
  146.9662  137.4060  161.5666 O   0  0  0  0  0  0  0  0  0  0  0  0
  147.7810  138.0791  154.7926 H   0  0  0  0  0  0  0  0  0  0  0  0
  148.1109  138.1575  153.0634 H   0  0  0  0  0  0  0  0  0  0  0  0
  147.4727  139.5659  153.9028 H   0  0  0  0  0  0  0  0  0  0  0  0
  149.8721  139.8588  153.4601 H   0  0  0  0  0  0  0  0  0  0  0  0
  148.9768  140.8724  155.5318 H   0  0  0  0  0  0  0  0  0  0  0  0
  149.3334  139.4199  156.4296 H   0  0  0  0  0  0  0  0  0  0  0  0
  151.3583  141.2685  155.0821 H   0  0  0  0  0  0  0  0  0  0  0  0
  151.1225  141.0685  156.8014 H   0  0  0  0  0  0  0  0  0  0  0  0
  153.1172  139.7933  155.9721 H   0  0  0  0  0  0  0  0  0  0  0  0
  151.9320  138.7375  156.6996 H   0  0  0  0  0  0  0  0  0  0  0  0
  152.3140  139.2045  153.7103 H   0  0  0  0  0  0  0  0  0  0  0  0
  152.7576  137.7642  154.5702 H   0  0  0  0  0  0  0  0  0  0  0  0
  150.5652  137.5047  153.3605 H   0  0  0  0  0  0  0  0  0  0  0  0
  149.9992  135.2412  154.5771 H   0  0  0  0  0  0  0  0  0  0  0  0
  151.6538  135.7637  154.8780 H   0  0  0  0  0  0  0  0  0  0  0  0
  150.6691  134.0923  156.5957 H   0  0  0  0  0  0  0  0  0  0  0  0
  151.4284  135.5220  157.2493 H   0  0  0  0  0  0  0  0  0  0  0  0
  148.4863  135.2058  157.0000 H   0  0  0  0  0  0  0  0  0  0  0  0
  147.8762  137.5966  159.3896 H   0  0  0  0  0  0  0  0  0  0  0  0
  147.1624  136.4241  158.3313 H   0  0  0  0  0  0  0  0  0  0  0  0
  148.2879  134.0102  159.1288 H   0  0  0  0  0  0  0  0  0  0  0  0
  147.8420  132.3632  160.9340 H   0  0  0  0  0  0  0  0  0  0  0  0
  146.9083  133.2260  163.1276 H   0  0  0  0  0  0  0  0  0  0  0  0
  146.4888  135.5849  163.4259 H   0  0  0  0  0  0  0  0  0  0  0  0
  1  2  1  0  0  0  0
  1 22  1  0  0  0  0
  1 23  1  0  0  0  0
  1 24  1  0  0  0  0
  2  7  1  0  0  0  0
  2  3  1  0  0  0  0
  2 25  1  0  0  0  0
  3  4  1  0  0  0  0
  3 26  1  0  0  0  0
  3 27  1  0  0  0  0
  4  5  1  0  0  0  0
  4 28  1  0  0  0  0
  4 29  1  0  0  0  0
  5  6  1  0  0  0  0
  5 30  1  0  0  0  0
  5 31  1  0  0  0  0
  6  7  1  0  0  0  0
  6 32  1  0  0  0  0
  6 33  1  0  0  0  0
  7  8  1  0  0  0  0
  7 34  1  0  0  0  0
  8  9  1  0  0  0  0
  9 10  1  0  0  0  0
  9 35  1  0  0  0  0
  9 36  1  0  0  0  0
 10 11  1  0  0  0  0
 10 37  1  0  0  0  0
 10 38  1  0  0  0  0
 11 12  1  0  0  0  0
 11 39  1  0  0  0  0
 12 13  2  0  0  0  0
 12 14  1  0  0  0  0
 14 15  1  0  0  0  0
 14 40  1  0  0  0  0
 14 41  1  0  0  0  0
 15 20  1  0  0  0  0
 15 16  1  0  0  0  0
 16 17  2  0  0  0  0
 16 42  1  0  0  0  0
 17 18  1  0  0  0  0
 17 43  1  0  0  0  0
 18 19  2  0  0  0  0
 18 44  1  0  0  0  0
 19 20  1  0  0  0  0
 19 45  1  0  0  0  0
 20 21  2  0  0  0  0
M  END
> <s_m_source_file>
AV-unprocessed.smi

> <i_m_source_file_index>
1323

> <i_lp_mmshare_version>
43012

> <i_f3d_flags>
0

> <s_epik_input>
W0NIM11bQ0BASF0xW0NIMl1bQ0gyXVtDSDJdW0NIMl1bQ0BIXTFPW0NIMl1bQ0gyXVtOSF1DKD1PKVtDSDJdbjJbY0hdW2NIXVtjSF1bY0hdYzI9Tw==

> <s_epik_cmdline>
J2VwaWtfcHl0aG9uJywgJy1waCcsICc3LjAnLCAnLXRuJywgJzgnLCAnLW1hJywgJzIwMCcsICctbWV0YWxfYmluZGluZycsICctaW1hZScsICc8aW5maWxlLm1hZT4nLCAnLW9tYWUnLCAnPG91dGZpbGUubWFlPic=

> <r_lp_tautomer_probability>
1

> <r_epik_Ionization_Penalty>
4.02412e-07

> <r_epik_Ionization_Penalty_Charging>
3.74552e-07

> <r_epik_Ionization_Penalty_Neutral>
2.78599e-08

> <r_epik_State_Penalty>
-0

> <r_epik_Charging_Adjusted_Penalty>
3.74552e-07

> <i_epik_Tot_Q>
0

> <i_epik_Tot_abs_Q>
0

> <r_epik_Metal_State_Penalty>
-0

> <b_epik_Metal_Only>
0

> <s_lp_Force_Field>
OPLS_2005

> <r_lp_Energy>
18.6453

> <b_lp_Chiralities_Consistent>
1

> <s_lp_Variant>
AV-unprocessed.smi:1323-2

> <Gold.Version>
5.8.1

> <Gold.Id.Protein>
6NUR|6NUR_protein|mol2

> <Gold.PLP.Fitness>
48.2515

> <Gold.PLP.PLP>
-42.0800

> <Gold.PLP.part.hbond>
-3.0000

> <Gold.PLP.part.metal>
0.0000

> <Gold.PLP.part.buried>
-3.9500

> <Gold.PLP.part.nonpolar>
-35.9964

> <Gold.PLP.part.repulsive>
0.1767

> <Gold.PLP.ligand.clash>
0.0000

> <Gold.PLP.ligand.torsion>
0.7947

> <Gold.PLP.Chemscore.Hbond>
2.5520

> <Gold.PLP.Chemscore.CHOScore>
0.0000

> <Gold.PLP.Chemscore.Metal>
0.0000

> <Gold.Chemscore.Hbonds>
donor molecule, donor type, donor heavy atom, donor atom, acceptor molecule, acceptor atom, score
      P1  H  6896  6907       L1    13  0.93
      P1  H  6931  6943       L1    21  0.32
      P1  H  6934  6947       L1    21  0.99

> <Gold.PLP.Chemscore.Internal.Correction>
0.1048

> <Gold.Rescore>
     Score         DG    S(hbond)    S(metal)    S(lipo)     H(rot)  DE(clash)    DE(int)     intcor
     18.20     -19.17       2.54        0.00      86.79       1.94       0.08       0.89       ----

> <Gold.Chemscore.Fitness>
18.1992

> <Gold.Chemscore.DG>
-19.1657

> <Gold.Chemscore.ZeroCoef>
-5.4800

> <Gold.Chemscore.Hbond>
2.5442

> <Gold.Chemscore.Metal>
0.0000

> <Gold.Chemscore.Lipo>
86.7856

> <Gold.Chemscore.Internal_Hbond>
0.0000

> <Gold.Chemscore.DEClash>
0.0779

> <Gold.Chemscore.DEInternal>
0.8885

> <Gold.Chemscore.Rot>
1.9398

> <Gold.Chemscore.Internal.Correction>
   9.000000E+99

> <Gold.Chemscore.Hbonds>
donor molecule, donor type, donor heavy atom, donor atom, acceptor molecule, acceptor atom, score
      P1  H  6896  6907       L1    13  0.35
      P1  H  6931  6943       L1    21  0.14
      P1  H  6934  6947       L1    21  0.94

> <Gold.Chemscore.Hbond.Weighted>
-8.4977

> <Gold.Chemscore.Metal.Weighted>
-0.0000

> <Gold.Chemscore.Lipo.Weighted>
-10.1539

> <Gold.Chemscore.Internal_Hbond.Weighted>
0.0000

> <Gold.Chemscore.DEClash.Weighted>
0.0779

> <Gold.Chemscore.DEInternal.Weighted>
0.8885

> <Gold.Chemscore.Rot.Weighted>
4.9659

> <Gold.Chemscore.Internal.Correction.Weighted>
   9.000000E+99

> <Gold.Protein.RotatedTorsions>
[ 6907 6896 6895 6894 ] final  -20.89 input  -60.11 | X-H torsion
[ 7974 7965 7964 7962 ] final  145.23 input  175.53 | X-H torsion
[ 8008 7997 7996 7995 ] final  -16.24 input   59.86 | X-H torsion
[ 10167 10162 10161 10158 ] final   11.98 input  -65.29 | X-H torsion
[ 10718 10713 10712 10709 ] final   67.56 input   66.30 | X-H torsion
[ 10763 10752 10751 10750 ] final   60.60 input  -60.55 | X-H torsion
[ 11005 11000 10999 10996 ] final   22.40 input  -57.11 | X-H torsion

> <Gold.Protein.ActiveResidues>
 VAL166  LYS551  ARG553  GLY616  TRP617  ASP618  TYR619  PRO620  LYS621  CYS622 
 ASP623  PHE694  ASN695  SER759  ASP760  ASP761  ALA762  ILE779  LEU786  VAL792 
 PHE793  MET794  SER795  GLU796  ALA797  LYS798  CYS799  TRP800  GLU811  SER814 

> <Gold.Protein.RotatedAtoms>
  151.2415  135.0590  159.9026 H   0  0  0  0  0  0  0  0  0  0  0  0  # atno 6907 bound_to 6896
  152.5392  134.0429  159.8086 H   0  0  0  0  0  0  0  0  0  0  0  0  # atno 6908 bound_to 6896
  151.0624  133.5484  159.2664 H   0  0  0  0  0  0  0  0  0  0  0  0  # atno 6909 bound_to 6896
  144.8769  139.5758  143.5861 H   0  0  0  0  0  0  0  0  0  0  0  0  # atno 7974 bound_to 7965
  154.5068  140.2175  155.9235 H   0  0  0  0  0  0  0  0  0  0  0  0  # atno 8008 bound_to 7997
  156.1503  140.3162  155.8604 H   0  0  0  0  0  0  0  0  0  0  0  0  # atno 8009 bound_to 7997
  155.3951  140.0480  157.3030 H   0  0  0  0  0  0  0  0  0  0  0  0  # atno 8010 bound_to 7997
  140.6097  143.8433  150.7052 H   0  0  0  0  0  0  0  0  0  0  0  0  # atno 10167 bound_to 10162
  157.6238  130.9327  150.0259 H   0  0  0  0  0  0  0  0  0  0  0  0  # atno 10718 bound_to 10713
  152.9926  135.5530  154.5900 H   0  0  0  0  0  0  0  0  0  0  0  0  # atno 10763 bound_to 10752
  154.5264  135.2811  155.1220 H   0  0  0  0  0  0  0  0  0  0  0  0  # atno 10764 bound_to 10752
  154.2553  135.6391  153.5307 H   0  0  0  0  0  0  0  0  0  0  0  0  # atno 10765 bound_to 10752
  140.3810  134.1921  155.7663 H   0  0  0  0  0  0  0  0  0  0  0  0  # atno 11005 bound_to 11000
  146.2969  139.7305  142.9120 LP  0  0  0  0  0  0  0  0  0  0  0  0  # atno 17320 bound_to 7965
  145.4025  141.0387  143.3062 LP  0  0  0  0  0  0  0  0  0  0  0  0  # atno 17321 bound_to 7965
  140.1998  143.3968  152.1800 LP  0  0  0  0  0  0  0  0  0  0  0  0  # atno 17342 bound_to 10162
  139.5352  144.7202  151.4918 LP  0  0  0  0  0  0  0  0  0  0  0  0  # atno 17343 bound_to 10162
  156.1398  130.3642  149.9600 LP  0  0  0  0  0  0  0  0  0  0  0  0  # atno 17370 bound_to 10713
  156.7644  130.9163  151.3642 LP  0  0  0  0  0  0  0  0  0  0  0  0  # atno 17371 bound_to 10713
  141.1923  133.8175  157.0843 LP  0  0  0  0  0  0  0  0  0  0  0  0  # atno 17394 bound_to 11000
  140.0479  134.9821  157.1082 LP  0  0  0  0  0  0  0  0  0  0  0  0  # atno 17395 bound_to 11000

$$$$
