AV-unprocessed.smi:148|AV-procd|sdf|1231|dock10
  -GOLD-   2262018433D 1   1.00000     0.00000
 Structure written by MMmdl.
 63 67  0  0  0  0  0  0  0  0  1 V2000
  154.1951  138.7641  158.2001 O   0  0  0  0  0  0  0  0  0  0  0  0
  153.4582  139.5809  159.0871 C   0  0  0  0  0  0  0  0  0  0  0  0
  152.3805  140.4069  158.3356 C   0  0  1  0  0  0  0  0  0  0  0  0
  151.4456  139.4995  157.4899 C   0  0  0  0  0  0  0  0  0  0  0  0
  150.6785  138.5540  158.2815 N   0  0  0  0  0  0  0  0  0  0  0  0
  151.1737  137.6334  159.1767 C   0  0  0  0  0  0  0  0  0  0  0  0
  150.2744  136.8931  159.7649 N   0  0  0  0  0  0  0  0  0  0  0  0
  149.0681  137.3369  159.2354 C   0  0  0  0  0  0  0  0  0  0  0  0
  147.7031  136.9709  159.4155 C   0  0  0  0  0  0  0  0  0  0  0  0
  147.2594  135.9949  160.2422 N   0  0  0  0  0  0  0  0  0  0  0  0
  147.4694  136.4069  161.6313 C   0  0  0  0  0  0  0  0  0  0  0  0
  146.7661  135.4637  162.6160 C   0  0  0  0  0  0  0  0  0  0  0  0
  147.2029  134.0162  162.3714 C   0  0  0  0  0  0  0  0  0  0  0  0
  146.9293  133.6364  160.9110 C   0  0  0  0  0  0  0  0  0  0  0  0
  147.6379  134.6037  159.9266 C   0  0  1  0  0  0  0  0  0  0  0  0
  147.4229  134.2161  158.4268 C   0  0  1  0  0  0  0  0  0  0  0  0
  146.1466  134.8026  157.7933 C   0  0  0  0  0  0  0  0  0  0  0  0
  146.4416  134.9785  156.2947 C   0  0  0  0  0  0  0  0  0  0  0  0
  147.8600  134.4465  156.0712 C   0  0  0  0  0  0  0  0  0  0  0  0
  148.5391  134.5828  157.4335 C   0  0  2  0  0  0  0  0  0  0  0  0
  149.6565  133.7247  157.5250 O   0  0  0  0  0  0  0  0  0  0  0  0
  146.7640  137.6647  158.7256 N   0  0  0  0  0  0  0  0  0  0  0  0
  147.1318  138.6395  157.8887 C   0  0  0  0  0  0  0  0  0  0  0  0
  148.3603  139.0775  157.6056 N   0  0  0  0  0  0  0  0  0  0  0  0
  149.3053  138.3919  158.3103 C   0  0  0  0  0  0  0  0  0  0  0  0
  151.5757  141.3550  159.2780 C   0  0  1  0  0  0  0  0  0  0  0  0
  152.4258  142.3488  160.0636 C   0  0  0  0  0  0  0  0  0  0  0  0
  152.6256  143.5039  159.0824 C   0  0  0  0  0  0  0  0  0  0  0  0
  151.5387  143.4278  158.1662 O   0  0  0  0  0  0  0  0  0  0  0  0
  150.6777  142.3625  158.5455 C   0  0  0  0  0  0  0  0  0  0  0  0
  154.0804  137.8620  158.4582 H   0  0  0  0  0  0  0  0  0  0  0  0
  153.0192  138.9527  159.8593 H   0  0  0  0  0  0  0  0  0  0  0  0
  154.1535  140.2301  159.6191 H   0  0  0  0  0  0  0  0  0  0  0  0
  152.9233  141.0367  157.6295 H   0  0  0  0  0  0  0  0  0  0  0  0
  150.7487  140.1123  156.9168 H   0  0  0  0  0  0  0  0  0  0  0  0
  152.0118  138.9158  156.7663 H   0  0  0  0  0  0  0  0  0  0  0  0
  152.2298  137.5229  159.3757 H   0  0  0  0  0  0  0  0  0  0  0  0
  148.5402  136.4245  161.8405 H   0  0  0  0  0  0  0  0  0  0  0  0
  147.1011  137.4229  161.7836 H   0  0  0  0  0  0  0  0  0  0  0  0
  146.9920  135.7570  163.6415 H   0  0  0  0  0  0  0  0  0  0  0  0
  145.6849  135.5482  162.4977 H   0  0  0  0  0  0  0  0  0  0  0  0
  148.2650  133.9042  162.5924 H   0  0  0  0  0  0  0  0  0  0  0  0
  146.6682  133.3438  163.0428 H   0  0  0  0  0  0  0  0  0  0  0  0
  147.2452  132.6072  160.7498 H   0  0  0  0  0  0  0  0  0  0  0  0
  145.8511  133.6569  160.7544 H   0  0  0  0  0  0  0  0  0  0  0  0
  148.7060  134.5196  160.1270 H   0  0  0  0  0  0  0  0  0  0  0  0
  147.2822  133.1377  158.3509 H   0  0  0  0  0  0  0  0  0  0  0  0
  145.2959  134.1400  157.9571 H   0  0  0  0  0  0  0  0  0  0  0  0
  145.8778  135.7667  158.2221 H   0  0  0  0  0  0  0  0  0  0  0  0
  145.7153  134.4588  155.6691 H   0  0  0  0  0  0  0  0  0  0  0  0
  146.3971  136.0369  156.0351 H   0  0  0  0  0  0  0  0  0  0  0  0
  147.8078  133.3952  155.7830 H   0  0  0  0  0  0  0  0  0  0  0  0
  148.3899  134.9798  155.2814 H   0  0  0  0  0  0  0  0  0  0  0  0
  148.8627  135.6151  157.5590 H   0  0  0  0  0  0  0  0  0  0  0  0
  149.5351  133.0079  156.9205 H   0  0  0  0  0  0  0  0  0  0  0  0
  146.3267  139.1387  157.3703 H   0  0  0  0  0  0  0  0  0  0  0  0
  150.9765  140.7484  159.9584 H   0  0  0  0  0  0  0  0  0  0  0  0
  151.8530  142.7054  160.9213 H   0  0  0  0  0  0  0  0  0  0  0  0
  153.3627  141.9608  160.4571 H   0  0  0  0  0  0  0  0  0  0  0  0
  152.6489  144.4693  159.5887 H   0  0  0  0  0  0  0  0  0  0  0  0
  153.5580  143.3884  158.5286 H   0  0  0  0  0  0  0  0  0  0  0  0
  150.1336  141.9650  157.6916 H   0  0  0  0  0  0  0  0  0  0  0  0
  149.9310  142.7604  159.2348 H   0  0  0  0  0  0  0  0  0  0  0  0
  1  2  1  0  0  0  0
  1 31  1  0  0  0  0
  2  3  1  0  0  0  0
  2 32  1  0  0  0  0
  2 33  1  0  0  0  0
  3  4  1  0  0  0  0
  3 26  1  0  0  0  0
  3 34  1  0  0  0  0
  4  5  1  0  0  0  0
  4 35  1  0  0  0  0
  4 36  1  0  0  0  0
  5 25  1  0  0  0  0
  5  6  1  0  0  0  0
  6  7  2  0  0  0  0
  6 37  1  0  0  0  0
  7  8  1  0  0  0  0
  8 25  2  0  0  0  0
  8  9  1  0  0  0  0
  9 10  1  0  0  0  0
  9 22  2  0  0  0  0
 10 15  1  0  0  0  0
 10 11  1  0  0  0  0
 11 12  1  0  0  0  0
 11 38  1  0  0  0  0
 11 39  1  0  0  0  0
 12 13  1  0  0  0  0
 12 40  1  0  0  0  0
 12 41  1  0  0  0  0
 13 14  1  0  0  0  0
 13 42  1  0  0  0  0
 13 43  1  0  0  0  0
 14 15  1  0  0  0  0
 14 44  1  0  0  0  0
 14 45  1  0  0  0  0
 15 16  1  0  0  0  0
 15 46  1  0  0  0  0
 16 20  1  0  0  0  0
 16 17  1  0  0  0  0
 16 47  1  0  0  0  0
 17 18  1  0  0  0  0
 17 48  1  0  0  0  0
 17 49  1  0  0  0  0
 18 19  1  0  0  0  0
 18 50  1  0  0  0  0
 18 51  1  0  0  0  0
 19 20  1  0  0  0  0
 19 52  1  0  0  0  0
 19 53  1  0  0  0  0
 20 21  1  0  0  0  0
 20 54  1  0  0  0  0
 21 55  1  0  0  0  0
 22 23  1  0  0  0  0
 23 24  2  0  0  0  0
 23 56  1  0  0  0  0
 24 25  1  0  0  0  0
 26 30  1  0  0  0  0
 26 27  1  0  0  0  0
 26 57  1  0  0  0  0
 27 28  1  0  0  0  0
 27 58  1  0  0  0  0
 27 59  1  0  0  0  0
 28 29  1  0  0  0  0
 28 60  1  0  0  0  0
 28 61  1  0  0  0  0
 29 30  1  0  0  0  0
 30 62  1  0  0  0  0
 30 63  1  0  0  0  0
M  END
> <s_m_source_file>
AV-unprocessed.smi

> <i_m_source_file_index>
148

> <i_lp_mmshare_version>
43012

> <i_f3d_flags>
0

> <s_epik_input>
W0NIMl0xT1tDSDJdW0NIMl1bQ0BIXTFbQ0BIXShbQ0gyXVtPSF0pW0NIMl1uKFtjSF1uMiljKGMyMyluW2NIXW5jM040W0NIMl1bQ0gyXVtDSDJdW0NIMl1bQ0BIXTRbQ0BASF01W0NIMl1bQ0gyXVtDSDJdW0NASF01W09IXQ==

> <s_epik_cmdline>
J2VwaWtfcHl0aG9uJywgJy1waCcsICc3LjAnLCAnLXRuJywgJzgnLCAnLW1hJywgJzIwMCcsICctbWV0YWxfYmluZGluZycsICctaW1hZScsICc8aW5maWxlLm1hZT4nLCAnLW9tYWUnLCAnPG91dGZpbGUubWFlPic=

> <r_lp_tautomer_probability>
1

> <r_epik_Ionization_Penalty>
0.00556303

> <r_epik_Ionization_Penalty_Charging>
0

> <r_epik_Ionization_Penalty_Neutral>
0.00556303

> <r_epik_State_Penalty>
0.00401767

> <r_epik_Charging_Adjusted_Penalty>
0.00401767

> <i_epik_Tot_Q>
0

> <i_epik_Tot_abs_Q>
0

> <r_epik_Metal_State_Penalty>
-0

> <b_epik_Metal_Only>
0

> <s_lp_Force_Field>
OPLS_2005

> <r_lp_Energy>
69.9352

> <b_lp_Chiralities_Consistent>
1

> <s_lp_Variant>
AV-unprocessed.smi:148-30

> <Gold.Version>
5.8.1

> <Gold.Id.Protein>
6NUR|6NUR_protein|mol2

> <Gold.PLP.Fitness>
51.3209

> <Gold.PLP.PLP>
-43.4744

> <Gold.PLP.part.hbond>
-3.2613

> <Gold.PLP.part.metal>
0.0000

> <Gold.PLP.part.buried>
-6.2834

> <Gold.PLP.part.nonpolar>
-34.7895

> <Gold.PLP.part.repulsive>
0.0966

> <Gold.PLP.ligand.clash>
0.0000

> <Gold.PLP.ligand.torsion>
0.7585

> <Gold.PLP.Chemscore.Hbond>
2.9920

> <Gold.PLP.Chemscore.CHOScore>
0.0000

> <Gold.PLP.Chemscore.Metal>
0.0000

> <Gold.Chemscore.Hbonds>
donor molecule, donor type, donor heavy atom, donor atom, acceptor molecule, acceptor atom, score
      P1  H  6896  6907       L1    21  0.76
      P1  H  6896  6908       L1     7  0.98
      P1  H  7997  8010       L1     1  1.00

> <Gold.PLP.Chemscore.Internal.Correction>
0.3875

> <Gold.Rescore>
     Score         DG    S(hbond)    S(metal)    S(lipo)     H(rot)  DE(clash)    DE(int)     intcor
     16.29     -16.95       2.46        0.00     100.36       3.32       0.00       0.66       ----

> <Gold.Chemscore.Fitness>
16.2909

> <Gold.Chemscore.DG>
-16.9485

> <Gold.Chemscore.ZeroCoef>
-5.4800

> <Gold.Chemscore.Hbond>
2.4631

> <Gold.Chemscore.Metal>
0.0000

> <Gold.Chemscore.Lipo>
100.3564

> <Gold.Chemscore.Internal_Hbond>
0.0000

> <Gold.Chemscore.DEClash>
0.0000

> <Gold.Chemscore.DEInternal>
0.6576

> <Gold.Chemscore.Rot>
3.3203

> <Gold.Chemscore.Internal.Correction>
   9.000000E+99

> <Gold.Chemscore.Hbonds>
donor molecule, donor type, donor heavy atom, donor atom, acceptor molecule, acceptor atom, score
      P1  H  6896  6907       L1    21  0.72
      P1  H  6896  6908       L1     7  0.23
      P1  H  7997  8010       L1     1  0.25

> <Gold.Chemscore.Hbond.Weighted>
-8.2268

> <Gold.Chemscore.Metal.Weighted>
-0.0000

> <Gold.Chemscore.Lipo.Weighted>
-11.7417

> <Gold.Chemscore.Internal_Hbond.Weighted>
0.0000

> <Gold.Chemscore.DEClash.Weighted>
0.0000

> <Gold.Chemscore.DEInternal.Weighted>
0.6576

> <Gold.Chemscore.Rot.Weighted>
8.5000

> <Gold.Chemscore.Internal.Correction.Weighted>
   9.000000E+99

> <Gold.Protein.RotatedTorsions>
[ 6907 6896 6895 6894 ] final -133.68 input  -60.11 | X-H torsion
[ 7974 7965 7964 7962 ] final   -2.19 input  175.53 | X-H torsion
[ 8008 7997 7996 7995 ] final    2.71 input   59.86 | X-H torsion
[ 10167 10162 10161 10158 ] final   51.50 input  -65.29 | X-H torsion
[ 10718 10713 10712 10709 ] final  -69.35 input   66.30 | X-H torsion
[ 10763 10752 10751 10750 ] final   66.02 input  -60.55 | X-H torsion
[ 11005 11000 10999 10996 ] final   80.71 input  -57.11 | X-H torsion

> <Gold.Protein.ActiveResidues>
 VAL166  LYS551  ARG553  GLY616  TRP617  ASP618  TYR619  PRO620  LYS621  CYS622 
 ASP623  PHE694  ASN695  SER759  ASP760  ASP761  ALA762  ILE779  LEU786  VAL792 
 PHE793  MET794  SER795  GLU796  ALA797  LYS798  CYS799  TRP800  GLU811  SER814 

> <Gold.Protein.RotatedAtoms>
  150.9769  133.6286  159.2728 H   0  0  0  0  0  0  0  0  0  0  0  0  # atno 6907 bound_to 6896
  151.3555  135.0892  159.9427 H   0  0  0  0  0  0  0  0  0  0  0  0  # atno 6908 bound_to 6896
  152.5202  133.9353  159.7655 H   0  0  0  0  0  0  0  0  0  0  0  0  # atno 6909 bound_to 6896
  146.2408  140.1534  142.8333 H   0  0  0  0  0  0  0  0  0  0  0  0  # atno 7974 bound_to 7965
  154.6948  140.2661  155.6777 H   0  0  0  0  0  0  0  0  0  0  0  0  # atno 8008 bound_to 7997
  156.2745  140.2784  156.1462 H   0  0  0  0  0  0  0  0  0  0  0  0  # atno 8009 bound_to 7997
  155.0846  140.0373  157.2640 H   0  0  0  0  0  0  0  0  0  0  0  0  # atno 8010 bound_to 7997
  140.2612  144.3370  150.6317 H   0  0  0  0  0  0  0  0  0  0  0  0  # atno 10167 bound_to 10162
  156.0460  130.4311  150.2135 H   0  0  0  0  0  0  0  0  0  0  0  0  # atno 10718 bound_to 10713
  153.0122  135.5335  154.6759 H   0  0  0  0  0  0  0  0  0  0  0  0  # atno 10763 bound_to 10752
  154.5931  135.2861  155.0616 H   0  0  0  0  0  0  0  0  0  0  0  0  # atno 10764 bound_to 10752
  154.1702  135.6533  153.5060 H   0  0  0  0  0  0  0  0  0  0  0  0  # atno 10765 bound_to 10752
  139.9124  134.7941  156.1946 H   0  0  0  0  0  0  0  0  0  0  0  0  # atno 11005 bound_to 11000
  145.0149  140.8745  143.5202 LP  0  0  0  0  0  0  0  0  0  0  0  0  # atno 17320 bound_to 7965
  145.1573  139.2479  143.5410 LP  0  0  0  0  0  0  0  0  0  0  0  0  # atno 17321 bound_to 7965
  140.5964  143.2167  151.7156 LP  0  0  0  0  0  0  0  0  0  0  0  0  # atno 17342 bound_to 10162
  139.5016  144.3861  152.0327 LP  0  0  0  0  0  0  0  0  0  0  0  0  # atno 17343 bound_to 10162
  157.0225  130.9983  151.3335 LP  0  0  0  0  0  0  0  0  0  0  0  0  # atno 17370 bound_to 10713
  157.5334  130.8073  149.7944 LP  0  0  0  0  0  0  0  0  0  0  0  0  # atno 17371 bound_to 10713
  141.0563  133.6864  156.1866 LP  0  0  0  0  0  0  0  0  0  0  0  0  # atno 17394 bound_to 11000
  140.6732  134.4846  157.5587 LP  0  0  0  0  0  0  0  0  0  0  0  0  # atno 17395 bound_to 11000

$$$$
