AV-unprocessed.smi:2724|AV-procd|sdf|10508|dock2
  -GOLD-   2272014553D 1   1.00000     0.00000
 Structure written by MMmdl.
 25 26  0  0  0  0  0  0  0  0  1 V2000
  150.5765  145.2162  158.0626 O   0  0  0  0  0  0  0  0  0  0  0  0
  151.7064  144.6013  158.6503 C   0  0  1  0  0  0  0  0  0  0  0  0
  151.6305  144.5674  160.1767 C   0  0  0  0  0  0  0  0  0  0  0  0
  152.6435  143.4892  160.5540 C   0  0  0  0  0  0  0  0  0  0  0  0
  152.4733  142.4128  159.4773 C   0  0  0  0  0  0  0  0  0  0  0  0
  151.9754  143.1418  158.2101 C   0  0  1  0  0  0  0  0  0  0  0  0
  150.7959  142.4314  157.5483 C   0  0  0  0  0  0  0  0  0  0  0  0
  150.8687  141.9495  156.2221 C   0  0  0  0  0  0  0  0  0  0  0  0
  149.7494  141.2990  155.6690 C   0  0  0  0  0  0  0  0  0  0  0  0
  148.5962  141.1568  156.4652 C   0  0  0  0  0  0  0  0  0  0  0  0
  148.5103  141.6141  157.7326 N   0  0  0  0  0  0  0  0  0  0  0  0
  149.5891  142.2358  158.2553 C   0  0  0  0  0  0  0  0  0  0  0  0
  150.3801  144.7707  157.2527 H   0  0  0  0  0  0  0  0  0  0  0  0
  152.5776  145.2000  158.3803 H   0  0  0  0  0  0  0  0  0  0  0  0
  151.8531  145.5334  160.6313 H   0  0  0  0  0  0  0  0  0  0  0  0
  150.6341  144.2659  160.5030 H   0  0  0  0  0  0  0  0  0  0  0  0
  153.6520  143.9022  160.5061 H   0  0  0  0  0  0  0  0  0  0  0  0
  152.4899  143.1019  161.5615 H   0  0  0  0  0  0  0  0  0  0  0  0
  153.3954  141.8588  159.2983 H   0  0  0  0  0  0  0  0  0  0  0  0
  151.7351  141.6899  159.8259 H   0  0  0  0  0  0  0  0  0  0  0  0
  152.7909  143.1660  157.4855 H   0  0  0  0  0  0  0  0  0  0  0  0
  151.7676  142.0725  155.6364 H   0  0  0  0  0  0  0  0  0  0  0  0
  149.7748  140.9172  154.6592 H   0  0  0  0  0  0  0  0  0  0  0  0
  147.7194  140.6628  156.0736 H   0  0  0  0  0  0  0  0  0  0  0  0
  149.4823  142.5874  159.2709 H   0  0  0  0  0  0  0  0  0  0  0  0
  1  2  1  0  0  0  0
  1 13  1  0  0  0  0
  2  6  1  0  0  0  0
  2  3  1  0  0  0  0
  2 14  1  0  0  0  0
  3  4  1  0  0  0  0
  3 15  1  0  0  0  0
  3 16  1  0  0  0  0
  4  5  1  0  0  0  0
  4 17  1  0  0  0  0
  4 18  1  0  0  0  0
  5  6  1  0  0  0  0
  5 19  1  0  0  0  0
  5 20  1  0  0  0  0
  6  7  1  0  0  0  0
  6 21  1  0  0  0  0
  7 12  1  0  0  0  0
  7  8  2  0  0  0  0
  8  9  1  0  0  0  0
  8 22  1  0  0  0  0
  9 10  2  0  0  0  0
  9 23  1  0  0  0  0
 10 11  1  0  0  0  0
 10 24  1  0  0  0  0
 11 12  2  0  0  0  0
 12 25  1  0  0  0  0
M  END
> <s_m_source_file>
AV-unprocessed.smi

> <i_m_source_file_index>
2724

> <i_lp_mmshare_version>
43012

> <i_f3d_flags>
0

> <s_epik_input>
W09IXVtDQEBIXTFbQ0gyXVtDSDJdW0NIMl1bQ0BIXTFjMltjSF1bY0hdW2NIXW5bY0hdMg==

> <s_epik_cmdline>
J2VwaWtfcHl0aG9uJywgJy1waCcsICc3LjAnLCAnLXRuJywgJzgnLCAnLW1hJywgJzIwMCcsICctbWV0YWxfYmluZGluZycsICctaW1hZScsICc8aW5maWxlLm1hZT4nLCAnLW9tYWUnLCAnPG91dGZpbGUubWFlPic=

> <r_epik_Ionization_Penalty>
0.0175299

> <r_epik_Ionization_Penalty_Charging>
0

> <r_epik_Ionization_Penalty_Neutral>
0.0175299

> <r_epik_State_Penalty>
0.0138989

> <r_epik_Charging_Adjusted_Penalty>
0.0138989

> <i_epik_Tot_Q>
0

> <i_epik_Tot_abs_Q>
0

> <r_epik_Metal_State_Penalty>
1.40631e-05

> <b_epik_Metal_Only>
0

> <s_lp_Force_Field>
OPLS_2005

> <r_lp_Energy>
23.8775

> <b_lp_Chiralities_Consistent>
1

> <s_lp_Variant>
AV-unprocessed.smi:2724-2

> <Gold.Version>
5.8.1

> <Gold.Id.Protein>
6NUR|6NUR_protein|mol2

> <Gold.PLP.Fitness>
30.7214

> <Gold.PLP.PLP>
-28.6163

> <Gold.PLP.part.hbond>
-2.0000

> <Gold.PLP.part.metal>
0.0000

> <Gold.PLP.part.buried>
-2.7932

> <Gold.PLP.part.nonpolar>
-24.1044

> <Gold.PLP.part.repulsive>
0.0831

> <Gold.PLP.ligand.clash>
0.0000

> <Gold.PLP.ligand.torsion>
0.0012

> <Gold.PLP.Chemscore.Hbond>
0.7020

> <Gold.PLP.Chemscore.CHOScore>
0.0000

> <Gold.PLP.Chemscore.Metal>
0.0000

> <Gold.Chemscore.Hbonds>
donor molecule, donor type, donor heavy atom, donor atom, acceptor molecule, acceptor atom, score
      L1  H     1    13       P1  8028  0.57

> <Gold.PLP.Chemscore.Internal.Correction>
0.0015

> <Gold.Rescore>
     Score         DG    S(hbond)    S(metal)    S(lipo)     H(rot)  DE(clash)    DE(int)     intcor
     12.72     -12.78       0.22        0.00      85.01       1.32       0.04       0.02       ----

> <Gold.Chemscore.Fitness>
12.7166

> <Gold.Chemscore.DG>
-12.7783

> <Gold.Chemscore.ZeroCoef>
-5.4800

> <Gold.Chemscore.Hbond>
0.2183

> <Gold.Chemscore.Metal>
0.0000

> <Gold.Chemscore.Lipo>
85.0109

> <Gold.Chemscore.Internal_Hbond>
0.0000

> <Gold.Chemscore.DEClash>
0.0406

> <Gold.Chemscore.DEInternal>
0.0211

> <Gold.Chemscore.Rot>
1.3192

> <Gold.Chemscore.Internal.Correction>
   9.000000E+99

> <Gold.Chemscore.Hbonds>
donor molecule, donor type, donor heavy atom, donor atom, acceptor molecule, acceptor atom, score
      L1  H     1    13       P1  8028  0.22

> <Gold.Chemscore.Hbond.Weighted>
-0.7292

> <Gold.Chemscore.Metal.Weighted>
-0.0000

> <Gold.Chemscore.Lipo.Weighted>
-9.9463

> <Gold.Chemscore.Internal_Hbond.Weighted>
0.0000

> <Gold.Chemscore.DEClash.Weighted>
0.0406

> <Gold.Chemscore.DEInternal.Weighted>
0.0211

> <Gold.Chemscore.Rot.Weighted>
3.3772

> <Gold.Chemscore.Internal.Correction.Weighted>
   9.000000E+99

> <Gold.Protein.RotatedTorsions>
[ 6907 6896 6895 6894 ] final   61.72 input  -60.11 | X-H torsion
[ 7974 7965 7964 7962 ] final  -33.30 input  175.53 | X-H torsion
[ 8008 7997 7996 7995 ] final   80.93 input   59.86 | X-H torsion
[ 10167 10162 10161 10158 ] final  -22.14 input  -65.29 | X-H torsion
[ 10718 10713 10712 10709 ] final  -26.76 input   66.30 | X-H torsion
[ 10763 10752 10751 10750 ] final -133.65 input  -60.55 | X-H torsion
[ 11005 11000 10999 10996 ] final   37.91 input  -57.11 | X-H torsion

> <Gold.Protein.ActiveResidues>
 VAL166  LYS551  ARG553  GLY616  TRP617  ASP618  TYR619  PRO620  LYS621  CYS622 
 ASP623  PHE694  ASN695  SER759  ASP760  ASP761  ALA762  ILE779  LEU786  VAL792 
 PHE793  MET794  SER795  GLU796  ALA797  LYS798  CYS799  TRP800  GLU811  SER814 

> <Gold.Protein.RotatedAtoms>
  152.4113  134.6120  160.0027 H   0  0  0  0  0  0  0  0  0  0  0  0  # atno 6907 bound_to 6896
  151.6296  133.3327  159.3114 H   0  0  0  0  0  0  0  0  0  0  0  0  # atno 6908 bound_to 6896
  150.8003  134.7133  159.6661 H   0  0  0  0  0  0  0  0  0  0  0  0  # atno 6909 bound_to 6896
  146.0921  140.5900  142.8859 H   0  0  0  0  0  0  0  0  0  0  0  0  # atno 7974 bound_to 7965
  155.8902  140.3439  155.5951 H   0  0  0  0  0  0  0  0  0  0  0  0  # atno 8008 bound_to 7997
  155.7619  140.0833  157.2170 H   0  0  0  0  0  0  0  0  0  0  0  0  # atno 8009 bound_to 7997
  154.4032  140.1534  156.2830 H   0  0  0  0  0  0  0  0  0  0  0  0  # atno 8010 bound_to 7997
  140.7285  143.4562  151.0444 H   0  0  0  0  0  0  0  0  0  0  0  0  # atno 10167 bound_to 10162
  156.4469  130.4476  149.7015 H   0  0  0  0  0  0  0  0  0  0  0  0  # atno 10718 bound_to 10713
  154.8730  135.3759  154.4607 H   0  0  0  0  0  0  0  0  0  0  0  0  # atno 10763 bound_to 10752
  153.5275  135.7028  153.5705 H   0  0  0  0  0  0  0  0  0  0  0  0  # atno 10764 bound_to 10752
  153.3924  135.3969  155.1898 H   0  0  0  0  0  0  0  0  0  0  0  0  # atno 10765 bound_to 10752
  140.2178  134.3677  155.8019 H   0  0  0  0  0  0  0  0  0  0  0  0  # atno 11005 bound_to 11000
  144.7368  140.4831  143.6898 LP  0  0  0  0  0  0  0  0  0  0  0  0  # atno 17320 bound_to 7965
  145.6019  139.1504  143.3124 LP  0  0  0  0  0  0  0  0  0  0  0  0  # atno 17321 bound_to 7965
  139.8243  143.7777  152.3178 LP  0  0  0  0  0  0  0  0  0  0  0  0  # atno 17342 bound_to 10162
  139.7871  144.7424  151.0007 LP  0  0  0  0  0  0  0  0  0  0  0  0  # atno 17343 bound_to 10162
  156.3857  130.7602  151.2598 LP  0  0  0  0  0  0  0  0  0  0  0  0  # atno 17370 bound_to 10713
  157.7504  131.0282  150.4041 LP  0  0  0  0  0  0  0  0  0  0  0  0  # atno 17371 bound_to 10713
  141.2224  133.7177  156.8525 LP  0  0  0  0  0  0  0  0  0  0  0  0  # atno 17394 bound_to 11000
  140.1882  134.8985  157.3029 LP  0  0  0  0  0  0  0  0  0  0  0  0  # atno 17395 bound_to 11000

$$$$
