AV-unprocessed.smi:1260|AV-procd|sdf|5297|dock7
  -GOLD-   22720 4413D 1   1.00000     0.00000
 Structure written by MMmdl.
 37 39  0  0  0  0  0  0  0  0  2 V2000
  153.1912  138.6850  157.1954 O   0  0  0  0  0  0  0  0  0  0  0  0
  152.0687  138.9784  157.6047 C   0  0  0  0  0  0  0  0  0  0  0  0
  150.8609  138.1339  157.1895 C   0  0  0  0  0  0  0  0  0  0  0  0
  149.9981  137.8310  158.3176 N   0  0  0  0  0  0  0  0  0  0  0  0
  150.2479  137.2012  159.4674 C   0  0  0  0  0  0  0  0  0  0  0  0
  149.1671  137.1253  160.2284 N   0  0  0  0  0  0  0  0  0  0  0  0
  148.2024  137.7675  159.4702 N   0  0  0  0  0  0  0  0  0  0  0  0
  148.6901  138.1906  158.3363 N   0  0  0  0  0  0  0  0  0  0  0  0
  151.8286  140.0325  158.4022 N   0  0  0  0  0  0  0  0  0  0  0  0
  152.8453  140.9339  158.9410 C   0  0  2  0  0  0  0  0  0  0  0  0
  153.0253  140.7880  160.4643 C   0  0  0  0  0  0  0  0  0  0  0  0
  153.1827  142.2233  160.9770 C   0  0  0  0  0  0  0  0  0  0  0  0
  152.3398  142.9962  160.0572 N   0  3  1  0  0  0  0  0  0  0  0  0
  152.4346  144.4699  160.0828 C   0  0  0  0  0  0  0  0  0  0  0  0
  151.3305  145.0458  159.1700 C   0  0  0  0  0  0  0  0  0  0  0  0
  151.3612  144.4284  157.7532 C   0  0  0  0  0  0  0  0  0  0  0  0
  151.3915  142.8852  157.7995 C   0  0  0  0  0  0  0  0  0  0  0  0
  152.5474  142.4349  158.7109 C   0  0  2  0  0  0  0  0  0  0  0  0
  150.2839  138.6698  156.4350 H   0  0  0  0  0  0  0  0  0  0  0  0
  151.1924  137.1975  156.7380 H   0  0  0  0  0  0  0  0  0  0  0  0
  151.2112  136.7970  159.7424 H   0  0  0  0  0  0  0  0  0  0  0  0
  150.8743  140.2008  158.6860 H   0  0  0  0  0  0  0  0  0  0  0  0
  153.8034  140.7012  158.4711 H   0  0  0  0  0  0  0  0  0  0  0  0
  152.1345  140.3432  160.9108 H   0  0  0  0  0  0  0  0  0  0  0  0
  153.8740  140.1560  160.7284 H   0  0  0  0  0  0  0  0  0  0  0  0
  152.8674  142.3372  162.0146 H   0  0  0  0  0  0  0  0  0  0  0  0
  154.2202  142.5509  160.8908 H   0  0  0  0  0  0  0  0  0  0  0  0
  152.3050  144.8302  161.1039 H   0  0  0  0  0  0  0  0  0  0  0  0
  153.4229  144.7895  159.7489 H   0  0  0  0  0  0  0  0  0  0  0  0
  150.3567  144.8497  159.6209 H   0  0  0  0  0  0  0  0  0  0  0  0
  151.4255  146.1301  159.1074 H   0  0  0  0  0  0  0  0  0  0  0  0
  150.5007  144.7689  157.1768 H   0  0  0  0  0  0  0  0  0  0  0  0
  152.2448  144.7896  157.2254 H   0  0  0  0  0  0  0  0  0  0  0  0
  150.4404  142.5033  158.1727 H   0  0  0  0  0  0  0  0  0  0  0  0
  151.5214  142.4905  156.7914 H   0  0  0  0  0  0  0  0  0  0  0  0
  153.4688  142.8687  158.3159 H   0  0  0  0  0  0  0  0  0  0  0  0
  151.3890  142.7674  160.3097 H   0  0  0  0  0  0  0  0  0  0  0  0
  1  2  2  0  0  0  0
  2  3  1  0  0  0  0
  2  9  1  0  0  0  0
  3  4  1  0  0  0  0
  3 19  1  0  0  0  0
  3 20  1  0  0  0  0
  4  8  1  0  0  0  0
  4  5  1  0  0  0  0
  5  6  2  0  0  0  0
  5 21  1  0  0  0  0
  6  7  1  0  0  0  0
  7  8  2  0  0  0  0
  9 10  1  0  0  0  0
  9 22  1  0  0  0  0
 10 18  1  0  0  0  0
 10 11  1  0  0  0  0
 10 23  1  0  0  0  0
 11 12  1  0  0  0  0
 11 24  1  0  0  0  0
 11 25  1  0  0  0  0
 12 13  1  0  0  0  0
 12 26  1  0  0  0  0
 12 27  1  0  0  0  0
 13 18  1  0  0  0  0
 13 14  1  0  0  0  0
 13 37  1  0  0  0  0
 14 15  1  0  0  0  0
 14 28  1  0  0  0  0
 14 29  1  0  0  0  0
 15 16  1  0  0  0  0
 15 30  1  0  0  0  0
 15 31  1  0  0  0  0
 16 17  1  0  0  0  0
 16 32  1  0  0  0  0
 16 33  1  0  0  0  0
 17 18  1  0  0  0  0
 17 34  1  0  0  0  0
 17 35  1  0  0  0  0
 18 36  1  0  0  0  0
M  CHG  1  13   1
M  END
> <s_m_source_file>
AV-unprocessed.smi

> <i_m_source_file_index>
1260

> <i_lp_mmshare_version>
43012

> <i_f3d_flags>
0

> <s_epik_input>
bjFubltjSF1uMVtDSDJdQyg9TylbTkhdW0NASF0oW0NIMl1bQ0gyXTIpW0NAQEhdKE4yMylbQ0gyXVtDSDJdW0NIMl1bQ0gyXTM=

> <s_epik_cmdline>
J2VwaWtfcHl0aG9uJywgJy1waCcsICc3LjAnLCAnLXRuJywgJzgnLCAnLW1hJywgJzIwMCcsICctbWV0YWxfYmluZGluZycsICctaW1hZScsICc8aW5maWxlLm1hZT4nLCAnLW9tYWUnLCAnPG91dGZpbGUubWFlPic=

> <r_lp_tautomer_probability>
1

> <r_epik_Ionization_Penalty>
0.00234324

> <r_epik_Ionization_Penalty_Charging>
0.00233897

> <r_epik_Ionization_Penalty_Neutral>
4.26861e-06

> <r_epik_State_Penalty>
0.00161477

> <r_epik_Charging_Adjusted_Penalty>
0.00395374

> <i_epik_Tot_Q>
1

> <i_epik_Tot_abs_Q>
1

> <r_epik_Metal_State_Penalty>
-0

> <b_epik_Metal_Only>
0

> <s_lp_Force_Field>
OPLS_2005

> <r_lp_Energy>
44.4325

> <b_lp_Chiralities_Consistent>
1

> <s_lp_Variant>
AV-unprocessed.smi:1260-5

> <Gold.Version>
5.8.1

> <Gold.Id.Protein>
6NUR|6NUR_protein|mol2

> <Gold.PLP.Fitness>
37.4601

> <Gold.PLP.PLP>
-32.3848

> <Gold.PLP.part.hbond>
-3.7286

> <Gold.PLP.part.metal>
0.0000

> <Gold.PLP.part.buried>
-4.6188

> <Gold.PLP.part.nonpolar>
-24.9117

> <Gold.PLP.part.repulsive>
0.1649

> <Gold.PLP.ligand.clash>
0.0000

> <Gold.PLP.ligand.torsion>
0.2529

> <Gold.PLP.Chemscore.Hbond>
1.8599

> <Gold.PLP.Chemscore.CHOScore>
0.0000

> <Gold.PLP.Chemscore.Metal>
0.0000

> <Gold.Chemscore.Hbonds>
donor molecule, donor type, donor heavy atom, donor atom, acceptor molecule, acceptor atom, score
      P1  H  6931  6943       L1     6  0.49
      P1  H  6934  6947       L1     7  0.28
      P1  H  7997  8008       L1     1  1.00

> <Gold.PLP.Chemscore.Internal.Correction>
0.0016

> <Gold.Rescore>
     Score         DG    S(hbond)    S(metal)    S(lipo)     H(rot)  DE(clash)    DE(int)     intcor
     14.85     -15.21       1.28        0.00      89.75       1.98       0.09       0.27       ----

> <Gold.Chemscore.Fitness>
14.8530

> <Gold.Chemscore.DG>
-15.2116

> <Gold.Chemscore.ZeroCoef>
-5.4800

> <Gold.Chemscore.Hbond>
1.2840

> <Gold.Chemscore.Metal>
0.0000

> <Gold.Chemscore.Lipo>
89.7491

> <Gold.Chemscore.Internal_Hbond>
0.0000

> <Gold.Chemscore.DEClash>
0.0921

> <Gold.Chemscore.DEInternal>
0.2665

> <Gold.Chemscore.Rot>
1.9757

> <Gold.Chemscore.Internal.Correction>
   9.000000E+99

> <Gold.Chemscore.Hbonds>
donor molecule, donor type, donor heavy atom, donor atom, acceptor molecule, acceptor atom, score
      P1  H  6931  6943       L1     6  0.10
      P1  H  6934  6947       L1     7  0.12
      P1  H  7997  8008       L1     1  0.95

> <Gold.Chemscore.Hbond.Weighted>
-4.2887

> <Gold.Chemscore.Metal.Weighted>
-0.0000

> <Gold.Chemscore.Lipo.Weighted>
-10.5006

> <Gold.Chemscore.Internal_Hbond.Weighted>
0.0000

> <Gold.Chemscore.DEClash.Weighted>
0.0921

> <Gold.Chemscore.DEInternal.Weighted>
0.2665

> <Gold.Chemscore.Rot.Weighted>
5.0578

> <Gold.Chemscore.Internal.Correction.Weighted>
   9.000000E+99

> <Gold.Protein.RotatedTorsions>
[ 6907 6896 6895 6894 ] final   62.13 input  -60.11 | X-H torsion
[ 7974 7965 7964 7962 ] final  -36.15 input  175.53 | X-H torsion
[ 8008 7997 7996 7995 ] final  -83.93 input   59.86 | X-H torsion
[ 10167 10162 10161 10158 ] final -150.99 input  -65.29 | X-H torsion
[ 10718 10713 10712 10709 ] final -121.16 input   66.30 | X-H torsion
[ 10763 10752 10751 10750 ] final   84.97 input  -60.55 | X-H torsion
[ 11005 11000 10999 10996 ] final -124.83 input  -57.11 | X-H torsion

> <Gold.Protein.ActiveResidues>
 VAL166  LYS551  ARG553  GLY616  TRP617  ASP618  TYR619  PRO620  LYS621  CYS622 
 ASP623  PHE694  ASN695  SER759  ASP760  ASP761  ALA762  ILE779  LEU786  VAL792 
 PHE793  MET794  SER795  GLU796  ALA797  LYS798  CYS799  TRP800  GLU811  SER814 

> <Gold.Protein.RotatedAtoms>
  152.4147  134.6063  160.0013 H   0  0  0  0  0  0  0  0  0  0  0  0  # atno 6907 bound_to 6896
  151.6230  133.3332  159.3100 H   0  0  0  0  0  0  0  0  0  0  0  0  # atno 6908 bound_to 6896
  150.8036  134.7186  159.6690 H   0  0  0  0  0  0  0  0  0  0  0  0  # atno 6909 bound_to 6896
  146.0686  140.6244  142.8963 H   0  0  0  0  0  0  0  0  0  0  0  0  # atno 7974 bound_to 7965
  154.6243  140.0612  156.9654 H   0  0  0  0  0  0  0  0  0  0  0  0  # atno 8008 bound_to 7997
  155.1767  140.3295  155.4364 H   0  0  0  0  0  0  0  0  0  0  0  0  # atno 8009 bound_to 7997
  156.2449  140.1905  156.6865 H   0  0  0  0  0  0  0  0  0  0  0  0  # atno 8010 bound_to 7997
  139.7306  143.8814  152.2533 H   0  0  0  0  0  0  0  0  0  0  0  0  # atno 10167 bound_to 10162
  156.1315  130.6399  150.9629 H   0  0  0  0  0  0  0  0  0  0  0  0  # atno 10718 bound_to 10713
  153.1431  135.4634  154.9525 H   0  0  0  0  0  0  0  0  0  0  0  0  # atno 10763 bound_to 10752
  154.7763  135.3174  154.8086 H   0  0  0  0  0  0  0  0  0  0  0  0  # atno 10764 bound_to 10752
  153.8605  135.6913  153.4837 H   0  0  0  0  0  0  0  0  0  0  0  0  # atno 10765 bound_to 10752
  140.9810  134.0673  157.3765 H   0  0  0  0  0  0  0  0  0  0  0  0  # atno 11005 bound_to 11000
  144.7217  140.4396  143.7003 LP  0  0  0  0  0  0  0  0  0  0  0  0  # atno 17320 bound_to 7965
  145.6433  139.1553  143.2903 LP  0  0  0  0  0  0  0  0  0  0  0  0  # atno 17321 bound_to 7965
  139.8736  144.7055  150.8958 LP  0  0  0  0  0  0  0  0  0  0  0  0  # atno 17342 bound_to 10162
  140.7770  143.3718  151.1636 LP  0  0  0  0  0  0  0  0  0  0  0  0  # atno 17343 bound_to 10162
  157.6493  131.0899  150.8086 LP  0  0  0  0  0  0  0  0  0  0  0  0  # atno 17370 bound_to 10713
  156.8171  130.4971  149.5348 LP  0  0  0  0  0  0  0  0  0  0  0  0  # atno 17371 bound_to 10713
  139.8950  135.0139  156.6980 LP  0  0  0  0  0  0  0  0  0  0  0  0  # atno 17394 bound_to 11000
  140.7187  133.9160  155.8132 LP  0  0  0  0  0  0  0  0  0  0  0  0  # atno 17395 bound_to 11000

$$$$
