AV-unprocessed.smi:2613|AV-procd|sdf|10213|dock10
  -GOLD-   2272014223D 1   1.00000     0.00000
 Structure written by MMmdl.
 28 29  0  0  0  0  0  0  0  0  3 V2000
  146.7930  139.6528  152.1153 C   0  0  0  0  0  0  0  0  0  0  0  0
  147.9400  139.6828  153.0682 C   0  0  0  0  0  0  0  0  0  0  0  0
  148.8303  138.6741  153.2862 N   0  3  0  0  0  0  0  0  0  0  0  0
  149.7599  139.0656  154.2511 C   0  0  0  0  0  0  0  0  0  0  0  0
  150.8431  138.3875  154.7983 C   0  0  0  0  0  0  0  0  0  0  0  0
  151.6053  139.0674  155.7791 C   0  0  0  0  0  0  0  0  0  0  0  0
  152.7874  138.3841  156.4117 C   0  0  0  0  0  0  0  0  0  0  0  0
  153.4502  138.9990  157.2762 O   0  0  0  0  0  0  0  0  0  0  0  0
  153.0708  137.2191  156.0539 O   0  5  0  0  0  0  0  0  0  0  0  0
  151.2563  140.3845  156.1659 C   0  0  0  0  0  0  0  0  0  0  0  0
  150.1555  141.0629  155.6027 C   0  0  0  0  0  0  0  0  0  0  0  0
  149.4201  140.3756  154.6404 C   0  0  0  0  0  0  0  0  0  0  0  0
  148.2940  140.7166  153.8836 N   0  0  0  0  0  0  0  0  0  0  0  0
  147.6836  142.0403  154.0585 C   0  0  0  0  0  0  0  0  0  0  0  0
  146.2185  141.9400  154.5048 C   0  0  0  0  0  0  0  0  0  0  0  0
  145.6399  143.2261  154.5164 O   0  0  0  0  0  0  0  0  0  0  0  0
  146.7049  138.6698  151.6520 H   0  0  0  0  0  0  0  0  0  0  0  0
  146.9374  140.3954  151.3305 H   0  0  0  0  0  0  0  0  0  0  0  0
  145.8630  139.8750  152.6390 H   0  0  0  0  0  0  0  0  0  0  0  0
  151.0900  137.3825  154.4875 H   0  0  0  0  0  0  0  0  0  0  0  0
  151.8417  140.8982  156.9150 H   0  0  0  0  0  0  0  0  0  0  0  0
  149.9057  142.0663  155.9135 H   0  0  0  0  0  0  0  0  0  0  0  0
  148.2782  142.6111  154.7728 H   0  0  0  0  0  0  0  0  0  0  0  0
  147.7539  142.5670  153.1060 H   0  0  0  0  0  0  0  0  0  0  0  0
  145.6523  141.3017  153.8257 H   0  0  0  0  0  0  0  0  0  0  0  0
  146.1424  141.5068  155.5025 H   0  0  0  0  0  0  0  0  0  0  0  0
  145.8668  143.6672  153.7118 H   0  0  0  0  0  0  0  0  0  0  0  0
  148.8029  137.7817  152.8101 H   0  0  0  0  0  0  0  0  0  0  0  0
  1  2  1  0  0  0  0
  1 17  1  0  0  0  0
  1 18  1  0  0  0  0
  1 19  1  0  0  0  0
  2 13  1  0  0  0  0
  2  3  2  0  0  0  0
  3  4  1  0  0  0  0
  3 28  1  0  0  0  0
  4 12  2  0  0  0  0
  4  5  1  0  0  0  0
  5  6  2  0  0  0  0
  5 20  1  0  0  0  0
  6  7  1  0  0  0  0
  6 10  1  0  0  0  0
  7  8  2  0  0  0  0
  7  9  1  0  0  0  0
 10 11  2  0  0  0  0
 10 21  1  0  0  0  0
 11 12  1  0  0  0  0
 11 22  1  0  0  0  0
 12 13  1  0  0  0  0
 13 14  1  0  0  0  0
 14 15  1  0  0  0  0
 14 23  1  0  0  0  0
 14 24  1  0  0  0  0
 15 16  1  0  0  0  0
 15 25  1  0  0  0  0
 15 26  1  0  0  0  0
 16 27  1  0  0  0  0
M  CHG  1   3   1
M  CHG  1   9  -1
M  END
> <s_m_source_file>
AV-unprocessed.smi

> <i_m_source_file_index>
2613

> <i_lp_mmshare_version>
43012

> <i_f3d_flags>
0

> <s_epik_input>
W09IXVtDSDJdW0NIMl1uKGMobjEpW0NIM10pYyhjMTIpW2NIXVtjSF1jKFtjSF0yKUMoPU8pW09IXQ==

> <s_epik_cmdline>
J2VwaWtfcHl0aG9uJywgJy1waCcsICc3LjAnLCAnLXRuJywgJzgnLCAnLW1hJywgJzIwMCcsICctbWV0YWxfYmluZGluZycsICctaW1hZScsICc8aW5maWxlLm1hZT4nLCAnLW9tYWUnLCAnPG91dGZpbGUubWFlPic=

> <r_epik_Ionization_Penalty>
0.929425

> <r_epik_Ionization_Penalty_Charging>
0.929425

> <r_epik_Ionization_Penalty_Neutral>
5.76694e-08

> <r_epik_State_Penalty>
0.971794

> <r_epik_Charging_Adjusted_Penalty>
1.90122

> <i_epik_Tot_Q>
0

> <i_epik_Tot_abs_Q>
2

> <r_epik_Metal_State_Penalty>
4.93694

> <b_epik_Metal_Only>
0

> <s_lp_Force_Field>
OPLS_2005

> <r_lp_Energy>
5.88702

> <b_lp_Chiralities_Consistent>
1

> <s_lp_Variant>
AV-unprocessed.smi:2613-2

> <Gold.Version>
5.8.1

> <Gold.Id.Protein>
6NUR|6NUR_protein|mol2

> <Gold.PLP.Fitness>
47.1401

> <Gold.PLP.PLP>
-31.5131

> <Gold.PLP.part.hbond>
-3.8854

> <Gold.PLP.part.metal>
0.0000

> <Gold.PLP.part.buried>
3.4625

> <Gold.PLP.part.nonpolar>
-31.7610

> <Gold.PLP.part.repulsive>
0.0734

> <Gold.PLP.ligand.clash>
0.0000

> <Gold.PLP.ligand.torsion>
0.0112

> <Gold.PLP.Chemscore.Hbond>
5.2160

> <Gold.PLP.Chemscore.CHOScore>
0.0000

> <Gold.PLP.Chemscore.Metal>
0.0000

> <Gold.Chemscore.Hbonds>
donor molecule, donor type, donor heavy atom, donor atom, acceptor molecule, acceptor atom, score
      L1  H     3    28       P1  7948  2.00
      P1  H  7997  8010       L1     8  2.00
      P1  H 10752 10765       L1     9  1.18

> <Gold.PLP.Chemscore.Internal.Correction>
0.0014

> <Gold.Rescore>
     Score         DG    S(hbond)    S(metal)    S(lipo)     H(rot)  DE(clash)    DE(int)     intcor
     16.59     -16.79       2.87        0.00      55.48       1.86       0.17       0.03       ----

> <Gold.Chemscore.Fitness>
16.5870

> <Gold.Chemscore.DG>
-16.7875

> <Gold.Chemscore.ZeroCoef>
-5.4800

> <Gold.Chemscore.Hbond>
2.8659

> <Gold.Chemscore.Metal>
0.0000

> <Gold.Chemscore.Lipo>
55.4821

> <Gold.Chemscore.Internal_Hbond>
0.0000

> <Gold.Chemscore.DEClash>
0.1669

> <Gold.Chemscore.DEInternal>
0.0335

> <Gold.Chemscore.Rot>
1.8579

> <Gold.Chemscore.Internal.Correction>
   9.000000E+99

> <Gold.Chemscore.Hbonds>
donor molecule, donor type, donor heavy atom, donor atom, acceptor molecule, acceptor atom, score
      L1  H     3    28       P1  7948  1.00
      P1  H  7997  8010       L1     8  0.80
      P1  H 10752 10765       L1     9  0.59

> <Gold.Chemscore.Hbond.Weighted>
-9.5722

> <Gold.Chemscore.Metal.Weighted>
-0.0000

> <Gold.Chemscore.Lipo.Weighted>
-6.4914

> <Gold.Chemscore.Internal_Hbond.Weighted>
0.0000

> <Gold.Chemscore.DEClash.Weighted>
0.1669

> <Gold.Chemscore.DEInternal.Weighted>
0.0335

> <Gold.Chemscore.Rot.Weighted>
4.7561

> <Gold.Chemscore.Internal.Correction.Weighted>
   9.000000E+99

> <Gold.Protein.RotatedTorsions>
[ 6907 6896 6895 6894 ] final   62.75 input  -60.11 | X-H torsion
[ 7974 7965 7964 7962 ] final  -67.55 input  175.53 | X-H torsion
[ 8008 7997 7996 7995 ] final   58.10 input   59.86 | X-H torsion
[ 10167 10162 10161 10158 ] final  158.95 input  -65.29 | X-H torsion
[ 10718 10713 10712 10709 ] final  -38.78 input   66.30 | X-H torsion
[ 10763 10752 10751 10750 ] final -140.14 input  -60.55 | X-H torsion
[ 11005 11000 10999 10996 ] final   -8.34 input  -57.11 | X-H torsion

> <Gold.Protein.ActiveResidues>
 VAL166  LYS551  ARG553  GLY616  TRP617  ASP618  TYR619  PRO620  LYS621  CYS622 
 ASP623  PHE694  ASN695  SER759  ASP760  ASP761  ALA762  ILE779  LEU786  VAL792 
 PHE793  MET794  SER795  GLU796  ALA797  LYS798  CYS799  TRP800  GLU811  SER814 

> <Gold.Protein.RotatedAtoms>
  152.4197  134.5977  159.9991 H   0  0  0  0  0  0  0  0  0  0  0  0  # atno 6907 bound_to 6896
  151.6131  133.3340  159.3079 H   0  0  0  0  0  0  0  0  0  0  0  0  # atno 6908 bound_to 6896
  150.8085  134.7264  159.6732 H   0  0  0  0  0  0  0  0  0  0  0  0  # atno 6909 bound_to 6896
  145.7277  140.9011  143.0596 H   0  0  0  0  0  0  0  0  0  0  0  0  # atno 7974 bound_to 7965
  155.5445  140.3485  155.4454 H   0  0  0  0  0  0  0  0  0  0  0  0  # atno 8008 bound_to 7997
  156.0628  140.1344  156.9947 H   0  0  0  0  0  0  0  0  0  0  0  0  # atno 8009 bound_to 7997
  154.4488  140.0982  156.6527 H   0  0  0  0  0  0  0  0  0  0  0  0  # atno 8010 bound_to 7997
  139.4829  144.4776  151.8489 H   0  0  0  0  0  0  0  0  0  0  0  0  # atno 10167 bound_to 10162
  156.2998  130.4238  149.8154 H   0  0  0  0  0  0  0  0  0  0  0  0  # atno 10718 bound_to 10713
  154.8588  135.3562  154.5660 H   0  0  0  0  0  0  0  0  0  0  0  0  # atno 10763 bound_to 10752
  153.6274  135.7003  153.5293 H   0  0  0  0  0  0  0  0  0  0  0  0  # atno 10764 bound_to 10752
  153.3078  135.4187  155.1269 H   0  0  0  0  0  0  0  0  0  0  0  0  # atno 10765 bound_to 10752
  140.7224  133.8817  155.8830 H   0  0  0  0  0  0  0  0  0  0  0  0  # atno 11005 bound_to 11000
  144.6900  139.9288  143.7471 LP  0  0  0  0  0  0  0  0  0  0  0  0  # atno 17320 bound_to 7965
  146.0567  139.3563  143.0606 LP  0  0  0  0  0  0  0  0  0  0  0  0  # atno 17321 bound_to 7965
  140.4250  144.2193  150.5887 LP  0  0  0  0  0  0  0  0  0  0  0  0  # atno 17342 bound_to 10162
  140.4836  143.2370  151.8919 LP  0  0  0  0  0  0  0  0  0  0  0  0  # atno 17343 bound_to 10162
  156.5537  130.8353  151.3307 LP  0  0  0  0  0  0  0  0  0  0  0  0  # atno 17370 bound_to 10713
  157.7365  130.9780  150.2139 LP  0  0  0  0  0  0  0  0  0  0  0  0  # atno 17371 bound_to 10713
  140.9992  134.1173  157.4334 LP  0  0  0  0  0  0  0  0  0  0  0  0  # atno 17394 bound_to 11000
  139.8845  135.0063  156.6373 LP  0  0  0  0  0  0  0  0  0  0  0  0  # atno 17395 bound_to 11000

$$$$
