AV-unprocessed.smi:175|AV-procd|sdf|1430|dock7
  -GOLD-   2262019213D 1   1.00000     0.00000
 Structure written by MMmdl.
 47 50  0  0  0  0  0  0  0  0  1 V2000
  152.3994  139.0195  155.6924 C   0  0  0  0  0  0  0  0  0  0  0  0
  151.0878  139.7053  156.1070 C   0  0  1  0  0  0  0  0  0  0  0  0
  151.3350  141.0346  156.5414 O   0  0  0  0  0  0  0  0  0  0  0  0
  150.0921  141.7126  156.5250 C   0  0  0  0  0  0  0  0  0  0  0  0
  149.4879  141.2723  155.1971 C   0  0  0  0  0  0  0  0  0  0  0  0
  149.9830  139.8331  155.0242 C   0  0  1  0  0  0  0  0  0  0  0  0
  150.5120  139.7041  153.7144 O   0  0  0  0  0  0  0  0  0  0  0  0
  148.8410  138.7999  155.1897 C   0  0  0  0  0  0  0  0  0  0  0  0
  148.3918  138.6460  156.5656 N   0  0  0  0  0  0  0  0  0  0  0  0
  147.6778  139.5611  157.3072 C   0  0  0  0  0  0  0  0  0  0  0  0
  147.3844  139.1867  158.5221 N   0  0  0  0  0  0  0  0  0  0  0  0
  147.9464  137.9209  158.6298 C   0  0  0  0  0  0  0  0  0  0  0  0
  148.0069  136.9458  159.6653 C   0  0  0  0  0  0  0  0  0  0  0  0
  147.4567  137.0927  160.8911 N   0  0  0  0  0  0  0  0  0  0  0  0
  148.1099  136.3096  161.9416 C   0  0  0  0  0  0  0  0  0  0  0  0
  146.9681  135.5042  162.5291 C   0  0  0  0  0  0  0  0  0  0  0  0
  147.1156  134.6776  163.4277 O   0  0  0  0  0  0  0  0  0  0  0  0
  145.8249  135.8259  161.9225 N   0  0  0  0  0  0  0  0  0  0  0  0
  144.5031  135.2642  162.1888 C   0  0  0  0  0  0  0  0  0  0  0  0
  144.3923  133.7957  161.7409 C   0  0  0  0  0  0  0  0  0  0  0  0
  144.7483  133.7057  160.4602 F   0  0  0  0  0  0  0  0  0  0  0  0
  145.2085  133.0278  162.4630 F   0  0  0  0  0  0  0  0  0  0  0  0
  143.1439  133.3458  161.8654 F   0  0  0  0  0  0  0  0  0  0  0  0
  146.0096  136.8723  160.9313 C   0  0  0  0  0  0  0  0  0  0  0  0
  148.6618  135.7870  159.4129 N   0  0  0  0  0  0  0  0  0  0  0  0
  149.2282  135.5890  158.2183 C   0  0  0  0  0  0  0  0  0  0  0  0
  149.2542  136.4030  157.1602 N   0  0  0  0  0  0  0  0  0  0  0  0
  148.5915  137.5686  157.4120 C   0  0  0  0  0  0  0  0  0  0  0  0
  152.2183  138.0040  155.3395 H   0  0  0  0  0  0  0  0  0  0  0  0
  153.0849  138.9578  156.5375 H   0  0  0  0  0  0  0  0  0  0  0  0
  152.9060  139.5692  154.8990 H   0  0  0  0  0  0  0  0  0  0  0  0
  150.6843  139.1810  156.9738 H   0  0  0  0  0  0  0  0  0  0  0  0
  149.4794  141.3813  157.3651 H   0  0  0  0  0  0  0  0  0  0  0  0
  150.2197  142.7929  156.5938 H   0  0  0  0  0  0  0  0  0  0  0  0
  148.4012  141.3637  155.1875 H   0  0  0  0  0  0  0  0  0  0  0  0
  149.8746  141.9177  154.4065 H   0  0  0  0  0  0  0  0  0  0  0  0
  149.8213  139.8769  153.0931 H   0  0  0  0  0  0  0  0  0  0  0  0
  147.9839  139.0901  154.5806 H   0  0  0  0  0  0  0  0  0  0  0  0
  149.1559  137.8221  154.8222 H   0  0  0  0  0  0  0  0  0  0  0  0
  147.3719  140.5195  156.9137 H   0  0  0  0  0  0  0  0  0  0  0  0
  148.8989  135.6491  161.5768 H   0  0  0  0  0  0  0  0  0  0  0  0
  148.5329  136.9721  162.6969 H   0  0  0  0  0  0  0  0  0  0  0  0
  144.2802  135.3477  163.2535 H   0  0  0  0  0  0  0  0  0  0  0  0
  143.7518  135.8637  161.6731 H   0  0  0  0  0  0  0  0  0  0  0  0
  145.5083  137.7866  161.2509 H   0  0  0  0  0  0  0  0  0  0  0  0
  145.5861  136.5728  159.9708 H   0  0  0  0  0  0  0  0  0  0  0  0
  149.7319  134.6420  158.0915 H   0  0  0  0  0  0  0  0  0  0  0  0
  1  2  1  0  0  0  0
  1 29  1  0  0  0  0
  1 30  1  0  0  0  0
  1 31  1  0  0  0  0
  2  6  1  0  0  0  0
  2  3  1  0  0  0  0
  2 32  1  0  0  0  0
  3  4  1  0  0  0  0
  4  5  1  0  0  0  0
  4 33  1  0  0  0  0
  4 34  1  0  0  0  0
  5  6  1  0  0  0  0
  5 35  1  0  0  0  0
  5 36  1  0  0  0  0
  6  7  1  0  0  0  0
  6  8  1  0  0  0  0
  7 37  1  0  0  0  0
  8  9  1  0  0  0  0
  8 38  1  0  0  0  0
  8 39  1  0  0  0  0
  9 28  1  0  0  0  0
  9 10  1  0  0  0  0
 10 11  2  0  0  0  0
 10 40  1  0  0  0  0
 11 12  1  0  0  0  0
 12 28  2  0  0  0  0
 12 13  1  0  0  0  0
 13 14  1  0  0  0  0
 13 25  2  0  0  0  0
 14 24  1  0  0  0  0
 14 15  1  0  0  0  0
 15 16  1  0  0  0  0
 15 41  1  0  0  0  0
 15 42  1  0  0  0  0
 16 17  2  0  0  0  0
 16 18  1  0  0  0  0
 18 19  1  0  0  0  0
 18 24  1  0  0  0  0
 19 20  1  0  0  0  0
 19 43  1  0  0  0  0
 19 44  1  0  0  0  0
 20 21  1  0  0  0  0
 20 22  1  0  0  0  0
 20 23  1  0  0  0  0
 24 45  1  0  0  0  0
 24 46  1  0  0  0  0
 25 26  1  0  0  0  0
 26 27  2  0  0  0  0
 26 47  1  0  0  0  0
 27 28  1  0  0  0  0
M  END
> <s_m_source_file>
AV-unprocessed.smi

> <i_m_source_file_index>
175

> <i_lp_mmshare_version>
43012

> <i_f3d_flags>
0

> <s_epik_input>
W0NIMl0xW0NIMl1PW0NAQEhdKFtDSDNdKVtDQEBdMShbT0hdKVtDSDJdbihbY0hdbjIpYyhjMjMpbltjSF1uYzNONFtDSDJdQyg9TylOKFtDSDJdNClbQ0gyXUMoRikoRilG

> <s_epik_cmdline>
J2VwaWtfcHl0aG9uJywgJy1waCcsICc3LjAnLCAnLXRuJywgJzgnLCAnLW1hJywgJzIwMCcsICctbWV0YWxfYmluZGluZycsICctaW1hZScsICc8aW5maWxlLm1hZT4nLCAnLW9tYWUnLCAnPG91dGZpbGUubWFlPic=

> <r_lp_tautomer_probability>
1

> <r_epik_Ionization_Penalty>
0.000307802

> <r_epik_Ionization_Penalty_Charging>
0

> <r_epik_Ionization_Penalty_Neutral>
0.000307802

> <r_epik_State_Penalty>
-0

> <r_epik_Charging_Adjusted_Penalty>
0

> <i_epik_Tot_Q>
0

> <i_epik_Tot_abs_Q>
0

> <r_epik_Metal_State_Penalty>
-0

> <b_epik_Metal_Only>
0

> <s_epik_Chemistry_Notes>
This compound contains an acetal/aminal-like group ( X-CH(R)-Y where X, Y are N, S, or O) that may be acid/base labile, releasing an aldehyde.

> <s_lp_Force_Field>
OPLS_2005

> <r_lp_Energy>
36.8699

> <b_lp_Chiralities_Consistent>
1

> <s_lp_Variant>
AV-unprocessed.smi:175-2

> <Gold.Version>
5.8.1

> <Gold.Id.Protein>
6NUR|6NUR_protein|mol2

> <Gold.PLP.Fitness>
41.0718

> <Gold.PLP.PLP>
-35.9799

> <Gold.PLP.part.hbond>
-6.0797

> <Gold.PLP.part.metal>
0.0000

> <Gold.PLP.part.buried>
-1.3121

> <Gold.PLP.part.nonpolar>
-29.6086

> <Gold.PLP.part.repulsive>
0.0358

> <Gold.PLP.ligand.clash>
0.0000

> <Gold.PLP.ligand.torsion>
0.9469

> <Gold.PLP.Chemscore.Hbond>
2.2620

> <Gold.PLP.Chemscore.CHOScore>
0.0000

> <Gold.PLP.Chemscore.Metal>
0.0000

> <Gold.Chemscore.Hbonds>
donor molecule, donor type, donor heavy atom, donor atom, acceptor molecule, acceptor atom, score
      L1  H     7    37       P1  7957  0.75
      P1  H  6934  6947       L1    14  0.55
      P1  H  7989  7998       L1     7  0.96

> <Gold.PLP.Chemscore.Internal.Correction>
0.1996

> <Gold.Rescore>
     Score         DG    S(hbond)    S(metal)    S(lipo)     H(rot)  DE(clash)    DE(int)     intcor
      5.66      -8.72       1.32        0.00      56.71       3.05       0.60       2.46       ----

> <Gold.Chemscore.Fitness>
5.6612

> <Gold.Chemscore.DG>
-8.7233

> <Gold.Chemscore.ZeroCoef>
-5.4800

> <Gold.Chemscore.Hbond>
1.3214

> <Gold.Chemscore.Metal>
0.0000

> <Gold.Chemscore.Lipo>
56.7060

> <Gold.Chemscore.Internal_Hbond>
0.0000

> <Gold.Chemscore.DEClash>
0.6035

> <Gold.Chemscore.DEInternal>
2.4586

> <Gold.Chemscore.Rot>
3.0487

> <Gold.Chemscore.Internal.Correction>
   9.000000E+99

> <Gold.Chemscore.Hbonds>
donor molecule, donor type, donor heavy atom, donor atom, acceptor molecule, acceptor atom, score
      L1  H     7    37       P1  7957  0.75
      P1  H  6934  6947       L1    14  0.01
      P1  H  7989  7998       L1     7  0.34

> <Gold.Chemscore.Hbond.Weighted>
-4.4133

> <Gold.Chemscore.Metal.Weighted>
-0.0000

> <Gold.Chemscore.Lipo.Weighted>
-6.6346

> <Gold.Chemscore.Internal_Hbond.Weighted>
0.0000

> <Gold.Chemscore.DEClash.Weighted>
0.6035

> <Gold.Chemscore.DEInternal.Weighted>
2.4586

> <Gold.Chemscore.Rot.Weighted>
7.8046

> <Gold.Chemscore.Internal.Correction.Weighted>
   9.000000E+99

> <Gold.Protein.RotatedTorsions>
[ 6907 6896 6895 6894 ] final  107.89 input  -60.11 | X-H torsion
[ 7974 7965 7964 7962 ] final  108.10 input  175.53 | X-H torsion
[ 8008 7997 7996 7995 ] final  -79.09 input   59.86 | X-H torsion
[ 10167 10162 10161 10158 ] final   90.28 input  -65.29 | X-H torsion
[ 10718 10713 10712 10709 ] final  119.04 input   66.30 | X-H torsion
[ 10763 10752 10751 10750 ] final -146.96 input  -60.55 | X-H torsion
[ 11005 11000 10999 10996 ] final  -83.22 input  -57.11 | X-H torsion

> <Gold.Protein.ActiveResidues>
 VAL166  LYS551  ARG553  GLY616  TRP617  ASP618  TYR619  PRO620  LYS621  CYS622 
 ASP623  PHE694  ASN695  SER759  ASP760  ASP761  ALA762  ILE779  LEU786  VAL792 
 PHE793  MET794  SER795  GLU796  ALA797  LYS798  CYS799  TRP800  GLU811  SER814 

> <Gold.Protein.RotatedAtoms>
  152.5135  133.9169  159.7514 H   0  0  0  0  0  0  0  0  0  0  0  0  # atno 6907 bound_to 6896
  150.9549  133.6500  159.2772 H   0  0  0  0  0  0  0  0  0  0  0  0  # atno 6908 bound_to 6896
  151.3765  135.0937  159.9535 H   0  0  0  0  0  0  0  0  0  0  0  0  # atno 6909 bound_to 6896
  145.2850  139.2619  143.3895 H   0  0  0  0  0  0  0  0  0  0  0  0  # atno 7974 bound_to 7965
  154.5752  140.0684  156.9023 H   0  0  0  0  0  0  0  0  0  0  0  0  # atno 8008 bound_to 7997
  155.2562  140.3355  155.4259 H   0  0  0  0  0  0  0  0  0  0  0  0  # atno 8009 bound_to 7997
  156.2148  140.1774  156.7598 H   0  0  0  0  0  0  0  0  0  0  0  0  # atno 8010 bound_to 7997
  139.8489  144.6603  150.9193 H   0  0  0  0  0  0  0  0  0  0  0  0  # atno 10167 bound_to 10162
  157.5989  131.1054  150.7840 H   0  0  0  0  0  0  0  0  0  0  0  0  # atno 10718 bound_to 10713
  154.8310  135.3373  154.6743 H   0  0  0  0  0  0  0  0  0  0  0  0  # atno 10763 bound_to 10752
  153.7363  135.6949  153.4982 H   0  0  0  0  0  0  0  0  0  0  0  0  # atno 10764 bound_to 10752
  153.2276  135.4427  155.0511 H   0  0  0  0  0  0  0  0  0  0  0  0  # atno 10765 bound_to 10752
  141.1659  133.7283  156.8688 H   0  0  0  0  0  0  0  0  0  0  0  0  # atno 11005 bound_to 11000
  146.3204  140.3327  142.8641 LP  0  0  0  0  0  0  0  0  0  0  0  0  # atno 17320 bound_to 7965
  144.9221  140.7879  143.5742 LP  0  0  0  0  0  0  0  0  0  0  0  0  # atno 17321 bound_to 7965
  140.7790  143.3845  151.1418 LP  0  0  0  0  0  0  0  0  0  0  0  0  # atno 17342 bound_to 10162
  139.7485  143.8815  152.3070 LP  0  0  0  0  0  0  0  0  0  0  0  0  # atno 17343 bound_to 10162
  156.8244  130.4995  149.5339 LP  0  0  0  0  0  0  0  0  0  0  0  0  # atno 17370 bound_to 10713
  156.1058  130.6003  150.9968 LP  0  0  0  0  0  0  0  0  0  0  0  0  # atno 17371 bound_to 10713
  140.1796  134.9042  157.2932 LP  0  0  0  0  0  0  0  0  0  0  0  0  # atno 17394 bound_to 11000
  140.2410  134.3796  155.7481 LP  0  0  0  0  0  0  0  0  0  0  0  0  # atno 17395 bound_to 11000

$$$$
