AV-unprocessed.smi:1677|AV-procd|sdf|6721|dock4
  -GOLD-   22720 7463D 1   1.00000     0.00000
 Structure written by MMmdl.
 37 38  0  0  0  0  0  0  0  0  2 V2000
  149.1199  138.8799  156.0018 C   0  0  0  0  0  0  0  0  0  0  0  0
  150.1172  139.9781  155.5984 C   0  0  1  0  0  0  0  0  0  0  0  0
  149.6276  140.8363  154.4119 C   0  0  0  0  0  0  0  0  0  0  0  0
  148.1672  140.9476  154.3542 N   0  0  0  0  0  0  0  0  0  0  0  0
  147.3677  141.7549  155.1219 C   0  0  0  0  0  0  0  0  0  0  0  0
  146.0774  141.5226  154.7208 C   0  0  0  0  0  0  0  0  0  0  0  0
  146.1433  140.5811  153.7286 N   0  3  0  0  0  0  0  0  0  0  0  0
  147.4147  140.2297  153.5100 C   0  0  0  0  0  0  0  0  0  0  0  0
  150.3895  140.8258  156.7552 N   0  0  0  0  0  0  0  0  0  0  0  0
  151.5606  140.8965  157.4075 C   0  0  0  0  0  0  0  0  0  0  0  0
  152.5546  140.2479  157.0792 O   0  0  0  0  0  0  0  0  0  0  0  0
  151.6156  141.8413  158.6153 C   0  0  2  0  0  0  0  0  0  0  0  0
  151.3716  143.3092  158.1945 C   0  0  0  0  0  0  0  0  0  0  0  0
  151.6732  144.2847  159.3188 C   0  0  0  0  0  0  0  0  0  0  0  0
  152.3825  143.9561  160.4122 C   0  0  0  0  0  0  0  0  0  0  0  0
  152.9673  142.5741  160.6453 C   0  0  0  0  0  0  0  0  0  0  0  0
  152.9548  141.7127  159.3682 C   0  0  0  0  0  0  0  0  0  0  0  0
  148.9616  138.1663  155.1931 H   0  0  0  0  0  0  0  0  0  0  0  0
  148.1509  139.3027  156.2689 H   0  0  0  0  0  0  0  0  0  0  0  0
  149.4852  138.3163  156.8611 H   0  0  0  0  0  0  0  0  0  0  0  0
  151.0458  139.4821  155.3095 H   0  0  0  0  0  0  0  0  0  0  0  0
  150.0486  141.8419  154.4660 H   0  0  0  0  0  0  0  0  0  0  0  0
  149.9558  140.4085  153.4636 H   0  0  0  0  0  0  0  0  0  0  0  0
  147.7672  142.4187  155.8754 H   0  0  0  0  0  0  0  0  0  0  0  0
  145.1422  141.9449  155.0585 H   0  0  0  0  0  0  0  0  0  0  0  0
  147.7637  139.5109  152.7898 H   0  0  0  0  0  0  0  0  0  0  0  0
  149.6263  141.3933  157.0950 H   0  0  0  0  0  0  0  0  0  0  0  0
  150.8211  141.5543  159.3072 H   0  0  0  0  0  0  0  0  0  0  0  0
  151.9876  143.5858  157.3376 H   0  0  0  0  0  0  0  0  0  0  0  0
  150.3317  143.4384  157.8925 H   0  0  0  0  0  0  0  0  0  0  0  0
  151.2986  145.2913  159.2046 H   0  0  0  0  0  0  0  0  0  0  0  0
  152.5518  144.6929  161.1836 H   0  0  0  0  0  0  0  0  0  0  0  0
  153.9875  142.6719  161.0174 H   0  0  0  0  0  0  0  0  0  0  0  0
  152.3868  142.0908  161.4318 H   0  0  0  0  0  0  0  0  0  0  0  0
  153.1565  140.6722  159.6268 H   0  0  0  0  0  0  0  0  0  0  0  0
  153.7703  142.0309  158.7164 H   0  0  0  0  0  0  0  0  0  0  0  0
  145.3467  140.2030  153.2313 H   0  0  0  0  0  0  0  0  0  0  0  0
  1  2  1  0  0  0  0
  1 18  1  0  0  0  0
  1 19  1  0  0  0  0
  1 20  1  0  0  0  0
  2  3  1  0  0  0  0
  2  9  1  0  0  0  0
  2 21  1  0  0  0  0
  3  4  1  0  0  0  0
  3 22  1  0  0  0  0
  3 23  1  0  0  0  0
  4  8  1  0  0  0  0
  4  5  1  0  0  0  0
  5  6  2  0  0  0  0
  5 24  1  0  0  0  0
  6  7  1  0  0  0  0
  6 25  1  0  0  0  0
  7  8  2  0  0  0  0
  7 37  1  0  0  0  0
  8 26  1  0  0  0  0
  9 10  1  0  0  0  0
  9 27  1  0  0  0  0
 10 11  2  0  0  0  0
 10 12  1  0  0  0  0
 12 17  1  0  0  0  0
 12 13  1  0  0  0  0
 12 28  1  0  0  0  0
 13 14  1  0  0  0  0
 13 29  1  0  0  0  0
 13 30  1  0  0  0  0
 14 15  2  0  0  0  0
 14 31  1  0  0  0  0
 15 16  1  0  0  0  0
 15 32  1  0  0  0  0
 16 17  1  0  0  0  0
 16 33  1  0  0  0  0
 16 34  1  0  0  0  0
 17 35  1  0  0  0  0
 17 36  1  0  0  0  0
M  CHG  1   7   1
M  END
> <s_m_source_file>
AV-unprocessed.smi

> <i_m_source_file_index>
1677

> <i_lp_mmshare_version>
43012

> <i_f3d_flags>
0

> <s_epik_input>
W2NIXTFuW2NIXVtjSF1uMVtDSDJdW0NAQEhdKFtDSDNdKVtOSF1DKD1PKVtDQEBIXTJbQ0gyXVtDSF09W0NIXVtDSDJdW0NIMl0y

> <s_epik_cmdline>
J2VwaWtfcHl0aG9uJywgJy1waCcsICc3LjAnLCAnLXRuJywgJzgnLCAnLW1hJywgJzIwMCcsICctbWV0YWxfYmluZGluZycsICctaW1hZScsICc8aW5maWxlLm1hZT4nLCAnLW9tYWUnLCAnPG91dGZpbGUubWFlPic=

> <r_lp_tautomer_probability>
1

> <r_epik_Ionization_Penalty>
0.245541

> <r_epik_Ionization_Penalty_Charging>
0

> <r_epik_Ionization_Penalty_Neutral>
0.245541

> <r_epik_State_Penalty>
0.236686

> <r_epik_Charging_Adjusted_Penalty>
0.236686

> <i_epik_Tot_Q>
1

> <i_epik_Tot_abs_Q>
1

> <r_epik_Metal_State_Penalty>
0.529594

> <b_epik_Metal_Only>
0

> <s_lp_Force_Field>
OPLS_2005

> <r_lp_Energy>
11.4362

> <b_lp_Chiralities_Consistent>
1

> <s_lp_Variant>
AV-unprocessed.smi:1677-2

> <Gold.Version>
5.8.1

> <Gold.Id.Protein>
6NUR|6NUR_protein|mol2

> <Gold.PLP.Fitness>
49.5905

> <Gold.PLP.PLP>
-36.2943

> <Gold.PLP.part.hbond>
-2.0000

> <Gold.PLP.part.metal>
0.0000

> <Gold.PLP.part.buried>
-0.2414

> <Gold.PLP.part.nonpolar>
-33.4670

> <Gold.PLP.part.repulsive>
0.0434

> <Gold.PLP.ligand.clash>
0.0000

> <Gold.PLP.ligand.torsion>
0.7371

> <Gold.PLP.Chemscore.Hbond>
3.0000

> <Gold.PLP.Chemscore.CHOScore>
1.9126

> <Gold.PLP.Chemscore.Metal>
0.0000

> <Gold.Chemscore.Hbonds>
donor molecule, donor type, donor heavy atom, donor atom, acceptor molecule, acceptor atom, score
      L1  H     7    37       P1 10175  1.92
      P1  H  7997  8009       L1    11  1.00
      L1  C     5    24       P1  8028  0.96
      L1  C     8    26       P1  7957  0.85

> <Gold.PLP.Chemscore.Internal.Correction>
0.0325

> <Gold.Rescore>
     Score         DG    S(hbond)    S(metal)    S(lipo)     H(rot)  DE(clash)    DE(int)     intcor
     16.68     -17.70       1.92        0.00      89.44       1.81       0.07       0.95       ----

> <Gold.Chemscore.Fitness>
16.6811

> <Gold.Chemscore.DG>
-17.6959

> <Gold.Chemscore.ZeroCoef>
-5.4800

> <Gold.Chemscore.Hbond>
1.9153

> <Gold.Chemscore.Metal>
0.0000

> <Gold.Chemscore.Lipo>
89.4390

> <Gold.Chemscore.Internal_Hbond>
0.0000

> <Gold.Chemscore.DEClash>
0.0686

> <Gold.Chemscore.DEInternal>
0.9461

> <Gold.Chemscore.Rot>
1.8147

> <Gold.Chemscore.Internal.Correction>
   9.000000E+99

> <Gold.Chemscore.Hbonds>
donor molecule, donor type, donor heavy atom, donor atom, acceptor molecule, acceptor atom, score
      L1  H     7    37       P1 10175  0.92
      P1  H  7997  8009       L1    11  0.95

> <Gold.Chemscore.Hbond.Weighted>
-6.3971

> <Gold.Chemscore.Metal.Weighted>
-0.0000

> <Gold.Chemscore.Lipo.Weighted>
-10.4644

> <Gold.Chemscore.Internal_Hbond.Weighted>
0.0000

> <Gold.Chemscore.DEClash.Weighted>
0.0686

> <Gold.Chemscore.DEInternal.Weighted>
0.9461

> <Gold.Chemscore.Rot.Weighted>
4.6456

> <Gold.Chemscore.Internal.Correction.Weighted>
   9.000000E+99

> <Gold.Protein.RotatedTorsions>
[ 6907 6896 6895 6894 ] final -114.13 input  -60.11 | X-H torsion
[ 7974 7965 7964 7962 ] final  140.04 input  175.53 | X-H torsion
[ 8008 7997 7996 7995 ] final -178.31 input   59.86 | X-H torsion
[ 10167 10162 10161 10158 ] final  -77.45 input  -65.29 | X-H torsion
[ 10718 10713 10712 10709 ] final   50.68 input   66.30 | X-H torsion
[ 10763 10752 10751 10750 ] final  -28.52 input  -60.55 | X-H torsion
[ 11005 11000 10999 10996 ] final  154.60 input  -57.11 | X-H torsion

> <Gold.Protein.ActiveResidues>
 VAL166  LYS551  ARG553  GLY616  TRP617  ASP618  TYR619  PRO620  LYS621  CYS622 
 ASP623  PHE694  ASN695  SER759  ASP760  ASP761  ALA762  ILE779  LEU786  VAL792 
 PHE793  MET794  SER795  GLU796  ALA797  LYS798  CYS799  TRP800  GLU811  SER814 

> <Gold.Protein.RotatedAtoms>
  150.7879  133.8845  159.3295 H   0  0  0  0  0  0  0  0  0  0  0  0  # atno 6907 bound_to 6896
  151.6691  135.0977  160.0204 H   0  0  0  0  0  0  0  0  0  0  0  0  # atno 6908 bound_to 6896
  152.3947  133.6691  159.6302 H   0  0  0  0  0  0  0  0  0  0  0  0  # atno 6909 bound_to 6896
  144.9223  139.5152  143.5657 H   0  0  0  0  0  0  0  0  0  0  0  0  # atno 7974 bound_to 7965
  156.0173  140.1253  157.0393 H   0  0  0  0  0  0  0  0  0  0  0  0  # atno 8008 bound_to 7997
  154.4298  140.1075  156.5984 H   0  0  0  0  0  0  0  0  0  0  0  0  # atno 8009 bound_to 7997
  155.5994  140.3470  155.4592 H   0  0  0  0  0  0  0  0  0  0  0  0  # atno 8010 bound_to 7997
  140.4769  143.2412  151.8119 H   0  0  0  0  0  0  0  0  0  0  0  0  # atno 10167 bound_to 10162
  157.4908  130.8374  149.8200 H   0  0  0  0  0  0  0  0  0  0  0  0  # atno 10718 bound_to 10713
  153.7497  135.6927  153.4948 H   0  0  0  0  0  0  0  0  0  0  0  0  # atno 10763 bound_to 10752
  153.2012  135.4436  155.0267 H   0  0  0  0  0  0  0  0  0  0  0  0  # atno 10764 bound_to 10752
  154.8192  135.3413  154.7018 H   0  0  0  0  0  0  0  0  0  0  0  0  # atno 10765 bound_to 10752
  140.1504  134.8679  157.2447 H   0  0  0  0  0  0  0  0  0  0  0  0  # atno 11005 bound_to 11000
  146.3210  139.8111  142.8945 LP  0  0  0  0  0  0  0  0  0  0  0  0  # atno 17320 bound_to 7965
  145.3277  141.0259  143.3464 LP  0  0  0  0  0  0  0  0  0  0  0  0  # atno 17321 bound_to 7965
  139.4827  144.4822  151.9292 LP  0  0  0  0  0  0  0  0  0  0  0  0  # atno 17342 bound_to 10162
  140.3907  144.2619  150.5900 LP  0  0  0  0  0  0  0  0  0  0  0  0  # atno 17343 bound_to 10162
  156.0172  130.3809  150.2073 LP  0  0  0  0  0  0  0  0  0  0  0  0  # atno 17370 bound_to 10713
  157.0262  130.9994  151.3325 LP  0  0  0  0  0  0  0  0  0  0  0  0  # atno 17371 bound_to 10713
  140.2612  134.3569  155.7406 LP  0  0  0  0  0  0  0  0  0  0  0  0  # atno 17394 bound_to 11000
  141.2198  133.7370  156.9083 LP  0  0  0  0  0  0  0  0  0  0  0  0  # atno 17395 bound_to 11000

$$$$
