AV-unprocessed.smi:2604|AV-procd|sdf|10190|dock1
  -GOLD-   2272014203D 1   1.00000     0.00000
 Structure written by MMmdl.
 26 27  0  0  0  0  0  0  0  0  2 V2000
  144.3358  133.6110  150.2198 C   0  0  0  0  0  0  0  0  0  0  0  0
  145.3542  132.7766  150.7211 C   0  0  0  0  0  0  0  0  0  0  0  0
  146.3789  133.2299  151.4747 N   0  0  0  0  0  0  0  0  0  0  0  0
  146.4190  134.5487  151.7608 C   0  0  0  0  0  0  0  0  0  0  0  0
  145.4481  135.4723  151.3157 C   0  0  0  0  0  0  0  0  0  0  0  0
  145.5685  136.9457  151.6694 C   0  0  1  0  0  0  0  0  0  0  0  0
  145.5492  137.1550  153.2008 C   0  0  0  0  0  0  0  0  0  0  0  0
  145.6240  138.5934  153.5280 N   0  3  0  0  0  0  0  0  0  0  0  0
  146.8070  139.2195  152.9055 C   0  0  0  0  0  0  0  0  0  0  0  0
  146.7907  138.9781  151.3852 C   0  0  0  0  0  0  0  0  0  0  0  0
  146.7821  137.5441  151.1130 N   0  0  0  0  0  0  0  0  0  0  0  0
  144.3858  134.9853  150.5223 C   0  0  0  0  0  0  0  0  0  0  0  0
  143.5363  133.2056  149.6175 H   0  0  0  0  0  0  0  0  0  0  0  0
  145.3465  131.7176  150.5094 H   0  0  0  0  0  0  0  0  0  0  0  0
  147.2535  134.8759  152.3635 H   0  0  0  0  0  0  0  0  0  0  0  0
  144.7116  137.4583  151.2288 H   0  0  0  0  0  0  0  0  0  0  0  0
  144.6323  136.7483  153.6286 H   0  0  0  0  0  0  0  0  0  0  0  0
  146.3820  136.6340  153.6758 H   0  0  0  0  0  0  0  0  0  0  0  0
  144.7940  139.0493  153.1773 H   0  0  0  0  0  0  0  0  0  0  0  0
  146.7996  140.2882  153.1209 H   0  0  0  0  0  0  0  0  0  0  0  0
  147.7148  138.8088  153.3503 H   0  0  0  0  0  0  0  0  0  0  0  0
  145.9224  139.4510  150.9240 H   0  0  0  0  0  0  0  0  0  0  0  0
  147.6762  139.4188  150.9269 H   0  0  0  0  0  0  0  0  0  0  0  0
  146.8103  137.3870  150.1149 H   0  0  0  0  0  0  0  0  0  0  0  0
  143.6212  135.6509  150.1489 H   0  0  0  0  0  0  0  0  0  0  0  0
  145.6687  138.7093  154.5303 H   0  0  0  0  0  0  0  0  0  0  0  0
  1 12  1  0  0  0  0
  1  2  2  0  0  0  0
  1 13  1  0  0  0  0
  2  3  1  0  0  0  0
  2 14  1  0  0  0  0
  3  4  2  0  0  0  0
  4  5  1  0  0  0  0
  4 15  1  0  0  0  0
  5  6  1  0  0  0  0
  5 12  2  0  0  0  0
  6 11  1  0  0  0  0
  6  7  1  0  0  0  0
  6 16  1  0  0  0  0
  7  8  1  0  0  0  0
  7 17  1  0  0  0  0
  7 18  1  0  0  0  0
  8  9  1  0  0  0  0
  8 19  1  0  0  0  0
  8 26  1  0  0  0  0
  9 10  1  0  0  0  0
  9 20  1  0  0  0  0
  9 21  1  0  0  0  0
 10 11  1  0  0  0  0
 10 22  1  0  0  0  0
 10 23  1  0  0  0  0
 11 24  1  0  0  0  0
 12 25  1  0  0  0  0
M  CHG  1   8   1
M  END
> <s_m_source_file>
AV-unprocessed.smi

> <i_m_source_file_index>
2604

> <i_lp_mmshare_version>
43012

> <i_f3d_flags>
0

> <s_epik_input>
W2NIXTFbY0hdW2NIXW5bY0hdYzFbQ0BASF0yW0NIMl1bTkhdW0NIMl1bQ0gyXVtOSF0y

> <s_epik_cmdline>
J2VwaWtfcHl0aG9uJywgJy1waCcsICc3LjAnLCAnLXRuJywgJzgnLCAnLW1hJywgJzIwMCcsICctbWV0YWxfYmluZGluZycsICctaW1hZScsICc8aW5maWxlLm1hZT4nLCAnLW9tYWUnLCAnPG91dGZpbGUubWFlPic=

> <r_epik_Ionization_Penalty>
0.0181456

> <r_epik_Ionization_Penalty_Charging>
0.010317

> <r_epik_Ionization_Penalty_Neutral>
0.00782861

> <r_epik_State_Penalty>
0.306622

> <r_epik_Charging_Adjusted_Penalty>
0.316939

> <i_epik_Tot_Q>
1

> <i_epik_Tot_abs_Q>
1

> <r_epik_Metal_State_Penalty>
0.302658

> <b_epik_Metal_Only>
0

> <s_lp_Force_Field>
OPLS_2005

> <r_lp_Energy>
10.6943

> <b_lp_Chiralities_Consistent>
1

> <s_lp_Variant>
AV-unprocessed.smi:2604-2

> <Gold.Version>
5.8.1

> <Gold.Id.Protein>
6NUR|6NUR_protein|mol2

> <Gold.PLP.Fitness>
33.2790

> <Gold.PLP.PLP>
-24.3545

> <Gold.PLP.part.hbond>
-3.0000

> <Gold.PLP.part.metal>
0.0000

> <Gold.PLP.part.buried>
1.2462

> <Gold.PLP.part.nonpolar>
-21.7330

> <Gold.PLP.part.repulsive>
0.1678

> <Gold.PLP.ligand.clash>
0.0000

> <Gold.PLP.ligand.torsion>
0.0089

> <Gold.PLP.Chemscore.Hbond>
2.0000

> <Gold.PLP.Chemscore.CHOScore>
0.9780

> <Gold.PLP.Chemscore.Metal>
0.0000

> <Gold.Chemscore.Hbonds>
donor molecule, donor type, donor heavy atom, donor atom, acceptor molecule, acceptor atom, score
      L1  H     8    19       P1 10175  2.00
      L1  C     4    15       P1  7948  0.99

> <Gold.PLP.Chemscore.Internal.Correction>
0.0081

> <Gold.Rescore>
     Score         DG    S(hbond)    S(metal)    S(lipo)     H(rot)  DE(clash)    DE(int)     intcor
     12.91     -13.20       0.90        0.00      62.20       1.00       0.28       0.01       ----

> <Gold.Chemscore.Fitness>
12.9146

> <Gold.Chemscore.DG>
-13.2021

> <Gold.Chemscore.ZeroCoef>
-5.4800

> <Gold.Chemscore.Hbond>
0.8996

> <Gold.Chemscore.Metal>
0.0000

> <Gold.Chemscore.Lipo>
62.2012

> <Gold.Chemscore.Internal_Hbond>
0.0000

> <Gold.Chemscore.DEClash>
0.2764

> <Gold.Chemscore.DEInternal>
0.0111

> <Gold.Chemscore.Rot>
1.0000

> <Gold.Chemscore.Internal.Correction>
   9.000000E+99

> <Gold.Chemscore.Hbonds>
donor molecule, donor type, donor heavy atom, donor atom, acceptor molecule, acceptor atom, score
      L1  H     8    19       P1 10175  0.99

> <Gold.Chemscore.Hbond.Weighted>
-3.0045

> <Gold.Chemscore.Metal.Weighted>
-0.0000

> <Gold.Chemscore.Lipo.Weighted>
-7.2775

> <Gold.Chemscore.Internal_Hbond.Weighted>
0.0000

> <Gold.Chemscore.DEClash.Weighted>
0.2764

> <Gold.Chemscore.DEInternal.Weighted>
0.0111

> <Gold.Chemscore.Rot.Weighted>
2.5600

> <Gold.Chemscore.Internal.Correction.Weighted>
   9.000000E+99

> <Gold.Protein.RotatedTorsions>
[ 6907 6896 6895 6894 ] final -145.79 input  -60.11 | X-H torsion
[ 7974 7965 7964 7962 ] final  -10.37 input  175.53 | X-H torsion
[ 8008 7997 7996 7995 ] final   43.58 input   59.86 | X-H torsion
[ 10167 10162 10161 10158 ] final  117.82 input  -65.29 | X-H torsion
[ 10718 10713 10712 10709 ] final  -11.37 input   66.30 | X-H torsion
[ 10763 10752 10751 10750 ] final -171.34 input  -60.55 | X-H torsion
[ 11005 11000 10999 10996 ] final   38.31 input  -57.11 | X-H torsion

> <Gold.Protein.ActiveResidues>
 VAL166  LYS551  ARG553  GLY616  TRP617  ASP618  TYR619  PRO620  LYS621  CYS622 
 ASP623  PHE694  ASN695  SER759  ASP760  ASP761  ALA762  ILE779  LEU786  VAL792 
 PHE793  MET794  SER795  GLU796  ALA797  LYS798  CYS799  TRP800  GLU811  SER814 

> <Gold.Protein.RotatedAtoms>
  151.1326  133.5026  159.2598 H   0  0  0  0  0  0  0  0  0  0  0  0  # atno 6907 bound_to 6896
  151.1741  135.0331  159.8774 H   0  0  0  0  0  0  0  0  0  0  0  0  # atno 6908 bound_to 6896
  152.5460  134.1186  159.8442 H   0  0  0  0  0  0  0  0  0  0  0  0  # atno 6909 bound_to 6896
  146.2223  140.2753  142.8359 H   0  0  0  0  0  0  0  0  0  0  0  0  # atno 7974 bound_to 7965
  155.3052  140.3387  155.4246 H   0  0  0  0  0  0  0  0  0  0  0  0  # atno 8008 bound_to 7997
  156.1982  140.1723  156.7992 H   0  0  0  0  0  0  0  0  0  0  0  0  # atno 8009 bound_to 7997
  154.5526  140.0702  156.8675 H   0  0  0  0  0  0  0  0  0  0  0  0  # atno 8010 bound_to 7997
  139.6153  144.7090  151.2754 H   0  0  0  0  0  0  0  0  0  0  0  0  # atno 10167 bound_to 10162
  156.6599  130.4979  149.6034 H   0  0  0  0  0  0  0  0  0  0  0  0  # atno 10718 bound_to 10713
  154.6316  135.2887  155.0210 H   0  0  0  0  0  0  0  0  0  0  0  0  # atno 10763 bound_to 10752
  154.1368  135.6525  153.4937 H   0  0  0  0  0  0  0  0  0  0  0  0  # atno 10764 bound_to 10752
  153.0282  135.5323  154.7146 H   0  0  0  0  0  0  0  0  0  0  0  0  # atno 10765 bound_to 10752
  140.2139  134.3722  155.8036 H   0  0  0  0  0  0  0  0  0  0  0  0  # atno 11005 bound_to 11000
  144.9237  140.7897  143.5732 LP  0  0  0  0  0  0  0  0  0  0  0  0  # atno 17320 bound_to 7965
  145.2692  139.1961  143.4851 LP  0  0  0  0  0  0  0  0  0  0  0  0  # atno 17321 bound_to 7965
  140.7346  143.6760  150.8041 LP  0  0  0  0  0  0  0  0  0  0  0  0  # atno 17342 bound_to 10162
  140.0362  143.5393  152.2738 LP  0  0  0  0  0  0  0  0  0  0  0  0  # atno 17343 bound_to 10162
  156.2019  130.6625  151.1176 LP  0  0  0  0  0  0  0  0  0  0  0  0  # atno 17370 bound_to 10713
  157.7113  131.0733  150.6491 LP  0  0  0  0  0  0  0  0  0  0  0  0  # atno 17371 bound_to 10713
  141.2225  133.7157  156.8463 LP  0  0  0  0  0  0  0  0  0  0  0  0  # atno 17394 bound_to 11000
  140.1922  134.8958  157.3073 LP  0  0  0  0  0  0  0  0  0  0  0  0  # atno 17395 bound_to 11000

$$$$
