AV-unprocessed.smi:598|AV-procd|sdf|3024|dock7
  -GOLD-   2262023533D 1   1.00000     0.00000
 Structure written by MMmdl.
 43 44  0  0  0  0  0  0  0  0  3 V2000
  145.5917  131.4497  152.5313 C   0  0  0  0  0  0  0  0  0  0  0  0
  146.2101  132.1030  151.2782 C   0  0  1  0  0  0  0  0  0  0  0  0
  145.2108  132.1357  150.1041 C   0  0  0  0  0  0  0  0  0  0  0  0
  144.1023  133.1786  150.3144 C   0  0  0  0  0  0  0  0  0  0  0  0
  144.6951  134.5733  150.5552 C   0  0  0  0  0  0  0  0  0  0  0  0
  145.6931  134.5805  151.7292 C   0  0  2  0  0  0  0  0  0  0  0  0
  146.2627  135.9231  151.8436 N   0  0  0  0  0  0  0  0  0  0  0  0
  145.5941  137.0383  152.1765 C   0  0  0  0  0  0  0  0  0  0  0  0
  144.3959  137.0517  152.4618 O   0  0  0  0  0  0  0  0  0  0  0  0
  146.4238  138.3296  152.2113 C   0  0  0  0  0  0  0  0  0  0  0  0
  147.0840  138.5630  153.5071 N   0  0  0  0  0  0  0  0  0  0  0  0
  148.4906  138.6460  153.5044 C   0  0  0  0  0  0  0  0  0  0  0  0
  149.1977  138.8518  154.6329 C   0  0  0  0  0  0  0  0  0  0  0  0
  150.6417  138.9333  154.6119 N   0  3  0  0  0  0  0  0  0  0  0  0
  151.2786  137.9776  154.1807 O   0  0  0  0  0  0  0  0  0  0  0  0
  151.1869  139.9520  155.0261 O   0  5  0  0  0  0  0  0  0  0  0  0
  148.4613  138.9875  155.8747 C   0  0  0  0  0  0  0  0  0  0  0  0
  147.1161  138.9067  155.8841 C   0  0  0  0  0  0  0  0  0  0  0  0
  146.3486  138.6830  154.6548 C   0  0  0  0  0  0  0  0  0  0  0  0
  145.1198  138.6077  154.6568 O   0  0  0  0  0  0  0  0  0  0  0  0
  146.8047  133.5158  151.5256 C   0  0  1  0  0  0  0  0  0  0  0  0
  147.8607  133.5159  152.6491 C   0  0  0  0  0  0  0  0  0  0  0  0
  144.7889  132.0507  152.9571 H   0  0  0  0  0  0  0  0  0  0  0  0
  146.3366  131.2944  153.3113 H   0  0  0  0  0  0  0  0  0  0  0  0
  145.1756  130.4705  152.2928 H   0  0  0  0  0  0  0  0  0  0  0  0
  147.0313  131.4536  150.9714 H   0  0  0  0  0  0  0  0  0  0  0  0
  145.7474  132.3691  149.1835 H   0  0  0  0  0  0  0  0  0  0  0  0
  144.7708  131.1492  149.9534 H   0  0  0  0  0  0  0  0  0  0  0  0
  143.4475  133.2022  149.4429 H   0  0  0  0  0  0  0  0  0  0  0  0
  143.4749  132.8938  151.1593 H   0  0  0  0  0  0  0  0  0  0  0  0
  145.1938  134.9101  149.6450 H   0  0  0  0  0  0  0  0  0  0  0  0
  143.8900  135.2842  150.7452 H   0  0  0  0  0  0  0  0  0  0  0  0
  145.1389  134.3387  152.6373 H   0  0  0  0  0  0  0  0  0  0  0  0
  147.2471  136.0121  151.6373 H   0  0  0  0  0  0  0  0  0  0  0  0
  147.1603  138.2806  151.4079 H   0  0  0  0  0  0  0  0  0  0  0  0
  145.7844  139.1779  151.9596 H   0  0  0  0  0  0  0  0  0  0  0  0
  148.9449  138.5258  152.5313 H   0  0  0  0  0  0  0  0  0  0  0  0
  148.9822  139.1524  156.8062 H   0  0  0  0  0  0  0  0  0  0  0  0
  146.5877  139.0090  156.8208 H   0  0  0  0  0  0  0  0  0  0  0  0
  147.3379  133.7855  150.6123 H   0  0  0  0  0  0  0  0  0  0  0  0
  147.4025  133.3915  153.6304 H   0  0  0  0  0  0  0  0  0  0  0  0
  148.4230  134.4493  152.6678 H   0  0  0  0  0  0  0  0  0  0  0  0
  148.5827  132.7106  152.5108 H   0  0  0  0  0  0  0  0  0  0  0  0
  1  2  1  0  0  0  0
  1 23  1  0  0  0  0
  1 24  1  0  0  0  0
  1 25  1  0  0  0  0
  2 21  1  0  0  0  0
  2  3  1  0  0  0  0
  2 26  1  0  0  0  0
  3  4  1  0  0  0  0
  3 27  1  0  0  0  0
  3 28  1  0  0  0  0
  4  5  1  0  0  0  0
  4 29  1  0  0  0  0
  4 30  1  0  0  0  0
  5  6  1  0  0  0  0
  5 31  1  0  0  0  0
  5 32  1  0  0  0  0
  6  7  1  0  0  0  0
  6 21  1  0  0  0  0
  6 33  1  0  0  0  0
  7  8  1  0  0  0  0
  7 34  1  0  0  0  0
  8  9  2  0  0  0  0
  8 10  1  0  0  0  0
 10 11  1  0  0  0  0
 10 35  1  0  0  0  0
 10 36  1  0  0  0  0
 11 19  1  0  0  0  0
 11 12  1  0  0  0  0
 12 13  2  0  0  0  0
 12 37  1  0  0  0  0
 13 14  1  0  0  0  0
 13 17  1  0  0  0  0
 14 15  2  0  0  0  0
 14 16  1  0  0  0  0
 17 18  2  0  0  0  0
 17 38  1  0  0  0  0
 18 19  1  0  0  0  0
 18 39  1  0  0  0  0
 19 20  2  0  0  0  0
 21 22  1  0  0  0  0
 21 40  1  0  0  0  0
 22 41  1  0  0  0  0
 22 42  1  0  0  0  0
 22 43  1  0  0  0  0
M  CHG  1  14   1
M  CHG  1  16  -1
M  END
> <s_m_source_file>
AV-unprocessed.smi

> <i_m_source_file_index>
598

> <i_lp_mmshare_version>
43012

> <i_f3d_flags>
0

> <s_epik_input>
W0NIM11bQ0BASF0xW0NIMl1bQ0gyXVtDSDJdW0NASF0oW0NASF0xW0NIM10pW05IXUMoPU8pW0NIMl1uMltjSF1jKFtOK10oPU8pW08tXSlbY0hdW2NIXWMyPU8=

> <s_epik_cmdline>
J2VwaWtfcHl0aG9uJywgJy1waCcsICc3LjAnLCAnLXRuJywgJzgnLCAnLW1hJywgJzIwMCcsICctbWV0YWxfYmluZGluZycsICctaW1hZScsICc8aW5maWxlLm1hZT4nLCAnLW9tYWUnLCAnPG91dGZpbGUubWFlPic=

> <r_lp_tautomer_probability>
1

> <r_epik_Ionization_Penalty>
1.91291e-08

> <r_epik_Ionization_Penalty_Charging>
8.21931e-11

> <r_epik_Ionization_Penalty_Neutral>
1.90469e-08

> <r_epik_State_Penalty>
-0

> <r_epik_Charging_Adjusted_Penalty>
8.21931e-11

> <i_epik_Tot_Q>
0

> <i_epik_Tot_abs_Q>
2

> <r_epik_Metal_State_Penalty>
-0

> <b_epik_Metal_Only>
0

> <s_lp_Force_Field>
OPLS_2005

> <r_lp_Energy>
25.417

> <b_lp_Chiralities_Consistent>
1

> <s_lp_Variant>
AV-unprocessed.smi:598-4

> <Gold.Version>
5.8.1

> <Gold.Id.Protein>
6NUR|6NUR_protein|mol2

> <Gold.PLP.Fitness>
39.6312

> <Gold.PLP.PLP>
-31.7128

> <Gold.PLP.part.hbond>
-2.0000

> <Gold.PLP.part.metal>
0.0000

> <Gold.PLP.part.buried>
-0.1532

> <Gold.PLP.part.nonpolar>
-30.3836

> <Gold.PLP.part.repulsive>
0.7263

> <Gold.PLP.ligand.clash>
0.0000

> <Gold.PLP.ligand.torsion>
1.5112

> <Gold.PLP.Chemscore.Hbond>
2.0000

> <Gold.PLP.Chemscore.CHOScore>
1.6423

> <Gold.PLP.Chemscore.Metal>
0.0000

> <Gold.Chemscore.Hbonds>
donor molecule, donor type, donor heavy atom, donor atom, acceptor molecule, acceptor atom, score
      L1  H     7    34       P1  7948  1.00
      P1  H  7989  7998       L1    16  1.00
      L1  C    12    37       P1  7948  0.65
      L1  C    12    37       P1  7957  1.00

> <Gold.PLP.Chemscore.Internal.Correction>
0.0139

> <Gold.Rescore>
     Score         DG    S(hbond)    S(metal)    S(lipo)     H(rot)  DE(clash)    DE(int)     intcor
     12.03     -16.65       1.87        0.00      75.81       1.54       0.64       3.99       ----

> <Gold.Chemscore.Fitness>
12.0300

> <Gold.Chemscore.DG>
-16.6546

> <Gold.Chemscore.ZeroCoef>
-5.4800

> <Gold.Chemscore.Hbond>
1.8701

> <Gold.Chemscore.Metal>
0.0000

> <Gold.Chemscore.Lipo>
75.8062

> <Gold.Chemscore.Internal_Hbond>
0.0000

> <Gold.Chemscore.DEClash>
0.6368

> <Gold.Chemscore.DEInternal>
3.9878

> <Gold.Chemscore.Rot>
1.5393

> <Gold.Chemscore.Internal.Correction>
   9.000000E+99

> <Gold.Chemscore.Hbonds>
donor molecule, donor type, donor heavy atom, donor atom, acceptor molecule, acceptor atom, score
      L1  H     7    34       P1  7948  1.00
      P1  H  7989  7998       L1    16  0.45

> <Gold.Chemscore.Hbond.Weighted>
-6.2460

> <Gold.Chemscore.Metal.Weighted>
-0.0000

> <Gold.Chemscore.Lipo.Weighted>
-8.8693

> <Gold.Chemscore.Internal_Hbond.Weighted>
0.0000

> <Gold.Chemscore.DEClash.Weighted>
0.6368

> <Gold.Chemscore.DEInternal.Weighted>
3.9878

> <Gold.Chemscore.Rot.Weighted>
3.9407

> <Gold.Chemscore.Internal.Correction.Weighted>
   9.000000E+99

> <Gold.Protein.RotatedTorsions>
[ 6907 6896 6895 6894 ] final  169.66 input  -60.11 | X-H torsion
[ 7974 7965 7964 7962 ] final -116.72 input  175.53 | X-H torsion
[ 8008 7997 7996 7995 ] final -152.71 input   59.86 | X-H torsion
[ 10167 10162 10161 10158 ] final -157.66 input  -65.29 | X-H torsion
[ 10718 10713 10712 10709 ] final  155.83 input   66.30 | X-H torsion
[ 10763 10752 10751 10750 ] final  -14.44 input  -60.55 | X-H torsion
[ 11005 11000 10999 10996 ] final  172.95 input  -57.11 | X-H torsion

> <Gold.Protein.ActiveResidues>
 VAL166  LYS551  ARG553  GLY616  TRP617  ASP618  TYR619  PRO620  LYS621  CYS622 
 ASP623  PHE694  ASN695  SER759  ASP760  ASP761  ALA762  ILE779  LEU786  VAL792 
 PHE793  MET794  SER795  GLU796  ALA797  LYS798  CYS799  TRP800  GLU811  SER814 

> <Gold.Protein.RotatedAtoms>
  151.8284  133.3405  159.3605 H   0  0  0  0  0  0  0  0  0  0  0  0  # atno 6907 bound_to 6896
  150.7272  134.5506  159.5802 H   0  0  0  0  0  0  0  0  0  0  0  0  # atno 6908 bound_to 6896
  152.2954  134.7674  160.0420 H   0  0  0  0  0  0  0  0  0  0  0  0  # atno 6909 bound_to 6896
  145.0935  140.8505  143.3968 H   0  0  0  0  0  0  0  0  0  0  0  0  # atno 7974 bound_to 7965
  155.6595  140.0721  157.2559 H   0  0  0  0  0  0  0  0  0  0  0  0  # atno 8008 bound_to 7997
  154.4145  140.1719  156.1811 H   0  0  0  0  0  0  0  0  0  0  0  0  # atno 8009 bound_to 7997
  155.9709  140.3362  155.6578 H   0  0  0  0  0  0  0  0  0  0  0  0  # atno 8010 bound_to 7997
  139.6753  143.9675  152.2307 H   0  0  0  0  0  0  0  0  0  0  0  0  # atno 10167 bound_to 10162
  157.2132  131.0702  151.1957 H   0  0  0  0  0  0  0  0  0  0  0  0  # atno 10718 bound_to 10713
  153.5284  135.7015  153.5696 H   0  0  0  0  0  0  0  0  0  0  0  0  # atno 10763 bound_to 10752
  153.3714  135.3944  155.1791 H   0  0  0  0  0  0  0  0  0  0  0  0  # atno 10764 bound_to 10752
  154.8687  135.3813  154.4778 H   0  0  0  0  0  0  0  0  0  0  0  0  # atno 10765 bound_to 10752
  140.3352  134.7323  157.4163 H   0  0  0  0  0  0  0  0  0  0  0  0  # atno 11005 bound_to 11000
  145.1038  139.2804  143.5672 LP  0  0  0  0  0  0  0  0  0  0  0  0  # atno 17320 bound_to 7965
  146.3531  140.0613  142.8629 LP  0  0  0  0  0  0  0  0  0  0  0  0  # atno 17321 bound_to 7965
  139.9450  144.6657  150.8228 LP  0  0  0  0  0  0  0  0  0  0  0  0  # atno 17342 bound_to 10162
  140.7633  143.3219  151.2602 LP  0  0  0  0  0  0  0  0  0  0  0  0  # atno 17343 bound_to 10162
  157.3651  130.7152  149.6528 LP  0  0  0  0  0  0  0  0  0  0  0  0  # atno 17370 bound_to 10713
  155.9689  130.4214  150.4469 LP  0  0  0  0  0  0  0  0  0  0  0  0  # atno 17371 bound_to 10713
  140.0827  134.5709  155.8524 LP  0  0  0  0  0  0  0  0  0  0  0  0  # atno 17394 bound_to 11000
  141.2053  133.6646  156.6172 LP  0  0  0  0  0  0  0  0  0  0  0  0  # atno 17395 bound_to 11000

$$$$
