AV-unprocessed.smi:2182|AV-procd|sdf|8864|dock7
  -GOLD-   2272012 63D 1   1.00000     0.00000
 Structure written by MMmdl.
 41 43  0  0  0  0  0  0  0  0  1 V2000
  150.7572  142.9426  158.7063 N   0  0  0  0  0  0  0  0  0  0  0  0
  150.6081  142.2041  157.8277 C   0  0  0  0  0  0  0  0  0  0  0  0
  150.4008  141.3122  156.7351 C   0  0  0  0  0  0  0  0  0  0  0  0
  149.4047  141.4983  155.8445 C   0  0  0  0  0  0  0  0  0  0  0  0
  149.1962  140.6514  154.7778 N   0  0  0  0  0  0  0  0  0  0  0  0
  148.0401  140.7769  153.9361 C   0  0  0  0  0  0  0  0  0  0  0  0
  147.0566  141.9099  154.1554 C   0  0  0  0  0  0  0  0  0  0  0  0
  146.6721  140.4968  154.5194 C   0  0  0  0  0  0  0  0  0  0  0  0
  149.9887  139.4929  154.6260 C   0  0  0  0  0  0  0  0  0  0  0  0
  149.7553  138.6717  153.7354 O   0  0  0  0  0  0  0  0  0  0  0  0
  151.0543  139.2948  155.5374 N   0  0  0  0  0  0  0  0  0  0  0  0
  151.9028  138.0925  155.3822 C   0  0  0  0  0  0  0  0  0  0  0  0
  151.7022  137.0512  156.4943 C   0  0  0  0  0  0  0  0  0  0  0  0
  152.4805  136.1059  156.6292 O   0  0  0  0  0  0  0  0  0  0  0  0
  150.6400  137.2442  157.2903 N   0  0  0  0  0  0  0  0  0  0  0  0
  150.2699  136.3910  158.4142 C   0  0  0  0  0  0  0  0  0  0  0  0
  148.8111  136.6108  158.8518 C   0  0  1  0  0  0  0  0  0  0  0  0
  147.7632  136.0459  157.8928 C   0  0  0  0  0  0  0  0  0  0  0  0
  146.5766  135.8738  158.8132 C   0  0  0  0  0  0  0  0  0  0  0  0
  147.2442  135.4095  160.1054 C   0  0  0  0  0  0  0  0  0  0  0  0
  148.5623  135.9535  160.0907 O   0  0  0  0  0  0  0  0  0  0  0  0
  151.3115  140.1756  156.6191 C   0  0  0  0  0  0  0  0  0  0  0  0
  152.2393  139.9657  157.4022 O   0  0  0  0  0  0  0  0  0  0  0  0
  148.7467  142.3468  155.9669 H   0  0  0  0  0  0  0  0  0  0  0  0
  148.1848  140.4706  152.9014 H   0  0  0  0  0  0  0  0  0  0  0  0
  147.2418  142.6009  154.9756 H   0  0  0  0  0  0  0  0  0  0  0  0
  146.5930  142.3475  153.2737 H   0  0  0  0  0  0  0  0  0  0  0  0
  145.9488  139.9925  153.8818 H   0  0  0  0  0  0  0  0  0  0  0  0
  146.6056  140.2561  155.5787 H   0  0  0  0  0  0  0  0  0  0  0  0
  151.7188  137.6128  154.4193 H   0  0  0  0  0  0  0  0  0  0  0  0
  152.9604  138.3584  155.3461 H   0  0  0  0  0  0  0  0  0  0  0  0
  150.0498  138.0434  157.1108 H   0  0  0  0  0  0  0  0  0  0  0  0
  150.4150  135.3532  158.1131 H   0  0  0  0  0  0  0  0  0  0  0  0
  150.9458  136.5646  159.2532 H   0  0  0  0  0  0  0  0  0  0  0  0
  148.6189  137.6742  159.0035 H   0  0  0  0  0  0  0  0  0  0  0  0
  147.5583  136.7055  157.0490 H   0  0  0  0  0  0  0  0  0  0  0  0
  148.0781  135.0765  157.5036 H   0  0  0  0  0  0  0  0  0  0  0  0
  146.0833  136.8344  158.9690 H   0  0  0  0  0  0  0  0  0  0  0  0
  145.8378  135.1662  158.4361 H   0  0  0  0  0  0  0  0  0  0  0  0
  146.6937  135.7268  160.9913 H   0  0  0  0  0  0  0  0  0  0  0  0
  147.3206  134.3219  160.1265 H   0  0  0  0  0  0  0  0  0  0  0  0
  1  2  3  0  0  0  0
  2  3  1  0  0  0  0
  3 22  1  0  0  0  0
  3  4  2  0  0  0  0
  4  5  1  0  0  0  0
  4 24  1  0  0  0  0
  5  6  1  0  0  0  0
  5  9  1  0  0  0  0
  6  8  1  0  0  0  0
  6  7  1  0  0  0  0
  6 25  1  0  0  0  0
  7  8  1  0  0  0  0
  7 26  1  0  0  0  0
  7 27  1  0  0  0  0
  8 28  1  0  0  0  0
  8 29  1  0  0  0  0
  9 10  2  0  0  0  0
  9 11  1  0  0  0  0
 11 12  1  0  0  0  0
 11 22  1  0  0  0  0
 12 13  1  0  0  0  0
 12 30  1  0  0  0  0
 12 31  1  0  0  0  0
 13 14  2  0  0  0  0
 13 15  1  0  0  0  0
 15 16  1  0  0  0  0
 15 32  1  0  0  0  0
 16 17  1  0  0  0  0
 16 33  1  0  0  0  0
 16 34  1  0  0  0  0
 17 21  1  0  0  0  0
 17 18  1  0  0  0  0
 17 35  1  0  0  0  0
 18 19  1  0  0  0  0
 18 36  1  0  0  0  0
 18 37  1  0  0  0  0
 19 20  1  0  0  0  0
 19 38  1  0  0  0  0
 19 39  1  0  0  0  0
 20 21  1  0  0  0  0
 20 40  1  0  0  0  0
 20 41  1  0  0  0  0
 22 23  2  0  0  0  0
M  END
> <s_m_source_file>
AV-unprocessed.smi

> <i_m_source_file_index>
2182

> <i_lp_mmshare_version>
43012

> <i_f3d_flags>
0

> <s_epik_input>
TiNDYzFbY0hdbihbQ0hdMltDSDJdW0NIMl0yKWMoPU8pbihjMT1PKVtDSDJdQyg9TylbTkhdW0NIMl1bQ0BASF0zW0NIMl1bQ0gyXVtDSDJdTzM=

> <s_epik_cmdline>
J2VwaWtfcHl0aG9uJywgJy1waCcsICc3LjAnLCAnLXRuJywgJzgnLCAnLW1hJywgJzIwMCcsICctbWV0YWxfYmluZGluZycsICctaW1hZScsICc8aW5maWxlLm1hZT4nLCAnLW9tYWUnLCAnPG91dGZpbGUubWFlPic=

> <r_lp_tautomer_probability>
1

> <r_epik_Ionization_Penalty>
2.69429e-08

> <r_epik_Ionization_Penalty_Charging>
8.38654e-11

> <r_epik_Ionization_Penalty_Neutral>
2.6859e-08

> <r_epik_State_Penalty>
-0

> <r_epik_Charging_Adjusted_Penalty>
8.38654e-11

> <i_epik_Tot_Q>
0

> <i_epik_Tot_abs_Q>
0

> <r_epik_Metal_State_Penalty>
-0

> <b_epik_Metal_Only>
0

> <s_lp_Force_Field>
OPLS_2005

> <r_lp_Energy>
43.7942

> <b_lp_Chiralities_Consistent>
1

> <s_lp_Variant>
AV-unprocessed.smi:2182-2

> <Gold.Version>
5.8.1

> <Gold.Id.Protein>
6NUR|6NUR_protein|mol2

> <Gold.PLP.Fitness>
48.3039

> <Gold.PLP.PLP>
-37.8571

> <Gold.PLP.part.hbond>
-3.0000

> <Gold.PLP.part.metal>
0.0000

> <Gold.PLP.part.buried>
-5.3792

> <Gold.PLP.part.nonpolar>
-32.6078

> <Gold.PLP.part.repulsive>
2.0655

> <Gold.PLP.ligand.clash>
0.0000

> <Gold.PLP.ligand.torsion>
0.5610

> <Gold.PLP.Chemscore.Hbond>
2.7840

> <Gold.PLP.Chemscore.CHOScore>
0.9962

> <Gold.PLP.Chemscore.Metal>
0.0000

> <Gold.Chemscore.Hbonds>
donor molecule, donor type, donor heavy atom, donor atom, acceptor molecule, acceptor atom, score
      P1  H  7997  8010       L1    23  0.41
      P1  H 10752 10765       L1    14  1.00
      L1  C     4    24       P1  8028  1.00

> <Gold.PLP.Chemscore.Internal.Correction>
0.2282

> <Gold.Rescore>
     Score         DG    S(hbond)    S(metal)    S(lipo)     H(rot)  DE(clash)    DE(int)     intcor
     13.67     -15.12       2.52        0.00      55.81       2.08       0.27       1.18       ----

> <Gold.Chemscore.Fitness>
13.6716

> <Gold.Chemscore.DG>
-15.1212

> <Gold.Chemscore.ZeroCoef>
-5.4800

> <Gold.Chemscore.Hbond>
2.5242

> <Gold.Chemscore.Metal>
0.0000

> <Gold.Chemscore.Lipo>
55.8073

> <Gold.Chemscore.Internal_Hbond>
0.0000

> <Gold.Chemscore.DEClash>
0.2700

> <Gold.Chemscore.DEInternal>
1.1796

> <Gold.Chemscore.Rot>
2.0778

> <Gold.Chemscore.Internal.Correction>
   9.000000E+99

> <Gold.Chemscore.Hbonds>
donor molecule, donor type, donor heavy atom, donor atom, acceptor molecule, acceptor atom, score
      P1  H  7997  8010       L1    23  0.38
      P1  H 10752 10765       L1    14  1.00

> <Gold.Chemscore.Hbond.Weighted>
-8.4308

> <Gold.Chemscore.Metal.Weighted>
-0.0000

> <Gold.Chemscore.Lipo.Weighted>
-6.5295

> <Gold.Chemscore.Internal_Hbond.Weighted>
0.0000

> <Gold.Chemscore.DEClash.Weighted>
0.2700

> <Gold.Chemscore.DEInternal.Weighted>
1.1796

> <Gold.Chemscore.Rot.Weighted>
5.3191

> <Gold.Chemscore.Internal.Correction.Weighted>
   9.000000E+99

> <Gold.Protein.RotatedTorsions>
[ 6907 6896 6895 6894 ] final  170.13 input  -60.11 | X-H torsion
[ 7974 7965 7964 7962 ] final  124.94 input  175.53 | X-H torsion
[ 8008 7997 7996 7995 ] final   53.87 input   59.86 | X-H torsion
[ 10167 10162 10161 10158 ] final   81.94 input  -65.29 | X-H torsion
[ 10718 10713 10712 10709 ] final   18.89 input   66.30 | X-H torsion
[ 10763 10752 10751 10750 ] final -124.74 input  -60.55 | X-H torsion
[ 11005 11000 10999 10996 ] final   73.04 input  -57.11 | X-H torsion

> <Gold.Protein.ActiveResidues>
 VAL166  LYS551  ARG553  GLY616  TRP617  ASP618  TYR619  PRO620  LYS621  CYS622 
 ASP623  PHE694  ASN695  SER759  ASP760  ASP761  ALA762  ILE779  LEU786  VAL792 
 PHE793  MET794  SER795  GLU796  ALA797  LYS798  CYS799  TRP800  GLU811  SER814 

> <Gold.Protein.RotatedAtoms>
  151.8209  133.3394  159.3583 H   0  0  0  0  0  0  0  0  0  0  0  0  # atno 6907 bound_to 6896
  150.7295  134.5574  159.5834 H   0  0  0  0  0  0  0  0  0  0  0  0  # atno 6908 bound_to 6896
  152.3006  134.7616  160.0409 H   0  0  0  0  0  0  0  0  0  0  0  0  # atno 6909 bound_to 6896
  145.0787  139.3674  143.4920 H   0  0  0  0  0  0  0  0  0  0  0  0  # atno 7974 bound_to 7965
  155.4753  140.3466  155.4332 H   0  0  0  0  0  0  0  0  0  0  0  0  # atno 8008 bound_to 7997
  156.1074  140.1451  156.9414 H   0  0  0  0  0  0  0  0  0  0  0  0  # atno 8009 bound_to 7997
  154.4733  140.0893  156.7178 H   0  0  0  0  0  0  0  0  0  0  0  0  # atno 8010 bound_to 7997
  139.9340  144.6133  150.8317 H   0  0  0  0  0  0  0  0  0  0  0  0  # atno 10167 bound_to 10162
  157.1027  130.6475  149.5876 H   0  0  0  0  0  0  0  0  0  0  0  0  # atno 10718 bound_to 10713
  154.8727  135.4053  154.3154 H   0  0  0  0  0  0  0  0  0  0  0  0  # atno 10763 bound_to 10752
  153.3991  135.7017  153.6444 H   0  0  0  0  0  0  0  0  0  0  0  0  # atno 10764 bound_to 10752
  153.5194  135.3690  155.2596 H   0  0  0  0  0  0  0  0  0  0  0  0  # atno 10765 bound_to 10752
  139.9460  134.7312  156.0979 H   0  0  0  0  0  0  0  0  0  0  0  0  # atno 11005 bound_to 11000
  146.3530  140.0566  142.8632 LP  0  0  0  0  0  0  0  0  0  0  0  0  # atno 17320 bound_to 7965
  145.1205  140.9459  143.4603 LP  0  0  0  0  0  0  0  0  0  0  0  0  # atno 17321 bound_to 7965
  140.7629  143.3211  151.2620 LP  0  0  0  0  0  0  0  0  0  0  0  0  # atno 17342 bound_to 10162
  139.6759  143.9939  152.2780 LP  0  0  0  0  0  0  0  0  0  0  0  0  # atno 17343 bound_to 10162
  155.9869  130.4906  150.7103 LP  0  0  0  0  0  0  0  0  0  0  0  0  # atno 17370 bound_to 10713
  157.4627  131.0885  151.0728 LP  0  0  0  0  0  0  0  0  0  0  0  0  # atno 17371 bound_to 10713
  141.1110  133.6643  156.2979 LP  0  0  0  0  0  0  0  0  0  0  0  0  # atno 17394 bound_to 11000
  140.5834  134.5723  157.5484 LP  0  0  0  0  0  0  0  0  0  0  0  0  # atno 17395 bound_to 11000

$$$$
