AV-unprocessed.smi:2078|AV-procd|sdf|8470|dock2
  -GOLD-   2272011173D 1   1.00000     0.00000
 Structure written by MMmdl.
 41 42  0  0  0  0  0  0  0  0  3 V2000
  152.2747  140.3061  159.1639 C   0  0  0  0  0  0  0  0  0  0  0  0
  151.9589  140.1304  157.7179 C   0  0  0  0  0  0  0  0  0  0  0  0
  150.8688  140.4528  156.9607 C   0  0  0  0  0  0  0  0  0  0  0  0
  151.2338  140.0097  155.6603 C   0  0  0  0  0  0  0  0  0  0  0  0
  150.4720  140.0940  154.5587 N   0  5  0  0  0  0  0  0  0  0  0  0
  149.1404  139.8685  154.6323 C   0  0  0  0  0  0  0  0  0  0  0  0
  148.4451  139.9073  155.6498 O   0  0  0  0  0  0  0  0  0  0  0  0
  148.5795  139.5757  153.4515 N   0  0  0  0  0  0  0  0  0  0  0  0
  147.1703  139.2753  153.2366 C   0  0  0  0  0  0  0  0  0  0  0  0
  146.7828  137.9881  153.9807 C   0  0  0  0  0  0  0  0  0  0  0  0
  146.6340  136.8288  153.0655 N   0  3  2  0  0  0  0  0  0  0  0  0
  145.5412  137.0309  152.0794 C   0  0  0  0  0  0  0  0  0  0  0  0
  145.4988  135.8851  151.0562 C   0  0  0  0  0  0  0  0  0  0  0  0
  145.3537  134.5291  151.7576 C   0  0  0  0  0  0  0  0  0  0  0  0
  146.4726  134.3434  152.7962 C   0  0  2  0  0  0  0  0  0  0  0  0
  146.3355  133.0041  153.5341 C   0  0  0  0  0  0  0  0  0  0  0  0
  146.4928  135.5313  153.7799 C   0  0  0  0  0  0  0  0  0  0  0  0
  152.4340  139.4541  155.6333 N   0  0  0  0  0  0  0  0  0  0  0  0
  152.9091  139.5348  156.9479 O   0  0  0  0  0  0  0  0  0  0  0  0
  151.3951  140.1111  159.7775 H   0  0  0  0  0  0  0  0  0  0  0  0
  152.6085  141.3242  159.3642 H   0  0  0  0  0  0  0  0  0  0  0  0
  153.0635  139.6225  159.4788 H   0  0  0  0  0  0  0  0  0  0  0  0
  149.9560  140.9302  157.2844 H   0  0  0  0  0  0  0  0  0  0  0  0
  149.1843  139.5590  152.6431 H   0  0  0  0  0  0  0  0  0  0  0  0
  146.5510  140.1023  153.5881 H   0  0  0  0  0  0  0  0  0  0  0  0
  147.0055  139.1808  152.1635 H   0  0  0  0  0  0  0  0  0  0  0  0
  147.5079  137.7546  154.7620 H   0  0  0  0  0  0  0  0  0  0  0  0
  145.8329  138.1687  154.4865 H   0  0  0  0  0  0  0  0  0  0  0  0
  144.5863  137.1060  152.6024 H   0  0  0  0  0  0  0  0  0  0  0  0
  145.6892  137.9735  151.5510 H   0  0  0  0  0  0  0  0  0  0  0  0
  144.6717  136.0353  150.3619 H   0  0  0  0  0  0  0  0  0  0  0  0
  146.4109  135.8934  150.4579 H   0  0  0  0  0  0  0  0  0  0  0  0
  144.3789  134.4707  152.2443 H   0  0  0  0  0  0  0  0  0  0  0  0
  145.3829  133.7257  151.0206 H   0  0  0  0  0  0  0  0  0  0  0  0
  147.4266  134.3296  152.2666 H   0  0  0  0  0  0  0  0  0  0  0  0
  145.3983  132.9503  154.0891 H   0  0  0  0  0  0  0  0  0  0  0  0
  147.1509  132.8606  154.2437 H   0  0  0  0  0  0  0  0  0  0  0  0
  146.3565  132.1667  152.8358 H   0  0  0  0  0  0  0  0  0  0  0  0
  147.3193  135.3974  154.4769 H   0  0  0  0  0  0  0  0  0  0  0  0
  145.5785  135.5433  154.3759 H   0  0  0  0  0  0  0  0  0  0  0  0
  147.4892  136.7800  152.5303 H   0  0  0  0  0  0  0  0  0  0  0  0
  1  2  1  0  0  0  0
  1 20  1  0  0  0  0
  1 21  1  0  0  0  0
  1 22  1  0  0  0  0
  2 19  1  0  0  0  0
  2  3  2  0  0  0  0
  3  4  1  0  0  0  0
  3 23  1  0  0  0  0
  4  5  1  0  0  0  0
  4 18  2  0  0  0  0
  5  6  1  0  0  0  0
  6  7  2  0  0  0  0
  6  8  1  0  0  0  0
  8  9  1  0  0  0  0
  8 24  1  0  0  0  0
  9 10  1  0  0  0  0
  9 25  1  0  0  0  0
  9 26  1  0  0  0  0
 10 11  1  0  0  0  0
 10 27  1  0  0  0  0
 10 28  1  0  0  0  0
 11 17  1  0  0  0  0
 11 12  1  0  0  0  0
 11 41  1  0  0  0  0
 12 13  1  0  0  0  0
 12 29  1  0  0  0  0
 12 30  1  0  0  0  0
 13 14  1  0  0  0  0
 13 31  1  0  0  0  0
 13 32  1  0  0  0  0
 14 15  1  0  0  0  0
 14 33  1  0  0  0  0
 14 34  1  0  0  0  0
 15 16  1  0  0  0  0
 15 17  1  0  0  0  0
 15 35  1  0  0  0  0
 16 36  1  0  0  0  0
 16 37  1  0  0  0  0
 16 38  1  0  0  0  0
 17 39  1  0  0  0  0
 17 40  1  0  0  0  0
 18 19  1  0  0  0  0
M  CHG  1   5  -1
M  CHG  1  11   1
M  END
> <s_m_source_file>
AV-unprocessed.smi

> <i_m_source_file_index>
2078

> <i_lp_mmshare_version>
43012

> <i_f3d_flags>
0

> <s_epik_input>
W0NIM11jMVtjSF1jKG5vMSlbTkhdQyg9TylbTkhdW0NIMl1bQ0gyXU4yW0NIMl1bQ0gyXVtDSDJdW0NAQEhdKFtDSDNdKVtDSDJdMg==

> <s_epik_cmdline>
J2VwaWtfcHl0aG9uJywgJy1waCcsICc3LjAnLCAnLXRuJywgJzgnLCAnLW1hJywgJzIwMCcsICctbWV0YWxfYmluZGluZycsICctaW1hZScsICc8aW5maWxlLm1hZT4nLCAnLW9tYWUnLCAnPG91dGZpbGUubWFlPic=

> <r_epik_Ionization_Penalty>
6.22434

> <r_epik_Ionization_Penalty_Charging>
6.22425

> <r_epik_Ionization_Penalty_Neutral>
9.37855e-05

> <r_epik_State_Penalty>
6.22423

> <r_epik_Charging_Adjusted_Penalty>
12.4485

> <i_epik_Tot_Q>
0

> <i_epik_Tot_abs_Q>
2

> <r_epik_Metal_State_Penalty>
2.16764

> <b_epik_Metal_Only>
1

> <s_lp_Force_Field>
OPLS_2005

> <r_lp_Energy>
6.03682

> <b_lp_Chiralities_Consistent>
1

> <s_lp_Variant>
AV-unprocessed.smi:2078-8

> <Gold.Version>
5.8.1

> <Gold.Id.Protein>
6NUR|6NUR_protein|mol2

> <Gold.PLP.Fitness>
43.1133

> <Gold.PLP.PLP>
-29.5962

> <Gold.PLP.part.hbond>
-4.4969

> <Gold.PLP.part.metal>
0.0000

> <Gold.PLP.part.buried>
-2.6561

> <Gold.PLP.part.nonpolar>
-21.5679

> <Gold.PLP.part.repulsive>
0.2646

> <Gold.PLP.ligand.clash>
0.0000

> <Gold.PLP.ligand.torsion>
0.7390

> <Gold.PLP.Chemscore.Hbond>
4.9600

> <Gold.PLP.Chemscore.CHOScore>
0.0000

> <Gold.PLP.Chemscore.Metal>
0.0000

> <Gold.Chemscore.Hbonds>
donor molecule, donor type, donor heavy atom, donor atom, acceptor molecule, acceptor atom, score
      L1  H     8    24       P1  7957  1.00
      L1  H    11    41       P1  7948  2.00
      P1  H  7989  7998       L1     5  0.95
      P1  H  7997  8008       L1    19  1.00

> <Gold.PLP.Chemscore.Internal.Correction>
0.1150

> <Gold.Rescore>
     Score         DG    S(hbond)    S(metal)    S(lipo)     H(rot)  DE(clash)    DE(int)     intcor
     14.64     -16.90       2.80        0.00      51.38       1.54       0.06       2.20       ----

> <Gold.Chemscore.Fitness>
14.6444

> <Gold.Chemscore.DG>
-16.9044

> <Gold.Chemscore.ZeroCoef>
-5.4800

> <Gold.Chemscore.Hbond>
2.8015

> <Gold.Chemscore.Metal>
0.0000

> <Gold.Chemscore.Lipo>
51.3848

> <Gold.Chemscore.Internal_Hbond>
0.0000

> <Gold.Chemscore.DEClash>
0.0622

> <Gold.Chemscore.DEInternal>
2.1978

> <Gold.Chemscore.Rot>
1.5409

> <Gold.Chemscore.Internal.Correction>
   9.000000E+99

> <Gold.Chemscore.Hbonds>
donor molecule, donor type, donor heavy atom, donor atom, acceptor molecule, acceptor atom, score
      L1  H     8    24       P1  7957  0.96
      L1  H    11    41       P1  7948  1.00
      P1  H  7989  7998       L1     5  0.21
      P1  H  7997  8008       L1    19  0.39

> <Gold.Chemscore.Hbond.Weighted>
-9.3570

> <Gold.Chemscore.Metal.Weighted>
-0.0000

> <Gold.Chemscore.Lipo.Weighted>
-6.0120

> <Gold.Chemscore.Internal_Hbond.Weighted>
0.0000

> <Gold.Chemscore.DEClash.Weighted>
0.0622

> <Gold.Chemscore.DEInternal.Weighted>
2.1978

> <Gold.Chemscore.Rot.Weighted>
3.9446

> <Gold.Chemscore.Internal.Correction.Weighted>
   9.000000E+99

> <Gold.Protein.RotatedTorsions>
[ 6907 6896 6895 6894 ] final -105.00 input  -60.11 | X-H torsion
[ 7974 7965 7964 7962 ] final  122.89 input  175.53 | X-H torsion
[ 8008 7997 7996 7995 ] final  -67.87 input   59.86 | X-H torsion
[ 10167 10162 10161 10158 ] final   58.84 input  -65.29 | X-H torsion
[ 10718 10713 10712 10709 ] final -153.06 input   66.30 | X-H torsion
[ 10763 10752 10751 10750 ] final  -71.84 input  -60.55 | X-H torsion
[ 11005 11000 10999 10996 ] final   43.59 input  -57.11 | X-H torsion

> <Gold.Protein.ActiveResidues>
 VAL166  LYS551  ARG553  GLY616  TRP617  ASP618  TYR619  PRO620  LYS621  CYS622 
 ASP623  PHE694  ASN695  SER759  ASP760  ASP761  ALA762  ILE779  LEU786  VAL792 
 PHE793  MET794  SER795  GLU796  ALA797  LYS798  CYS799  TRP800  GLU811  SER814 

> <Gold.Protein.RotatedAtoms>
  150.7315  134.0193  159.3695 H   0  0  0  0  0  0  0  0  0  0  0  0  # atno 6907 bound_to 6896
  151.8157  135.0665  160.0428 H   0  0  0  0  0  0  0  0  0  0  0  0  # atno 6908 bound_to 6896
  152.3040  133.5648  159.5673 H   0  0  0  0  0  0  0  0  0  0  0  0  # atno 6909 bound_to 6896
  145.1022  139.3510  143.4806 H   0  0  0  0  0  0  0  0  0  0  0  0  # atno 7974 bound_to 7965
  154.4829  140.0884  156.7420 H   0  0  0  0  0  0  0  0  0  0  0  0  # atno 8008 bound_to 7997
  155.4423  140.3454  155.4273 H   0  0  0  0  0  0  0  0  0  0  0  0  # atno 8009 bound_to 7997
  156.1219  140.1476  156.9181 H   0  0  0  0  0  0  0  0  0  0  0  0  # atno 8010 bound_to 7997
  140.1829  144.4164  150.6607 H   0  0  0  0  0  0  0  0  0  0  0  0  # atno 10167 bound_to 10162
  156.4808  130.8302  151.2529 H   0  0  0  0  0  0  0  0  0  0  0  0  # atno 10718 bound_to 10713
  154.4373  135.5949  153.6107 H   0  0  0  0  0  0  0  0  0  0  0  0  # atno 10763 bound_to 10752
  152.9803  135.5989  154.3765 H   0  0  0  0  0  0  0  0  0  0  0  0  # atno 10764 bound_to 10752
  154.3611  135.2841  155.2298 H   0  0  0  0  0  0  0  0  0  0  0  0  # atno 10765 bound_to 10752
  140.1631  134.4316  155.8305 H   0  0  0  0  0  0  0  0  0  0  0  0  # atno 11005 bound_to 11000
  146.3529  140.0904  142.8613 LP  0  0  0  0  0  0  0  0  0  0  0  0  # atno 17320 bound_to 7965
  145.0942  140.9304  143.4751 LP  0  0  0  0  0  0  0  0  0  0  0  0  # atno 17321 bound_to 7965
  140.6507  143.2224  151.6082 LP  0  0  0  0  0  0  0  0  0  0  0  0  # atno 17342 bound_to 10162
  139.5288  144.2977  152.1099 LP  0  0  0  0  0  0  0  0  0  0  0  0  # atno 17343 bound_to 10162
  157.7483  131.0045  150.3080 LP  0  0  0  0  0  0  0  0  0  0  0  0  # atno 17370 bound_to 10713
  156.3523  130.3833  149.7318 LP  0  0  0  0  0  0  0  0  0  0  0  0  # atno 17371 bound_to 10713
  141.2211  133.6922  156.7629 LP  0  0  0  0  0  0  0  0  0  0  0  0  # atno 17394 bound_to 11000
  140.2466  134.8572  157.3626 LP  0  0  0  0  0  0  0  0  0  0  0  0  # atno 17395 bound_to 11000

$$$$
