AV-unprocessed.smi:3164|AV-procd|sdf|12084|dock6
  -GOLD-   2272017513D 1   1.00000     0.00000
 Structure written by MMmdl.
 39 40  0  0  0  0  0  0  0  0  2 V2000
  150.8984  139.8577  154.4674 C   0  0  0  0  0  0  0  0  0  0  0  0
  149.6259  140.2123  153.8568 N   0  0  0  0  0  0  0  0  0  0  0  0
  149.0163  141.3601  154.5156 C   0  0  0  0  0  0  0  0  0  0  0  0
  147.6648  141.7272  153.8803 C   0  0  0  0  0  0  0  0  0  0  0  0
  146.8045  140.5915  153.9005 O   0  0  0  0  0  0  0  0  0  0  0  0
  147.3446  139.4651  153.2134 C   0  0  2  0  0  0  0  0  0  0  0  0
  146.3136  138.3290  153.2889 C   0  0  0  0  0  0  0  0  0  0  0  0
  146.9565  137.0060  153.1617 N   0  3  0  0  0  0  0  0  0  0  0  0
  146.0055  135.8779  153.0956 C   0  0  0  0  0  0  0  0  0  0  0  0
  145.4753  135.6661  151.6686 C   0  0  0  0  0  0  0  0  0  0  0  0
  145.2290  134.2044  151.3379 C   0  0  0  0  0  0  0  0  0  0  0  0
  143.9436  133.7547  150.9662 C   0  0  0  0  0  0  0  0  0  0  0  0
  143.7695  132.3876  150.6753 C   0  0  0  0  0  0  0  0  0  0  0  0
  144.8805  131.5276  150.7694 C   0  0  0  0  0  0  0  0  0  0  0  0
  146.1220  132.0747  151.1502 C   0  0  0  0  0  0  0  0  0  0  0  0
  146.2992  133.3840  151.4317 N   0  0  0  0  0  0  0  0  0  0  0  0
  148.6944  139.0924  153.8634 C   0  0  0  0  0  0  0  0  0  0  0  0
  151.5948  140.6957  154.4223 H   0  0  0  0  0  0  0  0  0  0  0  0
  151.3570  139.0172  153.9457 H   0  0  0  0  0  0  0  0  0  0  0  0
  150.7700  139.5788  155.5143 H   0  0  0  0  0  0  0  0  0  0  0  0
  148.8679  141.1431  155.5747 H   0  0  0  0  0  0  0  0  0  0  0  0
  149.6877  142.2180  154.4636 H   0  0  0  0  0  0  0  0  0  0  0  0
  147.1947  142.5412  154.4323 H   0  0  0  0  0  0  0  0  0  0  0  0
  147.8005  142.0716  152.8540 H   0  0  0  0  0  0  0  0  0  0  0  0
  147.4983  139.7398  152.1678 H   0  0  0  0  0  0  0  0  0  0  0  0
  145.7541  138.3837  154.2238 H   0  0  0  0  0  0  0  0  0  0  0  0
  145.5921  138.4397  152.4782 H   0  0  0  0  0  0  0  0  0  0  0  0
  147.5139  137.0013  152.3190 H   0  0  0  0  0  0  0  0  0  0  0  0
  146.5058  134.9715  153.4381 H   0  0  0  0  0  0  0  0  0  0  0  0
  145.1757  136.0622  153.7795 H   0  0  0  0  0  0  0  0  0  0  0  0
  144.5531  136.2315  151.5266 H   0  0  0  0  0  0  0  0  0  0  0  0
  146.1899  136.0700  150.9500 H   0  0  0  0  0  0  0  0  0  0  0  0
  143.1093  134.4379  150.9021 H   0  0  0  0  0  0  0  0  0  0  0  0
  142.8016  132.0057  150.3856 H   0  0  0  0  0  0  0  0  0  0  0  0
  144.7844  130.4737  150.5530 H   0  0  0  0  0  0  0  0  0  0  0  0
  146.9953  131.4445  151.2320 H   0  0  0  0  0  0  0  0  0  0  0  0
  149.1367  138.2483  153.3331 H   0  0  0  0  0  0  0  0  0  0  0  0
  148.5248  138.7615  154.8895 H   0  0  0  0  0  0  0  0  0  0  0  0
  147.5670  136.8660  153.9540 H   0  0  0  0  0  0  0  0  0  0  0  0
  1  2  1  0  0  0  0
  1 18  1  0  0  0  0
  1 19  1  0  0  0  0
  1 20  1  0  0  0  0
  2 17  1  0  0  0  0
  2  3  1  0  0  0  0
  3  4  1  0  0  0  0
  3 21  1  0  0  0  0
  3 22  1  0  0  0  0
  4  5  1  0  0  0  0
  4 23  1  0  0  0  0
  4 24  1  0  0  0  0
  5  6  1  0  0  0  0
  6  7  1  0  0  0  0
  6 17  1  0  0  0  0
  6 25  1  0  0  0  0
  7  8  1  0  0  0  0
  7 26  1  0  0  0  0
  7 27  1  0  0  0  0
  8  9  1  0  0  0  0
  8 28  1  0  0  0  0
  8 39  1  0  0  0  0
  9 10  1  0  0  0  0
  9 29  1  0  0  0  0
  9 30  1  0  0  0  0
 10 11  1  0  0  0  0
 10 31  1  0  0  0  0
 10 32  1  0  0  0  0
 11 16  1  0  0  0  0
 11 12  2  0  0  0  0
 12 13  1  0  0  0  0
 12 33  1  0  0  0  0
 13 14  2  0  0  0  0
 13 34  1  0  0  0  0
 14 15  1  0  0  0  0
 14 35  1  0  0  0  0
 15 16  2  0  0  0  0
 15 36  1  0  0  0  0
 17 37  1  0  0  0  0
 17 38  1  0  0  0  0
M  CHG  1   8   1
M  END
> <s_m_source_file>
AV-unprocessed.smi

> <i_m_source_file_index>
3164

> <i_lp_mmshare_version>
43012

> <i_f3d_flags>
0

> <s_epik_input>
W0NIM11OMVtDSDJdW0NIMl1PW0NASF0oW0NIMl0xKVtDSDJdW05IXVtDSDJdW0NIMl1jMltjSF1bY0hdW2NIXVtjSF1uMg==

> <s_epik_cmdline>
J2VwaWtfcHl0aG9uJywgJy1waCcsICc3LjAnLCAnLXRuJywgJzgnLCAnLW1hJywgJzIwMCcsICctbWV0YWxfYmluZGluZycsICctaW1hZScsICc8aW5maWxlLm1hZT4nLCAnLW9tYWUnLCAnPG91dGZpbGUubWFlPic=

> <r_epik_Ionization_Penalty>
0.584284

> <r_epik_Ionization_Penalty_Charging>
0.00270218

> <r_epik_Ionization_Penalty_Neutral>
0.581582

> <r_epik_State_Penalty>
0.593163

> <r_epik_Charging_Adjusted_Penalty>
0.595865

> <i_epik_Tot_Q>
1

> <i_epik_Tot_abs_Q>
1

> <r_epik_Metal_State_Penalty>
0.593163

> <b_epik_Metal_Only>
0

> <s_lp_Force_Field>
OPLS_2005

> <r_lp_Energy>
23.4824

> <b_lp_Chiralities_Consistent>
1

> <s_lp_Variant>
AV-unprocessed.smi:3164-6

> <Gold.Version>
5.8.1

> <Gold.Id.Protein>
6NUR|6NUR_protein|mol2

> <Gold.PLP.Fitness>
40.0995

> <Gold.PLP.PLP>
-32.3671

> <Gold.PLP.part.hbond>
-1.5984

> <Gold.PLP.part.metal>
0.0000

> <Gold.PLP.part.buried>
-3.2713

> <Gold.PLP.part.nonpolar>
-28.1015

> <Gold.PLP.part.repulsive>
0.9348

> <Gold.PLP.ligand.clash>
0.0000

> <Gold.PLP.ligand.torsion>
0.6434

> <Gold.PLP.Chemscore.Hbond>
2.0000

> <Gold.PLP.Chemscore.CHOScore>
0.9964

> <Gold.PLP.Chemscore.Metal>
0.0000

> <Gold.Chemscore.Hbonds>
donor molecule, donor type, donor heavy atom, donor atom, acceptor molecule, acceptor atom, score
      L1  H     8    28       P1  7948  1.41
      L1  C    15    36       P1 10747  1.00

> <Gold.PLP.Chemscore.Internal.Correction>
0.0299

> <Gold.Rescore>
     Score         DG    S(hbond)    S(metal)    S(lipo)     H(rot)  DE(clash)    DE(int)     intcor
     14.26     -14.96       0.95        0.00      88.30       1.57       0.09       0.60       ----

> <Gold.Chemscore.Fitness>
14.2638

> <Gold.Chemscore.DG>
-14.9557

> <Gold.Chemscore.ZeroCoef>
-5.4800

> <Gold.Chemscore.Hbond>
0.9493

> <Gold.Chemscore.Metal>
0.0000

> <Gold.Chemscore.Lipo>
88.2994

> <Gold.Chemscore.Internal_Hbond>
0.0000

> <Gold.Chemscore.DEClash>
0.0871

> <Gold.Chemscore.DEInternal>
0.6049

> <Gold.Chemscore.Rot>
1.5726

> <Gold.Chemscore.Internal.Correction>
   9.000000E+99

> <Gold.Chemscore.Hbonds>
donor molecule, donor type, donor heavy atom, donor atom, acceptor molecule, acceptor atom, score
      L1  H     8    28       P1  7948  0.70

> <Gold.Chemscore.Hbond.Weighted>
-3.1706

> <Gold.Chemscore.Metal.Weighted>
-0.0000

> <Gold.Chemscore.Lipo.Weighted>
-10.3310

> <Gold.Chemscore.Internal_Hbond.Weighted>
0.0000

> <Gold.Chemscore.DEClash.Weighted>
0.0871

> <Gold.Chemscore.DEInternal.Weighted>
0.6049

> <Gold.Chemscore.Rot.Weighted>
4.0259

> <Gold.Chemscore.Internal.Correction.Weighted>
   9.000000E+99

> <Gold.Protein.RotatedTorsions>
[ 6907 6896 6895 6894 ] final   54.90 input  -60.11 | X-H torsion
[ 7974 7965 7964 7962 ] final  -11.84 input  175.53 | X-H torsion
[ 8008 7997 7996 7995 ] final  -38.98 input   59.86 | X-H torsion
[ 10167 10162 10161 10158 ] final   -3.73 input  -65.29 | X-H torsion
[ 10718 10713 10712 10709 ] final  -15.04 input   66.30 | X-H torsion
[ 10763 10752 10751 10750 ] final  123.88 input  -60.55 | X-H torsion
[ 11005 11000 10999 10996 ] final  -64.63 input  -57.11 | X-H torsion

> <Gold.Protein.ActiveResidues>
 VAL166  LYS551  ARG553  GLY616  TRP617  ASP618  TYR619  PRO620  LYS621  CYS622 
 ASP623  PHE694  ASN695  SER759  ASP760  ASP761  ALA762  ILE779  LEU786  VAL792 
 PHE793  MET794  SER795  GLU796  ALA797  LYS798  CYS799  TRP800  GLU811  SER814 

> <Gold.Protein.RotatedAtoms>
  152.3485  134.7038  160.0243 H   0  0  0  0  0  0  0  0  0  0  0  0  # atno 6907 bound_to 6896
  151.7400  133.3316  159.3371 H   0  0  0  0  0  0  0  0  0  0  0  0  # atno 6908 bound_to 6896
  150.7525  134.6220  159.6185 H   0  0  0  0  0  0  0  0  0  0  0  0  # atno 6909 bound_to 6896
  146.2173  140.2970  142.8372 H   0  0  0  0  0  0  0  0  0  0  0  0  # atno 7974 bound_to 7965
  154.4029  140.1563  156.2789 H   0  0  0  0  0  0  0  0  0  0  0  0  # atno 8008 bound_to 7997
  155.8887  140.3440  155.5918 H   0  0  0  0  0  0  0  0  0  0  0  0  # atno 8009 bound_to 7997
  155.7583  140.0814  157.2158 H   0  0  0  0  0  0  0  0  0  0  0  0  # atno 8010 bound_to 7997
  140.6901  143.6506  150.8353 H   0  0  0  0  0  0  0  0  0  0  0  0  # atno 10167 bound_to 10162
  156.6074  130.4840  149.6215 H   0  0  0  0  0  0  0  0  0  0  0  0  # atno 10718 bound_to 10713
  153.6525  135.3360  155.3104 H   0  0  0  0  0  0  0  0  0  0  0  0  # atno 10763 bound_to 10752
  154.8534  135.4344  154.1889 H   0  0  0  0  0  0  0  0  0  0  0  0  # atno 10764 bound_to 10752
  153.2835  135.7011  153.7436 H   0  0  0  0  0  0  0  0  0  0  0  0  # atno 10765 bound_to 10752
  141.1430  133.6668  156.5862 H   0  0  0  0  0  0  0  0  0  0  0  0  # atno 11005 bound_to 11000
  144.9085  140.7728  143.5822 LP  0  0  0  0  0  0  0  0  0  0  0  0  # atno 17320 bound_to 7965
  145.2900  139.1887  143.4745 LP  0  0  0  0  0  0  0  0  0  0  0  0  # atno 17321 bound_to 7965
  140.0218  143.5534  152.2797 LP  0  0  0  0  0  0  0  0  0  0  0  0  # atno 17342 bound_to 10162
  139.6295  144.7642  151.2566 LP  0  0  0  0  0  0  0  0  0  0  0  0  # atno 17343 bound_to 10162
  156.2418  130.6856  151.1563 LP  0  0  0  0  0  0  0  0  0  0  0  0  # atno 17370 bound_to 10713
  157.7263  131.0647  150.5913 LP  0  0  0  0  0  0  0  0  0  0  0  0  # atno 17371 bound_to 10713
  140.3799  134.7532  157.4654 LP  0  0  0  0  0  0  0  0  0  0  0  0  # atno 17394 bound_to 11000
  140.0646  134.5948  155.8710 LP  0  0  0  0  0  0  0  0  0  0  0  0  # atno 17395 bound_to 11000

$$$$
