AV-unprocessed.smi:1289|AV-procd|sdf|5388|dock6
  -GOLD-   22720 4543D 1   1.00000     0.00000
 Structure written by MMmdl.
 38 40  0  0  0  0  0  0  0  0  2 V2000
  145.6853  131.9093  161.5298 N   0  0  0  0  0  0  0  0  0  0  0  0
  146.1306  132.9367  161.2383 C   0  0  0  0  0  0  0  0  0  0  0  0
  146.6902  134.2271  160.8726 C   0  0  0  0  0  0  0  0  0  0  0  0
  146.7547  135.2654  161.8222 C   0  0  0  0  0  0  0  0  0  0  0  0
  147.2923  136.5165  161.4632 C   0  0  0  0  0  0  0  0  0  0  0  0
  147.7718  136.7498  160.1579 C   0  0  0  0  0  0  0  0  0  0  0  0
  148.2743  138.0054  159.8915 O   0  0  0  0  0  0  0  0  0  0  0  0
  148.8287  138.2497  158.6056 C   0  0  0  0  0  0  0  0  0  0  0  0
  150.3588  138.3106  158.7240 C   0  0  1  0  0  0  0  0  0  0  0  0
  150.8430  136.9962  158.9171 O   0  0  0  0  0  0  0  0  0  0  0  0
  151.0155  138.9424  157.4800 C   0  0  0  0  0  0  0  0  0  0  0  0
  150.8184  140.3969  157.4038 N   0  0  0  0  0  0  0  0  0  0  0  0
  150.0108  141.1208  156.5823 C   0  0  0  0  0  0  0  0  0  0  0  0
  150.1821  142.4363  156.8905 N   0  3  0  0  0  0  0  0  0  0  0  0
  151.1118  142.5556  157.9257 C   0  0  0  0  0  0  0  0  0  0  0  0
  151.6102  143.6797  158.5772 C   0  0  0  0  0  0  0  0  0  0  0  0
  152.5530  143.4519  159.6011 C   0  0  0  0  0  0  0  0  0  0  0  0
  152.9647  142.1476  159.9436 C   0  0  0  0  0  0  0  0  0  0  0  0
  152.4535  141.0154  159.2757 C   0  0  0  0  0  0  0  0  0  0  0  0
  151.5236  141.2485  158.2627 C   0  0  0  0  0  0  0  0  0  0  0  0
  147.7092  135.6975  159.2094 C   0  0  0  0  0  0  0  0  0  0  0  0
  147.1698  134.4460  159.5661 C   0  0  0  0  0  0  0  0  0  0  0  0
  146.3919  135.1103  162.8282 H   0  0  0  0  0  0  0  0  0  0  0  0
  147.3352  137.3070  162.1981 H   0  0  0  0  0  0  0  0  0  0  0  0
  148.5404  137.4407  157.9320 H   0  0  0  0  0  0  0  0  0  0  0  0
  148.4532  139.1864  158.1897 H   0  0  0  0  0  0  0  0  0  0  0  0
  150.6265  138.8889  159.6091 H   0  0  0  0  0  0  0  0  0  0  0  0
  151.7618  136.9794  158.6953 H   0  0  0  0  0  0  0  0  0  0  0  0
  152.0820  138.7202  157.4381 H   0  0  0  0  0  0  0  0  0  0  0  0
  150.5823  138.5153  156.5750 H   0  0  0  0  0  0  0  0  0  0  0  0
  149.3537  140.7235  155.8222 H   0  0  0  0  0  0  0  0  0  0  0  0
  151.2951  144.6799  158.3185 H   0  0  0  0  0  0  0  0  0  0  0  0
  152.9673  144.2942  160.1360 H   0  0  0  0  0  0  0  0  0  0  0  0
  153.6864  142.0119  160.7360 H   0  0  0  0  0  0  0  0  0  0  0  0
  152.7715  140.0207  159.5509 H   0  0  0  0  0  0  0  0  0  0  0  0
  148.0672  135.8243  158.1992 H   0  0  0  0  0  0  0  0  0  0  0  0
  147.1265  133.6567  158.8292 H   0  0  0  0  0  0  0  0  0  0  0  0
  149.6983  143.1946  156.4267 H   0  0  0  0  0  0  0  0  0  0  0  0
  1  2  3  0  0  0  0
  2  3  1  0  0  0  0
  3 22  1  0  0  0  0
  3  4  2  0  0  0  0
  4  5  1  0  0  0  0
  4 23  1  0  0  0  0
  5  6  2  0  0  0  0
  5 24  1  0  0  0  0
  6  7  1  0  0  0  0
  6 21  1  0  0  0  0
  7  8  1  0  0  0  0
  8  9  1  0  0  0  0
  8 25  1  0  0  0  0
  8 26  1  0  0  0  0
  9 10  1  0  0  0  0
  9 11  1  0  0  0  0
  9 27  1  0  0  0  0
 10 28  1  0  0  0  0
 11 12  1  0  0  0  0
 11 29  1  0  0  0  0
 11 30  1  0  0  0  0
 12 20  1  0  0  0  0
 12 13  1  0  0  0  0
 13 14  2  0  0  0  0
 13 31  1  0  0  0  0
 14 15  1  0  0  0  0
 14 38  1  0  0  0  0
 15 20  2  0  0  0  0
 15 16  1  0  0  0  0
 16 17  2  0  0  0  0
 16 32  1  0  0  0  0
 17 18  1  0  0  0  0
 17 33  1  0  0  0  0
 18 19  2  0  0  0  0
 18 34  1  0  0  0  0
 19 20  1  0  0  0  0
 19 35  1  0  0  0  0
 21 22  2  0  0  0  0
 21 36  1  0  0  0  0
 22 37  1  0  0  0  0
M  CHG  1  14   1
M  END
> <s_m_source_file>
AV-unprocessed.smi

> <i_m_source_file_index>
1289

> <i_lp_mmshare_version>
43012

> <i_f3d_flags>
0

> <s_epik_input>
TiNDYzFbY0hdW2NIXWMoW2NIXVtjSF0xKU9bQ0gyXVtDQEhdKFtPSF0pW0NIMl1uKFtjSF1uMiljKGMyMylbY0hdW2NIXVtjSF1bY0hdMw==

> <s_epik_cmdline>
J2VwaWtfcHl0aG9uJywgJy1waCcsICc3LjAnLCAnLXRuJywgJzgnLCAnLW1hJywgJzIwMCcsICctbWV0YWxfYmluZGluZycsICctaW1hZScsICc8aW5maWxlLm1hZT4nLCAnLW9tYWUnLCAnPG91dGZpbGUubWFlPic=

> <r_epik_Ionization_Penalty>
1.39523

> <r_epik_Ionization_Penalty_Charging>
1.39523

> <r_epik_Ionization_Penalty_Neutral>
2.3993e-06

> <r_epik_State_Penalty>
1.47691

> <r_epik_Charging_Adjusted_Penalty>
2.87215

> <i_epik_Tot_Q>
1

> <i_epik_Tot_abs_Q>
1

> <r_epik_Metal_State_Penalty>
5.51858

> <b_epik_Metal_Only>
0

> <s_lp_Force_Field>
OPLS_2005

> <r_lp_Energy>
20.386

> <b_lp_Chiralities_Consistent>
1

> <s_lp_Variant>
AV-unprocessed.smi:1289-4

> <Gold.Version>
5.8.1

> <Gold.Id.Protein>
6NUR|6NUR_protein|mol2

> <Gold.PLP.Fitness>
50.0593

> <Gold.PLP.PLP>
-41.5719

> <Gold.PLP.part.hbond>
-4.0000

> <Gold.PLP.part.metal>
0.0000

> <Gold.PLP.part.buried>
-4.4049

> <Gold.PLP.part.nonpolar>
-34.1141

> <Gold.PLP.part.repulsive>
0.0625

> <Gold.PLP.ligand.clash>
0.0000

> <Gold.PLP.ligand.torsion>
0.6874

> <Gold.PLP.Chemscore.Hbond>
3.2744

> <Gold.PLP.Chemscore.CHOScore>
0.0000

> <Gold.PLP.Chemscore.Metal>
0.0000

> <Gold.Chemscore.Hbonds>
donor molecule, donor type, donor heavy atom, donor atom, acceptor molecule, acceptor atom, score
      L1  H    14    38       P1  8028  2.00
      P1  H  6896  6907       L1    10  0.14
      P1  H  6931  6943       L1     7  0.11
      P1  H  6934  6947       L1     7  0.32

> <Gold.PLP.Chemscore.Internal.Correction>
0.0390

> <Gold.Rescore>
     Score         DG    S(hbond)    S(metal)    S(lipo)     H(rot)  DE(clash)    DE(int)     intcor
     15.66     -16.33       1.51        0.00     106.21       2.58       0.02       0.65       ----

> <Gold.Chemscore.Fitness>
15.6593

> <Gold.Chemscore.DG>
-16.3309

> <Gold.Chemscore.ZeroCoef>
-5.4800

> <Gold.Chemscore.Hbond>
1.5055

> <Gold.Chemscore.Metal>
0.0000

> <Gold.Chemscore.Lipo>
106.2106

> <Gold.Chemscore.Internal_Hbond>
0.0000

> <Gold.Chemscore.DEClash>
0.0231

> <Gold.Chemscore.DEInternal>
0.6484

> <Gold.Chemscore.Rot>
2.5798

> <Gold.Chemscore.Internal.Correction>
   9.000000E+99

> <Gold.Chemscore.Hbonds>
donor molecule, donor type, donor heavy atom, donor atom, acceptor molecule, acceptor atom, score
      L1  H    14    38       P1  8028  1.00
      P1  H  6931  6943       L1     7  0.01
      P1  H  6934  6947       L1     7  0.11

> <Gold.Chemscore.Hbond.Weighted>
-5.0285

> <Gold.Chemscore.Metal.Weighted>
-0.0000

> <Gold.Chemscore.Lipo.Weighted>
-12.4266

> <Gold.Chemscore.Internal_Hbond.Weighted>
0.0000

> <Gold.Chemscore.DEClash.Weighted>
0.0231

> <Gold.Chemscore.DEInternal.Weighted>
0.6484

> <Gold.Chemscore.Rot.Weighted>
6.6043

> <Gold.Chemscore.Internal.Correction.Weighted>
   9.000000E+99

> <Gold.Protein.RotatedTorsions>
[ 6907 6896 6895 6894 ] final  -18.93 input  -60.11 | X-H torsion
[ 7974 7965 7964 7962 ] final -178.32 input  175.53 | X-H torsion
[ 8008 7997 7996 7995 ] final -168.57 input   59.86 | X-H torsion
[ 10167 10162 10161 10158 ] final   -4.77 input  -65.29 | X-H torsion
[ 10718 10713 10712 10709 ] final  135.72 input   66.30 | X-H torsion
[ 10763 10752 10751 10750 ] final  121.24 input  -60.55 | X-H torsion
[ 11005 11000 10999 10996 ] final  132.85 input  -57.11 | X-H torsion

> <Gold.Protein.ActiveResidues>
 VAL166  LYS551  ARG553  GLY616  TRP617  ASP618  TYR619  PRO620  LYS621  CYS622 
 ASP623  PHE694  ASN695  SER759  ASP760  ASP761  ALA762  ILE779  LEU786  VAL792 
 PHE793  MET794  SER795  GLU796  ALA797  LYS798  CYS799  TRP800  GLU811  SER814 

> <Gold.Protein.RotatedAtoms>
  151.2708  135.0684  159.9132 H   0  0  0  0  0  0  0  0  0  0  0  0  # atno 6907 bound_to 6896
  152.5351  134.0133  159.7958 H   0  0  0  0  0  0  0  0  0  0  0  0  # atno 6908 bound_to 6896
  151.0371  133.5689  159.2686 H   0  0  0  0  0  0  0  0  0  0  0  0  # atno 6909 bound_to 6896
  144.7130  140.0887  143.6422 H   0  0  0  0  0  0  0  0  0  0  0  0  # atno 7974 bound_to 7965
  155.8932  140.1028  157.1403 H   0  0  0  0  0  0  0  0  0  0  0  0  # atno 8008 bound_to 7997
  154.4017  140.1307  156.4406 H   0  0  0  0  0  0  0  0  0  0  0  0  # atno 8009 bound_to 7997
  155.7509  140.3465  155.5152 H   0  0  0  0  0  0  0  0  0  0  0  0  # atno 8010 bound_to 7997
  140.6939  143.6385  150.8457 H   0  0  0  0  0  0  0  0  0  0  0  0  # atno 10167 bound_to 10162
  157.4542  131.1068  150.9998 H   0  0  0  0  0  0  0  0  0  0  0  0  # atno 10718 bound_to 10713
  153.6110  135.3430  155.2978 H   0  0  0  0  0  0  0  0  0  0  0  0  # atno 10763 bound_to 10752
  154.8618  135.4250  154.2310 H   0  0  0  0  0  0  0  0  0  0  0  0  # atno 10764 bound_to 10752
  153.3160  135.7035  153.7145 H   0  0  0  0  0  0  0  0  0  0  0  0  # atno 10765 bound_to 10752
  139.9815  134.9546  156.9641 H   0  0  0  0  0  0  0  0  0  0  0  0  # atno 11005 bound_to 11000
  145.9639  139.2821  143.1139 LP  0  0  0  0  0  0  0  0  0  0  0  0  # atno 17320 bound_to 7965
  145.9190  140.9128  143.0415 LP  0  0  0  0  0  0  0  0  0  0  0  0  # atno 17321 bound_to 7965
  140.0101  143.5652  152.2842 LP  0  0  0  0  0  0  0  0  0  0  0  0  # atno 17342 bound_to 10162
  139.6372  144.7651  151.2413 LP  0  0  0  0  0  0  0  0  0  0  0  0  # atno 17343 bound_to 10162
  157.0817  130.5906  149.5422 LP  0  0  0  0  0  0  0  0  0  0  0  0  # atno 17370 bound_to 10713
  156.0000  130.5077  150.7626 LP  0  0  0  0  0  0  0  0  0  0  0  0  # atno 17371 bound_to 10713
  140.5087  134.1024  155.7265 LP  0  0  0  0  0  0  0  0  0  0  0  0  # atno 17394 bound_to 11000
  141.1486  133.9009  157.2153 LP  0  0  0  0  0  0  0  0  0  0  0  0  # atno 17395 bound_to 11000

$$$$
