AV-unprocessed.smi:2216|AV-procd|sdf|8966|dock7
  -GOLD-   2272012183D 1   1.00000     0.00000
 Structure written by MMmdl.
 40 41  0  0  0  0  0  0  0  0  2 V2000
  151.0091  139.5468  158.4513 C   0  0  0  0  0  0  0  0  0  0  0  0
  150.6970  139.3204  156.9816 C   0  0  0  0  0  0  0  0  0  0  0  0
  150.2835  138.1140  156.5186 C   0  0  0  0  0  0  0  0  0  0  0  0
  149.9821  137.8879  155.1051 C   0  0  0  0  0  0  0  0  0  0  0  0
  149.5522  136.6940  154.5111 N   0  0  0  0  0  0  0  0  0  0  0  0
  149.4733  135.4654  155.0524 C   0  0  0  0  0  0  0  0  0  0  0  0
  149.7715  135.1635  156.2076 O   0  0  0  0  0  0  0  0  0  0  0  0
  149.0183  134.5779  154.1564 N   0  0  0  0  0  0  0  0  0  0  0  0
  148.8152  133.1564  154.4112 C   0  0  0  0  0  0  0  0  0  0  0  0
  147.3923  132.7104  154.0319 C   0  0  0  0  0  0  0  0  0  0  0  0
  146.9563  133.2176  152.6483 C   0  0  2  0  0  0  0  0  0  0  0  0
  146.2549  134.5877  152.7321 C   0  0  0  0  0  0  0  0  0  0  0  0
  145.7639  135.0286  151.3484 C   0  0  0  0  0  0  0  0  0  0  0  0
  144.9067  133.9206  150.7273 C   0  0  0  0  0  0  0  0  0  0  0  0
  145.6653  132.5840  150.7472 C   0  0  0  0  0  0  0  0  0  0  0  0
  146.0562  132.2678  152.0798 O   0  0  0  0  0  0  0  0  0  0  0  0
  150.1671  139.0195  154.3367 C   0  0  0  0  0  0  0  0  0  0  0  0
  150.5729  140.2486  154.7218 N   0  5  0  0  0  0  0  0  0  0  0  0
  150.8523  140.4491  156.0417 C   0  0  0  0  0  0  0  0  0  0  0  0
  151.2291  141.5412  156.4652 O   0  0  0  0  0  0  0  0  0  0  0  0
  150.8589  138.6382  159.0349 H   0  0  0  0  0  0  0  0  0  0  0  0
  150.3625  140.3223  158.8631 H   0  0  0  0  0  0  0  0  0  0  0  0
  152.0460  139.8599  158.5768 H   0  0  0  0  0  0  0  0  0  0  0  0
  150.1839  137.3141  157.2336 H   0  0  0  0  0  0  0  0  0  0  0  0
  149.2670  136.7807  153.5466 H   0  0  0  0  0  0  0  0  0  0  0  0
  148.7979  134.9107  153.2293 H   0  0  0  0  0  0  0  0  0  0  0  0
  149.5585  132.5686  153.8699 H   0  0  0  0  0  0  0  0  0  0  0  0
  148.9928  132.9781  155.4719 H   0  0  0  0  0  0  0  0  0  0  0  0
  147.3259  131.6219  154.0611 H   0  0  0  0  0  0  0  0  0  0  0  0
  146.6910  133.0804  154.7812 H   0  0  0  0  0  0  0  0  0  0  0  0
  147.8388  133.3027  152.0114 H   0  0  0  0  0  0  0  0  0  0  0  0
  145.4077  134.5266  153.4165 H   0  0  0  0  0  0  0  0  0  0  0  0
  146.9337  135.3371  153.1409 H   0  0  0  0  0  0  0  0  0  0  0  0
  145.1936  135.9548  151.4239 H   0  0  0  0  0  0  0  0  0  0  0  0
  146.6189  135.2377  150.7043 H   0  0  0  0  0  0  0  0  0  0  0  0
  143.9766  133.8192  151.2879 H   0  0  0  0  0  0  0  0  0  0  0  0
  144.6305  134.1841  149.7061 H   0  0  0  0  0  0  0  0  0  0  0  0
  145.0271  131.7852  150.3687 H   0  0  0  0  0  0  0  0  0  0  0  0
  146.5424  132.6235  150.0995 H   0  0  0  0  0  0  0  0  0  0  0  0
  149.9587  138.9221  153.2492 H   0  0  0  0  0  0  0  0  0  0  0  0
  1  2  1  0  0  0  0
  1 21  1  0  0  0  0
  1 22  1  0  0  0  0
  1 23  1  0  0  0  0
  2 19  1  0  0  0  0
  2  3  2  0  0  0  0
  3  4  1  0  0  0  0
  3 24  1  0  0  0  0
  4  5  1  0  0  0  0
  4 17  2  0  0  0  0
  5  6  1  0  0  0  0
  5 25  1  0  0  0  0
  6  7  2  0  0  0  0
  6  8  1  0  0  0  0
  8  9  1  0  0  0  0
  8 26  1  0  0  0  0
  9 10  1  0  0  0  0
  9 27  1  0  0  0  0
  9 28  1  0  0  0  0
 10 11  1  0  0  0  0
 10 29  1  0  0  0  0
 10 30  1  0  0  0  0
 11 16  1  0  0  0  0
 11 12  1  0  0  0  0
 11 31  1  0  0  0  0
 12 13  1  0  0  0  0
 12 32  1  0  0  0  0
 12 33  1  0  0  0  0
 13 14  1  0  0  0  0
 13 34  1  0  0  0  0
 13 35  1  0  0  0  0
 14 15  1  0  0  0  0
 14 36  1  0  0  0  0
 14 37  1  0  0  0  0
 15 16  1  0  0  0  0
 15 38  1  0  0  0  0
 15 39  1  0  0  0  0
 17 18  1  0  0  0  0
 17 40  1  0  0  0  0
 18 19  1  0  0  0  0
 19 20  2  0  0  0  0
M  CHG  1  18  -1
M  END
> <s_m_source_file>
AV-unprocessed.smi

> <i_m_source_file_index>
2216

> <i_lp_mmshare_version>
43012

> <i_f3d_flags>
0

> <s_epik_input>
Tz1jMVtuSF1bY0hdYyhbY0hdYzFbQ0gzXSlbTkhdQyg9TylbTkhdW0NIMl1bQ0gyXVtDQEBIXTJbQ0gyXVtDSDJdW0NIMl1bQ0gyXU8y

> <s_epik_cmdline>
J2VwaWtfcHl0aG9uJywgJy1waCcsICc3LjAnLCAnLXRuJywgJzgnLCAnLW1hJywgJzIwMCcsICctbWV0YWxfYmluZGluZycsICctaW1hZScsICc8aW5maWxlLm1hZT4nLCAnLW9tYWUnLCAnPG91dGZpbGUubWFlPic=

> <r_lp_tautomer_probability>
1

> <r_epik_Ionization_Penalty>
7.55627

> <r_epik_Ionization_Penalty_Charging>
1.50531

> <r_epik_Ionization_Penalty_Neutral>
6.05097

> <r_epik_State_Penalty>
6.05091

> <r_epik_Charging_Adjusted_Penalty>
7.55622

> <i_epik_Tot_Q>
-1

> <i_epik_Tot_abs_Q>
1

> <r_epik_Metal_State_Penalty>
2.00009

> <b_epik_Metal_Only>
1

> <s_lp_Force_Field>
OPLS_2005

> <r_lp_Energy>
21.198

> <b_lp_Chiralities_Consistent>
1

> <s_lp_Variant>
AV-unprocessed.smi:2216-3

> <Gold.Version>
5.8.1

> <Gold.Id.Protein>
6NUR|6NUR_protein|mol2

> <Gold.PLP.Fitness>
36.6780

> <Gold.PLP.PLP>
-28.6357

> <Gold.PLP.part.hbond>
-3.0000

> <Gold.PLP.part.metal>
0.0000

> <Gold.PLP.part.buried>
-5.7521

> <Gold.PLP.part.nonpolar>
-21.0261

> <Gold.PLP.part.repulsive>
0.3015

> <Gold.PLP.ligand.clash>
0.0000

> <Gold.PLP.ligand.torsion>
0.4687

> <Gold.PLP.Chemscore.Hbond>
2.9920

> <Gold.PLP.Chemscore.CHOScore>
0.0000

> <Gold.PLP.Chemscore.Metal>
0.0000

> <Gold.Chemscore.Hbonds>
donor molecule, donor type, donor heavy atom, donor atom, acceptor molecule, acceptor atom, score
      L1  H     5    25       P1  7948  1.00
      L1  H     8    26       P1  7948  1.00
      P1  H  7989  7998       L1    18  1.00

> <Gold.PLP.Chemscore.Internal.Correction>
0.0038

> <Gold.Rescore>
     Score         DG    S(hbond)    S(metal)    S(lipo)     H(rot)  DE(clash)    DE(int)     intcor
     16.84     -18.83       2.97        0.00      61.39       1.47       0.59       1.40       ----

> <Gold.Chemscore.Fitness>
16.8427

> <Gold.Chemscore.DG>
-18.8275

> <Gold.Chemscore.ZeroCoef>
-5.4800

> <Gold.Chemscore.Hbond>
2.9732

> <Gold.Chemscore.Metal>
0.0000

> <Gold.Chemscore.Lipo>
61.3895

> <Gold.Chemscore.Internal_Hbond>
0.0000

> <Gold.Chemscore.DEClash>
0.5872

> <Gold.Chemscore.DEInternal>
1.3976

> <Gold.Chemscore.Rot>
1.4709

> <Gold.Chemscore.Internal.Correction>
   9.000000E+99

> <Gold.Chemscore.Hbonds>
donor molecule, donor type, donor heavy atom, donor atom, acceptor molecule, acceptor atom, score
      L1  H     5    25       P1  7948  0.95
      L1  H     8    26       P1  7948  0.33
      P1  H  7989  7998       L1    18  0.63

> <Gold.Chemscore.Hbond.Weighted>
-9.9303

> <Gold.Chemscore.Metal.Weighted>
-0.0000

> <Gold.Chemscore.Lipo.Weighted>
-7.1826

> <Gold.Chemscore.Internal_Hbond.Weighted>
0.0000

> <Gold.Chemscore.DEClash.Weighted>
0.5872

> <Gold.Chemscore.DEInternal.Weighted>
1.3976

> <Gold.Chemscore.Rot.Weighted>
3.7654

> <Gold.Chemscore.Internal.Correction.Weighted>
   9.000000E+99

> <Gold.Protein.RotatedTorsions>
[ 6907 6896 6895 6894 ] final   56.73 input  -60.11 | X-H torsion
[ 7974 7965 7964 7962 ] final  -53.66 input  175.53 | X-H torsion
[ 8008 7997 7996 7995 ] final  169.69 input   59.86 | X-H torsion
[ 10167 10162 10161 10158 ] final  157.99 input  -65.29 | X-H torsion
[ 10718 10713 10712 10709 ] final  151.89 input   66.30 | X-H torsion
[ 10763 10752 10751 10750 ] final  -36.36 input  -60.55 | X-H torsion
[ 11005 11000 10999 10996 ] final -121.35 input  -57.11 | X-H torsion

> <Gold.Protein.ActiveResidues>
 VAL166  LYS551  ARG553  GLY616  TRP617  ASP618  TYR619  PRO620  LYS621  CYS622 
 ASP623  PHE694  ASN695  SER759  ASP760  ASP761  ALA762  ILE779  LEU786  VAL792 
 PHE793  MET794  SER795  GLU796  ALA797  LYS798  CYS799  TRP800  GLU811  SER814 

> <Gold.Protein.RotatedAtoms>
  152.3664  134.6798  160.0190 H   0  0  0  0  0  0  0  0  0  0  0  0  # atno 6907 bound_to 6896
  151.7105  133.3307  159.3297 H   0  0  0  0  0  0  0  0  0  0  0  0  # atno 6908 bound_to 6896
  150.7641  134.6471  159.6313 H   0  0  0  0  0  0  0  0  0  0  0  0  # atno 6909 bound_to 6896
  145.8943  140.8046  142.9775 H   0  0  0  0  0  0  0  0  0  0  0  0  # atno 7974 bound_to 7965
  156.1434  140.1557  156.8885 H   0  0  0  0  0  0  0  0  0  0  0  0  # atno 8008 bound_to 7997
  154.5007  140.0826  156.7830 H   0  0  0  0  0  0  0  0  0  0  0  0  # atno 8009 bound_to 7997
  155.4035  140.3415  155.4261 H   0  0  0  0  0  0  0  0  0  0  0  0  # atno 8010 bound_to 7997
  139.4825  144.4866  151.8368 H   0  0  0  0  0  0  0  0  0  0  0  0  # atno 10167 bound_to 10162
  157.2649  131.0805  151.1640 H   0  0  0  0  0  0  0  0  0  0  0  0  # atno 10718 bound_to 10713
  153.8785  135.6824  153.4769 H   0  0  0  0  0  0  0  0  0  0  0  0  # atno 10763 bound_to 10752
  153.1247  135.4724  154.9250 H   0  0  0  0  0  0  0  0  0  0  0  0  # atno 10764 bound_to 10752
  154.7680  135.3230  154.8199 H   0  0  0  0  0  0  0  0  0  0  0  0  # atno 10765 bound_to 10752
  141.0076  134.0311  157.3456 H   0  0  0  0  0  0  0  0  0  0  0  0  # atno 11005 bound_to 11000
  144.6732  140.1578  143.7425 LP  0  0  0  0  0  0  0  0  0  0  0  0  # atno 17320 bound_to 7965
  145.8870  139.2354  143.1572 LP  0  0  0  0  0  0  0  0  0  0  0  0  # atno 17321 bound_to 7965
  140.4347  144.2068  150.5889 LP  0  0  0  0  0  0  0  0  0  0  0  0  # atno 17342 bound_to 10162
  140.4744  143.2401  151.9043 LP  0  0  0  0  0  0  0  0  0  0  0  0  # atno 17343 bound_to 10162
  157.3135  130.6901  149.6229 LP  0  0  0  0  0  0  0  0  0  0  0  0  # atno 17370 bound_to 10713
  155.9663  130.4356  150.5100 LP  0  0  0  0  0  0  0  0  0  0  0  0  # atno 17371 bound_to 10713
  139.9072  135.0182  156.7537 LP  0  0  0  0  0  0  0  0  0  0  0  0  # atno 17394 bound_to 11000
  140.6787  133.9494  155.7897 LP  0  0  0  0  0  0  0  0  0  0  0  0  # atno 17395 bound_to 11000

$$$$
