AV-unprocessed.smi:72|AV-procd|sdf|732|dock7
  -GOLD-   2262017 63D 1   1.00000     0.00000
 Structure written by MMmdl.
 28 29  0  0  0  0  0  0  0  0  2 V2000
  151.8011  134.4920  157.1114 N   0  0  0  0  0  0  0  0  0  0  0  0
  151.7333  135.7257  156.8591 C   0  0  0  0  0  0  0  0  0  0  0  0
  150.4448  136.3795  156.7910 N   0  0  0  0  0  0  0  0  0  0  0  0
  150.4244  137.6520  156.5380 C   0  0  0  0  0  0  0  0  0  0  0  0
  151.6486  138.4158  156.3307 N   0  0  0  0  0  0  0  0  0  0  0  0
  151.6342  139.9080  156.0385 C   0  0  1  0  0  0  0  0  0  0  0  0
  150.7145  140.1884  155.0209 O   0  0  0  0  0  0  0  0  0  0  0  0
  149.5891  140.8769  155.5542 C   0  0  2  0  0  0  0  0  0  0  0  0
  148.8413  141.6465  154.4513 C   0  0  0  0  0  0  0  0  0  0  0  0
  149.1268  141.0923  153.1845 O   0  0  0  0  0  0  0  0  0  0  0  0
  150.1824  141.7019  156.7028 C   0  0  2  0  0  0  0  0  0  0  0  0
  150.7703  142.8983  156.2259 O   0  0  0  0  0  0  0  0  0  0  0  0
  151.2492  140.7720  157.2670 C   0  0  1  0  0  0  0  0  0  0  0  0
  150.7110  140.0295  158.3479 O   0  0  0  0  0  0  0  0  0  0  0  0
  152.8992  137.7452  156.3991 C   0  0  0  0  0  0  0  0  0  0  0  0
  153.9221  138.4084  156.2256 O   0  0  0  0  0  0  0  0  0  0  0  0
  152.9126  136.4074  156.6565 N   0  5  0  0  0  0  0  0  0  0  0  0
  152.6260  140.1390  155.6466 H   0  0  0  0  0  0  0  0  0  0  0  0
  148.9177  140.1290  155.9792 H   0  0  0  0  0  0  0  0  0  0  0  0
  149.4267  141.9722  157.4417 H   0  0  0  0  0  0  0  0  0  0  0  0
  152.1252  141.3132  157.6275 H   0  0  0  0  0  0  0  0  0  0  0  0
  152.7506  134.1499  157.1330 H   0  0  0  0  0  0  0  0  0  0  0  0
  149.4961  138.2178  156.4668 H   0  0  0  0  0  0  0  0  0  0  0  0
  147.7643  141.6465  154.6199 H   0  0  0  0  0  0  0  0  0  0  0  0
  149.1597  142.6893  154.4487 H   0  0  0  0  0  0  0  0  0  0  0  0
  148.3433  140.6790  152.8544 H   0  0  0  0  0  0  0  0  0  0  0  0
  150.0790  143.5112  156.0278 H   0  0  0  0  0  0  0  0  0  0  0  0
  150.6325  140.6017  159.0956 H   0  0  0  0  0  0  0  0  0  0  0  0
  1  2  2  0  0  0  0
  1 22  1  0  0  0  0
  2 17  1  0  0  0  0
  2  3  1  0  0  0  0
  3  4  2  0  0  0  0
  4  5  1  0  0  0  0
  4 23  1  0  0  0  0
  5  6  1  0  0  0  0
  5 15  1  0  0  0  0
  6 18  1  0  0  0  0
  6 13  1  0  0  0  0
  6  7  1  0  0  0  0
  7  8  1  0  0  0  0
  8 19  1  0  0  0  0
  8  9  1  0  0  0  0
  8 11  1  0  0  0  0
  9 10  1  0  0  0  0
  9 24  1  0  0  0  0
  9 25  1  0  0  0  0
 10 26  1  0  0  0  0
 11 20  1  0  0  0  0
 11 12  1  0  0  0  0
 11 13  1  0  0  0  0
 12 27  1  0  0  0  0
 13 21  1  0  0  0  0
 13 14  1  0  0  0  0
 14 28  1  0  0  0  0
 15 16  2  0  0  0  0
 15 17  1  0  0  0  0
M  CHG  1  17  -1
M  END
> <s_m_source_file>
AV-unprocessed.smi

> <i_m_source_file_index>
72

> <i_lp_mmshare_version>
43012

> <i_f3d_flags>
0

> <s_epik_input>
W05IMl1jMW5bY0hdbihjKD1PKW4xKVtDQEBIXTJPW0NASF0oW0NIMl1bT0hdKVtDQEBIXShbT0hdKVtDQEhdMltPSF0=

> <s_epik_cmdline>
J2VwaWtfcHl0aG9uJywgJy1waCcsICc3LjAnLCAnLXRuJywgJzgnLCAnLW1hJywgJzIwMCcsICctbWV0YWxfYmluZGluZycsICctaW1hZScsICc8aW5maWxlLm1hZT4nLCAnLW9tYWUnLCAnPG91dGZpbGUubWFlPic=

> <r_lp_tautomer_probability>
7.17554e-07

> <r_epik_Ionization_Penalty>
12.8705

> <r_epik_Ionization_Penalty_Charging>
5.64144

> <r_epik_Ionization_Penalty_Neutral>
7.22905

> <r_epik_State_Penalty>
3.30104

> <r_epik_Charging_Adjusted_Penalty>
8.94249

> <i_epik_Tot_Q>
-1

> <i_epik_Tot_abs_Q>
1

> <r_epik_Metal_State_Penalty>
0.529074

> <b_epik_Metal_Only>
1

> <s_epik_Chemistry_Notes>
This compound contains an acetal/aminal-like group ( X-CH(R)-Y where X, Y are N, S, or O) that may be acid/base labile, releasing an aldehyde.

> <s_lp_Force_Field>
OPLS_2005

> <r_lp_Energy>
37.8021

> <b_lp_Chiralities_Consistent>
1

> <s_lp_Variant>
AV-unprocessed.smi:72-70

> <Gold.Version>
5.8.1

> <Gold.Id.Protein>
6NUR|6NUR_protein|mol2

> <Gold.PLP.Fitness>
39.3698

> <Gold.PLP.PLP>
-24.2139

> <Gold.PLP.part.hbond>
-7.2686

> <Gold.PLP.part.metal>
0.0000

> <Gold.PLP.part.buried>
-2.9163

> <Gold.PLP.part.nonpolar>
-13.7156

> <Gold.PLP.part.repulsive>
0.0524

> <Gold.PLP.ligand.clash>
0.0000

> <Gold.PLP.ligand.torsion>
0.7822

> <Gold.PLP.Chemscore.Hbond>
5.5600

> <Gold.PLP.Chemscore.CHOScore>
0.0000

> <Gold.PLP.Chemscore.Metal>
0.0000

> <Gold.Chemscore.Hbonds>
donor molecule, donor type, donor heavy atom, donor atom, acceptor molecule, acceptor atom, score
      L1  H    12    27       P1  8028  1.00
      P1  H  6896  6908       L1     1  0.01
      P1  H  7989  7998       L1     7  1.00
      P1  H  7997  8010       L1    16  0.56
      P1  H  8011  8017       L1    10  1.00
      P1  H 10752 10763       L1    17  1.90

> <Gold.PLP.Chemscore.Internal.Correction>
0.0404

> <Gold.Rescore>
     Score         DG    S(hbond)    S(metal)    S(lipo)     H(rot)  DE(clash)    DE(int)     intcor
      7.99     -10.01       3.56        0.00      25.50       4.04       0.11       1.91       ----

> <Gold.Chemscore.Fitness>
7.9869

> <Gold.Chemscore.DG>
-10.0094

> <Gold.Chemscore.ZeroCoef>
-5.4800

> <Gold.Chemscore.Hbond>
3.5597

> <Gold.Chemscore.Metal>
0.0000

> <Gold.Chemscore.Lipo>
25.4966

> <Gold.Chemscore.Internal_Hbond>
0.0000

> <Gold.Chemscore.DEClash>
0.1076

> <Gold.Chemscore.DEInternal>
1.9150

> <Gold.Chemscore.Rot>
4.0403

> <Gold.Chemscore.Internal.Correction>
   9.000000E+99

> <Gold.Chemscore.Hbonds>
donor molecule, donor type, donor heavy atom, donor atom, acceptor molecule, acceptor atom, score
      L1  H    12    27       P1  8028  1.00
      P1  H  7989  7998       L1     7  0.72
      P1  H  7997  8010       L1    16  0.56
      P1  H  8011  8017       L1    10  0.38
      P1  H 10752 10763       L1    17  0.19

> <Gold.Chemscore.Hbond.Weighted>
-11.8894

> <Gold.Chemscore.Metal.Weighted>
-0.0000

> <Gold.Chemscore.Lipo.Weighted>
-2.9831

> <Gold.Chemscore.Internal_Hbond.Weighted>
0.0000

> <Gold.Chemscore.DEClash.Weighted>
0.1076

> <Gold.Chemscore.DEInternal.Weighted>
1.9150

> <Gold.Chemscore.Rot.Weighted>
10.3431

> <Gold.Chemscore.Internal.Correction.Weighted>
   9.000000E+99

> <Gold.Protein.RotatedTorsions>
[ 6907 6896 6895 6894 ] final   87.97 input  -60.11 | X-H torsion
[ 7974 7965 7964 7962 ] final  177.04 input  175.53 | X-H torsion
[ 8008 7997 7996 7995 ] final   66.16 input   59.86 | X-H torsion
[ 10167 10162 10161 10158 ] final  -22.18 input  -65.29 | X-H torsion
[ 10718 10713 10712 10709 ] final  111.48 input   66.30 | X-H torsion
[ 10763 10752 10751 10750 ] final  124.57 input  -60.55 | X-H torsion
[ 11005 11000 10999 10996 ] final   12.55 input  -57.11 | X-H torsion

> <Gold.Protein.ActiveResidues>
 VAL166  LYS551  ARG553  GLY616  TRP617  ASP618  TYR619  PRO620  LYS621  CYS622 
 ASP623  PHE694  ASN695  SER759  ASP760  ASP761  ALA762  ILE779  LEU786  VAL792 
 PHE793  MET794  SER795  GLU796  ALA797  LYS798  CYS799  TRP800  GLU811  SER814 

> <Gold.Protein.RotatedAtoms>
  152.5419  134.2194  159.8781 H   0  0  0  0  0  0  0  0  0  0  0  0  # atno 6907 bound_to 6896
  151.2172  133.4516  159.2607 H   0  0  0  0  0  0  0  0  0  0  0  0  # atno 6908 bound_to 6896
  151.0840  134.9888  159.8426 H   0  0  0  0  0  0  0  0  0  0  0  0  # atno 6909 bound_to 6896
  144.7175  140.0186  143.6440 H   0  0  0  0  0  0  0  0  0  0  0  0  # atno 7974 bound_to 7965
  155.6731  140.3497  155.4826 H   0  0  0  0  0  0  0  0  0  0  0  0  # atno 8008 bound_to 7997
  155.9671  140.1148  157.0867 H   0  0  0  0  0  0  0  0  0  0  0  0  # atno 8009 bound_to 7997
  154.4157  140.1164  156.5243 H   0  0  0  0  0  0  0  0  0  0  0  0  # atno 8010 bound_to 7997
  140.7285  143.4559  151.0449 H   0  0  0  0  0  0  0  0  0  0  0  0  # atno 10167 bound_to 10162
  157.6442  131.0951  150.6756 H   0  0  0  0  0  0  0  0  0  0  0  0  # atno 10718 bound_to 10713
  153.6635  135.3342  155.3133 H   0  0  0  0  0  0  0  0  0  0  0  0  # atno 10763 bound_to 10752
  154.8509  135.4369  154.1780 H   0  0  0  0  0  0  0  0  0  0  0  0  # atno 10764 bound_to 10752
  153.2752  135.7004  153.7515 H   0  0  0  0  0  0  0  0  0  0  0  0  # atno 10765 bound_to 10752
  140.4908  134.0843  155.7771 H   0  0  0  0  0  0  0  0  0  0  0  0  # atno 11005 bound_to 11000
  146.0199  139.3242  143.0819 LP  0  0  0  0  0  0  0  0  0  0  0  0  # atno 17320 bound_to 7965
  145.8581  140.9491  143.0714 LP  0  0  0  0  0  0  0  0  0  0  0  0  # atno 17321 bound_to 7965
  139.8239  143.7782  152.3178 LP  0  0  0  0  0  0  0  0  0  0  0  0  # atno 17342 bound_to 10162
  139.7874  144.7422  151.0002 LP  0  0  0  0  0  0  0  0  0  0  0  0  # atno 17343 bound_to 10162
  156.7075  130.4642  149.5556 LP  0  0  0  0  0  0  0  0  0  0  0  0  # atno 17370 bound_to 10713
  156.1753  130.6463  151.0886 LP  0  0  0  0  0  0  0  0  0  0  0  0  # atno 17371 bound_to 10713
  141.1485  133.9011  157.2156 LP  0  0  0  0  0  0  0  0  0  0  0  0  # atno 17394 bound_to 11000
  139.9770  135.0110  156.9657 LP  0  0  0  0  0  0  0  0  0  0  0  0  # atno 17395 bound_to 11000

$$$$
