AV-unprocessed.smi:3335|AV-procd|sdf|12850|dock1
  -GOLD-   2272019243D 1   1.00000     0.00000
 Structure written by MMmdl.
 46 47  0  0  0  0  0  0  0  0  1 V2000
  152.4693  144.0465  159.1873 C   0  0  0  0  0  0  0  0  0  0  0  0
  151.8850  142.9114  158.3972 C   0  0  0  0  0  0  0  0  0  0  0  0
  151.3029  142.9567  157.0993 C   0  0  0  0  0  0  0  0  0  0  0  0
  150.8881  141.7728  156.6816 N   0  0  0  0  0  0  0  0  0  0  0  0
  151.1786  140.9279  157.6970 N   0  0  0  0  0  0  0  0  0  0  0  0
  150.8918  139.4987  157.5871 C   0  0  1  0  0  0  0  0  0  0  0  0
  151.5528  138.8625  156.3480 C   0  0  0  0  0  0  0  0  0  0  0  0
  151.1695  138.7170  158.9005 C   0  0  2  0  0  0  0  0  0  0  0  0
  152.6729  138.6945  159.2446 C   0  0  0  0  0  0  0  0  0  0  0  0
  150.6060  137.3678  158.7924 N   0  0  0  0  0  0  0  0  0  0  0  0
  149.1521  137.2307  158.9921 C   0  0  1  0  0  0  0  0  0  0  0  0
  148.4201  137.6835  157.7196 C   0  0  0  0  0  0  0  0  0  0  0  0
  148.7351  135.7845  159.3335 C   0  0  0  0  0  0  0  0  0  0  0  0
  149.0342  134.8819  158.5495 O   0  0  0  0  0  0  0  0  0  0  0  0
  148.0652  135.5369  160.4799 N   0  0  0  0  0  0  0  0  0  0  0  0
  147.6738  134.1925  160.9003 C   0  0  0  0  0  0  0  0  0  0  0  0
  147.1851  134.3321  162.3417 C   0  0  0  0  0  0  0  0  0  0  0  0
  146.7196  135.7776  162.4364 C   0  0  0  0  0  0  0  0  0  0  0  0
  147.6300  136.5276  161.4640 C   0  0  0  0  0  0  0  0  0  0  0  0
  151.7889  141.5930  158.7413 C   0  0  0  0  0  0  0  0  0  0  0  0
  152.4593  144.9801  158.6245 H   0  0  0  0  0  0  0  0  0  0  0  0
  153.5048  143.8508  159.4657 H   0  0  0  0  0  0  0  0  0  0  0  0
  151.9147  144.2214  160.1091 H   0  0  0  0  0  0  0  0  0  0  0  0
  151.1742  143.8098  156.4497 H   0  0  0  0  0  0  0  0  0  0  0  0
  149.8177  139.4268  157.4091 H   0  0  0  0  0  0  0  0  0  0  0  0
  151.2440  137.8231  156.2329 H   0  0  0  0  0  0  0  0  0  0  0  0
  152.6411  138.8769  156.4101 H   0  0  0  0  0  0  0  0  0  0  0  0
  151.2671  139.3915  155.4386 H   0  0  0  0  0  0  0  0  0  0  0  0
  150.6471  139.2404  159.7025 H   0  0  0  0  0  0  0  0  0  0  0  0
  153.1053  139.6918  159.1623 H   0  0  0  0  0  0  0  0  0  0  0  0
  153.2320  138.0363  158.5788 H   0  0  0  0  0  0  0  0  0  0  0  0
  152.8477  138.3671  160.2685 H   0  0  0  0  0  0  0  0  0  0  0  0
  151.1368  136.6991  159.3334 H   0  0  0  0  0  0  0  0  0  0  0  0
  148.8636  137.9160  159.7877 H   0  0  0  0  0  0  0  0  0  0  0  0
  147.3379  137.6214  157.8408 H   0  0  0  0  0  0  0  0  0  0  0  0
  148.6939  137.0724  156.8582 H   0  0  0  0  0  0  0  0  0  0  0  0
  148.6612  138.7194  157.4787 H   0  0  0  0  0  0  0  0  0  0  0  0
  146.8690  133.8384  160.2546 H   0  0  0  0  0  0  0  0  0  0  0  0
  148.5010  133.4842  160.8317 H   0  0  0  0  0  0  0  0  0  0  0  0
  146.4019  133.6169  162.5939 H   0  0  0  0  0  0  0  0  0  0  0  0
  148.0183  134.1720  163.0272 H   0  0  0  0  0  0  0  0  0  0  0  0
  145.6850  135.8499  162.0985 H   0  0  0  0  0  0  0  0  0  0  0  0
  146.7679  136.1724  163.4515 H   0  0  0  0  0  0  0  0  0  0  0  0
  148.5039  136.9179  161.9878 H   0  0  0  0  0  0  0  0  0  0  0  0
  147.1027  137.3636  161.0027 H   0  0  0  0  0  0  0  0  0  0  0  0
  152.1066  141.0756  159.6344 H   0  0  0  0  0  0  0  0  0  0  0  0
  1  2  1  0  0  0  0
  1 21  1  0  0  0  0
  1 22  1  0  0  0  0
  1 23  1  0  0  0  0
  2 20  2  0  0  0  0
  2  3  1  0  0  0  0
  3  4  2  0  0  0  0
  3 24  1  0  0  0  0
  4  5  1  0  0  0  0
  5  6  1  0  0  0  0
  5 20  1  0  0  0  0
  6  7  1  0  0  0  0
  6  8  1  0  0  0  0
  6 25  1  0  0  0  0
  7 26  1  0  0  0  0
  7 27  1  0  0  0  0
  7 28  1  0  0  0  0
  8  9  1  0  0  0  0
  8 10  1  0  0  0  0
  8 29  1  0  0  0  0
  9 30  1  0  0  0  0
  9 31  1  0  0  0  0
  9 32  1  0  0  0  0
 10 11  1  0  0  0  0
 10 33  1  0  0  0  0
 11 12  1  0  0  0  0
 11 13  1  0  0  0  0
 11 34  1  0  0  0  0
 12 35  1  0  0  0  0
 12 36  1  0  0  0  0
 12 37  1  0  0  0  0
 13 14  2  0  0  0  0
 13 15  1  0  0  0  0
 15 19  1  0  0  0  0
 15 16  1  0  0  0  0
 16 17  1  0  0  0  0
 16 38  1  0  0  0  0
 16 39  1  0  0  0  0
 17 18  1  0  0  0  0
 17 40  1  0  0  0  0
 17 41  1  0  0  0  0
 18 19  1  0  0  0  0
 18 42  1  0  0  0  0
 18 43  1  0  0  0  0
 19 44  1  0  0  0  0
 19 45  1  0  0  0  0
 20 46  1  0  0  0  0
M  END
> <s_m_source_file>
AV-unprocessed.smi

> <i_m_source_file_index>
3335

> <i_lp_mmshare_version>
43012

> <i_f3d_flags>
0

> <s_epik_input>
W0NIM11jMVtjSF1ubihbY0hdMSlbQ0BIXShbQ0gzXSlbQ0BIXShbQ0gzXSlbTkhdW0NASF0oW0NIM10pQyg9TylOMltDSDJdW0NIMl1bQ0gyXVtDSDJdMg==

> <s_epik_cmdline>
J2VwaWtfcHl0aG9uJywgJy1waCcsICc3LjAnLCAnLXRuJywgJzgnLCAnLW1hJywgJzIwMCcsICctbWV0YWxfYmluZGluZycsICctaW1hZScsICc8aW5maWxlLm1hZT4nLCAnLW9tYWUnLCAnPG91dGZpbGUubWFlPic=

> <r_lp_tautomer_probability>
1

> <r_epik_Ionization_Penalty>
0.918803

> <r_epik_Ionization_Penalty_Charging>
0

> <r_epik_Ionization_Penalty_Neutral>
0.918803

> <r_epik_State_Penalty>
0.958258

> <r_epik_Charging_Adjusted_Penalty>
0.958258

> <i_epik_Tot_Q>
0

> <i_epik_Tot_abs_Q>
0

> <r_epik_Metal_State_Penalty>
0.956786

> <b_epik_Metal_Only>
0

> <s_lp_Force_Field>
OPLS_2005

> <r_lp_Energy>
40.2433

> <b_lp_Chiralities_Consistent>
1

> <s_lp_Variant>
AV-unprocessed.smi:3335-14

> <Gold.Version>
5.8.1

> <Gold.Id.Protein>
6NUR|6NUR_protein|mol2

> <Gold.PLP.Fitness>
43.1096

> <Gold.PLP.PLP>
-38.0062

> <Gold.PLP.part.hbond>
-1.0000

> <Gold.PLP.part.metal>
0.0000

> <Gold.PLP.part.buried>
-4.6450

> <Gold.PLP.part.nonpolar>
-32.7544

> <Gold.PLP.part.repulsive>
0.0742

> <Gold.PLP.ligand.clash>
0.0000

> <Gold.PLP.ligand.torsion>
0.5008

> <Gold.PLP.Chemscore.Hbond>
1.0000

> <Gold.PLP.Chemscore.CHOScore>
0.9117

> <Gold.PLP.Chemscore.Metal>
0.0000

> <Gold.Chemscore.Hbonds>
donor molecule, donor type, donor heavy atom, donor atom, acceptor molecule, acceptor atom, score
      P1  H  6896  6909       L1    14  1.00
      L1  C     3    24       P1  8028  0.83

> <Gold.PLP.Chemscore.Internal.Correction>
0.3701

> <Gold.Rescore>
     Score         DG    S(hbond)    S(metal)    S(lipo)     H(rot)  DE(clash)    DE(int)     intcor
     15.50     -16.23       0.97        0.00      99.69       1.62       0.05       0.67       ----

> <Gold.Chemscore.Fitness>
15.5006

> <Gold.Chemscore.DG>
-16.2253

> <Gold.Chemscore.ZeroCoef>
-5.4800

> <Gold.Chemscore.Hbond>
0.9669

> <Gold.Chemscore.Metal>
0.0000

> <Gold.Chemscore.Lipo>
99.6919

> <Gold.Chemscore.Internal_Hbond>
0.0000

> <Gold.Chemscore.DEClash>
0.0536

> <Gold.Chemscore.DEInternal>
0.6710

> <Gold.Chemscore.Rot>
1.6204

> <Gold.Chemscore.Internal.Correction>
   9.000000E+99

> <Gold.Chemscore.Hbonds>
donor molecule, donor type, donor heavy atom, donor atom, acceptor molecule, acceptor atom, score
      P1  H  6896  6909       L1    14  0.30

> <Gold.Chemscore.Hbond.Weighted>
-3.2296

> <Gold.Chemscore.Metal.Weighted>
-0.0000

> <Gold.Chemscore.Lipo.Weighted>
-11.6640

> <Gold.Chemscore.Internal_Hbond.Weighted>
0.0000

> <Gold.Chemscore.DEClash.Weighted>
0.0536

> <Gold.Chemscore.DEInternal.Weighted>
0.6710

> <Gold.Chemscore.Rot.Weighted>
4.1482

> <Gold.Chemscore.Internal.Correction.Weighted>
   9.000000E+99

> <Gold.Protein.RotatedTorsions>
[ 6907 6896 6895 6894 ] final   22.91 input  -60.11 | X-H torsion
[ 7974 7965 7964 7962 ] final  -59.58 input  175.53 | X-H torsion
[ 8008 7997 7996 7995 ] final  105.59 input   59.86 | X-H torsion
[ 10167 10162 10161 10158 ] final  -60.62 input  -65.29 | X-H torsion
[ 10718 10713 10712 10709 ] final -111.13 input   66.30 | X-H torsion
[ 10763 10752 10751 10750 ] final -116.78 input  -60.55 | X-H torsion
[ 11005 11000 10999 10996 ] final    2.38 input  -57.11 | X-H torsion

> <Gold.Protein.ActiveResidues>
 VAL166  LYS551  ARG553  GLY616  TRP617  ASP618  TYR619  PRO620  LYS621  CYS622 
 ASP623  PHE694  ASN695  SER759  ASP760  ASP761  ALA762  ILE779  LEU786  VAL792 
 PHE793  MET794  SER795  GLU796  ALA797  LYS798  CYS799  TRP800  GLU811  SER814 

> <Gold.Protein.RotatedAtoms>
  151.9344  135.0242  160.0531 H   0  0  0  0  0  0  0  0  0  0  0  0  # atno 6907 bound_to 6896
  152.2091  133.4893  159.5108 H   0  0  0  0  0  0  0  0  0  0  0  0  # atno 6908 bound_to 6896
  150.6972  134.1408  159.4147 H   0  0  0  0  0  0  0  0  0  0  0  0  # atno 6909 bound_to 6896
  145.8257  140.8512  143.0109 H   0  0  0  0  0  0  0  0  0  0  0  0  # atno 7974 bound_to 7965
  156.1672  140.3128  155.8909 H   0  0  0  0  0  0  0  0  0  0  0  0  # atno 8008 bound_to 7997
  155.3662  140.0479  157.3063 H   0  0  0  0  0  0  0  0  0  0  0  0  # atno 8009 bound_to 7997
  154.5204  140.2196  155.8998 H   0  0  0  0  0  0  0  0  0  0  0  0  # atno 8010 bound_to 7997
  140.6059  143.2373  151.5821 H   0  0  0  0  0  0  0  0  0  0  0  0  # atno 10167 bound_to 10162
  156.0630  130.5851  150.8332 H   0  0  0  0  0  0  0  0  0  0  0  0  # atno 10718 bound_to 10713
  154.8532  135.4333  154.1875 H   0  0  0  0  0  0  0  0  0  0  0  0  # atno 10763 bound_to 10752
  153.2951  135.6964  153.7261 H   0  0  0  0  0  0  0  0  0  0  0  0  # atno 10764 bound_to 10752
  153.6413  135.3467  155.3047 H   0  0  0  0  0  0  0  0  0  0  0  0  # atno 10765 bound_to 10752
  140.6049  133.9801  155.8149 H   0  0  0  0  0  0  0  0  0  0  0  0  # atno 11005 bound_to 11000
  144.6744  140.0599  143.7476 LP  0  0  0  0  0  0  0  0  0  0  0  0  # atno 17320 bound_to 7965
  145.9626  139.2811  143.1146 LP  0  0  0  0  0  0  0  0  0  0  0  0  # atno 17321 bound_to 7965
  139.5325  144.2875  152.1179 LP  0  0  0  0  0  0  0  0  0  0  0  0  # atno 17342 bound_to 10162
  140.2065  144.4606  150.6406 LP  0  0  0  0  0  0  0  0  0  0  0  0  # atno 17343 bound_to 10162
  157.5652  131.0946  150.9501 LP  0  0  0  0  0  0  0  0  0  0  0  0  # atno 17370 bound_to 10713
  156.9729  130.5498  149.5291 LP  0  0  0  0  0  0  0  0  0  0  0  0  # atno 17371 bound_to 10713
  141.0847  134.0009  157.3332 LP  0  0  0  0  0  0  0  0  0  0  0  0  # atno 17394 bound_to 11000
  139.9216  135.0200  156.8086 LP  0  0  0  0  0  0  0  0  0  0  0  0  # atno 17395 bound_to 11000

$$$$
