AV-unprocessed.smi:2923|AV-procd|sdf|11215|dock2
  -GOLD-   2272016103D 1   1.00000     0.00000
 Structure written by MMmdl.
 46 48  0  0  0  0  0  0  0  0  1 V2000
  151.6860  143.1938  157.3661 C   0  0  0  0  0  0  0  0  0  0  0  0
  151.5588  143.9615  158.5989 N   0  0  0  0  0  0  0  0  0  0  0  0
  150.7250  145.1588  158.6267 C   0  0  0  0  0  0  0  0  0  0  0  0
  152.1779  143.5081  159.7862 C   0  0  0  0  0  0  0  0  0  0  0  0
  151.6977  143.8904  161.0636 C   0  0  0  0  0  0  0  0  0  0  0  0
  152.3498  143.4160  162.2178 C   0  0  0  0  0  0  0  0  0  0  0  0
  153.4659  142.5604  162.0725 C   0  0  0  0  0  0  0  0  0  0  0  0
  154.2225  142.0373  163.1557 N   0  0  0  0  0  0  0  0  0  0  0  0
  154.2801  142.4744  164.4251 C   0  0  0  0  0  0  0  0  0  0  0  0
  153.6097  143.3937  164.8944 O   0  0  0  0  0  0  0  0  0  0  0  0
  155.1630  141.7660  165.1412 N   0  0  0  0  0  0  0  0  0  0  0  0
  155.4540  141.9980  166.5526 C   0  0  1  0  0  0  0  0  0  0  0  0
  154.1863  142.0091  167.4207 C   0  0  2  0  0  0  0  0  0  0  0  0
  153.7654  143.2751  168.1162 C   0  0  0  0  0  0  0  0  0  0  0  0
  154.3669  143.1120  169.5150 C   0  0  0  0  0  0  0  0  0  0  0  0
  155.4247  142.1713  169.3444 O   0  0  0  0  0  0  0  0  0  0  0  0
  154.9717  141.1799  168.4256 C   0  0  2  0  0  0  0  0  0  0  0  0
  155.9631  140.7524  167.3229 C   0  0  0  0  0  0  0  0  0  0  0  0
  155.6702  139.3727  166.7156 C   0  0  0  0  0  0  0  0  0  0  0  0
  157.4421  140.7577  167.7117 C   0  0  0  0  0  0  0  0  0  0  0  0
  153.8771  142.2432  160.7635 C   0  0  0  0  0  0  0  0  0  0  0  0
  153.2551  142.6955  159.6550 N   0  0  0  0  0  0  0  0  0  0  0  0
  151.2846  142.1885  157.4970 H   0  0  0  0  0  0  0  0  0  0  0  0
  152.7322  143.1177  157.0690 H   0  0  0  0  0  0  0  0  0  0  0  0
  151.1421  143.6644  156.5470 H   0  0  0  0  0  0  0  0  0  0  0  0
  149.8921  145.0287  159.3183 H   0  0  0  0  0  0  0  0  0  0  0  0
  150.3109  145.3786  157.6426 H   0  0  0  0  0  0  0  0  0  0  0  0
  151.3076  146.0242  158.9441 H   0  0  0  0  0  0  0  0  0  0  0  0
  150.8461  144.5429  161.1834 H   0  0  0  0  0  0  0  0  0  0  0  0
  151.9893  143.7311  163.1845 H   0  0  0  0  0  0  0  0  0  0  0  0
  154.7636  141.2116  162.9450 H   0  0  0  0  0  0  0  0  0  0  0  0
  155.6700  141.0231  164.6831 H   0  0  0  0  0  0  0  0  0  0  0  0
  156.0748  142.8784  166.7339 H   0  0  0  0  0  0  0  0  0  0  0  0
  153.3680  141.4352  166.9818 H   0  0  0  0  0  0  0  0  0  0  0  0
  154.1793  144.1507  167.6150 H   0  0  0  0  0  0  0  0  0  0  0  0
  152.6822  143.3921  168.1564 H   0  0  0  0  0  0  0  0  0  0  0  0
  154.7277  144.0527  169.9312 H   0  0  0  0  0  0  0  0  0  0  0  0
  153.6297  142.6945  170.2023 H   0  0  0  0  0  0  0  0  0  0  0  0
  154.3943  140.3806  168.8929 H   0  0  0  0  0  0  0  0  0  0  0  0
  155.8626  138.5742  167.4327 H   0  0  0  0  0  0  0  0  0  0  0  0
  156.2881  139.1783  165.8381 H   0  0  0  0  0  0  0  0  0  0  0  0
  154.6288  139.2787  166.4065 H   0  0  0  0  0  0  0  0  0  0  0  0
  157.6606  140.0016  168.4663 H   0  0  0  0  0  0  0  0  0  0  0  0
  157.7466  141.7208  168.1223 H   0  0  0  0  0  0  0  0  0  0  0  0
  158.0822  140.5616  166.8509 H   0  0  0  0  0  0  0  0  0  0  0  0
  154.7320  141.6040  160.5967 H   0  0  0  0  0  0  0  0  0  0  0  0
  1  2  1  0  0  0  0
  1 23  1  0  0  0  0
  1 24  1  0  0  0  0
  1 25  1  0  0  0  0
  2  3  1  0  0  0  0
  2  4  1  0  0  0  0
  3 26  1  0  0  0  0
  3 27  1  0  0  0  0
  3 28  1  0  0  0  0
  4 22  1  0  0  0  0
  4  5  2  0  0  0  0
  5  6  1  0  0  0  0
  5 29  1  0  0  0  0
  6  7  2  0  0  0  0
  6 30  1  0  0  0  0
  7  8  1  0  0  0  0
  7 21  1  0  0  0  0
  8  9  1  0  0  0  0
  8 31  1  0  0  0  0
  9 10  2  0  0  0  0
  9 11  1  0  0  0  0
 11 12  1  0  0  0  0
 11 32  1  0  0  0  0
 12 18  1  0  0  0  0
 12 13  1  0  0  0  0
 12 33  1  0  0  0  0
 13 17  1  0  0  0  0
 13 14  1  0  0  0  0
 13 34  1  0  0  0  0
 14 15  1  0  0  0  0
 14 35  1  0  0  0  0
 14 36  1  0  0  0  0
 15 16  1  0  0  0  0
 15 37  1  0  0  0  0
 15 38  1  0  0  0  0
 16 17  1  0  0  0  0
 17 18  1  0  0  0  0
 17 39  1  0  0  0  0
 18 19  1  0  0  0  0
 18 20  1  0  0  0  0
 19 40  1  0  0  0  0
 19 41  1  0  0  0  0
 19 42  1  0  0  0  0
 20 43  1  0  0  0  0
 20 44  1  0  0  0  0
 20 45  1  0  0  0  0
 21 22  2  0  0  0  0
 21 46  1  0  0  0  0
M  END
> <s_m_source_file>
AV-unprocessed.smi

> <i_m_source_file_index>
2923

> <i_lp_mmshare_version>
43012

> <i_f3d_flags>
0

> <s_epik_input>
W0NIM11OKFtDSDNdKWMxW2NIXVtjSF1jKFtjSF1uMSlbTkhdQyg9TylbTkhdW0NASF0yQyhbQ0gzXSkoW0NIM10pW0NAQEhdKFtDQEhdMjMpT1tDSDJdW0NIMl0z

> <s_epik_cmdline>
J2VwaWtfcHl0aG9uJywgJy1waCcsICc3LjAnLCAnLXRuJywgJzgnLCAnLW1hJywgJzIwMCcsICctbWV0YWxfYmluZGluZycsICctaW1hZScsICc8aW5maWxlLm1hZT4nLCAnLW9tYWUnLCAnPG91dGZpbGUubWFlPic=

> <r_lp_tautomer_probability>
1

> <r_epik_Ionization_Penalty>
0.628785

> <r_epik_Ionization_Penalty_Charging>
0

> <r_epik_Ionization_Penalty_Neutral>
0.628785

> <r_epik_State_Penalty>
0.644286

> <r_epik_Charging_Adjusted_Penalty>
0.644286

> <i_epik_Tot_Q>
0

> <i_epik_Tot_abs_Q>
0

> <r_epik_Metal_State_Penalty>
0.308404

> <b_epik_Metal_Only>
0

> <s_lp_Force_Field>
OPLS_2005

> <r_lp_Energy>
39.1675

> <b_lp_Chiralities_Consistent>
1

> <s_lp_Variant>
AV-unprocessed.smi:2923-14

> <Gold.Version>
5.8.1

> <Gold.Id.Protein>
6NUR|6NUR_protein|mol2

> <Gold.PLP.Fitness>
46.7264

> <Gold.PLP.PLP>
-47.5823

> <Gold.PLP.part.hbond>
-1.0000

> <Gold.PLP.part.metal>
0.0000

> <Gold.PLP.part.buried>
-5.8922

> <Gold.PLP.part.nonpolar>
-39.0440

> <Gold.PLP.part.repulsive>
0.2153

> <Gold.PLP.ligand.clash>
0.0000

> <Gold.PLP.ligand.torsion>
0.5177

> <Gold.PLP.Chemscore.Hbond>
0.0000

> <Gold.PLP.Chemscore.CHOScore>
0.0000

> <Gold.PLP.Chemscore.Metal>
0.0000

> <Gold.PLP.Chemscore.Internal.Correction>
0.1795

> <Gold.Rescore>
     Score         DG    S(hbond)    S(metal)    S(lipo)     H(rot)  DE(clash)    DE(int)     intcor
     14.53     -15.89       0.00        0.00     110.87       1.00       0.16       1.21       ----

> <Gold.Chemscore.Fitness>
14.5268

> <Gold.Chemscore.DG>
-15.8924

> <Gold.Chemscore.ZeroCoef>
-5.4800

> <Gold.Chemscore.Hbond>
0.0000

> <Gold.Chemscore.Metal>
0.0000

> <Gold.Chemscore.Lipo>
110.8750

> <Gold.Chemscore.Internal_Hbond>
0.0000

> <Gold.Chemscore.DEClash>
0.1599

> <Gold.Chemscore.DEInternal>
1.2057

> <Gold.Chemscore.Rot>
1.0000

> <Gold.Chemscore.Internal.Correction>
   9.000000E+99

> <Gold.Chemscore.Hbond.Weighted>
-0.0000

> <Gold.Chemscore.Metal.Weighted>
-0.0000

> <Gold.Chemscore.Lipo.Weighted>
-12.9724

> <Gold.Chemscore.Internal_Hbond.Weighted>
0.0000

> <Gold.Chemscore.DEClash.Weighted>
0.1599

> <Gold.Chemscore.DEInternal.Weighted>
1.2057

> <Gold.Chemscore.Rot.Weighted>
2.5600

> <Gold.Chemscore.Internal.Correction.Weighted>
   9.000000E+99

> <Gold.Protein.RotatedTorsions>
[ 6907 6896 6895 6894 ] final   13.24 input  -60.11 | X-H torsion
[ 7974 7965 7964 7962 ] final -177.72 input  175.53 | X-H torsion
[ 8008 7997 7996 7995 ] final -116.55 input   59.86 | X-H torsion
[ 10167 10162 10161 10158 ] final  171.83 input  -65.29 | X-H torsion
[ 10718 10713 10712 10709 ] final   -0.32 input   66.30 | X-H torsion
[ 10763 10752 10751 10750 ] final -165.55 input  -60.55 | X-H torsion
[ 11005 11000 10999 10996 ] final  102.19 input  -57.11 | X-H torsion

> <Gold.Protein.ActiveResidues>
 VAL166  LYS551  ARG553  GLY616  TRP617  ASP618  TYR619  PRO620  LYS621  CYS622 
 ASP623  PHE694  ASN695  SER759  ASP760  ASP761  ALA762  ILE779  LEU786  VAL792 
 PHE793  MET794  SER795  GLU796  ALA797  LYS798  CYS799  TRP800  GLU811  SER814 

> <Gold.Protein.RotatedAtoms>
  151.7831  135.0756  160.0376 H   0  0  0  0  0  0  0  0  0  0  0  0  # atno 6907 bound_to 6896
  152.3209  133.5848  159.5752 H   0  0  0  0  0  0  0  0  0  0  0  0  # atno 6908 bound_to 6896
  150.7369  133.9929  159.3655 H   0  0  0  0  0  0  0  0  0  0  0  0  # atno 6909 bound_to 6896
  144.7128  140.0976  143.6418 H   0  0  0  0  0  0  0  0  0  0  0  0  # atno 7974 bound_to 7965
  155.0696  140.0393  157.2604 H   0  0  0  0  0  0  0  0  0  0  0  0  # atno 8008 bound_to 7997
  154.6993  140.2670  155.6711 H   0  0  0  0  0  0  0  0  0  0  0  0  # atno 8009 bound_to 7997
  156.2755  140.2744  156.1598 H   0  0  0  0  0  0  0  0  0  0  0  0  # atno 8010 bound_to 7997
  139.5058  144.3441  151.9988 H   0  0  0  0  0  0  0  0  0  0  0  0  # atno 10167 bound_to 10162
  156.8222  130.5460  149.5696 H   0  0  0  0  0  0  0  0  0  0  0  0  # atno 10718 bound_to 10713
  154.6920  135.2972  154.9465 H   0  0  0  0  0  0  0  0  0  0  0  0  # atno 10763 bound_to 10752
  154.0425  135.6655  153.4795 H   0  0  0  0  0  0  0  0  0  0  0  0  # atno 10764 bound_to 10752
  153.0619  135.5110  154.8018 H   0  0  0  0  0  0  0  0  0  0  0  0  # atno 10765 bound_to 10752
  139.8776  134.9214  156.5021 H   0  0  0  0  0  0  0  0  0  0  0  0  # atno 11005 bound_to 11000
  145.9566  139.2771  143.1181 LP  0  0  0  0  0  0  0  0  0  0  0  0  # atno 17320 bound_to 7965
  145.9266  140.9078  143.0378 LP  0  0  0  0  0  0  0  0  0  0  0  0  # atno 17321 bound_to 7965
  140.2879  144.3787  150.6098 LP  0  0  0  0  0  0  0  0  0  0  0  0  # atno 17342 bound_to 10162
  140.5969  143.2167  151.7147 LP  0  0  0  0  0  0  0  0  0  0  0  0  # atno 17343 bound_to 10162
  156.0982  130.5949  150.9850 LP  0  0  0  0  0  0  0  0  0  0  0  0  # atno 17370 bound_to 10713
  157.6451  131.0905  150.8170 LP  0  0  0  0  0  0  0  0  0  0  0  0  # atno 17371 bound_to 10713
  140.8582  133.8080  155.9238 LP  0  0  0  0  0  0  0  0  0  0  0  0  # atno 17394 bound_to 11000
  140.9076  134.2300  157.5005 LP  0  0  0  0  0  0  0  0  0  0  0  0  # atno 17395 bound_to 11000

$$$$
