AV-unprocessed.smi:443|AV-procd|sdf|2585|dock5
  -GOLD-   2262022573D 1   1.00000     0.00000
 Structure written by MMmdl.
 48 49  0  0  0  0  0  0  0  0  1 V2000
  146.4996  138.0633  153.4642 C   0  0  0  0  0  0  0  0  0  0  0  0
  146.9913  138.5892  154.7857 C   0  0  0  0  0  0  0  0  0  0  0  0
  147.7343  139.6456  154.7490 N   0  0  0  0  0  0  0  0  0  0  0  0
  148.2567  140.2006  155.9003 N   0  0  0  0  0  0  0  0  0  0  0  0
  149.1208  141.3655  155.6670 C   0  0  0  0  0  0  0  0  0  0  0  0
  150.6144  140.9804  155.5757 C   0  0  2  0  0  0  0  0  0  0  0  0
  150.7925  139.9283  154.6503 O   0  0  0  0  0  0  0  0  0  0  0  0
  151.2662  140.5942  156.9162 C   0  0  0  0  0  0  0  0  0  0  0  0
  151.6374  141.7685  157.6289 O   0  0  0  0  0  0  0  0  0  0  0  0
  152.3876  141.6430  158.7799 C   0  0  0  0  0  0  0  0  0  0  0  0
  153.0388  140.4363  159.1459 C   0  0  0  0  0  0  0  0  0  0  0  0
  153.8046  140.3583  160.3229 C   0  0  0  0  0  0  0  0  0  0  0  0
  153.9317  141.4830  161.1539 C   0  0  0  0  0  0  0  0  0  0  0  0
  153.2882  142.6836  160.8069 C   0  0  0  0  0  0  0  0  0  0  0  0
  152.5141  142.7761  159.6282 C   0  0  0  0  0  0  0  0  0  0  0  0
  151.8299  144.1091  159.3163 C   0  0  0  0  0  0  0  0  0  0  0  0
  152.2816  144.7136  157.9749 C   0  0  0  0  0  0  0  0  0  0  0  0
  151.9412  145.1117  160.4753 C   0  0  0  0  0  0  0  0  0  0  0  0
  148.0396  139.7234  157.1587 C   0  0  0  0  0  0  0  0  0  0  0  0
  148.5289  140.2485  158.1599 O   0  0  0  0  0  0  0  0  0  0  0  0
  147.1854  138.5340  157.1958 C   0  0  0  0  0  0  0  0  0  0  0  0
  146.9330  138.0010  158.4957 C   0  0  0  0  0  0  0  0  0  0  0  0
  146.7465  137.5761  159.5563 N   0  0  0  0  0  0  0  0  0  0  0  0
  146.6744  137.9744  156.0704 C   0  0  0  0  0  0  0  0  0  0  0  0
  145.7894  136.7355  156.0540 C   0  0  0  0  0  0  0  0  0  0  0  0
  145.4120  138.1095  153.4093 H   0  0  0  0  0  0  0  0  0  0  0  0
  146.8028  137.0258  153.3228 H   0  0  0  0  0  0  0  0  0  0  0  0
  146.8972  138.6361  152.6254 H   0  0  0  0  0  0  0  0  0  0  0  0
  148.8154  141.8806  154.7548 H   0  0  0  0  0  0  0  0  0  0  0  0
  148.9749  142.0976  156.4636 H   0  0  0  0  0  0  0  0  0  0  0  0
  151.1701  141.8259  155.1688 H   0  0  0  0  0  0  0  0  0  0  0  0
  151.3523  139.2754  155.0419 H   0  0  0  0  0  0  0  0  0  0  0  0
  150.5894  139.9764  157.5086 H   0  0  0  0  0  0  0  0  0  0  0  0
  152.1567  140.0003  156.7061 H   0  0  0  0  0  0  0  0  0  0  0  0
  152.9704  139.5476  158.5378 H   0  0  0  0  0  0  0  0  0  0  0  0
  154.2960  139.4336  160.5876 H   0  0  0  0  0  0  0  0  0  0  0  0
  154.5203  141.4255  162.0578 H   0  0  0  0  0  0  0  0  0  0  0  0
  153.3929  143.5384  161.4587 H   0  0  0  0  0  0  0  0  0  0  0  0
  150.7651  143.9017  159.2024 H   0  0  0  0  0  0  0  0  0  0  0  0
  152.1399  144.0028  157.1604 H   0  0  0  0  0  0  0  0  0  0  0  0
  153.3300  145.0087  157.9807 H   0  0  0  0  0  0  0  0  0  0  0  0
  151.6994  145.6039  157.7364 H   0  0  0  0  0  0  0  0  0  0  0  0
  151.5355  144.6914  161.3956 H   0  0  0  0  0  0  0  0  0  0  0  0
  151.3825  146.0223  160.2575 H   0  0  0  0  0  0  0  0  0  0  0  0
  152.9719  145.4018  160.6669 H   0  0  0  0  0  0  0  0  0  0  0  0
  145.5652  136.3747  157.0574 H   0  0  0  0  0  0  0  0  0  0  0  0
  146.2789  135.9239  155.5147 H   0  0  0  0  0  0  0  0  0  0  0  0
  144.8385  136.9491  155.5652 H   0  0  0  0  0  0  0  0  0  0  0  0
  1  2  1  0  0  0  0
  1 26  1  0  0  0  0
  1 27  1  0  0  0  0
  1 28  1  0  0  0  0
  2 24  1  0  0  0  0
  2  3  2  0  0  0  0
  3  4  1  0  0  0  0
  4  5  1  0  0  0  0
  4 19  1  0  0  0  0
  5  6  1  0  0  0  0
  5 29  1  0  0  0  0
  5 30  1  0  0  0  0
  6  7  1  0  0  0  0
  6  8  1  0  0  0  0
  6 31  1  0  0  0  0
  7 32  1  0  0  0  0
  8  9  1  0  0  0  0
  8 33  1  0  0  0  0
  8 34  1  0  0  0  0
  9 10  1  0  0  0  0
 10 15  1  0  0  0  0
 10 11  2  0  0  0  0
 11 12  1  0  0  0  0
 11 35  1  0  0  0  0
 12 13  2  0  0  0  0
 12 36  1  0  0  0  0
 13 14  1  0  0  0  0
 13 37  1  0  0  0  0
 14 15  2  0  0  0  0
 14 38  1  0  0  0  0
 15 16  1  0  0  0  0
 16 17  1  0  0  0  0
 16 18  1  0  0  0  0
 16 39  1  0  0  0  0
 17 40  1  0  0  0  0
 17 41  1  0  0  0  0
 17 42  1  0  0  0  0
 18 43  1  0  0  0  0
 18 44  1  0  0  0  0
 18 45  1  0  0  0  0
 19 20  2  0  0  0  0
 19 21  1  0  0  0  0
 21 22  1  0  0  0  0
 21 24  2  0  0  0  0
 22 23  3  0  0  0  0
 24 25  1  0  0  0  0
 25 46  1  0  0  0  0
 25 47  1  0  0  0  0
 25 48  1  0  0  0  0
M  END
> <s_m_source_file>
AV-unprocessed.smi

> <i_m_source_file_index>
443

> <i_lp_mmshare_version>
43012

> <i_f3d_flags>
0

> <s_epik_input>
TiNDYyhjMVtDSDNdKWMoPU8pbihuYzFbQ0gzXSlbQ0gyXVtDQEhdKFtPSF0pW0NIMl1PYzJbY0hdW2NIXVtjSF1bY0hdYzJbQ0hdKFtDSDNdKVtDSDNd

> <s_epik_cmdline>
J2VwaWtfcHl0aG9uJywgJy1waCcsICc3LjAnLCAnLXRuJywgJzgnLCAnLW1hJywgJzIwMCcsICctbWV0YWxfYmluZGluZycsICctaW1hZScsICc8aW5maWxlLm1hZT4nLCAnLW9tYWUnLCAnPG91dGZpbGUubWFlPic=

> <r_lp_tautomer_probability>
1

> <r_epik_Ionization_Penalty>
1.17331e-07

> <r_epik_Ionization_Penalty_Charging>
1.57223e-10

> <r_epik_Ionization_Penalty_Neutral>
1.17174e-07

> <r_epik_State_Penalty>
-0

> <r_epik_Charging_Adjusted_Penalty>
1.57223e-10

> <i_epik_Tot_Q>
0

> <i_epik_Tot_abs_Q>
0

> <r_epik_Metal_State_Penalty>
-0

> <b_epik_Metal_Only>
0

> <s_lp_Force_Field>
OPLS_2005

> <r_lp_Energy>
30.066

> <b_lp_Chiralities_Consistent>
1

> <s_lp_Variant>
AV-unprocessed.smi:443-1

> <Gold.Version>
5.8.1

> <Gold.Id.Protein>
6NUR|6NUR_protein|mol2

> <Gold.PLP.Fitness>
46.5101

> <Gold.PLP.PLP>
-43.4362

> <Gold.PLP.part.hbond>
-2.8321

> <Gold.PLP.part.metal>
0.0000

> <Gold.PLP.part.buried>
-4.9882

> <Gold.PLP.part.nonpolar>
-35.6990

> <Gold.PLP.part.repulsive>
0.1125

> <Gold.PLP.ligand.clash>
0.0000

> <Gold.PLP.ligand.torsion>
0.9024

> <Gold.PLP.Chemscore.Hbond>
1.5820

> <Gold.PLP.Chemscore.CHOScore>
0.0000

> <Gold.PLP.Chemscore.Metal>
0.0000

> <Gold.Chemscore.Hbonds>
donor molecule, donor type, donor heavy atom, donor atom, acceptor molecule, acceptor atom, score
      P1  H  6934  6947       L1    23  0.93
      P1  H  7989  7998       L1     7  0.80

> <Gold.PLP.Chemscore.Internal.Correction>
0.1327

> <Gold.Rescore>
     Score         DG    S(hbond)    S(metal)    S(lipo)     H(rot)  DE(clash)    DE(int)     intcor
     15.30     -17.38       1.04        0.00     124.84       2.41       0.20       1.88       ----

> <Gold.Chemscore.Fitness>
15.3042

> <Gold.Chemscore.DG>
-17.3789

> <Gold.Chemscore.ZeroCoef>
-5.4800

> <Gold.Chemscore.Hbond>
1.0353

> <Gold.Chemscore.Metal>
0.0000

> <Gold.Chemscore.Lipo>
124.8402

> <Gold.Chemscore.Internal_Hbond>
0.0000

> <Gold.Chemscore.DEClash>
0.1994

> <Gold.Chemscore.DEInternal>
1.8753

> <Gold.Chemscore.Rot>
2.4084

> <Gold.Chemscore.Internal.Correction>
   9.000000E+99

> <Gold.Chemscore.Hbonds>
donor molecule, donor type, donor heavy atom, donor atom, acceptor molecule, acceptor atom, score
      P1  H  6934  6947       L1    23  0.55
      P1  H  7989  7998       L1     7  0.10

> <Gold.Chemscore.Hbond.Weighted>
-3.4581

> <Gold.Chemscore.Metal.Weighted>
-0.0000

> <Gold.Chemscore.Lipo.Weighted>
-14.6063

> <Gold.Chemscore.Internal_Hbond.Weighted>
0.0000

> <Gold.Chemscore.DEClash.Weighted>
0.1994

> <Gold.Chemscore.DEInternal.Weighted>
1.8753

> <Gold.Chemscore.Rot.Weighted>
6.1655

> <Gold.Chemscore.Internal.Correction.Weighted>
   9.000000E+99

> <Gold.Protein.RotatedTorsions>
[ 6907 6896 6895 6894 ] final  157.85 input  -60.11 | X-H torsion
[ 7974 7965 7964 7962 ] final -132.67 input  175.53 | X-H torsion
[ 8008 7997 7996 7995 ] final  119.99 input   59.86 | X-H torsion
[ 10167 10162 10161 10158 ] final -137.15 input  -65.29 | X-H torsion
[ 10718 10713 10712 10709 ] final  155.63 input   66.30 | X-H torsion
[ 10763 10752 10751 10750 ] final  126.14 input  -60.55 | X-H torsion
[ 11005 11000 10999 10996 ] final   69.01 input  -57.11 | X-H torsion

> <Gold.Protein.ActiveResidues>
 VAL166  LYS551  ARG553  GLY616  TRP617  ASP618  TYR619  PRO620  LYS621  CYS622 
 ASP623  PHE694  ASN695  SER759  ASP760  ASP761  ALA762  ILE779  LEU786  VAL792 
 PHE793  MET794  SER795  GLU796  ALA797  LYS798  CYS799  TRP800  GLU811  SER814 

> <Gold.Protein.RotatedAtoms>
  152.0090  133.3854  159.4211 H   0  0  0  0  0  0  0  0  0  0  0  0  # atno 6907 bound_to 6896
  150.6901  134.3751  159.5018 H   0  0  0  0  0  0  0  0  0  0  0  0  # atno 6908 bound_to 6896
  152.1509  134.8989  160.0599 H   0  0  0  0  0  0  0  0  0  0  0  0  # atno 6909 bound_to 6896
  144.9264  140.7076  143.4933 H   0  0  0  0  0  0  0  0  0  0  0  0  # atno 7974 bound_to 7965
  156.2622  140.2841  156.1079 H   0  0  0  0  0  0  0  0  0  0  0  0  # atno 8008 bound_to 7997
  155.1289  140.0393  157.2787 H   0  0  0  0  0  0  0  0  0  0  0  0  # atno 8009 bound_to 7997
  154.6614  140.2567  155.7111 H   0  0  0  0  0  0  0  0  0  0  0  0  # atno 8010 bound_to 7997
  139.8606  143.7082  152.2650 H   0  0  0  0  0  0  0  0  0  0  0  0  # atno 10167 bound_to 10162
  157.2158  131.0707  151.1942 H   0  0  0  0  0  0  0  0  0  0  0  0  # atno 10718 bound_to 10713
  153.6885  135.3302  155.3196 H   0  0  0  0  0  0  0  0  0  0  0  0  # atno 10763 bound_to 10752
  154.8446  135.4426  154.1532 H   0  0  0  0  0  0  0  0  0  0  0  0  # atno 10764 bound_to 10752
  153.2568  135.6987  153.7698 H   0  0  0  0  0  0  0  0  0  0  0  0  # atno 10765 bound_to 10752
  139.9678  134.6951  156.0509 H   0  0  0  0  0  0  0  0  0  0  0  0  # atno 11005 bound_to 11000
  145.3212  139.1788  143.4586 LP  0  0  0  0  0  0  0  0  0  0  0  0  # atno 17320 bound_to 7965
  146.3228  140.3230  142.8634 LP  0  0  0  0  0  0  0  0  0  0  0  0  # atno 17321 bound_to 7965
  139.7377  144.7567  151.0701 LP  0  0  0  0  0  0  0  0  0  0  0  0  # atno 17342 bound_to 10162
  140.7775  143.5010  150.9771 LP  0  0  0  0  0  0  0  0  0  0  0  0  # atno 17343 bound_to 10162
  157.3626  130.7139  149.6512 LP  0  0  0  0  0  0  0  0  0  0  0  0  # atno 17370 bound_to 10713
  155.9686  130.4221  150.4501 LP  0  0  0  0  0  0  0  0  0  0  0  0  # atno 17371 bound_to 10713
  141.1358  133.6575  156.3589 LP  0  0  0  0  0  0  0  0  0  0  0  0  # atno 17394 bound_to 11000
  140.5359  134.6168  157.5364 LP  0  0  0  0  0  0  0  0  0  0  0  0  # atno 17395 bound_to 11000

$$$$
