AV-unprocessed.smi:519|AV-procd|sdf|2795|dock7
  -GOLD-   2262023273D 1   1.00000     0.00000
 Structure written by MMmdl.
 36 38  0  0  0  0  0  0  0  0  1 V2000
  151.5664  136.5970  154.1173 O   0  0  0  0  0  0  0  0  0  0  0  0
  151.6201  137.7828  154.8849 C   0  0  0  0  0  0  0  0  0  0  0  0
  150.4748  138.7232  154.6377 C   0  0  0  0  0  0  0  0  0  0  0  0
  149.4609  138.4381  153.8171 N   0  0  0  0  0  0  0  0  0  0  0  0
  148.6658  139.5633  153.9099 C   0  0  0  0  0  0  0  0  0  0  0  0
  147.4433  139.8788  153.2750 C   0  0  0  0  0  0  0  0  0  0  0  0
  146.8044  141.1101  153.5288 C   0  0  0  0  0  0  0  0  0  0  0  0
  147.3762  142.0403  154.4207 C   0  0  0  0  0  0  0  0  0  0  0  0
  148.5928  141.7447  155.0648 C   0  0  0  0  0  0  0  0  0  0  0  0
  149.2281  140.5157  154.8055 C   0  0  0  0  0  0  0  0  0  0  0  0
  150.4079  139.9298  155.2542 N   0  0  0  0  0  0  0  0  0  0  0  0
  151.3592  140.5149  156.1883 C   0  0  0  0  0  0  0  0  0  0  0  0
  150.8266  140.5211  157.6288 C   0  0  0  0  0  0  0  0  0  0  0  0
  151.8317  141.0196  158.5022 O   0  0  0  0  0  0  0  0  0  0  0  0
  151.7268  142.3174  158.9569 C   0  0  0  0  0  0  0  0  0  0  0  0
  151.1091  143.3635  158.2247 C   0  0  0  0  0  0  0  0  0  0  0  0
  151.0430  144.6662  158.7559 C   0  0  0  0  0  0  0  0  0  0  0  0
  151.5925  144.9423  160.0208 C   0  0  0  0  0  0  0  0  0  0  0  0
  152.2068  143.9122  160.7560 C   0  0  0  0  0  0  0  0  0  0  0  0
  152.2722  142.6075  160.2282 C   0  0  0  0  0  0  0  0  0  0  0  0
  153.0284  141.3613  161.1552 Cl  0  0  0  0  0  0  0  0  0  0  0  0
  151.4562  136.8313  153.2089 H   0  0  0  0  0  0  0  0  0  0  0  0
  151.6337  137.5114  155.9408 H   0  0  0  0  0  0  0  0  0  0  0  0
  152.5589  138.2910  154.6646 H   0  0  0  0  0  0  0  0  0  0  0  0
  146.9973  139.1725  152.5904 H   0  0  0  0  0  0  0  0  0  0  0  0
  145.8715  141.3421  153.0363 H   0  0  0  0  0  0  0  0  0  0  0  0
  146.8821  142.9824  154.6082 H   0  0  0  0  0  0  0  0  0  0  0  0
  149.0360  142.4577  155.7440 H   0  0  0  0  0  0  0  0  0  0  0  0
  152.2882  139.9459  156.1379 H   0  0  0  0  0  0  0  0  0  0  0  0
  151.6057  141.5273  155.8687 H   0  0  0  0  0  0  0  0  0  0  0  0
  149.9369  141.1498  157.6825 H   0  0  0  0  0  0  0  0  0  0  0  0
  150.5428  139.5089  157.9209 H   0  0  0  0  0  0  0  0  0  0  0  0
  150.6775  143.1935  157.2503 H   0  0  0  0  0  0  0  0  0  0  0  0
  150.5698  145.4552  158.1899 H   0  0  0  0  0  0  0  0  0  0  0  0
  151.5426  145.9420  160.4268 H   0  0  0  0  0  0  0  0  0  0  0  0
  152.6286  144.1239  161.7275 H   0  0  0  0  0  0  0  0  0  0  0  0
  1  2  1  0  0  0  0
  1 22  1  0  0  0  0
  2  3  1  0  0  0  0
  2 23  1  0  0  0  0
  2 24  1  0  0  0  0
  3 11  1  0  0  0  0
  3  4  2  0  0  0  0
  4  5  1  0  0  0  0
  5 10  2  0  0  0  0
  5  6  1  0  0  0  0
  6  7  2  0  0  0  0
  6 25  1  0  0  0  0
  7  8  1  0  0  0  0
  7 26  1  0  0  0  0
  8  9  2  0  0  0  0
  8 27  1  0  0  0  0
  9 10  1  0  0  0  0
  9 28  1  0  0  0  0
 10 11  1  0  0  0  0
 11 12  1  0  0  0  0
 12 13  1  0  0  0  0
 12 29  1  0  0  0  0
 12 30  1  0  0  0  0
 13 14  1  0  0  0  0
 13 31  1  0  0  0  0
 13 32  1  0  0  0  0
 14 15  1  0  0  0  0
 15 20  1  0  0  0  0
 15 16  2  0  0  0  0
 16 17  1  0  0  0  0
 16 33  1  0  0  0  0
 17 18  2  0  0  0  0
 17 34  1  0  0  0  0
 18 19  1  0  0  0  0
 18 35  1  0  0  0  0
 19 20  2  0  0  0  0
 19 36  1  0  0  0  0
 20 21  1  0  0  0  0
M  END
> <s_m_source_file>
AV-unprocessed.smi

> <i_m_source_file_index>
519

> <i_lp_mmshare_version>
43012

> <i_f3d_flags>
0

> <s_epik_input>
W2NIXTFbY0hdW2NIXVtjSF1jKGMxMiluKGMobjIpW0NIMl1bT0hdKVtDSDJdW0NIMl1PYzNbY0hdW2NIXVtjSF1bY0hdYzNDbA==

> <s_epik_cmdline>
J2VwaWtfcHl0aG9uJywgJy1waCcsICc3LjAnLCAnLXRuJywgJzgnLCAnLW1hJywgJzIwMCcsICctbWV0YWxfYmluZGluZycsICctaW1hZScsICc8aW5maWxlLm1hZT4nLCAnLW9tYWUnLCAnPG91dGZpbGUubWFlPic=

> <r_lp_tautomer_probability>
1

> <r_epik_Ionization_Penalty>
0.045213

> <r_epik_Ionization_Penalty_Charging>
0

> <r_epik_Ionization_Penalty_Neutral>
0.045213

> <r_epik_State_Penalty>
0.0382996

> <r_epik_Charging_Adjusted_Penalty>
0.0382996

> <i_epik_Tot_Q>
0

> <i_epik_Tot_abs_Q>
0

> <r_epik_Metal_State_Penalty>
3.95633e-05

> <b_epik_Metal_Only>
0

> <s_lp_Force_Field>
OPLS_2005

> <r_lp_Energy>
15.9183

> <b_lp_Chiralities_Consistent>
1

> <s_lp_Variant>
AV-unprocessed.smi:519-1

> <Gold.Version>
5.8.1

> <Gold.Id.Protein>
6NUR|6NUR_protein|mol2

> <Gold.PLP.Fitness>
54.8888

> <Gold.PLP.PLP>
-50.6005

> <Gold.PLP.part.hbond>
-2.0000

> <Gold.PLP.part.metal>
0.0000

> <Gold.PLP.part.buried>
-2.4524

> <Gold.PLP.part.nonpolar>
-48.0486

> <Gold.PLP.part.repulsive>
1.2190

> <Gold.PLP.ligand.clash>
0.0000

> <Gold.PLP.ligand.torsion>
0.8373

> <Gold.PLP.Chemscore.Hbond>
1.9760

> <Gold.PLP.Chemscore.CHOScore>
0.0000

> <Gold.PLP.Chemscore.Metal>
0.0000

> <Gold.Chemscore.Hbonds>
donor molecule, donor type, donor heavy atom, donor atom, acceptor molecule, acceptor atom, score
      L1  H     1    22       P1  7949  0.80
      P1  H 10752 10765       L1     1  1.00

> <Gold.PLP.Chemscore.Internal.Correction>
0.0349

> <Gold.Rescore>
     Score         DG    S(hbond)    S(metal)    S(lipo)     H(rot)  DE(clash)    DE(int)     intcor
     19.77     -21.15       1.61        0.00     135.70       2.17       0.35       1.03       ----

> <Gold.Chemscore.Fitness>
19.7663

> <Gold.Chemscore.DG>
-21.1539

> <Gold.Chemscore.ZeroCoef>
-5.4800

> <Gold.Chemscore.Hbond>
1.6052

> <Gold.Chemscore.Metal>
0.0000

> <Gold.Chemscore.Lipo>
135.6989

> <Gold.Chemscore.Internal_Hbond>
0.0000

> <Gold.Chemscore.DEClash>
0.3545

> <Gold.Chemscore.DEInternal>
1.0330

> <Gold.Chemscore.Rot>
2.1735

> <Gold.Chemscore.Internal.Correction>
   9.000000E+99

> <Gold.Chemscore.Hbonds>
donor molecule, donor type, donor heavy atom, donor atom, acceptor molecule, acceptor atom, score
      L1  H     1    22       P1  7949  0.67
      P1  H 10752 10765       L1     1  0.67

> <Gold.Chemscore.Hbond.Weighted>
-5.3613

> <Gold.Chemscore.Metal.Weighted>
-0.0000

> <Gold.Chemscore.Lipo.Weighted>
-15.8768

> <Gold.Chemscore.Internal_Hbond.Weighted>
0.0000

> <Gold.Chemscore.DEClash.Weighted>
0.3545

> <Gold.Chemscore.DEInternal.Weighted>
1.0330

> <Gold.Chemscore.Rot.Weighted>
5.5642

> <Gold.Chemscore.Internal.Correction.Weighted>
   9.000000E+99

> <Gold.Protein.RotatedTorsions>
[ 6907 6896 6895 6894 ] final  179.53 input  -60.11 | X-H torsion
[ 7974 7965 7964 7962 ] final   -4.38 input  175.53 | X-H torsion
[ 8008 7997 7996 7995 ] final  -11.60 input   59.86 | X-H torsion
[ 10167 10162 10161 10158 ] final  -39.82 input  -65.29 | X-H torsion
[ 10718 10713 10712 10709 ] final  -16.06 input   66.30 | X-H torsion
[ 10763 10752 10751 10750 ] final  173.46 input  -60.55 | X-H torsion
[ 11005 11000 10999 10996 ] final   48.01 input  -57.11 | X-H torsion

> <Gold.Protein.ActiveResidues>
 VAL166  LYS551  ARG553  GLY616  TRP617  ASP618  TYR619  PRO620  LYS621  CYS622 
 ASP623  PHE694  ASN695  SER759  ASP760  ASP761  ALA762  ILE779  LEU786  VAL792 
 PHE793  MET794  SER795  GLU796  ALA797  LYS798  CYS799  TRP800  GLU811  SER814 

> <Gold.Protein.RotatedAtoms>
  151.6701  133.3314  159.3194 H   0  0  0  0  0  0  0  0  0  0  0  0  # atno 6907 bound_to 6896
  150.7872  134.6870  159.6485 H   0  0  0  0  0  0  0  0  0  0  0  0  # atno 6908 bound_to 6896
  152.3944  134.6393  160.0147 H   0  0  0  0  0  0  0  0  0  0  0  0  # atno 6909 bound_to 6896
  146.2373  140.1862  142.8332 H   0  0  0  0  0  0  0  0  0  0  0  0  # atno 7974 bound_to 7965
  154.5450  140.2298  155.8577 H   0  0  0  0  0  0  0  0  0  0  0  0  # atno 8008 bound_to 7997
  156.1895  140.3081  155.9265 H   0  0  0  0  0  0  0  0  0  0  0  0  # atno 8009 bound_to 7997
  155.3182  140.0439  157.3028 H   0  0  0  0  0  0  0  0  0  0  0  0  # atno 8010 bound_to 7997
  140.7053  143.3190  151.2837 H   0  0  0  0  0  0  0  0  0  0  0  0  # atno 10167 bound_to 10162
  156.5930  130.4804  149.6271 H   0  0  0  0  0  0  0  0  0  0  0  0  # atno 10718 bound_to 10713
  154.4404  135.2762  155.1851 H   0  0  0  0  0  0  0  0  0  0  0  0  # atno 10763 bound_to 10752
  154.3720  135.6106  153.5748 H   0  0  0  0  0  0  0  0  0  0  0  0  # atno 10764 bound_to 10752
  152.9840  135.5859  154.4731 H   0  0  0  0  0  0  0  0  0  0  0  0  # atno 10765 bound_to 10752
  140.1228  134.4807  155.8583 H   0  0  0  0  0  0  0  0  0  0  0  0  # atno 11005 bound_to 11000
  144.9894  140.8533  143.5348 LP  0  0  0  0  0  0  0  0  0  0  0  0  # atno 17320 bound_to 7965
  145.1866  139.2323  143.5264 LP  0  0  0  0  0  0  0  0  0  0  0  0  # atno 17321 bound_to 7965
  139.6639  144.0141  152.2710 LP  0  0  0  0  0  0  0  0  0  0  0  0  # atno 17342 bound_to 10162
  139.9717  144.6489  150.7983 LP  0  0  0  0  0  0  0  0  0  0  0  0  # atno 17343 bound_to 10162
  156.2534  130.6920  151.1665 LP  0  0  0  0  0  0  0  0  0  0  0  0  # atno 17370 bound_to 10713
  157.7299  131.0621  150.5753 LP  0  0  0  0  0  0  0  0  0  0  0  0  # atno 17371 bound_to 10713
  141.2155  133.6767  156.6922 LP  0  0  0  0  0  0  0  0  0  0  0  0  # atno 17394 bound_to 11000
  140.2942  134.8216  157.4043 LP  0  0  0  0  0  0  0  0  0  0  0  0  # atno 17395 bound_to 11000

$$$$
