AV-unprocessed.smi:1518|AV-procd|sdf|6126|dock8
  -GOLD-   22720 6263D 1   1.00000     0.00000
 Structure written by MMmdl.
 46 48  0  0  0  0  0  0  0  0  2 V2000
  147.6803  131.1585  161.3048 C   0  0  0  0  0  0  0  0  0  0  0  0
  147.8838  132.3396  160.3571 C   0  0  0  0  0  0  0  0  0  0  0  0
  148.2156  132.1114  159.1942 O   0  0  0  0  0  0  0  0  0  0  0  0
  147.6678  133.7134  160.8959 C   0  0  0  0  0  0  0  0  0  0  0  0
  147.0004  133.8727  162.1313 C   0  0  0  0  0  0  0  0  0  0  0  0
  146.7808  135.1562  162.6626 C   0  0  0  0  0  0  0  0  0  0  0  0
  147.2276  136.2929  161.9658 C   0  0  0  0  0  0  0  0  0  0  0  0
  147.8979  136.1631  160.7338 C   0  0  0  0  0  0  0  0  0  0  0  0
  148.3037  137.3298  160.1222 O   0  0  0  0  0  0  0  0  0  0  0  0
  149.1302  137.2389  158.9691 C   0  0  0  0  0  0  0  0  0  0  0  0
  148.8500  138.4470  158.0641 C   0  0  2  0  0  0  0  0  0  0  0  0
  147.6897  138.1802  157.3020 O   0  0  0  0  0  0  0  0  0  0  0  0
  150.0358  138.7703  157.1328 C   0  0  0  0  0  0  0  0  0  0  0  0
  150.2610  140.2161  156.9771 N   0  0  0  0  0  0  0  0  0  0  0  0
  149.8164  141.0699  156.0104 C   0  0  0  0  0  0  0  0  0  0  0  0
  148.9585  140.7272  154.8372 C   0  0  0  0  0  0  0  0  0  0  0  0
  149.5913  141.0117  153.6095 O   0  0  0  0  0  0  0  0  0  0  0  0
  150.2906  142.3100  156.3171 N   0  3  0  0  0  0  0  0  0  0  0  0
  151.0473  142.2503  157.4879 C   0  0  0  0  0  0  0  0  0  0  0  0
  151.7257  143.2457  158.1846 C   0  0  0  0  0  0  0  0  0  0  0  0
  152.4067  142.8483  159.3536 C   0  0  0  0  0  0  0  0  0  0  0  0
  152.3966  141.5070  159.7885 C   0  0  0  0  0  0  0  0  0  0  0  0
  151.7050  140.5066  159.0740 C   0  0  0  0  0  0  0  0  0  0  0  0
  151.0330  140.9076  157.9190 C   0  0  0  0  0  0  0  0  0  0  0  0
  148.1131  134.8655  160.2030 C   0  0  0  0  0  0  0  0  0  0  0  0
  146.6598  131.1461  161.6881 H   0  0  0  0  0  0  0  0  0  0  0  0
  148.3713  131.2198  162.1457 H   0  0  0  0  0  0  0  0  0  0  0  0
  147.8601  130.2172  160.7850 H   0  0  0  0  0  0  0  0  0  0  0  0
  146.6492  133.0132  162.6843 H   0  0  0  0  0  0  0  0  0  0  0  0
  146.2687  135.2689  163.6068 H   0  0  0  0  0  0  0  0  0  0  0  0
  147.0549  137.2746  162.3820 H   0  0  0  0  0  0  0  0  0  0  0  0
  150.1855  137.2177  159.2471 H   0  0  0  0  0  0  0  0  0  0  0  0
  148.9007  136.3160  158.4331 H   0  0  0  0  0  0  0  0  0  0  0  0
  148.6318  139.3123  158.6909 H   0  0  0  0  0  0  0  0  0  0  0  0
  147.0122  137.8714  157.8834 H   0  0  0  0  0  0  0  0  0  0  0  0
  150.9549  138.3478  157.5405 H   0  0  0  0  0  0  0  0  0  0  0  0
  149.9067  138.3139  156.1514 H   0  0  0  0  0  0  0  0  0  0  0  0
  148.7051  139.6673  154.8695 H   0  0  0  0  0  0  0  0  0  0  0  0
  148.0217  141.2815  154.8925 H   0  0  0  0  0  0  0  0  0  0  0  0
  149.5718  140.2332  153.0735 H   0  0  0  0  0  0  0  0  0  0  0  0
  151.7356  144.2737  157.8529 H   0  0  0  0  0  0  0  0  0  0  0  0
  152.9483  143.5865  159.9273 H   0  0  0  0  0  0  0  0  0  0  0  0
  152.9310  141.2392  160.6885 H   0  0  0  0  0  0  0  0  0  0  0  0
  151.7083  139.4830  159.4167 H   0  0  0  0  0  0  0  0  0  0  0  0
  148.6214  134.7505  159.2591 H   0  0  0  0  0  0  0  0  0  0  0  0
  150.1041  143.1370  155.7648 H   0  0  0  0  0  0  0  0  0  0  0  0
  1  2  1  0  0  0  0
  1 26  1  0  0  0  0
  1 27  1  0  0  0  0
  1 28  1  0  0  0  0
  2  3  2  0  0  0  0
  2  4  1  0  0  0  0
  4 25  1  0  0  0  0
  4  5  2  0  0  0  0
  5  6  1  0  0  0  0
  5 29  1  0  0  0  0
  6  7  2  0  0  0  0
  6 30  1  0  0  0  0
  7  8  1  0  0  0  0
  7 31  1  0  0  0  0
  8  9  1  0  0  0  0
  8 25  2  0  0  0  0
  9 10  1  0  0  0  0
 10 11  1  0  0  0  0
 10 32  1  0  0  0  0
 10 33  1  0  0  0  0
 11 12  1  0  0  0  0
 11 13  1  0  0  0  0
 11 34  1  0  0  0  0
 12 35  1  0  0  0  0
 13 14  1  0  0  0  0
 13 36  1  0  0  0  0
 13 37  1  0  0  0  0
 14 24  1  0  0  0  0
 14 15  1  0  0  0  0
 15 16  1  0  0  0  0
 15 18  2  0  0  0  0
 16 17  1  0  0  0  0
 16 38  1  0  0  0  0
 16 39  1  0  0  0  0
 17 40  1  0  0  0  0
 18 19  1  0  0  0  0
 18 46  1  0  0  0  0
 19 24  2  0  0  0  0
 19 20  1  0  0  0  0
 20 21  2  0  0  0  0
 20 41  1  0  0  0  0
 21 22  1  0  0  0  0
 21 42  1  0  0  0  0
 22 23  2  0  0  0  0
 22 43  1  0  0  0  0
 23 24  1  0  0  0  0
 23 44  1  0  0  0  0
 25 45  1  0  0  0  0
M  CHG  1  18   1
M  END
> <s_m_source_file>
AV-unprocessed.smi

> <i_m_source_file_index>
1518

> <i_lp_mmshare_version>
43012

> <i_f3d_flags>
0

> <s_epik_input>
W0NIM11DKD1PKWMxW2NIXVtjSF1bY0hdYyhbY0hdMSlPW0NIMl1bQ0BIXShbT0hdKVtDSDJdbihjKG4yKVtDSDJdW09IXSljKGMyMylbY0hdW2NIXVtjSF1bY0hdMw==

> <s_epik_cmdline>
J2VwaWtfcHl0aG9uJywgJy1waCcsICc3LjAnLCAnLXRuJywgJzgnLCAnLW1hJywgJzIwMCcsICctbWV0YWxfYmluZGluZycsICctaW1hZScsICc8aW5maWxlLm1hZT4nLCAnLW9tYWUnLCAnPG91dGZpbGUubWFlPic=

> <r_lp_tautomer_probability>
0.99995

> <r_epik_Ionization_Penalty>
1.40416

> <r_epik_Ionization_Penalty_Charging>
1.4033

> <r_epik_Ionization_Penalty_Neutral>
0.000858184

> <r_epik_State_Penalty>
1.48564

> <r_epik_Charging_Adjusted_Penalty>
2.88894

> <i_epik_Tot_Q>
1

> <i_epik_Tot_abs_Q>
1

> <r_epik_Metal_State_Penalty>
5.52809

> <b_epik_Metal_Only>
0

> <s_lp_Force_Field>
OPLS_2005

> <r_lp_Energy>
23.9778

> <b_lp_Chiralities_Consistent>
1

> <s_lp_Variant>
AV-unprocessed.smi:1518-3

> <Gold.Version>
5.8.1

> <Gold.Id.Protein>
6NUR|6NUR_protein|mol2

> <Gold.PLP.Fitness>
60.9463

> <Gold.PLP.PLP>
-50.6589

> <Gold.PLP.part.hbond>
-6.0000

> <Gold.PLP.part.metal>
0.0000

> <Gold.PLP.part.buried>
-6.1850

> <Gold.PLP.part.nonpolar>
-39.7392

> <Gold.PLP.part.repulsive>
0.0812

> <Gold.PLP.ligand.clash>
0.0000

> <Gold.PLP.ligand.torsion>
1.4624

> <Gold.PLP.Chemscore.Hbond>
4.3592

> <Gold.PLP.Chemscore.CHOScore>
0.0000

> <Gold.PLP.Chemscore.Metal>
0.0000

> <Gold.Chemscore.Hbonds>
donor molecule, donor type, donor heavy atom, donor atom, acceptor molecule, acceptor atom, score
      L1  H    17    40       P1  7957  0.61
      L1  H    18    46       P1  8028  1.70
      P1  H  6931  6943       L1     9  0.35
      P1  H  6934  6947       L1     9  0.37
      P1  H  7989  7998       L1    17  0.09
      P1  H  8011  8017       L1    17  1.00

> <Gold.PLP.Chemscore.Internal.Correction>
0.1346

> <Gold.Rescore>
     Score         DG    S(hbond)    S(metal)    S(lipo)     H(rot)  DE(clash)    DE(int)     intcor
     17.18     -18.51       2.47        0.00     114.02       3.34       0.01       1.31       ----

> <Gold.Chemscore.Fitness>
17.1815

> <Gold.Chemscore.DG>
-18.5111

> <Gold.Chemscore.ZeroCoef>
-5.4800

> <Gold.Chemscore.Hbond>
2.4665

> <Gold.Chemscore.Metal>
0.0000

> <Gold.Chemscore.Lipo>
114.0192

> <Gold.Chemscore.Internal_Hbond>
0.0000

> <Gold.Chemscore.DEClash>
0.0149

> <Gold.Chemscore.DEInternal>
1.3147

> <Gold.Chemscore.Rot>
3.3387

> <Gold.Chemscore.Internal.Correction>
   9.000000E+99

> <Gold.Chemscore.Hbonds>
donor molecule, donor type, donor heavy atom, donor atom, acceptor molecule, acceptor atom, score
      L1  H    17    40       P1  7957  0.60
      L1  H    18    46       P1  8028  0.82
      P1  H  6931  6943       L1     9  0.05
      P1  H  6934  6947       L1     9  0.29
      P1  H  8011  8017       L1    17  0.38

> <Gold.Chemscore.Hbond.Weighted>
-8.2380

> <Gold.Chemscore.Metal.Weighted>
-0.0000

> <Gold.Chemscore.Lipo.Weighted>
-13.3402

> <Gold.Chemscore.Internal_Hbond.Weighted>
0.0000

> <Gold.Chemscore.DEClash.Weighted>
0.0149

> <Gold.Chemscore.DEInternal.Weighted>
1.3147

> <Gold.Chemscore.Rot.Weighted>
8.5471

> <Gold.Chemscore.Internal.Correction.Weighted>
   9.000000E+99

> <Gold.Protein.RotatedTorsions>
[ 6907 6896 6895 6894 ] final  -22.73 input  -60.11 | X-H torsion
[ 7974 7965 7964 7962 ] final   23.63 input  175.53 | X-H torsion
[ 8008 7997 7996 7995 ] final  -38.47 input   59.86 | X-H torsion
[ 10167 10162 10161 10158 ] final -179.37 input  -65.29 | X-H torsion
[ 10718 10713 10712 10709 ] final  -35.81 input   66.30 | X-H torsion
[ 10763 10752 10751 10750 ] final   13.73 input  -60.55 | X-H torsion
[ 11005 11000 10999 10996 ] final  -65.24 input  -57.11 | X-H torsion

> <Gold.Protein.ActiveResidues>
 VAL166  LYS551  ARG553  GLY616  TRP617  ASP618  TYR619  PRO620  LYS621  CYS622 
 ASP623  PHE694  ASN695  SER759  ASP760  ASP761  ALA762  ILE779  LEU786  VAL792 
 PHE793  MET794  SER795  GLU796  ALA797  LYS798  CYS799  TRP800  GLU811  SER814 

> <Gold.Protein.RotatedAtoms>
  151.2144  135.0494  159.8923 H   0  0  0  0  0  0  0  0  0  0  0  0  # atno 6907 bound_to 6896
  152.5421  134.0710  159.8204 H   0  0  0  0  0  0  0  0  0  0  0  0  # atno 6908 bound_to 6896
  151.0867  133.5299  159.2649 H   0  0  0  0  0  0  0  0  0  0  0  0  # atno 6909 bound_to 6896
  146.1975  139.7717  142.8786 H   0  0  0  0  0  0  0  0  0  0  0  0  # atno 7974 bound_to 7965
  154.4036  140.1577  156.2706 H   0  0  0  0  0  0  0  0  0  0  0  0  # atno 8008 bound_to 7997
  155.8957  140.3436  155.5967 H   0  0  0  0  0  0  0  0  0  0  0  0  # atno 8009 bound_to 7997
  155.7507  140.0804  157.2193 H   0  0  0  0  0  0  0  0  0  0  0  0  # atno 8010 bound_to 7997
  139.5389  144.2418  152.0854 H   0  0  0  0  0  0  0  0  0  0  0  0  # atno 10167 bound_to 10162
  156.3342  130.4284  149.7845 H   0  0  0  0  0  0  0  0  0  0  0  0  # atno 10718 bound_to 10713
  153.1692  135.6809  153.8632 H   0  0  0  0  0  0  0  0  0  0  0  0  # atno 10763 bound_to 10752
  153.8001  135.3157  155.3390 H   0  0  0  0  0  0  0  0  0  0  0  0  # atno 10764 bound_to 10752
  154.7986  135.4791  154.0313 H   0  0  0  0  0  0  0  0  0  0  0  0  # atno 10765 bound_to 10752
  141.1448  133.6678  156.5955 H   0  0  0  0  0  0  0  0  0  0  0  0  # atno 11005 bound_to 11000
  145.3595  141.0323  143.3293 LP  0  0  0  0  0  0  0  0  0  0  0  0  # atno 17320 bound_to 7965
  144.8612  139.5175  143.6811 LP  0  0  0  0  0  0  0  0  0  0  0  0  # atno 17321 bound_to 7965
  140.1893  144.4767  150.6487 LP  0  0  0  0  0  0  0  0  0  0  0  0  # atno 17342 bound_to 10162
  140.6610  143.2252  151.5857 LP  0  0  0  0  0  0  0  0  0  0  0  0  # atno 17343 bound_to 10162
  156.5106  130.8170  151.3167 LP  0  0  0  0  0  0  0  0  0  0  0  0  # atno 17370 bound_to 10713
  157.7436  130.9915  150.2603 LP  0  0  0  0  0  0  0  0  0  0  0  0  # atno 17371 bound_to 10713
  140.3729  134.7590  157.4611 LP  0  0  0  0  0  0  0  0  0  0  0  0  # atno 17394 bound_to 11000
  140.0696  134.5881  155.8656 LP  0  0  0  0  0  0  0  0  0  0  0  0  # atno 17395 bound_to 11000

$$$$
