AV-unprocessed.smi:3252|AV-procd|sdf|12439|dock6
  -GOLD-   2272018333D 1   1.00000     0.00000
 Structure written by MMmdl.
 37 38  0  0  0  0  0  0  0  0  2 V2000
  143.7415  139.4496  155.8763 C   0  0  0  0  0  0  0  0  0  0  0  0
  143.8934  140.9671  156.0534 C   0  0  0  0  0  0  0  0  0  0  0  0
  144.7370  141.5842  154.9994 N   0  3  1  0  0  0  0  0  0  0  0  0
  144.6716  143.0646  155.0223 C   0  0  0  0  0  0  0  0  0  0  0  0
  145.5233  143.6596  153.8893 C   0  0  0  0  0  0  0  0  0  0  0  0
  146.8608  143.1914  154.0057 O   0  0  0  0  0  0  0  0  0  0  0  0
  146.9496  141.7759  153.8789 C   0  0  1  0  0  0  0  0  0  0  0  0
  148.4348  141.3786  153.9328 C   0  0  0  0  0  0  0  0  0  0  0  0
  149.1702  142.0960  154.9675 N   0  0  0  0  0  0  0  0  0  0  0  0
  150.1430  141.4650  155.7566 C   0  0  0  0  0  0  0  0  0  0  0  0
  150.2788  141.8625  157.1035 C   0  0  0  0  0  0  0  0  0  0  0  0
  151.2538  141.2350  157.9036 C   0  0  0  0  0  0  0  0  0  0  0  0
  152.0599  140.2330  157.3286 C   0  0  0  0  0  0  0  0  0  0  0  0
  153.0814  139.5580  158.1108 C   0  0  0  0  0  0  0  0  0  0  0  0
  153.8948  139.0204  158.7336 N   0  0  0  0  0  0  0  0  0  0  0  0
  151.8507  139.9024  155.9745 C   0  0  0  0  0  0  0  0  0  0  0  0
  150.9168  140.5005  155.2030 N   0  0  0  0  0  0  0  0  0  0  0  0
  146.1499  141.1308  155.0274 C   0  0  0  0  0  0  0  0  0  0  0  0
  143.0404  139.0484  156.6081 H   0  0  0  0  0  0  0  0  0  0  0  0
  144.6858  138.9239  156.0154 H   0  0  0  0  0  0  0  0  0  0  0  0
  143.3603  139.2037  154.8850 H   0  0  0  0  0  0  0  0  0  0  0  0
  142.8969  141.4092  156.0133 H   0  0  0  0  0  0  0  0  0  0  0  0
  144.2956  141.2003  157.0403 H   0  0  0  0  0  0  0  0  0  0  0  0
  143.6373  143.3933  154.9145 H   0  0  0  0  0  0  0  0  0  0  0  0
  145.0264  143.4310  155.9871 H   0  0  0  0  0  0  0  0  0  0  0  0
  145.1146  143.3967  152.9121 H   0  0  0  0  0  0  0  0  0  0  0  0
  145.5238  144.7479  153.9517 H   0  0  0  0  0  0  0  0  0  0  0  0
  146.5185  141.4655  152.9255 H   0  0  0  0  0  0  0  0  0  0  0  0
  148.5256  140.3089  154.1240 H   0  0  0  0  0  0  0  0  0  0  0  0
  148.9096  141.5551  152.9669 H   0  0  0  0  0  0  0  0  0  0  0  0
  148.9817  143.0793  155.1009 H   0  0  0  0  0  0  0  0  0  0  0  0
  149.6487  142.6343  157.5212 H   0  0  0  0  0  0  0  0  0  0  0  0
  151.3763  141.5229  158.9380 H   0  0  0  0  0  0  0  0  0  0  0  0
  152.4460  139.1412  155.4912 H   0  0  0  0  0  0  0  0  0  0  0  0
  146.5971  141.3882  155.9890 H   0  0  0  0  0  0  0  0  0  0  0  0
  146.1997  140.0465  154.9318 H   0  0  0  0  0  0  0  0  0  0  0  0
  144.3507  141.2958  154.1117 H   0  0  0  0  0  0  0  0  0  0  0  0
  1  2  1  0  0  0  0
  1 19  1  0  0  0  0
  1 20  1  0  0  0  0
  1 21  1  0  0  0  0
  2  3  1  0  0  0  0
  2 22  1  0  0  0  0
  2 23  1  0  0  0  0
  3 18  1  0  0  0  0
  3  4  1  0  0  0  0
  3 37  1  0  0  0  0
  4  5  1  0  0  0  0
  4 24  1  0  0  0  0
  4 25  1  0  0  0  0
  5  6  1  0  0  0  0
  5 26  1  0  0  0  0
  5 27  1  0  0  0  0
  6  7  1  0  0  0  0
  7  8  1  0  0  0  0
  7 18  1  0  0  0  0
  7 28  1  0  0  0  0
  8  9  1  0  0  0  0
  8 29  1  0  0  0  0
  8 30  1  0  0  0  0
  9 10  1  0  0  0  0
  9 31  1  0  0  0  0
 10 17  1  0  0  0  0
 10 11  2  0  0  0  0
 11 12  1  0  0  0  0
 11 32  1  0  0  0  0
 12 13  2  0  0  0  0
 12 33  1  0  0  0  0
 13 14  1  0  0  0  0
 13 16  1  0  0  0  0
 14 15  3  0  0  0  0
 16 17  2  0  0  0  0
 16 34  1  0  0  0  0
 18 35  1  0  0  0  0
 18 36  1  0  0  0  0
M  CHG  1   3   1
M  END
> <s_m_source_file>
AV-unprocessed.smi

> <i_m_source_file_index>
3252

> <i_lp_mmshare_version>
43012

> <i_f3d_flags>
0

> <s_epik_input>
W0NIM11bQ0gyXU4xW0NIMl1bQ0gyXU9bQ0BIXShbQ0gyXTEpW0NIMl1bTkhdYzJbY0hdW2NIXWMoQyNOKVtjSF1uMg==

> <s_epik_cmdline>
J2VwaWtfcHl0aG9uJywgJy1waCcsICc3LjAnLCAnLXRuJywgJzgnLCAnLW1hJywgJzIwMCcsICctbWV0YWxfYmluZGluZycsICctaW1hZScsICc8aW5maWxlLm1hZT4nLCAnLW9tYWUnLCAnPG91dGZpbGUubWFlPic=

> <r_epik_Ionization_Penalty>
0.178512

> <r_epik_Ionization_Penalty_Charging>
0.178504

> <r_epik_Ionization_Penalty_Neutral>
8.15545e-06

> <r_epik_State_Penalty>
0.167974

> <r_epik_Charging_Adjusted_Penalty>
0.346478

> <i_epik_Tot_Q>
1

> <i_epik_Tot_abs_Q>
1

> <r_epik_Metal_State_Penalty>
0.167974

> <b_epik_Metal_Only>
0

> <s_lp_Force_Field>
OPLS_2005

> <r_lp_Energy>
17.3379

> <b_lp_Chiralities_Consistent>
1

> <s_lp_Variant>
AV-unprocessed.smi:3252-1

> <Gold.Version>
5.8.1

> <Gold.Id.Protein>
6NUR|6NUR_protein|mol2

> <Gold.PLP.Fitness>
41.3407

> <Gold.PLP.PLP>
-30.0314

> <Gold.PLP.part.hbond>
-4.0846

> <Gold.PLP.part.metal>
0.0000

> <Gold.PLP.part.buried>
-3.0252

> <Gold.PLP.part.nonpolar>
-24.0068

> <Gold.PLP.part.repulsive>
1.1918

> <Gold.PLP.ligand.clash>
0.0000

> <Gold.PLP.ligand.torsion>
0.5562

> <Gold.PLP.Chemscore.Hbond>
4.1348

> <Gold.PLP.Chemscore.CHOScore>
0.0000

> <Gold.PLP.Chemscore.Metal>
0.0000

> <Gold.Chemscore.Hbonds>
donor molecule, donor type, donor heavy atom, donor atom, acceptor molecule, acceptor atom, score
      L1  H     3    37       P1 10175  2.00
      L1  H     9    31       P1  8028  1.00
      P1  H  7989  7998       L1    17  0.99
      P1  H  8022  8030       L1     6  0.08

> <Gold.PLP.Chemscore.Internal.Correction>
0.0174

> <Gold.Rescore>
     Score         DG    S(hbond)    S(metal)    S(lipo)     H(rot)  DE(clash)    DE(int)     intcor
     15.86     -16.81       2.65        0.00      53.37       1.47       0.44       0.51       ----

> <Gold.Chemscore.Fitness>
15.8617

> <Gold.Chemscore.DG>
-16.8117

> <Gold.Chemscore.ZeroCoef>
-5.4800

> <Gold.Chemscore.Hbond>
2.6486

> <Gold.Chemscore.Metal>
0.0000

> <Gold.Chemscore.Lipo>
53.3651

> <Gold.Chemscore.Internal_Hbond>
0.0000

> <Gold.Chemscore.DEClash>
0.4432

> <Gold.Chemscore.DEInternal>
0.5068

> <Gold.Chemscore.Rot>
1.4681

> <Gold.Chemscore.Internal.Correction>
   9.000000E+99

> <Gold.Chemscore.Hbonds>
donor molecule, donor type, donor heavy atom, donor atom, acceptor molecule, acceptor atom, score
      L1  H     3    37       P1 10175  0.50
      L1  H     9    31       P1  8028  1.00
      P1  H  7989  7998       L1    17  0.65
      P1  H  8022  8030       L1     6  0.09

> <Gold.Chemscore.Hbond.Weighted>
-8.8464

> <Gold.Chemscore.Metal.Weighted>
-0.0000

> <Gold.Chemscore.Lipo.Weighted>
-6.2437

> <Gold.Chemscore.Internal_Hbond.Weighted>
0.0000

> <Gold.Chemscore.DEClash.Weighted>
0.4432

> <Gold.Chemscore.DEInternal.Weighted>
0.5068

> <Gold.Chemscore.Rot.Weighted>
3.7584

> <Gold.Chemscore.Internal.Correction.Weighted>
   9.000000E+99

> <Gold.Protein.RotatedTorsions>
[ 6907 6896 6895 6894 ] final  -68.01 input  -60.11 | X-H torsion
[ 7974 7965 7964 7962 ] final -156.46 input  175.53 | X-H torsion
[ 8008 7997 7996 7995 ] final  147.80 input   59.86 | X-H torsion
[ 10167 10162 10161 10158 ] final  100.81 input  -65.29 | X-H torsion
[ 10718 10713 10712 10709 ] final   20.42 input   66.30 | X-H torsion
[ 10763 10752 10751 10750 ] final   -8.41 input  -60.55 | X-H torsion
[ 11005 11000 10999 10996 ] final  -83.53 input  -57.11 | X-H torsion

> <Gold.Protein.ActiveResidues>
 VAL166  LYS551  ARG553  GLY616  TRP617  ASP618  TYR619  PRO620  LYS621  CYS622 
 ASP623  PHE694  ASN695  SER759  ASP760  ASP761  ALA762  ILE779  LEU786  VAL792 
 PHE793  MET794  SER795  GLU796  ALA797  LYS798  CYS799  TRP800  GLU811  SER814 

> <Gold.Protein.RotatedAtoms>
  150.7379  134.5800  159.5933 H   0  0  0  0  0  0  0  0  0  0  0  0  # atno 6907 bound_to 6896
  152.3216  134.7369  160.0321 H   0  0  0  0  0  0  0  0  0  0  0  0  # atno 6908 bound_to 6896
  151.7883  133.3321  159.3528 H   0  0  0  0  0  0  0  0  0  0  0  0  # atno 6909 bound_to 6896
  144.7592  140.4106  143.5989 H   0  0  0  0  0  0  0  0  0  0  0  0  # atno 7974 bound_to 7965
  156.2812  140.2146  156.5596 H   0  0  0  0  0  0  0  0  0  0  0  0  # atno 8008 bound_to 7997
  154.7224  140.0502  157.0674 H   0  0  0  0  0  0  0  0  0  0  0  0  # atno 8009 bound_to 7997
  155.0461  140.3151  155.4711 H   0  0  0  0  0  0  0  0  0  0  0  0  # atno 8010 bound_to 7997
  139.7494  144.6988  151.0455 H   0  0  0  0  0  0  0  0  0  0  0  0  # atno 10167 bound_to 10162
  157.1242  130.6563  149.5932 H   0  0  0  0  0  0  0  0  0  0  0  0  # atno 10718 bound_to 10713
  153.4402  135.7013  153.6174 H   0  0  0  0  0  0  0  0  0  0  0  0  # atno 10763 bound_to 10752
  153.4552  135.3749  155.2307 H   0  0  0  0  0  0  0  0  0  0  0  0  # atno 10764 bound_to 10752
  154.8727  135.4006  154.3799 H   0  0  0  0  0  0  0  0  0  0  0  0  # atno 10765 bound_to 10752
  141.1657  133.7299  156.8734 H   0  0  0  0  0  0  0  0  0  0  0  0  # atno 11005 bound_to 11000
  145.6676  139.1593  143.2773 LP  0  0  0  0  0  0  0  0  0  0  0  0  # atno 17320 bound_to 7965
  146.1637  140.6750  142.9265 LP  0  0  0  0  0  0  0  0  0  0  0  0  # atno 17321 bound_to 7965
  140.7796  143.4827  150.9996 LP  0  0  0  0  0  0  0  0  0  0  0  0  # atno 17342 bound_to 10162
  139.8515  143.7432  152.3178 LP  0  0  0  0  0  0  0  0  0  0  0  0  # atno 17343 bound_to 10162
  155.9822  130.4834  150.6867 LP  0  0  0  0  0  0  0  0  0  0  0  0  # atno 17370 bound_to 10713
  157.4450  131.0866  151.0905 LP  0  0  0  0  0  0  0  0  0  0  0  0  # atno 17371 bound_to 10713
  140.1765  134.9063  157.2897 LP  0  0  0  0  0  0  0  0  0  0  0  0  # atno 17394 bound_to 11000
  140.2442  134.3759  155.7468 LP  0  0  0  0  0  0  0  0  0  0  0  0  # atno 17395 bound_to 11000

$$$$
