AV-unprocessed.smi:1116|AV-procd|sdf|4807|dock2
  -GOLD-   22720 3353D 1   1.00000     0.00000
 Structure written by MMmdl.
 36 37  0  0  0  0  0  0  0  0  1 V2000
  152.1053  143.7669  162.0465 C   0  0  0  0  0  0  0  0  0  0  0  0
  151.6818  143.6841  160.6200 C   0  0  0  0  0  0  0  0  0  0  0  0
  151.7173  142.5588  159.9013 N   0  0  0  0  0  0  0  0  0  0  0  0
  151.2742  142.7444  158.5878 C   0  0  0  0  0  0  0  0  0  0  0  0
  151.2557  141.5902  157.6320 C   0  0  0  0  0  0  0  0  0  0  0  0
  150.9952  142.0414  156.1849 C   0  0  0  0  0  0  0  0  0  0  0  0
  149.6065  141.8336  155.7907 N   0  0  0  0  0  0  0  0  0  0  0  0
  149.2012  141.1157  154.7321 C   0  0  0  0  0  0  0  0  0  0  0  0
  149.9770  140.5420  153.9680 O   0  0  0  0  0  0  0  0  0  0  0  0
  147.6899  141.0415  154.4984 C   0  0  0  0  0  0  0  0  0  0  0  0
  147.0607  142.4265  154.2546 C   0  0  0  0  0  0  0  0  0  0  0  0
  145.5509  142.3606  153.9512 C   0  0  2  0  0  0  0  0  0  0  0  0
  145.1184  143.3852  153.0158 N   0  0  0  0  0  0  0  0  0  0  0  0
  144.1914  144.1989  153.5386 C   0  0  0  0  0  0  0  0  0  0  0  0
  143.6549  145.1439  152.9655 O   0  0  0  0  0  0  0  0  0  0  0  0
  143.9541  143.8017  154.7932 N   0  0  0  0  0  0  0  0  0  0  0  0
  144.6934  142.7502  155.1424 C   0  0  0  0  0  0  0  0  0  0  0  0
  144.7006  142.1791  156.2312 O   0  0  0  0  0  0  0  0  0  0  0  0
  150.8925  144.0363  158.3235 C   0  0  0  0  0  0  0  0  0  0  0  0
  151.0826  145.0680  159.7143 S   0  0  0  0  0  0  0  0  0  0  0  0
  152.5559  142.8280  162.3696 H   0  0  0  0  0  0  0  0  0  0  0  0
  151.2426  143.9776  162.6789 H   0  0  0  0  0  0  0  0  0  0  0  0
  152.8359  144.5662  162.1722 H   0  0  0  0  0  0  0  0  0  0  0  0
  152.2024  141.0517  157.6874 H   0  0  0  0  0  0  0  0  0  0  0  0
  150.4884  140.8752  157.9316 H   0  0  0  0  0  0  0  0  0  0  0  0
  151.2138  143.1050  156.0854 H   0  0  0  0  0  0  0  0  0  0  0  0
  151.6613  141.5214  155.4940 H   0  0  0  0  0  0  0  0  0  0  0  0
  148.9006  142.2742  156.3627 H   0  0  0  0  0  0  0  0  0  0  0  0
  147.4860  140.3846  153.6515 H   0  0  0  0  0  0  0  0  0  0  0  0
  147.2323  140.5750  155.3713 H   0  0  0  0  0  0  0  0  0  0  0  0
  147.2133  143.0543  155.1341 H   0  0  0  0  0  0  0  0  0  0  0  0
  147.5822  142.9229  153.4339 H   0  0  0  0  0  0  0  0  0  0  0  0
  145.2597  141.3746  153.5869 H   0  0  0  0  0  0  0  0  0  0  0  0
  145.4784  143.4584  152.0753 H   0  0  0  0  0  0  0  0  0  0  0  0
  143.2951  144.2545  155.4096 H   0  0  0  0  0  0  0  0  0  0  0  0
  150.5142  144.4430  157.3974 H   0  0  0  0  0  0  0  0  0  0  0  0
  1  2  1  0  0  0  0
  1 21  1  0  0  0  0
  1 22  1  0  0  0  0
  1 23  1  0  0  0  0
  2 20  1  0  0  0  0
  2  3  2  0  0  0  0
  3  4  1  0  0  0  0
  4  5  1  0  0  0  0
  4 19  2  0  0  0  0
  5  6  1  0  0  0  0
  5 24  1  0  0  0  0
  5 25  1  0  0  0  0
  6  7  1  0  0  0  0
  6 26  1  0  0  0  0
  6 27  1  0  0  0  0
  7  8  1  0  0  0  0
  7 28  1  0  0  0  0
  8  9  2  0  0  0  0
  8 10  1  0  0  0  0
 10 11  1  0  0  0  0
 10 29  1  0  0  0  0
 10 30  1  0  0  0  0
 11 12  1  0  0  0  0
 11 31  1  0  0  0  0
 11 32  1  0  0  0  0
 12 17  1  0  0  0  0
 12 13  1  0  0  0  0
 12 33  1  0  0  0  0
 13 14  1  0  0  0  0
 13 34  1  0  0  0  0
 14 15  2  0  0  0  0
 14 16  1  0  0  0  0
 16 17  1  0  0  0  0
 16 35  1  0  0  0  0
 17 18  2  0  0  0  0
 19 20  1  0  0  0  0
 19 36  1  0  0  0  0
M  END
> <s_m_source_file>
AV-unprocessed.smi

> <i_m_source_file_index>
1116

> <i_lp_mmshare_version>
43012

> <i_f3d_flags>
0

> <s_epik_input>
W0NIM11jMW5jKFtjSF1zMSlbQ0gyXVtDSDJdW05IXUMoPU8pW0NIMl1bQ0gyXVtDQEBIXTJbTkhdQyg9TylbTkhdQzI9Tw==

> <s_epik_cmdline>
J2VwaWtfcHl0aG9uJywgJy1waCcsICc3LjAnLCAnLXRuJywgJzgnLCAnLW1hJywgJzIwMCcsICctbWV0YWxfYmluZGluZycsICctaW1hZScsICc8aW5maWxlLm1hZT4nLCAnLW9tYWUnLCAnPG91dGZpbGUubWFlPic=

> <r_lp_tautomer_probability>
1

> <r_epik_Ionization_Penalty>
0.00889251

> <r_epik_Ionization_Penalty_Charging>
0

> <r_epik_Ionization_Penalty_Neutral>
0.00889251

> <r_epik_State_Penalty>
0.00583796

> <r_epik_Charging_Adjusted_Penalty>
0.00583796

> <i_epik_Tot_Q>
0

> <i_epik_Tot_abs_Q>
0

> <r_epik_Metal_State_Penalty>
0.408839

> <b_epik_Metal_Only>
0

> <s_lp_Force_Field>
OPLS_2005

> <r_lp_Energy>
12.4074

> <b_lp_Chiralities_Consistent>
1

> <s_lp_Variant>
AV-unprocessed.smi:1116-1

> <Gold.Version>
5.8.1

> <Gold.Id.Protein>
6NUR|6NUR_protein|mol2

> <Gold.PLP.Fitness>
47.6898

> <Gold.PLP.PLP>
-44.1685

> <Gold.PLP.part.hbond>
-4.5359

> <Gold.PLP.part.metal>
0.0000

> <Gold.PLP.part.buried>
-7.1201

> <Gold.PLP.part.nonpolar>
-33.2087

> <Gold.PLP.part.repulsive>
1.6654

> <Gold.PLP.ligand.clash>
0.0000

> <Gold.PLP.ligand.torsion>
0.9260

> <Gold.PLP.Chemscore.Hbond>
0.7808

> <Gold.PLP.Chemscore.CHOScore>
0.9867

> <Gold.PLP.Chemscore.Metal>
0.0000

> <Gold.Chemscore.Hbonds>
donor molecule, donor type, donor heavy atom, donor atom, acceptor molecule, acceptor atom, score
      P1  H  7989  7998       L1     9  0.69
      L1  C    19    36       P1  8028  1.00

> <Gold.PLP.Chemscore.Internal.Correction>
0.0708

> <Gold.Rescore>
     Score         DG    S(hbond)    S(metal)    S(lipo)     H(rot)  DE(clash)    DE(int)     intcor
      8.93     -10.97       0.74        0.00      87.77       2.83       1.24       0.79       ----

> <Gold.Chemscore.Fitness>
8.9346

> <Gold.Chemscore.DG>
-10.9678

> <Gold.Chemscore.ZeroCoef>
-5.4800

> <Gold.Chemscore.Hbond>
0.7393

> <Gold.Chemscore.Metal>
0.0000

> <Gold.Chemscore.Lipo>
87.7746

> <Gold.Chemscore.Internal_Hbond>
0.0000

> <Gold.Chemscore.DEClash>
1.2426

> <Gold.Chemscore.DEInternal>
0.7905

> <Gold.Chemscore.Rot>
2.8324

> <Gold.Chemscore.Internal.Correction>
   9.000000E+99

> <Gold.Chemscore.Hbonds>
donor molecule, donor type, donor heavy atom, donor atom, acceptor molecule, acceptor atom, score
      P1  H  7989  7998       L1     9  0.68

> <Gold.Chemscore.Hbond.Weighted>
-2.4691

> <Gold.Chemscore.Metal.Weighted>
-0.0000

> <Gold.Chemscore.Lipo.Weighted>
-10.2696

> <Gold.Chemscore.Internal_Hbond.Weighted>
0.0000

> <Gold.Chemscore.DEClash.Weighted>
1.2426

> <Gold.Chemscore.DEInternal.Weighted>
0.7905

> <Gold.Chemscore.Rot.Weighted>
7.2510

> <Gold.Chemscore.Internal.Correction.Weighted>
   9.000000E+99

> <Gold.Protein.RotatedTorsions>
[ 6907 6896 6895 6894 ] final -107.91 input  -60.11 | X-H torsion
[ 7974 7965 7964 7962 ] final -158.51 input  175.53 | X-H torsion
[ 8008 7997 7996 7995 ] final  102.36 input   59.86 | X-H torsion
[ 10167 10162 10161 10158 ] final  -97.32 input  -65.29 | X-H torsion
[ 10718 10713 10712 10709 ] final   87.43 input   66.30 | X-H torsion
[ 10763 10752 10751 10750 ] final  157.58 input  -60.55 | X-H torsion
[ 11005 11000 10999 10996 ] final -164.12 input  -57.11 | X-H torsion

> <Gold.Protein.ActiveResidues>
 VAL166  LYS551  ARG553  GLY616  TRP617  ASP618  TYR619  PRO620  LYS621  CYS622 
 ASP623  PHE694  ASN695  SER759  ASP760  ASP761  ALA762  ILE779  LEU786  VAL792 
 PHE793  MET794  SER795  GLU796  ALA797  LYS798  CYS799  TRP800  GLU811  SER814 

> <Gold.Protein.RotatedAtoms>
  150.7471  133.9756  159.3559 H   0  0  0  0  0  0  0  0  0  0  0  0  # atno 6907 bound_to 6896
  151.7693  135.0788  160.0367 H   0  0  0  0  0  0  0  0  0  0  0  0  # atno 6908 bound_to 6896
  152.3350  133.5964  159.5872 H   0  0  0  0  0  0  0  0  0  0  0  0  # atno 6909 bound_to 6896
  144.7503  140.3817  143.6053 H   0  0  0  0  0  0  0  0  0  0  0  0  # atno 7974 bound_to 7965
  156.1385  140.3182  155.8459 H   0  0  0  0  0  0  0  0  0  0  0  0  # atno 8008 bound_to 7997
  155.4198  140.0511  157.3043 H   0  0  0  0  0  0  0  0  0  0  0  0  # atno 8009 bound_to 7997
  154.4957  140.2110  155.9465 H   0  0  0  0  0  0  0  0  0  0  0  0  # atno 8010 bound_to 7997
  140.2846  143.3260  152.0407 H   0  0  0  0  0  0  0  0  0  0  0  0  # atno 10167 bound_to 10162
  157.6940  131.0255  150.3122 H   0  0  0  0  0  0  0  0  0  0  0  0  # atno 10718 bound_to 10713
  154.2025  135.2789  155.2986 H   0  0  0  0  0  0  0  0  0  0  0  0  # atno 10763 bound_to 10752
  154.5843  135.5579  153.7219 H   0  0  0  0  0  0  0  0  0  0  0  0  # atno 10764 bound_to 10752
  153.0084  135.6352  154.2163 H   0  0  0  0  0  0  0  0  0  0  0  0  # atno 10765 bound_to 10752
  140.5904  134.5050  157.5192 H   0  0  0  0  0  0  0  0  0  0  0  0  # atno 11005 bound_to 11000
  145.6970  139.1652  143.2614 LP  0  0  0  0  0  0  0  0  0  0  0  0  # atno 17320 bound_to 7965
  146.1443  140.7015  142.9352 LP  0  0  0  0  0  0  0  0  0  0  0  0  # atno 17321 bound_to 7965
  139.4953  144.6567  151.6555 LP  0  0  0  0  0  0  0  0  0  0  0  0  # atno 17342 bound_to 10162
  140.5783  143.9990  150.6254 LP  0  0  0  0  0  0  0  0  0  0  0  0  # atno 17343 bound_to 10162
  156.3622  130.3849  149.7242 LP  0  0  0  0  0  0  0  0  0  0  0  0  # atno 17370 bound_to 10713
  156.4685  130.7985  151.3004 LP  0  0  0  0  0  0  0  0  0  0  0  0  # atno 17371 bound_to 10713
  139.9276  134.8025  156.1022 LP  0  0  0  0  0  0  0  0  0  0  0  0  # atno 17394 bound_to 11000
  141.0938  133.6703  156.2600 LP  0  0  0  0  0  0  0  0  0  0  0  0  # atno 17395 bound_to 11000

$$$$
