AV-unprocessed.smi:2829|AV-procd|sdf|10898|dock5
  -GOLD-   2272015343D 1   1.00000     0.00000
 Structure written by MMmdl.
 50 53  0  0  0  0  0  0  0  0  1 V2000
  149.9804  141.3778  156.3101 C   0  0  0  0  0  0  0  0  0  0  0  0
  148.9890  140.5674  155.4447 C   0  0  0  0  0  0  0  0  0  0  0  0
  148.2299  141.5687  154.5491 C   0  0  0  0  0  0  0  0  0  0  0  0
  149.8177  139.6038  154.5699 C   0  0  0  0  0  0  0  0  0  0  0  0
  147.9864  139.7661  156.2947 C   0  0  0  0  0  0  0  0  0  0  0  0
  146.9685  138.9607  155.7356 C   0  0  0  0  0  0  0  0  0  0  0  0
  146.1148  138.2785  156.6186 C   0  0  0  0  0  0  0  0  0  0  0  0
  146.3188  138.4332  158.0043 C   0  0  0  0  0  0  0  0  0  0  0  0
  145.4186  137.7166  158.8345 N   0  0  0  0  0  0  0  0  0  0  0  0
  145.5710  137.3724  160.1285 C   0  0  0  0  0  0  0  0  0  0  0  0
  146.5659  137.6177  160.8081 O   0  0  0  0  0  0  0  0  0  0  0  0
  144.5160  136.7203  160.6470 N   0  0  0  0  0  0  0  0  0  0  0  0
  144.3686  136.2132  162.0183 C   0  0  2  0  0  0  0  0  0  0  0  0
  145.5458  135.3531  162.4980 C   0  0  2  0  0  0  0  0  0  0  0  0
  146.9837  135.2339  162.1436 C   0  0  0  0  0  0  0  0  0  0  0  0
  147.0779  133.6901  162.2481 C   0  0  0  0  0  0  0  0  0  0  0  0
  145.7152  133.2204  162.4108 O   0  0  0  0  0  0  0  0  0  0  0  0
  144.9230  134.1879  161.7462 C   0  0  1  0  0  0  0  0  0  0  0  0
  143.5882  134.8593  162.1119 C   0  0  0  0  0  0  0  0  0  0  0  0
  142.8110  134.4629  163.3779 C   0  0  0  0  0  0  0  0  0  0  0  0
  141.5168  134.7588  162.6139 C   0  0  0  0  0  0  0  0  0  0  0  0
  142.3047  134.6069  161.3087 C   0  0  0  0  0  0  0  0  0  0  0  0
  147.3169  139.2239  158.4725 N   0  0  0  0  0  0  0  0  0  0  0  0
  148.1321  139.8755  157.6380 N   0  0  0  0  0  0  0  0  0  0  0  0
  150.6800  141.9386  155.6891 H   0  0  0  0  0  0  0  0  0  0  0  0
  150.5762  140.7302  156.9546 H   0  0  0  0  0  0  0  0  0  0  0  0
  149.4649  142.1021  156.9420 H   0  0  0  0  0  0  0  0  0  0  0  0
  147.6325  142.2589  155.1462 H   0  0  0  0  0  0  0  0  0  0  0  0
  147.5545  141.0638  153.8578 H   0  0  0  0  0  0  0  0  0  0  0  0
  148.9168  142.1650  153.9475 H   0  0  0  0  0  0  0  0  0  0  0  0
  150.5520  140.1425  153.9700 H   0  0  0  0  0  0  0  0  0  0  0  0
  149.1894  139.0416  153.8780 H   0  0  0  0  0  0  0  0  0  0  0  0
  150.3594  138.8816  155.1818 H   0  0  0  0  0  0  0  0  0  0  0  0
  146.8252  138.8528  154.6717 H   0  0  0  0  0  0  0  0  0  0  0  0
  145.3220  137.6516  156.2366 H   0  0  0  0  0  0  0  0  0  0  0  0
  144.5486  137.4449  158.4009 H   0  0  0  0  0  0  0  0  0  0  0  0
  143.7311  136.5644  160.0308 H   0  0  0  0  0  0  0  0  0  0  0  0
  144.0314  136.9573  162.7416 H   0  0  0  0  0  0  0  0  0  0  0  0
  145.4421  135.2374  163.5833 H   0  0  0  0  0  0  0  0  0  0  0  0
  147.1933  135.5874  161.1333 H   0  0  0  0  0  0  0  0  0  0  0  0
  147.6390  135.7459  162.8484 H   0  0  0  0  0  0  0  0  0  0  0  0
  147.5194  133.2669  161.3449 H   0  0  0  0  0  0  0  0  0  0  0  0
  147.6798  133.3741  163.1004 H   0  0  0  0  0  0  0  0  0  0  0  0
  145.1185  134.1938  160.6697 H   0  0  0  0  0  0  0  0  0  0  0  0
  142.9222  133.4063  163.6263 H   0  0  0  0  0  0  0  0  0  0  0  0
  142.9828  135.1024  164.2443 H   0  0  0  0  0  0  0  0  0  0  0  0
  140.7242  134.0238  162.7567 H   0  0  0  0  0  0  0  0  0  0  0  0
  141.1586  135.7770  162.7724 H   0  0  0  0  0  0  0  0  0  0  0  0
  142.0733  135.3568  160.5518 H   0  0  0  0  0  0  0  0  0  0  0  0
  142.2549  133.5953  160.9028 H   0  0  0  0  0  0  0  0  0  0  0  0
  1  2  1  0  0  0  0
  1 25  1  0  0  0  0
  1 26  1  0  0  0  0
  1 27  1  0  0  0  0
  2  3  1  0  0  0  0
  2  4  1  0  0  0  0
  2  5  1  0  0  0  0
  3 28  1  0  0  0  0
  3 29  1  0  0  0  0
  3 30  1  0  0  0  0
  4 31  1  0  0  0  0
  4 32  1  0  0  0  0
  4 33  1  0  0  0  0
  5 24  1  0  0  0  0
  5  6  2  0  0  0  0
  6  7  1  0  0  0  0
  6 34  1  0  0  0  0
  7  8  2  0  0  0  0
  7 35  1  0  0  0  0
  8  9  1  0  0  0  0
  8 23  1  0  0  0  0
  9 10  1  0  0  0  0
  9 36  1  0  0  0  0
 10 11  2  0  0  0  0
 10 12  1  0  0  0  0
 12 13  1  0  0  0  0
 12 37  1  0  0  0  0
 13 19  1  0  0  0  0
 13 14  1  0  0  0  0
 13 38  1  0  0  0  0
 14 18  1  0  0  0  0
 14 15  1  0  0  0  0
 14 39  1  0  0  0  0
 15 16  1  0  0  0  0
 15 40  1  0  0  0  0
 15 41  1  0  0  0  0
 16 17  1  0  0  0  0
 16 42  1  0  0  0  0
 16 43  1  0  0  0  0
 17 18  1  0  0  0  0
 18 19  1  0  0  0  0
 18 44  1  0  0  0  0
 19 22  1  0  0  0  0
 19 20  1  0  0  0  0
 20 21  1  0  0  0  0
 20 45  1  0  0  0  0
 20 46  1  0  0  0  0
 21 22  1  0  0  0  0
 21 47  1  0  0  0  0
 21 48  1  0  0  0  0
 22 49  1  0  0  0  0
 22 50  1  0  0  0  0
 23 24  2  0  0  0  0
M  END
> <s_m_source_file>
AV-unprocessed.smi

> <i_m_source_file_index>
2829

> <i_lp_mmshare_version>
43012

> <i_f3d_flags>
0

> <s_epik_input>
W0NIM11DKFtDSDNdKShbQ0gzXSljMVtjSF1bY0hdYyhubjEpW05IXUMoPU8pW05IXVtDQEBIXTJbQ0BIXShbQ0gyXVtDSDJdTzMpW0NAQEhdM0MyNFtDSDJdW0NIMl1bQ0gyXTQ=

> <s_epik_cmdline>
J2VwaWtfcHl0aG9uJywgJy1waCcsICc3LjAnLCAnLXRuJywgJzgnLCAnLW1hJywgJzIwMCcsICctbWV0YWxfYmluZGluZycsICctaW1hZScsICc8aW5maWxlLm1hZT4nLCAnLW9tYWUnLCAnPG91dGZpbGUubWFlPic=

> <r_lp_tautomer_probability>
1

> <r_epik_Ionization_Penalty>
0.011915

> <r_epik_Ionization_Penalty_Charging>
0

> <r_epik_Ionization_Penalty_Neutral>
0.011915

> <r_epik_State_Penalty>
0.00486223

> <r_epik_Charging_Adjusted_Penalty>
0.00486223

> <i_epik_Tot_Q>
0

> <i_epik_Tot_abs_Q>
0

> <r_epik_Metal_State_Penalty>
-0

> <b_epik_Metal_Only>
0

> <s_lp_Force_Field>
OPLS_2005

> <r_lp_Energy>
85.5181

> <b_lp_Chiralities_Consistent>
1

> <s_lp_Variant>
AV-unprocessed.smi:2829-1

> <Gold.Version>
5.8.1

> <Gold.Id.Protein>
6NUR|6NUR_protein|mol2

> <Gold.PLP.Fitness>
35.3957

> <Gold.PLP.PLP>
-32.6703

> <Gold.PLP.part.hbond>
-2.0000

> <Gold.PLP.part.metal>
0.0000

> <Gold.PLP.part.buried>
-5.7770

> <Gold.PLP.part.nonpolar>
-25.6209

> <Gold.PLP.part.repulsive>
0.1739

> <Gold.PLP.ligand.clash>
0.0000

> <Gold.PLP.ligand.torsion>
0.2970

> <Gold.PLP.Chemscore.Hbond>
1.0000

> <Gold.PLP.Chemscore.CHOScore>
0.0000

> <Gold.PLP.Chemscore.Metal>
0.0000

> <Gold.Chemscore.Hbonds>
donor molecule, donor type, donor heavy atom, donor atom, acceptor molecule, acceptor atom, score
      P1  H  6934  6947       L1    11  1.00

> <Gold.PLP.Chemscore.Internal.Correction>
0.3194

> <Gold.Rescore>
     Score         DG    S(hbond)    S(metal)    S(lipo)     H(rot)  DE(clash)    DE(int)     intcor
     11.97     -15.73       0.93        0.00      86.44       1.16       0.00       3.76       ----

> <Gold.Chemscore.Fitness>
11.9699

> <Gold.Chemscore.DG>
-15.7332

> <Gold.Chemscore.ZeroCoef>
-5.4800

> <Gold.Chemscore.Hbond>
0.9321

> <Gold.Chemscore.Metal>
0.0000

> <Gold.Chemscore.Lipo>
86.4439

> <Gold.Chemscore.Internal_Hbond>
0.0000

> <Gold.Chemscore.DEClash>
0.0000

> <Gold.Chemscore.DEInternal>
3.7633

> <Gold.Chemscore.Rot>
1.1618

> <Gold.Chemscore.Internal.Correction>
   9.000000E+99

> <Gold.Chemscore.Hbonds>
donor molecule, donor type, donor heavy atom, donor atom, acceptor molecule, acceptor atom, score
      P1  H  6934  6947       L1    11  0.93

> <Gold.Chemscore.Hbond.Weighted>
-3.1134

> <Gold.Chemscore.Metal.Weighted>
-0.0000

> <Gold.Chemscore.Lipo.Weighted>
-10.1139

> <Gold.Chemscore.Internal_Hbond.Weighted>
0.0000

> <Gold.Chemscore.DEClash.Weighted>
0.0000

> <Gold.Chemscore.DEInternal.Weighted>
3.7633

> <Gold.Chemscore.Rot.Weighted>
2.9741

> <Gold.Chemscore.Internal.Correction.Weighted>
   9.000000E+99

> <Gold.Protein.RotatedTorsions>
[ 6907 6896 6895 6894 ] final   51.42 input  -60.11 | X-H torsion
[ 7974 7965 7964 7962 ] final -177.06 input  175.53 | X-H torsion
[ 8008 7997 7996 7995 ] final -148.75 input   59.86 | X-H torsion
[ 10167 10162 10161 10158 ] final   -5.30 input  -65.29 | X-H torsion
[ 10718 10713 10712 10709 ] final  127.52 input   66.30 | X-H torsion
[ 10763 10752 10751 10750 ] final  166.62 input  -60.55 | X-H torsion
[ 11005 11000 10999 10996 ] final   -5.62 input  -57.11 | X-H torsion

> <Gold.Protein.ActiveResidues>
 VAL166  LYS551  ARG553  GLY616  TRP617  ASP618  TYR619  PRO620  LYS621  CYS622 
 ASP623  PHE694  ASN695  SER759  ASP760  ASP761  ALA762  ILE779  LEU786  VAL792 
 PHE793  MET794  SER795  GLU796  ALA797  LYS798  CYS799  TRP800  GLU811  SER814 

> <Gold.Protein.RotatedAtoms>
  152.3124  134.7481  160.0333 H   0  0  0  0  0  0  0  0  0  0  0  0  # atno 6907 bound_to 6896
  151.7957  133.3359  159.3520 H   0  0  0  0  0  0  0  0  0  0  0  0  # atno 6908 bound_to 6896
  150.7327  134.5731  159.5945 H   0  0  0  0  0  0  0  0  0  0  0  0  # atno 6909 bound_to 6896
  144.7127  140.1076  143.6413 H   0  0  0  0  0  0  0  0  0  0  0  0  # atno 7974 bound_to 7965
  155.5966  140.0658  157.2744 H   0  0  0  0  0  0  0  0  0  0  0  0  # atno 8008 bound_to 7997
  154.4290  140.1825  156.1177 H   0  0  0  0  0  0  0  0  0  0  0  0  # atno 8009 bound_to 7997
  156.0191  140.3318  155.7024 H   0  0  0  0  0  0  0  0  0  0  0  0  # atno 8010 bound_to 7997
  140.6958  143.6324  150.8510 H   0  0  0  0  0  0  0  0  0  0  0  0  # atno 10167 bound_to 10162
  157.5326  131.1098  150.8986 H   0  0  0  0  0  0  0  0  0  0  0  0  # atno 10718 bound_to 10713
  154.3417  135.2754  155.2419 H   0  0  0  0  0  0  0  0  0  0  0  0  # atno 10763 bound_to 10752
  154.4687  135.5888  153.6310 H   0  0  0  0  0  0  0  0  0  0  0  0  # atno 10764 bound_to 10752
  152.9857  135.6083  154.3619 H   0  0  0  0  0  0  0  0  0  0  0  0  # atno 10765 bound_to 10752
  140.6931  133.9054  155.8631 H   0  0  0  0  0  0  0  0  0  0  0  0  # atno 11005 bound_to 11000
  145.9483  139.2716  143.1227 LP  0  0  0  0  0  0  0  0  0  0  0  0  # atno 17320 bound_to 7965
  145.9350  140.9021  143.0337 LP  0  0  0  0  0  0  0  0  0  0  0  0  # atno 17321 bound_to 7965
  140.0042  143.5711  152.2864 LP  0  0  0  0  0  0  0  0  0  0  0  0  # atno 17342 bound_to 10162
  139.6412  144.7655  151.2336 LP  0  0  0  0  0  0  0  0  0  0  0  0  # atno 17343 bound_to 10162
  156.9563  130.5438  149.5284 LP  0  0  0  0  0  0  0  0  0  0  0  0  # atno 17370 bound_to 10713
  156.0434  130.5513  150.8824 LP  0  0  0  0  0  0  0  0  0  0  0  0  # atno 17371 bound_to 10713
  141.0225  134.0869  157.4105 LP  0  0  0  0  0  0  0  0  0  0  0  0  # atno 17394 bound_to 11000
  139.8918  135.0120  156.6810 LP  0  0  0  0  0  0  0  0  0  0  0  0  # atno 17395 bound_to 11000

$$$$
