AV-unprocessed.smi:1644|AV-procd|sdf|6592|dock4
  -GOLD-   22720 7293D 1   1.00000     0.00000
 Structure written by MMmdl.
 48 50  0  0  0  0  0  0  0  0  2 V2000
  154.4954  135.6518  161.0587 C   0  0  0  0  0  0  0  0  0  0  0  0
  154.9791  135.9938  159.6454 C   0  0  0  0  0  0  0  0  0  0  0  0
  153.8096  136.2408  158.6678 C   0  0  0  0  0  0  0  0  0  0  0  0
  152.8948  137.4480  158.9887 C   0  0  2  0  0  0  0  0  0  0  0  0
  151.5824  137.0264  159.4320 N   0  5  0  0  0  0  0  0  0  0  0  0
  150.6562  137.5876  158.6194 C   0  0  0  0  0  0  0  0  0  0  0  0
  149.4358  137.4436  158.6868 O   0  0  0  0  0  0  0  0  0  0  0  0
  151.2384  138.3480  157.6711 N   0  0  0  0  0  0  0  0  0  0  0  0
  150.5256  139.0625  156.6074 C   0  0  0  0  0  0  0  0  0  0  0  0
  150.4047  140.5683  156.9190 C   0  0  2  0  0  0  0  0  0  0  0  0
  149.9641  141.2390  155.7536 O   0  0  0  0  0  0  0  0  0  0  0  0
  151.7555  141.1730  157.3461 C   0  0  0  0  0  0  0  0  0  0  0  0
  151.6123  142.1592  158.4020 N   0  0  0  0  0  0  0  0  0  0  0  0
  150.8681  143.2814  158.3748 C   0  0  0  0  0  0  0  0  0  0  0  0
  150.8877  144.0513  159.4594 N   0  0  0  0  0  0  0  0  0  0  0  0
  151.7419  143.3433  160.2878 C   0  0  0  0  0  0  0  0  0  0  0  0
  152.1863  143.6206  161.5993 C   0  0  0  0  0  0  0  0  0  0  0  0
  153.0691  142.7413  162.2664 C   0  0  0  0  0  0  0  0  0  0  0  0
  153.5169  143.0747  163.6787 C   0  0  0  0  0  0  0  0  0  0  0  0
  153.5244  141.5645  161.6188 C   0  0  0  0  0  0  0  0  0  0  0  0
  154.4683  140.6017  162.3171 C   0  0  0  0  0  0  0  0  0  0  0  0
  153.0950  141.2758  160.3066 C   0  0  0  0  0  0  0  0  0  0  0  0
  152.2132  142.1560  159.6554 C   0  0  0  0  0  0  0  0  0  0  0  0
  152.5686  138.3181  157.7922 C   0  0  0  0  0  0  0  0  0  0  0  0
  153.4058  138.8683  157.0761 O   0  0  0  0  0  0  0  0  0  0  0  0
  155.3398  135.4846  161.7278 H   0  0  0  0  0  0  0  0  0  0  0  0
  153.8870  134.7470  161.0581 H   0  0  0  0  0  0  0  0  0  0  0  0
  153.8945  136.4606  161.4754 H   0  0  0  0  0  0  0  0  0  0  0  0
  155.6208  136.8734  159.6987 H   0  0  0  0  0  0  0  0  0  0  0  0
  155.6044  135.1790  159.2793 H   0  0  0  0  0  0  0  0  0  0  0  0
  154.2100  136.3652  157.6607 H   0  0  0  0  0  0  0  0  0  0  0  0
  153.1936  135.3417  158.6260 H   0  0  0  0  0  0  0  0  0  0  0  0
  153.3852  138.0738  159.7355 H   0  0  0  0  0  0  0  0  0  0  0  0
  151.0812  138.9221  155.6788 H   0  0  0  0  0  0  0  0  0  0  0  0
  149.5454  138.6207  156.4187 H   0  0  0  0  0  0  0  0  0  0  0  0
  149.6761  140.7324  157.7144 H   0  0  0  0  0  0  0  0  0  0  0  0
  150.3543  142.1000  155.7403 H   0  0  0  0  0  0  0  0  0  0  0  0
  152.4196  140.3882  157.7106 H   0  0  0  0  0  0  0  0  0  0  0  0
  152.2558  141.6355  156.4938 H   0  0  0  0  0  0  0  0  0  0  0  0
  150.2777  143.5473  157.5099 H   0  0  0  0  0  0  0  0  0  0  0  0
  151.8394  144.5172  162.0918 H   0  0  0  0  0  0  0  0  0  0  0  0
  154.6026  143.1619  163.7253 H   0  0  0  0  0  0  0  0  0  0  0  0
  153.2011  142.2956  164.3726 H   0  0  0  0  0  0  0  0  0  0  0  0
  153.0909  144.0193  164.0192 H   0  0  0  0  0  0  0  0  0  0  0  0
  154.7230  139.7583  161.6746 H   0  0  0  0  0  0  0  0  0  0  0  0
  154.0075  140.2051  163.2221 H   0  0  0  0  0  0  0  0  0  0  0  0
  155.3956  141.1048  162.5913 H   0  0  0  0  0  0  0  0  0  0  0  0
  153.4330  140.3832  159.8005 H   0  0  0  0  0  0  0  0  0  0  0  0
  1  2  1  0  0  0  0
  1 26  1  0  0  0  0
  1 27  1  0  0  0  0
  1 28  1  0  0  0  0
  2  3  1  0  0  0  0
  2 29  1  0  0  0  0
  2 30  1  0  0  0  0
  3  4  1  0  0  0  0
  3 31  1  0  0  0  0
  3 32  1  0  0  0  0
  4 24  1  0  0  0  0
  4  5  1  0  0  0  0
  4 33  1  0  0  0  0
  5  6  1  0  0  0  0
  6  7  2  0  0  0  0
  6  8  1  0  0  0  0
  8  9  1  0  0  0  0
  8 24  1  0  0  0  0
  9 10  1  0  0  0  0
  9 34  1  0  0  0  0
  9 35  1  0  0  0  0
 10 11  1  0  0  0  0
 10 12  1  0  0  0  0
 10 36  1  0  0  0  0
 11 37  1  0  0  0  0
 12 13  1  0  0  0  0
 12 38  1  0  0  0  0
 12 39  1  0  0  0  0
 13 23  1  0  0  0  0
 13 14  1  0  0  0  0
 14 15  2  0  0  0  0
 14 40  1  0  0  0  0
 15 16  1  0  0  0  0
 16 23  2  0  0  0  0
 16 17  1  0  0  0  0
 17 18  2  0  0  0  0
 17 41  1  0  0  0  0
 18 19  1  0  0  0  0
 18 20  1  0  0  0  0
 19 42  1  0  0  0  0
 19 43  1  0  0  0  0
 19 44  1  0  0  0  0
 20 21  1  0  0  0  0
 20 22  2  0  0  0  0
 21 45  1  0  0  0  0
 21 46  1  0  0  0  0
 21 47  1  0  0  0  0
 22 23  1  0  0  0  0
 22 48  1  0  0  0  0
 24 25  2  0  0  0  0
M  CHG  1   5  -1
M  END
> <s_m_source_file>
AV-unprocessed.smi

> <i_m_source_file_index>
1644

> <i_lp_mmshare_version>
43012

> <i_f3d_flags>
0

> <s_epik_input>
W0NIM11bQ0gyXVtDSDJdW0NAQEhdMVtOSF1DKD1PKU4oQzE9TylbQ0gyXVtDQEhdKFtPSF0pW0NIMl1uKFtjSF1uMiljKGMyMylbY0hdYyhbQ0gzXSljKFtjSF0zKVtDSDNd

> <s_epik_cmdline>
J2VwaWtfcHl0aG9uJywgJy1waCcsICc3LjAnLCAnLXRuJywgJzgnLCAnLW1hJywgJzIwMCcsICctbWV0YWxfYmluZGluZycsICctaW1hZScsICc8aW5maWxlLm1hZT4nLCAnLW9tYWUnLCAnPG91dGZpbGUubWFlPic=

> <r_lp_tautomer_probability>
1

> <r_epik_Ionization_Penalty>
5.95212

> <r_epik_Ionization_Penalty_Charging>
5.84419

> <r_epik_Ionization_Penalty_Neutral>
0.107924

> <r_epik_State_Penalty>
5.94088

> <r_epik_Charging_Adjusted_Penalty>
11.7851

> <i_epik_Tot_Q>
-1

> <i_epik_Tot_abs_Q>
1

> <r_epik_Metal_State_Penalty>
1.99095

> <b_epik_Metal_Only>
1

> <s_lp_Force_Field>
OPLS_2005

> <r_lp_Energy>
19.2974

> <b_lp_Chiralities_Consistent>
1

> <s_lp_Variant>
AV-unprocessed.smi:1644-9

> <Gold.Version>
5.8.1

> <Gold.Id.Protein>
6NUR|6NUR_protein|mol2

> <Gold.PLP.Fitness>
54.0853

> <Gold.PLP.PLP>
-45.0798

> <Gold.PLP.part.hbond>
-1.8883

> <Gold.PLP.part.metal>
0.0000

> <Gold.PLP.part.buried>
-6.9306

> <Gold.PLP.part.nonpolar>
-35.4788

> <Gold.PLP.part.repulsive>
0.1047

> <Gold.PLP.ligand.clash>
0.0000

> <Gold.PLP.ligand.torsion>
1.5420

> <Gold.PLP.Chemscore.Hbond>
3.0000

> <Gold.PLP.Chemscore.CHOScore>
1.0000

> <Gold.PLP.Chemscore.Metal>
0.0000

> <Gold.Chemscore.Hbonds>
donor molecule, donor type, donor heavy atom, donor atom, acceptor molecule, acceptor atom, score
      P1  H  6896  6907       L1     5  2.00
      P1  H  7997  8008       L1    25  1.00
      L1  C    14    40       P1  8028  0.88

> <Gold.PLP.Chemscore.Internal.Correction>
0.0895

> <Gold.Rescore>
     Score         DG    S(hbond)    S(metal)    S(lipo)     H(rot)  DE(clash)    DE(int)     intcor
     14.72     -18.60       1.83        0.00     117.98       2.65       0.05       3.84       ----

> <Gold.Chemscore.Fitness>
14.7190

> <Gold.Chemscore.DG>
-18.6043

> <Gold.Chemscore.ZeroCoef>
-5.4800

> <Gold.Chemscore.Hbond>
1.8266

> <Gold.Chemscore.Metal>
0.0000

> <Gold.Chemscore.Lipo>
117.9823

> <Gold.Chemscore.Internal_Hbond>
0.0000

> <Gold.Chemscore.DEClash>
0.0497

> <Gold.Chemscore.DEInternal>
3.8356

> <Gold.Chemscore.Rot>
2.6486

> <Gold.Chemscore.Internal.Correction>
   9.000000E+99

> <Gold.Chemscore.Hbonds>
donor molecule, donor type, donor heavy atom, donor atom, acceptor molecule, acceptor atom, score
      P1  H  6896  6907       L1     5  0.88
      P1  H  7997  8008       L1    25  0.97

> <Gold.Chemscore.Hbond.Weighted>
-6.1009

> <Gold.Chemscore.Metal.Weighted>
-0.0000

> <Gold.Chemscore.Lipo.Weighted>
-13.8039

> <Gold.Chemscore.Internal_Hbond.Weighted>
0.0000

> <Gold.Chemscore.DEClash.Weighted>
0.0497

> <Gold.Chemscore.DEInternal.Weighted>
3.8356

> <Gold.Chemscore.Rot.Weighted>
6.7804

> <Gold.Chemscore.Internal.Correction.Weighted>
   9.000000E+99

> <Gold.Protein.RotatedTorsions>
[ 6907 6896 6895 6894 ] final  -15.93 input  -60.11 | X-H torsion
[ 7974 7965 7964 7962 ] final  -42.73 input  175.53 | X-H torsion
[ 8008 7997 7996 7995 ] final  -69.28 input   59.86 | X-H torsion
[ 10167 10162 10161 10158 ] final  -33.16 input  -65.29 | X-H torsion
[ 10718 10713 10712 10709 ] final   47.70 input   66.30 | X-H torsion
[ 10763 10752 10751 10750 ] final  -32.88 input  -60.55 | X-H torsion
[ 11005 11000 10999 10996 ] final   41.17 input  -57.11 | X-H torsion

> <Gold.Protein.ActiveResidues>
 VAL166  LYS551  ARG553  GLY616  TRP617  ASP618  TYR619  PRO620  LYS621  CYS622 
 ASP623  PHE694  ASN695  SER759  ASP760  ASP761  ALA762  ILE779  LEU786  VAL792 
 PHE793  MET794  SER795  GLU796  ALA797  LYS798  CYS799  TRP800  GLU811  SER814 

> <Gold.Protein.RotatedAtoms>
  151.3164  135.0807  159.9290 H   0  0  0  0  0  0  0  0  0  0  0  0  # atno 6907 bound_to 6896
  152.5266  133.9683  159.7760 H   0  0  0  0  0  0  0  0  0  0  0  0  # atno 6908 bound_to 6896
  150.9996  133.6017  159.2727 H   0  0  0  0  0  0  0  0  0  0  0  0  # atno 6909 bound_to 6896
  146.0087  140.6989  142.9235 H   0  0  0  0  0  0  0  0  0  0  0  0  # atno 7974 bound_to 7965
  154.4927  140.0856  156.7630 H   0  0  0  0  0  0  0  0  0  0  0  0  # atno 8008 bound_to 7997
  155.4191  140.3445  155.4251 H   0  0  0  0  0  0  0  0  0  0  0  0  # atno 8009 bound_to 7997
  156.1352  140.1513  156.8993 H   0  0  0  0  0  0  0  0  0  0  0  0  # atno 8010 bound_to 7997
  140.7209  143.3641  151.1905 H   0  0  0  0  0  0  0  0  0  0  0  0  # atno 10167 bound_to 10162
  157.4612  130.8197  149.7888 H   0  0  0  0  0  0  0  0  0  0  0  0  # atno 10718 bound_to 10713
  153.8210  135.6874  153.4827 H   0  0  0  0  0  0  0  0  0  0  0  0  # atno 10763 bound_to 10752
  153.1569  135.4595  154.9715 H   0  0  0  0  0  0  0  0  0  0  0  0  # atno 10764 bound_to 10752
  154.7927  135.3308  154.7682 H   0  0  0  0  0  0  0  0  0  0  0  0  # atno 10765 bound_to 10752
  140.1860  134.4045  155.8173 H   0  0  0  0  0  0  0  0  0  0  0  0  # atno 11005 bound_to 11000
  144.6945  140.3361  143.7207 LP  0  0  0  0  0  0  0  0  0  0  0  0  # atno 17320 bound_to 7965
  145.7375  139.1754  143.2395 LP  0  0  0  0  0  0  0  0  0  0  0  0  # atno 17321 bound_to 7965
  139.7199  143.9240  152.2981 LP  0  0  0  0  0  0  0  0  0  0  0  0  # atno 17342 bound_to 10162
  139.8993  144.6921  150.8682 LP  0  0  0  0  0  0  0  0  0  0  0  0  # atno 17343 bound_to 10162
  156.0029  130.3870  150.2537 LP  0  0  0  0  0  0  0  0  0  0  0  0  # atno 17370 bound_to 10713
  157.0715  131.0118  151.3188 LP  0  0  0  0  0  0  0  0  0  0  0  0  # atno 17371 bound_to 10713
  141.2225  133.7023  156.8014 LP  0  0  0  0  0  0  0  0  0  0  0  0  # atno 17394 bound_to 11000
  140.2213  134.8755  157.3380 LP  0  0  0  0  0  0  0  0  0  0  0  0  # atno 17395 bound_to 11000

$$$$
