AV-unprocessed.smi:98|AV-procd|sdf|864|dock3
  -GOLD-   2262017313D 1   1.00000     0.00000
 Structure written by MMmdl.
 56 59  0  0  0  0  0  0  0  0  1 V2000
  150.9140  137.7998  160.7993 O   0  0  0  0  0  0  0  0  0  0  0  0
  150.2671  138.0847  159.7905 C   0  0  0  0  0  0  0  0  0  0  0  0
  150.8507  139.0406  158.7384 C   0  0  0  0  0  0  0  0  0  0  0  0
  151.9294  139.9031  159.2689 N   0  0  0  0  0  0  0  0  0  0  0  0
  153.1016  139.2822  159.7672 C   0  0  0  0  0  0  0  0  0  0  0  0
  153.2302  138.0569  159.7538 O   0  0  0  0  0  0  0  0  0  0  0  0
  154.1217  140.1862  160.2855 C   0  0  0  0  0  0  0  0  0  0  0  0
  155.2536  139.6839  160.8075 F   0  0  0  0  0  0  0  0  0  0  0  0
  153.9450  141.5228  160.2538 C   0  0  0  0  0  0  0  0  0  0  0  0
  152.8155  142.1176  159.7275 N   0  0  0  0  0  0  0  0  0  0  0  0
  152.6906  143.6232  159.7606 C   0  0  1  0  0  0  0  0  0  0  0  0
  152.3963  144.2475  158.3834 C   0  0  0  0  0  0  0  0  0  0  0  0
  151.0925  144.9921  158.6201 C   0  0  0  0  0  0  0  0  0  0  0  0
  151.0733  145.1724  160.1341 C   0  0  0  0  0  0  0  0  0  0  0  0
  151.6427  143.9648  160.6145 O   0  0  0  0  0  0  0  0  0  0  0  0
  151.7615  141.3088  159.2427 C   0  0  0  0  0  0  0  0  0  0  0  0
  150.7247  141.8117  158.8065 O   0  0  0  0  0  0  0  0  0  0  0  0
  149.0367  137.6122  159.5203 N   0  0  0  0  0  0  0  0  0  0  0  0
  148.2558  136.7126  160.2930 C   0  0  0  0  0  0  0  0  0  0  0  0
  148.5532  136.6061  161.6683 C   0  0  0  0  0  0  0  0  0  0  0  0
  147.8029  135.7499  162.4972 C   0  0  0  0  0  0  0  0  0  0  0  0
  146.7391  135.0065  161.9495 C   0  0  0  0  0  0  0  0  0  0  0  0
  145.7760  133.9213  162.9985 S   0  0  0  0  0  0  0  0  0  0  0  0
  144.8136  133.1898  162.1594 O   0  0  0  0  0  0  0  0  0  0  0  0
  146.6982  133.1854  163.8779 O   0  0  0  0  0  0  0  0  0  0  0  0
  144.8857  135.0419  163.9772 N   0  0  0  0  0  0  0  0  0  0  0  0
  144.8475  136.4562  163.5684 C   0  0  0  0  0  0  0  0  0  0  0  0
  144.3337  137.3469  164.7107 C   0  0  0  0  0  0  0  0  0  0  0  0
  143.0858  136.8631  165.1841 O   0  0  0  0  0  0  0  0  0  0  0  0
  143.2097  135.5595  165.7322 C   0  0  0  0  0  0  0  0  0  0  0  0
  143.6630  134.5687  164.6476 C   0  0  0  0  0  0  0  0  0  0  0  0
  146.4190  135.1188  160.5825 C   0  0  0  0  0  0  0  0  0  0  0  0
  147.1744  135.9725  159.7555 C   0  0  0  0  0  0  0  0  0  0  0  0
  151.1961  138.4425  157.8938 H   0  0  0  0  0  0  0  0  0  0  0  0
  150.0492  139.6494  158.3159 H   0  0  0  0  0  0  0  0  0  0  0  0
  154.7294  142.1483  160.6547 H   0  0  0  0  0  0  0  0  0  0  0  0
  153.6273  143.9945  160.1790 H   0  0  0  0  0  0  0  0  0  0  0  0
  153.2037  144.9370  158.1348 H   0  0  0  0  0  0  0  0  0  0  0  0
  152.3234  143.5019  157.5911 H   0  0  0  0  0  0  0  0  0  0  0  0
  151.0383  145.9375  158.0800 H   0  0  0  0  0  0  0  0  0  0  0  0
  150.2469  144.3781  158.3088 H   0  0  0  0  0  0  0  0  0  0  0  0
  151.6974  146.0157  160.4344 H   0  0  0  0  0  0  0  0  0  0  0  0
  150.0687  145.3282  160.5278 H   0  0  0  0  0  0  0  0  0  0  0  0
  148.5773  138.0073  158.7124 H   0  0  0  0  0  0  0  0  0  0  0  0
  149.3664  137.1769  162.0928 H   0  0  0  0  0  0  0  0  0  0  0  0
  148.0477  135.6685  163.5459 H   0  0  0  0  0  0  0  0  0  0  0  0
  145.8419  136.7830  163.2646 H   0  0  0  0  0  0  0  0  0  0  0  0
  144.1965  136.5551  162.6993 H   0  0  0  0  0  0  0  0  0  0  0  0
  145.0567  137.3850  165.5273 H   0  0  0  0  0  0  0  0  0  0  0  0
  144.2041  138.3695  164.3563 H   0  0  0  0  0  0  0  0  0  0  0  0
  143.9130  135.5687  166.5665 H   0  0  0  0  0  0  0  0  0  0  0  0
  142.2449  135.2537  166.1372 H   0  0  0  0  0  0  0  0  0  0  0  0
  142.8772  134.4463  163.9013 H   0  0  0  0  0  0  0  0  0  0  0  0
  143.8376  133.5896  165.0937 H   0  0  0  0  0  0  0  0  0  0  0  0
  145.5973  134.5556  160.1655 H   0  0  0  0  0  0  0  0  0  0  0  0
  146.9003  136.0587  158.7149 H   0  0  0  0  0  0  0  0  0  0  0  0
  1  2  2  0  0  0  0
  2  3  1  0  0  0  0
  2 18  1  0  0  0  0
  3  4  1  0  0  0  0
  3 34  1  0  0  0  0
  3 35  1  0  0  0  0
  4 16  1  0  0  0  0
  4  5  1  0  0  0  0
  5  6  2  0  0  0  0
  5  7  1  0  0  0  0
  7  8  1  0  0  0  0
  7  9  2  0  0  0  0
  9 10  1  0  0  0  0
  9 36  1  0  0  0  0
 10 11  1  0  0  0  0
 10 16  1  0  0  0  0
 11 15  1  0  0  0  0
 11 12  1  0  0  0  0
 11 37  1  0  0  0  0
 12 13  1  0  0  0  0
 12 38  1  0  0  0  0
 12 39  1  0  0  0  0
 13 14  1  0  0  0  0
 13 40  1  0  0  0  0
 13 41  1  0  0  0  0
 14 15  1  0  0  0  0
 14 42  1  0  0  0  0
 14 43  1  0  0  0  0
 16 17  2  0  0  0  0
 18 19  1  0  0  0  0
 18 44  1  0  0  0  0
 19 33  1  0  0  0  0
 19 20  2  0  0  0  0
 20 21  1  0  0  0  0
 20 45  1  0  0  0  0
 21 22  2  0  0  0  0
 21 46  1  0  0  0  0
 22 23  1  0  0  0  0
 22 32  1  0  0  0  0
 23 24  2  0  0  0  0
 23 25  2  0  0  0  0
 23 26  1  0  0  0  0
 26 31  1  0  0  0  0
 26 27  1  0  0  0  0
 27 28  1  0  0  0  0
 27 47  1  0  0  0  0
 27 48  1  0  0  0  0
 28 29  1  0  0  0  0
 28 49  1  0  0  0  0
 28 50  1  0  0  0  0
 29 30  1  0  0  0  0
 30 31  1  0  0  0  0
 30 51  1  0  0  0  0
 30 52  1  0  0  0  0
 31 53  1  0  0  0  0
 31 54  1  0  0  0  0
 32 33  2  0  0  0  0
 32 55  1  0  0  0  0
 33 56  1  0  0  0  0
M  END
> <s_m_source_file>
AV-unprocessed.smi

> <i_m_source_file_index>
98

> <i_lp_mmshare_version>
43012

> <i_f3d_flags>
0

> <s_epik_input>
TzFbQ0gyXVtDSDJdW0NIMl1bQ0BIXTFuKGMyPU8pW2NIXWMoRiljKD1PKW4yW0NIMl1DKD1PKVtOSF1jM1tjSF1bY0hdYyhbY0hdW2NIXTMpUyg9TykoPU8pTjRbQ0gyXVtDSDJdT1tDSDJdW0NIMl00

> <s_epik_cmdline>
J2VwaWtfcHl0aG9uJywgJy1waCcsICc3LjAnLCAnLXRuJywgJzgnLCAnLW1hJywgJzIwMCcsICctbWV0YWxfYmluZGluZycsICctaW1hZScsICc8aW5maWxlLm1hZT4nLCAnLW9tYWUnLCAnPG91dGZpbGUubWFlPic=

> <r_lp_tautomer_probability>
1

> <r_epik_Ionization_Penalty>
1.9271e-06

> <r_epik_Ionization_Penalty_Charging>
3.88729e-08

> <r_epik_Ionization_Penalty_Neutral>
1.88823e-06

> <r_epik_State_Penalty>
-0

> <r_epik_Charging_Adjusted_Penalty>
3.88729e-08

> <i_epik_Tot_Q>
0

> <i_epik_Tot_abs_Q>
0

> <r_epik_Metal_State_Penalty>
-0

> <b_epik_Metal_Only>
0

> <s_epik_Chemistry_Notes>
This compound contains an acetal/aminal-like group ( X-CH(R)-Y where X, Y are N, S, or O) that may be acid/base labile, releasing an aldehyde.

> <s_lp_Force_Field>
OPLS_2005

> <r_lp_Energy>
28.5933

> <b_lp_Chiralities_Consistent>
1

> <s_lp_Variant>
AV-unprocessed.smi:98-2

> <Gold.Version>
5.8.1

> <Gold.Id.Protein>
6NUR|6NUR_protein|mol2

> <Gold.PLP.Fitness>
53.3193

> <Gold.PLP.PLP>
-54.5335

> <Gold.PLP.part.hbond>
-1.0000

> <Gold.PLP.part.metal>
0.0000

> <Gold.PLP.part.buried>
-8.1753

> <Gold.PLP.part.nonpolar>
-47.0281

> <Gold.PLP.part.repulsive>
0.3826

> <Gold.PLP.ligand.clash>
0.0000

> <Gold.PLP.ligand.torsion>
2.6907

> <Gold.PLP.Chemscore.Hbond>
0.0000

> <Gold.PLP.Chemscore.CHOScore>
0.0000

> <Gold.PLP.Chemscore.Metal>
0.0000

> <Gold.PLP.Chemscore.Internal.Correction>
4.1672

> <Gold.Rescore>
     Score         DG    S(hbond)    S(metal)    S(lipo)     H(rot)  DE(clash)    DE(int)     intcor
      8.07     -15.97       0.77        0.00     104.41       1.67       0.38       7.52       ----

> <Gold.Chemscore.Fitness>
8.0682

> <Gold.Chemscore.DG>
-15.9707

> <Gold.Chemscore.ZeroCoef>
-5.4800

> <Gold.Chemscore.Hbond>
0.7670

> <Gold.Chemscore.Metal>
0.0000

> <Gold.Chemscore.Lipo>
104.4053

> <Gold.Chemscore.Internal_Hbond>
0.0000

> <Gold.Chemscore.DEClash>
0.3806

> <Gold.Chemscore.DEInternal>
7.5219

> <Gold.Chemscore.Rot>
1.6744

> <Gold.Chemscore.Internal.Correction>
   9.000000E+99

> <Gold.Chemscore.Hbond.Weighted>
-2.5618

> <Gold.Chemscore.Metal.Weighted>
-0.0000

> <Gold.Chemscore.Lipo.Weighted>
-12.2154

> <Gold.Chemscore.Internal_Hbond.Weighted>
0.0000

> <Gold.Chemscore.DEClash.Weighted>
0.3806

> <Gold.Chemscore.DEInternal.Weighted>
7.5219

> <Gold.Chemscore.Rot.Weighted>
4.2865

> <Gold.Chemscore.Internal.Correction.Weighted>
   9.000000E+99

> <Gold.Protein.RotatedTorsions>
[ 6907 6896 6895 6894 ] final -113.53 input  -60.11 | X-H torsion
[ 7974 7965 7964 7962 ] final -176.41 input  175.53 | X-H torsion
[ 8008 7997 7996 7995 ] final  148.82 input   59.86 | X-H torsion
[ 10167 10162 10161 10158 ] final -172.70 input  -65.29 | X-H torsion
[ 10718 10713 10712 10709 ] final   53.52 input   66.30 | X-H torsion
[ 10763 10752 10751 10750 ] final  177.70 input  -60.55 | X-H torsion
[ 11005 11000 10999 10996 ] final -121.12 input  -57.11 | X-H torsion

> <Gold.Protein.ActiveResidues>
 VAL166  LYS551  ARG553  GLY616  TRP617  ASP618  TYR619  PRO620  LYS621  CYS622 
 ASP623  PHE694  ASN695  SER759  ASP760  ASP761  ALA762  ILE779  LEU786  VAL792 
 PHE793  MET794  SER795  GLU796  ALA797  LYS798  CYS799  TRP800  GLU811  SER814 

> <Gold.Protein.RotatedAtoms>
  150.7836  133.8932  159.3319 H   0  0  0  0  0  0  0  0  0  0  0  0  # atno 6907 bound_to 6896
  151.6788  135.0963  160.0221 H   0  0  0  0  0  0  0  0  0  0  0  0  # atno 6908 bound_to 6896
  152.3894  133.6618  159.6260 H   0  0  0  0  0  0  0  0  0  0  0  0  # atno 6909 bound_to 6896
  144.7127  140.1175  143.6407 H   0  0  0  0  0  0  0  0  0  0  0  0  # atno 7974 bound_to 7965
  156.2777  140.2118  156.5760 H   0  0  0  0  0  0  0  0  0  0  0  0  # atno 8008 bound_to 7997
  154.7097  140.0513  157.0561 H   0  0  0  0  0  0  0  0  0  0  0  0  # atno 8009 bound_to 7997
  155.0622  140.3168  155.4660 H   0  0  0  0  0  0  0  0  0  0  0  0  # atno 8010 bound_to 7997
  139.5730  144.1598  152.1411 H   0  0  0  0  0  0  0  0  0  0  0  0  # atno 10167 bound_to 10162
  157.5174  130.8542  149.8514 H   0  0  0  0  0  0  0  0  0  0  0  0  # atno 10718 bound_to 10713
  154.4979  135.2782  155.1444 H   0  0  0  0  0  0  0  0  0  0  0  0  # atno 10763 bound_to 10752
  154.3089  135.6233  153.5461 H   0  0  0  0  0  0  0  0  0  0  0  0  # atno 10764 bound_to 10752
  152.9898  135.5715  154.5415 H   0  0  0  0  0  0  0  0  0  0  0  0  # atno 10765 bound_to 10752
  141.0093  134.0288  157.3435 H   0  0  0  0  0  0  0  0  0  0  0  0  # atno 11005 bound_to 11000
  145.9400  139.2663  143.1274 LP  0  0  0  0  0  0  0  0  0  0  0  0  # atno 17320 bound_to 7965
  145.9433  140.8963  143.0296 LP  0  0  0  0  0  0  0  0  0  0  0  0  # atno 17321 bound_to 7965
  140.1135  144.5436  150.6909 LP  0  0  0  0  0  0  0  0  0  0  0  0  # atno 17342 bound_to 10162
  140.7014  143.2437  151.4854 LP  0  0  0  0  0  0  0  0  0  0  0  0  # atno 17343 bound_to 10162
  156.0330  130.3759  150.1636 LP  0  0  0  0  0  0  0  0  0  0  0  0  # atno 17370 bound_to 10713
  156.9825  130.9868  151.3434 LP  0  0  0  0  0  0  0  0  0  0  0  0  # atno 17371 bound_to 10713
  139.9081  135.0184  156.7573 LP  0  0  0  0  0  0  0  0  0  0  0  0  # atno 17394 bound_to 11000
  140.6760  133.9517  155.7883 LP  0  0  0  0  0  0  0  0  0  0  0  0  # atno 17395 bound_to 11000

$$$$
