AV-unprocessed.smi:2790|AV-procd|sdf|10766|dock3
  -GOLD-   2272015203D 1   1.00000     0.00000
 Structure written by MMmdl.
 46 47  0  0  0  0  0  0  0  0  2 V2000
  145.3217  136.9254  153.0105 C   0  0  0  0  0  0  0  0  0  0  0  0
  146.1194  136.6876  151.7847 N   0  3  0  0  0  0  0  0  0  0  0  0
  145.5041  135.6525  150.9258 C   0  0  0  0  0  0  0  0  0  0  0  0
  146.4226  137.9335  151.0354 C   0  0  0  0  0  0  0  0  0  0  0  0
  146.9135  139.0711  151.9361 C   0  0  0  0  0  0  0  0  0  0  0  0
  146.4443  140.2041  151.8256 O   0  0  0  0  0  0  0  0  0  0  0  0
  147.8520  138.7489  152.8359 N   0  0  0  0  0  0  0  0  0  0  0  0
  148.4571  139.6887  153.7751 C   0  0  0  0  0  0  0  0  0  0  0  0
  149.4834  139.0073  154.7164 C   0  0  0  0  0  0  0  0  0  0  0  0
  149.8598  139.9983  155.8439 C   0  0  0  0  0  0  0  0  0  0  0  0
  150.3770  141.2926  155.5842 C   0  0  0  0  0  0  0  0  0  0  0  0
  150.6696  142.1481  156.6645 C   0  0  0  0  0  0  0  0  0  0  0  0
  150.4696  141.8114  157.9543 N   0  0  0  0  0  0  0  0  0  0  0  0
  149.9597  140.5897  158.2082 C   0  0  0  0  0  0  0  0  0  0  0  0
  149.6348  139.6606  157.2006 C   0  0  0  0  0  0  0  0  0  0  0  0
  148.8317  137.7137  155.2859 C   0  0  0  0  0  0  0  0  0  0  0  0
  149.8067  136.8657  156.1220 C   0  0  0  0  0  0  0  0  0  0  0  0
  151.0199  136.4462  155.2812 C   0  0  0  0  0  0  0  0  0  0  0  0
  151.7095  137.6692  154.6620 C   0  0  0  0  0  0  0  0  0  0  0  0
  150.7081  138.5372  153.8714 C   0  0  0  0  0  0  0  0  0  0  0  0
  144.3380  137.3277  152.7651 H   0  0  0  0  0  0  0  0  0  0  0  0
  145.8203  137.6286  153.6781 H   0  0  0  0  0  0  0  0  0  0  0  0
  145.1813  135.9951  153.5619 H   0  0  0  0  0  0  0  0  0  0  0  0
  144.5431  135.9898  150.5353 H   0  0  0  0  0  0  0  0  0  0  0  0
  145.3413  134.7317  151.4869 H   0  0  0  0  0  0  0  0  0  0  0  0
  146.1527  135.4136  150.0823 H   0  0  0  0  0  0  0  0  0  0  0  0
  147.2174  137.7413  150.3135 H   0  0  0  0  0  0  0  0  0  0  0  0
  145.5481  138.2472  150.4625 H   0  0  0  0  0  0  0  0  0  0  0  0
  148.1829  137.7952  152.8669 H   0  0  0  0  0  0  0  0  0  0  0  0
  148.9478  140.4776  153.2024 H   0  0  0  0  0  0  0  0  0  0  0  0
  147.6694  140.1734  154.3547 H   0  0  0  0  0  0  0  0  0  0  0  0
  150.5566  141.6519  154.5838 H   0  0  0  0  0  0  0  0  0  0  0  0
  151.0697  143.1352  156.4854 H   0  0  0  0  0  0  0  0  0  0  0  0
  149.7965  140.3466  159.2477 H   0  0  0  0  0  0  0  0  0  0  0  0
  149.2096  138.7108  157.4849 H   0  0  0  0  0  0  0  0  0  0  0  0
  147.9398  137.9329  155.8707 H   0  0  0  0  0  0  0  0  0  0  0  0
  148.4755  137.0980  154.4583 H   0  0  0  0  0  0  0  0  0  0  0  0
  150.1360  137.4242  156.9990 H   0  0  0  0  0  0  0  0  0  0  0  0
  149.2965  135.9783  156.4970 H   0  0  0  0  0  0  0  0  0  0  0  0
  151.7271  135.8868  155.8943 H   0  0  0  0  0  0  0  0  0  0  0  0
  150.6963  135.7711  154.4879 H   0  0  0  0  0  0  0  0  0  0  0  0
  152.1862  138.2511  155.4500 H   0  0  0  0  0  0  0  0  0  0  0  0
  152.5129  137.3414  154.0020 H   0  0  0  0  0  0  0  0  0  0  0  0
  150.3482  137.9392  153.0327 H   0  0  0  0  0  0  0  0  0  0  0  0
  151.2232  139.3781  153.4084 H   0  0  0  0  0  0  0  0  0  0  0  0
  147.0102  136.3150  152.0830 H   0  0  0  0  0  0  0  0  0  0  0  0
  1  2  1  0  0  0  0
  1 21  1  0  0  0  0
  1 22  1  0  0  0  0
  1 23  1  0  0  0  0
  2  3  1  0  0  0  0
  2  4  1  0  0  0  0
  2 46  1  0  0  0  0
  3 24  1  0  0  0  0
  3 25  1  0  0  0  0
  3 26  1  0  0  0  0
  4  5  1  0  0  0  0
  4 27  1  0  0  0  0
  4 28  1  0  0  0  0
  5  6  2  0  0  0  0
  5  7  1  0  0  0  0
  7  8  1  0  0  0  0
  7 29  1  0  0  0  0
  8  9  1  0  0  0  0
  8 30  1  0  0  0  0
  8 31  1  0  0  0  0
  9 20  1  0  0  0  0
  9 10  1  0  0  0  0
  9 16  1  0  0  0  0
 10 15  1  0  0  0  0
 10 11  2  0  0  0  0
 11 12  1  0  0  0  0
 11 32  1  0  0  0  0
 12 13  2  0  0  0  0
 12 33  1  0  0  0  0
 13 14  1  0  0  0  0
 14 15  2  0  0  0  0
 14 34  1  0  0  0  0
 15 35  1  0  0  0  0
 16 17  1  0  0  0  0
 16 36  1  0  0  0  0
 16 37  1  0  0  0  0
 17 18  1  0  0  0  0
 17 38  1  0  0  0  0
 17 39  1  0  0  0  0
 18 19  1  0  0  0  0
 18 40  1  0  0  0  0
 18 41  1  0  0  0  0
 19 20  1  0  0  0  0
 19 42  1  0  0  0  0
 19 43  1  0  0  0  0
 20 44  1  0  0  0  0
 20 45  1  0  0  0  0
M  CHG  1   2   1
M  END
> <s_m_source_file>
AV-unprocessed.smi

> <i_m_source_file_index>
2790

> <i_lp_mmshare_version>
43012

> <i_f3d_flags>
0

> <s_epik_input>
W0NIM11OKFtDSDNdKVtDSDJdQyg9TylbTkhdW0NIMl1DMShbQ0gyXVtDSDJdW0NIMl1bQ0gyXVtDSDJdMSljMltjSF1bY0hdbltjSF1bY0hdMg==

> <s_epik_cmdline>
J2VwaWtfcHl0aG9uJywgJy1waCcsICc3LjAnLCAnLXRuJywgJzgnLCAnLW1hJywgJzIwMCcsICctbWV0YWxfYmluZGluZycsICctaW1hZScsICc8aW5maWxlLm1hZT4nLCAnLW9tYWUnLCAnPG91dGZpbGUubWFlPic=

> <r_epik_Ionization_Penalty>
0.089928

> <r_epik_Ionization_Penalty_Charging>
0.0368445

> <r_epik_Ionization_Penalty_Neutral>
0.0530835

> <r_epik_State_Penalty>
0.0777876

> <r_epik_Charging_Adjusted_Penalty>
0.114632

> <i_epik_Tot_Q>
1

> <i_epik_Tot_abs_Q>
1

> <r_epik_Metal_State_Penalty>
0.0848697

> <b_epik_Metal_Only>
0

> <s_lp_Force_Field>
OPLS_2005

> <r_lp_Energy>
21.8656

> <b_lp_Chiralities_Consistent>
1

> <s_lp_Variant>
AV-unprocessed.smi:2790-1

> <Gold.Version>
5.8.1

> <Gold.Id.Protein>
6NUR|6NUR_protein|mol2

> <Gold.PLP.Fitness>
34.8034

> <Gold.PLP.PLP>
-26.0983

> <Gold.PLP.part.hbond>
-3.0000

> <Gold.PLP.part.metal>
0.0000

> <Gold.PLP.part.buried>
6.8161

> <Gold.PLP.part.nonpolar>
-31.0562

> <Gold.PLP.part.repulsive>
1.9728

> <Gold.PLP.ligand.clash>
0.0000

> <Gold.PLP.ligand.torsion>
0.3310

> <Gold.PLP.Chemscore.Hbond>
2.9760

> <Gold.PLP.Chemscore.CHOScore>
0.1221

> <Gold.PLP.Chemscore.Metal>
0.0000

> <Gold.Chemscore.Hbonds>
donor molecule, donor type, donor heavy atom, donor atom, acceptor molecule, acceptor atom, score
      L1  H     2    46       P1  7948  1.92
      L1  H     7    29       P1  7948  0.93
      L1  C    12    33       P1  8028  0.16

> <Gold.PLP.Chemscore.Internal.Correction>
0.0730

> <Gold.Rescore>
     Score         DG    S(hbond)    S(metal)    S(lipo)     H(rot)  DE(clash)    DE(int)     intcor
     11.36     -16.96       1.82        0.00      82.26       1.65       3.90       1.70       ----

> <Gold.Chemscore.Fitness>
11.3590

> <Gold.Chemscore.DG>
-16.9584

> <Gold.Chemscore.ZeroCoef>
-5.4800

> <Gold.Chemscore.Hbond>
1.8234

> <Gold.Chemscore.Metal>
0.0000

> <Gold.Chemscore.Lipo>
82.2600

> <Gold.Chemscore.Internal_Hbond>
0.0000

> <Gold.Chemscore.DEClash>
3.9030

> <Gold.Chemscore.DEInternal>
1.6964

> <Gold.Chemscore.Rot>
1.6547

> <Gold.Chemscore.Internal.Correction>
   9.000000E+99

> <Gold.Chemscore.Hbonds>
donor molecule, donor type, donor heavy atom, donor atom, acceptor molecule, acceptor atom, score
      L1  H     2    46       P1  7948  0.92
      L1  H     7    29       P1  7948  0.87

> <Gold.Chemscore.Hbond.Weighted>
-6.0901

> <Gold.Chemscore.Metal.Weighted>
-0.0000

> <Gold.Chemscore.Lipo.Weighted>
-9.6244

> <Gold.Chemscore.Internal_Hbond.Weighted>
0.0000

> <Gold.Chemscore.DEClash.Weighted>
3.9030

> <Gold.Chemscore.DEInternal.Weighted>
1.6964

> <Gold.Chemscore.Rot.Weighted>
4.2361

> <Gold.Chemscore.Internal.Correction.Weighted>
   9.000000E+99

> <Gold.Protein.RotatedTorsions>
[ 6907 6896 6895 6894 ] final  -13.89 input  -60.11 | X-H torsion
[ 7974 7965 7964 7962 ] final  -99.23 input  175.53 | X-H torsion
[ 8008 7997 7996 7995 ] final  116.79 input   59.86 | X-H torsion
[ 10167 10162 10161 10158 ] final  156.76 input  -65.29 | X-H torsion
[ 10718 10713 10712 10709 ] final -117.76 input   66.30 | X-H torsion
[ 10763 10752 10751 10750 ] final  -43.19 input  -60.55 | X-H torsion
[ 11005 11000 10999 10996 ] final   14.30 input  -57.11 | X-H torsion

> <Gold.Protein.ActiveResidues>
 VAL166  LYS551  ARG553  GLY616  TRP617  ASP618  TYR619  PRO620  LYS621  CYS622 
 ASP623  PHE694  ASN695  SER759  ASP760  ASP761  ALA762  ILE779  LEU786  VAL792 
 PHE793  MET794  SER795  GLU796  ALA797  LYS798  CYS799  TRP800  GLU811  SER814 

> <Gold.Protein.RotatedAtoms>
  151.3478  135.0878  159.9392 H   0  0  0  0  0  0  0  0  0  0  0  0  # atno 6907 bound_to 6896
  152.5195  133.9382  159.7624 H   0  0  0  0  0  0  0  0  0  0  0  0  # atno 6908 bound_to 6896
  150.9752  133.6249  159.2761 H   0  0  0  0  0  0  0  0  0  0  0  0  # atno 6909 bound_to 6896
  145.3103  140.9398  143.2773 H   0  0  0  0  0  0  0  0  0  0  0  0  # atno 7974 bound_to 7965
  156.2458  140.2910  156.0577 H   0  0  0  0  0  0  0  0  0  0  0  0  # atno 8008 bound_to 7997
  155.1810  140.0404  157.2899 H   0  0  0  0  0  0  0  0  0  0  0  0  # atno 8009 bound_to 7997
  154.6259  140.2487  155.7499 H   0  0  0  0  0  0  0  0  0  0  0  0  # atno 8010 bound_to 7997
  139.4821  144.4979  151.8212 H   0  0  0  0  0  0  0  0  0  0  0  0  # atno 10167 bound_to 10162
  156.1057  130.6208  150.9205 H   0  0  0  0  0  0  0  0  0  0  0  0  # atno 10718 bound_to 10713
  153.9914  135.6705  153.4754 H   0  0  0  0  0  0  0  0  0  0  0  0  # atno 10763 bound_to 10752
  153.0703  135.4978  154.8287 H   0  0  0  0  0  0  0  0  0  0  0  0  # atno 10764 bound_to 10752
  154.7107  135.3097  154.9164 H   0  0  0  0  0  0  0  0  0  0  0  0  # atno 10765 bound_to 10752
  140.4710  134.1031  155.7733 H   0  0  0  0  0  0  0  0  0  0  0  0  # atno 11005 bound_to 11000
  144.9021  139.4636  143.6627 LP  0  0  0  0  0  0  0  0  0  0  0  0  # atno 17320 bound_to 7965
  146.3120  139.7782  142.9012 LP  0  0  0  0  0  0  0  0  0  0  0  0  # atno 17321 bound_to 7965
  140.4469  144.1908  150.5894 LP  0  0  0  0  0  0  0  0  0  0  0  0  # atno 17342 bound_to 10162
  140.4625  143.2443  151.9200 LP  0  0  0  0  0  0  0  0  0  0  0  0  # atno 17343 bound_to 10162
  157.6233  131.0928  150.8581 LP  0  0  0  0  0  0  0  0  0  0  0  0  # atno 17370 bound_to 10713
  156.8700  130.5143  149.5297 LP  0  0  0  0  0  0  0  0  0  0  0  0  # atno 17371 bound_to 10713
  141.1577  133.8852  157.1933 LP  0  0  0  0  0  0  0  0  0  0  0  0  # atno 17394 bound_to 11000
  139.9885  135.0073  156.9919 LP  0  0  0  0  0  0  0  0  0  0  0  0  # atno 17395 bound_to 11000

$$$$
