AV-unprocessed.smi:203|AV-procd|sdf|1597|dock1
  -GOLD-   2262019503D 1   1.00000     0.00000
 Structure written by MMmdl.
 57 61  0  0  0  0  0  0  0  0  1 V2000
  154.6260  137.3964  162.8203 O   0  0  0  0  0  0  0  0  0  0  0  0
  154.3116  137.7527  161.6872 C   0  0  0  0  0  0  0  0  0  0  0  0
  154.8805  138.9864  161.0079 C   0  0  0  0  0  0  0  0  0  0  0  0
  154.0200  139.1308  159.7360 C   0  0  2  0  0  0  0  0  0  0  0  0
  153.0682  140.3693  159.7358 C   0  0  1  0  0  0  0  0  0  0  0  0
  153.6689  141.5882  160.4857 C   0  0  0  0  0  0  0  0  0  0  0  0
  152.7175  142.7919  160.4699 C   0  0  0  0  0  0  0  0  0  0  0  0
  152.3505  143.1467  159.0254 C   0  0  0  0  0  0  0  0  0  0  0  0
  151.7519  141.9271  158.3124 C   0  0  0  0  0  0  0  0  0  0  0  0
  152.6511  140.7754  158.3812 N   0  0  0  0  0  0  0  0  0  0  0  0
  152.2165  139.7929  157.5608 C   0  0  0  0  0  0  0  0  0  0  0  0
  152.8694  139.6376  156.3830 N   0  0  0  0  0  0  0  0  0  0  0  0
  152.4920  138.6781  155.5326 C   0  0  0  0  0  0  0  0  0  0  0  0
  151.5065  137.7868  155.6626 N   0  0  0  0  0  0  0  0  0  0  0  0
  150.8441  137.9477  156.8439 C   0  0  0  0  0  0  0  0  0  0  0  0
  151.1276  138.9204  157.8429 C   0  0  0  0  0  0  0  0  0  0  0  0
  150.2400  138.7840  158.9039 N   0  0  0  0  0  0  0  0  0  0  0  0
  149.4774  137.7844  158.5534 C   0  0  0  0  0  0  0  0  0  0  0  0
  149.7704  137.2239  157.3310 N   0  0  0  0  0  0  0  0  0  0  0  0
  149.0864  136.1056  156.7044 C   0  0  0  0  0  0  0  0  0  0  0  0
  149.9714  134.8438  156.6159 C   0  0  1  0  0  0  0  0  0  0  0  0
  150.0972  134.3011  157.9164 O   0  0  0  0  0  0  0  0  0  0  0  0
  149.3750  133.7498  155.7071 C   0  0  1  0  0  0  0  0  0  0  0  0
  149.2454  134.1368  154.2324 C   0  0  0  0  0  0  0  0  0  0  0  0
  149.2442  132.7996  153.5105 C   0  0  0  0  0  0  0  0  0  0  0  0
  149.8474  131.8325  154.5318 C   0  0  0  0  0  0  0  0  0  0  0  0
  150.2697  132.6510  155.6139 O   0  0  0  0  0  0  0  0  0  0  0  0
  153.2749  137.7848  159.6051 C   0  0  0  0  0  0  0  0  0  0  0  0
  153.4459  137.1321  160.8885 N   0  0  0  0  0  0  0  0  0  0  0  0
  154.8367  139.8575  161.6620 H   0  0  0  0  0  0  0  0  0  0  0  0
  155.9257  138.8070  160.7553 H   0  0  0  0  0  0  0  0  0  0  0  0
  154.6865  139.1969  158.8756 H   0  0  0  0  0  0  0  0  0  0  0  0
  152.1637  140.0828  160.2732 H   0  0  0  0  0  0  0  0  0  0  0  0
  153.8974  141.3356  161.5204 H   0  0  0  0  0  0  0  0  0  0  0  0
  154.6134  141.8855  160.0299 H   0  0  0  0  0  0  0  0  0  0  0  0
  151.8146  142.5578  161.0352 H   0  0  0  0  0  0  0  0  0  0  0  0
  153.1834  143.6467  160.9606 H   0  0  0  0  0  0  0  0  0  0  0  0
  151.6421  143.9752  159.0091 H   0  0  0  0  0  0  0  0  0  0  0  0
  153.2395  143.4848  158.4911 H   0  0  0  0  0  0  0  0  0  0  0  0
  150.7955  141.6670  158.7681 H   0  0  0  0  0  0  0  0  0  0  0  0
  151.5489  142.1801  157.2705 H   0  0  0  0  0  0  0  0  0  0  0  0
  153.0615  138.6148  154.6171 H   0  0  0  0  0  0  0  0  0  0  0  0
  148.6733  137.4266  159.1802 H   0  0  0  0  0  0  0  0  0  0  0  0
  148.1735  135.8927  157.2624 H   0  0  0  0  0  0  0  0  0  0  0  0
  148.7740  136.4267  155.7105 H   0  0  0  0  0  0  0  0  0  0  0  0
  150.9616  135.1232  156.2535 H   0  0  0  0  0  0  0  0  0  0  0  0
  150.7822  133.6503  157.9054 H   0  0  0  0  0  0  0  0  0  0  0  0
  148.4078  133.4099  156.0839 H   0  0  0  0  0  0  0  0  0  0  0  0
  148.3525  134.7273  154.0256 H   0  0  0  0  0  0  0  0  0  0  0  0
  150.1143  134.7175  153.9190 H   0  0  0  0  0  0  0  0  0  0  0  0
  148.2307  132.4928  153.2490 H   0  0  0  0  0  0  0  0  0  0  0  0
  149.8301  132.8453  152.5917 H   0  0  0  0  0  0  0  0  0  0  0  0
  149.0938  131.1276  154.8848 H   0  0  0  0  0  0  0  0  0  0  0  0
  150.6836  131.2631  154.1259 H   0  0  0  0  0  0  0  0  0  0  0  0
  152.2204  137.8963  159.3521 H   0  0  0  0  0  0  0  0  0  0  0  0
  153.7316  137.1624  158.8346 H   0  0  0  0  0  0  0  0  0  0  0  0
  152.9504  136.2887  161.1396 H   0  0  0  0  0  0  0  0  0  0  0  0
  1  2  2  0  0  0  0
  2 29  1  0  0  0  0
  2  3  1  0  0  0  0
  3  4  1  0  0  0  0
  3 30  1  0  0  0  0
  3 31  1  0  0  0  0
  4  5  1  0  0  0  0
  4 28  1  0  0  0  0
  4 32  1  0  0  0  0
  5 10  1  0  0  0  0
  5  6  1  0  0  0  0
  5 33  1  0  0  0  0
  6  7  1  0  0  0  0
  6 34  1  0  0  0  0
  6 35  1  0  0  0  0
  7  8  1  0  0  0  0
  7 36  1  0  0  0  0
  7 37  1  0  0  0  0
  8  9  1  0  0  0  0
  8 38  1  0  0  0  0
  8 39  1  0  0  0  0
  9 10  1  0  0  0  0
  9 40  1  0  0  0  0
  9 41  1  0  0  0  0
 10 11  1  0  0  0  0
 11 16  1  0  0  0  0
 11 12  2  0  0  0  0
 12 13  1  0  0  0  0
 13 14  2  0  0  0  0
 13 42  1  0  0  0  0
 14 15  1  0  0  0  0
 15 19  1  0  0  0  0
 15 16  2  0  0  0  0
 16 17  1  0  0  0  0
 17 18  2  0  0  0  0
 18 19  1  0  0  0  0
 18 43  1  0  0  0  0
 19 20  1  0  0  0  0
 20 21  1  0  0  0  0
 20 44  1  0  0  0  0
 20 45  1  0  0  0  0
 21 22  1  0  0  0  0
 21 23  1  0  0  0  0
 21 46  1  0  0  0  0
 22 47  1  0  0  0  0
 23 27  1  0  0  0  0
 23 24  1  0  0  0  0
 23 48  1  0  0  0  0
 24 25  1  0  0  0  0
 24 49  1  0  0  0  0
 24 50  1  0  0  0  0
 25 26  1  0  0  0  0
 25 51  1  0  0  0  0
 25 52  1  0  0  0  0
 26 27  1  0  0  0  0
 26 53  1  0  0  0  0
 26 54  1  0  0  0  0
 28 29  1  0  0  0  0
 28 55  1  0  0  0  0
 28 56  1  0  0  0  0
 29 57  1  0  0  0  0
M  END
> <s_m_source_file>
AV-unprocessed.smi

> <i_m_source_file_index>
203

> <i_lp_mmshare_version>
43012

> <i_f3d_flags>
0

> <s_epik_input>
Tz1DMVtDSDJdW0NASF0oW0NIMl1bTkhdMSlbQ0BASF0yW0NIMl1bQ0gyXVtDSDJdW0NIMl1OMmMobltjSF1uMyljKGMzNCluW2NIXW40W0NIMl1bQ0BIXShbT0hdKVtDQEBIXTVbQ0gyXVtDSDJdW0NIMl1PNQ==

> <s_epik_cmdline>
J2VwaWtfcHl0aG9uJywgJy1waCcsICc3LjAnLCAnLXRuJywgJzgnLCAnLW1hJywgJzIwMCcsICctbWV0YWxfYmluZGluZycsICctaW1hZScsICc8aW5maWxlLm1hZT4nLCAnLW9tYWUnLCAnPG91dGZpbGUubWFlPic=

> <r_lp_tautomer_probability>
1

> <r_epik_Ionization_Penalty>
0.00175146

> <r_epik_Ionization_Penalty_Charging>
0

> <r_epik_Ionization_Penalty_Neutral>
0.00175146

> <r_epik_State_Penalty>
0.00109045

> <r_epik_Charging_Adjusted_Penalty>
0.00109045

> <i_epik_Tot_Q>
0

> <i_epik_Tot_abs_Q>
0

> <r_epik_Metal_State_Penalty>
-0

> <b_epik_Metal_Only>
0

> <s_lp_Force_Field>
OPLS_2005

> <r_lp_Energy>
57.64

> <b_lp_Chiralities_Consistent>
1

> <s_lp_Variant>
AV-unprocessed.smi:203-16

> <Gold.Version>
5.8.1

> <Gold.Id.Protein>
6NUR|6NUR_protein|mol2

> <Gold.PLP.Fitness>
44.4902

> <Gold.PLP.PLP>
-42.8686

> <Gold.PLP.part.hbond>
-2.5450

> <Gold.PLP.part.metal>
0.0000

> <Gold.PLP.part.buried>
-6.0551

> <Gold.PLP.part.nonpolar>
-34.4407

> <Gold.PLP.part.repulsive>
0.1264

> <Gold.PLP.ligand.clash>
0.0000

> <Gold.PLP.ligand.torsion>
0.8895

> <Gold.PLP.Chemscore.Hbond>
1.0000

> <Gold.PLP.Chemscore.CHOScore>
0.0000

> <Gold.PLP.Chemscore.Metal>
0.0000

> <Gold.Chemscore.Hbonds>
donor molecule, donor type, donor heavy atom, donor atom, acceptor molecule, acceptor atom, score
      P1  H  7997  8008       L1    12  0.98

> <Gold.PLP.Chemscore.Internal.Correction>
0.4007

> <Gold.Rescore>
     Score         DG    S(hbond)    S(metal)    S(lipo)     H(rot)  DE(clash)    DE(int)     intcor
     11.90     -12.88       0.88        0.00      97.65       2.72       0.00       0.97       ----

> <Gold.Chemscore.Fitness>
11.9039

> <Gold.Chemscore.DG>
-12.8807

> <Gold.Chemscore.ZeroCoef>
-5.4800

> <Gold.Chemscore.Hbond>
0.8777

> <Gold.Chemscore.Metal>
0.0000

> <Gold.Chemscore.Lipo>
97.6475

> <Gold.Chemscore.Internal_Hbond>
0.0000

> <Gold.Chemscore.DEClash>
0.0048

> <Gold.Chemscore.DEInternal>
0.9721

> <Gold.Chemscore.Rot>
2.7171

> <Gold.Chemscore.Internal.Correction>
   9.000000E+99

> <Gold.Chemscore.Hbonds>
donor molecule, donor type, donor heavy atom, donor atom, acceptor molecule, acceptor atom, score
      P1  H  7997  8008       L1    12  0.41

> <Gold.Chemscore.Hbond.Weighted>
-2.9317

> <Gold.Chemscore.Metal.Weighted>
-0.0000

> <Gold.Chemscore.Lipo.Weighted>
-11.4248

> <Gold.Chemscore.Internal_Hbond.Weighted>
0.0000

> <Gold.Chemscore.DEClash.Weighted>
0.0048

> <Gold.Chemscore.DEInternal.Weighted>
0.9721

> <Gold.Chemscore.Rot.Weighted>
6.9557

> <Gold.Chemscore.Internal.Correction.Weighted>
   9.000000E+99

> <Gold.Protein.RotatedTorsions>
[ 6907 6896 6895 6894 ] final  103.40 input  -60.11 | X-H torsion
[ 7974 7965 7964 7962 ] final  174.76 input  175.53 | X-H torsion
[ 8008 7997 7996 7995 ] final  -66.85 input   59.86 | X-H torsion
[ 10167 10162 10161 10158 ] final   64.43 input  -65.29 | X-H torsion
[ 10718 10713 10712 10709 ] final -164.41 input   66.30 | X-H torsion
[ 10763 10752 10751 10750 ] final  -63.35 input  -60.55 | X-H torsion
[ 11005 11000 10999 10996 ] final  119.17 input  -57.11 | X-H torsion

> <Gold.Protein.ActiveResidues>
 VAL166  LYS551  ARG553  GLY616  TRP617  ASP618  TYR619  PRO620  LYS621  CYS622 
 ASP623  PHE694  ASN695  SER759  ASP760  ASP761  ALA762  ILE779  LEU786  VAL792 
 PHE793  MET794  SER795  GLU796  ALA797  LYS798  CYS799  TRP800  GLU811  SER814 

> <Gold.Protein.RotatedAtoms>
  152.5296  133.9832  159.7815 H   0  0  0  0  0  0  0  0  0  0  0  0  # atno 6907 bound_to 6896
  151.0082  133.5983  159.2693 H   0  0  0  0  0  0  0  0  0  0  0  0  # atno 6908 bound_to 6896
  151.3067  135.0790  159.9311 H   0  0  0  0  0  0  0  0  0  0  0  0  # atno 6909 bound_to 6896
  144.7215  139.9845  143.6439 H   0  0  0  0  0  0  0  0  0  0  0  0  # atno 7974 bound_to 7965
  154.4761  140.0904  156.7265 H   0  0  0  0  0  0  0  0  0  0  0  0  # atno 8008 bound_to 7997
  155.4593  140.3460  155.4292 H   0  0  0  0  0  0  0  0  0  0  0  0  # atno 8009 bound_to 7997
  156.1118  140.1450  156.9316 H   0  0  0  0  0  0  0  0  0  0  0  0  # atno 8010 bound_to 7997
  140.1223  144.4720  150.6913 H   0  0  0  0  0  0  0  0  0  0  0  0  # atno 10167 bound_to 10162
  156.6387  130.8959  151.2992 H   0  0  0  0  0  0  0  0  0  0  0  0  # atno 10718 bound_to 10713
  154.3137  135.6210  153.5477 H   0  0  0  0  0  0  0  0  0  0  0  0  # atno 10763 bound_to 10752
  152.9827  135.5707  154.5148 H   0  0  0  0  0  0  0  0  0  0  0  0  # atno 10764 bound_to 10752
  154.4802  135.2863  155.1552 H   0  0  0  0  0  0  0  0  0  0  0  0  # atno 10765 bound_to 10752
  139.9136  134.9626  156.7615 H   0  0  0  0  0  0  0  0  0  0  0  0  # atno 11005 bound_to 11000
  146.0461  139.3467  143.0668 LP  0  0  0  0  0  0  0  0  0  0  0  0  # atno 17320 bound_to 7965
  145.8274  140.9648  143.0867 LP  0  0  0  0  0  0  0  0  0  0  0  0  # atno 17321 bound_to 7965
  140.6865  143.2353  151.5246 LP  0  0  0  0  0  0  0  0  0  0  0  0  # atno 17342 bound_to 10162
  139.5562  144.2269  152.1616 LP  0  0  0  0  0  0  0  0  0  0  0  0  # atno 17343 bound_to 10162
  157.7178  130.9519  150.1320 LP  0  0  0  0  0  0  0  0  0  0  0  0  # atno 17370 bound_to 10713
  156.2177  130.3671  149.8594 LP  0  0  0  0  0  0  0  0  0  0  0  0  # atno 17371 bound_to 10713
  140.6694  133.9573  155.7848 LP  0  0  0  0  0  0  0  0  0  0  0  0  # atno 17394 bound_to 11000
  141.0588  134.0376  157.3686 LP  0  0  0  0  0  0  0  0  0  0  0  0  # atno 17395 bound_to 11000

$$$$
