AV-unprocessed.smi:3279|AV-procd|sdf|12548|dock2
  -GOLD-   2272018463D 1   1.00000     0.00000
 Structure written by MMmdl.
 35 35  0  0  0  0  0  0  0  0  2 V2000
  148.7609  138.9925  154.2878 C   0  0  0  0  0  0  0  0  0  0  0  0
  149.7049  139.7853  155.2046 C   0  0  2  0  0  0  0  0  0  0  0  0
  149.5685  141.3136  155.0200 C   0  0  0  0  0  0  0  0  0  0  0  0
  150.0887  142.0594  156.1615 N   0  0  0  0  0  0  0  0  0  0  0  0
  149.8142  141.7944  157.4477 C   0  0  0  0  0  0  0  0  0  0  0  0
  149.0329  140.9145  157.8088 O   0  0  0  0  0  0  0  0  0  0  0  0
  150.5584  142.6310  158.4854 C   0  0  0  0  0  0  0  0  0  0  0  0
  151.6788  141.8861  158.9557 O   0  0  0  0  0  0  0  0  0  0  0  0
  152.7460  142.6011  159.5835 C   0  0  0  0  0  0  0  0  0  0  0  0
  153.9909  141.7108  159.7715 C   0  0  0  0  0  0  0  0  0  0  0  0
  152.1859  142.9959  160.9593 C   0  0  0  0  0  0  0  0  0  0  0  0
  153.0859  143.8732  158.7820 C   0  0  0  0  0  0  0  0  0  0  0  0
  151.1279  139.3150  155.0768 C   0  0  0  0  0  0  0  0  0  0  0  0
  152.1587  140.1521  154.8828 N   0  0  0  0  0  0  0  0  0  0  0  0
  153.2168  139.3339  154.8040 N   0  0  0  0  0  0  0  0  0  0  0  0
  152.8187  138.0642  154.9476 N   0  0  0  0  0  0  0  0  0  0  0  0
  151.4913  138.0231  155.1228 N   0  5  0  0  0  0  0  0  0  0  0  0
  148.8140  137.9247  154.5025 H   0  0  0  0  0  0  0  0  0  0  0  0
  149.0137  139.1350  153.2367 H   0  0  0  0  0  0  0  0  0  0  0  0
  147.7259  139.3059  154.4257 H   0  0  0  0  0  0  0  0  0  0  0  0
  149.3538  139.5792  156.2172 H   0  0  0  0  0  0  0  0  0  0  0  0
  150.1310  141.6293  154.1407 H   0  0  0  0  0  0  0  0  0  0  0  0
  148.5290  141.5870  154.8316 H   0  0  0  0  0  0  0  0  0  0  0  0
  150.7509  142.7955  155.9614 H   0  0  0  0  0  0  0  0  0  0  0  0
  150.8763  143.5674  158.0264 H   0  0  0  0  0  0  0  0  0  0  0  0
  149.8612  142.8683  159.2882 H   0  0  0  0  0  0  0  0  0  0  0  0
  154.7471  142.2182  160.3713 H   0  0  0  0  0  0  0  0  0  0  0  0
  154.4584  141.4563  158.8202 H   0  0  0  0  0  0  0  0  0  0  0  0
  153.7368  140.7799  160.2793 H   0  0  0  0  0  0  0  0  0  0  0  0
  151.9134  142.1149  161.5417 H   0  0  0  0  0  0  0  0  0  0  0  0
  151.2925  143.6134  160.8600 H   0  0  0  0  0  0  0  0  0  0  0  0
  152.9160  143.5620  161.5389 H   0  0  0  0  0  0  0  0  0  0  0  0
  153.7883  144.5035  159.3285 H   0  0  0  0  0  0  0  0  0  0  0  0
  152.1920  144.4673  158.5881 H   0  0  0  0  0  0  0  0  0  0  0  0
  153.5475  143.6446  157.8218 H   0  0  0  0  0  0  0  0  0  0  0  0
  1  2  1  0  0  0  0
  1 18  1  0  0  0  0
  1 19  1  0  0  0  0
  1 20  1  0  0  0  0
  2  3  1  0  0  0  0
  2 13  1  0  0  0  0
  2 21  1  0  0  0  0
  3  4  1  0  0  0  0
  3 22  1  0  0  0  0
  3 23  1  0  0  0  0
  4  5  1  0  0  0  0
  4 24  1  0  0  0  0
  5  6  2  0  0  0  0
  5  7  1  0  0  0  0
  7  8  1  0  0  0  0
  7 25  1  0  0  0  0
  7 26  1  0  0  0  0
  8  9  1  0  0  0  0
  9 10  1  0  0  0  0
  9 11  1  0  0  0  0
  9 12  1  0  0  0  0
 10 27  1  0  0  0  0
 10 28  1  0  0  0  0
 10 29  1  0  0  0  0
 11 30  1  0  0  0  0
 11 31  1  0  0  0  0
 11 32  1  0  0  0  0
 12 33  1  0  0  0  0
 12 34  1  0  0  0  0
 12 35  1  0  0  0  0
 13 17  1  0  0  0  0
 13 14  2  0  0  0  0
 14 15  1  0  0  0  0
 15 16  2  0  0  0  0
 16 17  1  0  0  0  0
M  CHG  1  17  -1
M  END
> <s_m_source_file>
AV-unprocessed.smi

> <i_m_source_file_index>
3279

> <i_lp_mmshare_version>
43012

> <i_f3d_flags>
0

> <s_epik_input>
W25IXTFubm5jMVtDQEhdKFtDSDNdKVtDSDJdW05IXUMoPU8pW0NIMl1PQyhbQ0gzXSkoW0NIM10pW0NIM10=

> <s_epik_cmdline>
J2VwaWtfcHl0aG9uJywgJy1waCcsICc3LjAnLCAnLXRuJywgJzgnLCAnLW1hJywgJzIwMCcsICctbWV0YWxfYmluZGluZycsICctaW1hZScsICc8aW5maWxlLm1hZT4nLCAnLW9tYWUnLCAnPG91dGZpbGUubWFlPic=

> <r_epik_Ionization_Penalty>
0.054353

> <r_epik_Ionization_Penalty_Charging>
0.054353

> <r_epik_Ionization_Penalty_Neutral>
3.0997e-08

> <r_epik_State_Penalty>
0.0139445

> <r_epik_Charging_Adjusted_Penalty>
0.0682975

> <i_epik_Tot_Q>
-1

> <i_epik_Tot_abs_Q>
1

> <r_epik_Metal_State_Penalty>
0.0109703

> <b_epik_Metal_Only>
0

> <s_lp_Force_Field>
OPLS_2005

> <r_lp_Energy>
-0.4509

> <b_lp_Chiralities_Consistent>
1

> <s_lp_Variant>
AV-unprocessed.smi:3279-1

> <Gold.Version>
5.8.1

> <Gold.Id.Protein>
6NUR|6NUR_protein|mol2

> <Gold.PLP.Fitness>
37.2221

> <Gold.PLP.PLP>
-33.6958

> <Gold.PLP.part.hbond>
-4.2100

> <Gold.PLP.part.metal>
0.0000

> <Gold.PLP.part.buried>
-5.2630

> <Gold.PLP.part.nonpolar>
-25.0303

> <Gold.PLP.part.repulsive>
0.2965

> <Gold.PLP.ligand.clash>
0.0000

> <Gold.PLP.ligand.torsion>
0.8581

> <Gold.PLP.Chemscore.Hbond>
1.7040

> <Gold.PLP.Chemscore.CHOScore>
0.0000

> <Gold.PLP.Chemscore.Metal>
0.0000

> <Gold.Chemscore.Hbonds>
donor molecule, donor type, donor heavy atom, donor atom, acceptor molecule, acceptor atom, score
      P1  H  7989  7998       L1    14  0.70
      P1  H  7997  8008       L1    15  1.00

> <Gold.PLP.Chemscore.Internal.Correction>
0.1304

> <Gold.Rescore>
     Score         DG    S(hbond)    S(metal)    S(lipo)     H(rot)  DE(clash)    DE(int)     intcor
     10.20     -12.22       1.55        0.00      71.09       2.64       0.02       2.01       ----

> <Gold.Chemscore.Fitness>
10.1957

> <Gold.Chemscore.DG>
-12.2226

> <Gold.Chemscore.ZeroCoef>
-5.4800

> <Gold.Chemscore.Hbond>
1.5527

> <Gold.Chemscore.Metal>
0.0000

> <Gold.Chemscore.Lipo>
71.0878

> <Gold.Chemscore.Internal_Hbond>
0.0000

> <Gold.Chemscore.DEClash>
0.0202

> <Gold.Chemscore.DEInternal>
2.0066

> <Gold.Chemscore.Rot>
2.6409

> <Gold.Chemscore.Internal.Correction>
   9.000000E+99

> <Gold.Chemscore.Hbonds>
donor molecule, donor type, donor heavy atom, donor atom, acceptor molecule, acceptor atom, score
      P1  H  7989  7998       L1    14  0.17
      P1  H  7997  8008       L1    15  0.30

> <Gold.Chemscore.Hbond.Weighted>
-5.1860

> <Gold.Chemscore.Metal.Weighted>
-0.0000

> <Gold.Chemscore.Lipo.Weighted>
-8.3173

> <Gold.Chemscore.Internal_Hbond.Weighted>
0.0000

> <Gold.Chemscore.DEClash.Weighted>
0.0202

> <Gold.Chemscore.DEInternal.Weighted>
2.0066

> <Gold.Chemscore.Rot.Weighted>
6.7607

> <Gold.Chemscore.Internal.Correction.Weighted>
   9.000000E+99

> <Gold.Protein.RotatedTorsions>
[ 6907 6896 6895 6894 ] final  -94.34 input  -60.11 | X-H torsion
[ 7974 7965 7964 7962 ] final   18.22 input  175.53 | X-H torsion
[ 8008 7997 7996 7995 ] final  -24.59 input   59.86 | X-H torsion
[ 10167 10162 10161 10158 ] final   31.11 input  -65.29 | X-H torsion
[ 10718 10713 10712 10709 ] final  162.29 input   66.30 | X-H torsion
[ 10763 10752 10751 10750 ] final  -17.28 input  -60.55 | X-H torsion
[ 11005 11000 10999 10996 ] final  151.02 input  -57.11 | X-H torsion

> <Gold.Protein.ActiveResidues>
 VAL166  LYS551  ARG553  GLY616  TRP617  ASP618  TYR619  PRO620  LYS621  CYS622 
 ASP623  PHE694  ASN695  SER759  ASP760  ASP761  ALA762  ILE779  LEU786  VAL792 
 PHE793  MET794  SER795  GLU796  ALA797  LYS798  CYS799  TRP800  GLU811  SER814 

> <Gold.Protein.RotatedAtoms>
  150.6940  134.1827  159.4254 H   0  0  0  0  0  0  0  0  0  0  0  0  # atno 6907 bound_to 6896
  151.9801  135.0030  160.0566 H   0  0  0  0  0  0  0  0  0  0  0  0  # atno 6908 bound_to 6896
  152.1763  133.4642  159.4972 H   0  0  0  0  0  0  0  0  0  0  0  0  # atno 6909 bound_to 6896
  146.2192  139.8489  142.8626 H   0  0  0  0  0  0  0  0  0  0  0  0  # atno 7974 bound_to 7965
  154.4521  140.1949  156.0488 H   0  0  0  0  0  0  0  0  0  0  0  0  # atno 8008 bound_to 7997
  156.0669  140.3289  155.7501 H   0  0  0  0  0  0  0  0  0  0  0  0  # atno 8009 bound_to 7997
  155.5324  140.0579  157.2877 H   0  0  0  0  0  0  0  0  0  0  0  0  # atno 8010 bound_to 7997
  140.4618  144.0895  150.6214 H   0  0  0  0  0  0  0  0  0  0  0  0  # atno 10167 bound_to 10162
  157.1246  131.0501  151.2399 H   0  0  0  0  0  0  0  0  0  0  0  0  # atno 10718 bound_to 10713
  153.5715  135.7007  153.5502 H   0  0  0  0  0  0  0  0  0  0  0  0  # atno 10763 bound_to 10752
  153.3340  135.4039  155.1518 H   0  0  0  0  0  0  0  0  0  0  0  0  # atno 10764 bound_to 10752
  154.8632  135.3726  154.5238 H   0  0  0  0  0  0  0  0  0  0  0  0  # atno 10765 bound_to 10752
  140.1182  134.8881  157.2034 H   0  0  0  0  0  0  0  0  0  0  0  0  # atno 11005 bound_to 11000
  145.2822  141.0142  143.3711 LP  0  0  0  0  0  0  0  0  0  0  0  0  # atno 17320 bound_to 7965
  144.9141  139.4492  143.6573 LP  0  0  0  0  0  0  0  0  0  0  0  0  # atno 17321 bound_to 7965
  140.4084  143.2669  151.9863 LP  0  0  0  0  0  0  0  0  0  0  0  0  # atno 17342 bound_to 10162
  139.4807  144.5937  151.7728 LP  0  0  0  0  0  0  0  0  0  0  0  0  # atno 17343 bound_to 10162
  157.4446  130.7563  149.7098 LP  0  0  0  0  0  0  0  0  0  0  0  0  # atno 17370 bound_to 10713
  155.9821  130.4013  150.3436 LP  0  0  0  0  0  0  0  0  0  0  0  0  # atno 17371 bound_to 10713
  140.3000  134.3142  155.7292 LP  0  0  0  0  0  0  0  0  0  0  0  0  # atno 17394 bound_to 11000
  141.2146  133.7586  156.9627 LP  0  0  0  0  0  0  0  0  0  0  0  0  # atno 17395 bound_to 11000

$$$$
