AV-unprocessed.smi:697|AV-procd|sdf|3396|dock2
  -GOLD-   22720 0373D 1   1.00000     0.00000
 Structure written by MMmdl.
 43 44  0  0  0  0  0  0  0  0  2 V2000
  143.9930  132.9338  150.7198 C   0  0  0  0  0  0  0  0  0  0  0  0
  144.3011  134.3217  150.7347 O   0  0  0  0  0  0  0  0  0  0  0  0
  144.3245  134.9516  152.0166 C   0  0  2  0  0  0  0  0  0  0  0  0
  142.9466  134.8329  152.6863 C   0  0  0  0  0  0  0  0  0  0  0  0
  144.9842  136.3418  151.9672 C   0  0  0  0  0  0  0  0  0  0  0  0
  145.7149  135.9445  153.2476 C   0  0  2  0  0  0  0  0  0  0  0  0
  147.0802  136.4562  153.2975 N   0  0  0  0  0  0  0  0  0  0  0  0
  147.6202  137.0719  154.3575 C   0  0  0  0  0  0  0  0  0  0  0  0
  146.9963  137.2920  155.3954 O   0  0  0  0  0  0  0  0  0  0  0  0
  148.9022  137.4007  154.1154 N   0  0  0  0  0  0  0  0  0  0  0  0
  149.8490  138.0114  154.9563 C   0  0  0  0  0  0  0  0  0  0  0  0
  149.7273  139.2548  155.4993 C   0  0  0  0  0  0  0  0  0  0  0  0
  150.7406  139.8256  156.3774 C   0  0  0  0  0  0  0  0  0  0  0  0
  150.6808  141.2417  156.9224 C   0  0  0  0  0  0  0  0  0  0  0  0
  149.5655  141.4395  157.6254 F   0  0  0  0  0  0  0  0  0  0  0  0
  151.7256  141.4945  157.7107 F   0  0  0  0  0  0  0  0  0  0  0  0
  150.6985  142.1152  155.9169 F   0  0  0  0  0  0  0  0  0  0  0  0
  151.8098  138.9723  156.5688 C   0  0  0  0  0  0  0  0  0  0  0  0
  151.9964  137.7224  156.0915 N   0  5  0  0  0  0  0  0  0  0  0  0
  151.0407  137.1969  155.2742 C   0  0  0  0  0  0  0  0  0  0  0  0
  151.1502  136.0650  154.8012 O   0  0  0  0  0  0  0  0  0  0  0  0
  145.5890  134.4662  152.7974 C   0  0  0  0  0  0  0  0  0  0  0  0
  145.3603  133.4456  153.9172 C   0  0  0  0  0  0  0  0  0  0  0  0
  146.7396  133.8993  151.9407 C   0  0  0  0  0  0  0  0  0  0  0  0
  143.9006  132.6007  149.6862 H   0  0  0  0  0  0  0  0  0  0  0  0
  143.0488  132.7187  151.2204 H   0  0  0  0  0  0  0  0  0  0  0  0
  144.7796  132.3382  151.1821 H   0  0  0  0  0  0  0  0  0  0  0  0
  142.9667  135.1752  153.7207 H   0  0  0  0  0  0  0  0  0  0  0  0
  142.5956  133.8008  152.6908 H   0  0  0  0  0  0  0  0  0  0  0  0
  142.1949  135.4370  152.1789 H   0  0  0  0  0  0  0  0  0  0  0  0
  145.6453  136.4839  151.1101 H   0  0  0  0  0  0  0  0  0  0  0  0
  144.2954  137.1790  152.0824 H   0  0  0  0  0  0  0  0  0  0  0  0
  145.1248  136.1727  154.1380 H   0  0  0  0  0  0  0  0  0  0  0  0
  147.6545  136.3168  152.4792 H   0  0  0  0  0  0  0  0  0  0  0  0
  149.2481  137.1947  153.1896 H   0  0  0  0  0  0  0  0  0  0  0  0
  148.8582  139.8623  155.3116 H   0  0  0  0  0  0  0  0  0  0  0  0
  152.6425  139.3522  157.1983 H   0  0  0  0  0  0  0  0  0  0  0  0
  146.2868  133.2125  154.4431 H   0  0  0  0  0  0  0  0  0  0  0  0
  144.9582  132.5100  153.5277 H   0  0  0  0  0  0  0  0  0  0  0  0
  144.6614  133.8132  154.6680 H   0  0  0  0  0  0  0  0  0  0  0  0
  147.6496  133.7648  152.5263 H   0  0  0  0  0  0  0  0  0  0  0  0
  146.9929  134.5504  151.1041 H   0  0  0  0  0  0  0  0  0  0  0  0
  146.4813  132.9265  151.5212 H   0  0  0  0  0  0  0  0  0  0  0  0
  1  2  1  0  0  0  0
  1 25  1  0  0  0  0
  1 26  1  0  0  0  0
  1 27  1  0  0  0  0
  2  3  1  0  0  0  0
  3 22  1  0  0  0  0
  3  4  1  0  0  0  0
  3  5  1  0  0  0  0
  4 28  1  0  0  0  0
  4 29  1  0  0  0  0
  4 30  1  0  0  0  0
  5  6  1  0  0  0  0
  5 31  1  0  0  0  0
  5 32  1  0  0  0  0
  6  7  1  0  0  0  0
  6 22  1  0  0  0  0
  6 33  1  0  0  0  0
  7  8  1  0  0  0  0
  7 34  1  0  0  0  0
  8  9  2  0  0  0  0
  8 10  1  0  0  0  0
 10 11  1  0  0  0  0
 10 35  1  0  0  0  0
 11 20  1  0  0  0  0
 11 12  2  0  0  0  0
 12 13  1  0  0  0  0
 12 36  1  0  0  0  0
 13 14  1  0  0  0  0
 13 18  2  0  0  0  0
 14 15  1  0  0  0  0
 14 16  1  0  0  0  0
 14 17  1  0  0  0  0
 18 19  1  0  0  0  0
 18 37  1  0  0  0  0
 19 20  1  0  0  0  0
 20 21  2  0  0  0  0
 22 23  1  0  0  0  0
 22 24  1  0  0  0  0
 23 38  1  0  0  0  0
 23 39  1  0  0  0  0
 23 40  1  0  0  0  0
 24 41  1  0  0  0  0
 24 42  1  0  0  0  0
 24 43  1  0  0  0  0
M  CHG  1  19  -1
M  END
> <s_m_source_file>
AV-unprocessed.smi

> <i_m_source_file_index>
697

> <i_lp_mmshare_version>
43012

> <i_f3d_flags>
0

> <s_epik_input>
W0NIM11PW0NAQF0xKFtDSDNdKVtDSDJdW0NASF0oQzEoW0NIM10pW0NIM10pW05IXUMoPU8pW05IXWMyW2NIXWMoQyhGKShGKUYpW2NIXVtuSF1jMj1P

> <s_epik_cmdline>
J2VwaWtfcHl0aG9uJywgJy1waCcsICc3LjAnLCAnLXRuJywgJzgnLCAnLW1hJywgJzIwMCcsICctbWV0YWxfYmluZGluZycsICctaW1hZScsICc8aW5maWxlLm1hZT4nLCAnLW9tYWUnLCAnPG91dGZpbGUubWFlPic=

> <r_lp_tautomer_probability>
1

> <r_epik_Ionization_Penalty>
3.20094

> <r_epik_Ionization_Penalty_Charging>
0.180017

> <r_epik_Ionization_Penalty_Neutral>
3.02092

> <r_epik_State_Penalty>
3.01726

> <r_epik_Charging_Adjusted_Penalty>
3.19727

> <i_epik_Tot_Q>
-1

> <i_epik_Tot_abs_Q>
1

> <r_epik_Metal_State_Penalty>
0.455096

> <b_epik_Metal_Only>
1

> <s_lp_Force_Field>
OPLS_2005

> <r_lp_Energy>
36.1222

> <b_lp_Chiralities_Consistent>
1

> <s_lp_Variant>
AV-unprocessed.smi:697-8

> <Gold.Version>
5.8.1

> <Gold.Id.Protein>
6NUR|6NUR_protein|mol2

> <Gold.PLP.Fitness>
35.0672

> <Gold.PLP.PLP>
-27.6400

> <Gold.PLP.part.hbond>
-2.7225

> <Gold.PLP.part.metal>
0.0000

> <Gold.PLP.part.buried>
-3.9841

> <Gold.PLP.part.nonpolar>
-22.5213

> <Gold.PLP.part.repulsive>
0.4034

> <Gold.PLP.ligand.clash>
0.0000

> <Gold.PLP.ligand.torsion>
0.8387

> <Gold.PLP.Chemscore.Hbond>
2.8953

> <Gold.PLP.Chemscore.CHOScore>
0.0000

> <Gold.PLP.Chemscore.Metal>
0.0000

> <Gold.Chemscore.Hbonds>
donor molecule, donor type, donor heavy atom, donor atom, acceptor molecule, acceptor atom, score
      L1  H     7    34       P1  7948  0.76
      L1  H    10    35       P1  7948  0.88
      P1  H 10752 10765       L1    21  1.00

> <Gold.PLP.Chemscore.Internal.Correction>
0.4188

> <Gold.Rescore>
     Score         DG    S(hbond)    S(metal)    S(lipo)     H(rot)  DE(clash)    DE(int)     intcor
     17.14     -18.00       2.84        0.00      54.21       1.30       0.06       0.80       ----

> <Gold.Chemscore.Fitness>
17.1374

> <Gold.Chemscore.DG>
-18.0029

> <Gold.Chemscore.ZeroCoef>
-5.4800

> <Gold.Chemscore.Hbond>
2.8448

> <Gold.Chemscore.Metal>
0.0000

> <Gold.Chemscore.Lipo>
54.2075

> <Gold.Chemscore.Internal_Hbond>
0.0000

> <Gold.Chemscore.DEClash>
0.0639

> <Gold.Chemscore.DEInternal>
0.8015

> <Gold.Chemscore.Rot>
1.2973

> <Gold.Chemscore.Internal.Correction>
   9.000000E+99

> <Gold.Chemscore.Hbonds>
donor molecule, donor type, donor heavy atom, donor atom, acceptor molecule, acceptor atom, score
      L1  H     7    34       P1  7948  0.71
      L1  H    10    35       P1  7948  0.85
      P1  H 10752 10765       L1    21  0.82

> <Gold.Chemscore.Hbond.Weighted>
-9.5016

> <Gold.Chemscore.Metal.Weighted>
-0.0000

> <Gold.Chemscore.Lipo.Weighted>
-6.3423

> <Gold.Chemscore.Internal_Hbond.Weighted>
0.0000

> <Gold.Chemscore.DEClash.Weighted>
0.0639

> <Gold.Chemscore.DEInternal.Weighted>
0.8015

> <Gold.Chemscore.Rot.Weighted>
3.3210

> <Gold.Chemscore.Internal.Correction.Weighted>
   9.000000E+99

> <Gold.Protein.RotatedTorsions>
[ 6907 6896 6895 6894 ] final -127.86 input  -60.11 | X-H torsion
[ 7974 7965 7964 7962 ] final -164.17 input  175.53 | X-H torsion
[ 8008 7997 7996 7995 ] final   26.16 input   59.86 | X-H torsion
[ 10167 10162 10161 10158 ] final  -31.25 input  -65.29 | X-H torsion
[ 10718 10713 10712 10709 ] final -117.52 input   66.30 | X-H torsion
[ 10763 10752 10751 10750 ] final  174.36 input  -60.55 | X-H torsion
[ 11005 11000 10999 10996 ] final   37.46 input  -57.11 | X-H torsion

> <Gold.Protein.ActiveResidues>
 VAL166  LYS551  ARG553  GLY616  TRP617  ASP618  TYR619  PRO620  LYS621  CYS622 
 ASP623  PHE694  ASN695  SER759  ASP760  ASP761  ALA762  ILE779  LEU786  VAL792 
 PHE793  MET794  SER795  GLU796  ALA797  LYS798  CYS799  TRP800  GLU811  SER814 

> <Gold.Protein.RotatedAtoms>
  150.9118  133.6988  159.2852 H   0  0  0  0  0  0  0  0  0  0  0  0  # atno 6907 bound_to 6896
  151.4473  135.1025  159.9697 H   0  0  0  0  0  0  0  0  0  0  0  0  # atno 6908 bound_to 6896
  152.4934  133.8512  159.7257 H   0  0  0  0  0  0  0  0  0  0  0  0  # atno 6909 bound_to 6896
  144.7304  140.3000  143.6206 H   0  0  0  0  0  0  0  0  0  0  0  0  # atno 7974 bound_to 7965
  155.0230  140.3150  155.4786 H   0  0  0  0  0  0  0  0  0  0  0  0  # atno 8008 bound_to 7997
  156.2888  140.2194  156.5291 H   0  0  0  0  0  0  0  0  0  0  0  0  # atno 8009 bound_to 7997
  154.7436  140.0471  157.0820 H   0  0  0  0  0  0  0  0  0  0  0  0  # atno 8010 bound_to 7997
  140.7239  143.3785  151.1644 H   0  0  0  0  0  0  0  0  0  0  0  0  # atno 10167 bound_to 10162
  156.1040  130.6195  150.9174 H   0  0  0  0  0  0  0  0  0  0  0  0  # atno 10718 bound_to 10713
  154.4528  135.2765  155.1769 H   0  0  0  0  0  0  0  0  0  0  0  0  # atno 10763 bound_to 10752
  154.3588  135.6134  153.5684 H   0  0  0  0  0  0  0  0  0  0  0  0  # atno 10764 bound_to 10752
  152.9848  135.5829  154.4876 H   0  0  0  0  0  0  0  0  0  0  0  0  # atno 10765 bound_to 10752
  140.2223  134.3626  155.7999 H   0  0  0  0  0  0  0  0  0  0  0  0  # atno 11005 bound_to 11000
  145.7770  139.1877  143.2179 LP  0  0  0  0  0  0  0  0  0  0  0  0  # atno 17320 bound_to 7965
  146.0865  140.7705  142.9616 LP  0  0  0  0  0  0  0  0  0  0  0  0  # atno 17321 bound_to 7965
  139.7370  143.8984  152.3038 LP  0  0  0  0  0  0  0  0  0  0  0  0  # atno 17342 bound_to 10162
  139.8792  144.7027  150.8897 LP  0  0  0  0  0  0  0  0  0  0  0  0  # atno 17343 bound_to 10162
  157.6214  131.0929  150.8615 LP  0  0  0  0  0  0  0  0  0  0  0  0  # atno 17370 bound_to 10713
  156.8738  130.5155  149.5295 LP  0  0  0  0  0  0  0  0  0  0  0  0  # atno 17371 bound_to 10713
  141.2222  133.7200  156.8596 LP  0  0  0  0  0  0  0  0  0  0  0  0  # atno 17394 bound_to 11000
  140.1836  134.9015  157.2978 LP  0  0  0  0  0  0  0  0  0  0  0  0  # atno 17395 bound_to 11000

$$$$
