AV-unprocessed.smi:1542|AV-procd|sdf|6204|dock4
  -GOLD-   22720 6373D 1   1.00000     0.00000
 Structure written by MMmdl.
 46 48  0  0  0  0  0  0  0  0  2 V2000
  146.2311  141.6990  153.5344 O   0  0  0  0  0  0  0  0  0  0  0  0
  147.3930  140.9074  153.6640 C   0  0  0  0  0  0  0  0  0  0  0  0
  148.4893  141.6829  154.4085 C   0  0  0  0  0  0  0  0  0  0  0  0
  149.4385  140.7689  155.2037 C   0  0  0  0  0  0  0  0  0  0  0  0
  150.2490  141.5068  156.2250 C   0  0  0  0  0  0  0  0  0  0  0  0
  150.3362  142.8608  156.3694 N   0  3  0  0  0  0  0  0  0  0  0  0
  151.2288  143.1737  157.3947 C   0  0  0  0  0  0  0  0  0  0  0  0
  151.6362  144.4024  157.9047 C   0  0  0  0  0  0  0  0  0  0  0  0
  152.5799  144.3711  158.9523 C   0  0  0  0  0  0  0  0  0  0  0  0
  153.0830  143.1521  159.4509 C   0  0  0  0  0  0  0  0  0  0  0  0
  152.6610  141.9126  158.9264 C   0  0  0  0  0  0  0  0  0  0  0  0
  151.7234  141.9523  157.8943 C   0  0  0  0  0  0  0  0  0  0  0  0
  151.0923  140.9525  157.1442 N   0  0  0  0  0  0  0  0  0  0  0  0
  151.4037  139.5391  157.4196 C   0  0  0  0  0  0  0  0  0  0  0  0
  150.1718  138.6366  157.7397 C   0  0  0  0  0  0  0  0  0  0  0  0
  149.1662  139.5087  158.2236 O   0  0  0  0  0  0  0  0  0  0  0  0
  149.6430  137.9736  156.4442 C   0  0  0  0  0  0  0  0  0  0  0  0
  148.4413  137.0407  156.6811 C   0  0  0  0  0  0  0  0  0  0  0  0
  148.7540  135.9809  157.7457 C   0  0  0  0  0  0  0  0  0  0  0  0
  149.2015  136.6399  159.0570 C   0  0  0  0  0  0  0  0  0  0  0  0
  150.4159  137.5579  158.8315 C   0  0  0  0  0  0  0  0  0  0  0  0
  145.5209  141.1466  153.2445 H   0  0  0  0  0  0  0  0  0  0  0  0
  147.1349  140.0018  154.2137 H   0  0  0  0  0  0  0  0  0  0  0  0
  147.7363  140.5990  152.6760 H   0  0  0  0  0  0  0  0  0  0  0  0
  149.0523  142.2882  153.6966 H   0  0  0  0  0  0  0  0  0  0  0  0
  148.0125  142.3815  155.0972 H   0  0  0  0  0  0  0  0  0  0  0  0
  148.8583  139.9936  155.7040 H   0  0  0  0  0  0  0  0  0  0  0  0
  150.1247  140.2593  154.5269 H   0  0  0  0  0  0  0  0  0  0  0  0
  151.2557  145.3375  157.5209 H   0  0  0  0  0  0  0  0  0  0  0  0
  152.9274  145.3010  159.3793 H   0  0  0  0  0  0  0  0  0  0  0  0
  153.8089  143.1672  160.2511 H   0  0  0  0  0  0  0  0  0  0  0  0
  153.0587  140.9853  159.3116 H   0  0  0  0  0  0  0  0  0  0  0  0
  151.9755  139.1533  156.5746 H   0  0  0  0  0  0  0  0  0  0  0  0
  152.1163  139.5229  158.2445 H   0  0  0  0  0  0  0  0  0  0  0  0
  148.3611  139.0201  158.3036 H   0  0  0  0  0  0  0  0  0  0  0  0
  149.3697  138.7366  155.7137 H   0  0  0  0  0  0  0  0  0  0  0  0
  150.4458  137.3938  155.9875 H   0  0  0  0  0  0  0  0  0  0  0  0
  147.5738  137.6247  156.9902 H   0  0  0  0  0  0  0  0  0  0  0  0
  148.1631  136.5540  155.7460 H   0  0  0  0  0  0  0  0  0  0  0  0
  147.8754  135.3595  157.9217 H   0  0  0  0  0  0  0  0  0  0  0  0
  149.5380  135.3153  157.3823 H   0  0  0  0  0  0  0  0  0  0  0  0
  148.3755  137.2096  159.4838 H   0  0  0  0  0  0  0  0  0  0  0  0
  149.4519  135.8718  159.7892 H   0  0  0  0  0  0  0  0  0  0  0  0
  151.2555  136.9245  158.5436 H   0  0  0  0  0  0  0  0  0  0  0  0
  150.6937  138.0266  159.7762 H   0  0  0  0  0  0  0  0  0  0  0  0
  149.8218  143.5216  155.8013 H   0  0  0  0  0  0  0  0  0  0  0  0
  1  2  1  0  0  0  0
  1 22  1  0  0  0  0
  2  3  1  0  0  0  0
  2 23  1  0  0  0  0
  2 24  1  0  0  0  0
  3  4  1  0  0  0  0
  3 25  1  0  0  0  0
  3 26  1  0  0  0  0
  4  5  1  0  0  0  0
  4 27  1  0  0  0  0
  4 28  1  0  0  0  0
  5 13  1  0  0  0  0
  5  6  2  0  0  0  0
  6  7  1  0  0  0  0
  6 46  1  0  0  0  0
  7 12  2  0  0  0  0
  7  8  1  0  0  0  0
  8  9  2  0  0  0  0
  8 29  1  0  0  0  0
  9 10  1  0  0  0  0
  9 30  1  0  0  0  0
 10 11  2  0  0  0  0
 10 31  1  0  0  0  0
 11 12  1  0  0  0  0
 11 32  1  0  0  0  0
 12 13  1  0  0  0  0
 13 14  1  0  0  0  0
 14 15  1  0  0  0  0
 14 33  1  0  0  0  0
 14 34  1  0  0  0  0
 15 21  1  0  0  0  0
 15 16  1  0  0  0  0
 15 17  1  0  0  0  0
 16 35  1  0  0  0  0
 17 18  1  0  0  0  0
 17 36  1  0  0  0  0
 17 37  1  0  0  0  0
 18 19  1  0  0  0  0
 18 38  1  0  0  0  0
 18 39  1  0  0  0  0
 19 20  1  0  0  0  0
 19 40  1  0  0  0  0
 19 41  1  0  0  0  0
 20 21  1  0  0  0  0
 20 42  1  0  0  0  0
 20 43  1  0  0  0  0
 21 44  1  0  0  0  0
 21 45  1  0  0  0  0
M  CHG  1   6   1
M  END
> <s_m_source_file>
AV-unprocessed.smi

> <i_m_source_file_index>
1542

> <i_lp_mmshare_version>
43012

> <i_f3d_flags>
0

> <s_epik_input>
W09IXVtDSDJdW0NIMl1bQ0gyXWMobjEpbihjKGMxMilbY0hdW2NIXVtjSF1bY0hdMilbQ0gyXUMzKFtPSF0pW0NIMl1bQ0gyXVtDSDJdW0NIMl1bQ0gyXTM=

> <s_epik_cmdline>
J2VwaWtfcHl0aG9uJywgJy1waCcsICc3LjAnLCAnLXRuJywgJzgnLCAnLW1hJywgJzIwMCcsICctbWV0YWxfYmluZGluZycsICctaW1hZScsICc8aW5maWxlLm1hZT4nLCAnLW9tYWUnLCAnPG91dGZpbGUubWFlPic=

> <r_epik_Ionization_Penalty>
0.555973

> <r_epik_Ionization_Penalty_Charging>
0.555973

> <r_epik_Ionization_Penalty_Neutral>
2.09159e-07

> <r_epik_State_Penalty>
0.566728

> <r_epik_Charging_Adjusted_Penalty>
1.1227

> <i_epik_Tot_Q>
1

> <i_epik_Tot_abs_Q>
1

> <r_epik_Metal_State_Penalty>
4.37256

> <b_epik_Metal_Only>
0

> <s_lp_Force_Field>
OPLS_2005

> <r_lp_Energy>
23.0728

> <b_lp_Chiralities_Consistent>
1

> <s_lp_Variant>
AV-unprocessed.smi:1542-2

> <Gold.Version>
5.8.1

> <Gold.Id.Protein>
6NUR|6NUR_protein|mol2

> <Gold.PLP.Fitness>
48.6921

> <Gold.PLP.PLP>
-41.7689

> <Gold.PLP.part.hbond>
-2.1257

> <Gold.PLP.part.metal>
0.0000

> <Gold.PLP.part.buried>
-5.5957

> <Gold.PLP.part.nonpolar>
-35.2177

> <Gold.PLP.part.repulsive>
0.0946

> <Gold.PLP.ligand.clash>
0.0000

> <Gold.PLP.ligand.torsion>
1.0332

> <Gold.PLP.Chemscore.Hbond>
2.8938

> <Gold.PLP.Chemscore.CHOScore>
0.0000

> <Gold.PLP.Chemscore.Metal>
0.0000

> <Gold.Chemscore.Hbonds>
donor molecule, donor type, donor heavy atom, donor atom, acceptor molecule, acceptor atom, score
      L1  H     1    22       P1 10175  0.86
      L1  H     6    46       P1  8028  1.95

> <Gold.PLP.Chemscore.Internal.Correction>
0.3084

> <Gold.Rescore>
     Score         DG    S(hbond)    S(metal)    S(lipo)     H(rot)  DE(clash)    DE(int)     intcor
     14.26     -16.59       1.73        0.00     107.33       2.82       0.00       2.32       ----

> <Gold.Chemscore.Fitness>
14.2649

> <Gold.Chemscore.DG>
-16.5864

> <Gold.Chemscore.ZeroCoef>
-5.4800

> <Gold.Chemscore.Hbond>
1.7251

> <Gold.Chemscore.Metal>
0.0000

> <Gold.Chemscore.Lipo>
107.3268

> <Gold.Chemscore.Internal_Hbond>
0.0000

> <Gold.Chemscore.DEClash>
0.0000

> <Gold.Chemscore.DEInternal>
2.3215

> <Gold.Chemscore.Rot>
2.8175

> <Gold.Chemscore.Internal.Correction>
   9.000000E+99

> <Gold.Chemscore.Hbonds>
donor molecule, donor type, donor heavy atom, donor atom, acceptor molecule, acceptor atom, score
      L1  H     1    22       P1 10175  0.25
      L1  H     6    46       P1  8028  0.89

> <Gold.Chemscore.Hbond.Weighted>
-5.7620

> <Gold.Chemscore.Metal.Weighted>
-0.0000

> <Gold.Chemscore.Lipo.Weighted>
-12.5572

> <Gold.Chemscore.Internal_Hbond.Weighted>
0.0000

> <Gold.Chemscore.DEClash.Weighted>
0.0000

> <Gold.Chemscore.DEInternal.Weighted>
2.3215

> <Gold.Chemscore.Rot.Weighted>
7.2128

> <Gold.Chemscore.Internal.Correction.Weighted>
   9.000000E+99

> <Gold.Protein.RotatedTorsions>
[ 6907 6896 6895 6894 ] final  121.95 input  -60.11 | X-H torsion
[ 7974 7965 7964 7962 ] final   17.66 input  175.53 | X-H torsion
[ 8008 7997 7996 7995 ] final  -20.37 input   59.86 | X-H torsion
[ 10167 10162 10161 10158 ] final   94.73 input  -65.29 | X-H torsion
[ 10718 10713 10712 10709 ] final  -28.89 input   66.30 | X-H torsion
[ 10763 10752 10751 10750 ] final -117.24 input  -60.55 | X-H torsion
[ 11005 11000 10999 10996 ] final  154.79 input  -57.11 | X-H torsion

> <Gold.Protein.ActiveResidues>
 VAL166  LYS551  ARG553  GLY616  TRP617  ASP618  TYR619  PRO620  LYS621  CYS622 
 ASP623  PHE694  ASN695  SER759  ASP760  ASP761  ALA762  ILE779  LEU786  VAL792 
 PHE793  MET794  SER795  GLU796  ALA797  LYS798  CYS799  TRP800  GLU811  SER814 

> <Gold.Protein.RotatedAtoms>
  152.4282  133.7231  159.6544 H   0  0  0  0  0  0  0  0  0  0  0  0  # atno 6907 bound_to 6896
  150.8159  133.8327  159.3166 H   0  0  0  0  0  0  0  0  0  0  0  0  # atno 6908 bound_to 6896
  151.6023  135.1048  160.0114 H   0  0  0  0  0  0  0  0  0  0  0  0  # atno 6909 bound_to 6896
  146.2211  139.8569  142.8612 H   0  0  0  0  0  0  0  0  0  0  0  0  # atno 7974 bound_to 7965
  154.4774  140.2063  155.9845 H   0  0  0  0  0  0  0  0  0  0  0  0  # atno 8008 bound_to 7997
  156.1111  140.3229  155.8044 H   0  0  0  0  0  0  0  0  0  0  0  0  # atno 8009 bound_to 7997
  155.4633  140.0525  157.2979 H   0  0  0  0  0  0  0  0  0  0  0  0  # atno 8010 bound_to 7997
  139.8056  144.6795  150.9707 H   0  0  0  0  0  0  0  0  0  0  0  0  # atno 10167 bound_to 10162
  156.4194  130.4423  149.7195 H   0  0  0  0  0  0  0  0  0  0  0  0  # atno 10718 bound_to 10713
  154.8548  135.4317  154.1948 H   0  0  0  0  0  0  0  0  0  0  0  0  # atno 10763 bound_to 10752
  153.3008  135.6968  153.7211 H   0  0  0  0  0  0  0  0  0  0  0  0  # atno 10764 bound_to 10752
  153.6342  135.3479  155.3025 H   0  0  0  0  0  0  0  0  0  0  0  0  # atno 10765 bound_to 10752
  140.1522  134.8667  157.2468 H   0  0  0  0  0  0  0  0  0  0  0  0  # atno 11005 bound_to 11000
  145.2744  141.0119  143.3753 LP  0  0  0  0  0  0  0  0  0  0  0  0  # atno 17320 bound_to 7965
  144.9199  139.4425  143.6546 LP  0  0  0  0  0  0  0  0  0  0  0  0  # atno 17321 bound_to 7965
  140.7819  143.4237  151.0802 LP  0  0  0  0  0  0  0  0  0  0  0  0  # atno 17342 bound_to 10162
  139.7906  143.8224  152.3151 LP  0  0  0  0  0  0  0  0  0  0  0  0  # atno 17343 bound_to 10162
  156.4142  130.7737  151.2751 LP  0  0  0  0  0  0  0  0  0  0  0  0  # atno 17370 bound_to 10713
  157.7508  131.0202  150.3700 LP  0  0  0  0  0  0  0  0  0  0  0  0  # atno 17371 bound_to 10713
  140.2591  134.3592  155.7413 LP  0  0  0  0  0  0  0  0  0  0  0  0  # atno 17394 bound_to 11000
  141.2200  133.7359  156.9053 LP  0  0  0  0  0  0  0  0  0  0  0  0  # atno 17395 bound_to 11000

$$$$
