AV-unprocessed.smi:175|AV-procd|sdf|1431|dock4
  -GOLD-   2262019213D 1   1.00000     0.00000
 Structure written by MMmdl.
 47 50  0  0  0  0  0  0  0  0  1 V2000
  147.8198  135.8503  155.5285 C   0  0  0  0  0  0  0  0  0  0  0  0
  149.0449  134.9346  155.3714 C   0  0  2  0  0  0  0  0  0  0  0  0
  148.6838  133.7346  154.7017 O   0  0  0  0  0  0  0  0  0  0  0  0
  149.6998  132.7848  154.9673 C   0  0  0  0  0  0  0  0  0  0  0  0
  149.9474  132.9737  156.4582 C   0  0  0  0  0  0  0  0  0  0  0  0
  149.7553  134.4776  156.6744 C   0  0  2  0  0  0  0  0  0  0  0  0
  148.9344  134.6588  157.8164 O   0  0  0  0  0  0  0  0  0  0  0  0
  151.1021  135.2030  156.9197 C   0  0  0  0  0  0  0  0  0  0  0  0
  150.9773  136.6500  157.0109 N   0  0  0  0  0  0  0  0  0  0  0  0
  151.0571  137.4175  158.1522 C   0  0  0  0  0  0  0  0  0  0  0  0
  150.9182  138.7029  157.9717 N   0  0  0  0  0  0  0  0  0  0  0  0
  150.7158  138.8284  156.6038 C   0  0  0  0  0  0  0  0  0  0  0  0
  150.4966  139.9297  155.7372 C   0  0  0  0  0  0  0  0  0  0  0  0
  150.4457  141.2001  156.1951 N   0  0  0  0  0  0  0  0  0  0  0  0
  149.1242  141.6713  156.6105 C   0  0  0  0  0  0  0  0  0  0  0  0
  149.4017  142.3107  157.9564 C   0  0  0  0  0  0  0  0  0  0  0  0
  148.5330  142.8508  158.6392 O   0  0  0  0  0  0  0  0  0  0  0  0
  150.6962  142.1984  158.2587 N   0  0  0  0  0  0  0  0  0  0  0  0
  151.3621  142.6983  159.4595 C   0  0  0  0  0  0  0  0  0  0  0  0
  151.5944  144.2191  159.4113 C   0  0  0  0  0  0  0  0  0  0  0  0
  152.0477  144.6256  160.5964 F   0  0  0  0  0  0  0  0  0  0  0  0
  152.4939  144.5407  158.4821 F   0  0  0  0  0  0  0  0  0  0  0  0
  150.4511  144.8543  159.1534 F   0  0  0  0  0  0  0  0  0  0  0  0
  151.4472  141.5297  157.2098 C   0  0  0  0  0  0  0  0  0  0  0  0
  150.3238  139.6761  154.4129 N   0  0  0  0  0  0  0  0  0  0  0  0
  150.3685  138.4174  153.9653 C   0  0  0  0  0  0  0  0  0  0  0  0
  150.5682  137.2917  154.6554 N   0  0  0  0  0  0  0  0  0  0  0  0
  150.7414  137.5481  155.9845 C   0  0  0  0  0  0  0  0  0  0  0  0
  148.0809  136.7705  156.0518 H   0  0  0  0  0  0  0  0  0  0  0  0
  147.0216  135.3589  156.0854 H   0  0  0  0  0  0  0  0  0  0  0  0
  147.4172  136.1266  154.5538 H   0  0  0  0  0  0  0  0  0  0  0  0
  149.7664  135.4314  154.7216 H   0  0  0  0  0  0  0  0  0  0  0  0
  149.3826  131.7723  154.7169 H   0  0  0  0  0  0  0  0  0  0  0  0
  150.5922  133.0232  154.3865 H   0  0  0  0  0  0  0  0  0  0  0  0
  149.2002  132.4003  157.0100 H   0  0  0  0  0  0  0  0  0  0  0  0
  150.9284  132.6096  156.7657 H   0  0  0  0  0  0  0  0  0  0  0  0
  148.5744  135.5322  157.7932 H   0  0  0  0  0  0  0  0  0  0  0  0
  151.5647  134.8419  157.8393 H   0  0  0  0  0  0  0  0  0  0  0  0
  151.8042  134.9726  156.1171 H   0  0  0  0  0  0  0  0  0  0  0  0
  151.2283  136.9929  159.1306 H   0  0  0  0  0  0  0  0  0  0  0  0
  148.7503  142.4148  155.9063 H   0  0  0  0  0  0  0  0  0  0  0  0
  148.3810  140.8784  156.7097 H   0  0  0  0  0  0  0  0  0  0  0  0
  150.7556  142.4479  160.3310 H   0  0  0  0  0  0  0  0  0  0  0  0
  152.3125  142.1787  159.5919 H   0  0  0  0  0  0  0  0  0  0  0  0
  151.9626  140.6543  157.6102 H   0  0  0  0  0  0  0  0  0  0  0  0
  152.1936  142.2036  156.7877 H   0  0  0  0  0  0  0  0  0  0  0  0
  150.2236  138.2945  152.9021 H   0  0  0  0  0  0  0  0  0  0  0  0
  1  2  1  0  0  0  0
  1 29  1  0  0  0  0
  1 30  1  0  0  0  0
  1 31  1  0  0  0  0
  2  6  1  0  0  0  0
  2  3  1  0  0  0  0
  2 32  1  0  0  0  0
  3  4  1  0  0  0  0
  4  5  1  0  0  0  0
  4 33  1  0  0  0  0
  4 34  1  0  0  0  0
  5  6  1  0  0  0  0
  5 35  1  0  0  0  0
  5 36  1  0  0  0  0
  6  7  1  0  0  0  0
  6  8  1  0  0  0  0
  7 37  1  0  0  0  0
  8  9  1  0  0  0  0
  8 38  1  0  0  0  0
  8 39  1  0  0  0  0
  9 28  1  0  0  0  0
  9 10  1  0  0  0  0
 10 11  2  0  0  0  0
 10 40  1  0  0  0  0
 11 12  1  0  0  0  0
 12 28  2  0  0  0  0
 12 13  1  0  0  0  0
 13 14  1  0  0  0  0
 13 25  2  0  0  0  0
 14 24  1  0  0  0  0
 14 15  1  0  0  0  0
 15 16  1  0  0  0  0
 15 41  1  0  0  0  0
 15 42  1  0  0  0  0
 16 17  2  0  0  0  0
 16 18  1  0  0  0  0
 18 19  1  0  0  0  0
 18 24  1  0  0  0  0
 19 20  1  0  0  0  0
 19 43  1  0  0  0  0
 19 44  1  0  0  0  0
 20 21  1  0  0  0  0
 20 22  1  0  0  0  0
 20 23  1  0  0  0  0
 24 45  1  0  0  0  0
 24 46  1  0  0  0  0
 25 26  1  0  0  0  0
 26 27  2  0  0  0  0
 26 47  1  0  0  0  0
 27 28  1  0  0  0  0
M  END
> <s_m_source_file>
AV-unprocessed.smi

> <i_m_source_file_index>
175

> <i_lp_mmshare_version>
43012

> <i_f3d_flags>
0

> <s_epik_input>
W0NIMl0xW0NIMl1PW0NAQEhdKFtDSDNdKVtDQEBdMShbT0hdKVtDSDJdbihbY0hdbjIpYyhjMjMpbltjSF1uYzNONFtDSDJdQyg9TylOKFtDSDJdNClbQ0gyXUMoRikoRilG

> <s_epik_cmdline>
J2VwaWtfcHl0aG9uJywgJy1waCcsICc3LjAnLCAnLXRuJywgJzgnLCAnLW1hJywgJzIwMCcsICctbWV0YWxfYmluZGluZycsICctaW1hZScsICc8aW5maWxlLm1hZT4nLCAnLW9tYWUnLCAnPG91dGZpbGUubWFlPic=

> <r_lp_tautomer_probability>
1

> <r_epik_Ionization_Penalty>
0.000307802

> <r_epik_Ionization_Penalty_Charging>
0

> <r_epik_Ionization_Penalty_Neutral>
0.000307802

> <r_epik_State_Penalty>
-0

> <r_epik_Charging_Adjusted_Penalty>
0

> <i_epik_Tot_Q>
0

> <i_epik_Tot_abs_Q>
0

> <r_epik_Metal_State_Penalty>
-0

> <b_epik_Metal_Only>
0

> <s_epik_Chemistry_Notes>
This compound contains an acetal/aminal-like group ( X-CH(R)-Y where X, Y are N, S, or O) that may be acid/base labile, releasing an aldehyde.

> <s_lp_Force_Field>
OPLS_2005

> <r_lp_Energy>
38.2687

> <b_lp_Chiralities_Consistent>
1

> <s_lp_Variant>
AV-unprocessed.smi:175-3

> <Gold.Version>
5.8.1

> <Gold.Id.Protein>
6NUR|6NUR_protein|mol2

> <Gold.PLP.Fitness>
51.1475

> <Gold.PLP.PLP>
-41.2785

> <Gold.PLP.part.hbond>
-2.5796

> <Gold.PLP.part.metal>
0.0000

> <Gold.PLP.part.buried>
-8.8509

> <Gold.PLP.part.nonpolar>
-32.5004

> <Gold.PLP.part.repulsive>
0.5934

> <Gold.PLP.ligand.clash>
0.0000

> <Gold.PLP.ligand.torsion>
1.0930

> <Gold.PLP.Chemscore.Hbond>
2.0000

> <Gold.PLP.Chemscore.CHOScore>
1.9316

> <Gold.PLP.Chemscore.Metal>
0.0000

> <Gold.Chemscore.Hbonds>
donor molecule, donor type, donor heavy atom, donor atom, acceptor molecule, acceptor atom, score
      P1  H  6896  6908       L1     7  0.10
      P1  H  7989  7998       L1    25  1.00
      L1  C    26    47       P1  7948  0.70
      L1  C    26    47       P1  7949  0.05
      L1  C    26    47       P1  7957  0.97

> <Gold.PLP.Chemscore.Internal.Correction>
0.2603

> <Gold.Rescore>
     Score         DG    S(hbond)    S(metal)    S(lipo)     H(rot)  DE(clash)    DE(int)     intcor
      5.50      -9.41       1.58        0.00      55.08       3.05       0.25       3.65       ----

> <Gold.Chemscore.Fitness>
5.5016

> <Gold.Chemscore.DG>
-9.4055

> <Gold.Chemscore.ZeroCoef>
-5.4800

> <Gold.Chemscore.Hbond>
1.5824

> <Gold.Chemscore.Metal>
0.0000

> <Gold.Chemscore.Lipo>
55.0845

> <Gold.Chemscore.Internal_Hbond>
0.0000

> <Gold.Chemscore.DEClash>
0.2523

> <Gold.Chemscore.DEInternal>
3.6516

> <Gold.Chemscore.Rot>
3.0487

> <Gold.Chemscore.Internal.Correction>
   9.000000E+99

> <Gold.Chemscore.Hbonds>
donor molecule, donor type, donor heavy atom, donor atom, acceptor molecule, acceptor atom, score
      P1  H  6896  6908       L1     7  0.01
      P1  H  7989  7998       L1    25  0.41

> <Gold.Chemscore.Hbond.Weighted>
-5.2851

> <Gold.Chemscore.Metal.Weighted>
-0.0000

> <Gold.Chemscore.Lipo.Weighted>
-6.4449

> <Gold.Chemscore.Internal_Hbond.Weighted>
0.0000

> <Gold.Chemscore.DEClash.Weighted>
0.2523

> <Gold.Chemscore.DEInternal.Weighted>
3.6516

> <Gold.Chemscore.Rot.Weighted>
7.8046

> <Gold.Chemscore.Internal.Correction.Weighted>
   9.000000E+99

> <Gold.Protein.RotatedTorsions>
[ 6907 6896 6895 6894 ] final  138.87 input  -60.11 | X-H torsion
[ 7974 7965 7964 7962 ] final -163.91 input  175.53 | X-H torsion
[ 8008 7997 7996 7995 ] final  145.97 input   59.86 | X-H torsion
[ 10167 10162 10161 10158 ] final    8.81 input  -65.29 | X-H torsion
[ 10718 10713 10712 10709 ] final  153.36 input   66.30 | X-H torsion
[ 10763 10752 10751 10750 ] final   -7.12 input  -60.55 | X-H torsion
[ 11005 11000 10999 10996 ] final -172.74 input  -57.11 | X-H torsion

> <Gold.Protein.ActiveResidues>
 VAL166  LYS551  ARG553  GLY616  TRP617  ASP618  TYR619  PRO620  LYS621  CYS622 
 ASP623  PHE694  ASN695  SER759  ASP760  ASP761  ALA762  ILE779  LEU786  VAL792 
 PHE793  MET794  SER795  GLU796  ALA797  LYS798  CYS799  TRP800  GLU811  SER814 

> <Gold.Protein.RotatedAtoms>
  152.2616  133.5302  159.5384 H   0  0  0  0  0  0  0  0  0  0  0  0  # atno 6907 bound_to 6896
  150.7127  134.0822  159.3911 H   0  0  0  0  0  0  0  0  0  0  0  0  # atno 6908 bound_to 6896
  151.8740  135.0479  160.0533 H   0  0  0  0  0  0  0  0  0  0  0  0  # atno 6909 bound_to 6896
  144.7312  140.3038  143.6200 H   0  0  0  0  0  0  0  0  0  0  0  0  # atno 7974 bound_to 7965
  156.2868  140.2195  156.5301 H   0  0  0  0  0  0  0  0  0  0  0  0  # atno 8008 bound_to 7997
  154.7456  140.0484  157.0871 H   0  0  0  0  0  0  0  0  0  0  0  0  # atno 8009 bound_to 7997
  155.0175  140.3120  155.4809 H   0  0  0  0  0  0  0  0  0  0  0  0  # atno 8010 bound_to 7997
  140.6292  143.8031  150.7273 H   0  0  0  0  0  0  0  0  0  0  0  0  # atno 10167 bound_to 10162
  157.2458  131.0768  151.1762 H   0  0  0  0  0  0  0  0  0  0  0  0  # atno 10718 bound_to 10713
  153.4219  135.7010  153.6288 H   0  0  0  0  0  0  0  0  0  0  0  0  # atno 10763 bound_to 10752
  153.4739  135.3708  155.2406 H   0  0  0  0  0  0  0  0  0  0  0  0  # atno 10764 bound_to 10752
  154.8722  135.4049  154.3589 H   0  0  0  0  0  0  0  0  0  0  0  0  # atno 10765 bound_to 10752
  140.4936  134.5961  157.4963 H   0  0  0  0  0  0  0  0  0  0  0  0  # atno 11005 bound_to 11000
  145.7734  139.1865  143.2199 LP  0  0  0  0  0  0  0  0  0  0  0  0  # atno 17320 bound_to 7965
  146.0892  140.7675  142.9603 LP  0  0  0  0  0  0  0  0  0  0  0  0  # atno 17321 bound_to 7965
  140.1639  143.4252  152.2048 LP  0  0  0  0  0  0  0  0  0  0  0  0  # atno 17342 bound_to 10162
  139.5509  144.7336  151.4439 LP  0  0  0  0  0  0  0  0  0  0  0  0  # atno 17343 bound_to 10162
  157.3330  130.6995  149.6336 LP  0  0  0  0  0  0  0  0  0  0  0  0  # atno 17370 bound_to 10713
  155.9668  130.4302  150.4865 LP  0  0  0  0  0  0  0  0  0  0  0  0  # atno 17371 bound_to 10713
  139.9755  134.7223  155.9959 LP  0  0  0  0  0  0  0  0  0  0  0  0  # atno 17394 bound_to 11000
  141.1472  133.6554  156.3902 LP  0  0  0  0  0  0  0  0  0  0  0  0  # atno 17395 bound_to 11000

$$$$
