AV-unprocessed.smi:1118|AV-procd|sdf|4815|dock3
  -GOLD-   22720 3363D 1   1.00000     0.00000
 Structure written by MMmdl.
 45 46  0  0  0  0  0  0  0  0  2 V2000
  148.4594  132.9948  152.9909 C   0  0  0  0  0  0  0  0  0  0  0  0
  149.1395  133.0595  154.2325 O   0  0  0  0  0  0  0  0  0  0  0  0
  149.8881  134.2548  154.3804 C   0  0  0  0  0  0  0  0  0  0  0  0
  148.9709  135.3518  154.9425 C   0  0  0  0  0  0  0  0  0  0  0  0
  149.4419  136.7192  154.6045 N   0  3  2  0  0  0  0  0  0  0  0  0
  150.9039  136.8734  154.8161 C   0  0  0  0  0  0  0  0  0  0  0  0
  151.3911  138.2461  154.3246 C   0  0  0  0  0  0  0  0  0  0  0  0
  150.6435  139.4040  155.0187 C   0  0  2  0  0  0  0  0  0  0  0  0
  151.0196  139.6127  156.5049 C   0  0  0  0  0  0  0  0  0  0  0  0
  150.2503  140.6946  157.1096 N   0  0  0  0  0  0  0  0  0  0  0  0
  150.7408  141.6328  157.9351 C   0  0  0  0  0  0  0  0  0  0  0  0
  151.8977  141.6366  158.3556 O   0  0  0  0  0  0  0  0  0  0  0  0
  149.7887  142.7676  158.3099 C   0  0  0  0  0  0  0  0  0  0  0  0
  150.4486  143.7107  159.1948 N   0  0  0  0  0  0  0  0  0  0  0  0
  150.4899  145.0865  159.1026 C   0  0  0  0  0  0  0  0  0  0  0  0
  151.2087  145.5441  160.1697 C   0  0  0  0  0  0  0  0  0  0  0  0
  151.5688  144.3582  160.8687 C   0  0  0  0  0  0  0  0  0  0  0  0
  151.1119  143.2625  160.2839 N   0  0  0  0  0  0  0  0  0  0  0  0
  149.1302  139.1931  154.8269 C   0  0  0  0  0  0  0  0  0  0  0  0
  148.6704  137.7949  155.2836 C   0  0  0  0  0  0  0  0  0  0  0  0
  147.9057  132.0581  152.9243 H   0  0  0  0  0  0  0  0  0  0  0  0
  149.1592  133.0323  152.1547 H   0  0  0  0  0  0  0  0  0  0  0  0
  147.7471  133.8145  152.8880 H   0  0  0  0  0  0  0  0  0  0  0  0
  150.7566  134.0895  155.0182 H   0  0  0  0  0  0  0  0  0  0  0  0
  150.2660  134.5678  153.4059 H   0  0  0  0  0  0  0  0  0  0  0  0
  147.9496  135.2171  154.5833 H   0  0  0  0  0  0  0  0  0  0  0  0
  148.9315  135.2329  156.0261 H   0  0  0  0  0  0  0  0  0  0  0  0
  151.1409  136.7352  155.8718 H   0  0  0  0  0  0  0  0  0  0  0  0
  151.4376  136.0947  154.2701 H   0  0  0  0  0  0  0  0  0  0  0  0
  152.4692  138.3336  154.4583 H   0  0  0  0  0  0  0  0  0  0  0  0
  151.2264  138.3123  153.2483 H   0  0  0  0  0  0  0  0  0  0  0  0
  150.9142  140.3236  154.4975 H   0  0  0  0  0  0  0  0  0  0  0  0
  150.8035  138.7029  157.0657 H   0  0  0  0  0  0  0  0  0  0  0  0
  152.0903  139.7841  156.6191 H   0  0  0  0  0  0  0  0  0  0  0  0
  149.2858  140.7811  156.8223 H   0  0  0  0  0  0  0  0  0  0  0  0
  149.4388  143.2888  157.4171 H   0  0  0  0  0  0  0  0  0  0  0  0
  148.9094  142.3642  158.8139 H   0  0  0  0  0  0  0  0  0  0  0  0
  150.0075  145.6188  158.2958 H   0  0  0  0  0  0  0  0  0  0  0  0
  151.4409  146.5701  160.4142 H   0  0  0  0  0  0  0  0  0  0  0  0
  152.1436  144.2618  161.7779 H   0  0  0  0  0  0  0  0  0  0  0  0
  148.5706  139.9632  155.3589 H   0  0  0  0  0  0  0  0  0  0  0  0
  148.8833  139.3176  153.7716 H   0  0  0  0  0  0  0  0  0  0  0  0
  147.6088  137.6924  155.0635 H   0  0  0  0  0  0  0  0  0  0  0  0
  148.7731  137.6925  156.3645 H   0  0  0  0  0  0  0  0  0  0  0  0
  149.2924  136.8317  153.6115 H   0  0  0  0  0  0  0  0  0  0  0  0
  1  2  1  0  0  0  0
  1 21  1  0  0  0  0
  1 22  1  0  0  0  0
  1 23  1  0  0  0  0
  2  3  1  0  0  0  0
  3  4  1  0  0  0  0
  3 24  1  0  0  0  0
  3 25  1  0  0  0  0
  4  5  1  0  0  0  0
  4 26  1  0  0  0  0
  4 27  1  0  0  0  0
  5 20  1  0  0  0  0
  5  6  1  0  0  0  0
  5 45  1  0  0  0  0
  6  7  1  0  0  0  0
  6 28  1  0  0  0  0
  6 29  1  0  0  0  0
  7  8  1  0  0  0  0
  7 30  1  0  0  0  0
  7 31  1  0  0  0  0
  8  9  1  0  0  0  0
  8 19  1  0  0  0  0
  8 32  1  0  0  0  0
  9 10  1  0  0  0  0
  9 33  1  0  0  0  0
  9 34  1  0  0  0  0
 10 11  1  0  0  0  0
 10 35  1  0  0  0  0
 11 12  2  0  0  0  0
 11 13  1  0  0  0  0
 13 14  1  0  0  0  0
 13 36  1  0  0  0  0
 13 37  1  0  0  0  0
 14 18  1  0  0  0  0
 14 15  1  0  0  0  0
 15 16  2  0  0  0  0
 15 38  1  0  0  0  0
 16 17  1  0  0  0  0
 16 39  1  0  0  0  0
 17 18  2  0  0  0  0
 17 40  1  0  0  0  0
 19 20  1  0  0  0  0
 19 41  1  0  0  0  0
 19 42  1  0  0  0  0
 20 43  1  0  0  0  0
 20 44  1  0  0  0  0
M  CHG  1   5   1
M  END
> <s_m_source_file>
AV-unprocessed.smi

> <i_m_source_file_index>
1118

> <i_lp_mmshare_version>
43012

> <i_f3d_flags>
0

> <s_epik_input>
W0NIM11PW0NIMl1bQ0gyXU4xW0NIMl1bQ0gyXVtDSF0oW0NIMl1bQ0gyXTEpW0NIMl1bTkhdQyg9TylbQ0gyXW4yW2NIXVtjSF1bY0hdbjI=

> <s_epik_cmdline>
J2VwaWtfcHl0aG9uJywgJy1waCcsICc3LjAnLCAnLXRuJywgJzgnLCAnLW1hJywgJzIwMCcsICctbWV0YWxfYmluZGluZycsICctaW1hZScsICc8aW5maWxlLm1hZT4nLCAnLW9tYWUnLCAnPG91dGZpbGUubWFlPic=

> <r_lp_tautomer_probability>
1

> <r_epik_Ionization_Penalty>
0.00991549

> <r_epik_Ionization_Penalty_Charging>
0.00990284

> <r_epik_Ionization_Penalty_Neutral>
1.26554e-05

> <r_epik_State_Penalty>
0.00754525

> <r_epik_Charging_Adjusted_Penalty>
0.0174481

> <i_epik_Tot_Q>
1

> <i_epik_Tot_abs_Q>
1

> <r_epik_Metal_State_Penalty>
0.00754527

> <b_epik_Metal_Only>
0

> <s_lp_Force_Field>
OPLS_2005

> <r_lp_Energy>
20.3216

> <b_lp_Chiralities_Consistent>
1

> <s_lp_Variant>
AV-unprocessed.smi:1118-2

> <Gold.Version>
5.8.1

> <Gold.Id.Protein>
6NUR|6NUR_protein|mol2

> <Gold.PLP.Fitness>
45.6078

> <Gold.PLP.PLP>
-37.6131

> <Gold.PLP.part.hbond>
-1.4146

> <Gold.PLP.part.metal>
0.0000

> <Gold.PLP.part.buried>
-6.6581

> <Gold.PLP.part.nonpolar>
-30.8991

> <Gold.PLP.part.repulsive>
0.1873

> <Gold.PLP.ligand.clash>
0.0000

> <Gold.PLP.ligand.torsion>
0.5979

> <Gold.PLP.Chemscore.Hbond>
2.0000

> <Gold.PLP.Chemscore.CHOScore>
1.0000

> <Gold.PLP.Chemscore.Metal>
0.0000

> <Gold.Chemscore.Hbonds>
donor molecule, donor type, donor heavy atom, donor atom, acceptor molecule, acceptor atom, score
      L1  H     5    45       P1  7948  2.00
      L1  C    15    38       P1  8029  1.00

> <Gold.PLP.Chemscore.Internal.Correction>
0.1905

> <Gold.Rescore>
     Score         DG    S(hbond)    S(metal)    S(lipo)     H(rot)  DE(clash)    DE(int)     intcor
     11.91     -14.10       0.97        0.00      94.36       2.22       0.00       2.19       ----

> <Gold.Chemscore.Fitness>
11.9099

> <Gold.Chemscore.DG>
-14.0994

> <Gold.Chemscore.ZeroCoef>
-5.4800

> <Gold.Chemscore.Hbond>
0.9744

> <Gold.Chemscore.Metal>
0.0000

> <Gold.Chemscore.Lipo>
94.3551

> <Gold.Chemscore.Internal_Hbond>
0.0000

> <Gold.Chemscore.DEClash>
0.0009

> <Gold.Chemscore.DEInternal>
2.1885

> <Gold.Chemscore.Rot>
2.2166

> <Gold.Chemscore.Internal.Correction>
   9.000000E+99

> <Gold.Chemscore.Hbonds>
donor molecule, donor type, donor heavy atom, donor atom, acceptor molecule, acceptor atom, score
      L1  H     5    45       P1  7948  0.95

> <Gold.Chemscore.Hbond.Weighted>
-3.2543

> <Gold.Chemscore.Metal.Weighted>
-0.0000

> <Gold.Chemscore.Lipo.Weighted>
-11.0395

> <Gold.Chemscore.Internal_Hbond.Weighted>
0.0000

> <Gold.Chemscore.DEClash.Weighted>
0.0009

> <Gold.Chemscore.DEInternal.Weighted>
2.1885

> <Gold.Chemscore.Rot.Weighted>
5.6745

> <Gold.Chemscore.Internal.Correction.Weighted>
   9.000000E+99

> <Gold.Protein.RotatedTorsions>
[ 6907 6896 6895 6894 ] final  -26.25 input  -60.11 | X-H torsion
[ 7974 7965 7964 7962 ] final  -32.69 input  175.53 | X-H torsion
[ 8008 7997 7996 7995 ] final   86.30 input   59.86 | X-H torsion
[ 10167 10162 10161 10158 ] final  -36.74 input  -65.29 | X-H torsion
[ 10718 10713 10712 10709 ] final  -71.52 input   66.30 | X-H torsion
[ 10763 10752 10751 10750 ] final  115.41 input  -60.55 | X-H torsion
[ 11005 11000 10999 10996 ] final  153.22 input  -57.11 | X-H torsion

> <Gold.Protein.ActiveResidues>
 VAL166  LYS551  ARG553  GLY616  TRP617  ASP618  TYR619  PRO620  LYS621  CYS622 
 ASP623  PHE694  ASN695  SER759  ASP760  ASP761  ALA762  ILE779  LEU786  VAL792 
 PHE793  MET794  SER795  GLU796  ALA797  LYS798  CYS799  TRP800  GLU811  SER814 

> <Gold.Protein.RotatedAtoms>
  151.1636  135.0285  159.8720 H   0  0  0  0  0  0  0  0  0  0  0  0  # atno 6907 bound_to 6896
  152.5451  134.1251  159.8425 H   0  0  0  0  0  0  0  0  0  0  0  0  # atno 6908 bound_to 6896
  151.1349  133.4965  159.2631 H   0  0  0  0  0  0  0  0  0  0  0  0  # atno 6909 bound_to 6896
  146.0970  140.5824  142.8838 H   0  0  0  0  0  0  0  0  0  0  0  0  # atno 7974 bound_to 7965
  155.9610  140.3393  155.6491 H   0  0  0  0  0  0  0  0  0  0  0  0  # atno 8008 bound_to 7997
  155.6798  140.0736  157.2507 H   0  0  0  0  0  0  0  0  0  0  0  0  # atno 8009 bound_to 7997
  154.4143  140.1676  156.1957 H   0  0  0  0  0  0  0  0  0  0  0  0  # atno 8010 bound_to 7997
  140.7135  143.3388  151.2402 H   0  0  0  0  0  0  0  0  0  0  0  0  # atno 10167 bound_to 10162
  156.0359  130.4353  150.2456 H   0  0  0  0  0  0  0  0  0  0  0  0  # atno 10718 bound_to 10713
  153.5218  135.3596  155.2635 H   0  0  0  0  0  0  0  0  0  0  0  0  # atno 10763 bound_to 10752
  154.8734  135.4047  154.3251 H   0  0  0  0  0  0  0  0  0  0  0  0  # atno 10764 bound_to 10752
  153.3923  135.7072  153.6553 H   0  0  0  0  0  0  0  0  0  0  0  0  # atno 10765 bound_to 10752
  140.1378  134.8759  157.2291 H   0  0  0  0  0  0  0  0  0  0  0  0  # atno 11005 bound_to 11000
  144.7403  140.4923  143.6874 LP  0  0  0  0  0  0  0  0  0  0  0  0  # atno 17320 bound_to 7965
  145.5929  139.1497  143.3172 LP  0  0  0  0  0  0  0  0  0  0  0  0  # atno 17321 bound_to 7965
  139.6891  143.9723  152.2849 LP  0  0  0  0  0  0  0  0  0  0  0  0  # atno 17342 bound_to 10162
  139.9379  144.6700  150.8296 LP  0  0  0  0  0  0  0  0  0  0  0  0  # atno 17343 bound_to 10162
  157.0556  131.0075  151.3239 LP  0  0  0  0  0  0  0  0  0  0  0  0  # atno 17370 bound_to 10713
  157.5108  130.7937  149.7703 LP  0  0  0  0  0  0  0  0  0  0  0  0  # atno 17371 bound_to 10713
  140.2760  134.3405  155.7358 LP  0  0  0  0  0  0  0  0  0  0  0  0  # atno 17394 bound_to 11000
  141.2181  133.7450  156.9293 LP  0  0  0  0  0  0  0  0  0  0  0  0  # atno 17395 bound_to 11000

$$$$
