AV-unprocessed.smi:574|AV-procd|sdf|2975|dock1
  -GOLD-   2262023483D 1   1.00000     0.00000
 Structure written by MMmdl.
 40 41  0  0  0  0  0  0  0  0  1 V2000
  144.3491  132.0883  148.5199 C   0  0  0  0  0  0  0  0  0  0  0  0
  144.9338  132.4745  149.8741 C   0  0  0  0  0  0  0  0  0  0  0  0
  144.6952  131.7900  150.8685 O   0  0  0  0  0  0  0  0  0  0  0  0
  145.6971  133.5770  149.8979 N   0  0  0  0  0  0  0  0  0  0  0  0
  146.3494  134.1181  151.0840 C   0  0  0  0  0  0  0  0  0  0  0  0
  147.1639  133.0404  151.8216 C   0  0  0  0  0  0  0  0  0  0  0  0
  148.0683  133.6317  152.7993 N   0  0  0  0  0  0  0  0  0  0  0  0
  148.2291  133.2032  154.0613 C   0  0  0  0  0  0  0  0  0  0  0  0
  147.6524  132.2185  154.5244 O   0  0  0  0  0  0  0  0  0  0  0  0
  149.2339  133.9594  154.8823 C   0  0  0  0  0  0  0  0  0  0  0  0
  149.0660  135.3001  154.9483 N   0  0  0  0  0  0  0  0  0  0  0  0
  149.9409  136.0225  155.6587 C   0  0  0  0  0  0  0  0  0  0  0  0
  149.7447  137.4087  155.7103 N   0  0  0  0  0  0  0  0  0  0  0  0
  149.1288  138.1428  154.6053 C   0  0  0  0  0  0  0  0  0  0  0  0
  150.2293  138.7098  153.6901 C   0  0  0  0  0  0  0  0  0  0  0  0
  151.0973  139.5464  154.4526 O   0  0  0  0  0  0  0  0  0  0  0  0
  151.7174  138.8534  155.5340 C   0  0  0  0  0  0  0  0  0  0  0  0
  150.6337  138.2873  156.4697 C   0  0  0  0  0  0  0  0  0  0  0  0
  150.9880  135.5175  156.3219 N   0  0  0  0  0  0  0  0  0  0  0  0
  151.1858  134.1845  156.2608 C   0  0  0  0  0  0  0  0  0  0  0  0
  150.3280  133.3346  155.5362 C   0  0  0  0  0  0  0  0  0  0  0  0
  150.6657  131.6387  155.4559 Cl  0  0  0  0  0  0  0  0  0  0  0  0
  145.1366  132.0110  147.7700 H   0  0  0  0  0  0  0  0  0  0  0  0
  143.6293  132.8378  148.1904 H   0  0  0  0  0  0  0  0  0  0  0  0
  143.8383  131.1267  148.5776 H   0  0  0  0  0  0  0  0  0  0  0  0
  145.8376  134.0759  149.0312 H   0  0  0  0  0  0  0  0  0  0  0  0
  146.9869  134.9609  150.8108 H   0  0  0  0  0  0  0  0  0  0  0  0
  145.5731  134.5167  151.7376 H   0  0  0  0  0  0  0  0  0  0  0  0
  146.5013  132.3239  152.3099 H   0  0  0  0  0  0  0  0  0  0  0  0
  147.7665  132.4729  151.1120 H   0  0  0  0  0  0  0  0  0  0  0  0
  148.6015  134.4362  152.5018 H   0  0  0  0  0  0  0  0  0  0  0  0
  148.4314  137.5329  154.0318 H   0  0  0  0  0  0  0  0  0  0  0  0
  148.5373  138.9608  155.0179 H   0  0  0  0  0  0  0  0  0  0  0  0
  150.7994  137.9056  153.2222 H   0  0  0  0  0  0  0  0  0  0  0  0
  149.7861  139.2984  152.8867 H   0  0  0  0  0  0  0  0  0  0  0  0
  152.3573  138.0567  155.1512 H   0  0  0  0  0  0  0  0  0  0  0  0
  152.3594  139.5469  156.0771 H   0  0  0  0  0  0  0  0  0  0  0  0
  150.0432  139.1053  156.8837 H   0  0  0  0  0  0  0  0  0  0  0  0
  151.0882  137.7877  157.3246 H   0  0  0  0  0  0  0  0  0  0  0  0
  152.0444  133.7945  156.7872 H   0  0  0  0  0  0  0  0  0  0  0  0
  1  2  1  0  0  0  0
  1 23  1  0  0  0  0
  1 24  1  0  0  0  0
  1 25  1  0  0  0  0
  2  3  2  0  0  0  0
  2  4  1  0  0  0  0
  4  5  1  0  0  0  0
  4 26  1  0  0  0  0
  5  6  1  0  0  0  0
  5 27  1  0  0  0  0
  5 28  1  0  0  0  0
  6  7  1  0  0  0  0
  6 29  1  0  0  0  0
  6 30  1  0  0  0  0
  7  8  1  0  0  0  0
  7 31  1  0  0  0  0
  8  9  2  0  0  0  0
  8 10  1  0  0  0  0
 10 21  1  0  0  0  0
 10 11  2  0  0  0  0
 11 12  1  0  0  0  0
 12 13  1  0  0  0  0
 12 19  2  0  0  0  0
 13 18  1  0  0  0  0
 13 14  1  0  0  0  0
 14 15  1  0  0  0  0
 14 32  1  0  0  0  0
 14 33  1  0  0  0  0
 15 16  1  0  0  0  0
 15 34  1  0  0  0  0
 15 35  1  0  0  0  0
 16 17  1  0  0  0  0
 17 18  1  0  0  0  0
 17 36  1  0  0  0  0
 17 37  1  0  0  0  0
 18 38  1  0  0  0  0
 18 39  1  0  0  0  0
 19 20  1  0  0  0  0
 20 21  2  0  0  0  0
 20 40  1  0  0  0  0
 21 22  1  0  0  0  0
M  END
> <s_m_source_file>
AV-unprocessed.smi

> <i_m_source_file_index>
574

> <i_lp_mmshare_version>
43012

> <i_f3d_flags>
0

> <s_epik_input>
W0NIM11DKD1PKVtOSF1bQ0gyXVtDSDJdW05IXUMoPU8pYzFuYyhuW2NIXWMxQ2wpTjJbQ0gyXVtDSDJdT1tDSDJdW0NIMl0y

> <s_epik_cmdline>
J2VwaWtfcHl0aG9uJywgJy1waCcsICc3LjAnLCAnLXRuJywgJzgnLCAnLW1hJywgJzIwMCcsICctbWV0YWxfYmluZGluZycsICctaW1hZScsICc8aW5maWxlLm1hZT4nLCAnLW9tYWUnLCAnPG91dGZpbGUubWFlPic=

> <r_lp_tautomer_probability>
1

> <r_epik_Ionization_Penalty>
4.61473e-05

> <r_epik_Ionization_Penalty_Charging>
0

> <r_epik_Ionization_Penalty_Neutral>
4.61473e-05

> <r_epik_State_Penalty>
-0

> <r_epik_Charging_Adjusted_Penalty>
0

> <i_epik_Tot_Q>
0

> <i_epik_Tot_abs_Q>
0

> <r_epik_Metal_State_Penalty>
0.0410325

> <b_epik_Metal_Only>
0

> <s_lp_Force_Field>
OPLS_2005

> <r_lp_Energy>
11.2452

> <b_lp_Chiralities_Consistent>
1

> <s_lp_Variant>
AV-unprocessed.smi:574-1

> <Gold.Version>
5.8.1

> <Gold.Id.Protein>
6NUR|6NUR_protein|mol2

> <Gold.PLP.Fitness>
39.8373

> <Gold.PLP.PLP>
-33.1337

> <Gold.PLP.part.hbond>
-3.0000

> <Gold.PLP.part.metal>
0.0000

> <Gold.PLP.part.buried>
-6.5300

> <Gold.PLP.part.nonpolar>
-24.1825

> <Gold.PLP.part.repulsive>
0.4548

> <Gold.PLP.ligand.clash>
0.0000

> <Gold.PLP.ligand.torsion>
1.3167

> <Gold.PLP.Chemscore.Hbond>
3.0073

> <Gold.PLP.Chemscore.CHOScore>
0.0000

> <Gold.PLP.Chemscore.Metal>
0.0000

> <Gold.Chemscore.Hbonds>
donor molecule, donor type, donor heavy atom, donor atom, acceptor molecule, acceptor atom, score
      L1  H     4    26       P1  7921  1.00
      L1  H     7    31       P1  7948  0.50
      P1  H  7989  7998       L1    16  1.00

> <Gold.PLP.Chemscore.Internal.Correction>
0.3151

> <Gold.Rescore>
     Score         DG    S(hbond)    S(metal)    S(lipo)     H(rot)  DE(clash)    DE(int)     intcor
     15.27     -17.83       2.73        0.00      64.82       1.70       0.16       2.40       ----

> <Gold.Chemscore.Fitness>
15.2707

> <Gold.Chemscore.DG>
-17.8276

> <Gold.Chemscore.ZeroCoef>
-5.4800

> <Gold.Chemscore.Hbond>
2.7260

> <Gold.Chemscore.Metal>
0.0000

> <Gold.Chemscore.Lipo>
64.8189

> <Gold.Chemscore.Internal_Hbond>
0.0000

> <Gold.Chemscore.DEClash>
0.1596

> <Gold.Chemscore.DEInternal>
2.3972

> <Gold.Chemscore.Rot>
1.6957

> <Gold.Chemscore.Internal.Correction>
   9.000000E+99

> <Gold.Chemscore.Hbonds>
donor molecule, donor type, donor heavy atom, donor atom, acceptor molecule, acceptor atom, score
      L1  H     4    26       P1  7921  0.34
      L1  H     7    31       P1  7948  0.02
      P1  H  7989  7998       L1    16  0.74

> <Gold.Chemscore.Hbond.Weighted>
-9.1048

> <Gold.Chemscore.Metal.Weighted>
-0.0000

> <Gold.Chemscore.Lipo.Weighted>
-7.5838

> <Gold.Chemscore.Internal_Hbond.Weighted>
0.0000

> <Gold.Chemscore.DEClash.Weighted>
0.1596

> <Gold.Chemscore.DEInternal.Weighted>
2.3972

> <Gold.Chemscore.Rot.Weighted>
4.3410

> <Gold.Chemscore.Internal.Correction.Weighted>
   9.000000E+99

> <Gold.Protein.RotatedTorsions>
[ 6907 6896 6895 6894 ] final  -67.33 input  -60.11 | X-H torsion
[ 7974 7965 7964 7962 ] final -116.14 input  175.53 | X-H torsion
[ 8008 7997 7996 7995 ] final -144.91 input   59.86 | X-H torsion
[ 10167 10162 10161 10158 ] final   91.07 input  -65.29 | X-H torsion
[ 10718 10713 10712 10709 ] final   58.39 input   66.30 | X-H torsion
[ 10763 10752 10751 10750 ] final -154.84 input  -60.55 | X-H torsion
[ 11005 11000 10999 10996 ] final   27.55 input  -57.11 | X-H torsion

> <Gold.Protein.ActiveResidues>
 VAL166  LYS551  ARG553  GLY616  TRP617  ASP618  TYR619  PRO620  LYS621  CYS622 
 ASP623  PHE694  ASN695  SER759  ASP760  ASP761  ALA762  ILE779  LEU786  VAL792 
 PHE793  MET794  SER795  GLU796  ALA797  LYS798  CYS799  TRP800  GLU811  SER814 

> <Gold.Protein.RotatedAtoms>
  150.7415  134.5895  159.5979 H   0  0  0  0  0  0  0  0  0  0  0  0  # atno 6907 bound_to 6896
  152.3287  134.7284  160.0304 H   0  0  0  0  0  0  0  0  0  0  0  0  # atno 6908 bound_to 6896
  151.7776  133.3311  159.3499 H   0  0  0  0  0  0  0  0  0  0  0  0  # atno 6909 bound_to 6896
  145.1002  140.8547  143.3930 H   0  0  0  0  0  0  0  0  0  0  0  0  # atno 7974 bound_to 7965
  155.5346  140.0602  157.2882 H   0  0  0  0  0  0  0  0  0  0  0  0  # atno 8008 bound_to 7997
  154.4472  140.1930  156.0573 H   0  0  0  0  0  0  0  0  0  0  0  0  # atno 8009 bound_to 7997
  156.0628  140.3270  155.7486 H   0  0  0  0  0  0  0  0  0  0  0  0  # atno 8010 bound_to 7997
  139.8411  144.6641  150.9282 H   0  0  0  0  0  0  0  0  0  0  0  0  # atno 10167 bound_to 10162
  157.5592  130.8823  149.9085 H   0  0  0  0  0  0  0  0  0  0  0  0  # atno 10718 bound_to 10713
  154.7830  135.3181  154.7948 H   0  0  0  0  0  0  0  0  0  0  0  0  # atno 10763 bound_to 10752
  153.8655  135.6849  153.4783 H   0  0  0  0  0  0  0  0  0  0  0  0  # atno 10764 bound_to 10752
  153.1472  135.4714  154.9522 H   0  0  0  0  0  0  0  0  0  0  0  0  # atno 10765 bound_to 10752
  140.3251  134.2500  155.7711 H   0  0  0  0  0  0  0  0  0  0  0  0  # atno 11005 bound_to 11000
  145.0964  139.2853  143.5708 LP  0  0  0  0  0  0  0  0  0  0  0  0  # atno 17320 bound_to 7965
  146.3530  140.0517  142.8635 LP  0  0  0  0  0  0  0  0  0  0  0  0  # atno 17321 bound_to 7965
  140.7798  143.3912  151.1307 LP  0  0  0  0  0  0  0  0  0  0  0  0  # atno 17342 bound_to 10162
  139.7558  143.8709  152.3088 LP  0  0  0  0  0  0  0  0  0  0  0  0  # atno 17343 bound_to 10162
  156.0647  130.3694  150.0904 LP  0  0  0  0  0  0  0  0  0  0  0  0  # atno 17370 bound_to 10713
  156.9070  130.9639  151.3568 LP  0  0  0  0  0  0  0  0  0  0  0  0  # atno 17371 bound_to 10713
  141.2077  133.7798  157.0102 LP  0  0  0  0  0  0  0  0  0  0  0  0  # atno 17394 bound_to 11000
  140.0909  134.9593  157.1774 LP  0  0  0  0  0  0  0  0  0  0  0  0  # atno 17395 bound_to 11000

$$$$
