AV-unprocessed.smi:215|AV-procd|sdf|1652|dock7
  -GOLD-   2262020 33D 1   1.00000     0.00000
 Structure written by MMmdl.
 59 62  0  0  0  0  0  0  0  0  2 V2000
  153.8595  136.9575  163.7797 C   0  0  0  0  0  0  0  0  0  0  0  0
  153.7345  135.9039  162.6569 C   0  0  2  0  0  0  0  0  0  0  0  0
  154.5884  134.6303  162.8851 C   0  0  1  0  0  0  0  0  0  0  0  0
  153.9180  133.5245  163.6369 N   0  3  2  0  0  0  0  0  0  0  0  0
  153.6815  133.7967  165.0754 C   0  0  0  0  0  0  0  0  0  0  0  0
  154.5801  132.2061  163.4377 C   0  0  0  0  0  0  0  0  0  0  0  0
  153.7338  131.0497  163.9949 C   0  0  0  0  0  0  0  0  0  0  0  0
  152.5604  130.8942  163.2248 O   0  0  0  0  0  0  0  0  0  0  0  0
  154.9164  134.2036  161.4457 C   0  0  0  0  0  0  0  0  0  0  0  0
  155.0396  135.5122  160.6748 C   0  0  0  0  0  0  0  0  0  0  0  0
  154.2131  136.4678  161.3935 N   0  0  0  0  0  0  0  0  0  0  0  0
  153.4789  137.3563  160.6717 C   0  0  0  0  0  0  0  0  0  0  0  0
  152.3942  136.9210  159.9774 N   0  0  0  0  0  0  0  0  0  0  0  0
  151.6593  137.7757  159.2607 C   0  0  0  0  0  0  0  0  0  0  0  0
  151.8272  139.0889  159.1020 N   0  0  0  0  0  0  0  0  0  0  0  0
  152.9105  139.5375  159.7983 C   0  0  0  0  0  0  0  0  0  0  0  0
  153.7811  138.7478  160.6026 C   0  0  0  0  0  0  0  0  0  0  0  0
  154.7573  139.5581  161.1708 N   0  0  0  0  0  0  0  0  0  0  0  0
  154.4806  140.7542  160.7278 C   0  0  0  0  0  0  0  0  0  0  0  0
  153.3953  140.8317  159.8835 N   0  0  0  0  0  0  0  0  0  0  0  0
  152.8494  142.0117  159.2738 C   0  0  0  0  0  0  0  0  0  0  0  0
  153.4192  143.4088  159.5377 C   0  0  0  0  0  0  0  0  0  0  0  0
  151.9994  144.0019  159.3783 C   0  0  0  0  0  0  0  0  0  0  0  0
  151.6551  145.1162  160.3824 C   0  0  0  0  0  0  0  0  0  0  0  0
  151.7530  144.6694  161.7191 O   0  0  0  0  0  0  0  0  0  0  0  0
  151.6842  144.4916  157.9486 C   0  0  0  0  0  0  0  0  0  0  0  0
  150.3530  144.9465  157.8192 O   0  0  0  0  0  0  0  0  0  0  0  0
  151.5112  142.5797  159.7423 C   0  0  0  0  0  0  0  0  0  0  0  0
  152.6912  135.6109  162.5305 H   0  0  0  0  0  0  0  0  0  0  0  0
  155.5130  134.9089  163.3947 H   0  0  0  0  0  0  0  0  0  0  0  0
  153.5084  136.5958  164.7431 H   0  0  0  0  0  0  0  0  0  0  0  0
  153.2775  137.8508  163.5537 H   0  0  0  0  0  0  0  0  0  0  0  0
  154.8960  137.2711  163.9078 H   0  0  0  0  0  0  0  0  0  0  0  0
  154.6182  134.0084  165.5923 H   0  0  0  0  0  0  0  0  0  0  0  0
  153.2181  132.9425  165.5680 H   0  0  0  0  0  0  0  0  0  0  0  0
  153.0006  134.6359  165.2141 H   0  0  0  0  0  0  0  0  0  0  0  0
  154.7763  132.0089  162.3844 H   0  0  0  0  0  0  0  0  0  0  0  0
  155.5608  132.2183  163.9157 H   0  0  0  0  0  0  0  0  0  0  0  0
  154.2984  130.1180  163.9486 H   0  0  0  0  0  0  0  0  0  0  0  0
  153.4666  131.2062  165.0397 H   0  0  0  0  0  0  0  0  0  0  0  0
  151.8608  130.6068  163.7919 H   0  0  0  0  0  0  0  0  0  0  0  0
  155.8205  133.6005  161.3619 H   0  0  0  0  0  0  0  0  0  0  0  0
  154.0902  133.6230  161.0324 H   0  0  0  0  0  0  0  0  0  0  0  0
  156.0703  135.8683  160.6818 H   0  0  0  0  0  0  0  0  0  0  0  0
  154.7304  135.3836  159.6366 H   0  0  0  0  0  0  0  0  0  0  0  0
  150.8172  137.3458  158.7385 H   0  0  0  0  0  0  0  0  0  0  0  0
  155.0648  141.6160  161.0144 H   0  0  0  0  0  0  0  0  0  0  0  0
  152.8246  141.8224  158.1992 H   0  0  0  0  0  0  0  0  0  0  0  0
  153.8193  143.5273  160.5457 H   0  0  0  0  0  0  0  0  0  0  0  0
  154.1424  143.7465  158.7946 H   0  0  0  0  0  0  0  0  0  0  0  0
  152.3356  145.9610  160.2733 H   0  0  0  0  0  0  0  0  0  0  0  0
  150.6517  145.5079  160.2132 H   0  0  0  0  0  0  0  0  0  0  0  0
  151.0375  144.0773  161.8923 H   0  0  0  0  0  0  0  0  0  0  0  0
  152.3581  145.2954  157.6509 H   0  0  0  0  0  0  0  0  0  0  0  0
  151.8276  143.6950  157.2184 H   0  0  0  0  0  0  0  0  0  0  0  0
  150.1007  144.8848  156.9108 H   0  0  0  0  0  0  0  0  0  0  0  0
  150.6491  142.2256  159.1764 H   0  0  0  0  0  0  0  0  0  0  0  0
  151.3538  142.4471  160.8144 H   0  0  0  0  0  0  0  0  0  0  0  0
  153.0025  133.4373  163.2178 H   0  0  0  0  0  0  0  0  0  0  0  0
  1  2  1  0  0  0  0
  1 31  1  0  0  0  0
  1 32  1  0  0  0  0
  1 33  1  0  0  0  0
  2 29  1  0  0  0  0
  2 11  1  0  0  0  0
  2  3  1  0  0  0  0
  3 30  1  0  0  0  0
  3  4  1  0  0  0  0
  3  9  1  0  0  0  0
  4  5  1  0  0  0  0
  4  6  1  0  0  0  0
  4 59  1  0  0  0  0
  5 34  1  0  0  0  0
  5 35  1  0  0  0  0
  5 36  1  0  0  0  0
  6  7  1  0  0  0  0
  6 37  1  0  0  0  0
  6 38  1  0  0  0  0
  7  8  1  0  0  0  0
  7 39  1  0  0  0  0
  7 40  1  0  0  0  0
  8 41  1  0  0  0  0
  9 10  1  0  0  0  0
  9 42  1  0  0  0  0
  9 43  1  0  0  0  0
 10 11  1  0  0  0  0
 10 44  1  0  0  0  0
 10 45  1  0  0  0  0
 11 12  1  0  0  0  0
 12 17  1  0  0  0  0
 12 13  2  0  0  0  0
 13 14  1  0  0  0  0
 14 15  2  0  0  0  0
 14 46  1  0  0  0  0
 15 16  1  0  0  0  0
 16 20  1  0  0  0  0
 16 17  2  0  0  0  0
 17 18  1  0  0  0  0
 18 19  2  0  0  0  0
 19 20  1  0  0  0  0
 19 47  1  0  0  0  0
 20 21  1  0  0  0  0
 21 28  1  0  0  0  0
 21 22  1  0  0  0  0
 21 48  1  0  0  0  0
 22 23  1  0  0  0  0
 22 49  1  0  0  0  0
 22 50  1  0  0  0  0
 23 24  1  0  0  0  0
 23 26  1  0  0  0  0
 23 28  1  0  0  0  0
 24 25  1  0  0  0  0
 24 51  1  0  0  0  0
 24 52  1  0  0  0  0
 25 53  1  0  0  0  0
 26 27  1  0  0  0  0
 26 54  1  0  0  0  0
 26 55  1  0  0  0  0
 27 56  1  0  0  0  0
 28 57  1  0  0  0  0
 28 58  1  0  0  0  0
M  CHG  1   4   1
M  END
> <s_m_source_file>
AV-unprocessed.smi

> <i_m_source_file_index>
215

> <i_lp_mmshare_version>
43012

> <i_f3d_flags>
0

> <s_epik_input>
W09IXVtDSDJdW0NIMl1OKFtDSDNdKVtDQEBIXShbQ0BIXTFbQ0gzXSlbQ0gyXVtDSDJdTjFjKG5bY0hdbjIpYyhjMjMpbltjSF1uM1tDSF0oW0NIMl00KVtDSDJdQzQoW0NIMl1bT0hdKVtDSDJdW09IXQ==

> <s_epik_cmdline>
J2VwaWtfcHl0aG9uJywgJy1waCcsICc3LjAnLCAnLXRuJywgJzgnLCAnLW1hJywgJzIwMCcsICctbWV0YWxfYmluZGluZycsICctaW1hZScsICc8aW5maWxlLm1hZT4nLCAnLW9tYWUnLCAnPG91dGZpbGUubWFlPic=

> <r_lp_tautomer_probability>
1

> <r_epik_Ionization_Penalty>
0.0036237

> <r_epik_Ionization_Penalty_Charging>
0.0032725

> <r_epik_Ionization_Penalty_Neutral>
0.000351196

> <r_epik_State_Penalty>
-0

> <r_epik_Charging_Adjusted_Penalty>
0.0032725

> <i_epik_Tot_Q>
1

> <i_epik_Tot_abs_Q>
1

> <r_epik_Metal_State_Penalty>
-0

> <b_epik_Metal_Only>
0

> <s_lp_Force_Field>
OPLS_2005

> <r_lp_Energy>
64.69

> <b_lp_Chiralities_Consistent>
1

> <s_lp_Variant>
AV-unprocessed.smi:215-3

> <Gold.Version>
5.8.1

> <Gold.Id.Protein>
6NUR|6NUR_protein|mol2

> <Gold.PLP.Fitness>
55.0815

> <Gold.PLP.PLP>
-52.0607

> <Gold.PLP.part.hbond>
-4.0691

> <Gold.PLP.part.metal>
0.0000

> <Gold.PLP.part.buried>
-4.7342

> <Gold.PLP.part.nonpolar>
-44.4878

> <Gold.PLP.part.repulsive>
0.0207

> <Gold.PLP.ligand.clash>
0.0000

> <Gold.PLP.ligand.torsion>
1.9251

> <Gold.PLP.Chemscore.Hbond>
1.9920

> <Gold.PLP.Chemscore.CHOScore>
0.0000

> <Gold.PLP.Chemscore.Metal>
0.0000

> <Gold.Chemscore.Hbonds>
donor molecule, donor type, donor heavy atom, donor atom, acceptor molecule, acceptor atom, score
      L1  H    27    56       P1  8028  1.00
      P1  H  6896  6908       L1    13  1.00

> <Gold.PLP.Chemscore.Internal.Correction>
0.8949

> <Gold.Rescore>
     Score         DG    S(hbond)    S(metal)    S(lipo)     H(rot)  DE(clash)    DE(int)     intcor
     11.29     -14.29       1.65        0.00     126.29       4.48       1.01       1.99       ----

> <Gold.Chemscore.Fitness>
11.2866

> <Gold.Chemscore.DG>
-14.2872

> <Gold.Chemscore.ZeroCoef>
-5.4800

> <Gold.Chemscore.Hbond>
1.6458

> <Gold.Chemscore.Metal>
0.0000

> <Gold.Chemscore.Lipo>
126.2886

> <Gold.Chemscore.Internal_Hbond>
0.0000

> <Gold.Chemscore.DEClash>
1.0085

> <Gold.Chemscore.DEInternal>
1.9922

> <Gold.Chemscore.Rot>
4.4787

> <Gold.Chemscore.Internal.Correction>
   9.000000E+99

> <Gold.Chemscore.Hbonds>
donor molecule, donor type, donor heavy atom, donor atom, acceptor molecule, acceptor atom, score
      L1  H    27    56       P1  8028  0.29
      P1  H  6896  6908       L1    13  0.94

> <Gold.Chemscore.Hbond.Weighted>
-5.4969

> <Gold.Chemscore.Metal.Weighted>
-0.0000

> <Gold.Chemscore.Lipo.Weighted>
-14.7758

> <Gold.Chemscore.Internal_Hbond.Weighted>
0.0000

> <Gold.Chemscore.DEClash.Weighted>
1.0085

> <Gold.Chemscore.DEInternal.Weighted>
1.9922

> <Gold.Chemscore.Rot.Weighted>
11.4655

> <Gold.Chemscore.Internal.Correction.Weighted>
   9.000000E+99

> <Gold.Protein.RotatedTorsions>
[ 6907 6896 6895 6894 ] final  -96.09 input  -60.11 | X-H torsion
[ 7974 7965 7964 7962 ] final -125.48 input  175.53 | X-H torsion
[ 8008 7997 7996 7995 ] final   78.51 input   59.86 | X-H torsion
[ 10167 10162 10161 10158 ] final -178.40 input  -65.29 | X-H torsion
[ 10718 10713 10712 10709 ] final   -0.97 input   66.30 | X-H torsion
[ 10763 10752 10751 10750 ] final   97.81 input  -60.55 | X-H torsion
[ 11005 11000 10999 10996 ] final   60.55 input  -57.11 | X-H torsion

> <Gold.Protein.ActiveResidues>
 VAL166  LYS551  ARG553  GLY616  TRP617  ASP618  TYR619  PRO620  LYS621  CYS622 
 ASP623  PHE694  ASN695  SER759  ASP760  ASP761  ALA762  ILE779  LEU786  VAL792 
 PHE793  MET794  SER795  GLU796  ALA797  LYS798  CYS799  TRP800  GLU811  SER814 

> <Gold.Protein.RotatedAtoms>
  150.6980  134.1557  159.4156 H   0  0  0  0  0  0  0  0  0  0  0  0  # atno 6907 bound_to 6896
  151.9539  135.0154  160.0553 H   0  0  0  0  0  0  0  0  0  0  0  0  # atno 6908 bound_to 6896
  152.1987  133.4790  159.5083 H   0  0  0  0  0  0  0  0  0  0  0  0  # atno 6909 bound_to 6896
  144.9971  140.7786  143.4519 H   0  0  0  0  0  0  0  0  0  0  0  0  # atno 7974 bound_to 7965
  155.8567  140.3455  155.5729 H   0  0  0  0  0  0  0  0  0  0  0  0  # atno 8008 bound_to 7997
  155.7978  140.0881  157.1993 H   0  0  0  0  0  0  0  0  0  0  0  0  # atno 8009 bound_to 7997
  154.4010  140.1471  156.3226 H   0  0  0  0  0  0  0  0  0  0  0  0  # atno 8010 bound_to 7997
  139.5434  144.2300  152.0941 H   0  0  0  0  0  0  0  0  0  0  0  0  # atno 10167 bound_to 10162
  156.8126  130.5429  149.5707 H   0  0  0  0  0  0  0  0  0  0  0  0  # atno 10718 bound_to 10713
  153.2814  135.4170  155.1082 H   0  0  0  0  0  0  0  0  0  0  0  0  # atno 10763 bound_to 10752
  154.8490  135.3496  154.6107 H   0  0  0  0  0  0  0  0  0  0  0  0  # atno 10764 bound_to 10752
  153.6528  135.7052  153.5261 H   0  0  0  0  0  0  0  0  0  0  0  0  # atno 10765 bound_to 10752
  140.0224  134.6133  155.9621 H   0  0  0  0  0  0  0  0  0  0  0  0  # atno 11005 bound_to 11000
  145.2204  139.2161  143.5096 LP  0  0  0  0  0  0  0  0  0  0  0  0  # atno 17320 bound_to 7965
  146.3444  140.2061  142.8589 LP  0  0  0  0  0  0  0  0  0  0  0  0  # atno 17321 bound_to 7965
  140.1783  144.4869  150.6542 LP  0  0  0  0  0  0  0  0  0  0  0  0  # atno 17342 bound_to 10162
  140.6673  143.2272  151.5711 LP  0  0  0  0  0  0  0  0  0  0  0  0  # atno 17343 bound_to 10162
  156.1035  130.5987  150.9933 LP  0  0  0  0  0  0  0  0  0  0  0  0  # atno 17370 bound_to 10713
  157.6498  131.0898  150.8075 LP  0  0  0  0  0  0  0  0  0  0  0  0  # atno 17371 bound_to 10713
  141.1782  133.6543  156.4912 LP  0  0  0  0  0  0  0  0  0  0  0  0  # atno 17394 bound_to 11000
  140.4365  134.7054  157.4969 LP  0  0  0  0  0  0  0  0  0  0  0  0  # atno 17395 bound_to 11000

$$$$
