AV-unprocessed.smi:278|AV-procd|sdf|2094|dock5
  -GOLD-   2262021373D 1   1.00000     0.00000
 Structure written by MMmdl.
 50 54  0  0  0  0  0  0  0  0  1 V2000
  144.7389  137.4621  162.1173 O   0  0  0  0  0  0  0  0  0  0  0  0
  145.9434  136.9256  161.4657 S   0  0  0  0  0  0  0  0  0  0  0  0
  146.4672  137.5373  160.2344 O   0  0  0  0  0  0  0  0  0  0  0  0
  147.2946  136.8219  162.7031 C   0  0  0  0  0  0  0  0  0  0  0  0
  147.3947  135.3457  163.1094 C   0  0  0  0  0  0  0  0  0  0  0  0
  146.9369  134.4653  161.9322 C   0  0  2  0  0  0  0  0  0  0  0  0
  147.9641  134.3549  160.8002 C   0  0  0  0  0  0  0  0  0  0  0  0
  147.1774  134.1530  159.5918 N   0  0  0  0  0  0  0  0  0  0  0  0
  147.7600  134.1389  158.3641 C   0  0  0  0  0  0  0  0  0  0  0  0
  149.0158  134.6435  158.2316 N   0  0  0  0  0  0  0  0  0  0  0  0
  149.6265  134.6462  157.0434 C   0  0  0  0  0  0  0  0  0  0  0  0
  149.1749  134.1940  155.8729 N   0  0  0  0  0  0  0  0  0  0  0  0
  147.9208  133.6742  155.9971 C   0  0  0  0  0  0  0  0  0  0  0  0
  147.1466  133.6054  157.1915 C   0  0  0  0  0  0  0  0  0  0  0  0
  145.9256  132.9962  156.9190 N   0  0  0  0  0  0  0  0  0  0  0  0
  145.9733  132.7290  155.6428 C   0  0  0  0  0  0  0  0  0  0  0  0
  147.1375  133.1006  155.0121 N   0  0  0  0  0  0  0  0  0  0  0  0
  147.4652  132.9198  153.6093 C   0  0  0  0  0  0  0  0  0  0  0  0
  146.4660  133.6343  152.6784 C   0  0  1  0  0  0  0  0  0  0  0  0
  146.8556  134.9777  152.4605 O   0  0  0  0  0  0  0  0  0  0  0  0
  146.2760  132.9102  151.3307 C   0  0  1  0  0  0  0  0  0  0  0  0
  145.6577  131.5034  151.4082 C   0  0  0  0  0  0  0  0  0  0  0  0
  144.4107  131.6100  150.5487 C   0  0  0  0  0  0  0  0  0  0  0  0
  144.7438  132.7681  149.6175 C   0  0  0  0  0  0  0  0  0  0  0  0
  145.4371  133.6696  150.4643 O   0  0  0  0  0  0  0  0  0  0  0  0
  145.8256  134.6649  159.7737 C   0  0  0  0  0  0  0  0  0  0  0  0
  145.7330  135.1080  161.2412 C   0  0  2  0  0  0  0  0  0  0  0  0
  146.6778  133.4622  162.2740 H   0  0  0  0  0  0  0  0  0  0  0  0
  144.7897  134.8178  161.7043 H   0  0  0  0  0  0  0  0  0  0  0  0
  148.2150  137.1551  162.2234 H   0  0  0  0  0  0  0  0  0  0  0  0
  147.0855  137.4815  163.5454 H   0  0  0  0  0  0  0  0  0  0  0  0
  148.3986  135.0866  163.4470 H   0  0  0  0  0  0  0  0  0  0  0  0
  146.7242  135.1713  163.9516 H   0  0  0  0  0  0  0  0  0  0  0  0
  148.5435  135.2738  160.7020 H   0  0  0  0  0  0  0  0  0  0  0  0
  148.6575  133.5305  160.9691 H   0  0  0  0  0  0  0  0  0  0  0  0
  150.6199  135.0697  157.0293 H   0  0  0  0  0  0  0  0  0  0  0  0
  145.1581  132.2452  155.1248 H   0  0  0  0  0  0  0  0  0  0  0  0
  148.4793  133.2842  153.4395 H   0  0  0  0  0  0  0  0  0  0  0  0
  147.4785  131.8499  153.3981 H   0  0  0  0  0  0  0  0  0  0  0  0
  145.4963  133.6704  153.1767 H   0  0  0  0  0  0  0  0  0  0  0  0
  147.7684  134.9859  152.2153 H   0  0  0  0  0  0  0  0  0  0  0  0
  147.2472  132.8286  150.8395 H   0  0  0  0  0  0  0  0  0  0  0  0
  146.3472  130.7720  150.9848 H   0  0  0  0  0  0  0  0  0  0  0  0
  145.4243  131.1821  152.4238 H   0  0  0  0  0  0  0  0  0  0  0  0
  144.1769  130.6875  150.0168 H   0  0  0  0  0  0  0  0  0  0  0  0
  143.5538  131.8720  151.1705 H   0  0  0  0  0  0  0  0  0  0  0  0
  145.4019  132.4436  148.8098 H   0  0  0  0  0  0  0  0  0  0  0  0
  143.8574  133.2272  149.1795 H   0  0  0  0  0  0  0  0  0  0  0  0
  145.5908  135.4769  159.0852 H   0  0  0  0  0  0  0  0  0  0  0  0
  145.1225  133.8537  159.5832 H   0  0  0  0  0  0  0  0  0  0  0  0
  1  2  2  0  0  0  0
  2 27  1  0  0  0  0
  2  3  2  0  0  0  0
  2  4  1  0  0  0  0
  4  5  1  0  0  0  0
  4 30  1  0  0  0  0
  4 31  1  0  0  0  0
  5  6  1  0  0  0  0
  5 32  1  0  0  0  0
  5 33  1  0  0  0  0
  6 28  1  0  0  0  0
  6 27  1  0  0  0  0
  6  7  1  0  0  0  0
  7  8  1  0  0  0  0
  7 34  1  0  0  0  0
  7 35  1  0  0  0  0
  8  9  1  0  0  0  0
  8 26  1  0  0  0  0
  9 14  1  0  0  0  0
  9 10  2  0  0  0  0
 10 11  1  0  0  0  0
 11 12  2  0  0  0  0
 11 36  1  0  0  0  0
 12 13  1  0  0  0  0
 13 17  1  0  0  0  0
 13 14  2  0  0  0  0
 14 15  1  0  0  0  0
 15 16  2  0  0  0  0
 16 17  1  0  0  0  0
 16 37  1  0  0  0  0
 17 18  1  0  0  0  0
 18 19  1  0  0  0  0
 18 38  1  0  0  0  0
 18 39  1  0  0  0  0
 19 20  1  0  0  0  0
 19 21  1  0  0  0  0
 19 40  1  0  0  0  0
 20 41  1  0  0  0  0
 21 25  1  0  0  0  0
 21 22  1  0  0  0  0
 21 42  1  0  0  0  0
 22 23  1  0  0  0  0
 22 43  1  0  0  0  0
 22 44  1  0  0  0  0
 23 24  1  0  0  0  0
 23 45  1  0  0  0  0
 23 46  1  0  0  0  0
 24 25  1  0  0  0  0
 24 47  1  0  0  0  0
 24 48  1  0  0  0  0
 26 27  1  0  0  0  0
 26 49  1  0  0  0  0
 26 50  1  0  0  0  0
 27 29  1  0  0  0  0
M  END
> <s_m_source_file>
AV-unprocessed.smi

> <i_m_source_file_index>
278

> <i_lp_mmshare_version>
43012

> <i_f3d_flags>
0

> <s_epik_input>
W0NIMl0xW0NIMl1TKD1PKSg9TylbQ0BASF0oW0NAQEhdMTIpW0NIMl1OKFtDSDJdMiljKG5bY0hdbjMpYyhjMzQpbltjSF1uNFtDSDJdW0NASF0oW09IXSlbQ0BASF01W0NIMl1bQ0gyXVtDSDJdTzU=

> <s_epik_cmdline>
J2VwaWtfcHl0aG9uJywgJy1waCcsICc3LjAnLCAnLXRuJywgJzgnLCAnLW1hJywgJzIwMCcsICctbWV0YWxfYmluZGluZycsICctaW1hZScsICc8aW5maWxlLm1hZT4nLCAnLW9tYWUnLCAnPG91dGZpbGUubWFlPic=

> <r_lp_tautomer_probability>
1

> <r_epik_Ionization_Penalty>
0.000636766

> <r_epik_Ionization_Penalty_Charging>
0

> <r_epik_Ionization_Penalty_Neutral>
0.000636766

> <r_epik_State_Penalty>
0.000329976

> <r_epik_Charging_Adjusted_Penalty>
0.000329976

> <i_epik_Tot_Q>
0

> <i_epik_Tot_abs_Q>
0

> <r_epik_Metal_State_Penalty>
-0

> <b_epik_Metal_Only>
0

> <s_lp_Force_Field>
OPLS_2005

> <r_lp_Energy>
51.0774

> <b_lp_Chiralities_Consistent>
1

> <s_lp_Variant>
AV-unprocessed.smi:278-8

> <Gold.Version>
5.8.1

> <Gold.Id.Protein>
6NUR|6NUR_protein|mol2

> <Gold.PLP.Fitness>
45.4731

> <Gold.PLP.PLP>
-35.7731

> <Gold.PLP.part.hbond>
-2.9677

> <Gold.PLP.part.metal>
0.0000

> <Gold.PLP.part.buried>
-5.6906

> <Gold.PLP.part.nonpolar>
-27.5439

> <Gold.PLP.part.repulsive>
0.2437

> <Gold.PLP.ligand.clash>
0.0000

> <Gold.PLP.ligand.torsion>
0.9105

> <Gold.PLP.Chemscore.Hbond>
2.7593

> <Gold.PLP.Chemscore.CHOScore>
0.9916

> <Gold.PLP.Chemscore.Metal>
0.0000

> <Gold.Chemscore.Hbonds>
donor molecule, donor type, donor heavy atom, donor atom, acceptor molecule, acceptor atom, score
      L1  H    20    41       P1  7948  0.74
      P1  H  6896  6907       L1    10  0.93
      P1  H  6934  6947       L1     3  1.00
      L1  C    16    37       P1 10957  1.00

> <Gold.PLP.Chemscore.Internal.Correction>
0.2684

> <Gold.Rescore>
     Score         DG    S(hbond)    S(metal)    S(lipo)     H(rot)  DE(clash)    DE(int)     intcor
     16.70     -18.10       2.27        0.00      89.86       2.13       0.38       1.01       ----

> <Gold.Chemscore.Fitness>
16.7039

> <Gold.Chemscore.DG>
-18.0967

> <Gold.Chemscore.ZeroCoef>
-5.4800

> <Gold.Chemscore.Hbond>
2.2658

> <Gold.Chemscore.Metal>
0.0000

> <Gold.Chemscore.Lipo>
89.8590

> <Gold.Chemscore.Internal_Hbond>
0.0000

> <Gold.Chemscore.DEClash>
0.3798

> <Gold.Chemscore.DEInternal>
1.0130

> <Gold.Chemscore.Rot>
2.1346

> <Gold.Chemscore.Internal.Correction>
   9.000000E+99

> <Gold.Chemscore.Hbonds>
donor molecule, donor type, donor heavy atom, donor atom, acceptor molecule, acceptor atom, score
      L1  H    20    41       P1  7948  0.65
      P1  H  6896  6907       L1    10  0.20
      P1  H  6934  6947       L1     3  0.26

> <Gold.Chemscore.Hbond.Weighted>
-7.5678

> <Gold.Chemscore.Metal.Weighted>
-0.0000

> <Gold.Chemscore.Lipo.Weighted>
-10.5135

> <Gold.Chemscore.Internal_Hbond.Weighted>
0.0000

> <Gold.Chemscore.DEClash.Weighted>
0.3798

> <Gold.Chemscore.DEInternal.Weighted>
1.0130

> <Gold.Chemscore.Rot.Weighted>
5.4646

> <Gold.Chemscore.Internal.Correction.Weighted>
   9.000000E+99

> <Gold.Protein.RotatedTorsions>
[ 6907 6896 6895 6894 ] final  -87.42 input  -60.11 | X-H torsion
[ 7974 7965 7964 7962 ] final   24.29 input  175.53 | X-H torsion
[ 8008 7997 7996 7995 ] final    3.04 input   59.86 | X-H torsion
[ 10167 10162 10161 10158 ] final  138.18 input  -65.29 | X-H torsion
[ 10718 10713 10712 10709 ] final  157.74 input   66.30 | X-H torsion
[ 10763 10752 10751 10750 ] final  -57.37 input  -60.55 | X-H torsion
[ 11005 11000 10999 10996 ] final  100.08 input  -57.11 | X-H torsion

> <Gold.Protein.ActiveResidues>
 VAL166  LYS551  ARG553  GLY616  TRP617  ASP618  TYR619  PRO620  LYS621  CYS622 
 ASP623  PHE694  ASN695  SER759  ASP760  ASP761  ALA762  ILE779  LEU786  VAL792 
 PHE793  MET794  SER795  GLU796  ALA797  LYS798  CYS799  TRP800  GLU811  SER814 

> <Gold.Protein.RotatedAtoms>
  150.6866  134.2899  159.4661 H   0  0  0  0  0  0  0  0  0  0  0  0  # atno 6907 bound_to 6896
  152.0805  134.9472  160.0583 H   0  0  0  0  0  0  0  0  0  0  0  0  # atno 6908 bound_to 6896
  152.0826  133.4126  159.4545 H   0  0  0  0  0  0  0  0  0  0  0  0  # atno 6909 bound_to 6896
  146.1944  139.7625  142.8808 H   0  0  0  0  0  0  0  0  0  0  0  0  # atno 7974 bound_to 7965
  154.6988  140.2668  155.6740 H   0  0  0  0  0  0  0  0  0  0  0  0  # atno 8008 bound_to 7997
  156.2758  140.2776  156.1515 H   0  0  0  0  0  0  0  0  0  0  0  0  # atno 8009 bound_to 7997
  155.0793  140.0372  157.2624 H   0  0  0  0  0  0  0  0  0  0  0  0  # atno 8010 bound_to 7997
  139.5119  144.6368  151.5676 H   0  0  0  0  0  0  0  0  0  0  0  0  # atno 10167 bound_to 10162
  157.1873  131.0646  151.2099 H   0  0  0  0  0  0  0  0  0  0  0  0  # atno 10718 bound_to 10713
  154.2214  135.6377  153.5146 H   0  0  0  0  0  0  0  0  0  0  0  0  # atno 10763 bound_to 10752
  152.9968  135.5497  154.6110 H   0  0  0  0  0  0  0  0  0  0  0  0  # atno 10764 bound_to 10752
  154.5571  135.2906  155.0928 H   0  0  0  0  0  0  0  0  0  0  0  0  # atno 10765 bound_to 10752
  139.8771  134.9124  156.4702 H   0  0  0  0  0  0  0  0  0  0  0  0  # atno 11005 bound_to 11000
  145.3690  141.0339  143.3242 LP  0  0  0  0  0  0  0  0  0  0  0  0  # atno 17320 bound_to 7965
  144.8551  139.5262  143.6838 LP  0  0  0  0  0  0  0  0  0  0  0  0  # atno 17321 bound_to 7965
  140.6120  143.9419  150.6460 LP  0  0  0  0  0  0  0  0  0  0  0  0  # atno 17342 bound_to 10162
  140.2665  143.3487  152.1277 LP  0  0  0  0  0  0  0  0  0  0  0  0  # atno 17343 bound_to 10162
  157.3894  130.7274  149.6687 LP  0  0  0  0  0  0  0  0  0  0  0  0  # atno 17370 bound_to 10713
  155.9716  130.4150  150.4162 LP  0  0  0  0  0  0  0  0  0  0  0  0  # atno 17371 bound_to 10713
  140.8801  133.7924  155.9457 LP  0  0  0  0  0  0  0  0  0  0  0  0  # atno 17394 bound_to 11000
  140.8863  134.2550  157.5118 LP  0  0  0  0  0  0  0  0  0  0  0  0  # atno 17395 bound_to 11000

$$$$
