AV-unprocessed.smi:466|AV-procd|sdf|2641|dock7
  -GOLD-   2262023 53D 1   1.00000     0.00000
 Structure written by MMmdl.
 43 45  0  0  0  0  0  0  0  0  1 V2000
  155.1138  133.3439  160.9672 C   0  0  0  0  0  0  0  0  0  0  0  0
  154.6209  134.6453  160.6846 O   0  0  0  0  0  0  0  0  0  0  0  0
  154.5238  135.5488  161.7232 C   0  0  0  0  0  0  0  0  0  0  0  0
  154.9096  135.2562  163.0562 C   0  0  0  0  0  0  0  0  0  0  0  0
  154.7799  136.2257  164.0668 C   0  0  0  0  0  0  0  0  0  0  0  0
  154.2652  137.4962  163.7590 C   0  0  0  0  0  0  0  0  0  0  0  0
  153.8802  137.7981  162.4403 C   0  0  0  0  0  0  0  0  0  0  0  0
  154.0055  136.8279  161.4133 C   0  0  0  0  0  0  0  0  0  0  0  0
  153.6466  137.0537  160.1002 O   0  0  0  0  0  0  0  0  0  0  0  0
  152.7021  138.0776  159.8228 C   0  0  0  0  0  0  0  0  0  0  0  0
  152.6468  138.2927  158.3060 C   0  0  0  0  0  0  0  0  0  0  0  0
  151.9697  139.5348  157.9682 N   0  0  0  0  0  0  0  0  0  0  0  0
  151.0608  139.7648  156.9859 C   0  0  0  0  0  0  0  0  0  0  0  0
  150.5850  138.6909  156.0508 C   0  0  0  0  0  0  0  0  0  0  0  0
  151.0371  138.9061  154.5977 C   0  0  0  0  0  0  0  0  0  0  0  0
  150.3488  139.9889  154.0082 O   0  0  0  0  0  0  0  0  0  0  0  0
  150.6037  141.0153  156.9024 N   0  0  0  0  0  0  0  0  0  0  0  0
  151.2812  141.6568  157.9206 C   0  0  0  0  0  0  0  0  0  0  0  0
  151.2362  143.0032  158.3482 C   0  0  0  0  0  0  0  0  0  0  0  0
  152.0356  143.4369  159.4262 C   0  0  0  0  0  0  0  0  0  0  0  0
  152.8901  142.5328  160.0900 C   0  0  0  0  0  0  0  0  0  0  0  0
  152.9489  141.1868  159.6808 C   0  0  0  0  0  0  0  0  0  0  0  0
  152.1473  140.7586  158.6056 C   0  0  0  0  0  0  0  0  0  0  0  0
  155.1175  132.7546  160.0504 H   0  0  0  0  0  0  0  0  0  0  0  0
  154.4810  132.8254  161.6888 H   0  0  0  0  0  0  0  0  0  0  0  0
  156.1378  133.3777  161.3412 H   0  0  0  0  0  0  0  0  0  0  0  0
  155.3087  134.2917  163.3306 H   0  0  0  0  0  0  0  0  0  0  0  0
  155.0756  135.9935  165.0793 H   0  0  0  0  0  0  0  0  0  0  0  0
  154.1651  138.2410  164.5347 H   0  0  0  0  0  0  0  0  0  0  0  0
  153.4908  138.7850  162.2424 H   0  0  0  0  0  0  0  0  0  0  0  0
  151.7155  137.7871  160.1879 H   0  0  0  0  0  0  0  0  0  0  0  0
  152.9919  139.0048  160.3193 H   0  0  0  0  0  0  0  0  0  0  0  0
  153.6488  138.2916  157.8782 H   0  0  0  0  0  0  0  0  0  0  0  0
  152.1144  137.4676  157.8319 H   0  0  0  0  0  0  0  0  0  0  0  0
  150.9940  137.7441  156.4053 H   0  0  0  0  0  0  0  0  0  0  0  0
  149.5031  138.5769  156.1075 H   0  0  0  0  0  0  0  0  0  0  0  0
  152.1133  139.0730  154.5418 H   0  0  0  0  0  0  0  0  0  0  0  0
  150.8196  138.0144  154.0096 H   0  0  0  0  0  0  0  0  0  0  0  0
  149.9907  139.7042  153.1813 H   0  0  0  0  0  0  0  0  0  0  0  0
  150.5860  143.7034  157.8449 H   0  0  0  0  0  0  0  0  0  0  0  0
  151.9938  144.4681  159.7449 H   0  0  0  0  0  0  0  0  0  0  0  0
  153.5005  142.8727  160.9140 H   0  0  0  0  0  0  0  0  0  0  0  0
  153.6026  140.4921  160.1869 H   0  0  0  0  0  0  0  0  0  0  0  0
  1  2  1  0  0  0  0
  1 24  1  0  0  0  0
  1 25  1  0  0  0  0
  1 26  1  0  0  0  0
  2  3  1  0  0  0  0
  3  8  1  0  0  0  0
  3  4  2  0  0  0  0
  4  5  1  0  0  0  0
  4 27  1  0  0  0  0
  5  6  2  0  0  0  0
  5 28  1  0  0  0  0
  6  7  1  0  0  0  0
  6 29  1  0  0  0  0
  7  8  2  0  0  0  0
  7 30  1  0  0  0  0
  8  9  1  0  0  0  0
  9 10  1  0  0  0  0
 10 11  1  0  0  0  0
 10 31  1  0  0  0  0
 10 32  1  0  0  0  0
 11 12  1  0  0  0  0
 11 33  1  0  0  0  0
 11 34  1  0  0  0  0
 12 23  1  0  0  0  0
 12 13  1  0  0  0  0
 13 14  1  0  0  0  0
 13 17  2  0  0  0  0
 14 15  1  0  0  0  0
 14 35  1  0  0  0  0
 14 36  1  0  0  0  0
 15 16  1  0  0  0  0
 15 37  1  0  0  0  0
 15 38  1  0  0  0  0
 16 39  1  0  0  0  0
 17 18  1  0  0  0  0
 18 23  2  0  0  0  0
 18 19  1  0  0  0  0
 19 20  2  0  0  0  0
 19 40  1  0  0  0  0
 20 21  1  0  0  0  0
 20 41  1  0  0  0  0
 21 22  2  0  0  0  0
 21 42  1  0  0  0  0
 22 23  1  0  0  0  0
 22 43  1  0  0  0  0
M  END
> <s_m_source_file>
AV-unprocessed.smi

> <i_m_source_file_index>
466

> <i_lp_mmshare_version>
43012

> <i_f3d_flags>
0

> <s_epik_input>
W0NIM11PYzFbY0hdW2NIXVtjSF1bY0hdYzFPW0NIMl1bQ0gyXW4oYyhuMilbQ0gyXVtDSDJdW09IXSljKGMyMylbY0hdW2NIXVtjSF1bY0hdMw==

> <s_epik_cmdline>
J2VwaWtfcHl0aG9uJywgJy1waCcsICc3LjAnLCAnLXRuJywgJzgnLCAnLW1hJywgJzIwMCcsICctbWV0YWxfYmluZGluZycsICctaW1hZScsICc8aW5maWxlLm1hZT4nLCAnLW9tYWUnLCAnPG91dGZpbGUubWFlPic=

> <r_lp_tautomer_probability>
1

> <r_epik_Ionization_Penalty>
0.20808

> <r_epik_Ionization_Penalty_Charging>
0

> <r_epik_Ionization_Penalty_Neutral>
0.20808

> <r_epik_State_Penalty>
0.198097

> <r_epik_Charging_Adjusted_Penalty>
0.198097

> <i_epik_Tot_Q>
0

> <i_epik_Tot_abs_Q>
0

> <r_epik_Metal_State_Penalty>
0.000235189

> <b_epik_Metal_Only>
0

> <s_lp_Force_Field>
OPLS_2005

> <r_lp_Energy>
20.5556

> <b_lp_Chiralities_Consistent>
1

> <s_lp_Variant>
AV-unprocessed.smi:466-1

> <Gold.Version>
5.8.1

> <Gold.Id.Protein>
6NUR|6NUR_protein|mol2

> <Gold.PLP.Fitness>
50.7849

> <Gold.PLP.PLP>
-43.3759

> <Gold.PLP.part.hbond>
-2.9813

> <Gold.PLP.part.metal>
0.0000

> <Gold.PLP.part.buried>
-5.5833

> <Gold.PLP.part.nonpolar>
-35.2797

> <Gold.PLP.part.repulsive>
0.0319

> <Gold.PLP.ligand.clash>
0.0000

> <Gold.PLP.ligand.torsion>
0.7153

> <Gold.PLP.Chemscore.Hbond>
2.9013

> <Gold.PLP.Chemscore.CHOScore>
0.0000

> <Gold.PLP.Chemscore.Metal>
0.0000

> <Gold.Chemscore.Hbonds>
donor molecule, donor type, donor heavy atom, donor atom, acceptor molecule, acceptor atom, score
      L1  H    16    39       P1  7957  0.88
      P1  H  6896  6908       L1     2  0.62
      P1  H  7989  7998       L1    16  1.00

> <Gold.PLP.Chemscore.Internal.Correction>
0.1358

> <Gold.Rescore>
     Score         DG    S(hbond)    S(metal)    S(lipo)     H(rot)  DE(clash)    DE(int)     intcor
     17.84     -19.29       1.80        0.00     123.36       2.59       0.03       1.42       ----

> <Gold.Chemscore.Fitness>
17.8386

> <Gold.Chemscore.DG>
-19.2868

> <Gold.Chemscore.ZeroCoef>
-5.4800

> <Gold.Chemscore.Hbond>
1.7990

> <Gold.Chemscore.Metal>
0.0000

> <Gold.Chemscore.Lipo>
123.3577

> <Gold.Chemscore.Internal_Hbond>
0.0000

> <Gold.Chemscore.DEClash>
0.0279

> <Gold.Chemscore.DEInternal>
1.4203

> <Gold.Chemscore.Rot>
2.5916

> <Gold.Chemscore.Internal.Correction>
   9.000000E+99

> <Gold.Chemscore.Hbonds>
donor molecule, donor type, donor heavy atom, donor atom, acceptor molecule, acceptor atom, score
      L1  H    16    39       P1  7957  0.81
      P1  H  6896  6908       L1     2  0.18
      P1  H  7989  7998       L1    16  0.06

> <Gold.Chemscore.Hbond.Weighted>
-6.0085

> <Gold.Chemscore.Metal.Weighted>
-0.0000

> <Gold.Chemscore.Lipo.Weighted>
-14.4329

> <Gold.Chemscore.Internal_Hbond.Weighted>
0.0000

> <Gold.Chemscore.DEClash.Weighted>
0.0279

> <Gold.Chemscore.DEInternal.Weighted>
1.4203

> <Gold.Chemscore.Rot.Weighted>
6.6346

> <Gold.Chemscore.Internal.Correction.Weighted>
   9.000000E+99

> <Gold.Protein.RotatedTorsions>
[ 6907 6896 6895 6894 ] final  -37.82 input  -60.11 | X-H torsion
[ 7974 7965 7964 7962 ] final  -20.01 input  175.53 | X-H torsion
[ 8008 7997 7996 7995 ] final   53.21 input   59.86 | X-H torsion
[ 10167 10162 10161 10158 ] final  -31.90 input  -65.29 | X-H torsion
[ 10718 10713 10712 10709 ] final -107.36 input   66.30 | X-H torsion
[ 10763 10752 10751 10750 ] final   -4.28 input  -60.55 | X-H torsion
[ 11005 11000 10999 10996 ] final   72.33 input  -57.11 | X-H torsion

> <Gold.Protein.ActiveResidues>
 VAL166  LYS551  ARG553  GLY616  TRP617  ASP618  TYR619  PRO620  LYS621  CYS622 
 ASP623  PHE694  ASN695  SER759  ASP760  ASP761  ALA762  ILE779  LEU786  VAL792 
 PHE793  MET794  SER795  GLU796  ALA797  LYS798  CYS799  TRP800  GLU811  SER814 

> <Gold.Protein.RotatedAtoms>
  151.0100  134.9389  159.8001 H   0  0  0  0  0  0  0  0  0  0  0  0  # atno 6907 bound_to 6896
  152.5300  134.3041  159.9099 H   0  0  0  0  0  0  0  0  0  0  0  0  # atno 6908 bound_to 6896
  151.3047  133.4065  159.2676 H   0  0  0  0  0  0  0  0  0  0  0  0  # atno 6909 bound_to 6896
  146.1811  140.4142  142.8494 H   0  0  0  0  0  0  0  0  0  0  0  0  # atno 7974 bound_to 7965
  155.4645  140.3463  155.4317 H   0  0  0  0  0  0  0  0  0  0  0  0  # atno 8008 bound_to 7997
  156.1139  140.1468  156.9329 H   0  0  0  0  0  0  0  0  0  0  0  0  # atno 8009 bound_to 7997
  154.4776  140.0880  156.7278 H   0  0  0  0  0  0  0  0  0  0  0  0  # atno 8010 bound_to 7997
  140.7229  143.3735  151.1733 H   0  0  0  0  0  0  0  0  0  0  0  0  # atno 10167 bound_to 10162
  156.0433  130.5659  150.7811 H   0  0  0  0  0  0  0  0  0  0  0  0  # atno 10718 bound_to 10713
  153.3827  135.6999  153.6553 H   0  0  0  0  0  0  0  0  0  0  0  0  # atno 10763 bound_to 10752
  153.5158  135.3622  155.2609 H   0  0  0  0  0  0  0  0  0  0  0  0  # atno 10764 bound_to 10752
  154.8694  135.4146  154.3128 H   0  0  0  0  0  0  0  0  0  0  0  0  # atno 10765 bound_to 10752
  139.9496  134.7250  156.0894 H   0  0  0  0  0  0  0  0  0  0  0  0  # atno 11005 bound_to 11000
  144.8317  140.6717  143.6287 LP  0  0  0  0  0  0  0  0  0  0  0  0  # atno 17320 bound_to 7965
  145.4073  139.1586  143.4145 LP  0  0  0  0  0  0  0  0  0  0  0  0  # atno 17321 bound_to 7965
  139.7311  143.9071  152.3019 LP  0  0  0  0  0  0  0  0  0  0  0  0  # atno 17342 bound_to 10162
  139.8861  144.6991  150.8823 LP  0  0  0  0  0  0  0  0  0  0  0  0  # atno 17343 bound_to 10162
  157.5278  131.0935  150.9995 LP  0  0  0  0  0  0  0  0  0  0  0  0  # atno 17370 bound_to 10713
  157.0309  130.5711  149.5343 LP  0  0  0  0  0  0  0  0  0  0  0  0  # atno 17371 bound_to 10713
  141.1156  133.6629  156.3085 LP  0  0  0  0  0  0  0  0  0  0  0  0  # atno 17394 bound_to 11000
  140.5750  134.5802  157.5466 LP  0  0  0  0  0  0  0  0  0  0  0  0  # atno 17395 bound_to 11000

$$$$
