AV-unprocessed.smi:2032|AV-procd|sdf|8241|dock5
  -GOLD-   2272010513D 1   1.00000     0.00000
 Structure written by MMmdl.
 43 44  0  0  0  0  0  0  0  0  2 V2000
  152.0368  139.0435  155.1642 C   0  0  0  0  0  0  0  0  0  0  0  0
  150.7630  138.2904  154.7643 C   0  0  2  0  0  0  0  0  0  0  0  0
  149.7635  139.1947  154.0206 C   0  0  0  0  0  0  0  0  0  0  0  0
  148.5114  138.4592  153.6925 N   0  3  2  0  0  0  0  0  0  0  0  0
  147.5506  139.2847  152.8888 C   0  0  2  0  0  0  0  0  0  0  0  0
  147.1771  140.6258  153.5669 C   0  0  0  0  0  0  0  0  0  0  0  0
  146.2652  138.4711  152.5715 C   0  0  0  0  0  0  0  0  0  0  0  0
  146.5382  137.1422  152.0309 N   0  0  0  0  0  0  0  0  0  0  0  0
  145.6062  136.2146  151.7684 C   0  0  0  0  0  0  0  0  0  0  0  0
  144.4025  136.3936  151.9574 O   0  0  0  0  0  0  0  0  0  0  0  0
  146.1589  135.0914  151.2787 N   0  0  0  0  0  0  0  0  0  0  0  0
  145.5153  133.8703  150.9475 C   0  0  0  0  0  0  0  0  0  0  0  0
  146.1333  132.8153  150.4036 N   0  0  0  0  0  0  0  0  0  0  0  0
  145.2533  131.7552  150.1711 C   0  0  0  0  0  0  0  0  0  0  0  0
  143.9600  132.0226  150.5463 C   0  0  0  0  0  0  0  0  0  0  0  0
  143.7943  133.6270  151.2081 S   0  0  0  0  0  0  0  0  0  0  0  0
  147.9520  137.8619  154.9366 C   0  0  0  0  0  0  0  0  0  0  0  0
  149.0037  137.0070  155.6696 C   0  0  2  0  0  0  0  0  0  0  0  0
  148.4725  136.4549  156.9971 C   0  0  0  0  0  0  0  0  0  0  0  0
  150.1477  137.8024  155.9485 O   0  0  0  0  0  0  0  0  0  0  0  0
  152.5550  139.4322  154.2870 H   0  0  0  0  0  0  0  0  0  0  0  0
  152.7277  138.3868  155.6937 H   0  0  0  0  0  0  0  0  0  0  0  0
  151.8099  139.8853  155.8193 H   0  0  0  0  0  0  0  0  0  0  0  0
  151.0441  137.4492  154.1279 H   0  0  0  0  0  0  0  0  0  0  0  0
  149.5217  140.0647  154.6333 H   0  0  0  0  0  0  0  0  0  0  0  0
  150.2471  139.5695  153.1209 H   0  0  0  0  0  0  0  0  0  0  0  0
  148.0499  139.5368  151.9522 H   0  0  0  0  0  0  0  0  0  0  0  0
  146.4515  141.1887  152.9805 H   0  0  0  0  0  0  0  0  0  0  0  0
  148.0385  141.2854  153.6720 H   0  0  0  0  0  0  0  0  0  0  0  0
  146.7444  140.4667  154.5553 H   0  0  0  0  0  0  0  0  0  0  0  0
  145.6322  138.3420  153.4480 H   0  0  0  0  0  0  0  0  0  0  0  0
  145.6612  139.0099  151.8408 H   0  0  0  0  0  0  0  0  0  0  0  0
  147.5038  136.9148  151.8426 H   0  0  0  0  0  0  0  0  0  0  0  0
  147.1587  135.1043  151.1406 H   0  0  0  0  0  0  0  0  0  0  0  0
  145.6331  130.8439  149.7331 H   0  0  0  0  0  0  0  0  0  0  0  0
  143.0984  131.3758  150.4724 H   0  0  0  0  0  0  0  0  0  0  0  0
  147.5862  138.6567  155.5893 H   0  0  0  0  0  0  0  0  0  0  0  0
  147.1088  137.2112  154.7074 H   0  0  0  0  0  0  0  0  0  0  0  0
  149.2963  136.1655  155.0389 H   0  0  0  0  0  0  0  0  0  0  0  0
  147.5951  135.8275  156.8387 H   0  0  0  0  0  0  0  0  0  0  0  0
  148.1900  137.2604  157.6755 H   0  0  0  0  0  0  0  0  0  0  0  0
  149.2277  135.8481  157.4970 H   0  0  0  0  0  0  0  0  0  0  0  0
  148.7729  137.6792  153.1067 H   0  0  0  0  0  0  0  0  0  0  0  0
  1  2  1  0  0  0  0
  1 21  1  0  0  0  0
  1 22  1  0  0  0  0
  1 23  1  0  0  0  0
  2 20  1  0  0  0  0
  2  3  1  0  0  0  0
  2 24  1  0  0  0  0
  3  4  1  0  0  0  0
  3 25  1  0  0  0  0
  3 26  1  0  0  0  0
  4  5  1  0  0  0  0
  4 17  1  0  0  0  0
  4 43  1  0  0  0  0
  5  6  1  0  0  0  0
  5  7  1  0  0  0  0
  5 27  1  0  0  0  0
  6 28  1  0  0  0  0
  6 29  1  0  0  0  0
  6 30  1  0  0  0  0
  7  8  1  0  0  0  0
  7 31  1  0  0  0  0
  7 32  1  0  0  0  0
  8  9  1  0  0  0  0
  8 33  1  0  0  0  0
  9 10  2  0  0  0  0
  9 11  1  0  0  0  0
 11 12  1  0  0  0  0
 11 34  1  0  0  0  0
 12 16  1  0  0  0  0
 12 13  2  0  0  0  0
 13 14  1  0  0  0  0
 14 15  2  0  0  0  0
 14 35  1  0  0  0  0
 15 16  1  0  0  0  0
 15 36  1  0  0  0  0
 17 18  1  0  0  0  0
 17 37  1  0  0  0  0
 17 38  1  0  0  0  0
 18 19  1  0  0  0  0
 18 20  1  0  0  0  0
 18 39  1  0  0  0  0
 19 40  1  0  0  0  0
 19 41  1  0  0  0  0
 19 42  1  0  0  0  0
M  CHG  1   4   1
M  END
> <s_m_source_file>
AV-unprocessed.smi

> <i_m_source_file_index>
2032

> <i_lp_mmshare_version>
43012

> <i_f3d_flags>
0

> <s_epik_input>
W0NIM11bQ0BASF0xW0NIMl1OKFtDSDJdW0NASF0oTzEpW0NIM10pW0NASF0oW0NIM10pW0NIMl1bTkhdQyg9TylbTkhdYzJuW2NIXVtjSF1zMg==

> <s_epik_cmdline>
J2VwaWtfcHl0aG9uJywgJy1waCcsICc3LjAnLCAnLXRuJywgJzgnLCAnLW1hJywgJzIwMCcsICctbWV0YWxfYmluZGluZycsICctaW1hZScsICc8aW5maWxlLm1hZT4nLCAnLW9tYWUnLCAnPG91dGZpbGUubWFlPic=

> <r_lp_tautomer_probability>
0.999

> <r_epik_Ionization_Penalty>
0.695838

> <r_epik_Ionization_Penalty_Charging>
0.695697

> <r_epik_Ionization_Penalty_Neutral>
0.000141198

> <r_epik_State_Penalty>
0.717972

> <r_epik_Charging_Adjusted_Penalty>
1.41367

> <i_epik_Tot_Q>
1

> <i_epik_Tot_abs_Q>
1

> <r_epik_Metal_State_Penalty>
0.756405

> <b_epik_Metal_Only>
0

> <s_lp_Force_Field>
OPLS_2005

> <r_lp_Energy>
16.7575

> <b_lp_Chiralities_Consistent>
1

> <s_lp_Variant>
AV-unprocessed.smi:2032-11

> <Gold.Version>
5.8.1

> <Gold.Id.Protein>
6NUR|6NUR_protein|mol2

> <Gold.PLP.Fitness>
44.6016

> <Gold.PLP.PLP>
-32.1167

> <Gold.PLP.part.hbond>
-3.6675

> <Gold.PLP.part.metal>
0.0000

> <Gold.PLP.part.buried>
-1.5675

> <Gold.PLP.part.nonpolar>
-28.9546

> <Gold.PLP.part.repulsive>
0.8622

> <Gold.PLP.ligand.clash>
0.0000

> <Gold.PLP.ligand.torsion>
0.0912

> <Gold.PLP.Chemscore.Hbond>
3.4586

> <Gold.PLP.Chemscore.CHOScore>
0.7451

> <Gold.PLP.Chemscore.Metal>
0.0000

> <Gold.Chemscore.Hbonds>
donor molecule, donor type, donor heavy atom, donor atom, acceptor molecule, acceptor atom, score
      L1  H     4    43       P1  7948  2.00
      L1  H     8    33       P1  7948  1.00
      L1  H    11    34       P1  7948  0.52
      L1  C    15    36       P1 10952  0.69

> <Gold.PLP.Chemscore.Internal.Correction>
0.0562

> <Gold.Rescore>
     Score         DG    S(hbond)    S(metal)    S(lipo)     H(rot)  DE(clash)    DE(int)     intcor
     17.56     -19.07       2.66        0.00      75.37       1.61       0.19       1.32       ----

> <Gold.Chemscore.Fitness>
17.5610

> <Gold.Chemscore.DG>
-19.0724

> <Gold.Chemscore.ZeroCoef>
-5.4800

> <Gold.Chemscore.Hbond>
2.6643

> <Gold.Chemscore.Metal>
0.0000

> <Gold.Chemscore.Lipo>
75.3658

> <Gold.Chemscore.Internal_Hbond>
0.0000

> <Gold.Chemscore.DEClash>
0.1910

> <Gold.Chemscore.DEInternal>
1.3205

> <Gold.Chemscore.Rot>
1.6110

> <Gold.Chemscore.Internal.Correction>
   9.000000E+99

> <Gold.Chemscore.Hbonds>
donor molecule, donor type, donor heavy atom, donor atom, acceptor molecule, acceptor atom, score
      L1  H     4    43       P1  7948  1.00
      L1  H     8    33       P1  7948  0.97
      L1  H    11    34       P1  7948  0.31

> <Gold.Chemscore.Hbond.Weighted>
-8.8988

> <Gold.Chemscore.Metal.Weighted>
-0.0000

> <Gold.Chemscore.Lipo.Weighted>
-8.8178

> <Gold.Chemscore.Internal_Hbond.Weighted>
0.0000

> <Gold.Chemscore.DEClash.Weighted>
0.1910

> <Gold.Chemscore.DEInternal.Weighted>
1.3205

> <Gold.Chemscore.Rot.Weighted>
4.1242

> <Gold.Chemscore.Internal.Correction.Weighted>
   9.000000E+99

> <Gold.Protein.RotatedTorsions>
[ 6907 6896 6895 6894 ] final   49.61 input  -60.11 | X-H torsion
[ 7974 7965 7964 7962 ] final  -55.80 input  175.53 | X-H torsion
[ 8008 7997 7996 7995 ] final -172.40 input   59.86 | X-H torsion
[ 10167 10162 10161 10158 ] final  120.74 input  -65.29 | X-H torsion
[ 10718 10713 10712 10709 ] final    5.15 input   66.30 | X-H torsion
[ 10763 10752 10751 10750 ] final   46.80 input  -60.55 | X-H torsion
[ 11005 11000 10999 10996 ] final  119.96 input  -57.11 | X-H torsion

> <Gold.Protein.ActiveResidues>
 VAL166  LYS551  ARG553  GLY616  TRP617  ASP618  TYR619  PRO620  LYS621  CYS622 
 ASP623  PHE694  ASN695  SER759  ASP760  ASP761  ALA762  ILE779  LEU786  VAL792 
 PHE793  MET794  SER795  GLU796  ALA797  LYS798  CYS799  TRP800  GLU811  SER814 

> <Gold.Protein.RotatedAtoms>
  152.2927  134.7703  160.0374 H   0  0  0  0  0  0  0  0  0  0  0  0  # atno 6907 bound_to 6896
  151.8243  133.3394  159.3602 H   0  0  0  0  0  0  0  0  0  0  0  0  # atno 6908 bound_to 6896
  150.7237  134.5473  159.5821 H   0  0  0  0  0  0  0  0  0  0  0  0  # atno 6909 bound_to 6896
  145.8700  140.8223  142.9893 H   0  0  0  0  0  0  0  0  0  0  0  0  # atno 7974 bound_to 7965
  155.9441  140.1114  157.1031 H   0  0  0  0  0  0  0  0  0  0  0  0  # atno 8008 bound_to 7997
  154.4095  140.1213  156.5032 H   0  0  0  0  0  0  0  0  0  0  0  0  # atno 8009 bound_to 7997
  155.6925  140.3472  155.4902 H   0  0  0  0  0  0  0  0  0  0  0  0  # atno 8010 bound_to 7997
  139.5963  144.7042  151.3169 H   0  0  0  0  0  0  0  0  0  0  0  0  # atno 10167 bound_to 10162
  156.9032  130.5729  149.5648 H   0  0  0  0  0  0  0  0  0  0  0  0  # atno 10718 bound_to 10713
  152.9806  135.5996  154.3659 H   0  0  0  0  0  0  0  0  0  0  0  0  # atno 10763 bound_to 10752
  154.3336  135.2768  155.2461 H   0  0  0  0  0  0  0  0  0  0  0  0  # atno 10764 bound_to 10752
  154.4573  135.5974  153.6287 H   0  0  0  0  0  0  0  0  0  0  0  0  # atno 10765 bound_to 10752
  139.9166  134.9632  156.7734 H   0  0  0  0  0  0  0  0  0  0  0  0  # atno 11005 bound_to 11000
  144.6726  140.1225  143.7449 LP  0  0  0  0  0  0  0  0  0  0  0  0  # atno 17320 bound_to 7965
  145.9147  139.2509  143.1416 LP  0  0  0  0  0  0  0  0  0  0  0  0  # atno 17321 bound_to 7965
  140.7214  143.7124  150.7759 LP  0  0  0  0  0  0  0  0  0  0  0  0  # atno 17342 bound_to 10162
  140.0691  143.5079  152.2589 LP  0  0  0  0  0  0  0  0  0  0  0  0  # atno 17343 bound_to 10162
  156.0572  130.5631  150.9116 LP  0  0  0  0  0  0  0  0  0  0  0  0  # atno 17370 bound_to 10713
  157.6013  131.0941  150.8954 LP  0  0  0  0  0  0  0  0  0  0  0  0  # atno 17371 bound_to 10713
  140.6602  133.9652  155.7801 LP  0  0  0  0  0  0  0  0  0  0  0  0  # atno 17394 bound_to 11000
  141.0648  134.0293  157.3609 LP  0  0  0  0  0  0  0  0  0  0  0  0  # atno 17395 bound_to 11000

$$$$
