AV-unprocessed.smi:691|AV-procd|sdf|3366|dock10
  -GOLD-   22720 0343D 1   1.00000     0.00000
 Structure written by MMmdl.
 37 38  0  0  0  0  0  0  0  0  1 V2000
  147.5270  139.3550  154.3521 C   0  0  0  0  0  0  0  0  0  0  0  0
  148.1428  140.7328  154.6927 C   0  0  1  0  0  0  0  0  0  0  0  0
  149.6814  140.5848  154.8234 C   0  0  0  0  0  0  0  0  0  0  0  0
  150.2384  139.9065  153.7152 O   0  0  0  0  0  0  0  0  0  0  0  0
  147.7802  141.7332  153.5807 C   0  0  0  0  0  0  0  0  0  0  0  0
  146.3611  142.2233  153.8906 C   0  0  0  0  0  0  0  0  0  0  0  0
  146.1392  141.9788  155.3895 C   0  0  0  0  0  0  0  0  0  0  0  0
  147.4343  141.3474  155.9298 C   0  0  2  0  0  0  0  0  0  0  0  0
  148.2379  142.3864  156.5796 N   0  0  0  0  0  0  0  0  0  0  0  0
  149.0785  142.2060  157.6086 C   0  0  0  0  0  0  0  0  0  0  0  0
  149.2718  141.1187  158.1512 O   0  0  0  0  0  0  0  0  0  0  0  0
  149.6840  143.3589  157.9412 N   0  0  0  0  0  0  0  0  0  0  0  0
  150.6547  143.5912  158.9530 C   0  0  0  0  0  0  0  0  0  0  0  0
  150.8610  144.8380  159.5917 C   0  0  0  0  0  0  0  0  0  0  0  0
  151.8678  144.9414  160.5710 C   0  0  0  0  0  0  0  0  0  0  0  0
  152.6353  143.7993  160.8706 C   0  0  0  0  0  0  0  0  0  0  0  0
  152.4597  142.6089  160.2594 N   0  0  0  0  0  0  0  0  0  0  0  0
  151.4930  142.5176  159.3215 C   0  0  0  0  0  0  0  0  0  0  0  0
  147.9727  138.9353  153.4499 H   0  0  0  0  0  0  0  0  0  0  0  0
  146.4516  139.4147  154.1842 H   0  0  0  0  0  0  0  0  0  0  0  0
  147.6847  138.6377  155.1578 H   0  0  0  0  0  0  0  0  0  0  0  0
  150.1497  141.5668  154.8969 H   0  0  0  0  0  0  0  0  0  0  0  0
  149.9571  140.0480  155.7315 H   0  0  0  0  0  0  0  0  0  0  0  0
  149.7115  140.0904  152.9526 H   0  0  0  0  0  0  0  0  0  0  0  0
  148.4589  142.5866  153.6149 H   0  0  0  0  0  0  0  0  0  0  0  0
  147.8606  141.3046  152.5810 H   0  0  0  0  0  0  0  0  0  0  0  0
  146.2402  143.2748  153.6282 H   0  0  0  0  0  0  0  0  0  0  0  0
  145.6299  141.6583  153.3111 H   0  0  0  0  0  0  0  0  0  0  0  0
  145.8689  142.8956  155.9158 H   0  0  0  0  0  0  0  0  0  0  0  0
  145.3074  141.2858  155.5225 H   0  0  0  0  0  0  0  0  0  0  0  0
  147.1898  140.5646  156.6497 H   0  0  0  0  0  0  0  0  0  0  0  0
  148.1520  143.3186  156.2024 H   0  0  0  0  0  0  0  0  0  0  0  0
  149.4736  144.1536  157.3552 H   0  0  0  0  0  0  0  0  0  0  0  0
  150.2828  145.7145  159.3442 H   0  0  0  0  0  0  0  0  0  0  0  0
  152.0506  145.8773  161.0782 H   0  0  0  0  0  0  0  0  0  0  0  0
  153.4150  143.8448  161.6163 H   0  0  0  0  0  0  0  0  0  0  0  0
  151.3824  141.5505  158.8528 H   0  0  0  0  0  0  0  0  0  0  0  0
  1  2  1  0  0  0  0
  1 19  1  0  0  0  0
  1 20  1  0  0  0  0
  1 21  1  0  0  0  0
  2  8  1  0  0  0  0
  2  3  1  0  0  0  0
  2  5  1  0  0  0  0
  3  4  1  0  0  0  0
  3 22  1  0  0  0  0
  3 23  1  0  0  0  0
  4 24  1  0  0  0  0
  5  6  1  0  0  0  0
  5 25  1  0  0  0  0
  5 26  1  0  0  0  0
  6  7  1  0  0  0  0
  6 27  1  0  0  0  0
  6 28  1  0  0  0  0
  7  8  1  0  0  0  0
  7 29  1  0  0  0  0
  7 30  1  0  0  0  0
  8  9  1  0  0  0  0
  8 31  1  0  0  0  0
  9 10  1  0  0  0  0
  9 32  1  0  0  0  0
 10 11  2  0  0  0  0
 10 12  1  0  0  0  0
 12 13  1  0  0  0  0
 12 33  1  0  0  0  0
 13 18  1  0  0  0  0
 13 14  2  0  0  0  0
 14 15  1  0  0  0  0
 14 34  1  0  0  0  0
 15 16  2  0  0  0  0
 15 35  1  0  0  0  0
 16 17  1  0  0  0  0
 16 36  1  0  0  0  0
 17 18  2  0  0  0  0
 18 37  1  0  0  0  0
M  END
> <s_m_source_file>
AV-unprocessed.smi

> <i_m_source_file_index>
691

> <i_lp_mmshare_version>
43012

> <i_f3d_flags>
0

> <s_epik_input>
W09IXVtDSDJdW0NAXTEoW0NIM10pW0NIMl1bQ0gyXVtDSDJdW0NASF0xW05IXUMoPU8pW05IXWMyW2NIXVtjSF1bY0hdbltjSF0y

> <s_epik_cmdline>
J2VwaWtfcHl0aG9uJywgJy1waCcsICc3LjAnLCAnLXRuJywgJzgnLCAnLW1hJywgJzIwMCcsICctbWV0YWxfYmluZGluZycsICctaW1hZScsICc8aW5maWxlLm1hZT4nLCAnLW9tYWUnLCAnPG91dGZpbGUubWFlPic=

> <r_epik_Ionization_Penalty>
0.00496828

> <r_epik_Ionization_Penalty_Charging>
0

> <r_epik_Ionization_Penalty_Neutral>
0.00496828

> <r_epik_State_Penalty>
0.00358054

> <r_epik_Charging_Adjusted_Penalty>
0.00358054

> <i_epik_Tot_Q>
0

> <i_epik_Tot_abs_Q>
0

> <r_epik_Metal_State_Penalty>
-0

> <b_epik_Metal_Only>
0

> <s_lp_Force_Field>
OPLS_2005

> <r_lp_Energy>
29.635

> <b_lp_Chiralities_Consistent>
1

> <s_lp_Variant>
AV-unprocessed.smi:691-3

> <Gold.Version>
5.8.1

> <Gold.Id.Protein>
6NUR|6NUR_protein|mol2

> <Gold.PLP.Fitness>
42.5103

> <Gold.PLP.PLP>
-32.8642

> <Gold.PLP.part.hbond>
-4.5798

> <Gold.PLP.part.metal>
0.0000

> <Gold.PLP.part.buried>
-4.7698

> <Gold.PLP.part.nonpolar>
-22.8874

> <Gold.PLP.part.repulsive>
0.0895

> <Gold.PLP.ligand.clash>
0.0000

> <Gold.PLP.ligand.torsion>
0.5799

> <Gold.PLP.Chemscore.Hbond>
3.5968

> <Gold.PLP.Chemscore.CHOScore>
0.0000

> <Gold.PLP.Chemscore.Metal>
0.0000

> <Gold.Chemscore.Hbonds>
donor molecule, donor type, donor heavy atom, donor atom, acceptor molecule, acceptor atom, score
      L1  H     4    24       P1  7957  0.91
      L1  H     9    32       P1  8028  1.00
      L1  H    12    33       P1  8028  0.90
      P1  H  7989  7998       L1     4  0.86

> <Gold.PLP.Chemscore.Internal.Correction>
0.0156

> <Gold.Rescore>
     Score         DG    S(hbond)    S(metal)    S(lipo)     H(rot)  DE(clash)    DE(int)     intcor
     19.01     -21.34       2.85        0.00      93.15       1.78       0.44       1.89       ----

> <Gold.Chemscore.Fitness>
19.0129

> <Gold.Chemscore.DG>
-21.3362

> <Gold.Chemscore.ZeroCoef>
-5.4800

> <Gold.Chemscore.Hbond>
2.8517

> <Gold.Chemscore.Metal>
0.0000

> <Gold.Chemscore.Lipo>
93.1466

> <Gold.Chemscore.Internal_Hbond>
0.0000

> <Gold.Chemscore.DEClash>
0.4358

> <Gold.Chemscore.DEInternal>
1.8875

> <Gold.Chemscore.Rot>
1.7838

> <Gold.Chemscore.Internal.Correction>
   9.000000E+99

> <Gold.Chemscore.Hbonds>
donor molecule, donor type, donor heavy atom, donor atom, acceptor molecule, acceptor atom, score
      L1  H     4    24       P1  7957  0.90
      L1  H     9    32       P1  8028  0.38
      L1  H    12    33       P1  8028  0.20
      P1  H  7989  7998       L1     4  0.09

> <Gold.Chemscore.Hbond.Weighted>
-9.5247

> <Gold.Chemscore.Metal.Weighted>
-0.0000

> <Gold.Chemscore.Lipo.Weighted>
-10.8982

> <Gold.Chemscore.Internal_Hbond.Weighted>
0.0000

> <Gold.Chemscore.DEClash.Weighted>
0.4358

> <Gold.Chemscore.DEInternal.Weighted>
1.8875

> <Gold.Chemscore.Rot.Weighted>
4.5666

> <Gold.Chemscore.Internal.Correction.Weighted>
   9.000000E+99

> <Gold.Protein.RotatedTorsions>
[ 6907 6896 6895 6894 ] final  112.36 input  -60.11 | X-H torsion
[ 7974 7965 7964 7962 ] final   97.32 input  175.53 | X-H torsion
[ 8008 7997 7996 7995 ] final   69.98 input   59.86 | X-H torsion
[ 10167 10162 10161 10158 ] final  123.60 input  -65.29 | X-H torsion
[ 10718 10713 10712 10709 ] final  -75.00 input   66.30 | X-H torsion
[ 10763 10752 10751 10750 ] final  -12.32 input  -60.55 | X-H torsion
[ 11005 11000 10999 10996 ] final   23.21 input  -57.11 | X-H torsion

> <Gold.Protein.ActiveResidues>
 VAL166  LYS551  ARG553  GLY616  TRP617  ASP618  TYR619  PRO620  LYS621  CYS622 
 ASP623  PHE694  ASN695  SER759  ASP760  ASP761  ALA762  ILE779  LEU786  VAL792 
 PHE793  MET794  SER795  GLU796  ALA797  LYS798  CYS799  TRP800  GLU811  SER814 

> <Gold.Protein.RotatedAtoms>
  152.4920  133.8527  159.7209 H   0  0  0  0  0  0  0  0  0  0  0  0  # atno 6907 bound_to 6896
  150.9060  133.7049  159.2873 H   0  0  0  0  0  0  0  0  0  0  0  0  # atno 6908 bound_to 6896
  151.4474  135.1030  159.9740 H   0  0  0  0  0  0  0  0  0  0  0  0  # atno 6909 bound_to 6896
  145.4271  139.2314  143.3164 H   0  0  0  0  0  0  0  0  0  0  0  0  # atno 7974 bound_to 7965
  155.7319  140.3492  155.5063 H   0  0  0  0  0  0  0  0  0  0  0  0  # atno 8008 bound_to 7997
  155.9174  140.1061  157.1254 H   0  0  0  0  0  0  0  0  0  0  0  0  # atno 8009 bound_to 7997
  154.4064  140.1256  156.4622 H   0  0  0  0  0  0  0  0  0  0  0  0  # atno 8010 bound_to 7997
  139.5790  144.6977  151.3578 H   0  0  0  0  0  0  0  0  0  0  0  0  # atno 10167 bound_to 10162
  156.0222  130.4430  150.2977 H   0  0  0  0  0  0  0  0  0  0  0  0  # atno 10718 bound_to 10713
  153.4967  135.7017  153.5854 H   0  0  0  0  0  0  0  0  0  0  0  0  # atno 10763 bound_to 10752
  153.4004  135.3873  155.1983 H   0  0  0  0  0  0  0  0  0  0  0  0  # atno 10764 bound_to 10752
  154.8713  135.3880  154.4433 H   0  0  0  0  0  0  0  0  0  0  0  0  # atno 10765 bound_to 10752
  140.3721  134.2012  155.7666 H   0  0  0  0  0  0  0  0  0  0  0  0  # atno 11005 bound_to 11000
  146.2626  140.5003  142.8847 LP  0  0  0  0  0  0  0  0  0  0  0  0  # atno 17320 bound_to 7965
  144.8207  140.6544  143.6355 LP  0  0  0  0  0  0  0  0  0  0  0  0  # atno 17321 bound_to 7965
  140.7070  143.7488  150.7500 LP  0  0  0  0  0  0  0  0  0  0  0  0  # atno 17342 bound_to 10162
  140.1015  143.4783  152.2422 LP  0  0  0  0  0  0  0  0  0  0  0  0  # atno 17343 bound_to 10162
  157.1081  131.0214  151.3059 LP  0  0  0  0  0  0  0  0  0  0  0  0  # atno 17370 bound_to 10713
  157.4727  130.7718  149.7338 LP  0  0  0  0  0  0  0  0  0  0  0  0  # atno 17371 bound_to 10713
  141.1951  133.8113  157.0728 LP  0  0  0  0  0  0  0  0  0  0  0  0  # atno 17394 bound_to 11000
  140.0544  134.9788  157.1194 LP  0  0  0  0  0  0  0  0  0  0  0  0  # atno 17395 bound_to 11000

$$$$
