AV-unprocessed.smi:2445|AV-procd|sdf|9635|dock7
  -GOLD-   2272013273D 1   1.00000     0.00000
 Structure written by MMmdl.
 40 41  0  0  0  0  0  0  0  0  1 V2000
  145.0458  135.4854  150.9094 C   0  0  0  0  0  0  0  0  0  0  0  0
  145.0699  134.0068  151.0986 C   0  0  0  0  0  0  0  0  0  0  0  0
  144.0517  133.1137  150.8739 C   0  0  0  0  0  0  0  0  0  0  0  0
  144.3936  131.7875  151.1471 N   0  0  0  0  0  0  0  0  0  0  0  0
  145.6540  131.6621  151.5722 C   0  0  0  0  0  0  0  0  0  0  0  0
  146.2797  130.3544  151.9529 C   0  0  2  0  0  0  0  0  0  0  0  0
  145.3339  129.1689  151.7142 C   0  0  0  0  0  0  0  0  0  0  0  0
  146.8898  130.3607  153.3726 C   0  0  0  0  0  0  0  0  0  0  0  0
  145.9382  130.7711  154.4014 N   0  0  0  0  0  0  0  0  0  0  0  0
  146.2608  131.3717  155.5545 C   0  0  0  0  0  0  0  0  0  0  0  0
  147.4149  131.6225  155.9011 O   0  0  0  0  0  0  0  0  0  0  0  0
  145.1715  131.6745  156.2731 N   0  0  0  0  0  0  0  0  0  0  0  0
  145.1635  132.3540  157.5690 C   0  0  1  0  0  0  0  0  0  0  0  0
  145.1989  133.8704  157.3790 C   0  0  0  0  0  0  0  0  0  0  0  0
  143.9935  134.3779  158.1665 C   0  0  0  0  0  0  0  0  0  0  0  0
  143.0934  133.2838  158.1407 O   0  0  0  0  0  0  0  0  0  0  0  0
  143.8627  132.1121  158.3639 C   0  0  1  0  0  0  0  0  0  0  0  0
  143.0472  130.8567  158.0139 C   0  0  0  0  0  0  0  0  0  0  0  0
  146.5066  133.1991  151.6681 S   0  0  0  0  0  0  0  0  0  0  0  0
  144.0610  135.8244  150.5870 H   0  0  0  0  0  0  0  0  0  0  0  0
  145.7705  135.7894  150.1541 H   0  0  0  0  0  0  0  0  0  0  0  0
  145.2908  135.9984  151.8394 H   0  0  0  0  0  0  0  0  0  0  0  0
  143.0549  133.3338  150.5215 H   0  0  0  0  0  0  0  0  0  0  0  0
  147.1111  130.2111  151.2614 H   0  0  0  0  0  0  0  0  0  0  0  0
  145.0025  129.1343  150.6758 H   0  0  0  0  0  0  0  0  0  0  0  0
  144.4473  129.2362  152.3456 H   0  0  0  0  0  0  0  0  0  0  0  0
  145.8277  128.2223  151.9348 H   0  0  0  0  0  0  0  0  0  0  0  0
  147.2227  129.3543  153.6289 H   0  0  0  0  0  0  0  0  0  0  0  0
  147.7765  130.9957  153.4071 H   0  0  0  0  0  0  0  0  0  0  0  0
  144.9610  130.6082  154.2065 H   0  0  0  0  0  0  0  0  0  0  0  0
  144.2705  131.4217  155.8942 H   0  0  0  0  0  0  0  0  0  0  0  0
  146.0115  132.0365  158.1783 H   0  0  0  0  0  0  0  0  0  0  0  0
  146.1309  134.3138  157.7307 H   0  0  0  0  0  0  0  0  0  0  0  0
  145.0853  134.1385  156.3273 H   0  0  0  0  0  0  0  0  0  0  0  0
  144.2687  134.5980  159.1992 H   0  0  0  0  0  0  0  0  0  0  0  0
  143.5517  135.2741  157.7307 H   0  0  0  0  0  0  0  0  0  0  0  0
  144.1082  132.0811  159.4272 H   0  0  0  0  0  0  0  0  0  0  0  0
  143.6435  129.9536  158.1458 H   0  0  0  0  0  0  0  0  0  0  0  0
  142.6901  130.8808  156.9840 H   0  0  0  0  0  0  0  0  0  0  0  0
  142.1733  130.7737  158.6600 H   0  0  0  0  0  0  0  0  0  0  0  0
  1  2  1  0  0  0  0
  1 20  1  0  0  0  0
  1 21  1  0  0  0  0
  1 22  1  0  0  0  0
  2 19  1  0  0  0  0
  2  3  2  0  0  0  0
  3  4  1  0  0  0  0
  3 23  1  0  0  0  0
  4  5  2  0  0  0  0
  5  6  1  0  0  0  0
  5 19  1  0  0  0  0
  6  7  1  0  0  0  0
  6  8  1  0  0  0  0
  6 24  1  0  0  0  0
  7 25  1  0  0  0  0
  7 26  1  0  0  0  0
  7 27  1  0  0  0  0
  8  9  1  0  0  0  0
  8 28  1  0  0  0  0
  8 29  1  0  0  0  0
  9 10  1  0  0  0  0
  9 30  1  0  0  0  0
 10 11  2  0  0  0  0
 10 12  1  0  0  0  0
 12 13  1  0  0  0  0
 12 31  1  0  0  0  0
 13 17  1  0  0  0  0
 13 14  1  0  0  0  0
 13 32  1  0  0  0  0
 14 15  1  0  0  0  0
 14 33  1  0  0  0  0
 14 34  1  0  0  0  0
 15 16  1  0  0  0  0
 15 35  1  0  0  0  0
 15 36  1  0  0  0  0
 16 17  1  0  0  0  0
 17 18  1  0  0  0  0
 17 37  1  0  0  0  0
 18 38  1  0  0  0  0
 18 39  1  0  0  0  0
 18 40  1  0  0  0  0
M  END
> <s_m_source_file>
AV-unprocessed.smi

> <i_m_source_file_index>
2445

> <i_lp_mmshare_version>
43012

> <i_f3d_flags>
0

> <s_epik_input>
W0NIM11jMVtjSF1uYyhzMSlbQ0BIXShbQ0gzXSlbQ0gyXVtOSF1DKD1PKVtOSF1bQ0BASF0yW0NIMl1bQ0gyXU9bQ0BIXTJbQ0gzXQ==

> <s_epik_cmdline>
J2VwaWtfcHl0aG9uJywgJy1waCcsICc3LjAnLCAnLXRuJywgJzgnLCAnLW1hJywgJzIwMCcsICctbWV0YWxfYmluZGluZycsICctaW1hZScsICc8aW5maWxlLm1hZT4nLCAnLW9tYWUnLCAnPG91dGZpbGUubWFlPic=

> <r_epik_Ionization_Penalty>
0.000649483

> <r_epik_Ionization_Penalty_Charging>
0

> <r_epik_Ionization_Penalty_Neutral>
0.000649483

> <r_epik_State_Penalty>
0.000379895

> <r_epik_Charging_Adjusted_Penalty>
0.000379895

> <i_epik_Tot_Q>
0

> <i_epik_Tot_abs_Q>
0

> <r_epik_Metal_State_Penalty>
-0

> <b_epik_Metal_Only>
0

> <s_lp_Force_Field>
OPLS_2005

> <r_lp_Energy>
6.16207

> <b_lp_Chiralities_Consistent>
1

> <s_lp_Variant>
AV-unprocessed.smi:2445-3

> <Gold.Version>
5.8.1

> <Gold.Id.Protein>
6NUR|6NUR_protein|mol2

> <Gold.PLP.Fitness>
37.4403

> <Gold.PLP.PLP>
-28.3482

> <Gold.PLP.part.hbond>
-3.2734

> <Gold.PLP.part.metal>
0.0000

> <Gold.PLP.part.buried>
-4.7069

> <Gold.PLP.part.nonpolar>
-21.0158

> <Gold.PLP.part.repulsive>
0.2600

> <Gold.PLP.ligand.clash>
0.0000

> <Gold.PLP.ligand.torsion>
0.6135

> <Gold.PLP.Chemscore.Hbond>
2.3965

> <Gold.PLP.Chemscore.CHOScore>
1.0000

> <Gold.PLP.Chemscore.Metal>
0.0000

> <Gold.Chemscore.Hbonds>
donor molecule, donor type, donor heavy atom, donor atom, acceptor molecule, acceptor atom, score
      L1  H     9    30       P1 10956  0.34
      L1  H    12    31       P1 10957  0.85
      P1  H 11000 11005       L1    16  0.52
      L1  C     3    23       P1 10186  1.00

> <Gold.PLP.Chemscore.Internal.Correction>
0.1296

> <Gold.Rescore>
     Score         DG    S(hbond)    S(metal)    S(lipo)     H(rot)  DE(clash)    DE(int)     intcor
     15.10     -15.88       1.91        0.00      68.05       1.53       0.11       0.68       ----

> <Gold.Chemscore.Fitness>
15.0988

> <Gold.Chemscore.DG>
-15.8823

> <Gold.Chemscore.ZeroCoef>
-5.4800

> <Gold.Chemscore.Hbond>
1.9053

> <Gold.Chemscore.Metal>
0.0000

> <Gold.Chemscore.Lipo>
68.0505

> <Gold.Chemscore.Internal_Hbond>
0.0000

> <Gold.Chemscore.DEClash>
0.1062

> <Gold.Chemscore.DEInternal>
0.6773

> <Gold.Chemscore.Rot>
1.5325

> <Gold.Chemscore.Internal.Correction>
   9.000000E+99

> <Gold.Chemscore.Hbonds>
donor molecule, donor type, donor heavy atom, donor atom, acceptor molecule, acceptor atom, score
      L1  H     9    30       P1 10956  0.01
      L1  H    12    31       P1 10957  0.14
      P1  H 11000 11005       L1    16  0.43

> <Gold.Chemscore.Hbond.Weighted>
-6.3637

> <Gold.Chemscore.Metal.Weighted>
-0.0000

> <Gold.Chemscore.Lipo.Weighted>
-7.9619

> <Gold.Chemscore.Internal_Hbond.Weighted>
0.0000

> <Gold.Chemscore.DEClash.Weighted>
0.1062

> <Gold.Chemscore.DEInternal.Weighted>
0.6773

> <Gold.Chemscore.Rot.Weighted>
3.9233

> <Gold.Chemscore.Internal.Correction.Weighted>
   9.000000E+99

> <Gold.Protein.RotatedTorsions>
[ 6907 6896 6895 6894 ] final   28.27 input  -60.11 | X-H torsion
[ 7974 7965 7964 7962 ] final  -36.46 input  175.53 | X-H torsion
[ 8008 7997 7996 7995 ] final  -20.11 input   59.86 | X-H torsion
[ 10167 10162 10161 10158 ] final -115.42 input  -65.29 | X-H torsion
[ 10718 10713 10712 10709 ] final -142.42 input   66.30 | X-H torsion
[ 10763 10752 10751 10750 ] final -138.09 input  -60.55 | X-H torsion
[ 11005 11000 10999 10996 ] final  -96.73 input  -57.11 | X-H torsion

> <Gold.Protein.ActiveResidues>
 VAL166  LYS551  ARG553  GLY616  TRP617  ASP618  TYR619  PRO620  LYS621  CYS622 
 ASP623  PHE694  ASN695  SER759  ASP760  ASP761  ALA762  ILE779  LEU786  VAL792 
 PHE793  MET794  SER795  GLU796  ALA797  LYS798  CYS799  TRP800  GLU811  SER814 

> <Gold.Protein.RotatedAtoms>
  152.0144  134.9858  160.0568 H   0  0  0  0  0  0  0  0  0  0  0  0  # atno 6907 bound_to 6896
  152.1397  133.4452  159.4769 H   0  0  0  0  0  0  0  0  0  0  0  0  # atno 6908 bound_to 6896
  150.6864  134.2238  159.4450 H   0  0  0  0  0  0  0  0  0  0  0  0  # atno 6909 bound_to 6896
  146.0659  140.6281  142.8975 H   0  0  0  0  0  0  0  0  0  0  0  0  # atno 7974 bound_to 7965
  154.4792  140.2071  155.9805 H   0  0  0  0  0  0  0  0  0  0  0  0  # atno 8008 bound_to 7997
  156.1137  140.3225  155.8079 H   0  0  0  0  0  0  0  0  0  0  0  0  # atno 8009 bound_to 7997
  155.4589  140.0522  157.2984 H   0  0  0  0  0  0  0  0  0  0  0  0  # atno 8010 bound_to 7997
  140.0903  143.4706  152.1874 H   0  0  0  0  0  0  0  0  0  0  0  0  # atno 10167 bound_to 10162
  156.3458  130.7661  151.1806 H   0  0  0  0  0  0  0  0  0  0  0  0  # atno 10718 bound_to 10713
  154.8646  135.3622  154.5329 H   0  0  0  0  0  0  0  0  0  0  0  0  # atno 10763 bound_to 10752
  153.5954  135.7014  153.5411 H   0  0  0  0  0  0  0  0  0  0  0  0  # atno 10764 bound_to 10752
  153.3337  135.4117  155.1478 H   0  0  0  0  0  0  0  0  0  0  0  0  # atno 10765 bound_to 10752
  141.1402  133.8119  157.0611 H   0  0  0  0  0  0  0  0  0  0  0  0  # atno 11005 bound_to 11000
  144.7202  140.4348  143.7014 LP  0  0  0  0  0  0  0  0  0  0  0  0  # atno 17320 bound_to 7965
  145.6478  139.1560  143.2879 LP  0  0  0  0  0  0  0  0  0  0  0  0  # atno 17321 bound_to 7965
  139.5729  144.7472  151.3843 LP  0  0  0  0  0  0  0  0  0  0  0  0  # atno 17342 bound_to 10162
  140.7032  143.7580  150.7438 LP  0  0  0  0  0  0  0  0  0  0  0  0  # atno 17343 bound_to 10162
  157.7454  131.0442  150.4780 LP  0  0  0  0  0  0  0  0  0  0  0  0  # atno 17370 bound_to 10713
  156.4967  130.4107  149.6376 LP  0  0  0  0  0  0  0  0  0  0  0  0  # atno 17371 bound_to 10713
  140.0571  134.9775  157.1239 LP  0  0  0  0  0  0  0  0  0  0  0  0  # atno 17394 bound_to 11000
  140.3904  134.2191  155.7166 LP  0  0  0  0  0  0  0  0  0  0  0  0  # atno 17395 bound_to 11000

$$$$
