AV-unprocessed.smi:1333|AV-procd|sdf|5490|dock5
  -GOLD-   22720 5 63D 1   1.00000     0.00000
 Structure written by MMmdl.
 33 34  0  0  0  0  0  0  0  0  1 V2000
  150.5381  140.1025  155.8107 O   0  0  0  0  0  0  0  0  0  0  0  0
  150.0600  141.1776  155.4382 C   0  0  0  0  0  0  0  0  0  0  0  0
  149.2002  141.2422  154.1685 C   0  0  0  0  0  0  0  0  0  0  0  0
  147.9650  140.4842  154.2766 N   0  0  0  0  0  0  0  0  0  0  0  0
  146.9673  140.6372  155.2313 C   0  0  0  0  0  0  0  0  0  0  0  0
  145.9989  139.7029  154.9411 C   0  0  0  0  0  0  0  0  0  0  0  0
  146.3764  138.9692  153.8188 N   0  0  0  0  0  0  0  0  0  0  0  0
  147.5506  139.4870  153.4820 C   0  0  0  0  0  0  0  0  0  0  0  0
  150.2221  142.3671  156.0625 N   0  0  0  0  0  0  0  0  0  0  0  0
  150.9017  142.6986  157.1863 C   0  0  0  0  0  0  0  0  0  0  0  0
  151.5088  141.8409  157.8255 O   0  0  0  0  0  0  0  0  0  0  0  0
  150.8756  143.9913  157.5619 N   0  0  0  0  0  0  0  0  0  0  0  0
  151.6687  144.5788  158.6380 C   0  0  0  0  0  0  0  0  0  0  0  0
  153.1300  144.0880  158.5968 C   0  0  0  0  0  0  0  0  0  0  0  0
  153.2848  143.1290  159.7772 C   0  0  0  0  0  0  0  0  0  0  0  0
  152.3167  143.6692  160.8245 C   0  0  0  0  0  0  0  0  0  0  0  0
  151.1153  144.1590  160.0136 C   0  0  0  0  0  0  0  0  0  0  0  0
  148.9529  142.2817  153.9482 H   0  0  0  0  0  0  0  0  0  0  0  0
  149.7727  140.8597  153.3224 H   0  0  0  0  0  0  0  0  0  0  0  0
  147.0290  141.3748  156.0179 H   0  0  0  0  0  0  0  0  0  0  0  0
  145.0678  139.5032  155.4504 H   0  0  0  0  0  0  0  0  0  0  0  0
  148.1239  139.1313  152.6384 H   0  0  0  0  0  0  0  0  0  0  0  0
  149.7578  143.1439  155.6150 H   0  0  0  0  0  0  0  0  0  0  0  0
  150.2572  144.6140  157.0614 H   0  0  0  0  0  0  0  0  0  0  0  0
  151.6463  145.6669  158.5534 H   0  0  0  0  0  0  0  0  0  0  0  0
  153.4081  143.6192  157.6518 H   0  0  0  0  0  0  0  0  0  0  0  0
  153.7964  144.9400  158.7371 H   0  0  0  0  0  0  0  0  0  0  0  0
  152.9806  142.1250  159.4781 H   0  0  0  0  0  0  0  0  0  0  0  0
  154.3112  143.0732  160.1412 H   0  0  0  0  0  0  0  0  0  0  0  0
  152.0440  142.9221  161.5704 H   0  0  0  0  0  0  0  0  0  0  0  0
  152.7753  144.5098  161.3472 H   0  0  0  0  0  0  0  0  0  0  0  0
  150.5934  144.9756  160.5140 H   0  0  0  0  0  0  0  0  0  0  0  0
  150.4020  143.3396  159.9081 H   0  0  0  0  0  0  0  0  0  0  0  0
  1  2  2  0  0  0  0
  2  3  1  0  0  0  0
  2  9  1  0  0  0  0
  3  4  1  0  0  0  0
  3 18  1  0  0  0  0
  3 19  1  0  0  0  0
  4  8  1  0  0  0  0
  4  5  1  0  0  0  0
  5  6  2  0  0  0  0
  5 20  1  0  0  0  0
  6  7  1  0  0  0  0
  6 21  1  0  0  0  0
  7  8  2  0  0  0  0
  8 22  1  0  0  0  0
  9 10  1  0  0  0  0
  9 23  1  0  0  0  0
 10 11  2  0  0  0  0
 10 12  1  0  0  0  0
 12 13  1  0  0  0  0
 12 24  1  0  0  0  0
 13 17  1  0  0  0  0
 13 14  1  0  0  0  0
 13 25  1  0  0  0  0
 14 15  1  0  0  0  0
 14 26  1  0  0  0  0
 14 27  1  0  0  0  0
 15 16  1  0  0  0  0
 15 28  1  0  0  0  0
 15 29  1  0  0  0  0
 16 17  1  0  0  0  0
 16 30  1  0  0  0  0
 16 31  1  0  0  0  0
 17 32  1  0  0  0  0
 17 33  1  0  0  0  0
M  END
> <s_m_source_file>
AV-unprocessed.smi

> <i_m_source_file_index>
1333

> <i_lp_mmshare_version>
43012

> <i_f3d_flags>
0

> <s_epik_input>
W2NIXTFuW2NIXVtjSF1uMVtDSDJdQyg9TylbTkhdQyg9TylbTkhdW0NIXTJbQ0gyXVtDSDJdW0NIMl1bQ0gyXTI=

> <s_epik_cmdline>
J2VwaWtfcHl0aG9uJywgJy1waCcsICc3LjAnLCAnLXRuJywgJzgnLCAnLW1hJywgJzIwMCcsICctbWV0YWxfYmluZGluZycsICctaW1hZScsICc8aW5maWxlLm1hZT4nLCAnLW9tYWUnLCAnPG91dGZpbGUubWFlPic=

> <r_lp_tautomer_probability>
1

> <r_epik_Ionization_Penalty>
0.171964

> <r_epik_Ionization_Penalty_Charging>
0.171937

> <r_epik_Ionization_Penalty_Neutral>
2.73302e-05

> <r_epik_State_Penalty>
0.161333

> <r_epik_Charging_Adjusted_Penalty>
0.33327

> <i_epik_Tot_Q>
0

> <i_epik_Tot_abs_Q>
0

> <r_epik_Metal_State_Penalty>
0.124658

> <b_epik_Metal_Only>
0

> <s_lp_Force_Field>
OPLS_2005

> <r_lp_Energy>
24.334

> <b_lp_Chiralities_Consistent>
1

> <s_lp_Variant>
AV-unprocessed.smi:1333-1

> <Gold.Version>
5.8.1

> <Gold.Id.Protein>
6NUR|6NUR_protein|mol2

> <Gold.PLP.Fitness>
42.1935

> <Gold.PLP.PLP>
-33.9046

> <Gold.PLP.part.hbond>
-2.0000

> <Gold.PLP.part.metal>
0.0000

> <Gold.PLP.part.buried>
-4.2978

> <Gold.PLP.part.nonpolar>
-28.7641

> <Gold.PLP.part.repulsive>
0.3298

> <Gold.PLP.ligand.clash>
0.0000

> <Gold.PLP.ligand.torsion>
0.2281

> <Gold.PLP.Chemscore.Hbond>
1.9120

> <Gold.PLP.Chemscore.CHOScore>
1.0000

> <Gold.PLP.Chemscore.Metal>
0.0000

> <Gold.Chemscore.Hbonds>
donor molecule, donor type, donor heavy atom, donor atom, acceptor molecule, acceptor atom, score
      L1  H     9    23       P1  8028  1.00
      L1  H    12    24       P1  8028  0.93
      L1  C     8    22       P1  7957  1.00

> <Gold.PLP.Chemscore.Internal.Correction>
0.0091

> <Gold.Rescore>
     Score         DG    S(hbond)    S(metal)    S(lipo)     H(rot)  DE(clash)    DE(int)     intcor
     12.04     -15.77       1.69        0.00      77.61       1.73       0.06       3.67       ----

> <Gold.Chemscore.Fitness>
12.0373

> <Gold.Chemscore.DG>
-15.7700

> <Gold.Chemscore.ZeroCoef>
-5.4800

> <Gold.Chemscore.Hbond>
1.6854

> <Gold.Chemscore.Metal>
0.0000

> <Gold.Chemscore.Lipo>
77.6077

> <Gold.Chemscore.Internal_Hbond>
0.0000

> <Gold.Chemscore.DEClash>
0.0599

> <Gold.Chemscore.DEInternal>
3.6728

> <Gold.Chemscore.Rot>
1.7263

> <Gold.Chemscore.Internal.Correction>
   9.000000E+99

> <Gold.Chemscore.Hbonds>
donor molecule, donor type, donor heavy atom, donor atom, acceptor molecule, acceptor atom, score
      L1  H     9    23       P1  8028  0.97
      L1  H    12    24       P1  8028  0.54

> <Gold.Chemscore.Hbond.Weighted>
-5.6292

> <Gold.Chemscore.Metal.Weighted>
-0.0000

> <Gold.Chemscore.Lipo.Weighted>
-9.0801

> <Gold.Chemscore.Internal_Hbond.Weighted>
0.0000

> <Gold.Chemscore.DEClash.Weighted>
0.0599

> <Gold.Chemscore.DEInternal.Weighted>
3.6728

> <Gold.Chemscore.Rot.Weighted>
4.4193

> <Gold.Chemscore.Internal.Correction.Weighted>
   9.000000E+99

> <Gold.Protein.RotatedTorsions>
[ 6907 6896 6895 6894 ] final  135.99 input  -60.11 | X-H torsion
[ 7974 7965 7964 7962 ] final  118.51 input  175.53 | X-H torsion
[ 8008 7997 7996 7995 ] final  -98.67 input   59.86 | X-H torsion
[ 10167 10162 10161 10158 ] final  110.63 input  -65.29 | X-H torsion
[ 10718 10713 10712 10709 ] final   22.63 input   66.30 | X-H torsion
[ 10763 10752 10751 10750 ] final  144.49 input  -60.55 | X-H torsion
[ 11005 11000 10999 10996 ] final   40.61 input  -57.11 | X-H torsion

> <Gold.Protein.ActiveResidues>
 VAL166  LYS551  ARG553  GLY616  TRP617  ASP618  TYR619  PRO620  LYS621  CYS622 
 ASP623  PHE694  ASN695  SER759  ASP760  ASP761  ALA762  ILE779  LEU786  VAL792 
 PHE793  MET794  SER795  GLU796  ALA797  LYS798  CYS799  TRP800  GLU811  SER814 

> <Gold.Protein.RotatedAtoms>
  152.2943  133.5592  159.5577 H   0  0  0  0  0  0  0  0  0  0  0  0  # atno 6907 bound_to 6896
  150.7249  134.0383  159.3766 H   0  0  0  0  0  0  0  0  0  0  0  0  # atno 6908 bound_to 6896
  151.8287  135.0629  160.0485 H   0  0  0  0  0  0  0  0  0  0  0  0  # atno 6909 bound_to 6896
  145.1543  139.3192  143.4550 H   0  0  0  0  0  0  0  0  0  0  0  0  # atno 7974 bound_to 7965
  154.8043  140.0453  157.1296 H   0  0  0  0  0  0  0  0  0  0  0  0  # atno 8008 bound_to 7997
  154.9442  140.3056  155.5086 H   0  0  0  0  0  0  0  0  0  0  0  0  # atno 8009 bound_to 7997
  156.2965  140.2300  156.4514 H   0  0  0  0  0  0  0  0  0  0  0  0  # atno 8010 bound_to 7997
  139.6673  144.7127  151.1753 H   0  0  0  0  0  0  0  0  0  0  0  0  # atno 10167 bound_to 10162
  157.1549  130.6691  149.6024 H   0  0  0  0  0  0  0  0  0  0  0  0  # atno 10718 bound_to 10713
  153.9897  135.2933  155.3413 H   0  0  0  0  0  0  0  0  0  0  0  0  # atno 10763 bound_to 10752
  154.7222  135.5104  153.8832 H   0  0  0  0  0  0  0  0  0  0  0  0  # atno 10764 bound_to 10752
  153.0815  135.6680  154.0151 H   0  0  0  0  0  0  0  0  0  0  0  0  # atno 10765 bound_to 10752
  140.1914  134.3981  155.8144 H   0  0  0  0  0  0  0  0  0  0  0  0  # atno 11005 bound_to 11000
  146.3491  140.1629  142.8590 LP  0  0  0  0  0  0  0  0  0  0  0  0  # atno 17320 bound_to 7965
  145.0398  140.8936  143.5059 LP  0  0  0  0  0  0  0  0  0  0  0  0  # atno 17321 bound_to 7965
  140.7604  143.5899  150.8807 LP  0  0  0  0  0  0  0  0  0  0  0  0  # atno 17342 bound_to 10162
  139.9561  143.6216  152.3015 LP  0  0  0  0  0  0  0  0  0  0  0  0  # atno 17343 bound_to 10162
  155.9764  130.4731  150.6524 LP  0  0  0  0  0  0  0  0  0  0  0  0  # atno 17370 bound_to 10713
  157.4186  131.0833  151.1153 LP  0  0  0  0  0  0  0  0  0  0  0  0  # atno 17371 bound_to 10713
  141.2226  133.7048  156.8102 LP  0  0  0  0  0  0  0  0  0  0  0  0  # atno 17394 bound_to 11000
  140.2155  134.8796  157.3321 LP  0  0  0  0  0  0  0  0  0  0  0  0  # atno 17395 bound_to 11000

$$$$
