AV-unprocessed.smi:229|AV-procd|sdf|1752|dock3
  -GOLD-   2262020273D 1   1.00000     0.00000
 Structure written by MMmdl.
 58 62  0  0  0  0  0  0  0  0  1 V2000
  152.0383  145.6354  158.8345 C   0  0  0  0  0  0  0  0  0  0  0  0
  151.2526  144.6383  157.9698 C   0  0  0  0  0  0  0  0  0  0  0  0
  151.7209  143.1776  158.0943 C   0  0  1  0  0  0  0  0  0  0  0  0
  152.3006  142.8332  159.4790 C   0  0  0  0  0  0  0  0  0  0  0  0
  152.6305  141.4145  159.5315 N   0  0  0  0  0  0  0  0  0  0  0  0
  153.4315  140.9710  160.5311 C   0  0  0  0  0  0  0  0  0  0  0  0
  154.0603  139.7702  160.4216 N   0  0  0  0  0  0  0  0  0  0  0  0
  154.8616  139.3377  161.3999 C   0  0  0  0  0  0  0  0  0  0  0  0
  155.1670  139.9343  162.5542 N   0  0  0  0  0  0  0  0  0  0  0  0
  154.5298  141.1337  162.6745 C   0  0  0  0  0  0  0  0  0  0  0  0
  153.6530  141.7212  161.7196 C   0  0  0  0  0  0  0  0  0  0  0  0
  153.1858  142.9421  162.1930 N   0  0  0  0  0  0  0  0  0  0  0  0
  153.7604  143.0729  163.3572 C   0  0  0  0  0  0  0  0  0  0  0  0
  154.5869  142.0352  163.7229 N   0  0  0  0  0  0  0  0  0  0  0  0
  155.3443  141.9293  164.9575 C   0  0  0  0  0  0  0  0  0  0  0  0
  155.2584  143.2111  165.8083 C   0  0  2  0  0  0  0  0  0  0  0  0
  156.0400  144.2231  165.2024 O   0  0  0  0  0  0  0  0  0  0  0  0
  155.7550  142.9882  167.2482 C   0  0  1  0  0  0  0  0  0  0  0  0
  155.6137  144.2041  168.1649 C   0  0  0  0  0  0  0  0  0  0  0  0
  155.5516  143.5955  169.5567 C   0  0  0  0  0  0  0  0  0  0  0  0
  155.2201  142.1222  169.3044 C   0  0  0  0  0  0  0  0  0  0  0  0
  154.9426  142.0331  167.9137 O   0  0  0  0  0  0  0  0  0  0  0  0
  151.4884  140.5598  159.2324 C   0  0  0  0  0  0  0  0  0  0  0  0
  150.8961  140.9099  157.8522 C   0  0  1  0  0  0  0  0  0  0  0  0
  151.7355  140.4233  156.6746 C   0  0  0  0  0  0  0  0  0  0  0  0
  150.7007  140.3268  155.5644 C   0  0  0  0  0  0  0  0  0  0  0  0
  149.5525  139.8052  156.2155 O   0  0  0  0  0  0  0  0  0  0  0  0
  149.5627  140.1914  157.5883 C   0  0  0  0  0  0  0  0  0  0  0  0
  150.6230  142.3157  157.7863 O   0  0  0  0  0  0  0  0  0  0  0  0
  151.6134  146.6355  158.7482 H   0  0  0  0  0  0  0  0  0  0  0  0
  153.0826  145.6987  158.5299 H   0  0  0  0  0  0  0  0  0  0  0  0
  152.0105  145.3559  159.8880 H   0  0  0  0  0  0  0  0  0  0  0  0
  150.1988  144.6927  158.2449 H   0  0  0  0  0  0  0  0  0  0  0  0
  151.3066  144.9484  156.9259 H   0  0  0  0  0  0  0  0  0  0  0  0
  152.5041  143.0329  157.3509 H   0  0  0  0  0  0  0  0  0  0  0  0
  153.1901  143.4364  159.6665 H   0  0  0  0  0  0  0  0  0  0  0  0
  151.5813  143.0558  160.2677 H   0  0  0  0  0  0  0  0  0  0  0  0
  155.3254  138.3766  161.2334 H   0  0  0  0  0  0  0  0  0  0  0  0
  153.5979  143.9368  163.9851 H   0  0  0  0  0  0  0  0  0  0  0  0
  154.9559  141.0775  165.5167 H   0  0  0  0  0  0  0  0  0  0  0  0
  156.3827  141.6961  164.7182 H   0  0  0  0  0  0  0  0  0  0  0  0
  154.2243  143.5572  165.8353 H   0  0  0  0  0  0  0  0  0  0  0  0
  155.5231  144.6376  164.5285 H   0  0  0  0  0  0  0  0  0  0  0  0
  156.7890  142.6369  167.2494 H   0  0  0  0  0  0  0  0  0  0  0  0
  156.4314  144.9160  168.0498 H   0  0  0  0  0  0  0  0  0  0  0  0
  154.6802  144.7280  167.9546 H   0  0  0  0  0  0  0  0  0  0  0  0
  156.5082  143.6873  170.0720 H   0  0  0  0  0  0  0  0  0  0  0  0
  154.7924  144.0861  170.1663 H   0  0  0  0  0  0  0  0  0  0  0  0
  156.0775  141.4909  169.5416 H   0  0  0  0  0  0  0  0  0  0  0  0
  154.3706  141.7776  169.8942 H   0  0  0  0  0  0  0  0  0  0  0  0
  151.7515  139.5030  159.2686 H   0  0  0  0  0  0  0  0  0  0  0  0
  150.7349  140.7165  160.0056 H   0  0  0  0  0  0  0  0  0  0  0  0
  152.5794  141.0603  156.4158 H   0  0  0  0  0  0  0  0  0  0  0  0
  152.1323  139.4286  156.8830 H   0  0  0  0  0  0  0  0  0  0  0  0
  150.4725  141.3153  155.1638 H   0  0  0  0  0  0  0  0  0  0  0  0
  151.0206  139.6872  154.7418 H   0  0  0  0  0  0  0  0  0  0  0  0
  149.4770  139.2836  158.1868 H   0  0  0  0  0  0  0  0  0  0  0  0
  148.7027  140.8195  157.8235 H   0  0  0  0  0  0  0  0  0  0  0  0
  1  2  1  0  0  0  0
  1 30  1  0  0  0  0
  1 31  1  0  0  0  0
  1 32  1  0  0  0  0
  2  3  1  0  0  0  0
  2 33  1  0  0  0  0
  2 34  1  0  0  0  0
  3 29  1  0  0  0  0
  3  4  1  0  0  0  0
  3 35  1  0  0  0  0
  4  5  1  0  0  0  0
  4 36  1  0  0  0  0
  4 37  1  0  0  0  0
  5  6  1  0  0  0  0
  5 23  1  0  0  0  0
  6 11  1  0  0  0  0
  6  7  2  0  0  0  0
  7  8  1  0  0  0  0
  8  9  2  0  0  0  0
  8 38  1  0  0  0  0
  9 10  1  0  0  0  0
 10 14  1  0  0  0  0
 10 11  2  0  0  0  0
 11 12  1  0  0  0  0
 12 13  2  0  0  0  0
 13 14  1  0  0  0  0
 13 39  1  0  0  0  0
 14 15  1  0  0  0  0
 15 16  1  0  0  0  0
 15 40  1  0  0  0  0
 15 41  1  0  0  0  0
 16 17  1  0  0  0  0
 16 18  1  0  0  0  0
 16 42  1  0  0  0  0
 17 43  1  0  0  0  0
 18 22  1  0  0  0  0
 18 19  1  0  0  0  0
 18 44  1  0  0  0  0
 19 20  1  0  0  0  0
 19 45  1  0  0  0  0
 19 46  1  0  0  0  0
 20 21  1  0  0  0  0
 20 47  1  0  0  0  0
 20 48  1  0  0  0  0
 21 22  1  0  0  0  0
 21 49  1  0  0  0  0
 21 50  1  0  0  0  0
 23 24  1  0  0  0  0
 23 51  1  0  0  0  0
 23 52  1  0  0  0  0
 24 28  1  0  0  0  0
 24 25  1  0  0  0  0
 24 29  1  0  0  0  0
 25 26  1  0  0  0  0
 25 53  1  0  0  0  0
 25 54  1  0  0  0  0
 26 27  1  0  0  0  0
 26 55  1  0  0  0  0
 26 56  1  0  0  0  0
 27 28  1  0  0  0  0
 28 57  1  0  0  0  0
 28 58  1  0  0  0  0
M  END
> <s_m_source_file>
AV-unprocessed.smi

> <i_m_source_file_index>
229

> <i_lp_mmshare_version>
43012

> <i_f3d_flags>
0

> <s_epik_input>
W0NIMl0xT1tDSDJdW0NIMl1bQ0BdMTJbQ0gyXU4oW0NIMl1bQ0BIXShPMilbQ0gyXVtDSDNdKWMobltjSF1uMyljKGMzNCluW2NIXW40W0NIMl1bQ0BIXShbT0hdKVtDQEBIXTVbQ0gyXVtDSDJdW0NIMl1PNQ==

> <s_epik_cmdline>
J2VwaWtfcHl0aG9uJywgJy1waCcsICc3LjAnLCAnLXRuJywgJzgnLCAnLW1hJywgJzIwMCcsICctbWV0YWxfYmluZGluZycsICctaW1hZScsICc8aW5maWxlLm1hZT4nLCAnLW9tYWUnLCAnPG91dGZpbGUubWFlPic=

> <r_lp_tautomer_probability>
1

> <r_epik_Ionization_Penalty>
0.00318402

> <r_epik_Ionization_Penalty_Charging>
0

> <r_epik_Ionization_Penalty_Neutral>
0.00318402

> <r_epik_State_Penalty>
0.00215642

> <r_epik_Charging_Adjusted_Penalty>
0.00215642

> <i_epik_Tot_Q>
0

> <i_epik_Tot_abs_Q>
0

> <r_epik_Metal_State_Penalty>
-0

> <b_epik_Metal_Only>
0

> <s_lp_Force_Field>
OPLS_2005

> <r_lp_Energy>
54.3536

> <b_lp_Chiralities_Consistent>
1

> <s_lp_Variant>
AV-unprocessed.smi:229-6

> <Gold.Version>
5.8.1

> <Gold.Id.Protein>
6NUR|6NUR_protein|mol2

> <Gold.PLP.Fitness>
52.6905

> <Gold.PLP.PLP>
-53.7459

> <Gold.PLP.part.hbond>
-1.0000

> <Gold.PLP.part.metal>
0.0000

> <Gold.PLP.part.buried>
-2.4234

> <Gold.PLP.part.nonpolar>
-49.1975

> <Gold.PLP.part.repulsive>
0.3075

> <Gold.PLP.ligand.clash>
0.0000

> <Gold.PLP.ligand.torsion>
0.7264

> <Gold.PLP.Chemscore.Hbond>
0.0000

> <Gold.PLP.Chemscore.CHOScore>
0.0000

> <Gold.PLP.Chemscore.Metal>
0.0000

> <Gold.PLP.Chemscore.Internal.Correction>
0.3974

> <Gold.Rescore>
     Score         DG    S(hbond)    S(metal)    S(lipo)     H(rot)  DE(clash)    DE(int)     intcor
     11.05     -13.27       0.00        0.00     120.38       2.46       0.33       1.89       ----

> <Gold.Chemscore.Fitness>
11.0464

> <Gold.Chemscore.DG>
-13.2694

> <Gold.Chemscore.ZeroCoef>
-5.4800

> <Gold.Chemscore.Hbond>
0.0000

> <Gold.Chemscore.Metal>
0.0000

> <Gold.Chemscore.Lipo>
120.3823

> <Gold.Chemscore.Internal_Hbond>
0.0000

> <Gold.Chemscore.DEClash>
0.3309

> <Gold.Chemscore.DEInternal>
1.8921

> <Gold.Chemscore.Rot>
2.4591

> <Gold.Chemscore.Internal.Correction>
   9.000000E+99

> <Gold.Chemscore.Hbond.Weighted>
-0.0000

> <Gold.Chemscore.Metal.Weighted>
-0.0000

> <Gold.Chemscore.Lipo.Weighted>
-14.0847

> <Gold.Chemscore.Internal_Hbond.Weighted>
0.0000

> <Gold.Chemscore.DEClash.Weighted>
0.3309

> <Gold.Chemscore.DEInternal.Weighted>
1.8921

> <Gold.Chemscore.Rot.Weighted>
6.2953

> <Gold.Chemscore.Internal.Correction.Weighted>
   9.000000E+99

> <Gold.Protein.RotatedTorsions>
[ 6907 6896 6895 6894 ] final   18.02 input  -60.11 | X-H torsion
[ 7974 7965 7964 7962 ] final   38.81 input  175.53 | X-H torsion
[ 8008 7997 7996 7995 ] final   79.52 input   59.86 | X-H torsion
[ 10167 10162 10161 10158 ] final   48.21 input  -65.29 | X-H torsion
[ 10718 10713 10712 10709 ] final   39.64 input   66.30 | X-H torsion
[ 10763 10752 10751 10750 ] final  130.31 input  -60.55 | X-H torsion
[ 11005 11000 10999 10996 ] final  137.98 input  -57.11 | X-H torsion

> <Gold.Protein.ActiveResidues>
 VAL166  LYS551  ARG553  GLY616  TRP617  ASP618  TYR619  PRO620  LYS621  CYS622 
 ASP623  PHE694  ASN695  SER759  ASP760  ASP761  ALA762  ILE779  LEU786  VAL792 
 PHE793  MET794  SER795  GLU796  ALA797  LYS798  CYS799  TRP800  GLU811  SER814 

> <Gold.Protein.RotatedAtoms>
  151.8587  135.0532  160.0466 H   0  0  0  0  0  0  0  0  0  0  0  0  # atno 6907 bound_to 6896
  152.2680  133.5352  159.5430 H   0  0  0  0  0  0  0  0  0  0  0  0  # atno 6908 bound_to 6896
  150.7141  134.0654  159.3888 H   0  0  0  0  0  0  0  0  0  0  0  0  # atno 6909 bound_to 6896
  146.1033  139.5728  142.9400 H   0  0  0  0  0  0  0  0  0  0  0  0  # atno 7974 bound_to 7965
  155.8709  140.3449  155.5820 H   0  0  0  0  0  0  0  0  0  0  0  0  # atno 8008 bound_to 7997
  155.7829  140.0861  157.2069 H   0  0  0  0  0  0  0  0  0  0  0  0  # atno 8009 bound_to 7997
  154.4017  140.1497  156.3060 H   0  0  0  0  0  0  0  0  0  0  0  0  # atno 8010 bound_to 7997
  140.2957  144.2994  150.6230 H   0  0  0  0  0  0  0  0  0  0  0  0  # atno 10167 bound_to 10162
  157.3729  130.7711  149.7133 H   0  0  0  0  0  0  0  0  0  0  0  0  # atno 10718 bound_to 10713
  153.7560  135.3203  155.3329 H   0  0  0  0  0  0  0  0  0  0  0  0  # atno 10763 bound_to 10752
  154.8247  135.4578  154.0885 H   0  0  0  0  0  0  0  0  0  0  0  0  # atno 10764 bound_to 10752
  153.2101  135.6934  153.8207 H   0  0  0  0  0  0  0  0  0  0  0  0  # atno 10765 bound_to 10752
  140.0152  134.9421  157.0360 H   0  0  0  0  0  0  0  0  0  0  0  0  # atno 11005 bound_to 11000
  145.5810  141.0382  143.2122 LP  0  0  0  0  0  0  0  0  0  0  0  0  # atno 17320 bound_to 7965
  144.7450  139.7344  143.7295 LP  0  0  0  0  0  0  0  0  0  0  0  0  # atno 17321 bound_to 7965
  140.5694  143.2182  151.7625 LP  0  0  0  0  0  0  0  0  0  0  0  0  # atno 17342 bound_to 10162
  139.4927  144.4237  151.9949 LP  0  0  0  0  0  0  0  0  0  0  0  0  # atno 17343 bound_to 10162
  155.9759  130.4082  150.3815 LP  0  0  0  0  0  0  0  0  0  0  0  0  # atno 17370 bound_to 10713
  157.1908  131.0415  151.2701 LP  0  0  0  0  0  0  0  0  0  0  0  0  # atno 17371 bound_to 10713
  140.4484  134.1608  155.7179 LP  0  0  0  0  0  0  0  0  0  0  0  0  # atno 17394 bound_to 11000
  141.1738  133.8556  157.1488 LP  0  0  0  0  0  0  0  0  0  0  0  0  # atno 17395 bound_to 11000

$$$$
