AV-unprocessed.smi:1780|AV-procd|sdf|7185|dock4
  -GOLD-   22720 8423D 1   1.00000     0.00000
 Structure written by MMmdl.
 44 45  0  0  0  0  0  0  0  0  2 V2000
  152.8301  142.9708  161.9263 C   0  0  0  0  0  0  0  0  0  0  0  0
  153.3535  142.4255  160.5924 C   0  0  0  0  0  0  0  0  0  0  0  0
  152.5120  142.8242  159.4810 N   0  0  0  0  0  0  0  0  0  0  0  0
  151.8154  142.0153  158.6053 C   0  0  0  0  0  0  0  0  0  0  0  0
  151.1815  142.8642  157.7427 C   0  0  0  0  0  0  0  0  0  0  0  0
  150.3306  142.5654  156.6485 N   0  0  0  0  0  0  0  0  0  0  0  0
  150.3233  141.4483  155.9031 C   0  0  0  0  0  0  0  0  0  0  0  0
  151.0936  140.4977  156.0415 O   0  0  0  0  0  0  0  0  0  0  0  0
  149.3608  141.4896  154.9710 N   0  0  0  0  0  0  0  0  0  0  0  0
  149.0743  140.4223  154.0160 C   0  0  0  0  0  0  0  0  0  0  0  0
  148.5865  139.1079  154.6897 C   0  0  2  0  0  0  0  0  0  0  0  0
  149.7983  138.2517  155.1266 C   0  0  0  0  0  0  0  0  0  0  0  0
  147.6595  138.3014  153.8279 N   0  3  0  0  0  0  0  0  0  0  0  0
  146.7917  137.3849  154.6185 C   0  0  0  0  0  0  0  0  0  0  0  0
  145.9086  136.5225  153.7022 C   0  0  0  0  0  0  0  0  0  0  0  0
  145.1150  137.3639  152.8799 O   0  0  0  0  0  0  0  0  0  0  0  0
  145.9202  138.1720  152.0356 C   0  0  0  0  0  0  0  0  0  0  0  0
  146.8169  139.0892  152.8851 C   0  0  0  0  0  0  0  0  0  0  0  0
  151.5404  144.1739  158.1549 C   0  0  0  0  0  0  0  0  0  0  0  0
  152.3447  144.1418  159.2067 N   0  0  0  0  0  0  0  0  0  0  0  0
  153.4830  142.6772  162.7482 H   0  0  0  0  0  0  0  0  0  0  0  0
  151.8312  142.5923  162.1440 H   0  0  0  0  0  0  0  0  0  0  0  0
  152.7806  144.0600  161.9132 H   0  0  0  0  0  0  0  0  0  0  0  0
  154.3661  142.7871  160.4100 H   0  0  0  0  0  0  0  0  0  0  0  0
  153.4064  141.3363  160.6211 H   0  0  0  0  0  0  0  0  0  0  0  0
  151.8379  140.9381  158.6786 H   0  0  0  0  0  0  0  0  0  0  0  0
  149.6438  143.2699  156.4224 H   0  0  0  0  0  0  0  0  0  0  0  0
  148.7751  142.3109  154.9273 H   0  0  0  0  0  0  0  0  0  0  0  0
  148.3336  140.8118  153.3166 H   0  0  0  0  0  0  0  0  0  0  0  0
  149.9815  140.2342  153.4408 H   0  0  0  0  0  0  0  0  0  0  0  0
  148.0299  139.3920  155.5843 H   0  0  0  0  0  0  0  0  0  0  0  0
  150.4797  138.8101  155.7682 H   0  0  0  0  0  0  0  0  0  0  0  0
  150.3689  137.9095  154.2627 H   0  0  0  0  0  0  0  0  0  0  0  0
  149.5094  137.3741  155.7016 H   0  0  0  0  0  0  0  0  0  0  0  0
  147.3845  136.7180  155.2412 H   0  0  0  0  0  0  0  0  0  0  0  0
  146.1617  137.9693  155.2910 H   0  0  0  0  0  0  0  0  0  0  0  0
  146.5153  135.8536  153.0897 H   0  0  0  0  0  0  0  0  0  0  0  0
  145.2488  135.8943  154.3010 H   0  0  0  0  0  0  0  0  0  0  0  0
  146.5208  137.5447  151.3750 H   0  0  0  0  0  0  0  0  0  0  0  0
  145.2699  138.7711  151.3978 H   0  0  0  0  0  0  0  0  0  0  0  0
  146.2056  139.7987  153.4451 H   0  0  0  0  0  0  0  0  0  0  0  0
  147.4352  139.6598  152.1933 H   0  0  0  0  0  0  0  0  0  0  0  0
  151.2500  145.1264  157.7368 H   0  0  0  0  0  0  0  0  0  0  0  0
  148.2476  137.7196  153.2483 H   0  0  0  0  0  0  0  0  0  0  0  0
  1  2  1  0  0  0  0
  1 21  1  0  0  0  0
  1 22  1  0  0  0  0
  1 23  1  0  0  0  0
  2  3  1  0  0  0  0
  2 24  1  0  0  0  0
  2 25  1  0  0  0  0
  3 20  1  0  0  0  0
  3  4  1  0  0  0  0
  4  5  2  0  0  0  0
  4 26  1  0  0  0  0
  5  6  1  0  0  0  0
  5 19  1  0  0  0  0
  6  7  1  0  0  0  0
  6 27  1  0  0  0  0
  7  8  2  0  0  0  0
  7  9  1  0  0  0  0
  9 10  1  0  0  0  0
  9 28  1  0  0  0  0
 10 11  1  0  0  0  0
 10 29  1  0  0  0  0
 10 30  1  0  0  0  0
 11 12  1  0  0  0  0
 11 13  1  0  0  0  0
 11 31  1  0  0  0  0
 12 32  1  0  0  0  0
 12 33  1  0  0  0  0
 12 34  1  0  0  0  0
 13 18  1  0  0  0  0
 13 14  1  0  0  0  0
 13 44  1  0  0  0  0
 14 15  1  0  0  0  0
 14 35  1  0  0  0  0
 14 36  1  0  0  0  0
 15 16  1  0  0  0  0
 15 37  1  0  0  0  0
 15 38  1  0  0  0  0
 16 17  1  0  0  0  0
 17 18  1  0  0  0  0
 17 39  1  0  0  0  0
 17 40  1  0  0  0  0
 18 41  1  0  0  0  0
 18 42  1  0  0  0  0
 19 20  2  0  0  0  0
 19 43  1  0  0  0  0
M  CHG  1  13   1
M  END
> <s_m_source_file>
AV-unprocessed.smi

> <i_m_source_file_index>
1780

> <i_lp_mmshare_version>
43012

> <i_f3d_flags>
0

> <s_epik_input>
W0NIM11bQ0gyXW4xW2NIXWMoW2NIXW4xKVtOSF1DKD1PKVtOSF1bQ0gyXVtDQEhdKFtDSDNdKU4yW0NIMl1bQ0gyXU9bQ0gyXVtDSDJdMg==

> <s_epik_cmdline>
J2VwaWtfcHl0aG9uJywgJy1waCcsICc3LjAnLCAnLXRuJywgJzgnLCAnLW1hJywgJzIwMCcsICctbWV0YWxfYmluZGluZycsICctaW1hZScsICc8aW5maWxlLm1hZT4nLCAnLW9tYWUnLCAnPG91dGZpbGUubWFlPic=

> <r_lp_tautomer_probability>
1

> <r_epik_Ionization_Penalty>
0.64612

> <r_epik_Ionization_Penalty_Charging>
0.645968

> <r_epik_Ionization_Penalty_Neutral>
0.000152026

> <r_epik_State_Penalty>
0.664063

> <r_epik_Charging_Adjusted_Penalty>
1.31003

> <i_epik_Tot_Q>
1

> <i_epik_Tot_abs_Q>
1

> <r_epik_Metal_State_Penalty>
0.664075

> <b_epik_Metal_Only>
0

> <s_lp_Force_Field>
OPLS_2005

> <r_lp_Energy>
24.4997

> <b_lp_Chiralities_Consistent>
1

> <s_lp_Variant>
AV-unprocessed.smi:1780-3

> <Gold.Version>
5.8.1

> <Gold.Id.Protein>
6NUR|6NUR_protein|mol2

> <Gold.PLP.Fitness>
45.8774

> <Gold.PLP.PLP>
-38.8602

> <Gold.PLP.part.hbond>
-2.0000

> <Gold.PLP.part.metal>
0.0000

> <Gold.PLP.part.buried>
-1.8465

> <Gold.PLP.part.nonpolar>
-34.8632

> <Gold.PLP.part.repulsive>
0.4878

> <Gold.PLP.ligand.clash>
0.0182

> <Gold.PLP.ligand.torsion>
1.0159

> <Gold.PLP.Chemscore.Hbond>
3.0000

> <Gold.PLP.Chemscore.CHOScore>
0.0000

> <Gold.PLP.Chemscore.Metal>
0.0000

> <Gold.Chemscore.Hbonds>
donor molecule, donor type, donor heavy atom, donor atom, acceptor molecule, acceptor atom, score
      L1  H     6    27       P1  8028  1.00
      L1  H    13    44       P1  7948  1.43

> <Gold.PLP.Chemscore.Internal.Correction>
0.0671

> <Gold.Rescore>
     Score         DG    S(hbond)    S(metal)    S(lipo)     H(rot)  DE(clash)    DE(int)     intcor
     14.66     -18.88       1.99        0.00      94.26       1.67       1.52       2.70       ----

> <Gold.Chemscore.Fitness>
14.6582

> <Gold.Chemscore.DG>
-18.8833

> <Gold.Chemscore.ZeroCoef>
-5.4800

> <Gold.Chemscore.Hbond>
1.9918

> <Gold.Chemscore.Metal>
0.0000

> <Gold.Chemscore.Lipo>
94.2562

> <Gold.Chemscore.Internal_Hbond>
0.0000

> <Gold.Chemscore.DEClash>
1.5241

> <Gold.Chemscore.DEInternal>
2.7010

> <Gold.Chemscore.Rot>
1.6708

> <Gold.Chemscore.Internal.Correction>
   9.000000E+99

> <Gold.Chemscore.Hbonds>
donor molecule, donor type, donor heavy atom, donor atom, acceptor molecule, acceptor atom, score
      L1  H     6    27       P1  8028  1.00
      L1  H     9    28       P1  8028  0.01
      L1  H    13    44       P1  7948  0.71

> <Gold.Chemscore.Hbond.Weighted>
-6.6526

> <Gold.Chemscore.Metal.Weighted>
-0.0000

> <Gold.Chemscore.Lipo.Weighted>
-11.0280

> <Gold.Chemscore.Internal_Hbond.Weighted>
0.0000

> <Gold.Chemscore.DEClash.Weighted>
1.5241

> <Gold.Chemscore.DEInternal.Weighted>
2.7010

> <Gold.Chemscore.Rot.Weighted>
4.2773

> <Gold.Chemscore.Internal.Correction.Weighted>
   9.000000E+99

> <Gold.Protein.RotatedTorsions>
[ 6907 6896 6895 6894 ] final   78.14 input  -60.11 | X-H torsion
[ 7974 7965 7964 7962 ] final -155.70 input  175.53 | X-H torsion
[ 8008 7997 7996 7995 ] final  -50.83 input   59.86 | X-H torsion
[ 10167 10162 10161 10158 ] final  -41.03 input  -65.29 | X-H torsion
[ 10718 10713 10712 10709 ] final  -64.51 input   66.30 | X-H torsion
[ 10763 10752 10751 10750 ] final  125.08 input  -60.55 | X-H torsion
[ 11005 11000 10999 10996 ] final  156.02 input  -57.11 | X-H torsion

> <Gold.Protein.ActiveResidues>
 VAL166  LYS551  ARG553  GLY616  TRP617  ASP618  TYR619  PRO620  LYS621  CYS622 
 ASP623  PHE694  ASN695  SER759  ASP760  ASP761  ALA762  ILE779  LEU786  VAL792 
 PHE793  MET794  SER795  GLU796  ALA797  LYS798  CYS799  TRP800  GLU811  SER814 

> <Gold.Protein.RotatedAtoms>
  152.5147  134.3710  159.9317 H   0  0  0  0  0  0  0  0  0  0  0  0  # atno 6907 bound_to 6896
  151.3665  133.3864  159.2703 H   0  0  0  0  0  0  0  0  0  0  0  0  # atno 6908 bound_to 6896
  150.9611  134.9018  159.7789 H   0  0  0  0  0  0  0  0  0  0  0  0  # atno 6909 bound_to 6896
  144.7628  140.4213  143.5964 H   0  0  0  0  0  0  0  0  0  0  0  0  # atno 7974 bound_to 7965
  154.4070  140.1263  156.4729 H   0  0  0  0  0  0  0  0  0  0  0  0  # atno 8008 bound_to 7997
  155.7161  140.3493  155.4975 H   0  0  0  0  0  0  0  0  0  0  0  0  # atno 8009 bound_to 7997
  155.9257  140.1060  157.1162 H   0  0  0  0  0  0  0  0  0  0  0  0  # atno 8010 bound_to 7997
  140.7015  143.3118  151.3009 H   0  0  0  0  0  0  0  0  0  0  0  0  # atno 10167 bound_to 10162
  156.0725  130.4234  150.1430 H   0  0  0  0  0  0  0  0  0  0  0  0  # atno 10718 bound_to 10713
  153.6716  135.3329  155.3155 H   0  0  0  0  0  0  0  0  0  0  0  0  # atno 10763 bound_to 10752
  154.8489  135.4387  154.1699 H   0  0  0  0  0  0  0  0  0  0  0  0  # atno 10764 bound_to 10752
  153.2692  135.6998  153.7574 H   0  0  0  0  0  0  0  0  0  0  0  0  # atno 10765 bound_to 10752
  140.1635  134.8593  157.2604 H   0  0  0  0  0  0  0  0  0  0  0  0  # atno 11005 bound_to 11000
  145.6565  139.1574  143.2832 LP  0  0  0  0  0  0  0  0  0  0  0  0  # atno 17320 bound_to 7965
  146.1707  140.6650  142.9234 LP  0  0  0  0  0  0  0  0  0  0  0  0  # atno 17321 bound_to 7965
  139.6543  144.0304  152.2649 LP  0  0  0  0  0  0  0  0  0  0  0  0  # atno 17342 bound_to 10162
  139.9851  144.6401  150.7865 LP  0  0  0  0  0  0  0  0  0  0  0  0  # atno 17343 bound_to 10162
  156.9478  130.9765  151.3504 LP  0  0  0  0  0  0  0  0  0  0  0  0  # atno 17370 bound_to 10713
  157.5803  130.8372  149.8513 LP  0  0  0  0  0  0  0  0  0  0  0  0  # atno 17371 bound_to 10713
  140.2461  134.3738  155.7461 LP  0  0  0  0  0  0  0  0  0  0  0  0  # atno 17394 bound_to 11000
  141.2211  133.7291  156.8864 LP  0  0  0  0  0  0  0  0  0  0  0  0  # atno 17395 bound_to 11000

$$$$
