AV-unprocessed.smi:2066|AV-procd|sdf|8419|dock4
  -GOLD-   2272011113D 1   1.00000     0.00000
 Structure written by MMmdl.
 39 40  0  0  0  0  0  0  0  0  1 V2000
  147.1474  140.8230  153.0848 C   0  0  0  0  0  0  0  0  0  0  0  0
  147.2346  139.9829  154.3818 C   0  0  0  0  0  0  0  0  0  0  0  0
  146.3445  140.6866  155.4378 C   0  0  0  0  0  0  0  0  0  0  0  0
  146.5692  138.6063  154.0819 C   0  0  0  0  0  0  0  0  0  0  0  0
  145.1624  138.7237  153.6971 N   0  0  0  0  0  0  0  0  0  0  0  0
  144.1787  137.8877  154.0583 C   0  0  0  0  0  0  0  0  0  0  0  0
  144.3473  136.9146  154.7939 O   0  0  0  0  0  0  0  0  0  0  0  0
  143.0075  138.2509  153.5069 N   0  0  0  0  0  0  0  0  0  0  0  0
  141.7460  137.6108  153.6253 C   0  0  0  0  0  0  0  0  0  0  0  0
  141.5732  136.3587  154.0646 N   0  0  0  0  0  0  0  0  0  0  0  0
  140.2264  135.9874  154.0747 C   0  0  0  0  0  0  0  0  0  0  0  0
  139.3814  136.9764  153.6364 C   0  0  0  0  0  0  0  0  0  0  0  0
  140.2486  138.4226  153.1923 S   0  0  0  0  0  0  0  0  0  0  0  0
  148.6298  139.8219  154.8799 N   0  0  0  0  0  0  0  0  0  0  0  0
  149.3587  141.0771  155.0957 C   0  0  0  0  0  0  0  0  0  0  0  0
  150.7408  140.8411  155.7284 C   0  0  0  0  0  0  0  0  0  0  0  0
  151.4985  139.9574  154.9109 O   0  0  0  0  0  0  0  0  0  0  0  0
  150.8523  138.7043  154.7229 C   0  0  0  0  0  0  0  0  0  0  0  0
  149.4722  138.9242  154.0807 C   0  0  0  0  0  0  0  0  0  0  0  0
  146.1120  140.9302  152.7589 H   0  0  0  0  0  0  0  0  0  0  0  0
  147.6897  140.3635  152.2588 H   0  0  0  0  0  0  0  0  0  0  0  0
  147.5386  141.8312  153.2188 H   0  0  0  0  0  0  0  0  0  0  0  0
  145.2888  140.6381  155.1680 H   0  0  0  0  0  0  0  0  0  0  0  0
  146.5829  141.7452  155.5403 H   0  0  0  0  0  0  0  0  0  0  0  0
  146.4492  140.2301  156.4225 H   0  0  0  0  0  0  0  0  0  0  0  0
  147.1310  138.0728  153.3130 H   0  0  0  0  0  0  0  0  0  0  0  0
  146.6194  137.9526  154.9522 H   0  0  0  0  0  0  0  0  0  0  0  0
  144.9286  139.4910  153.0846 H   0  0  0  0  0  0  0  0  0  0  0  0
  143.0222  139.0745  152.9238 H   0  0  0  0  0  0  0  0  0  0  0  0
  139.9576  134.9965  154.4104 H   0  0  0  0  0  0  0  0  0  0  0  0
  138.3058  136.9414  153.5483 H   0  0  0  0  0  0  0  0  0  0  0  0
  149.4900  141.6043  154.1509 H   0  0  0  0  0  0  0  0  0  0  0  0
  148.8033  141.7416  155.7551 H   0  0  0  0  0  0  0  0  0  0  0  0
  151.2783  141.7842  155.8264 H   0  0  0  0  0  0  0  0  0  0  0  0
  150.6396  140.4239  156.7316 H   0  0  0  0  0  0  0  0  0  0  0  0
  151.4725  138.0765  154.0831 H   0  0  0  0  0  0  0  0  0  0  0  0
  150.7549  138.1889  155.6799 H   0  0  0  0  0  0  0  0  0  0  0  0
  149.0025  137.9494  153.9628 H   0  0  0  0  0  0  0  0  0  0  0  0
  149.6127  139.3313  153.0792 H   0  0  0  0  0  0  0  0  0  0  0  0
  1  2  1  0  0  0  0
  1 20  1  0  0  0  0
  1 21  1  0  0  0  0
  1 22  1  0  0  0  0
  2  3  1  0  0  0  0
  2  4  1  0  0  0  0
  2 14  1  0  0  0  0
  3 23  1  0  0  0  0
  3 24  1  0  0  0  0
  3 25  1  0  0  0  0
  4  5  1  0  0  0  0
  4 26  1  0  0  0  0
  4 27  1  0  0  0  0
  5  6  1  0  0  0  0
  5 28  1  0  0  0  0
  6  7  2  0  0  0  0
  6  8  1  0  0  0  0
  8  9  1  0  0  0  0
  8 29  1  0  0  0  0
  9 13  1  0  0  0  0
  9 10  2  0  0  0  0
 10 11  1  0  0  0  0
 11 12  2  0  0  0  0
 11 30  1  0  0  0  0
 12 13  1  0  0  0  0
 12 31  1  0  0  0  0
 14 19  1  0  0  0  0
 14 15  1  0  0  0  0
 15 16  1  0  0  0  0
 15 32  1  0  0  0  0
 15 33  1  0  0  0  0
 16 17  1  0  0  0  0
 16 34  1  0  0  0  0
 16 35  1  0  0  0  0
 17 18  1  0  0  0  0
 18 19  1  0  0  0  0
 18 36  1  0  0  0  0
 18 37  1  0  0  0  0
 19 38  1  0  0  0  0
 19 39  1  0  0  0  0
M  END
> <s_m_source_file>
AV-unprocessed.smi

> <i_m_source_file_index>
2066

> <i_lp_mmshare_version>
43012

> <i_f3d_flags>
0

> <s_epik_input>
W0NIMl0xW0NIMl1PW0NIMl1bQ0gyXU4xQyhbQ0gzXSkoW0NIM10pW0NIMl1bTkhdQyg9TylbTkhdYzJuW2NIXVtjSF1zMg==

> <s_epik_cmdline>
J2VwaWtfcHl0aG9uJywgJy1waCcsICc3LjAnLCAnLXRuJywgJzgnLCAnLW1hJywgJzIwMCcsICctbWV0YWxfYmluZGluZycsICctaW1hZScsICc8aW5maWxlLm1hZT4nLCAnLW9tYWUnLCAnPG91dGZpbGUubWFlPic=

> <r_lp_tautomer_probability>
0.999

> <r_epik_Ionization_Penalty>
0.219202

> <r_epik_Ionization_Penalty_Charging>
0

> <r_epik_Ionization_Penalty_Neutral>
0.219202

> <r_epik_State_Penalty>
0.209349

> <r_epik_Charging_Adjusted_Penalty>
0.209349

> <i_epik_Tot_Q>
0

> <i_epik_Tot_abs_Q>
0

> <r_epik_Metal_State_Penalty>
0.2479

> <b_epik_Metal_Only>
0

> <s_lp_Force_Field>
OPLS_2005

> <r_lp_Energy>
39.7757

> <b_lp_Chiralities_Consistent>
1

> <s_lp_Variant>
AV-unprocessed.smi:2066-1

> <Gold.Version>
5.8.1

> <Gold.Id.Protein>
6NUR|6NUR_protein|mol2

> <Gold.PLP.Fitness>
39.0111

> <Gold.PLP.PLP>
-28.1225

> <Gold.PLP.part.hbond>
-2.8700

> <Gold.PLP.part.metal>
0.0000

> <Gold.PLP.part.buried>
-0.9766

> <Gold.PLP.part.nonpolar>
-24.0820

> <Gold.PLP.part.repulsive>
0.2213

> <Gold.PLP.ligand.clash>
0.0000

> <Gold.PLP.ligand.torsion>
0.3509

> <Gold.PLP.Chemscore.Hbond>
2.9120

> <Gold.PLP.Chemscore.CHOScore>
0.9239

> <Gold.PLP.Chemscore.Metal>
0.0000

> <Gold.Chemscore.Hbonds>
donor molecule, donor type, donor heavy atom, donor atom, acceptor molecule, acceptor atom, score
      L1  H     5    28       P1 10175  0.91
      L1  H     8    29       P1 10175  1.00
      P1  H  7989  7998       L1    17  1.00
      L1  C    11    30       P1 11000  0.91

> <Gold.PLP.Chemscore.Internal.Correction>
0.0827

> <Gold.Rescore>
     Score         DG    S(hbond)    S(metal)    S(lipo)     H(rot)  DE(clash)    DE(int)     intcor
     15.68     -17.45       2.38        0.00      68.81       1.58       0.15       1.61       ----

> <Gold.Chemscore.Fitness>
15.6799

> <Gold.Chemscore.DG>
-17.4459

> <Gold.Chemscore.ZeroCoef>
-5.4800

> <Gold.Chemscore.Hbond>
2.3837

> <Gold.Chemscore.Metal>
0.0000

> <Gold.Chemscore.Lipo>
68.8116

> <Gold.Chemscore.Internal_Hbond>
0.0000

> <Gold.Chemscore.DEClash>
0.1531

> <Gold.Chemscore.DEInternal>
1.6130

> <Gold.Chemscore.Rot>
1.5807

> <Gold.Chemscore.Internal.Correction>
   9.000000E+99

> <Gold.Chemscore.Hbonds>
donor molecule, donor type, donor heavy atom, donor atom, acceptor molecule, acceptor atom, score
      L1  H     5    28       P1 10175  0.90
      L1  H     8    29       P1 10175  0.92
      P1  H  7989  7998       L1    17  0.26

> <Gold.Chemscore.Hbond.Weighted>
-7.9616

> <Gold.Chemscore.Metal.Weighted>
-0.0000

> <Gold.Chemscore.Lipo.Weighted>
-8.0510

> <Gold.Chemscore.Internal_Hbond.Weighted>
0.0000

> <Gold.Chemscore.DEClash.Weighted>
0.1531

> <Gold.Chemscore.DEInternal.Weighted>
1.6130

> <Gold.Chemscore.Rot.Weighted>
4.0466

> <Gold.Chemscore.Internal.Correction.Weighted>
   9.000000E+99

> <Gold.Protein.RotatedTorsions>
[ 6907 6896 6895 6894 ] final -154.35 input  -60.11 | X-H torsion
[ 7974 7965 7964 7962 ] final   32.87 input  175.53 | X-H torsion
[ 8008 7997 7996 7995 ] final  -30.83 input   59.86 | X-H torsion
[ 10167 10162 10161 10158 ] final    1.19 input  -65.29 | X-H torsion
[ 10718 10713 10712 10709 ] final  -16.58 input   66.30 | X-H torsion
[ 10763 10752 10751 10750 ] final  -73.38 input  -60.55 | X-H torsion
[ 11005 11000 10999 10996 ] final  176.97 input  -57.11 | X-H torsion

> <Gold.Protein.ActiveResidues>
 VAL166  LYS551  ARG553  GLY616  TRP617  ASP618  TYR619  PRO620  LYS621  CYS622 
 ASP623  PHE694  ASN695  SER759  ASP760  ASP761  ALA762  ILE779  LEU786  VAL792 
 PHE793  MET794  SER795  GLU796  ALA797  LYS798  CYS799  TRP800  GLU811  SER814 

> <Gold.Protein.RotatedAtoms>
  151.2562  133.4325  159.2613 H   0  0  0  0  0  0  0  0  0  0  0  0  # atno 6907 bound_to 6896
  151.0572  134.9713  159.8252 H   0  0  0  0  0  0  0  0  0  0  0  0  # atno 6908 bound_to 6896
  152.5392  134.2513  159.8952 H   0  0  0  0  0  0  0  0  0  0  0  0  # atno 6909 bound_to 6896
  146.1458  139.6470  142.9132 H   0  0  0  0  0  0  0  0  0  0  0  0  # atno 7974 bound_to 7965
  154.4236  140.1781  156.1469 H   0  0  0  0  0  0  0  0  0  0  0  0  # atno 8008 bound_to 7997
  155.9946  140.3366  155.6762 H   0  0  0  0  0  0  0  0  0  0  0  0  # atno 8009 bound_to 7997
  155.6326  140.0671  157.2635 H   0  0  0  0  0  0  0  0  0  0  0  0  # atno 8010 bound_to 7997
  140.6694  143.7090  150.7892 H   0  0  0  0  0  0  0  0  0  0  0  0  # atno 10167 bound_to 10162
  156.5856  130.4785  149.6301 H   0  0  0  0  0  0  0  0  0  0  0  0  # atno 10718 bound_to 10713
  154.4587  135.5899  153.6241 H   0  0  0  0  0  0  0  0  0  0  0  0  # atno 10763 bound_to 10752
  152.9821  135.6038  154.3514 H   0  0  0  0  0  0  0  0  0  0  0  0  # atno 10764 bound_to 10752
  154.3383  135.2842  155.2415 H   0  0  0  0  0  0  0  0  0  0  0  0  # atno 10765 bound_to 10752
  140.3790  134.6963  157.4439 H   0  0  0  0  0  0  0  0  0  0  0  0  # atno 11005 bound_to 11000
  145.4940  141.0438  143.2577 LP  0  0  0  0  0  0  0  0  0  0  0  0  # atno 17320 bound_to 7965
  144.7845  139.6456  143.7140 LP  0  0  0  0  0  0  0  0  0  0  0  0  # atno 17321 bound_to 7965
  140.0773  143.5003  152.2549 LP  0  0  0  0  0  0  0  0  0  0  0  0  # atno 17342 bound_to 10162
  139.5956  144.7565  151.3295 LP  0  0  0  0  0  0  0  0  0  0  0  0  # atno 17343 bound_to 10162
  156.2594  130.6953  151.1717 LP  0  0  0  0  0  0  0  0  0  0  0  0  # atno 17370 bound_to 10713
  157.7316  131.0607  150.5670 LP  0  0  0  0  0  0  0  0  0  0  0  0  # atno 17371 bound_to 10713
  140.0493  134.6153  155.8881 LP  0  0  0  0  0  0  0  0  0  0  0  0  # atno 17394 bound_to 11000
  141.1930  133.6577  156.5527 LP  0  0  0  0  0  0  0  0  0  0  0  0  # atno 17395 bound_to 11000

$$$$
