AV-unprocessed.smi:1662|AV-procd|sdf|6661|dock10
  -GOLD-   22720 7373D 1   1.00000     0.00000
 Structure written by MMmdl.
 47 48  0  0  0  0  0  0  0  0  1 V2000
  152.6309  143.9910  162.3664 C   0  0  0  0  0  0  0  0  0  0  0  0
  152.4048  143.1977  161.1073 C   0  0  0  0  0  0  0  0  0  0  0  0
  151.4646  143.6106  160.3222 N   0  0  0  0  0  0  0  0  0  0  0  0
  151.1721  142.9544  159.1422 N   0  0  0  0  0  0  0  0  0  0  0  0
  150.0579  143.5467  158.3873 C   0  0  0  0  0  0  0  0  0  0  0  0
  148.8593  142.6009  158.2204 C   0  0  0  0  0  0  0  0  0  0  0  0
  148.0078  142.4968  159.1045 O   0  0  0  0  0  0  0  0  0  0  0  0
  148.8021  141.9344  157.0569 N   0  0  0  0  0  0  0  0  0  0  0  0
  147.7644  140.9827  156.6522 C   0  0  2  0  0  0  0  0  0  0  0  0
  148.3949  139.8458  155.8272 C   0  0  0  0  0  0  0  0  0  0  0  0
  148.8628  140.3307  154.4472 C   0  0  0  0  0  0  0  0  0  0  0  0
  147.7134  140.9974  153.6801 C   0  0  0  0  0  0  0  0  0  0  0  0
  147.0800  142.1598  154.4726 C   0  0  1  0  0  0  0  0  0  0  0  0
  145.9448  142.7916  153.6470 C   0  0  0  0  0  0  0  0  0  0  0  0
  146.6137  141.6774  155.8751 C   0  0  2  0  0  0  0  0  0  0  0  0
  145.9576  142.7934  156.7131 C   0  0  0  0  0  0  0  0  0  0  0  0
  151.8275  141.8481  158.6860 C   0  0  0  0  0  0  0  0  0  0  0  0
  151.5382  141.2989  157.6216 O   0  0  0  0  0  0  0  0  0  0  0  0
  152.8918  141.3863  159.5797 C   0  0  0  0  0  0  0  0  0  0  0  0
  153.6022  140.2287  159.1406 C   0  0  0  0  0  0  0  0  0  0  0  0
  154.1764  139.2964  158.7645 N   0  0  0  0  0  0  0  0  0  0  0  0
  153.1813  142.0159  160.7461 C   0  0  0  0  0  0  0  0  0  0  0  0
  154.2745  141.5744  161.7096 C   0  0  0  0  0  0  0  0  0  0  0  0
  153.6607  144.3439  162.4229 H   0  0  0  0  0  0  0  0  0  0  0  0
  152.4324  143.3814  163.2480 H   0  0  0  0  0  0  0  0  0  0  0  0
  151.9810  144.8660  162.4182 H   0  0  0  0  0  0  0  0  0  0  0  0
  149.7060  144.4521  158.8852 H   0  0  0  0  0  0  0  0  0  0  0  0
  150.4030  143.8712  157.4036 H   0  0  0  0  0  0  0  0  0  0  0  0
  149.5443  142.0943  156.3914 H   0  0  0  0  0  0  0  0  0  0  0  0
  147.3350  140.5225  157.5438 H   0  0  0  0  0  0  0  0  0  0  0  0
  149.2296  139.4013  156.3710 H   0  0  0  0  0  0  0  0  0  0  0  0
  147.6614  139.0492  155.6951 H   0  0  0  0  0  0  0  0  0  0  0  0
  149.6882  141.0347  154.5583 H   0  0  0  0  0  0  0  0  0  0  0  0
  149.2523  139.4898  153.8727 H   0  0  0  0  0  0  0  0  0  0  0  0
  148.0841  141.3586  152.7203 H   0  0  0  0  0  0  0  0  0  0  0  0
  146.9514  140.2503  153.4523 H   0  0  0  0  0  0  0  0  0  0  0  0
  147.8454  142.9251  154.6097 H   0  0  0  0  0  0  0  0  0  0  0  0
  145.1056  142.1045  153.5350 H   0  0  0  0  0  0  0  0  0  0  0  0
  146.2899  143.0580  152.6477 H   0  0  0  0  0  0  0  0  0  0  0  0
  145.5712  143.7067  154.1059 H   0  0  0  0  0  0  0  0  0  0  0  0
  145.8447  140.9197  155.7152 H   0  0  0  0  0  0  0  0  0  0  0  0
  146.6131  143.6585  156.8167 H   0  0  0  0  0  0  0  0  0  0  0  0
  145.7165  142.4373  157.7152 H   0  0  0  0  0  0  0  0  0  0  0  0
  145.0243  143.1358  156.2673 H   0  0  0  0  0  0  0  0  0  0  0  0
  154.7436  140.6404  161.4015 H   0  0  0  0  0  0  0  0  0  0  0  0
  153.8673  141.4174  162.7090 H   0  0  0  0  0  0  0  0  0  0  0  0
  155.0563  142.3322  161.7709 H   0  0  0  0  0  0  0  0  0  0  0  0
  1  2  1  0  0  0  0
  1 24  1  0  0  0  0
  1 25  1  0  0  0  0
  1 26  1  0  0  0  0
  2 22  1  0  0  0  0
  2  3  2  0  0  0  0
  3  4  1  0  0  0  0
  4  5  1  0  0  0  0
  4 17  1  0  0  0  0
  5  6  1  0  0  0  0
  5 27  1  0  0  0  0
  5 28  1  0  0  0  0
  6  7  2  0  0  0  0
  6  8  1  0  0  0  0
  8  9  1  0  0  0  0
  8 29  1  0  0  0  0
  9 15  1  0  0  0  0
  9 10  1  0  0  0  0
  9 30  1  0  0  0  0
 10 11  1  0  0  0  0
 10 31  1  0  0  0  0
 10 32  1  0  0  0  0
 11 12  1  0  0  0  0
 11 33  1  0  0  0  0
 11 34  1  0  0  0  0
 12 13  1  0  0  0  0
 12 35  1  0  0  0  0
 12 36  1  0  0  0  0
 13 14  1  0  0  0  0
 13 15  1  0  0  0  0
 13 37  1  0  0  0  0
 14 38  1  0  0  0  0
 14 39  1  0  0  0  0
 14 40  1  0  0  0  0
 15 16  1  0  0  0  0
 15 41  1  0  0  0  0
 16 42  1  0  0  0  0
 16 43  1  0  0  0  0
 16 44  1  0  0  0  0
 17 18  2  0  0  0  0
 17 19  1  0  0  0  0
 19 20  1  0  0  0  0
 19 22  2  0  0  0  0
 20 21  3  0  0  0  0
 22 23  1  0  0  0  0
 23 45  1  0  0  0  0
 23 46  1  0  0  0  0
 23 47  1  0  0  0  0
M  END
> <s_m_source_file>
AV-unprocessed.smi

> <i_m_source_file_index>
1662

> <i_lp_mmshare_version>
43012

> <i_f3d_flags>
0

> <s_epik_input>
TiNDYyhjMVtDSDNdKWMoPU8pbihuYzFbQ0gzXSlbQ0gyXUMoPU8pW05IXVtDQEBIXTJbQ0gyXVtDSDJdW0NIMl1bQ0BASF0oW0NIM10pW0NASF0yW0NIM10=

> <s_epik_cmdline>
J2VwaWtfcHl0aG9uJywgJy1waCcsICc3LjAnLCAnLXRuJywgJzgnLCAnLW1hJywgJzIwMCcsICctbWV0YWxfYmluZGluZycsICctaW1hZScsICc8aW5maWxlLm1hZT4nLCAnLW9tYWUnLCAnPG91dGZpbGUubWFlPic=

> <r_lp_tautomer_probability>
1

> <r_epik_Ionization_Penalty>
1.90709e-08

> <r_epik_Ionization_Penalty_Charging>
2.37982e-11

> <r_epik_Ionization_Penalty_Neutral>
1.90471e-08

> <r_epik_State_Penalty>
-0

> <r_epik_Charging_Adjusted_Penalty>
2.37982e-11

> <i_epik_Tot_Q>
0

> <i_epik_Tot_abs_Q>
0

> <r_epik_Metal_State_Penalty>
-0

> <b_epik_Metal_Only>
0

> <s_lp_Force_Field>
OPLS_2005

> <r_lp_Energy>
26.4332

> <b_lp_Chiralities_Consistent>
1

> <s_lp_Variant>
AV-unprocessed.smi:1662-5

> <Gold.Version>
5.8.1

> <Gold.Id.Protein>
6NUR|6NUR_protein|mol2

> <Gold.PLP.Fitness>
45.0931

> <Gold.PLP.PLP>
-43.0506

> <Gold.PLP.part.hbond>
-3.8084

> <Gold.PLP.part.metal>
0.0000

> <Gold.PLP.part.buried>
-2.5330

> <Gold.PLP.part.nonpolar>
-36.3848

> <Gold.PLP.part.repulsive>
0.2373

> <Gold.PLP.ligand.clash>
0.0000

> <Gold.PLP.ligand.torsion>
0.6919

> <Gold.PLP.Chemscore.Hbond>
1.1383

> <Gold.PLP.Chemscore.CHOScore>
0.0000

> <Gold.PLP.Chemscore.Metal>
0.0000

> <Gold.Chemscore.Hbonds>
donor molecule, donor type, donor heavy atom, donor atom, acceptor molecule, acceptor atom, score
      P1  H  6933  6944       L1     7  0.06
      P1  H  7997  8008       L1    21  0.90

> <Gold.PLP.Chemscore.Internal.Correction>
0.0113

> <Gold.Rescore>
     Score         DG    S(hbond)    S(metal)    S(lipo)     H(rot)  DE(clash)    DE(int)     intcor
     15.37     -18.06       1.71        0.00      90.35       1.45       1.00       1.69       ----

> <Gold.Chemscore.Fitness>
15.3747

> <Gold.Chemscore.DG>
-18.0577

> <Gold.Chemscore.ZeroCoef>
-5.4800

> <Gold.Chemscore.Hbond>
1.7124

> <Gold.Chemscore.Metal>
0.0000

> <Gold.Chemscore.Lipo>
90.3535

> <Gold.Chemscore.Internal_Hbond>
0.0000

> <Gold.Chemscore.DEClash>
0.9964

> <Gold.Chemscore.DEInternal>
1.6866

> <Gold.Chemscore.Rot>
1.4504

> <Gold.Chemscore.Internal.Correction>
   9.000000E+99

> <Gold.Chemscore.Hbonds>
donor molecule, donor type, donor heavy atom, donor atom, acceptor molecule, acceptor atom, score
      P1  H  6933  6944       L1     7  0.07
      P1  H  7997  8008       L1    21  0.18

> <Gold.Chemscore.Hbond.Weighted>
-5.7193

> <Gold.Chemscore.Metal.Weighted>
-0.0000

> <Gold.Chemscore.Lipo.Weighted>
-10.5714

> <Gold.Chemscore.Internal_Hbond.Weighted>
0.0000

> <Gold.Chemscore.DEClash.Weighted>
0.9964

> <Gold.Chemscore.DEInternal.Weighted>
1.6866

> <Gold.Chemscore.Rot.Weighted>
3.7129

> <Gold.Chemscore.Internal.Correction.Weighted>
   9.000000E+99

> <Gold.Protein.RotatedTorsions>
[ 6907 6896 6895 6894 ] final    7.07 input  -60.11 | X-H torsion
[ 7974 7965 7964 7962 ] final  147.79 input  175.53 | X-H torsion
[ 8008 7997 7996 7995 ] final -106.57 input   59.86 | X-H torsion
[ 10167 10162 10161 10158 ] final  142.86 input  -65.29 | X-H torsion
[ 10718 10713 10712 10709 ] final   17.70 input   66.30 | X-H torsion
[ 10763 10752 10751 10750 ] final  121.41 input  -60.55 | X-H torsion
[ 11005 11000 10999 10996 ] final    2.98 input  -57.11 | X-H torsion

> <Gold.Protein.ActiveResidues>
 VAL166  LYS551  ARG553  GLY616  TRP617  ASP618  TYR619  PRO620  LYS621  CYS622 
 ASP623  PHE694  ASN695  SER759  ASP760  ASP761  ALA762  ILE779  LEU786  VAL792 
 PHE793  MET794  SER795  GLU796  ALA797  LYS798  CYS799  TRP800  GLU811  SER814 

> <Gold.Protein.RotatedAtoms>
  151.6839  135.0957  160.0220 H   0  0  0  0  0  0  0  0  0  0  0  0  # atno 6907 bound_to 6896
  152.3819  133.6553  159.6176 H   0  0  0  0  0  0  0  0  0  0  0  0  # atno 6908 bound_to 6896
  150.7754  133.9016  159.3384 H   0  0  0  0  0  0  0  0  0  0  0  0  # atno 6909 bound_to 6896
  144.8564  139.6073  143.5950 H   0  0  0  0  0  0  0  0  0  0  0  0  # atno 7974 bound_to 7965
  154.9165  140.0408  157.1975 H   0  0  0  0  0  0  0  0  0  0  0  0  # atno 8008 bound_to 7997
  154.8296  140.2897  155.5710 H   0  0  0  0  0  0  0  0  0  0  0  0  # atno 8009 bound_to 7997
  156.2986  140.2503  156.3219 H   0  0  0  0  0  0  0  0  0  0  0  0  # atno 8010 bound_to 7997
  139.4983  144.6079  151.6338 H   0  0  0  0  0  0  0  0  0  0  0  0  # atno 10167 bound_to 10162
  157.0858  130.6407  149.5837 H   0  0  0  0  0  0  0  0  0  0  0  0  # atno 10718 bound_to 10713
  153.6137  135.3426  155.2987 H   0  0  0  0  0  0  0  0  0  0  0  0  # atno 10763 bound_to 10752
  154.8613  135.4256  154.2282 H   0  0  0  0  0  0  0  0  0  0  0  0  # atno 10764 bound_to 10752
  153.3138  135.7033  153.7163 H   0  0  0  0  0  0  0  0  0  0  0  0  # atno 10765 bound_to 10752
  140.5982  133.9861  155.8119 H   0  0  0  0  0  0  0  0  0  0  0  0  # atno 11005 bound_to 11000
  146.2826  139.6918  142.9218 LP  0  0  0  0  0  0  0  0  0  0  0  0  # atno 17320 bound_to 7965
  145.4398  141.0421  143.2864 LP  0  0  0  0  0  0  0  0  0  0  0  0  # atno 17321 bound_to 7965
  140.5745  144.0052  150.6234 LP  0  0  0  0  0  0  0  0  0  0  0  0  # atno 17342 bound_to 10162
  140.3180  143.3155  152.0812 LP  0  0  0  0  0  0  0  0  0  0  0  0  # atno 17343 bound_to 10162
  155.9911  130.4965  150.7285 LP  0  0  0  0  0  0  0  0  0  0  0  0  # atno 17370 bound_to 10713
  157.4762  131.0898  151.0587 LP  0  0  0  0  0  0  0  0  0  0  0  0  # atno 17371 bound_to 10713
  141.0890  133.9946  157.3268 LP  0  0  0  0  0  0  0  0  0  0  0  0  # atno 17394 bound_to 11000
  139.9244  135.0201  156.8181 LP  0  0  0  0  0  0  0  0  0  0  0  0  # atno 17395 bound_to 11000

$$$$
