AV-unprocessed.smi:3217|AV-procd|sdf|12292|dock1
  -GOLD-   2272018133D 1   1.00000     0.00000
 Structure written by MMmdl.
 34 35  0  0  0  0  0  0  0  0  1 V2000
  144.4432  135.8728  153.1026 C   0  0  0  0  0  0  0  0  0  0  0  0
  145.1658  136.1697  151.7795 C   0  0  1  0  0  0  0  0  0  0  0  0
  146.4258  136.8486  152.0750 N   0  0  0  0  0  0  0  0  0  0  0  0
  146.5709  137.9447  152.8334 C   0  0  0  0  0  0  0  0  0  0  0  0
  145.6371  138.5139  153.3977 O   0  0  0  0  0  0  0  0  0  0  0  0
  147.8618  138.3127  152.9025 N   0  0  0  0  0  0  0  0  0  0  0  0
  148.4374  139.4103  153.5988 C   0  0  0  0  0  0  0  0  0  0  0  0
  147.6133  140.5212  153.8731 C   0  0  0  0  0  0  0  0  0  0  0  0
  148.1492  141.6178  154.5747 C   0  0  0  0  0  0  0  0  0  0  0  0
  149.4947  141.5565  154.9853 C   0  0  0  0  0  0  0  0  0  0  0  0
  150.2936  140.4957  154.7450 N   0  0  0  0  0  0  0  0  0  0  0  0
  149.7736  139.4479  154.0698 C   0  0  0  0  0  0  0  0  0  0  0  0
  145.4534  134.8924  150.9668 C   0  0  1  0  0  0  0  0  0  0  0  0
  146.2506  133.8218  151.7154 C   0  0  0  0  0  0  0  0  0  0  0  0
  145.8142  132.5168  151.0653 C   0  0  0  0  0  0  0  0  0  0  0  0
  144.6017  132.9076  150.2178 C   0  0  0  0  0  0  0  0  0  0  0  0
  144.2470  134.2058  150.6690 O   0  0  0  0  0  0  0  0  0  0  0  0
  143.4761  135.4001  152.9304 H   0  0  0  0  0  0  0  0  0  0  0  0
  144.2599  136.7905  153.6626 H   0  0  0  0  0  0  0  0  0  0  0  0
  145.0312  135.2078  153.7360 H   0  0  0  0  0  0  0  0  0  0  0  0
  144.5183  136.8153  151.1837 H   0  0  0  0  0  0  0  0  0  0  0  0
  147.2555  136.4543  151.6566 H   0  0  0  0  0  0  0  0  0  0  0  0
  148.5198  137.7007  152.4429 H   0  0  0  0  0  0  0  0  0  0  0  0
  146.5832  140.5375  153.5479 H   0  0  0  0  0  0  0  0  0  0  0  0
  147.5434  142.4844  154.7939 H   0  0  0  0  0  0  0  0  0  0  0  0
  149.9390  142.3790  155.5261 H   0  0  0  0  0  0  0  0  0  0  0  0
  150.4542  138.6225  153.9317 H   0  0  0  0  0  0  0  0  0  0  0  0
  145.9566  135.1406  150.0298 H   0  0  0  0  0  0  0  0  0  0  0  0
  147.3271  133.9837  151.6544 H   0  0  0  0  0  0  0  0  0  0  0  0
  145.9724  133.8107  152.7701 H   0  0  0  0  0  0  0  0  0  0  0  0
  146.6013  132.0893  150.4433 H   0  0  0  0  0  0  0  0  0  0  0  0
  145.5488  131.7804  151.8247 H   0  0  0  0  0  0  0  0  0  0  0  0
  144.8715  132.9578  149.1619 H   0  0  0  0  0  0  0  0  0  0  0  0
  143.7710  132.2099  150.3245 H   0  0  0  0  0  0  0  0  0  0  0  0
  1  2  1  0  0  0  0
  1 18  1  0  0  0  0
  1 19  1  0  0  0  0
  1 20  1  0  0  0  0
  2  3  1  0  0  0  0
  2 13  1  0  0  0  0
  2 21  1  0  0  0  0
  3  4  1  0  0  0  0
  3 22  1  0  0  0  0
  4  5  2  0  0  0  0
  4  6  1  0  0  0  0
  6  7  1  0  0  0  0
  6 23  1  0  0  0  0
  7 12  1  0  0  0  0
  7  8  2  0  0  0  0
  8  9  1  0  0  0  0
  8 24  1  0  0  0  0
  9 10  2  0  0  0  0
  9 25  1  0  0  0  0
 10 11  1  0  0  0  0
 10 26  1  0  0  0  0
 11 12  2  0  0  0  0
 12 27  1  0  0  0  0
 13 17  1  0  0  0  0
 13 14  1  0  0  0  0
 13 28  1  0  0  0  0
 14 15  1  0  0  0  0
 14 29  1  0  0  0  0
 14 30  1  0  0  0  0
 15 16  1  0  0  0  0
 15 31  1  0  0  0  0
 15 32  1  0  0  0  0
 16 17  1  0  0  0  0
 16 33  1  0  0  0  0
 16 34  1  0  0  0  0
M  END
> <s_m_source_file>
AV-unprocessed.smi

> <i_m_source_file_index>
3217

> <i_lp_mmshare_version>
43012

> <i_f3d_flags>
0

> <s_epik_input>
TzFbQ0gyXVtDSDJdW0NIMl1bQ0BIXTFbQ0BIXShbQ0gzXSlbTkhdQyg9TylbTkhdYzJbY0hdW2NIXVtjSF1uW2NIXTI=

> <s_epik_cmdline>
J2VwaWtfcHl0aG9uJywgJy1waCcsICc3LjAnLCAnLXRuJywgJzgnLCAnLW1hJywgJzIwMCcsICctbWV0YWxfYmluZGluZycsICctaW1hZScsICc8aW5maWxlLm1hZT4nLCAnLW9tYWUnLCAnPG91dGZpbGUubWFlPic=

> <r_epik_Ionization_Penalty>
0.00475451

> <r_epik_Ionization_Penalty_Charging>
0

> <r_epik_Ionization_Penalty_Neutral>
0.00475451

> <r_epik_State_Penalty>
0.00341814

> <r_epik_Charging_Adjusted_Penalty>
0.00341814

> <i_epik_Tot_Q>
0

> <i_epik_Tot_abs_Q>
0

> <r_epik_Metal_State_Penalty>
-0

> <b_epik_Metal_Only>
0

> <s_lp_Force_Field>
OPLS_2005

> <r_lp_Energy>
20.3997

> <b_lp_Chiralities_Consistent>
1

> <s_lp_Variant>
AV-unprocessed.smi:3217-4

> <Gold.Version>
5.8.1

> <Gold.Id.Protein>
6NUR|6NUR_protein|mol2

> <Gold.PLP.Fitness>
38.6457

> <Gold.PLP.PLP>
-28.0604

> <Gold.PLP.part.hbond>
-4.0000

> <Gold.PLP.part.metal>
0.0000

> <Gold.PLP.part.buried>
0.0126

> <Gold.PLP.part.nonpolar>
-27.3299

> <Gold.PLP.part.repulsive>
2.7926

> <Gold.PLP.ligand.clash>
0.0000

> <Gold.PLP.ligand.torsion>
0.1874

> <Gold.PLP.Chemscore.Hbond>
2.7568

> <Gold.PLP.Chemscore.CHOScore>
0.8893

> <Gold.PLP.Chemscore.Metal>
0.0000

> <Gold.Chemscore.Hbonds>
donor molecule, donor type, donor heavy atom, donor atom, acceptor molecule, acceptor atom, score
      L1  H     3    22       P1  7948  0.91
      L1  H     6    23       P1  7948  1.00
      P1  H  7989  7998       L1    11  0.78
      L1  C    10    26       P1  8028  0.78

> <Gold.PLP.Chemscore.Internal.Correction>
0.0219

> <Gold.Rescore>
     Score         DG    S(hbond)    S(metal)    S(lipo)     H(rot)  DE(clash)    DE(int)     intcor
     13.29     -16.19       1.93        0.00      63.26       1.22       0.11       2.79       ----

> <Gold.Chemscore.Fitness>
13.2853

> <Gold.Chemscore.DG>
-16.1895

> <Gold.Chemscore.ZeroCoef>
-5.4800

> <Gold.Chemscore.Hbond>
1.9282

> <Gold.Chemscore.Metal>
0.0000

> <Gold.Chemscore.Lipo>
63.2650

> <Gold.Chemscore.Internal_Hbond>
0.0000

> <Gold.Chemscore.DEClash>
0.1113

> <Gold.Chemscore.DEInternal>
2.7929

> <Gold.Chemscore.Rot>
1.2236

> <Gold.Chemscore.Internal.Correction>
   9.000000E+99

> <Gold.Chemscore.Hbonds>
donor molecule, donor type, donor heavy atom, donor atom, acceptor molecule, acceptor atom, score
      L1  H     3    22       P1  7948  0.90
      L1  H     6    23       P1  7948  0.96
      P1  H  7989  7998       L1    11  0.09

> <Gold.Chemscore.Hbond.Weighted>
-6.4401

> <Gold.Chemscore.Metal.Weighted>
-0.0000

> <Gold.Chemscore.Lipo.Weighted>
-7.4020

> <Gold.Chemscore.Internal_Hbond.Weighted>
0.0000

> <Gold.Chemscore.DEClash.Weighted>
0.1113

> <Gold.Chemscore.DEInternal.Weighted>
2.7929

> <Gold.Chemscore.Rot.Weighted>
3.1325

> <Gold.Chemscore.Internal.Correction.Weighted>
   9.000000E+99

> <Gold.Protein.RotatedTorsions>
[ 6907 6896 6895 6894 ] final   61.15 input  -60.11 | X-H torsion
[ 7974 7965 7964 7962 ] final -112.87 input  175.53 | X-H torsion
[ 8008 7997 7996 7995 ] final   -9.08 input   59.86 | X-H torsion
[ 10167 10162 10161 10158 ] final  178.18 input  -65.29 | X-H torsion
[ 10718 10713 10712 10709 ] final  -94.50 input   66.30 | X-H torsion
[ 10763 10752 10751 10750 ] final   51.17 input  -60.55 | X-H torsion
[ 11005 11000 10999 10996 ] final -131.47 input  -57.11 | X-H torsion

> <Gold.Protein.ActiveResidues>
 VAL166  LYS551  ARG553  GLY616  TRP617  ASP618  TYR619  PRO620  LYS621  CYS622 
 ASP623  PHE694  ASN695  SER759  ASP760  ASP761  ALA762  ILE779  LEU786  VAL792 
 PHE793  MET794  SER795  GLU796  ALA797  LYS798  CYS799  TRP800  GLU811  SER814 

> <Gold.Protein.RotatedAtoms>
  152.4064  134.6199  160.0047 H   0  0  0  0  0  0  0  0  0  0  0  0  # atno 6907 bound_to 6896
  151.6389  133.3321  159.3133 H   0  0  0  0  0  0  0  0  0  0  0  0  # atno 6908 bound_to 6896
  150.7959  134.7059  159.6621 H   0  0  0  0  0  0  0  0  0  0  0  0  # atno 6909 bound_to 6896
  145.1388  140.8766  143.3714 H   0  0  0  0  0  0  0  0  0  0  0  0  # atno 7974 bound_to 7965
  154.5680  140.2364  155.8234 H   0  0  0  0  0  0  0  0  0  0  0  0  # atno 8008 bound_to 7997
  156.2084  140.3033  155.9636 H   0  0  0  0  0  0  0  0  0  0  0  0  # atno 8009 bound_to 7997
  155.2764  140.0420  157.3002 H   0  0  0  0  0  0  0  0  0  0  0  0  # atno 8010 bound_to 7997
  139.5283  144.2710  152.0627 H   0  0  0  0  0  0  0  0  0  0  0  0  # atno 10167 bound_to 10162
  156.0028  130.5070  150.5936 H   0  0  0  0  0  0  0  0  0  0  0  0  # atno 10718 bound_to 10713
  152.9785  135.5854  154.4372 H   0  0  0  0  0  0  0  0  0  0  0  0  # atno 10763 bound_to 10752
  154.3978  135.2768  155.2117 H   0  0  0  0  0  0  0  0  0  0  0  0  # atno 10764 bound_to 10752
  154.3961  135.6114  153.5925 H   0  0  0  0  0  0  0  0  0  0  0  0  # atno 10765 bound_to 10752
  140.9256  134.1387  157.4278 H   0  0  0  0  0  0  0  0  0  0  0  0  # atno 11005 bound_to 11000
  145.0555  139.3147  143.5907 LP  0  0  0  0  0  0  0  0  0  0  0  0  # atno 17320 bound_to 7965
  146.3507  139.9978  142.8679 LP  0  0  0  0  0  0  0  0  0  0  0  0  # atno 17321 bound_to 7965
  140.2170  144.4505  150.6359 LP  0  0  0  0  0  0  0  0  0  0  0  0  # atno 17342 bound_to 10162
  140.6443  143.2210  151.6220 LP  0  0  0  0  0  0  0  0  0  0  0  0  # atno 17343 bound_to 10162
  157.3797  131.0779  151.1488 LP  0  0  0  0  0  0  0  0  0  0  0  0  # atno 17370 bound_to 10713
  157.2214  130.6483  149.5813 LP  0  0  0  0  0  0  0  0  0  0  0  0  # atno 17371 bound_to 10713
  139.8785  134.9987  156.5914 LP  0  0  0  0  0  0  0  0  0  0  0  0  # atno 17394 bound_to 11000
  140.7931  133.8566  155.8662 LP  0  0  0  0  0  0  0  0  0  0  0  0  # atno 17395 bound_to 11000

$$$$
