AV-unprocessed.smi:2450|AV-procd|sdf|9665|dock1
  -GOLD-   2272013303D 1   1.00000     0.00000
 Structure written by MMmdl.
 41 42  0  0  0  0  0  0  0  0  1 V2000
  149.0761  141.5404  154.7225 C   0  0  0  0  0  0  0  0  0  0  0  0
  149.4952  140.0883  154.4495 C   0  0  0  0  0  0  0  0  0  0  0  0
  150.8728  139.7225  155.0328 C   0  0  2  0  0  0  0  0  0  0  0  0
  151.0796  138.2013  155.0889 C   0  0  0  0  0  0  0  0  0  0  0  0
  151.0214  140.2913  156.3705 N   0  0  0  0  0  0  0  0  0  0  0  0
  152.0367  140.0516  157.2124 C   0  0  0  0  0  0  0  0  0  0  0  0
  152.9819  139.3084  156.9485 O   0  0  0  0  0  0  0  0  0  0  0  0
  151.8840  140.7385  158.3569 N   0  0  0  0  0  0  0  0  0  0  0  0
  152.7699  140.8150  159.4689 C   0  0  0  0  0  0  0  0  0  0  0  0
  153.5349  139.6995  159.8899 C   0  0  0  0  0  0  0  0  0  0  0  0
  154.3424  139.8091  161.0350 C   0  0  0  0  0  0  0  0  0  0  0  0
  154.3447  141.0283  161.7323 C   0  0  0  0  0  0  0  0  0  0  0  0
  153.6120  142.0943  161.3537 N   0  0  0  0  0  0  0  0  0  0  0  0
  152.8393  142.0092  160.2426 C   0  0  0  0  0  0  0  0  0  0  0  0
  152.1033  143.1632  159.8878 N   0  0  0  0  0  0  0  0  0  0  0  0
  151.9401  144.2582  160.8380 C   0  0  0  0  0  0  0  0  0  0  0  0
  151.4439  145.4341  160.0023 C   0  0  0  0  0  0  0  0  0  0  0  0
  152.1919  145.2370  158.6875 C   0  0  0  0  0  0  0  0  0  0  0  0
  152.2899  143.7139  158.5484 C   0  0  0  0  0  0  0  0  0  0  0  0
  148.1172  141.7601  154.2532 H   0  0  0  0  0  0  0  0  0  0  0  0
  149.8089  142.2424  154.3236 H   0  0  0  0  0  0  0  0  0  0  0  0
  148.9721  141.7352  155.7901 H   0  0  0  0  0  0  0  0  0  0  0  0
  148.7348  139.4136  154.8449 H   0  0  0  0  0  0  0  0  0  0  0  0
  149.5099  139.9286  153.3707 H   0  0  0  0  0  0  0  0  0  0  0  0
  151.6337  140.1430  154.3724 H   0  0  0  0  0  0  0  0  0  0  0  0
  150.9919  137.7567  154.0974 H   0  0  0  0  0  0  0  0  0  0  0  0
  150.3417  137.7236  155.7345 H   0  0  0  0  0  0  0  0  0  0  0  0
  152.0694  137.9522  155.4729 H   0  0  0  0  0  0  0  0  0  0  0  0
  150.2933  140.9201  156.6762 H   0  0  0  0  0  0  0  0  0  0  0  0
  151.0963  141.3691  158.3924 H   0  0  0  0  0  0  0  0  0  0  0  0
  153.4990  138.7548  159.3697 H   0  0  0  0  0  0  0  0  0  0  0  0
  154.9352  138.9739  161.3770 H   0  0  0  0  0  0  0  0  0  0  0  0
  154.9456  141.1496  162.6212 H   0  0  0  0  0  0  0  0  0  0  0  0
  151.2369  143.9975  161.6295 H   0  0  0  0  0  0  0  0  0  0  0  0
  152.8945  144.5178  161.2978 H   0  0  0  0  0  0  0  0  0  0  0  0
  150.3691  145.3485  159.8367 H   0  0  0  0  0  0  0  0  0  0  0  0
  151.6416  146.4001  160.4673 H   0  0  0  0  0  0  0  0  0  0  0  0
  151.6946  145.7085  157.8396 H   0  0  0  0  0  0  0  0  0  0  0  0
  153.1927  145.6627  158.7696 H   0  0  0  0  0  0  0  0  0  0  0  0
  153.2433  143.4146  158.1102 H   0  0  0  0  0  0  0  0  0  0  0  0
  151.4910  143.3493  157.9022 H   0  0  0  0  0  0  0  0  0  0  0  0
  1  2  1  0  0  0  0
  1 20  1  0  0  0  0
  1 21  1  0  0  0  0
  1 22  1  0  0  0  0
  2  3  1  0  0  0  0
  2 23  1  0  0  0  0
  2 24  1  0  0  0  0
  3  4  1  0  0  0  0
  3  5  1  0  0  0  0
  3 25  1  0  0  0  0
  4 26  1  0  0  0  0
  4 27  1  0  0  0  0
  4 28  1  0  0  0  0
  5  6  1  0  0  0  0
  5 29  1  0  0  0  0
  6  7  2  0  0  0  0
  6  8  1  0  0  0  0
  8  9  1  0  0  0  0
  8 30  1  0  0  0  0
  9 14  1  0  0  0  0
  9 10  2  0  0  0  0
 10 11  1  0  0  0  0
 10 31  1  0  0  0  0
 11 12  2  0  0  0  0
 11 32  1  0  0  0  0
 12 13  1  0  0  0  0
 12 33  1  0  0  0  0
 13 14  2  0  0  0  0
 14 15  1  0  0  0  0
 15 19  1  0  0  0  0
 15 16  1  0  0  0  0
 16 17  1  0  0  0  0
 16 34  1  0  0  0  0
 16 35  1  0  0  0  0
 17 18  1  0  0  0  0
 17 36  1  0  0  0  0
 17 37  1  0  0  0  0
 18 19  1  0  0  0  0
 18 38  1  0  0  0  0
 18 39  1  0  0  0  0
 19 40  1  0  0  0  0
 19 41  1  0  0  0  0
M  END
> <s_m_source_file>
AV-unprocessed.smi

> <i_m_source_file_index>
2450

> <i_lp_mmshare_version>
43012

> <i_f3d_flags>
0

> <s_epik_input>
W0NIM11bQ0gyXVtDQEhdKFtDSDNdKVtOSF1DKD1PKVtOSF1jMVtjSF1bY0hdW2NIXW5jMU4yW0NIMl1bQ0gyXVtDSDJdW0NIMl0y

> <s_epik_cmdline>
J2VwaWtfcHl0aG9uJywgJy1waCcsICc3LjAnLCAnLXRuJywgJzgnLCAnLW1hJywgJzIwMCcsICctbWV0YWxfYmluZGluZycsICctaW1hZScsICc8aW5maWxlLm1hZT4nLCAnLW9tYWUnLCAnPG91dGZpbGUubWFlPic=

> <r_lp_tautomer_probability>
1

> <r_epik_Ionization_Penalty>
0.103391

> <r_epik_Ionization_Penalty_Charging>
0

> <r_epik_Ionization_Penalty_Neutral>
0.103391

> <r_epik_State_Penalty>
0.0927616

> <r_epik_Charging_Adjusted_Penalty>
0.0927616

> <i_epik_Tot_Q>
0

> <i_epik_Tot_abs_Q>
0

> <r_epik_Metal_State_Penalty>
0.0789158

> <b_epik_Metal_Only>
0

> <s_lp_Force_Field>
OPLS_2005

> <r_lp_Energy>
32.2235

> <b_lp_Chiralities_Consistent>
1

> <s_lp_Variant>
AV-unprocessed.smi:2450-1

> <Gold.Version>
5.8.1

> <Gold.Id.Protein>
6NUR|6NUR_protein|mol2

> <Gold.PLP.Fitness>
47.3664

> <Gold.PLP.PLP>
-45.3106

> <Gold.PLP.part.hbond>
-1.0000

> <Gold.PLP.part.metal>
0.0000

> <Gold.PLP.part.buried>
-4.5681

> <Gold.PLP.part.nonpolar>
-39.4137

> <Gold.PLP.part.repulsive>
0.2225

> <Gold.PLP.ligand.clash>
0.0000

> <Gold.PLP.ligand.torsion>
0.6433

> <Gold.PLP.Chemscore.Hbond>
1.0000

> <Gold.PLP.Chemscore.CHOScore>
0.0000

> <Gold.PLP.Chemscore.Metal>
0.0000

> <Gold.Chemscore.Hbonds>
donor molecule, donor type, donor heavy atom, donor atom, acceptor molecule, acceptor atom, score
      P1  H  7997  8010       L1     7  1.00

> <Gold.PLP.Chemscore.Internal.Correction>
0.3425

> <Gold.Rescore>
     Score         DG    S(hbond)    S(metal)    S(lipo)     H(rot)  DE(clash)    DE(int)     intcor
     16.64     -18.32       0.96        0.00     111.21       1.32       0.04       1.65       ----

> <Gold.Chemscore.Fitness>
16.6385

> <Gold.Chemscore.DG>
-18.3240

> <Gold.Chemscore.ZeroCoef>
-5.4800

> <Gold.Chemscore.Hbond>
0.9587

> <Gold.Chemscore.Metal>
0.0000

> <Gold.Chemscore.Lipo>
111.2083

> <Gold.Chemscore.Internal_Hbond>
0.0000

> <Gold.Chemscore.DEClash>
0.0380

> <Gold.Chemscore.DEInternal>
1.6474

> <Gold.Chemscore.Rot>
1.3163

> <Gold.Chemscore.Internal.Correction>
   9.000000E+99

> <Gold.Chemscore.Hbonds>
donor molecule, donor type, donor heavy atom, donor atom, acceptor molecule, acceptor atom, score
      P1  H  7997  8010       L1     7  0.92

> <Gold.Chemscore.Hbond.Weighted>
-3.2022

> <Gold.Chemscore.Metal.Weighted>
-0.0000

> <Gold.Chemscore.Lipo.Weighted>
-13.0114

> <Gold.Chemscore.Internal_Hbond.Weighted>
0.0000

> <Gold.Chemscore.DEClash.Weighted>
0.0380

> <Gold.Chemscore.DEInternal.Weighted>
1.6474

> <Gold.Chemscore.Rot.Weighted>
3.3696

> <Gold.Chemscore.Internal.Correction.Weighted>
   9.000000E+99

> <Gold.Protein.RotatedTorsions>
[ 6907 6896 6895 6894 ] final  -43.56 input  -60.11 | X-H torsion
[ 7974 7965 7964 7962 ] final  -14.34 input  175.53 | X-H torsion
[ 8008 7997 7996 7995 ] final   44.29 input   59.86 | X-H torsion
[ 10167 10162 10161 10158 ] final  146.87 input  -65.29 | X-H torsion
[ 10718 10713 10712 10709 ] final  -60.10 input   66.30 | X-H torsion
[ 10763 10752 10751 10750 ] final  -44.09 input  -60.55 | X-H torsion
[ 11005 11000 10999 10996 ] final   98.33 input  -57.11 | X-H torsion

> <Gold.Protein.ActiveResidues>
 VAL166  LYS551  ARG553  GLY616  TRP617  ASP618  TYR619  PRO620  LYS621  CYS622 
 ASP623  PHE694  ASN695  SER759  ASP760  ASP761  ALA762  ILE779  LEU786  VAL792 
 PHE793  MET794  SER795  GLU796  ALA797  LYS798  CYS799  TRP800  GLU811  SER814 

> <Gold.Protein.RotatedAtoms>
  150.9426  134.8834  159.7621 H   0  0  0  0  0  0  0  0  0  0  0  0  # atno 6907 bound_to 6896
  152.5086  134.3920  159.9397 H   0  0  0  0  0  0  0  0  0  0  0  0  # atno 6908 bound_to 6896
  151.3940  133.3739  159.2759 H   0  0  0  0  0  0  0  0  0  0  0  0  # atno 6909 bound_to 6896
  146.2078  140.3335  142.8401 H   0  0  0  0  0  0  0  0  0  0  0  0  # atno 7974 bound_to 7965
  155.3168  140.3394  155.4242 H   0  0  0  0  0  0  0  0  0  0  0  0  # atno 8008 bound_to 7997
  156.1929  140.1704  156.8095 H   0  0  0  0  0  0  0  0  0  0  0  0  # atno 8009 bound_to 7997
  154.5463  140.0714  156.8578 H   0  0  0  0  0  0  0  0  0  0  0  0  # atno 8010 bound_to 7997
  139.4899  144.5797  151.6895 H   0  0  0  0  0  0  0  0  0  0  0  0  # atno 10167 bound_to 10162
  156.1014  130.4186  150.0808 H   0  0  0  0  0  0  0  0  0  0  0  0  # atno 10718 bound_to 10713
  154.0063  135.6687  153.4762 H   0  0  0  0  0  0  0  0  0  0  0  0  # atno 10763 bound_to 10752
  153.0640  135.5011  154.8155 H   0  0  0  0  0  0  0  0  0  0  0  0  # atno 10764 bound_to 10752
  154.7023  135.3081  154.9287 H   0  0  0  0  0  0  0  0  0  0  0  0  # atno 10765 bound_to 10752
  139.8773  134.9044  156.4439 H   0  0  0  0  0  0  0  0  0  0  0  0  # atno 11005 bound_to 11000
  144.8836  140.7432  143.5971 LP  0  0  0  0  0  0  0  0  0  0  0  0  # atno 17320 bound_to 7965
  145.3256  139.1775  143.4564 LP  0  0  0  0  0  0  0  0  0  0  0  0  # atno 17321 bound_to 7965
  140.5401  144.0593  150.6085 LP  0  0  0  0  0  0  0  0  0  0  0  0  # atno 17342 bound_to 10162
  140.3612  143.2907  152.0382 LP  0  0  0  0  0  0  0  0  0  0  0  0  # atno 17343 bound_to 10162
  156.8794  130.9551  151.3601 LP  0  0  0  0  0  0  0  0  0  0  0  0  # atno 17370 bound_to 10713
  157.6185  130.8636  149.9068 LP  0  0  0  0  0  0  0  0  0  0  0  0  # atno 17371 bound_to 10713
  140.8979  133.7800  155.9647 LP  0  0  0  0  0  0  0  0  0  0  0  0  # atno 17394 bound_to 11000
  140.8682  134.2758  157.5203 LP  0  0  0  0  0  0  0  0  0  0  0  0  # atno 17395 bound_to 11000

$$$$
