AV-unprocessed.smi:3037|AV-procd|sdf|11587|dock4
  -GOLD-   2272016563D 1   1.00000     0.00000
 Structure written by MMmdl.
 47 48  0  0  0  0  0  0  0  0  2 V2000
  151.1959  141.4931  157.9233 C   0  0  0  0  0  0  0  0  0  0  0  0
  150.7029  141.0757  156.5680 C   0  0  0  0  0  0  0  0  0  0  0  0
  151.2489  140.0837  155.7046 C   0  0  0  0  0  0  0  0  0  0  0  0
  150.5728  139.9571  154.5743 N   0  0  0  0  0  0  0  0  0  0  0  0
  149.5759  140.8615  154.6751 N   0  0  0  0  0  0  0  0  0  0  0  0
  148.6163  141.0052  153.5951 C   0  0  0  0  0  0  0  0  0  0  0  0
  147.1897  140.5647  153.9965 C   0  0  1  0  0  0  0  0  0  0  0  0
  146.3625  141.7096  154.6057 C   0  0  0  0  0  0  0  0  0  0  0  0
  146.4614  140.0053  152.8359 N   0  3  0  0  0  0  0  0  0  0  0  0
  146.6913  138.5689  152.5737 C   0  0  0  0  0  0  0  0  0  0  0  0
  145.5983  137.7118  153.2372 C   0  0  0  0  0  0  0  0  0  0  0  0
  145.9493  136.2160  153.3273 C   0  0  0  0  0  0  0  0  0  0  0  0
  146.1901  135.7284  154.4327 O   0  0  0  0  0  0  0  0  0  0  0  0
  145.9783  135.4785  152.1900 N   0  0  0  0  0  0  0  0  0  0  0  0
  146.2172  134.0285  152.1912 C   0  0  0  0  0  0  0  0  0  0  0  0
  144.9147  133.3076  151.7967 C   0  0  0  0  0  0  0  0  0  0  0  0
  144.3957  133.8099  150.4365 C   0  0  0  0  0  0  0  0  0  0  0  0
  144.3241  135.3476  150.3892 C   0  0  0  0  0  0  0  0  0  0  0  0
  145.6558  135.9720  150.8433 C   0  0  0  0  0  0  0  0  0  0  0  0
  149.6287  141.5487  155.8690 C   0  0  0  0  0  0  0  0  0  0  0  0
  152.1464  141.0209  158.1724 H   0  0  0  0  0  0  0  0  0  0  0  0
  150.4885  141.2249  158.7081 H   0  0  0  0  0  0  0  0  0  0  0  0
  151.3483  142.5711  157.9815 H   0  0  0  0  0  0  0  0  0  0  0  0
  152.1122  139.4551  155.8657 H   0  0  0  0  0  0  0  0  0  0  0  0
  148.6107  142.0462  153.2665 H   0  0  0  0  0  0  0  0  0  0  0  0
  148.9819  140.4179  152.7531 H   0  0  0  0  0  0  0  0  0  0  0  0
  147.2635  139.7835  154.7545 H   0  0  0  0  0  0  0  0  0  0  0  0
  146.8049  142.0784  155.5313 H   0  0  0  0  0  0  0  0  0  0  0  0
  145.3514  141.3786  154.8450 H   0  0  0  0  0  0  0  0  0  0  0  0
  146.2827  142.5509  153.9163 H   0  0  0  0  0  0  0  0  0  0  0  0
  145.4738  140.1204  153.0146 H   0  0  0  0  0  0  0  0  0  0  0  0
  146.7032  138.3892  151.4983 H   0  0  0  0  0  0  0  0  0  0  0  0
  147.6725  138.2907  152.9618 H   0  0  0  0  0  0  0  0  0  0  0  0
  145.4179  138.0878  154.2452 H   0  0  0  0  0  0  0  0  0  0  0  0
  144.6688  137.8194  152.6768 H   0  0  0  0  0  0  0  0  0  0  0  0
  147.0078  133.7921  151.4777 H   0  0  0  0  0  0  0  0  0  0  0  0
  146.5675  133.6553  153.1542 H   0  0  0  0  0  0  0  0  0  0  0  0
  145.0781  132.2302  151.7590 H   0  0  0  0  0  0  0  0  0  0  0  0
  144.1573  133.4794  152.5628 H   0  0  0  0  0  0  0  0  0  0  0  0
  145.0654  133.4608  149.6494 H   0  0  0  0  0  0  0  0  0  0  0  0
  143.4174  133.3786  150.2222 H   0  0  0  0  0  0  0  0  0  0  0  0
  144.0789  135.6779  149.3795 H   0  0  0  0  0  0  0  0  0  0  0  0
  143.5175  135.6973  151.0349 H   0  0  0  0  0  0  0  0  0  0  0  0
  145.5983  137.0568  150.7722 H   0  0  0  0  0  0  0  0  0  0  0  0
  146.4532  135.6814  150.1578 H   0  0  0  0  0  0  0  0  0  0  0  0
  148.9057  142.3109  156.1197 H   0  0  0  0  0  0  0  0  0  0  0  0
  146.7010  140.5387  152.0122 H   0  0  0  0  0  0  0  0  0  0  0  0
  1  2  1  0  0  0  0
  1 21  1  0  0  0  0
  1 22  1  0  0  0  0
  1 23  1  0  0  0  0
  2 20  2  0  0  0  0
  2  3  1  0  0  0  0
  3  4  2  0  0  0  0
  3 24  1  0  0  0  0
  4  5  1  0  0  0  0
  5  6  1  0  0  0  0
  5 20  1  0  0  0  0
  6  7  1  0  0  0  0
  6 25  1  0  0  0  0
  6 26  1  0  0  0  0
  7  8  1  0  0  0  0
  7  9  1  0  0  0  0
  7 27  1  0  0  0  0
  8 28  1  0  0  0  0
  8 29  1  0  0  0  0
  8 30  1  0  0  0  0
  9 10  1  0  0  0  0
  9 31  1  0  0  0  0
  9 47  1  0  0  0  0
 10 11  1  0  0  0  0
 10 32  1  0  0  0  0
 10 33  1  0  0  0  0
 11 12  1  0  0  0  0
 11 34  1  0  0  0  0
 11 35  1  0  0  0  0
 12 13  2  0  0  0  0
 12 14  1  0  0  0  0
 14 19  1  0  0  0  0
 14 15  1  0  0  0  0
 15 16  1  0  0  0  0
 15 36  1  0  0  0  0
 15 37  1  0  0  0  0
 16 17  1  0  0  0  0
 16 38  1  0  0  0  0
 16 39  1  0  0  0  0
 17 18  1  0  0  0  0
 17 40  1  0  0  0  0
 17 41  1  0  0  0  0
 18 19  1  0  0  0  0
 18 42  1  0  0  0  0
 18 43  1  0  0  0  0
 19 44  1  0  0  0  0
 19 45  1  0  0  0  0
 20 46  1  0  0  0  0
M  CHG  1   9   1
M  END
> <s_m_source_file>
AV-unprocessed.smi

> <i_m_source_file_index>
3037

> <i_lp_mmshare_version>
43012

> <i_f3d_flags>
0

> <s_epik_input>
W0NIM11jMVtjSF1ubihbY0hdMSlbQ0gyXVtDQEhdKFtDSDNdKVtOSF1bQ0gyXVtDSDJdQyg9TylOMltDSDJdW0NIMl1bQ0gyXVtDSDJdW0NIMl0y

> <s_epik_cmdline>
J2VwaWtfcHl0aG9uJywgJy1waCcsICc3LjAnLCAnLXRuJywgJzgnLCAnLW1hJywgJzIwMCcsICctbWV0YWxfYmluZGluZycsICctaW1hZScsICc8aW5maWxlLm1hZT4nLCAnLW9tYWUnLCAnPG91dGZpbGUubWFlPic=

> <r_lp_tautomer_probability>
1

> <r_epik_Ionization_Penalty>
0.00574983

> <r_epik_Ionization_Penalty_Charging>
0.00574185

> <r_epik_Ionization_Penalty_Neutral>
7.97936e-06

> <r_epik_State_Penalty>
0.00421386

> <r_epik_Charging_Adjusted_Penalty>
0.00995571

> <i_epik_Tot_Q>
1

> <i_epik_Tot_abs_Q>
1

> <r_epik_Metal_State_Penalty>
-0

> <b_epik_Metal_Only>
0

> <s_lp_Force_Field>
OPLS_2005

> <r_lp_Energy>
26.5412

> <b_lp_Chiralities_Consistent>
1

> <s_lp_Variant>
AV-unprocessed.smi:3037-2

> <Gold.Version>
5.8.1

> <Gold.Id.Protein>
6NUR|6NUR_protein|mol2

> <Gold.PLP.Fitness>
46.0761

> <Gold.PLP.PLP>
-36.2108

> <Gold.PLP.part.hbond>
-2.0000

> <Gold.PLP.part.metal>
0.0000

> <Gold.PLP.part.buried>
0.5902

> <Gold.PLP.part.nonpolar>
-34.8453

> <Gold.PLP.part.repulsive>
0.1470

> <Gold.PLP.ligand.clash>
0.0000

> <Gold.PLP.ligand.torsion>
1.1477

> <Gold.PLP.Chemscore.Hbond>
3.0000

> <Gold.PLP.Chemscore.CHOScore>
1.0000

> <Gold.PLP.Chemscore.Metal>
0.0000

> <Gold.Chemscore.Hbonds>
donor molecule, donor type, donor heavy atom, donor atom, acceptor molecule, acceptor atom, score
      L1  H     9    31       P1 10175  2.00
      P1  H  7989  7998       L1     4  0.90
      L1  C    20    46       P1  8028  1.00

> <Gold.PLP.Chemscore.Internal.Correction>
0.1608

> <Gold.Rescore>
     Score         DG    S(hbond)    S(metal)    S(lipo)     H(rot)  DE(clash)    DE(int)     intcor
     14.90     -16.08       1.68        0.00      82.77       1.84       0.13       1.05       ----

> <Gold.Chemscore.Fitness>
14.8954

> <Gold.Chemscore.DG>
-16.0774

> <Gold.Chemscore.ZeroCoef>
-5.4800

> <Gold.Chemscore.Hbond>
1.6826

> <Gold.Chemscore.Metal>
0.0000

> <Gold.Chemscore.Lipo>
82.7679

> <Gold.Chemscore.Internal_Hbond>
0.0000

> <Gold.Chemscore.DEClash>
0.1335

> <Gold.Chemscore.DEInternal>
1.0486

> <Gold.Chemscore.Rot>
1.8383

> <Gold.Chemscore.Internal.Correction>
   9.000000E+99

> <Gold.Chemscore.Hbonds>
donor molecule, donor type, donor heavy atom, donor atom, acceptor molecule, acceptor atom, score
      L1  H     9    31       P1 10175  0.95
      P1  H  7989  7998       L1     4  0.05

> <Gold.Chemscore.Hbond.Weighted>
-5.6197

> <Gold.Chemscore.Metal.Weighted>
-0.0000

> <Gold.Chemscore.Lipo.Weighted>
-9.6838

> <Gold.Chemscore.Internal_Hbond.Weighted>
0.0000

> <Gold.Chemscore.DEClash.Weighted>
0.1335

> <Gold.Chemscore.DEInternal.Weighted>
1.0486

> <Gold.Chemscore.Rot.Weighted>
4.7062

> <Gold.Chemscore.Internal.Correction.Weighted>
   9.000000E+99

> <Gold.Protein.RotatedTorsions>
[ 6907 6896 6895 6894 ] final  -56.01 input  -60.11 | X-H torsion
[ 7974 7965 7964 7962 ] final -154.71 input  175.53 | X-H torsion
[ 8008 7997 7996 7995 ] final   74.48 input   59.86 | X-H torsion
[ 10167 10162 10161 10158 ] final  112.15 input  -65.29 | X-H torsion
[ 10718 10713 10712 10709 ] final  105.56 input   66.30 | X-H torsion
[ 10763 10752 10751 10750 ] final  -12.83 input  -60.55 | X-H torsion
[ 11005 11000 10999 10996 ] final  -50.85 input  -57.11 | X-H torsion

> <Gold.Protein.ActiveResidues>
 VAL166  LYS551  ARG553  GLY616  TRP617  ASP618  TYR619  PRO620  LYS621  CYS622 
 ASP623  PHE694  ASN695  SER759  ASP760  ASP761  ALA762  ILE779  LEU786  VAL792 
 PHE793  MET794  SER795  GLU796  ALA797  LYS798  CYS799  TRP800  GLU811  SER814 

> <Gold.Protein.RotatedAtoms>
  150.8203  134.7407  159.6766 H   0  0  0  0  0  0  0  0  0  0  0  0  # atno 6907 bound_to 6896
  152.4319  134.5758  159.9943 H   0  0  0  0  0  0  0  0  0  0  0  0  # atno 6908 bound_to 6896
  151.5944  133.3325  159.3070 H   0  0  0  0  0  0  0  0  0  0  0  0  # atno 6909 bound_to 6896
  144.7675  140.4350  143.5931 H   0  0  0  0  0  0  0  0  0  0  0  0  # atno 7974 bound_to 7965
  155.7990  140.3477  155.5392 H   0  0  0  0  0  0  0  0  0  0  0  0  # atno 8008 bound_to 7997
  155.8557  140.0963  157.1666 H   0  0  0  0  0  0  0  0  0  0  0  0  # atno 8009 bound_to 7997
  154.4009  140.1368  156.3886 H   0  0  0  0  0  0  0  0  0  0  0  0  # atno 8010 bound_to 7997
  139.6557  144.7129  151.1961 H   0  0  0  0  0  0  0  0  0  0  0  0  # atno 10167 bound_to 10162
  157.6701  131.0830  150.5876 H   0  0  0  0  0  0  0  0  0  0  0  0  # atno 10718 bound_to 10713
  153.5043  135.7017  153.5815 H   0  0  0  0  0  0  0  0  0  0  0  0  # atno 10763 bound_to 10752
  153.3932  135.3890  155.1937 H   0  0  0  0  0  0  0  0  0  0  0  0  # atno 10764 bound_to 10752
  154.8708  135.3863  154.4517 H   0  0  0  0  0  0  0  0  0  0  0  0  # atno 10765 bound_to 10752
  141.0838  133.6647  156.3791 H   0  0  0  0  0  0  0  0  0  0  0  0  # atno 11005 bound_to 11000
  145.6423  139.1552  143.2908 LP  0  0  0  0  0  0  0  0  0  0  0  0  # atno 17320 bound_to 7965
  146.1796  140.6519  142.9195 LP  0  0  0  0  0  0  0  0  0  0  0  0  # atno 17321 bound_to 7965
  140.7558  143.6076  150.8637 LP  0  0  0  0  0  0  0  0  0  0  0  0  # atno 17342 bound_to 10162
  139.9729  143.6037  152.2968 LP  0  0  0  0  0  0  0  0  0  0  0  0  # atno 17343 bound_to 10162
  156.6176  130.4397  149.5834 LP  0  0  0  0  0  0  0  0  0  0  0  0  # atno 17370 bound_to 10713
  156.2381  130.6835  151.1529 LP  0  0  0  0  0  0  0  0  0  0  0  0  # atno 17371 bound_to 10713
  140.5408  134.6122  157.5379 LP  0  0  0  0  0  0  0  0  0  0  0  0  # atno 17394 bound_to 11000
  139.9655  134.7381  156.0148 LP  0  0  0  0  0  0  0  0  0  0  0  0  # atno 17395 bound_to 11000

$$$$
