AV-unprocessed.smi:240|AV-procd|sdf|1836|dock8
  -GOLD-   2262020443D 1   1.00000     0.00000
 Structure written by MMmdl.
 55 59  0  0  0  0  0  0  0  0  1 V2000
  151.3564  136.5157  154.0529 O   0  0  0  0  0  0  0  0  0  0  0  0
  151.4363  137.9251  154.0965 C   0  0  2  0  0  0  0  0  0  0  0  0
  152.8680  138.3792  154.3741 C   0  0  0  0  0  0  0  0  0  0  0  0
  152.7099  139.8131  154.8813 C   0  0  0  0  0  0  0  0  0  0  0  0
  151.3359  139.8707  155.5670 C   0  0  0  0  0  0  0  0  0  0  0  0
  150.6295  138.5343  155.2587 C   0  0  1  0  0  0  0  0  0  0  0  0
  149.0819  138.6464  155.0708 C   0  0  1  0  0  0  0  0  0  0  0  0
  148.6756  139.6043  153.9202 C   0  0  0  0  0  0  0  0  0  0  0  0
  147.2595  139.6897  153.8268 O   0  0  0  0  0  0  0  0  0  0  0  0
  146.6828  138.4328  153.5011 C   0  0  0  0  0  0  0  0  0  0  0  0
  146.9867  137.4393  154.6297 C   0  0  0  0  0  0  0  0  0  0  0  0
  148.4243  137.3453  154.8673 N   0  0  0  0  0  0  0  0  0  0  0  0
  148.6690  136.3680  155.7725 C   0  0  0  0  0  0  0  0  0  0  0  0
  149.2519  135.2017  155.3858 N   0  0  0  0  0  0  0  0  0  0  0  0
  149.4915  134.2438  156.2863 C   0  0  0  0  0  0  0  0  0  0  0  0
  149.2396  134.2481  157.5975 N   0  0  0  0  0  0  0  0  0  0  0  0
  148.6709  135.4249  157.9890 C   0  0  0  0  0  0  0  0  0  0  0  0
  148.3603  136.5296  157.1487 C   0  0  0  0  0  0  0  0  0  0  0  0
  147.7936  137.5539  157.8960 N   0  0  0  0  0  0  0  0  0  0  0  0
  147.7652  137.0789  159.1114 C   0  0  0  0  0  0  0  0  0  0  0  0
  148.2775  135.8092  159.2591 N   0  0  0  0  0  0  0  0  0  0  0  0
  148.3638  135.0411  160.4916 C   0  0  0  0  0  0  0  0  0  0  0  0
  147.0932  135.1196  161.3761 C   0  0  2  0  0  0  0  0  0  0  0  0
  145.9558  134.8418  160.5800 O   0  0  0  0  0  0  0  0  0  0  0  0
  146.9004  136.4632  162.0763 C   0  0  0  0  0  0  0  0  0  0  0  0
  147.6183  136.2457  163.3991 C   0  0  0  0  0  0  0  0  0  0  0  0
  147.2355  134.9252  163.7462 O   0  0  0  0  0  0  0  0  0  0  0  0
  147.1682  134.1358  162.5613 C   0  0  0  0  0  0  0  0  0  0  0  0
  151.2656  136.2470  153.1516 H   0  0  0  0  0  0  0  0  0  0  0  0
  151.1246  138.3315  153.1357 H   0  0  0  0  0  0  0  0  0  0  0  0
  153.3127  137.7656  155.1594 H   0  0  0  0  0  0  0  0  0  0  0  0
  153.5097  138.3118  153.4951 H   0  0  0  0  0  0  0  0  0  0  0  0
  153.5208  140.1016  155.5507 H   0  0  0  0  0  0  0  0  0  0  0  0
  152.7227  140.5022  154.0358 H   0  0  0  0  0  0  0  0  0  0  0  0
  151.4428  139.9997  156.6447 H   0  0  0  0  0  0  0  0  0  0  0  0
  150.7812  140.7351  155.2057 H   0  0  0  0  0  0  0  0  0  0  0  0
  150.8353  137.9167  156.1332 H   0  0  0  0  0  0  0  0  0  0  0  0
  148.6733  139.0653  155.9916 H   0  0  0  0  0  0  0  0  0  0  0  0
  149.0571  140.6098  154.0884 H   0  0  0  0  0  0  0  0  0  0  0  0
  149.0689  139.2748  152.9588 H   0  0  0  0  0  0  0  0  0  0  0  0
  145.6056  138.5543  153.3873 H   0  0  0  0  0  0  0  0  0  0  0  0
  147.0674  138.0723  152.5456 H   0  0  0  0  0  0  0  0  0  0  0  0
  146.4878  137.7597  155.5456 H   0  0  0  0  0  0  0  0  0  0  0  0
  146.5827  136.4596  154.3702 H   0  0  0  0  0  0  0  0  0  0  0  0
  149.9502  133.3450  155.9009 H   0  0  0  0  0  0  0  0  0  0  0  0
  147.3688  137.6467  159.9409 H   0  0  0  0  0  0  0  0  0  0  0  0
  148.5741  134.0032  160.2292 H   0  0  0  0  0  0  0  0  0  0  0  0
  149.2329  135.3917  161.0496 H   0  0  0  0  0  0  0  0  0  0  0  0
  146.1611  134.1183  160.0075 H   0  0  0  0  0  0  0  0  0  0  0  0
  147.2746  137.3239  161.5240 H   0  0  0  0  0  0  0  0  0  0  0  0
  145.8431  136.6429  162.2791 H   0  0  0  0  0  0  0  0  0  0  0  0
  148.7009  136.2971  163.2722 H   0  0  0  0  0  0  0  0  0  0  0  0
  147.3239  136.9647  164.1638 H   0  0  0  0  0  0  0  0  0  0  0  0
  146.2946  133.4853  162.6221 H   0  0  0  0  0  0  0  0  0  0  0  0
  148.0472  133.4928  162.4996 H   0  0  0  0  0  0  0  0  0  0  0  0
  1  2  1  0  0  0  0
  1 29  1  0  0  0  0
  2  6  1  0  0  0  0
  2  3  1  0  0  0  0
  2 30  1  0  0  0  0
  3  4  1  0  0  0  0
  3 31  1  0  0  0  0
  3 32  1  0  0  0  0
  4  5  1  0  0  0  0
  4 33  1  0  0  0  0
  4 34  1  0  0  0  0
  5  6  1  0  0  0  0
  5 35  1  0  0  0  0
  5 36  1  0  0  0  0
  6  7  1  0  0  0  0
  6 37  1  0  0  0  0
  7 12  1  0  0  0  0
  7  8  1  0  0  0  0
  7 38  1  0  0  0  0
  8  9  1  0  0  0  0
  8 39  1  0  0  0  0
  8 40  1  0  0  0  0
  9 10  1  0  0  0  0
 10 11  1  0  0  0  0
 10 41  1  0  0  0  0
 10 42  1  0  0  0  0
 11 12  1  0  0  0  0
 11 43  1  0  0  0  0
 11 44  1  0  0  0  0
 12 13  1  0  0  0  0
 13 18  1  0  0  0  0
 13 14  2  0  0  0  0
 14 15  1  0  0  0  0
 15 16  2  0  0  0  0
 15 45  1  0  0  0  0
 16 17  1  0  0  0  0
 17 21  1  0  0  0  0
 17 18  2  0  0  0  0
 18 19  1  0  0  0  0
 19 20  2  0  0  0  0
 20 21  1  0  0  0  0
 20 46  1  0  0  0  0
 21 22  1  0  0  0  0
 22 23  1  0  0  0  0
 22 47  1  0  0  0  0
 22 48  1  0  0  0  0
 23 28  1  0  0  0  0
 23 24  1  0  0  0  0
 23 25  1  0  0  0  0
 24 49  1  0  0  0  0
 25 26  1  0  0  0  0
 25 50  1  0  0  0  0
 25 51  1  0  0  0  0
 26 27  1  0  0  0  0
 26 52  1  0  0  0  0
 26 53  1  0  0  0  0
 27 28  1  0  0  0  0
 28 54  1  0  0  0  0
 28 55  1  0  0  0  0
M  END
> <s_m_source_file>
AV-unprocessed.smi

> <i_m_source_file_index>
240

> <i_lp_mmshare_version>
43012

> <i_f3d_flags>
0

> <s_epik_input>
W09IXVtDQEBIXTFbQ0gyXVtDSDJdW0NIMl1bQ0BIXTFbQ0BASF0yW0NIMl1PW0NIMl1bQ0gyXU4yYyhuW2NIXW4zKWMoYzM0KW5bY0hdbjRbQ0gyXVtDQEBdNShbT0hdKVtDSDJdW0NIMl1PW0NIMl01

> <s_epik_cmdline>
J2VwaWtfcHl0aG9uJywgJy1waCcsICc3LjAnLCAnLXRuJywgJzgnLCAnLW1hJywgJzIwMCcsICctbWV0YWxfYmluZGluZycsICctaW1hZScsICc8aW5maWxlLm1hZT4nLCAnLW9tYWUnLCAnPG91dGZpbGUubWFlPic=

> <r_lp_tautomer_probability>
1

> <r_epik_Ionization_Penalty>
0.000130618

> <r_epik_Ionization_Penalty_Charging>
0

> <r_epik_Ionization_Penalty_Neutral>
0.000130618

> <r_epik_State_Penalty>
-0

> <r_epik_Charging_Adjusted_Penalty>
0

> <i_epik_Tot_Q>
0

> <i_epik_Tot_abs_Q>
0

> <r_epik_Metal_State_Penalty>
-0

> <b_epik_Metal_Only>
0

> <s_lp_Force_Field>
OPLS_2005

> <r_lp_Energy>
59.7423

> <b_lp_Chiralities_Consistent>
1

> <s_lp_Variant>
AV-unprocessed.smi:240-13

> <Gold.Version>
5.8.1

> <Gold.Id.Protein>
6NUR|6NUR_protein|mol2

> <Gold.PLP.Fitness>
39.5479

> <Gold.PLP.PLP>
-33.5795

> <Gold.PLP.part.hbond>
-4.4471

> <Gold.PLP.part.metal>
0.0000

> <Gold.PLP.part.buried>
0.6833

> <Gold.PLP.part.nonpolar>
-29.9898

> <Gold.PLP.part.repulsive>
0.4472

> <Gold.PLP.ligand.clash>
0.0000

> <Gold.PLP.ligand.torsion>
0.4383

> <Gold.PLP.Chemscore.Hbond>
2.2237

> <Gold.PLP.Chemscore.CHOScore>
0.0000

> <Gold.PLP.Chemscore.Metal>
0.0000

> <Gold.Chemscore.Hbonds>
donor molecule, donor type, donor heavy atom, donor atom, acceptor molecule, acceptor atom, score
      L1  H     1    29       P1  7949  1.00
      P1  H  6888  6897       L1    27  0.02
      P1  H  6896  6908       L1    16  0.36
      P1  H 10752 10764       L1     1  0.95

> <Gold.PLP.Chemscore.Internal.Correction>
0.1736

> <Gold.Rescore>
     Score         DG    S(hbond)    S(metal)    S(lipo)     H(rot)  DE(clash)    DE(int)     intcor
      9.97     -16.44       2.04        0.00     101.02       3.00       4.93       1.55       ----

> <Gold.Chemscore.Fitness>
9.9655

> <Gold.Chemscore.DG>
-16.4391

> <Gold.Chemscore.ZeroCoef>
-5.4800

> <Gold.Chemscore.Hbond>
2.0447

> <Gold.Chemscore.Metal>
0.0000

> <Gold.Chemscore.Lipo>
101.0222

> <Gold.Chemscore.Internal_Hbond>
0.0000

> <Gold.Chemscore.DEClash>
4.9257

> <Gold.Chemscore.DEInternal>
1.5479

> <Gold.Chemscore.Rot>
3.0039

> <Gold.Chemscore.Internal.Correction>
   9.000000E+99

> <Gold.Chemscore.Hbonds>
donor molecule, donor type, donor heavy atom, donor atom, acceptor molecule, acceptor atom, score
      L1  H     1    29       P1  7949  0.60
      P1  H  6888  6897       L1    27  0.01
      P1  H  6896  6908       L1    16  0.13
      P1  H 10752 10764       L1     1  0.20

> <Gold.Chemscore.Hbond.Weighted>
-6.8294

> <Gold.Chemscore.Metal.Weighted>
-0.0000

> <Gold.Chemscore.Lipo.Weighted>
-11.8196

> <Gold.Chemscore.Internal_Hbond.Weighted>
0.0000

> <Gold.Chemscore.DEClash.Weighted>
4.9257

> <Gold.Chemscore.DEInternal.Weighted>
1.5479

> <Gold.Chemscore.Rot.Weighted>
7.6899

> <Gold.Chemscore.Internal.Correction.Weighted>
   9.000000E+99

> <Gold.Protein.RotatedTorsions>
[ 6907 6896 6895 6894 ] final  125.08 input  -60.11 | X-H torsion
[ 7974 7965 7964 7962 ] final   97.42 input  175.53 | X-H torsion
[ 8008 7997 7996 7995 ] final  114.38 input   59.86 | X-H torsion
[ 10167 10162 10161 10158 ] final  -25.55 input  -65.29 | X-H torsion
[ 10718 10713 10712 10709 ] final   -5.54 input   66.30 | X-H torsion
[ 10763 10752 10751 10750 ] final  -64.68 input  -60.55 | X-H torsion
[ 11005 11000 10999 10996 ] final -156.71 input  -57.11 | X-H torsion

> <Gold.Protein.ActiveResidues>
 VAL166  LYS551  ARG553  GLY616  TRP617  ASP618  TYR619  PRO620  LYS621  CYS622 
 ASP623  PHE694  ASN695  SER759  ASP760  ASP761  ALA762  ILE779  LEU786  VAL792 
 PHE793  MET794  SER795  GLU796  ALA797  LYS798  CYS799  TRP800  GLU811  SER814 

> <Gold.Protein.RotatedAtoms>
  152.4023  133.6837  159.6326 H   0  0  0  0  0  0  0  0  0  0  0  0  # atno 6907 bound_to 6896
  150.7913  133.8769  159.3283 H   0  0  0  0  0  0  0  0  0  0  0  0  # atno 6908 bound_to 6896
  151.6532  135.1000  160.0216 H   0  0  0  0  0  0  0  0  0  0  0  0  # atno 6909 bound_to 6896
  145.4257  139.2316  143.3171 H   0  0  0  0  0  0  0  0  0  0  0  0  # atno 7974 bound_to 7965
  156.2317  140.2960  156.0207 H   0  0  0  0  0  0  0  0  0  0  0  0  # atno 8008 bound_to 7997
  155.2205  140.0415  157.2965 H   0  0  0  0  0  0  0  0  0  0  0  0  # atno 8009 bound_to 7997
  154.6008  140.2426  155.7803 H   0  0  0  0  0  0  0  0  0  0  0  0  # atno 8010 bound_to 7997
  140.7286  143.4255  151.0884 H   0  0  0  0  0  0  0  0  0  0  0  0  # atno 10167 bound_to 10162
  156.7451  130.5222  149.5816 H   0  0  0  0  0  0  0  0  0  0  0  0  # atno 10718 bound_to 10713
  154.3337  135.6171  153.5563 H   0  0  0  0  0  0  0  0  0  0  0  0  # atno 10763 bound_to 10752
  152.9809  135.5753  154.4933 H   0  0  0  0  0  0  0  0  0  0  0  0  # atno 10764 bound_to 10752
  154.4624  135.2856  155.1680 H   0  0  0  0  0  0  0  0  0  0  0  0  # atno 10765 bound_to 10752
  140.6726  134.4231  157.5231 H   0  0  0  0  0  0  0  0  0  0  0  0  # atno 11005 bound_to 11000
  146.2633  140.4988  142.8844 LP  0  0  0  0  0  0  0  0  0  0  0  0  # atno 17320 bound_to 7965
  144.8215  140.6558  143.6349 LP  0  0  0  0  0  0  0  0  0  0  0  0  # atno 17321 bound_to 7965
  139.7906  143.8225  152.3151 LP  0  0  0  0  0  0  0  0  0  0  0  0  # atno 17342 bound_to 10162
  139.8207  144.7297  150.9576 LP  0  0  0  0  0  0  0  0  0  0  0  0  # atno 17343 bound_to 10162
  156.1439  130.6263  151.0504 LP  0  0  0  0  0  0  0  0  0  0  0  0  # atno 17370 bound_to 10713
  157.6802  131.0840  150.7391 LP  0  0  0  0  0  0  0  0  0  0  0  0  # atno 17371 bound_to 10713
  139.8977  134.8631  156.2034 LP  0  0  0  0  0  0  0  0  0  0  0  0  # atno 17394 bound_to 11000
  141.0380  133.6953  156.1547 LP  0  0  0  0  0  0  0  0  0  0  0  0  # atno 17395 bound_to 11000

$$$$
