AV-unprocessed.smi:3039|AV-procd|sdf|11592|dock7
  -GOLD-   2272016563D 1   1.00000     0.00000
 Structure written by MMmdl.
 38 39  0  0  0  0  0  0  0  0  1 V2000
  151.0462  141.2347  157.6915 O   0  0  0  0  0  0  0  0  0  0  0  0
  150.4526  142.3032  157.5487 C   0  0  0  0  0  0  0  0  0  0  0  0
  151.1706  143.6235  157.8312 C   0  0  0  0  0  0  0  0  0  0  0  0
  151.6825  143.6447  159.2472 C   0  0  0  0  0  0  0  0  0  0  0  0
  152.5481  142.7143  159.8870 C   0  0  0  0  0  0  0  0  0  0  0  0
  152.6833  143.2190  161.1482 C   0  0  0  0  0  0  0  0  0  0  0  0
  151.9640  144.3619  161.2829 O   0  0  0  0  0  0  0  0  0  0  0  0
  151.3257  144.6242  160.0655 N   0  0  0  0  0  0  0  0  0  0  0  0
  149.1750  142.3959  157.1480 N   0  0  0  0  0  0  0  0  0  0  0  0
  148.3055  141.2789  156.7759 C   0  0  1  0  0  0  0  0  0  0  0  0
  146.8175  141.6127  157.0395 C   0  0  0  0  0  0  0  0  0  0  0  0
  146.3144  142.9158  156.3865 C   0  0  0  0  0  0  0  0  0  0  0  0
  145.8566  142.7945  154.9229 C   0  0  0  0  0  0  0  0  0  0  0  0
  146.6389  141.8147  154.0319 C   0  0  0  0  0  0  0  0  0  0  0  0
  148.1631  141.7926  154.2399 C   0  0  0  0  0  0  0  0  0  0  0  0
  148.6148  140.7963  155.3362 C   0  0  1  0  0  0  0  0  0  0  0  0
  150.1110  140.4342  155.1849 C   0  0  0  0  0  0  0  0  0  0  0  0
  150.3738  139.8748  153.9144 O   0  0  0  0  0  0  0  0  0  0  0  0
  151.9863  143.7494  157.1177 H   0  0  0  0  0  0  0  0  0  0  0  0
  150.4825  144.4532  157.6649 H   0  0  0  0  0  0  0  0  0  0  0  0
  152.9999  141.8205  159.4827 H   0  0  0  0  0  0  0  0  0  0  0  0
  153.2297  142.8963  162.0219 H   0  0  0  0  0  0  0  0  0  0  0  0
  148.7765  143.3204  157.0674 H   0  0  0  0  0  0  0  0  0  0  0  0
  148.5497  140.4376  157.4276 H   0  0  0  0  0  0  0  0  0  0  0  0
  146.1813  140.7747  156.7525 H   0  0  0  0  0  0  0  0  0  0  0  0
  146.6899  141.7134  158.1182 H   0  0  0  0  0  0  0  0  0  0  0  0
  145.4698  143.2910  156.9654 H   0  0  0  0  0  0  0  0  0  0  0  0
  147.0692  143.6978  156.4638 H   0  0  0  0  0  0  0  0  0  0  0  0
  144.8064  142.5012  154.9022 H   0  0  0  0  0  0  0  0  0  0  0  0
  145.8886  143.7882  154.4745 H   0  0  0  0  0  0  0  0  0  0  0  0
  146.2383  140.8080  154.1566 H   0  0  0  0  0  0  0  0  0  0  0  0
  146.4296  142.0744  152.9936 H   0  0  0  0  0  0  0  0  0  0  0  0
  148.6044  141.4860  153.2913 H   0  0  0  0  0  0  0  0  0  0  0  0
  148.5484  142.7954  154.4272 H   0  0  0  0  0  0  0  0  0  0  0  0
  148.0595  139.8677  155.1936 H   0  0  0  0  0  0  0  0  0  0  0  0
  150.7458  141.3099  155.3278 H   0  0  0  0  0  0  0  0  0  0  0  0
  150.4043  139.7005  155.9365 H   0  0  0  0  0  0  0  0  0  0  0  0
  149.7287  140.1987  153.3043 H   0  0  0  0  0  0  0  0  0  0  0  0
  1  2  2  0  0  0  0
  2  3  1  0  0  0  0
  2  9  1  0  0  0  0
  3  4  1  0  0  0  0
  3 19  1  0  0  0  0
  3 20  1  0  0  0  0
  4  8  2  0  0  0  0
  4  5  1  0  0  0  0
  5  6  2  0  0  0  0
  5 21  1  0  0  0  0
  6  7  1  0  0  0  0
  6 22  1  0  0  0  0
  7  8  1  0  0  0  0
  9 10  1  0  0  0  0
  9 23  1  0  0  0  0
 10 16  1  0  0  0  0
 10 11  1  0  0  0  0
 10 24  1  0  0  0  0
 11 12  1  0  0  0  0
 11 25  1  0  0  0  0
 11 26  1  0  0  0  0
 12 13  1  0  0  0  0
 12 27  1  0  0  0  0
 12 28  1  0  0  0  0
 13 14  1  0  0  0  0
 13 29  1  0  0  0  0
 13 30  1  0  0  0  0
 14 15  1  0  0  0  0
 14 31  1  0  0  0  0
 14 32  1  0  0  0  0
 15 16  1  0  0  0  0
 15 33  1  0  0  0  0
 15 34  1  0  0  0  0
 16 17  1  0  0  0  0
 16 35  1  0  0  0  0
 17 18  1  0  0  0  0
 17 36  1  0  0  0  0
 17 37  1  0  0  0  0
 18 38  1  0  0  0  0
M  END
> <s_m_source_file>
AV-unprocessed.smi

> <i_m_source_file_index>
3039

> <i_lp_mmshare_version>
43012

> <i_f3d_flags>
0

> <s_epik_input>
bjFvW2NIXVtjSF1jMVtDSDJdQyg9TylbTkhdW0NAQEhdMltDSDJdW0NIMl1bQ0gyXVtDSDJdW0NIMl1bQ0BIXTJbQ0gyXVtPSF0=

> <s_epik_cmdline>
J2VwaWtfcHl0aG9uJywgJy1waCcsICc3LjAnLCAnLXRuJywgJzgnLCAnLW1hJywgJzIwMCcsICctbWV0YWxfYmluZGluZycsICctaW1hZScsICc8aW5maWxlLm1hZT4nLCAnLW9tYWUnLCAnPG91dGZpbGUubWFlPic=

> <r_lp_tautomer_probability>
1

> <r_epik_Ionization_Penalty>
3.05817e-07

> <r_epik_Ionization_Penalty_Charging>
0

> <r_epik_Ionization_Penalty_Neutral>
3.05817e-07

> <r_epik_State_Penalty>
-0

> <r_epik_Charging_Adjusted_Penalty>
0

> <i_epik_Tot_Q>
0

> <i_epik_Tot_abs_Q>
0

> <r_epik_Metal_State_Penalty>
-0

> <b_epik_Metal_Only>
0

> <s_lp_Force_Field>
OPLS_2005

> <r_lp_Energy>
19.8887

> <b_lp_Chiralities_Consistent>
1

> <s_lp_Variant>
AV-unprocessed.smi:3039-2

> <Gold.Version>
5.8.1

> <Gold.Id.Protein>
6NUR|6NUR_protein|mol2

> <Gold.PLP.Fitness>
40.3686

> <Gold.PLP.PLP>
-35.0640

> <Gold.PLP.part.hbond>
-3.0000

> <Gold.PLP.part.metal>
0.0000

> <Gold.PLP.part.buried>
-3.9227

> <Gold.PLP.part.nonpolar>
-28.0338

> <Gold.PLP.part.repulsive>
0.2832

> <Gold.PLP.ligand.clash>
0.0000

> <Gold.PLP.ligand.torsion>
0.3466

> <Gold.PLP.Chemscore.Hbond>
1.9805

> <Gold.PLP.Chemscore.CHOScore>
0.0000

> <Gold.PLP.Chemscore.Metal>
0.0000

> <Gold.Chemscore.Hbonds>
donor molecule, donor type, donor heavy atom, donor atom, acceptor molecule, acceptor atom, score
      L1  H     9    23       P1  8028  0.67
      L1  H    18    38       P1  7957  0.42
      P1  H  7989  7998       L1    18  0.81

> <Gold.PLP.Chemscore.Internal.Correction>
0.0564

> <Gold.Rescore>
     Score         DG    S(hbond)    S(metal)    S(lipo)     H(rot)  DE(clash)    DE(int)     intcor
     13.10     -15.14       1.63        0.00      85.39       2.26       0.72       1.32       ----

> <Gold.Chemscore.Fitness>
13.0983

> <Gold.Chemscore.DG>
-15.1367

> <Gold.Chemscore.ZeroCoef>
-5.4800

> <Gold.Chemscore.Hbond>
1.6334

> <Gold.Chemscore.Metal>
0.0000

> <Gold.Chemscore.Lipo>
85.3907

> <Gold.Chemscore.Internal_Hbond>
0.0000

> <Gold.Chemscore.DEClash>
0.7218

> <Gold.Chemscore.DEInternal>
1.3167

> <Gold.Chemscore.Rot>
2.2616

> <Gold.Chemscore.Internal.Correction>
   9.000000E+99

> <Gold.Chemscore.Hbonds>
donor molecule, donor type, donor heavy atom, donor atom, acceptor molecule, acceptor atom, score
      L1  H     9    23       P1  8028  0.33
      L1  H    18    38       P1  7957  0.43
      P1  H  7989  7998       L1    18  0.03

> <Gold.Chemscore.Hbond.Weighted>
-5.4557

> <Gold.Chemscore.Metal.Weighted>
-0.0000

> <Gold.Chemscore.Lipo.Weighted>
-9.9907

> <Gold.Chemscore.Internal_Hbond.Weighted>
0.0000

> <Gold.Chemscore.DEClash.Weighted>
0.7218

> <Gold.Chemscore.DEInternal.Weighted>
1.3167

> <Gold.Chemscore.Rot.Weighted>
5.7896

> <Gold.Chemscore.Internal.Correction.Weighted>
   9.000000E+99

> <Gold.Protein.RotatedTorsions>
[ 6907 6896 6895 6894 ] final  135.48 input  -60.11 | X-H torsion
[ 7974 7965 7964 7962 ] final  -17.90 input  175.53 | X-H torsion
[ 8008 7997 7996 7995 ] final   68.61 input   59.86 | X-H torsion
[ 10167 10162 10161 10158 ] final  -45.11 input  -65.29 | X-H torsion
[ 10718 10713 10712 10709 ] final  109.66 input   66.30 | X-H torsion
[ 10763 10752 10751 10750 ] final  -57.53 input  -60.55 | X-H torsion
[ 11005 11000 10999 10996 ] final -110.69 input  -57.11 | X-H torsion

> <Gold.Protein.ActiveResidues>
 VAL166  LYS551  ARG553  GLY616  TRP617  ASP618  TYR619  PRO620  LYS621  CYS622 
 ASP623  PHE694  ASN695  SER759  ASP760  ASP761  ALA762  ILE779  LEU786  VAL792 
 PHE793  MET794  SER795  GLU796  ALA797  LYS798  CYS799  TRP800  GLU811  SER814 

> <Gold.Protein.RotatedAtoms>
  152.2999  133.5645  159.5611 H   0  0  0  0  0  0  0  0  0  0  0  0  # atno 6907 bound_to 6896
  150.7273  134.0306  159.3741 H   0  0  0  0  0  0  0  0  0  0  0  0  # atno 6908 bound_to 6896
  151.8206  135.0653  160.0475 H   0  0  0  0  0  0  0  0  0  0  0  0  # atno 6909 bound_to 6896
  146.1918  140.3845  142.8455 H   0  0  0  0  0  0  0  0  0  0  0  0  # atno 7974 bound_to 7965
  155.7109  140.3494  155.4973 H   0  0  0  0  0  0  0  0  0  0  0  0  # atno 8008 bound_to 7997
  155.9356  140.1092  157.1119 H   0  0  0  0  0  0  0  0  0  0  0  0  # atno 8009 bound_to 7997
  154.4093  140.1222  156.4847 H   0  0  0  0  0  0  0  0  0  0  0  0  # atno 8010 bound_to 7997
  140.6871  143.2896  151.3592 H   0  0  0  0  0  0  0  0  0  0  0  0  # atno 10167 bound_to 10162
  157.6531  131.0918  150.6486 H   0  0  0  0  0  0  0  0  0  0  0  0  # atno 10718 bound_to 10713
  154.2238  135.6373  153.5153 H   0  0  0  0  0  0  0  0  0  0  0  0  # atno 10763 bound_to 10752
  152.9963  135.5503  154.6086 H   0  0  0  0  0  0  0  0  0  0  0  0  # atno 10764 bound_to 10752
  154.5552  135.2904  155.0945 H   0  0  0  0  0  0  0  0  0  0  0  0  # atno 10765 bound_to 10752
  141.0777  133.9273  157.2354 H   0  0  0  0  0  0  0  0  0  0  0  0  # atno 11005 bound_to 11000
  144.8502  140.6990  143.6173 LP  0  0  0  0  0  0  0  0  0  0  0  0  # atno 17320 bound_to 7965
  145.3767  139.1646  143.4302 LP  0  0  0  0  0  0  0  0  0  0  0  0  # atno 17321 bound_to 7965
  139.6238  144.0854  152.2416 LP  0  0  0  0  0  0  0  0  0  0  0  0  # atno 17342 bound_to 10162
  140.0307  144.6083  150.7490 LP  0  0  0  0  0  0  0  0  0  0  0  0  # atno 17343 bound_to 10162
  156.6795  130.4563  149.5632 LP  0  0  0  0  0  0  0  0  0  0  0  0  # atno 17370 bound_to 10713
  156.1939  130.6577  151.1092 LP  0  0  0  0  0  0  0  0  0  0  0  0  # atno 17371 bound_to 10713
  139.9590  135.0159  156.9208 LP  0  0  0  0  0  0  0  0  0  0  0  0  # atno 17394 bound_to 11000
  140.5536  134.0603  155.7377 LP  0  0  0  0  0  0  0  0  0  0  0  0  # atno 17395 bound_to 11000

$$$$
