AV-unprocessed.smi:408|AV-procd|sdf|2503|dock10
  -GOLD-   2262022453D 1   1.00000     0.00000
 Structure written by MMmdl.
 41 42  0  0  0  0  0  0  0  0  1 V2000
  152.7608  143.5023  160.0179 C   0  0  0  0  0  0  0  0  0  0  0  0
  152.6940  143.3099  158.4935 C   0  0  0  0  0  0  0  0  0  0  0  0
  153.1821  144.5759  157.7728 C   0  0  0  0  0  0  0  0  0  0  0  0
  151.2836  142.9174  158.0081 C   0  0  0  0  0  0  0  0  0  0  0  0
  151.2750  142.0202  156.7559 C   0  0  0  0  0  0  0  0  0  0  0  0
  150.0807  142.2419  155.9487 N   0  0  0  0  0  0  0  0  0  0  0  0
  149.4986  141.3226  155.1627 C   0  0  0  0  0  0  0  0  0  0  0  0
  149.9218  140.1712  155.0478 O   0  0  0  0  0  0  0  0  0  0  0  0
  148.2637  141.7843  154.3799 C   0  0  0  0  0  0  0  0  0  0  0  0
  147.2116  142.3421  155.2962 C   0  0  0  0  0  0  0  0  0  0  0  0
  145.8697  142.0472  155.2919 C   0  0  0  0  0  0  0  0  0  0  0  0
  145.0046  142.9197  156.5288 S   0  0  0  0  0  0  0  0  0  0  0  0
  146.5172  143.6785  157.0008 C   0  0  0  0  0  0  0  0  0  0  0  0
  146.5835  144.6148  158.0685 N   0  0  0  0  0  0  0  0  0  0  0  0
  146.2836  144.4759  159.3767 C   0  0  0  0  0  0  0  0  0  0  0  0
  145.8940  143.3917  159.8073 O   0  0  0  0  0  0  0  0  0  0  0  0
  146.4520  145.6512  160.2866 C   0  0  0  0  0  0  0  0  0  0  0  0
  147.4939  145.5406  161.3839 C   0  0  0  0  0  0  0  0  0  0  0  0
  146.0303  145.4843  161.7327 C   0  0  0  0  0  0  0  0  0  0  0  0
  147.5691  143.2560  156.2923 N   0  0  0  0  0  0  0  0  0  0  0  0
  152.0558  144.2637  160.3526 H   0  0  0  0  0  0  0  0  0  0  0  0
  153.7580  143.8147  160.3293 H   0  0  0  0  0  0  0  0  0  0  0  0
  152.5347  142.5790  160.5505 H   0  0  0  0  0  0  0  0  0  0  0  0
  153.3792  142.5036  158.2278 H   0  0  0  0  0  0  0  0  0  0  0  0
  152.5355  145.4278  157.9862 H   0  0  0  0  0  0  0  0  0  0  0  0
  153.1982  144.4329  156.6920 H   0  0  0  0  0  0  0  0  0  0  0  0
  154.1938  144.8406  158.0820 H   0  0  0  0  0  0  0  0  0  0  0  0
  150.7400  142.4257  158.8162 H   0  0  0  0  0  0  0  0  0  0  0  0
  150.7279  143.8293  157.7850 H   0  0  0  0  0  0  0  0  0  0  0  0
  152.1700  142.1899  156.1549 H   0  0  0  0  0  0  0  0  0  0  0  0
  151.2857  140.9686  157.0404 H   0  0  0  0  0  0  0  0  0  0  0  0
  149.6722  143.1648  155.9837 H   0  0  0  0  0  0  0  0  0  0  0  0
  148.5535  142.5327  153.6406 H   0  0  0  0  0  0  0  0  0  0  0  0
  147.8736  140.9339  153.8196 H   0  0  0  0  0  0  0  0  0  0  0  0
  145.3395  141.3724  154.6366 H   0  0  0  0  0  0  0  0  0  0  0  0
  146.9505  145.5197  157.8119 H   0  0  0  0  0  0  0  0  0  0  0  0
  146.3649  146.6332  159.8254 H   0  0  0  0  0  0  0  0  0  0  0  0
  148.0617  144.6166  161.4784 H   0  0  0  0  0  0  0  0  0  0  0  0
  148.0430  146.4454  161.6364 H   0  0  0  0  0  0  0  0  0  0  0  0
  145.5803  146.3494  162.2154 H   0  0  0  0  0  0  0  0  0  0  0  0
  145.6243  144.5221  162.0406 H   0  0  0  0  0  0  0  0  0  0  0  0
  1  2  1  0  0  0  0
  1 21  1  0  0  0  0
  1 22  1  0  0  0  0
  1 23  1  0  0  0  0
  2  3  1  0  0  0  0
  2  4  1  0  0  0  0
  2 24  1  0  0  0  0
  3 25  1  0  0  0  0
  3 26  1  0  0  0  0
  3 27  1  0  0  0  0
  4  5  1  0  0  0  0
  4 28  1  0  0  0  0
  4 29  1  0  0  0  0
  5  6  1  0  0  0  0
  5 30  1  0  0  0  0
  5 31  1  0  0  0  0
  6  7  1  0  0  0  0
  6 32  1  0  0  0  0
  7  8  2  0  0  0  0
  7  9  1  0  0  0  0
  9 10  1  0  0  0  0
  9 33  1  0  0  0  0
  9 34  1  0  0  0  0
 10 20  1  0  0  0  0
 10 11  2  0  0  0  0
 11 12  1  0  0  0  0
 11 35  1  0  0  0  0
 12 13  1  0  0  0  0
 13 14  1  0  0  0  0
 13 20  2  0  0  0  0
 14 15  1  0  0  0  0
 14 36  1  0  0  0  0
 15 16  2  0  0  0  0
 15 17  1  0  0  0  0
 17 19  1  0  0  0  0
 17 18  1  0  0  0  0
 17 37  1  0  0  0  0
 18 19  1  0  0  0  0
 18 38  1  0  0  0  0
 18 39  1  0  0  0  0
 19 40  1  0  0  0  0
 19 41  1  0  0  0  0
M  END
> <s_m_source_file>
AV-unprocessed.smi

> <i_m_source_file_index>
408

> <i_lp_mmshare_version>
43012

> <i_f3d_flags>
0

> <s_epik_input>
W0NIM11bQ0hdKFtDSDNdKVtDSDJdW0NIMl1bTkhdQyg9TylbQ0gyXWMxW2NIXXNjKG4xKVtOSF1DKD1PKVtDSF0yW0NIMl1bQ0gyXTI=

> <s_epik_cmdline>
J2VwaWtfcHl0aG9uJywgJy1waCcsICc3LjAnLCAnLXRuJywgJzgnLCAnLW1hJywgJzIwMCcsICctbWV0YWxfYmluZGluZycsICctaW1hZScsICc8aW5maWxlLm1hZT4nLCAnLW9tYWUnLCAnPG91dGZpbGUubWFlPic=

> <r_lp_tautomer_probability>
1

> <r_epik_Ionization_Penalty>
0.000153743

> <r_epik_Ionization_Penalty_Charging>
0

> <r_epik_Ionization_Penalty_Neutral>
0.000153743

> <r_epik_State_Penalty>
-0

> <r_epik_Charging_Adjusted_Penalty>
0

> <i_epik_Tot_Q>
0

> <i_epik_Tot_abs_Q>
0

> <r_epik_Metal_State_Penalty>
0.0946566

> <b_epik_Metal_Only>
0

> <s_lp_Force_Field>
OPLS_2005

> <r_lp_Energy>
15.0159

> <b_lp_Chiralities_Consistent>
1

> <s_lp_Variant>
AV-unprocessed.smi:408-1

> <Gold.Version>
5.8.1

> <Gold.Id.Protein>
6NUR|6NUR_protein|mol2

> <Gold.PLP.Fitness>
49.9815

> <Gold.PLP.PLP>
-39.5285

> <Gold.PLP.part.hbond>
-3.8749

> <Gold.PLP.part.metal>
0.0000

> <Gold.PLP.part.buried>
-4.8087

> <Gold.PLP.part.nonpolar>
-33.4520

> <Gold.PLP.part.repulsive>
3.6314

> <Gold.PLP.ligand.clash>
0.0000

> <Gold.PLP.ligand.torsion>
1.5165

> <Gold.PLP.Chemscore.Hbond>
3.4597

> <Gold.PLP.Chemscore.CHOScore>
1.0000

> <Gold.PLP.Chemscore.Metal>
0.0000

> <Gold.Chemscore.Hbonds>
donor molecule, donor type, donor heavy atom, donor atom, acceptor molecule, acceptor atom, score
      L1  H     6    32       P1  8028  1.00
      P1  H  7989  7998       L1     8  0.04
      L1  C    11    35       P1 10175  0.20

> <Gold.PLP.Chemscore.Internal.Correction>
0.1070

> <Gold.Rescore>
     Score         DG    S(hbond)    S(metal)    S(lipo)     H(rot)  DE(clash)    DE(int)     intcor
     15.39     -20.07       2.66        0.00      92.33       1.99       1.59       3.09       ----

> <Gold.Chemscore.Fitness>
15.3894

> <Gold.Chemscore.DG>
-20.0715

> <Gold.Chemscore.ZeroCoef>
-5.4800

> <Gold.Chemscore.Hbond>
2.6595

> <Gold.Chemscore.Metal>
0.0000

> <Gold.Chemscore.Lipo>
92.3317

> <Gold.Chemscore.Internal_Hbond>
0.0000

> <Gold.Chemscore.DEClash>
1.5891

> <Gold.Chemscore.DEInternal>
3.0930

> <Gold.Chemscore.Rot>
1.9899

> <Gold.Chemscore.Internal.Correction>
   9.000000E+99

> <Gold.Chemscore.Hbonds>
donor molecule, donor type, donor heavy atom, donor atom, acceptor molecule, acceptor atom, score
      L1  H     6    32       P1  8028  1.00
      L1  H    14    36       P1  8029  0.04

> <Gold.Chemscore.Hbond.Weighted>
-8.8828

> <Gold.Chemscore.Metal.Weighted>
-0.0000

> <Gold.Chemscore.Lipo.Weighted>
-10.8028

> <Gold.Chemscore.Internal_Hbond.Weighted>
0.0000

> <Gold.Chemscore.DEClash.Weighted>
1.5891

> <Gold.Chemscore.DEInternal.Weighted>
3.0930

> <Gold.Chemscore.Rot.Weighted>
5.0941

> <Gold.Chemscore.Internal.Correction.Weighted>
   9.000000E+99

> <Gold.Protein.RotatedTorsions>
[ 6907 6896 6895 6894 ] final  -59.10 input  -60.11 | X-H torsion
[ 7974 7965 7964 7962 ] final  161.95 input  175.53 | X-H torsion
[ 8008 7997 7996 7995 ] final -131.19 input   59.86 | X-H torsion
[ 10167 10162 10161 10158 ] final  153.09 input  -65.29 | X-H torsion
[ 10718 10713 10712 10709 ] final  -33.11 input   66.30 | X-H torsion
[ 10763 10752 10751 10750 ] final  -41.91 input  -60.55 | X-H torsion
[ 11005 11000 10999 10996 ] final  174.62 input  -57.11 | X-H torsion

> <Gold.Protein.ActiveResidues>
 VAL166  LYS551  ARG553  GLY616  TRP617  ASP618  TYR619  PRO620  LYS621  CYS622 
 ASP623  PHE694  ASN695  SER759  ASP760  ASP761  ALA762  ILE779  LEU786  VAL792 
 PHE793  MET794  SER795  GLU796  ALA797  LYS798  CYS799  TRP800  GLU811  SER814 

> <Gold.Protein.RotatedAtoms>
  150.7956  134.7012  159.6550 H   0  0  0  0  0  0  0  0  0  0  0  0  # atno 6907 bound_to 6896
  152.4067  134.6191  160.0056 H   0  0  0  0  0  0  0  0  0  0  0  0  # atno 6908 bound_to 6896
  151.6446  133.3287  159.3174 H   0  0  0  0  0  0  0  0  0  0  0  0  # atno 6909 bound_to 6896
  144.7660  139.7971  143.6315 H   0  0  0  0  0  0  0  0  0  0  0  0  # atno 7974 bound_to 7965
  155.3082  140.0456  157.3033 H   0  0  0  0  0  0  0  0  0  0  0  0  # atno 8008 bound_to 7997
  154.5448  140.2299  155.8548 H   0  0  0  0  0  0  0  0  0  0  0  0  # atno 8009 bound_to 7997
  156.1914  140.3049  155.9346 H   0  0  0  0  0  0  0  0  0  0  0  0  # atno 8010 bound_to 7997
  139.4829  144.5303  151.7734 H   0  0  0  0  0  0  0  0  0  0  0  0  # atno 10167 bound_to 10162
  156.3666  130.4332  149.7579 H   0  0  0  0  0  0  0  0  0  0  0  0  # atno 10718 bound_to 10713
  153.9703  135.6729  153.4747 H   0  0  0  0  0  0  0  0  0  0  0  0  # atno 10763 bound_to 10752
  153.0796  135.4930  154.8472 H   0  0  0  0  0  0  0  0  0  0  0  0  # atno 10764 bound_to 10752
  154.7223  135.3120  154.8988 H   0  0  0  0  0  0  0  0  0  0  0  0  # atno 10765 bound_to 10752
  140.3533  134.7176  157.4283 H   0  0  0  0  0  0  0  0  0  0  0  0  # atno 11005 bound_to 11000
  146.1768  139.4942  142.9892 LP  0  0  0  0  0  0  0  0  0  0  0  0  # atno 17320 bound_to 7965
  145.6468  141.0272  143.1782 LP  0  0  0  0  0  0  0  0  0  0  0  0  # atno 17321 bound_to 7965
  140.4828  144.1425  150.5935 LP  0  0  0  0  0  0  0  0  0  0  0  0  # atno 17342 bound_to 10162
  140.4259  143.2590  151.9657 LP  0  0  0  0  0  0  0  0  0  0  0  0  # atno 17343 bound_to 10162
  156.4723  130.8002  151.3020 LP  0  0  0  0  0  0  0  0  0  0  0  0  # atno 17370 bound_to 10713
  157.7479  131.0032  150.3029 LP  0  0  0  0  0  0  0  0  0  0  0  0  # atno 17371 bound_to 10713
  140.0685  134.5895  155.8668 LP  0  0  0  0  0  0  0  0  0  0  0  0  # atno 17394 bound_to 11000
  141.2005  133.6613  156.5903 LP  0  0  0  0  0  0  0  0  0  0  0  0  # atno 17395 bound_to 11000

$$$$
