AV-unprocessed.smi:3142|AV-procd|sdf|11971|dock7
  -GOLD-   2272017373D 1   1.00000     0.00000
 Structure written by MMmdl.
 36 38  0  0  0  0  0  0  0  0  1 V2000
  149.4163  140.1453  157.2361 C   0  0  0  0  0  0  0  0  0  0  0  0
  150.7645  140.4087  156.5380 C   0  0  1  0  0  0  0  0  0  0  0  0
  151.8810  140.7882  157.5222 C   0  0  0  0  0  0  0  0  0  0  0  0
  152.8614  140.0582  157.6721 O   0  0  0  0  0  0  0  0  0  0  0  0
  151.7170  141.9463  158.1810 N   0  0  0  0  0  0  0  0  0  0  0  0
  152.6547  142.5260  159.1362 C   0  0  0  0  0  0  0  0  0  0  0  0
  152.8478  141.6562  160.3679 C   0  0  0  0  0  0  0  0  0  0  0  0
  154.1244  141.7079  161.1742 C   0  0  0  0  0  0  0  0  0  0  0  0
  153.7926  140.4773  160.3625 C   0  0  0  0  0  0  0  0  0  0  0  0
  152.2343  143.9270  159.5406 C   0  0  0  0  0  0  0  0  0  0  0  0
  150.7877  144.3542  159.4777 C   0  0  0  0  0  0  0  0  0  0  0  0
  151.7942  144.9458  158.5163 C   0  0  0  0  0  0  0  0  0  0  0  0
  151.1789  139.2713  155.7285 N   0  0  0  0  0  0  0  0  0  0  0  0
  151.1268  139.1468  154.3435 C   0  0  0  0  0  0  0  0  0  0  0  0
  151.5982  137.8896  154.0414 C   0  0  0  0  0  0  0  0  0  0  0  0
  151.9314  137.2197  155.2157 N   0  0  0  0  0  0  0  0  0  0  0  0
  151.6516  138.0970  156.1707 C   0  0  0  0  0  0  0  0  0  0  0  0
  149.0906  141.0174  157.8040 H   0  0  0  0  0  0  0  0  0  0  0  0
  149.4698  139.3022  157.9257 H   0  0  0  0  0  0  0  0  0  0  0  0
  148.6379  139.9235  156.5053 H   0  0  0  0  0  0  0  0  0  0  0  0
  150.6194  141.2559  155.8652 H   0  0  0  0  0  0  0  0  0  0  0  0
  150.8809  142.4795  157.9916 H   0  0  0  0  0  0  0  0  0  0  0  0
  153.6250  142.6190  158.6436 H   0  0  0  0  0  0  0  0  0  0  0  0
  151.9365  141.5261  160.9489 H   0  0  0  0  0  0  0  0  0  0  0  0
  154.9340  142.3381  160.8123 H   0  0  0  0  0  0  0  0  0  0  0  0
  154.0379  141.6361  162.2563 H   0  0  0  0  0  0  0  0  0  0  0  0
  153.4826  139.5848  160.9023 H   0  0  0  0  0  0  0  0  0  0  0  0
  154.3816  140.2979  159.4653 H   0  0  0  0  0  0  0  0  0  0  0  0
  152.8027  144.3224  160.3807 H   0  0  0  0  0  0  0  0  0  0  0  0
  150.0663  143.6452  159.0762 H   0  0  0  0  0  0  0  0  0  0  0  0
  150.4185  144.9922  160.2781 H   0  0  0  0  0  0  0  0  0  0  0  0
  152.0962  145.9790  158.6747 H   0  0  0  0  0  0  0  0  0  0  0  0
  151.7321  144.6323  157.4762 H   0  0  0  0  0  0  0  0  0  0  0  0
  150.7676  139.9405  153.7050 H   0  0  0  0  0  0  0  0  0  0  0  0
  151.7154  137.4172  153.0773 H   0  0  0  0  0  0  0  0  0  0  0  0
  151.7928  137.8782  157.2190 H   0  0  0  0  0  0  0  0  0  0  0  0
  1  2  1  0  0  0  0
  1 18  1  0  0  0  0
  1 19  1  0  0  0  0
  1 20  1  0  0  0  0
  2  3  1  0  0  0  0
  2 13  1  0  0  0  0
  2 21  1  0  0  0  0
  3  4  2  0  0  0  0
  3  5  1  0  0  0  0
  5  6  1  0  0  0  0
  5 22  1  0  0  0  0
  6  7  1  0  0  0  0
  6 10  1  0  0  0  0
  6 23  1  0  0  0  0
  7  9  1  0  0  0  0
  7  8  1  0  0  0  0
  7 24  1  0  0  0  0
  8  9  1  0  0  0  0
  8 25  1  0  0  0  0
  8 26  1  0  0  0  0
  9 27  1  0  0  0  0
  9 28  1  0  0  0  0
 10 12  1  0  0  0  0
 10 11  1  0  0  0  0
 10 29  1  0  0  0  0
 11 12  1  0  0  0  0
 11 30  1  0  0  0  0
 11 31  1  0  0  0  0
 12 32  1  0  0  0  0
 12 33  1  0  0  0  0
 13 17  1  0  0  0  0
 13 14  1  0  0  0  0
 14 15  2  0  0  0  0
 14 34  1  0  0  0  0
 15 16  1  0  0  0  0
 15 35  1  0  0  0  0
 16 17  2  0  0  0  0
 17 36  1  0  0  0  0
M  END
> <s_m_source_file>
AV-unprocessed.smi

> <i_m_source_file_index>
3142

> <i_lp_mmshare_version>
43012

> <i_f3d_flags>
0

> <s_epik_input>
W2NIXTFuW2NIXVtjSF1uMVtDQEhdKFtDSDNdKUMoPU8pW05IXVtDSF0oW0NIXTJbQ0gyXVtDSDJdMilbQ0hdM1tDSDJdW0NIMl0z

> <s_epik_cmdline>
J2VwaWtfcHl0aG9uJywgJy1waCcsICc3LjAnLCAnLXRuJywgJzgnLCAnLW1hJywgJzIwMCcsICctbWV0YWxfYmluZGluZycsICctaW1hZScsICc8aW5maWxlLm1hZT4nLCAnLW9tYWUnLCAnPG91dGZpbGUubWFlPic=

> <r_lp_tautomer_probability>
1

> <r_epik_Ionization_Penalty>
0.32285

> <r_epik_Ionization_Penalty_Charging>
0.32285

> <r_epik_Ionization_Penalty_Neutral>
3.37967e-08

> <r_epik_State_Penalty>
0.317502

> <r_epik_Charging_Adjusted_Penalty>
0.640352

> <i_epik_Tot_Q>
0

> <i_epik_Tot_abs_Q>
0

> <r_epik_Metal_State_Penalty>
0.20415

> <b_epik_Metal_Only>
0

> <s_lp_Force_Field>
OPLS_2005

> <r_lp_Energy>
29.1263

> <b_lp_Chiralities_Consistent>
1

> <s_lp_Variant>
AV-unprocessed.smi:3142-2

> <Gold.Version>
5.8.1

> <Gold.Id.Protein>
6NUR|6NUR_protein|mol2

> <Gold.PLP.Fitness>
47.5377

> <Gold.PLP.PLP>
-38.4039

> <Gold.PLP.part.hbond>
-2.0000

> <Gold.PLP.part.metal>
0.0000

> <Gold.PLP.part.buried>
-2.2436

> <Gold.PLP.part.nonpolar>
-33.0212

> <Gold.PLP.part.repulsive>
0.1410

> <Gold.PLP.ligand.clash>
0.0000

> <Gold.PLP.ligand.torsion>
1.5043

> <Gold.PLP.Chemscore.Hbond>
1.9913

> <Gold.PLP.Chemscore.CHOScore>
1.3176

> <Gold.PLP.Chemscore.Metal>
0.0000

> <Gold.Chemscore.Hbonds>
donor molecule, donor type, donor heavy atom, donor atom, acceptor molecule, acceptor atom, score
      P1  H  7997  8009       L1     4  1.00
      P1  H 10752 10764       L1    16  0.94
      L1  C    14    34       P1  7957  0.36
      L1  C    15    35       P1  7949  1.00

> <Gold.PLP.Chemscore.Internal.Correction>
2.2158

> <Gold.Rescore>
     Score         DG    S(hbond)    S(metal)    S(lipo)     H(rot)  DE(clash)    DE(int)     intcor
     14.90     -18.75       1.69        0.00     105.59       1.85       0.54       3.32       ----

> <Gold.Chemscore.Fitness>
14.8953

> <Gold.Chemscore.DG>
-18.7528

> <Gold.Chemscore.ZeroCoef>
-5.4800

> <Gold.Chemscore.Hbond>
1.6935

> <Gold.Chemscore.Metal>
0.0000

> <Gold.Chemscore.Lipo>
105.5894

> <Gold.Chemscore.Internal_Hbond>
0.0000

> <Gold.Chemscore.DEClash>
0.5407

> <Gold.Chemscore.DEInternal>
3.3168

> <Gold.Chemscore.Rot>
1.8505

> <Gold.Chemscore.Internal.Correction>
   9.000000E+99

> <Gold.Chemscore.Hbonds>
donor molecule, donor type, donor heavy atom, donor atom, acceptor molecule, acceptor atom, score
      P1  H  7997  8009       L1     4  0.96
      P1  H 10752 10764       L1    16  0.44

> <Gold.Chemscore.Hbond.Weighted>
-5.6561

> <Gold.Chemscore.Metal.Weighted>
-0.0000

> <Gold.Chemscore.Lipo.Weighted>
-12.3540

> <Gold.Chemscore.Internal_Hbond.Weighted>
0.0000

> <Gold.Chemscore.DEClash.Weighted>
0.5407

> <Gold.Chemscore.DEInternal.Weighted>
3.3168

> <Gold.Chemscore.Rot.Weighted>
4.7373

> <Gold.Chemscore.Internal.Correction.Weighted>
   9.000000E+99

> <Gold.Protein.RotatedTorsions>
[ 6907 6896 6895 6894 ] final  -10.40 input  -60.11 | X-H torsion
[ 7974 7965 7964 7962 ] final   26.49 input  175.53 | X-H torsion
[ 8008 7997 7996 7995 ] final  161.59 input   59.86 | X-H torsion
[ 10167 10162 10161 10158 ] final  170.80 input  -65.29 | X-H torsion
[ 10718 10713 10712 10709 ] final  -18.10 input   66.30 | X-H torsion
[ 10763 10752 10751 10750 ] final  -58.50 input  -60.55 | X-H torsion
[ 11005 11000 10999 10996 ] final -100.74 input  -57.11 | X-H torsion

> <Gold.Protein.ActiveResidues>
 VAL166  LYS551  ARG553  GLY616  TRP617  ASP618  TYR619  PRO620  LYS621  CYS622 
 ASP623  PHE694  ASN695  SER759  ASP760  ASP761  ALA762  ILE779  LEU786  VAL792 
 PHE793  MET794  SER795  GLU796  ALA797  LYS798  CYS799  TRP800  GLU811  SER814 

> <Gold.Protein.RotatedAtoms>
  151.4025  135.0973  159.9560 H   0  0  0  0  0  0  0  0  0  0  0  0  # atno 6907 bound_to 6896
  152.5046  133.8874  159.7387 H   0  0  0  0  0  0  0  0  0  0  0  0  # atno 6908 bound_to 6896
  150.9351  133.6664  159.2831 H   0  0  0  0  0  0  0  0  0  0  0  0  # atno 6909 bound_to 6896
  146.1834  139.7321  142.8884 H   0  0  0  0  0  0  0  0  0  0  0  0  # atno 7974 bound_to 7965
  156.2092  140.1773  156.7733 H   0  0  0  0  0  0  0  0  0  0  0  0  # atno 8008 bound_to 7997
  154.5698  140.0684  156.8977 H   0  0  0  0  0  0  0  0  0  0  0  0  # atno 8009 bound_to 7997
  155.2694  140.3341  155.4269 H   0  0  0  0  0  0  0  0  0  0  0  0  # atno 8010 bound_to 7997
  139.5029  144.3556  151.9878 H   0  0  0  0  0  0  0  0  0  0  0  0  # atno 10167 bound_to 10162
  156.5643  130.4733  149.6392 H   0  0  0  0  0  0  0  0  0  0  0  0  # atno 10718 bound_to 10713
  154.2391  135.6347  153.5201 H   0  0  0  0  0  0  0  0  0  0  0  0  # atno 10763 bound_to 10752
  152.9933  135.5538  154.5930 H   0  0  0  0  0  0  0  0  0  0  0  0  # atno 10764 bound_to 10752
  154.5431  135.2896  155.1052 H   0  0  0  0  0  0  0  0  0  0  0  0  # atno 10765 bound_to 10752
  141.1258  133.8423  157.1142 H   0  0  0  0  0  0  0  0  0  0  0  0  # atno 11005 bound_to 11000
  145.4008  141.0385  143.3071 LP  0  0  0  0  0  0  0  0  0  0  0  0  # atno 17320 bound_to 7965
  144.8355  139.5557  143.6924 LP  0  0  0  0  0  0  0  0  0  0  0  0  # atno 17321 bound_to 7965
  140.2992  144.3666  150.6065 LP  0  0  0  0  0  0  0  0  0  0  0  0  # atno 17342 bound_to 10162
  140.5886  143.2169  151.7295 LP  0  0  0  0  0  0  0  0  0  0  0  0  # atno 17343 bound_to 10162
  156.2771  130.7050  151.1864 LP  0  0  0  0  0  0  0  0  0  0  0  0  # atno 17370 bound_to 10713
  157.7362  131.0565  150.5428 LP  0  0  0  0  0  0  0  0  0  0  0  0  # atno 17371 bound_to 10713
  140.0256  134.9925  157.0680 LP  0  0  0  0  0  0  0  0  0  0  0  0  # atno 17394 bound_to 11000
  140.4368  134.1723  155.7171 LP  0  0  0  0  0  0  0  0  0  0  0  0  # atno 17395 bound_to 11000

$$$$
