AV-unprocessed.smi:942|AV-procd|sdf|4227|dock8
  -GOLD-   22720 2133D 1   1.00000     0.00000
 Structure written by MMmdl.
 42 44  0  0  0  0  0  0  0  0  1 V2000
  153.4302  139.5919  157.9441 O   0  0  0  0  0  0  0  0  0  0  0  0
  152.4801  140.3745  157.9743 C   0  0  0  0  0  0  0  0  0  0  0  0
  152.4633  141.4827  158.7290 N   0  0  0  0  0  0  0  0  0  0  0  0
  153.5686  141.9606  159.5603 C   0  0  2  0  0  0  0  0  0  0  0  0
  154.0222  140.8644  160.5487 C   0  0  0  0  0  0  0  0  0  0  0  0
  153.7045  141.3810  161.9590 C   0  0  0  0  0  0  0  0  0  0  0  0
  152.6967  142.5113  161.7581 C   0  0  0  0  0  0  0  0  0  0  0  0
  153.1454  143.1555  160.4427 C   0  0  2  0  0  0  0  0  0  0  0  0
  152.1800  144.0615  159.8259 N   0  0  0  0  0  0  0  0  0  0  0  0
  150.8936  144.3814  160.2506 C   0  0  0  0  0  0  0  0  0  0  0  0
  150.3894  145.2842  159.3423 C   0  0  0  0  0  0  0  0  0  0  0  0
  151.3441  145.5489  158.3647 N   0  0  0  0  0  0  0  0  0  0  0  0
  152.3772  144.7982  158.7223 C   0  0  0  0  0  0  0  0  0  0  0  0
  151.2357  140.1207  157.1138 C   0  0  0  0  0  0  0  0  0  0  0  0
  151.5974  139.3738  155.8125 C   0  0  0  0  0  0  0  0  0  0  0  0
  150.3517  139.1320  154.9439 C   0  0  0  0  0  0  0  0  0  0  0  0
  149.6240  140.4496  154.6329 C   0  0  0  0  0  0  0  0  0  0  0  0
  149.2677  141.2062  155.9222 C   0  0  0  0  0  0  0  0  0  0  0  0
  150.5146  141.4460  156.7890 C   0  0  0  0  0  0  0  0  0  0  0  0
  151.6390  142.0649  158.6933 H   0  0  0  0  0  0  0  0  0  0  0  0
  154.3969  142.2658  158.9179 H   0  0  0  0  0  0  0  0  0  0  0  0
  153.5004  139.9236  160.3669 H   0  0  0  0  0  0  0  0  0  0  0  0
  155.0880  140.6578  160.4469 H   0  0  0  0  0  0  0  0  0  0  0  0
  153.3249  140.5968  162.6147 H   0  0  0  0  0  0  0  0  0  0  0  0
  154.6120  141.7800  162.4140 H   0  0  0  0  0  0  0  0  0  0  0  0
  151.6975  142.0853  161.6585 H   0  0  0  0  0  0  0  0  0  0  0  0
  152.6850  143.2142  162.5917 H   0  0  0  0  0  0  0  0  0  0  0  0
  154.0380  143.7463  160.6567 H   0  0  0  0  0  0  0  0  0  0  0  0
  150.4453  143.9548  161.1354 H   0  0  0  0  0  0  0  0  0  0  0  0
  149.4223  145.7646  159.3208 H   0  0  0  0  0  0  0  0  0  0  0  0
  153.3000  144.7753  158.1612 H   0  0  0  0  0  0  0  0  0  0  0  0
  150.5480  139.4925  157.6835 H   0  0  0  0  0  0  0  0  0  0  0  0
  152.3280  139.9469  155.2393 H   0  0  0  0  0  0  0  0  0  0  0  0
  152.0693  138.4185  156.0461 H   0  0  0  0  0  0  0  0  0  0  0  0
  150.6361  138.6362  154.0154 H   0  0  0  0  0  0  0  0  0  0  0  0
  149.6723  138.4534  155.4612 H   0  0  0  0  0  0  0  0  0  0  0  0
  150.2576  141.0774  154.0051 H   0  0  0  0  0  0  0  0  0  0  0  0
  148.7200  140.2486  154.0575 H   0  0  0  0  0  0  0  0  0  0  0  0
  148.7978  142.1588  155.6758 H   0  0  0  0  0  0  0  0  0  0  0  0
  148.5313  140.6367  156.4903 H   0  0  0  0  0  0  0  0  0  0  0  0
  150.2251  141.9523  157.7111 H   0  0  0  0  0  0  0  0  0  0  0  0
  151.1905  142.1234  156.2646 H   0  0  0  0  0  0  0  0  0  0  0  0
  1  2  2  0  0  0  0
  2  3  1  0  0  0  0
  2 14  1  0  0  0  0
  3  4  1  0  0  0  0
  3 20  1  0  0  0  0
  4  8  1  0  0  0  0
  4  5  1  0  0  0  0
  4 21  1  0  0  0  0
  5  6  1  0  0  0  0
  5 22  1  0  0  0  0
  5 23  1  0  0  0  0
  6  7  1  0  0  0  0
  6 24  1  0  0  0  0
  6 25  1  0  0  0  0
  7  8  1  0  0  0  0
  7 26  1  0  0  0  0
  7 27  1  0  0  0  0
  8  9  1  0  0  0  0
  8 28  1  0  0  0  0
  9 13  1  0  0  0  0
  9 10  1  0  0  0  0
 10 11  2  0  0  0  0
 10 29  1  0  0  0  0
 11 12  1  0  0  0  0
 11 30  1  0  0  0  0
 12 13  2  0  0  0  0
 13 31  1  0  0  0  0
 14 19  1  0  0  0  0
 14 15  1  0  0  0  0
 14 32  1  0  0  0  0
 15 16  1  0  0  0  0
 15 33  1  0  0  0  0
 15 34  1  0  0  0  0
 16 17  1  0  0  0  0
 16 35  1  0  0  0  0
 16 36  1  0  0  0  0
 17 18  1  0  0  0  0
 17 37  1  0  0  0  0
 17 38  1  0  0  0  0
 18 19  1  0  0  0  0
 18 39  1  0  0  0  0
 18 40  1  0  0  0  0
 19 41  1  0  0  0  0
 19 42  1  0  0  0  0
M  END
> <s_m_source_file>
AV-unprocessed.smi

> <i_m_source_file_index>
942

> <i_lp_mmshare_version>
43012

> <i_f3d_flags>
0

> <s_epik_input>
W0NIMl0xW0NIMl1bQ0gyXVtDSDJdW0NIMl1bQ0hdMUMoPU8pW05IXVtDQEBIXTJbQ0gyXVtDSDJdW0NIMl1bQ0BIXTJuM1tjSF1bY0hdbltjSF0z

> <s_epik_cmdline>
J2VwaWtfcHl0aG9uJywgJy1waCcsICc3LjAnLCAnLXRuJywgJzgnLCAnLW1hJywgJzIwMCcsICctbWV0YWxfYmluZGluZycsICctaW1hZScsICc8aW5maWxlLm1hZT4nLCAnLW9tYWUnLCAnPG91dGZpbGUubWFlPic=

> <r_lp_tautomer_probability>
1

> <r_epik_Ionization_Penalty>
0.778458

> <r_epik_Ionization_Penalty_Charging>
0.778458

> <r_epik_Ionization_Penalty_Neutral>
2.79355e-08

> <r_epik_State_Penalty>
0.807804

> <r_epik_Charging_Adjusted_Penalty>
1.58626

> <i_epik_Tot_Q>
0

> <i_epik_Tot_abs_Q>
0

> <r_epik_Metal_State_Penalty>
0.343007

> <b_epik_Metal_Only>
0

> <s_lp_Force_Field>
OPLS_2005

> <r_lp_Energy>
33.2669

> <b_lp_Chiralities_Consistent>
1

> <s_lp_Variant>
AV-unprocessed.smi:942-7

> <Gold.Version>
5.8.1

> <Gold.Id.Protein>
6NUR|6NUR_protein|mol2

> <Gold.PLP.Fitness>
49.1248

> <Gold.PLP.PLP>
-44.9313

> <Gold.PLP.part.hbond>
-2.0000

> <Gold.PLP.part.metal>
0.0000

> <Gold.PLP.part.buried>
-0.5950

> <Gold.PLP.part.nonpolar>
-41.2968

> <Gold.PLP.part.repulsive>
0.2328

> <Gold.PLP.ligand.clash>
0.0001

> <Gold.PLP.ligand.torsion>
0.7927

> <Gold.PLP.Chemscore.Hbond>
1.0000

> <Gold.PLP.Chemscore.CHOScore>
0.9191

> <Gold.PLP.Chemscore.Metal>
0.0000

> <Gold.Chemscore.Hbonds>
donor molecule, donor type, donor heavy atom, donor atom, acceptor molecule, acceptor atom, score
      P1  H  7997  8008       L1     1  1.00
      L1  C    11    30       P1  8029  0.88

> <Gold.PLP.Chemscore.Internal.Correction>
0.0216

> <Gold.Rescore>
     Score         DG    S(hbond)    S(metal)    S(lipo)     H(rot)  DE(clash)    DE(int)     intcor
     15.76     -17.37       0.99        0.00     104.84       1.44       0.08       1.52       ----

> <Gold.Chemscore.Fitness>
15.7633

> <Gold.Chemscore.DG>
-17.3652

> <Gold.Chemscore.ZeroCoef>
-5.4800

> <Gold.Chemscore.Hbond>
0.9894

> <Gold.Chemscore.Metal>
0.0000

> <Gold.Chemscore.Lipo>
104.8351

> <Gold.Chemscore.Internal_Hbond>
0.0000

> <Gold.Chemscore.DEClash>
0.0811

> <Gold.Chemscore.DEInternal>
1.5208

> <Gold.Chemscore.Rot>
1.4395

> <Gold.Chemscore.Internal.Correction>
   9.000000E+99

> <Gold.Chemscore.Hbonds>
donor molecule, donor type, donor heavy atom, donor atom, acceptor molecule, acceptor atom, score
      P1  H  7997  8008       L1     1  0.72

> <Gold.Chemscore.Hbond.Weighted>
-3.3047

> <Gold.Chemscore.Metal.Weighted>
-0.0000

> <Gold.Chemscore.Lipo.Weighted>
-12.2657

> <Gold.Chemscore.Internal_Hbond.Weighted>
0.0000

> <Gold.Chemscore.DEClash.Weighted>
0.0811

> <Gold.Chemscore.DEInternal.Weighted>
1.5208

> <Gold.Chemscore.Rot.Weighted>
3.6852

> <Gold.Chemscore.Internal.Correction.Weighted>
   9.000000E+99

> <Gold.Protein.RotatedTorsions>
[ 6907 6896 6895 6894 ] final  -27.90 input  -60.11 | X-H torsion
[ 7974 7965 7964 7962 ] final   99.10 input  175.53 | X-H torsion
[ 8008 7997 7996 7995 ] final  -73.12 input   59.86 | X-H torsion
[ 10167 10162 10161 10158 ] final   -8.99 input  -65.29 | X-H torsion
[ 10718 10713 10712 10709 ] final  -59.11 input   66.30 | X-H torsion
[ 10763 10752 10751 10750 ] final  -44.75 input  -60.55 | X-H torsion
[ 11005 11000 10999 10996 ] final -106.58 input  -57.11 | X-H torsion

> <Gold.Protein.ActiveResidues>
 VAL166  LYS551  ARG553  GLY616  TRP617  ASP618  TYR619  PRO620  LYS621  CYS622 
 ASP623  PHE694  ASN695  SER759  ASP760  ASP761  ALA762  ILE779  LEU786  VAL792 
 PHE793  MET794  SER795  GLU796  ALA797  LYS798  CYS799  TRP800  GLU811  SER814 

> <Gold.Protein.RotatedAtoms>
  151.1405  135.0177  159.8623 H   0  0  0  0  0  0  0  0  0  0  0  0  # atno 6907 bound_to 6896
  152.5452  134.1505  159.8526 H   0  0  0  0  0  0  0  0  0  0  0  0  # atno 6908 bound_to 6896
  151.1580  133.4818  159.2627 H   0  0  0  0  0  0  0  0  0  0  0  0  # atno 6909 bound_to 6896
  145.4033  139.2344  143.3288 H   0  0  0  0  0  0  0  0  0  0  0  0  # atno 7974 bound_to 7965
  154.5221  140.0785  156.8192 H   0  0  0  0  0  0  0  0  0  0  0  0  # atno 8008 bound_to 7997
  155.3553  140.3415  155.4221 H   0  0  0  0  0  0  0  0  0  0  0  0  # atno 8009 bound_to 7997
  156.1693  140.1614  156.8463 H   0  0  0  0  0  0  0  0  0  0  0  0  # atno 8010 bound_to 7997
  140.7075  143.5907  150.8897 H   0  0  0  0  0  0  0  0  0  0  0  0  # atno 10167 bound_to 10162
  156.1085  130.4177  150.0670 H   0  0  0  0  0  0  0  0  0  0  0  0  # atno 10718 bound_to 10713
  154.0172  135.6674  153.4769 H   0  0  0  0  0  0  0  0  0  0  0  0  # atno 10763 bound_to 10752
  153.0595  135.5036  154.8057 H   0  0  0  0  0  0  0  0  0  0  0  0  # atno 10764 bound_to 10752
  154.6959  135.3070  154.9376 H   0  0  0  0  0  0  0  0  0  0  0  0  # atno 10765 bound_to 10752
  141.0997  133.8906  157.1873 H   0  0  0  0  0  0  0  0  0  0  0  0  # atno 11005 bound_to 11000
  146.2741  140.4734  142.8802 LP  0  0  0  0  0  0  0  0  0  0  0  0  # atno 17320 bound_to 7965
  144.8359  140.6781  143.6261 LP  0  0  0  0  0  0  0  0  0  0  0  0  # atno 17321 bound_to 7965
  139.9632  143.6140  152.2996 LP  0  0  0  0  0  0  0  0  0  0  0  0  # atno 17342 bound_to 10162
  139.6700  144.7661  151.1801 LP  0  0  0  0  0  0  0  0  0  0  0  0  # atno 17343 bound_to 10162
  156.8639  130.9501  151.3615 LP  0  0  0  0  0  0  0  0  0  0  0  0  # atno 17370 bound_to 10713
  157.6265  130.8695  149.9198 LP  0  0  0  0  0  0  0  0  0  0  0  0  # atno 17371 bound_to 10713
  139.9845  135.0087  156.9829 LP  0  0  0  0  0  0  0  0  0  0  0  0  # atno 17394 bound_to 11000
  140.5052  134.1057  155.7258 LP  0  0  0  0  0  0  0  0  0  0  0  0  # atno 17395 bound_to 11000

$$$$
