AV-unprocessed.smi:1239|AV-procd|sdf|5193|dock4
  -GOLD-   22720 4273D 1   1.00000     0.00000
 Structure written by MMmdl.
 48 49  0  0  0  0  0  0  0  0  4 V2000
  150.8432  133.9111  156.1119 C   0  0  0  0  0  0  0  0  0  0  0  0
  150.5183  135.0168  155.0758 C   0  0  2  0  0  0  0  0  0  0  0  0
  150.6049  136.4638  155.6374 C   0  0  0  0  0  0  0  0  0  0  0  0
  151.9956  136.9039  155.7605 N   0  5  0  0  0  0  0  0  0  0  0  0
  152.4279  137.9087  156.5689 C   0  0  0  0  0  0  0  0  0  0  0  0
  153.5533  138.0459  157.0616 O   0  0  0  0  0  0  0  0  0  0  0  0
  151.4516  138.7937  156.8377 N   0  0  0  0  0  0  0  0  0  0  0  0
  151.5047  139.9918  157.5998 C   0  0  0  0  0  0  0  0  0  0  0  0
  150.6220  141.0328  157.2471 C   0  0  0  0  0  0  0  0  0  0  0  0
  150.6533  142.2506  157.9569 C   0  0  0  0  0  0  0  0  0  0  0  0
  151.5795  142.4259  159.0144 C   0  0  0  0  0  0  0  0  0  0  0  0
  151.6743  143.6150  159.7696 N   0  0  0  0  0  0  0  0  0  0  0  0
  152.2593  143.5791  161.1054 C   0  0  0  0  0  0  0  0  0  0  0  0
  151.2722  144.8834  159.1762 C   0  0  0  0  0  0  0  0  0  0  0  0
  152.4167  141.4009  159.3074 N   0  3  0  0  0  0  0  0  0  0  0  0
  152.4199  140.2188  158.6543 C   0  0  0  0  0  0  0  0  0  0  0  0
  149.2079  134.8011  154.3869 N   0  3  0  0  0  0  0  0  0  0  0  0
  149.0513  133.4384  153.8199 C   0  0  0  0  0  0  0  0  0  0  0  0
  147.7715  133.3596  152.9700 C   0  0  0  0  0  0  0  0  0  0  0  0
  146.6449  133.7281  153.7566 O   0  0  0  0  0  0  0  0  0  0  0  0
  146.7461  135.0615  154.2423 C   0  0  0  0  0  0  0  0  0  0  0  0
  147.9840  135.1848  155.1446 C   0  0  0  0  0  0  0  0  0  0  0  0
  151.8649  133.9941  156.4871 H   0  0  0  0  0  0  0  0  0  0  0  0
  150.7606  132.9217  155.6618 H   0  0  0  0  0  0  0  0  0  0  0  0
  150.1787  133.9344  156.9774 H   0  0  0  0  0  0  0  0  0  0  0  0
  151.2850  134.9512  154.3024 H   0  0  0  0  0  0  0  0  0  0  0  0
  150.0324  137.1284  154.9882 H   0  0  0  0  0  0  0  0  0  0  0  0
  150.0945  136.5005  156.5996 H   0  0  0  0  0  0  0  0  0  0  0  0
  150.5414  138.5495  156.4756 H   0  0  0  0  0  0  0  0  0  0  0  0
  149.9187  140.9003  156.4376 H   0  0  0  0  0  0  0  0  0  0  0  0
  149.9644  143.0322  157.6738 H   0  0  0  0  0  0  0  0  0  0  0  0
  153.2911  143.2281  161.0625 H   0  0  0  0  0  0  0  0  0  0  0  0
  151.6920  142.9112  161.7542 H   0  0  0  0  0  0  0  0  0  0  0  0
  152.2610  144.5678  161.5651 H   0  0  0  0  0  0  0  0  0  0  0  0
  150.2161  144.8626  158.9056 H   0  0  0  0  0  0  0  0  0  0  0  0
  151.8585  145.0901  158.2803 H   0  0  0  0  0  0  0  0  0  0  0  0
  151.4207  145.7108  159.8705 H   0  0  0  0  0  0  0  0  0  0  0  0
  153.1639  139.5141  158.9939 H   0  0  0  0  0  0  0  0  0  0  0  0
  149.9108  133.1883  153.1967 H   0  0  0  0  0  0  0  0  0  0  0  0
  149.0136  132.7054  154.6268 H   0  0  0  0  0  0  0  0  0  0  0  0
  147.8453  134.0084  152.0958 H   0  0  0  0  0  0  0  0  0  0  0  0
  147.6279  132.3442  152.6008 H   0  0  0  0  0  0  0  0  0  0  0  0
  146.7977  135.7651  153.4097 H   0  0  0  0  0  0  0  0  0  0  0  0
  145.8445  135.3005  154.8065 H   0  0  0  0  0  0  0  0  0  0  0  0
  147.8584  134.5379  156.0137 H   0  0  0  0  0  0  0  0  0  0  0  0
  148.0631  136.2076  155.5139 H   0  0  0  0  0  0  0  0  0  0  0  0
  153.0896  141.5299  160.0630 H   0  0  0  0  0  0  0  0  0  0  0  0
  149.2422  135.4155  153.5855 H   0  0  0  0  0  0  0  0  0  0  0  0
  1  2  1  0  0  0  0
  1 23  1  0  0  0  0
  1 24  1  0  0  0  0
  1 25  1  0  0  0  0
  2  3  1  0  0  0  0
  2 17  1  0  0  0  0
  2 26  1  0  0  0  0
  3  4  1  0  0  0  0
  3 27  1  0  0  0  0
  3 28  1  0  0  0  0
  4  5  1  0  0  0  0
  5  6  2  0  0  0  0
  5  7  1  0  0  0  0
  7  8  1  0  0  0  0
  7 29  1  0  0  0  0
  8 16  1  0  0  0  0
  8  9  2  0  0  0  0
  9 10  1  0  0  0  0
  9 30  1  0  0  0  0
 10 11  2  0  0  0  0
 10 31  1  0  0  0  0
 11 12  1  0  0  0  0
 11 15  1  0  0  0  0
 12 13  1  0  0  0  0
 12 14  1  0  0  0  0
 13 32  1  0  0  0  0
 13 33  1  0  0  0  0
 13 34  1  0  0  0  0
 14 35  1  0  0  0  0
 14 36  1  0  0  0  0
 14 37  1  0  0  0  0
 15 16  2  0  0  0  0
 15 47  1  0  0  0  0
 16 38  1  0  0  0  0
 17 22  1  0  0  0  0
 17 18  1  0  0  0  0
 17 48  1  0  0  0  0
 18 19  1  0  0  0  0
 18 39  1  0  0  0  0
 18 40  1  0  0  0  0
 19 20  1  0  0  0  0
 19 41  1  0  0  0  0
 19 42  1  0  0  0  0
 20 21  1  0  0  0  0
 21 22  1  0  0  0  0
 21 43  1  0  0  0  0
 21 44  1  0  0  0  0
 22 45  1  0  0  0  0
 22 46  1  0  0  0  0
M  CHG  1   4  -1
M  CHG  1  15   1
M  CHG  1  17   1
M  END
> <s_m_source_file>
AV-unprocessed.smi

> <i_m_source_file_index>
1239

> <i_lp_mmshare_version>
43012

> <i_f3d_flags>
0

> <s_epik_input>
W0NIMl0xW0NIMl1PW0NIMl1bQ0gyXU4xW0NASF0oW0NIM10pW0NIMl1bTkhdQyg9TylbTkhdYzJbY0hdW2NIXWMoTihbQ0gzXSlbQ0gzXSluW2NIXTI=

> <s_epik_cmdline>
J2VwaWtfcHl0aG9uJywgJy1waCcsICc3LjAnLCAnLXRuJywgJzgnLCAnLW1hJywgJzIwMCcsICctbWV0YWxfYmluZGluZycsICctaW1hZScsICc8aW5maWxlLm1hZT4nLCAnLW9tYWUnLCAnPG91dGZpbGUubWFlPic=

> <r_lp_tautomer_probability>
0.999994

> <r_epik_Ionization_Penalty>
7.43905

> <r_epik_Ionization_Penalty_Charging>
7.43905

> <r_epik_Ionization_Penalty_Neutral>
3.43851e-06

> <r_epik_State_Penalty>
7.63789

> <r_epik_Charging_Adjusted_Penalty>
15.0769

> <i_epik_Tot_Q>
1

> <i_epik_Tot_abs_Q>
3

> <r_epik_Metal_State_Penalty>
3.83826

> <b_epik_Metal_Only>
1

> <s_lp_Force_Field>
OPLS_2005

> <r_lp_Energy>
24.2949

> <b_lp_Chiralities_Consistent>
1

> <s_lp_Variant>
AV-unprocessed.smi:1239-9

> <Gold.Version>
5.8.1

> <Gold.Id.Protein>
6NUR|6NUR_protein|mol2

> <Gold.PLP.Fitness>
49.3899

> <Gold.PLP.PLP>
-37.1349

> <Gold.PLP.part.hbond>
-3.0000

> <Gold.PLP.part.metal>
0.0000

> <Gold.PLP.part.buried>
-5.5573

> <Gold.PLP.part.nonpolar>
-29.2335

> <Gold.PLP.part.repulsive>
0.2940

> <Gold.PLP.ligand.clash>
0.0000

> <Gold.PLP.ligand.torsion>
1.0678

> <Gold.PLP.Chemscore.Hbond>
4.7133

> <Gold.PLP.Chemscore.CHOScore>
0.0000

> <Gold.PLP.Chemscore.Metal>
0.0000

> <Gold.Chemscore.Hbonds>
donor molecule, donor type, donor heavy atom, donor atom, acceptor molecule, acceptor atom, score
      L1  H    17    48       P1  7948  2.00
      P1  H  7997  8008       L1     6  0.49
      P1  H 10752 10765       L1     4  2.00

> <Gold.PLP.Chemscore.Internal.Correction>
0.2508

> <Gold.Rescore>
     Score         DG    S(hbond)    S(metal)    S(lipo)     H(rot)  DE(clash)    DE(int)     intcor
     16.38     -18.67       2.36        0.00      77.74       1.48       0.04       2.25       ----

> <Gold.Chemscore.Fitness>
16.3805

> <Gold.Chemscore.DG>
-18.6749

> <Gold.Chemscore.ZeroCoef>
-5.4800

> <Gold.Chemscore.Hbond>
2.3638

> <Gold.Chemscore.Metal>
0.0000

> <Gold.Chemscore.Lipo>
77.7438

> <Gold.Chemscore.Internal_Hbond>
0.0000

> <Gold.Chemscore.DEClash>
0.0432

> <Gold.Chemscore.DEInternal>
2.2512

> <Gold.Chemscore.Rot>
1.4830

> <Gold.Chemscore.Internal.Correction>
   9.000000E+99

> <Gold.Chemscore.Hbonds>
donor molecule, donor type, donor heavy atom, donor atom, acceptor molecule, acceptor atom, score
      L1  H    17    48       P1  7948  0.40
      P1  H  7997  8008       L1     6  0.45
      P1  H 10752 10765       L1     4  0.43

> <Gold.Chemscore.Hbond.Weighted>
-7.8953

> <Gold.Chemscore.Metal.Weighted>
-0.0000

> <Gold.Chemscore.Lipo.Weighted>
-9.0960

> <Gold.Chemscore.Internal_Hbond.Weighted>
0.0000

> <Gold.Chemscore.DEClash.Weighted>
0.0432

> <Gold.Chemscore.DEInternal.Weighted>
2.2512

> <Gold.Chemscore.Rot.Weighted>
3.7964

> <Gold.Chemscore.Internal.Correction.Weighted>
   9.000000E+99

> <Gold.Protein.RotatedTorsions>
[ 6907 6896 6895 6894 ] final  -55.02 input  -60.11 | X-H torsion
[ 7974 7965 7964 7962 ] final  -84.60 input  175.53 | X-H torsion
[ 8008 7997 7996 7995 ] final  -71.57 input   59.86 | X-H torsion
[ 10167 10162 10161 10158 ] final  124.44 input  -65.29 | X-H torsion
[ 10718 10713 10712 10709 ] final -118.91 input   66.30 | X-H torsion
[ 10763 10752 10751 10750 ] final -169.83 input  -60.55 | X-H torsion
[ 11005 11000 10999 10996 ] final  -35.93 input  -57.11 | X-H torsion

> <Gold.Protein.ActiveResidues>
 VAL166  LYS551  ARG553  GLY616  TRP617  ASP618  TYR619  PRO620  LYS621  CYS622 
 ASP623  PHE694  ASN695  SER759  ASP760  ASP761  ALA762  ILE779  LEU786  VAL792 
 PHE793  MET794  SER795  GLU796  ALA797  LYS798  CYS799  TRP800  GLU811  SER814 

> <Gold.Protein.RotatedAtoms>
  150.8287  134.7531  159.6834 H   0  0  0  0  0  0  0  0  0  0  0  0  # atno 6907 bound_to 6896
  152.4395  134.5617  159.9906 H   0  0  0  0  0  0  0  0  0  0  0  0  # atno 6908 bound_to 6896
  151.5783  133.3343  159.3039 H   0  0  0  0  0  0  0  0  0  0  0  0  # atno 6909 bound_to 6896
  145.5044  140.9545  143.1742 H   0  0  0  0  0  0  0  0  0  0  0  0  # atno 7974 bound_to 7965
  154.5098  140.0813  156.7967 H   0  0  0  0  0  0  0  0  0  0  0  0  # atno 8008 bound_to 7997
  155.3811  140.3428  155.4228 H   0  0  0  0  0  0  0  0  0  0  0  0  # atno 8009 bound_to 7997
  156.1559  140.1573  156.8680 H   0  0  0  0  0  0  0  0  0  0  0  0  # atno 8010 bound_to 7997
  139.5741  144.6954  151.3699 H   0  0  0  0  0  0  0  0  0  0  0  0  # atno 10167 bound_to 10162
  156.1141  130.6272  150.9350 H   0  0  0  0  0  0  0  0  0  0  0  0  # atno 10718 bound_to 10713
  154.6480  135.2907  155.0022 H   0  0  0  0  0  0  0  0  0  0  0  0  # atno 10763 bound_to 10752
  154.1125  135.6560  153.4891 H   0  0  0  0  0  0  0  0  0  0  0  0  # atno 10764 bound_to 10752
  153.0361  135.5268  154.7376 H   0  0  0  0  0  0  0  0  0  0  0  0  # atno 10765 bound_to 10752
  140.9835  133.7043  156.1725 H   0  0  0  0  0  0  0  0  0  0  0  0  # atno 11005 bound_to 11000
  144.7762  139.6625  143.7174 LP  0  0  0  0  0  0  0  0  0  0  0  0  # atno 17320 bound_to 7965
  146.2206  139.5628  142.9621 LP  0  0  0  0  0  0  0  0  0  0  0  0  # atno 17321 bound_to 7965
  140.7025  143.7597  150.7426 LP  0  0  0  0  0  0  0  0  0  0  0  0  # atno 17342 bound_to 10162
  140.1111  143.4698  152.2369 LP  0  0  0  0  0  0  0  0  0  0  0  0  # atno 17343 bound_to 10162
  157.6324  131.0919  150.8416 LP  0  0  0  0  0  0  0  0  0  0  0  0  # atno 17370 bound_to 10713
  156.8522  130.5084  149.5311 LP  0  0  0  0  0  0  0  0  0  0  0  0  # atno 17371 bound_to 10713
  140.7150  134.4420  157.5579 LP  0  0  0  0  0  0  0  0  0  0  0  0  # atno 17394 bound_to 11000
  139.8960  134.8669  156.2105 LP  0  0  0  0  0  0  0  0  0  0  0  0  # atno 17395 bound_to 11000

$$$$
