AV-unprocessed.smi:38|AV-procd|sdf|346|dock7
  -GOLD-   2262016183D 1   1.00000     0.00000
 Structure written by MMmdl.
 27 28  0  0  0  0  0  0  0  0  2 V2000
  153.3011  135.3794  158.2651 O   0  0  0  0  0  0  0  0  0  0  0  0
  152.9899  136.4483  157.7414 C   0  0  0  0  0  0  0  0  0  0  0  0
  152.9044  136.6114  156.3895 N   0  5  0  0  0  0  0  0  0  0  0  0
  152.5613  137.7993  155.8102 C   0  0  0  0  0  0  0  0  0  0  0  0
  152.4799  137.9541  154.5914 O   0  0  0  0  0  0  0  0  0  0  0  0
  152.2848  138.9184  156.6433 N   0  0  0  0  0  0  0  0  0  0  0  0
  151.9041  140.2344  155.9926 C   0  0  2  0  0  0  0  0  0  0  0  0
  151.3933  141.2352  157.0458 C   0  0  0  0  0  0  0  0  0  0  0  0
  150.0598  141.6917  156.4805 C   0  0  1  0  0  0  0  0  0  0  0  0
  150.2169  142.8741  155.7183 O   0  0  0  0  0  0  0  0  0  0  0  0
  149.6381  140.4969  155.6174 C   0  0  1  0  0  0  0  0  0  0  0  0
  148.6112  140.7683  154.5041 C   0  0  0  0  0  0  0  0  0  0  0  0
  149.2610  141.2066  153.3293 O   0  0  0  0  0  0  0  0  0  0  0  0
  150.8679  140.0307  155.0744 O   0  0  0  0  0  0  0  0  0  0  0  0
  152.3567  138.7786  158.0204 C   0  0  0  0  0  0  0  0  0  0  0  0
  152.6949  137.6027  158.5879 C   0  0  0  0  0  0  0  0  0  0  0  0
  152.7564  137.4992  159.9268 F   0  0  0  0  0  0  0  0  0  0  0  0
  152.7947  140.5676  155.4571 H   0  0  0  0  0  0  0  0  0  0  0  0
  149.3353  141.8906  157.2707 H   0  0  0  0  0  0  0  0  0  0  0  0
  149.2526  139.7148  156.2737 H   0  0  0  0  0  0  0  0  0  0  0  0
  151.2384  140.7234  157.9969 H   0  0  0  0  0  0  0  0  0  0  0  0
  152.1095  142.0431  157.2009 H   0  0  0  0  0  0  0  0  0  0  0  0
  149.4558  143.4183  155.8514 H   0  0  0  0  0  0  0  0  0  0  0  0
  148.0138  139.8834  154.2853 H   0  0  0  0  0  0  0  0  0  0  0  0
  147.9177  141.5468  154.8230 H   0  0  0  0  0  0  0  0  0  0  0  0
  149.4113  140.4580  152.7725 H   0  0  0  0  0  0  0  0  0  0  0  0
  152.1402  139.6131  158.6692 H   0  0  0  0  0  0  0  0  0  0  0  0
  1  2  2  0  0  0  0
  2 16  1  0  0  0  0
  2  3  1  0  0  0  0
  3  4  1  0  0  0  0
  4  5  2  0  0  0  0
  4  6  1  0  0  0  0
  6  7  1  0  0  0  0
  6 15  1  0  0  0  0
  7 18  1  0  0  0  0
  7 14  1  0  0  0  0
  7  8  1  0  0  0  0
  8  9  1  0  0  0  0
  8 21  1  0  0  0  0
  8 22  1  0  0  0  0
  9 19  1  0  0  0  0
  9 10  1  0  0  0  0
  9 11  1  0  0  0  0
 10 23  1  0  0  0  0
 11 20  1  0  0  0  0
 11 12  1  0  0  0  0
 11 14  1  0  0  0  0
 12 13  1  0  0  0  0
 12 24  1  0  0  0  0
 12 25  1  0  0  0  0
 13 26  1  0  0  0  0
 15 16  2  0  0  0  0
 15 27  1  0  0  0  0
 16 17  1  0  0  0  0
M  CHG  1   3  -1
M  END
> <s_m_source_file>
AV-unprocessed.smi

> <i_m_source_file_index>
38

> <i_lp_mmshare_version>
43012

> <i_f3d_flags>
0

> <s_epik_input>
Tz1jMVtuSF1jKD1PKW4oW2NIXWMxRilbQ0BIXTJbQ0gyXVtDQEhdKFtPSF0pW0NASF0oTzIpW0NIMl1bT0hd

> <s_epik_cmdline>
J2VwaWtfcHl0aG9uJywgJy1waCcsICc3LjAnLCAnLXRuJywgJzgnLCAnLW1hJywgJzIwMCcsICctbWV0YWxfYmluZGluZycsICctaW1hZScsICc8aW5maWxlLm1hZT4nLCAnLW9tYWUnLCAnPG91dGZpbGUubWFlPic=

> <r_epik_Ionization_Penalty>
1.68146

> <r_epik_Ionization_Penalty_Charging>
3.4211e-08

> <r_epik_Ionization_Penalty_Neutral>
1.68146

> <r_epik_State_Penalty>
1.78593

> <r_epik_Charging_Adjusted_Penalty>
1.78593

> <i_epik_Tot_Q>
-1

> <i_epik_Tot_abs_Q>
1

> <r_epik_Metal_State_Penalty>
0.0113696

> <b_epik_Metal_Only>
0

> <s_epik_Chemistry_Notes>
This compound contains an acetal/aminal-like group ( X-CH(R)-Y where X, Y are N, S, or O) that may be acid/base labile, releasing an aldehyde.

> <s_lp_Force_Field>
OPLS_2005

> <r_lp_Energy>
41.2481

> <b_lp_Chiralities_Consistent>
1

> <s_lp_Variant>
AV-unprocessed.smi:38-12

> <Gold.Version>
5.8.1

> <Gold.Id.Protein>
6NUR|6NUR_protein|mol2

> <Gold.PLP.Fitness>
42.7694

> <Gold.PLP.PLP>
-25.9399

> <Gold.PLP.part.hbond>
-6.8468

> <Gold.PLP.part.metal>
0.0000

> <Gold.PLP.part.buried>
-4.2566

> <Gold.PLP.part.nonpolar>
-15.9217

> <Gold.PLP.part.repulsive>
0.1168

> <Gold.PLP.ligand.clash>
0.0000

> <Gold.PLP.ligand.torsion>
0.4799

> <Gold.PLP.Chemscore.Hbond>
5.9285

> <Gold.PLP.Chemscore.CHOScore>
0.0000

> <Gold.PLP.Chemscore.Metal>
0.0000

> <Gold.Chemscore.Hbonds>
donor molecule, donor type, donor heavy atom, donor atom, acceptor molecule, acceptor atom, score
      L1  H    10    23       P1  8028  0.70
      L1  H    13    26       P1  7957  0.82
      P1  H  6896  6908       L1     1  0.43
      P1  H  7989  7998       L1    14  1.00
      P1  H  8011  8017       L1    13  1.00
      P1  H 10752 10765       L1     3  1.98

> <Gold.PLP.Chemscore.Internal.Correction>
0.0037

> <Gold.Rescore>
     Score         DG    S(hbond)    S(metal)    S(lipo)     H(rot)  DE(clash)    DE(int)     intcor
     12.80     -15.10       3.87        0.00      34.65       2.88       0.05       2.24       ----

> <Gold.Chemscore.Fitness>
12.8050

> <Gold.Chemscore.DG>
-15.0991

> <Gold.Chemscore.ZeroCoef>
-5.4800

> <Gold.Chemscore.Hbond>
3.8747

> <Gold.Chemscore.Metal>
0.0000

> <Gold.Chemscore.Lipo>
34.6508

> <Gold.Chemscore.Internal_Hbond>
0.0000

> <Gold.Chemscore.DEClash>
0.0515

> <Gold.Chemscore.DEInternal>
2.2426

> <Gold.Chemscore.Rot>
2.8815

> <Gold.Chemscore.Internal.Correction>
   9.000000E+99

> <Gold.Chemscore.Hbonds>
donor molecule, donor type, donor heavy atom, donor atom, acceptor molecule, acceptor atom, score
      L1  H    10    23       P1  8028  0.66
      L1  H    13    26       P1  7957  0.81
      P1  H  6896  6908       L1     1  0.41
      P1  H  7989  7998       L1    14  0.25
      P1  H  8011  8017       L1    13  0.25
      P1  H 10752 10765       L1     3  0.76

> <Gold.Chemscore.Hbond.Weighted>
-12.9414

> <Gold.Chemscore.Metal.Weighted>
-0.0000

> <Gold.Chemscore.Lipo.Weighted>
-4.0541

> <Gold.Chemscore.Internal_Hbond.Weighted>
0.0000

> <Gold.Chemscore.DEClash.Weighted>
0.0515

> <Gold.Chemscore.DEInternal.Weighted>
2.2426

> <Gold.Chemscore.Rot.Weighted>
7.3765

> <Gold.Chemscore.Internal.Correction.Weighted>
   9.000000E+99

> <Gold.Protein.RotatedTorsions>
[ 6907 6896 6895 6894 ] final  -52.03 input  -60.11 | X-H torsion
[ 7974 7965 7964 7962 ] final  -17.67 input  175.53 | X-H torsion
[ 8008 7997 7996 7995 ] final   67.95 input   59.86 | X-H torsion
[ 10167 10162 10161 10158 ] final  142.60 input  -65.29 | X-H torsion
[ 10718 10713 10712 10709 ] final -102.86 input   66.30 | X-H torsion
[ 10763 10752 10751 10750 ] final -134.61 input  -60.55 | X-H torsion
[ 11005 11000 10999 10996 ] final  -53.43 input  -57.11 | X-H torsion

> <Gold.Protein.ActiveResidues>
 VAL166  LYS551  ARG553  GLY616  TRP617  ASP618  TYR619  PRO620  LYS621  CYS622 
 ASP623  PHE694  ASN695  SER759  ASP760  ASP761  ALA762  ILE779  LEU786  VAL792 
 PHE793  MET794  SER795  GLU796  ALA797  LYS798  CYS799  TRP800  GLU811  SER814 

> <Gold.Protein.RotatedAtoms>
  150.8556  134.7894  159.7042 H   0  0  0  0  0  0  0  0  0  0  0  0  # atno 6907 bound_to 6896
  152.4608  134.5184  159.9785 H   0  0  0  0  0  0  0  0  0  0  0  0  # atno 6908 bound_to 6896
  151.5297  133.3413  159.2951 H   0  0  0  0  0  0  0  0  0  0  0  0  # atno 6909 bound_to 6896
  146.1930  140.3812  142.8451 H   0  0  0  0  0  0  0  0  0  0  0  0  # atno 7974 bound_to 7965
  155.7008  140.3495  155.4932 H   0  0  0  0  0  0  0  0  0  0  0  0  # atno 8008 bound_to 7997
  155.9442  140.1107  157.1053 H   0  0  0  0  0  0  0  0  0  0  0  0  # atno 8009 bound_to 7997
  154.4108  140.1207  156.4953 H   0  0  0  0  0  0  0  0  0  0  0  0  # atno 8010 bound_to 7997
  139.4990  144.6096  151.6301 H   0  0  0  0  0  0  0  0  0  0  0  0  # atno 10167 bound_to 10162
  156.0244  130.5440  150.7169 H   0  0  0  0  0  0  0  0  0  0  0  0  # atno 10718 bound_to 10713
  154.8716  135.3729  154.4763 H   0  0  0  0  0  0  0  0  0  0  0  0  # atno 10763 bound_to 10752
  153.5420  135.7026  153.5637 H   0  0  0  0  0  0  0  0  0  0  0  0  # atno 10764 bound_to 10752
  153.3794  135.4000  155.1811 H   0  0  0  0  0  0  0  0  0  0  0  0  # atno 10765 bound_to 10752
  141.0976  133.6622  156.4171 H   0  0  0  0  0  0  0  0  0  0  0  0  # atno 11005 bound_to 11000
  144.8523  140.7020  143.6160 LP  0  0  0  0  0  0  0  0  0  0  0  0  # atno 17320 bound_to 7965
  145.3734  139.1653  143.4320 LP  0  0  0  0  0  0  0  0  0  0  0  0  # atno 17321 bound_to 7965
  140.5767  144.0016  150.6246 LP  0  0  0  0  0  0  0  0  0  0  0  0  # atno 17342 bound_to 10162
  140.3151  143.3173  152.0840 LP  0  0  0  0  0  0  0  0  0  0  0  0  # atno 17343 bound_to 10162
  157.4794  131.0901  151.0553 LP  0  0  0  0  0  0  0  0  0  0  0  0  # atno 17370 bound_to 10713
  157.0991  130.5974  149.5456 LP  0  0  0  0  0  0  0  0  0  0  0  0  # atno 17371 bound_to 10713
  140.5103  134.6402  157.5281 LP  0  0  0  0  0  0  0  0  0  0  0  0  # atno 17394 bound_to 11000
  139.9817  134.7127  155.9848 LP  0  0  0  0  0  0  0  0  0  0  0  0  # atno 17395 bound_to 11000

$$$$
