AV-unprocessed.smi:47|AV-procd|sdf|440|dock3
  -GOLD-   2262016313D 1   1.00000     0.00000
 Structure written by MMmdl.
 32 34  0  0  0  0  0  0  0  0  2 V2000
  145.2217  140.3287  154.2865 O   0  0  0  0  0  0  0  0  0  0  0  0
  146.4472  140.7535  153.7293 C   0  0  2  0  0  0  0  0  0  0  0  0
  147.3566  139.5740  153.3656 C   0  0  0  0  0  0  0  0  0  0  0  0
  148.7428  140.0609  153.5184 N   0  3  0  0  0  0  0  0  0  0  0  0
  148.6972  141.3949  154.1537 C   0  0  2  0  0  0  0  0  0  0  0  0
  149.7968  141.3908  155.1735 C   0  0  0  0  0  0  0  0  0  0  0  0
  150.7443  140.4578  155.2963 N   0  0  0  0  0  0  0  0  0  0  0  0
  151.5180  140.8623  156.3675 N   0  0  0  0  0  0  0  0  0  0  0  0
  150.9808  142.0060  156.8161 C   0  0  0  0  0  0  0  0  0  0  0  0
  151.5013  142.7688  157.9530 C   0  0  0  0  0  0  0  0  0  0  0  0
  151.6259  144.1756  157.8757 C   0  0  0  0  0  0  0  0  0  0  0  0
  152.1230  144.9101  158.9698 C   0  0  0  0  0  0  0  0  0  0  0  0
  152.4985  144.2469  160.1528 C   0  0  0  0  0  0  0  0  0  0  0  0
  152.3767  142.8477  160.2406 C   0  0  0  0  0  0  0  0  0  0  0  0
  151.8808  142.1119  159.1468 C   0  0  0  0  0  0  0  0  0  0  0  0
  149.9052  142.3617  156.0906 N   0  0  0  0  0  0  0  0  0  0  0  0
  147.2860  141.5486  154.7252 C   0  0  0  0  0  0  0  0  0  0  0  0
  146.2549  141.3602  152.8432 H   0  0  0  0  0  0  0  0  0  0  0  0
  148.8854  142.1513  153.3902 H   0  0  0  0  0  0  0  0  0  0  0  0
  149.3149  143.1712  156.2167 H   0  0  0  0  0  0  0  0  0  0  0  0
  144.5629  140.3263  153.6083 H   0  0  0  0  0  0  0  0  0  0  0  0
  147.2163  138.7478  154.0644 H   0  0  0  0  0  0  0  0  0  0  0  0
  147.1698  139.1984  152.3594 H   0  0  0  0  0  0  0  0  0  0  0  0
  149.2488  139.4231  154.1172 H   0  0  0  0  0  0  0  0  0  0  0  0
  151.3445  144.7060  156.9781 H   0  0  0  0  0  0  0  0  0  0  0  0
  152.2164  145.9840  158.9014 H   0  0  0  0  0  0  0  0  0  0  0  0
  152.8792  144.8108  160.9919 H   0  0  0  0  0  0  0  0  0  0  0  0
  152.6633  142.3374  161.1484 H   0  0  0  0  0  0  0  0  0  0  0  0
  151.7938  141.0391  159.2369 H   0  0  0  0  0  0  0  0  0  0  0  0
  146.9754  142.5885  154.8315 H   0  0  0  0  0  0  0  0  0  0  0  0
  147.2261  141.0775  155.7085 H   0  0  0  0  0  0  0  0  0  0  0  0
  149.2019  140.1234  152.6212 H   0  0  0  0  0  0  0  0  0  0  0  0
  1  2  1  0  0  0  0
  1 21  1  0  0  0  0
  2 18  1  0  0  0  0
  2 17  1  0  0  0  0
  2  3  1  0  0  0  0
  3  4  1  0  0  0  0
  3 22  1  0  0  0  0
  3 23  1  0  0  0  0
  4  5  1  0  0  0  0
  4 24  1  0  0  0  0
  4 32  1  0  0  0  0
  5 19  1  0  0  0  0
  5 17  1  0  0  0  0
  5  6  1  0  0  0  0
  6  7  2  0  0  0  0
  6 16  1  0  0  0  0
  7  8  1  0  0  0  0
  8  9  2  0  0  0  0
  9 16  1  0  0  0  0
  9 10  1  0  0  0  0
 10 15  1  0  0  0  0
 10 11  2  0  0  0  0
 11 12  1  0  0  0  0
 11 25  1  0  0  0  0
 12 13  2  0  0  0  0
 12 26  1  0  0  0  0
 13 14  1  0  0  0  0
 13 27  1  0  0  0  0
 14 15  2  0  0  0  0
 14 28  1  0  0  0  0
 15 29  1  0  0  0  0
 16 20  1  0  0  0  0
 17 30  1  0  0  0  0
 17 31  1  0  0  0  0
M  CHG  1   4   1
M  END
> <s_m_source_file>
AV-unprocessed.smi

> <i_m_source_file_index>
47

> <i_lp_mmshare_version>
43012

> <i_f3d_flags>
0

> <s_epik_input>
W09IXVtDQEhdMVtDSDJdW05IXVtDQEBIXShbQ0gyXTEpYzJuW25IXWMobjIpLWMzW2NIXVtjSF1bY0hdW2NIXVtjSF0z

> <s_epik_cmdline>
J2VwaWtfcHl0aG9uJywgJy1waCcsICc3LjAnLCAnLXRuJywgJzgnLCAnLW1hJywgJzIwMCcsICctbWV0YWxfYmluZGluZycsICctaW1hZScsICc8aW5maWxlLm1hZT4nLCAnLW9tYWUnLCAnPG91dGZpbGUubWFlPic=

> <r_lp_tautomer_probability>
0.0517155

> <r_epik_Ionization_Penalty>
2.45729

> <r_epik_Ionization_Penalty_Charging>
0.0688988

> <r_epik_Ionization_Penalty_Neutral>
2.3884

> <r_epik_State_Penalty>
2.69236

> <r_epik_Charging_Adjusted_Penalty>
2.76126

> <i_epik_Tot_Q>
1

> <i_epik_Tot_abs_Q>
1

> <r_epik_Metal_State_Penalty>
3.18974

> <b_epik_Metal_Only>
0

> <s_lp_Force_Field>
OPLS_2005

> <r_lp_Energy>
28.8935

> <b_lp_Chiralities_Consistent>
1

> <s_lp_Variant>
AV-unprocessed.smi:47-18

> <Gold.Version>
5.8.1

> <Gold.Id.Protein>
6NUR|6NUR_protein|mol2

> <Gold.PLP.Fitness>
48.2126

> <Gold.PLP.PLP>
-38.6498

> <Gold.PLP.part.hbond>
-3.8918

> <Gold.PLP.part.metal>
0.0000

> <Gold.PLP.part.buried>
-2.7834

> <Gold.PLP.part.nonpolar>
-31.9433

> <Gold.PLP.part.repulsive>
0.3122

> <Gold.PLP.ligand.clash>
0.0000

> <Gold.PLP.ligand.torsion>
0.8996

> <Gold.PLP.Chemscore.Hbond>
3.7833

> <Gold.PLP.Chemscore.CHOScore>
0.0000

> <Gold.PLP.Chemscore.Metal>
0.0000

> <Gold.Chemscore.Hbonds>
donor molecule, donor type, donor heavy atom, donor atom, acceptor molecule, acceptor atom, score
      L1  H     1    21       P1 10175  0.76
      L1  H     4    32       P1  7957  0.98
      L1  H    16    20       P1  8028  0.94
      P1  H  7989  7998       L1     7  0.73

> <Gold.PLP.Chemscore.Internal.Correction>
0.0123

> <Gold.Rescore>
     Score         DG    S(hbond)    S(metal)    S(lipo)     H(rot)  DE(clash)    DE(int)     intcor
     21.77     -22.64       2.93        0.00      95.88       1.50       0.17       0.71       ----

> <Gold.Chemscore.Fitness>
21.7667

> <Gold.Chemscore.DG>
-22.6396

> <Gold.Chemscore.ZeroCoef>
-5.4800

> <Gold.Chemscore.Hbond>
2.9261

> <Gold.Chemscore.Metal>
0.0000

> <Gold.Chemscore.Lipo>
95.8776

> <Gold.Chemscore.Internal_Hbond>
0.0000

> <Gold.Chemscore.DEClash>
0.1663

> <Gold.Chemscore.DEInternal>
0.7066

> <Gold.Chemscore.Rot>
1.4966

> <Gold.Chemscore.Internal.Correction>
   9.000000E+99

> <Gold.Chemscore.Hbonds>
donor molecule, donor type, donor heavy atom, donor atom, acceptor molecule, acceptor atom, score
      L1  H     1    21       P1 10175  0.77
      L1  H     4    32       P1  7957  0.91
      L1  H    16    20       P1  8028  0.91
      P1  H  7989  7998       L1     7  0.07

> <Gold.Chemscore.Hbond.Weighted>
-9.7731

> <Gold.Chemscore.Metal.Weighted>
-0.0000

> <Gold.Chemscore.Lipo.Weighted>
-11.2177

> <Gold.Chemscore.Internal_Hbond.Weighted>
0.0000

> <Gold.Chemscore.DEClash.Weighted>
0.1663

> <Gold.Chemscore.DEInternal.Weighted>
0.7066

> <Gold.Chemscore.Rot.Weighted>
3.8312

> <Gold.Chemscore.Internal.Correction.Weighted>
   9.000000E+99

> <Gold.Protein.RotatedTorsions>
[ 6907 6896 6895 6894 ] final   39.36 input  -60.11 | X-H torsion
[ 7974 7965 7964 7962 ] final -172.21 input  175.53 | X-H torsion
[ 8008 7997 7996 7995 ] final  -47.61 input   59.86 | X-H torsion
[ 10167 10162 10161 10158 ] final   38.88 input  -65.29 | X-H torsion
[ 10718 10713 10712 10709 ] final   77.79 input   66.30 | X-H torsion
[ 10763 10752 10751 10750 ] final   58.10 input  -60.55 | X-H torsion
[ 11005 11000 10999 10996 ] final    6.79 input  -57.11 | X-H torsion

> <Gold.Protein.ActiveResidues>
 VAL166  LYS551  ARG553  GLY616  TRP617  ASP618  TYR619  PRO620  LYS621  CYS622 
 ASP623  PHE694  ASN695  SER759  ASP760  ASP761  ALA762  ILE779  LEU786  VAL792 
 PHE793  MET794  SER795  GLU796  ALA797  LYS798  CYS799  TRP800  GLU811  SER814 

> <Gold.Protein.RotatedAtoms>
  152.1685  134.8854  160.0536 H   0  0  0  0  0  0  0  0  0  0  0  0  # atno 6907 bound_to 6896
  151.9823  133.3757  159.4120 H   0  0  0  0  0  0  0  0  0  0  0  0  # atno 6908 bound_to 6896
  150.6898  134.3949  159.5136 H   0  0  0  0  0  0  0  0  0  0  0  0  # atno 6909 bound_to 6896
  144.7148  140.1807  143.6358 H   0  0  0  0  0  0  0  0  0  0  0  0  # atno 7974 bound_to 7965
  154.4019  140.1342  156.4204 H   0  0  0  0  0  0  0  0  0  0  0  0  # atno 8008 bound_to 7997
  155.7648  140.3485  155.5196 H   0  0  0  0  0  0  0  0  0  0  0  0  # atno 8009 bound_to 7997
  155.8824  140.0989  157.1466 H   0  0  0  0  0  0  0  0  0  0  0  0  # atno 8010 bound_to 7997
  140.3894  144.1873  150.6130 H   0  0  0  0  0  0  0  0  0  0  0  0  # atno 10167 bound_to 10162
  157.6723  130.9838  150.1693 H   0  0  0  0  0  0  0  0  0  0  0  0  # atno 10718 bound_to 10713
  152.9863  135.5618  154.5498 H   0  0  0  0  0  0  0  0  0  0  0  0  # atno 10763 bound_to 10752
  154.4937  135.2794  155.1478 H   0  0  0  0  0  0  0  0  0  0  0  0  # atno 10764 bound_to 10752
  154.2937  135.6321  153.5449 H   0  0  0  0  0  0  0  0  0  0  0  0  # atno 10765 bound_to 10752
  140.5555  134.0242  155.7952 H   0  0  0  0  0  0  0  0  0  0  0  0  # atno 11005 bound_to 11000
  145.8859  139.2348  143.1578 LP  0  0  0  0  0  0  0  0  0  0  0  0  # atno 17320 bound_to 7965
  145.9950  140.8570  143.0047 LP  0  0  0  0  0  0  0  0  0  0  0  0  # atno 17321 bound_to 7965
  140.4856  143.2364  151.8893 LP  0  0  0  0  0  0  0  0  0  0  0  0  # atno 17342 bound_to 10162
  139.4790  144.5222  151.8785 LP  0  0  0  0  0  0  0  0  0  0  0  0  # atno 17343 bound_to 10162
  156.2451  130.3695  149.8294 LP  0  0  0  0  0  0  0  0  0  0  0  0  # atno 17370 bound_to 10713
  156.6083  130.8576  151.3448 LP  0  0  0  0  0  0  0  0  0  0  0  0  # atno 17371 bound_to 10713
  141.1146  133.9561  157.2846 LP  0  0  0  0  0  0  0  0  0  0  0  0  # atno 17394 bound_to 11000
  139.9434  135.0188  156.8778 LP  0  0  0  0  0  0  0  0  0  0  0  0  # atno 17395 bound_to 11000

$$$$
