AV-unprocessed.smi:3328|AV-procd|sdf|12794|dock2
  -GOLD-   2272019143D 1   1.00000     0.00000
 Structure written by MMmdl.
 40 41  0  0  0  0  0  0  0  0  1 V2000
  153.7876  142.1360  162.1883 C   0  0  0  0  0  0  0  0  0  0  0  0
  152.9065  142.8762  161.2239 C   0  0  0  0  0  0  0  0  0  0  0  0
  152.1921  144.0871  161.4474 C   0  0  0  0  0  0  0  0  0  0  0  0
  151.5050  144.4810  160.3886 N   0  0  0  0  0  0  0  0  0  0  0  0
  151.7483  143.5365  159.4550 N   0  0  0  0  0  0  0  0  0  0  0  0
  151.1444  143.6501  158.1360 C   0  0  0  0  0  0  0  0  0  0  0  0
  150.4787  142.3438  157.6313 C   0  0  1  0  0  0  0  0  0  0  0  0
  149.0997  142.0957  158.2635 C   0  0  0  0  0  0  0  0  0  0  0  0
  150.3043  142.3398  156.1831 N   0  0  0  0  0  0  0  0  0  0  0  0
  149.8435  141.0547  155.6760 C   0  0  0  0  0  0  0  0  0  0  0  0
  148.9782  141.2709  154.4228 C   0  0  0  0  0  0  0  0  0  0  0  0
  147.6119  141.6673  154.7624 N   0  0  0  0  0  0  0  0  0  0  0  0
  146.8589  142.5501  153.8873 C   0  0  0  0  0  0  0  0  0  0  0  0
  145.4522  142.6271  154.4986 C   0  0  0  0  0  0  0  0  0  0  0  0
  145.5383  141.9206  155.8564 C   0  0  0  0  0  0  0  0  0  0  0  0
  146.9311  141.3148  155.8589 C   0  0  0  0  0  0  0  0  0  0  0  0
  147.3434  140.5972  156.7691 O   0  0  0  0  0  0  0  0  0  0  0  0
  152.5990  142.5608  159.9305 C   0  0  0  0  0  0  0  0  0  0  0  0
  153.4151  142.2078  163.2105 H   0  0  0  0  0  0  0  0  0  0  0  0
  154.8037  142.5307  162.1874 H   0  0  0  0  0  0  0  0  0  0  0  0
  153.8535  141.0753  161.9449 H   0  0  0  0  0  0  0  0  0  0  0  0
  152.1544  144.6892  162.3430 H   0  0  0  0  0  0  0  0  0  0  0  0
  150.4385  144.4807  158.1443 H   0  0  0  0  0  0  0  0  0  0  0  0
  151.9282  143.9446  157.4373 H   0  0  0  0  0  0  0  0  0  0  0  0
  151.1178  141.5018  157.9010 H   0  0  0  0  0  0  0  0  0  0  0  0
  149.1640  142.0975  159.3518 H   0  0  0  0  0  0  0  0  0  0  0  0
  148.6990  141.1271  157.9622 H   0  0  0  0  0  0  0  0  0  0  0  0
  148.3745  142.8561  157.9714 H   0  0  0  0  0  0  0  0  0  0  0  0
  149.6408  143.0538  155.9189 H   0  0  0  0  0  0  0  0  0  0  0  0
  150.6787  140.3967  155.4411 H   0  0  0  0  0  0  0  0  0  0  0  0
  149.2558  140.5614  156.4508 H   0  0  0  0  0  0  0  0  0  0  0  0
  149.4229  142.0528  153.8055 H   0  0  0  0  0  0  0  0  0  0  0  0
  148.9655  140.3705  153.8067 H   0  0  0  0  0  0  0  0  0  0  0  0
  147.3320  143.5325  153.8632 H   0  0  0  0  0  0  0  0  0  0  0  0
  146.8308  142.1582  152.8697 H   0  0  0  0  0  0  0  0  0  0  0  0
  145.1221  143.6610  154.6059 H   0  0  0  0  0  0  0  0  0  0  0  0
  144.7324  142.1204  153.8550 H   0  0  0  0  0  0  0  0  0  0  0  0
  145.4410  142.6254  156.6828 H   0  0  0  0  0  0  0  0  0  0  0  0
  144.7770  141.1472  155.9631 H   0  0  0  0  0  0  0  0  0  0  0  0
  152.9081  141.7283  159.3157 H   0  0  0  0  0  0  0  0  0  0  0  0
  1  2  1  0  0  0  0
  1 19  1  0  0  0  0
  1 20  1  0  0  0  0
  1 21  1  0  0  0  0
  2 18  2  0  0  0  0
  2  3  1  0  0  0  0
  3  4  2  0  0  0  0
  3 22  1  0  0  0  0
  4  5  1  0  0  0  0
  5  6  1  0  0  0  0
  5 18  1  0  0  0  0
  6  7  1  0  0  0  0
  6 23  1  0  0  0  0
  6 24  1  0  0  0  0
  7  8  1  0  0  0  0
  7  9  1  0  0  0  0
  7 25  1  0  0  0  0
  8 26  1  0  0  0  0
  8 27  1  0  0  0  0
  8 28  1  0  0  0  0
  9 10  1  0  0  0  0
  9 29  1  0  0  0  0
 10 11  1  0  0  0  0
 10 30  1  0  0  0  0
 10 31  1  0  0  0  0
 11 12  1  0  0  0  0
 11 32  1  0  0  0  0
 11 33  1  0  0  0  0
 12 16  1  0  0  0  0
 12 13  1  0  0  0  0
 13 14  1  0  0  0  0
 13 34  1  0  0  0  0
 13 35  1  0  0  0  0
 14 15  1  0  0  0  0
 14 36  1  0  0  0  0
 14 37  1  0  0  0  0
 15 16  1  0  0  0  0
 15 38  1  0  0  0  0
 15 39  1  0  0  0  0
 16 17  2  0  0  0  0
 18 40  1  0  0  0  0
M  END
> <s_m_source_file>
AV-unprocessed.smi

> <i_m_source_file_index>
3328

> <i_lp_mmshare_version>
43012

> <i_f3d_flags>
0

> <s_epik_input>
W0NIM11jMVtjSF1ubihbY0hdMSlbQ0gyXVtDQEhdKFtDSDNdKVtOSF1bQ0gyXVtDSDJdTjJbQ0gyXVtDSDJdW0NIMl1DMj1P

> <s_epik_cmdline>
J2VwaWtfcHl0aG9uJywgJy1waCcsICc3LjAnLCAnLXRuJywgJzgnLCAnLW1hJywgJzIwMCcsICctbWV0YWxfYmluZGluZycsICctaW1hZScsICc8aW5maWxlLm1hZT4nLCAnLW9tYWUnLCAnPG91dGZpbGUubWFlPic=

> <r_lp_tautomer_probability>
1

> <r_epik_Ionization_Penalty>
2.53591

> <r_epik_Ionization_Penalty_Charging>
0

> <r_epik_Ionization_Penalty_Neutral>
2.53591

> <r_epik_State_Penalty>
2.70334

> <r_epik_Charging_Adjusted_Penalty>
2.70334

> <i_epik_Tot_Q>
0

> <i_epik_Tot_abs_Q>
0

> <r_epik_Metal_State_Penalty>
2.70327

> <b_epik_Metal_Only>
0

> <s_lp_Force_Field>
OPLS_2005

> <r_lp_Energy>
23.1303

> <b_lp_Chiralities_Consistent>
1

> <s_lp_Variant>
AV-unprocessed.smi:3328-4

> <Gold.Version>
5.8.1

> <Gold.Id.Protein>
6NUR|6NUR_protein|mol2

> <Gold.PLP.Fitness>
44.3218

> <Gold.PLP.PLP>
-43.1059

> <Gold.PLP.part.hbond>
-1.0000

> <Gold.PLP.part.metal>
0.0000

> <Gold.PLP.part.buried>
-6.3182

> <Gold.PLP.part.nonpolar>
-36.4061

> <Gold.PLP.part.repulsive>
0.1291

> <Gold.PLP.ligand.clash>
0.0000

> <Gold.PLP.ligand.torsion>
0.9810

> <Gold.PLP.Chemscore.Hbond>
1.0000

> <Gold.PLP.Chemscore.CHOScore>
0.0000

> <Gold.PLP.Chemscore.Metal>
0.0000

> <Gold.Chemscore.Hbonds>
donor molecule, donor type, donor heavy atom, donor atom, acceptor molecule, acceptor atom, score
      L1  H     9    29       P1  8028  1.00

> <Gold.PLP.Chemscore.Internal.Correction>
0.1778

> <Gold.Rescore>
     Score         DG    S(hbond)    S(metal)    S(lipo)     H(rot)  DE(clash)    DE(int)     intcor
     14.69     -15.18       0.98        0.00      96.39       1.89       0.02       0.46       ----

> <Gold.Chemscore.Fitness>
14.6942

> <Gold.Chemscore.DG>
-15.1762

> <Gold.Chemscore.ZeroCoef>
-5.4800

> <Gold.Chemscore.Hbond>
0.9766

> <Gold.Chemscore.Metal>
0.0000

> <Gold.Chemscore.Lipo>
96.3924

> <Gold.Chemscore.Internal_Hbond>
0.0000

> <Gold.Chemscore.DEClash>
0.0232

> <Gold.Chemscore.DEInternal>
0.4587

> <Gold.Chemscore.Rot>
1.8920

> <Gold.Chemscore.Internal.Correction>
   9.000000E+99

> <Gold.Chemscore.Hbonds>
donor molecule, donor type, donor heavy atom, donor atom, acceptor molecule, acceptor atom, score
      L1  H     9    29       P1  8028  1.00

> <Gold.Chemscore.Hbond.Weighted>
-3.2617

> <Gold.Chemscore.Metal.Weighted>
-0.0000

> <Gold.Chemscore.Lipo.Weighted>
-11.2779

> <Gold.Chemscore.Internal_Hbond.Weighted>
0.0000

> <Gold.Chemscore.DEClash.Weighted>
0.0232

> <Gold.Chemscore.DEInternal.Weighted>
0.4587

> <Gold.Chemscore.Rot.Weighted>
4.8435

> <Gold.Chemscore.Internal.Correction.Weighted>
   9.000000E+99

> <Gold.Protein.RotatedTorsions>
[ 6907 6896 6895 6894 ] final -138.08 input  -60.11 | X-H torsion
[ 7974 7965 7964 7962 ] final   -6.13 input  175.53 | X-H torsion
[ 8008 7997 7996 7995 ] final  102.48 input   59.86 | X-H torsion
[ 10167 10162 10161 10158 ] final -159.71 input  -65.29 | X-H torsion
[ 10718 10713 10712 10709 ] final  127.79 input   66.30 | X-H torsion
[ 10763 10752 10751 10750 ] final   84.81 input  -60.55 | X-H torsion
[ 11005 11000 10999 10996 ] final  -82.72 input  -57.11 | X-H torsion

> <Gold.Protein.ActiveResidues>
 VAL166  LYS551  ARG553  GLY616  TRP617  ASP618  TYR619  PRO620  LYS621  CYS622 
 ASP623  PHE694  ASN695  SER759  ASP760  ASP761  ALA762  ILE779  LEU786  VAL792 
 PHE793  MET794  SER795  GLU796  ALA797  LYS798  CYS799  TRP800  GLU811  SER814 

> <Gold.Protein.RotatedAtoms>
  151.0305  133.5794  159.2661 H   0  0  0  0  0  0  0  0  0  0  0  0  # atno 6907 bound_to 6896
  151.2877  135.0732  159.9202 H   0  0  0  0  0  0  0  0  0  0  0  0  # atno 6908 bound_to 6896
  152.5343  134.0009  159.7948 H   0  0  0  0  0  0  0  0  0  0  0  0  # atno 6909 bound_to 6896
  146.2338  140.2124  142.8335 H   0  0  0  0  0  0  0  0  0  0  0  0  # atno 7974 bound_to 7965
  156.1396  140.3180  155.8475 H   0  0  0  0  0  0  0  0  0  0  0  0  # atno 8008 bound_to 7997
  155.4179  140.0510  157.3044 H   0  0  0  0  0  0  0  0  0  0  0  0  # atno 8009 bound_to 7997
  154.4965  140.2113  155.9448 H   0  0  0  0  0  0  0  0  0  0  0  0  # atno 8010 bound_to 7997
  139.6594  143.9939  152.2215 H   0  0  0  0  0  0  0  0  0  0  0  0  # atno 10167 bound_to 10162
  157.5302  131.1098  150.9021 H   0  0  0  0  0  0  0  0  0  0  0  0  # atno 10718 bound_to 10713
  153.1416  135.4640  154.9504 H   0  0  0  0  0  0  0  0  0  0  0  0  # atno 10763 bound_to 10752
  154.7752  135.3171  154.8110 H   0  0  0  0  0  0  0  0  0  0  0  0  # atno 10764 bound_to 10752
  153.8631  135.6910  153.4835 H   0  0  0  0  0  0  0  0  0  0  0  0  # atno 10765 bound_to 10752
  141.1662  133.7258  156.8614 H   0  0  0  0  0  0  0  0  0  0  0  0  # atno 11005 bound_to 11000
  144.9696  140.8355  143.5463 LP  0  0  0  0  0  0  0  0  0  0  0  0  # atno 17320 bound_to 7965
  145.2104  139.2207  143.5146 LP  0  0  0  0  0  0  0  0  0  0  0  0  # atno 17321 bound_to 7965
  139.9675  144.6516  150.8021 LP  0  0  0  0  0  0  0  0  0  0  0  0  # atno 17342 bound_to 10162
  140.7573  143.3084  151.2904 LP  0  0  0  0  0  0  0  0  0  0  0  0  # atno 17343 bound_to 10162
  156.9605  130.5453  149.5286 LP  0  0  0  0  0  0  0  0  0  0  0  0  # atno 17370 bound_to 10713
  156.0417  130.5498  150.8785 LP  0  0  0  0  0  0  0  0  0  0  0  0  # atno 17371 bound_to 10713
  140.1846  134.9009  157.2989 LP  0  0  0  0  0  0  0  0  0  0  0  0  # atno 17394 bound_to 11000
  140.2357  134.3855  155.7502 LP  0  0  0  0  0  0  0  0  0  0  0  0  # atno 17395 bound_to 11000

$$$$
