AV-unprocessed.smi:2923|AV-procd|sdf|11208|dock10
  -GOLD-   2272016103D 1   1.00000     0.00000
 Structure written by MMmdl.
 47 49  0  0  0  0  0  0  0  0  2 V2000
  144.8271  131.4742  151.5309 C   0  0  0  0  0  0  0  0  0  0  0  0
  144.4339  132.5857  150.6718 N   0  0  0  0  0  0  0  0  0  0  0  0
  143.8145  132.3323  149.3777 C   0  0  0  0  0  0  0  0  0  0  0  0
  144.6739  133.9131  151.0879 C   0  0  0  0  0  0  0  0  0  0  0  0
  145.7994  134.2929  151.8596 C   0  0  0  0  0  0  0  0  0  0  0  0
  145.9662  135.6400  152.2407 C   0  0  0  0  0  0  0  0  0  0  0  0
  145.0171  136.6056  151.8456 C   0  0  0  0  0  0  0  0  0  0  0  0
  145.2225  137.9460  152.2719 N   0  0  0  0  0  0  0  0  0  0  0  0
  146.3736  138.5603  152.5952 C   0  0  0  0  0  0  0  0  0  0  0  0
  147.4814  138.0260  152.6346 O   0  0  0  0  0  0  0  0  0  0  0  0
  146.1664  139.8506  152.8882 N   0  0  0  0  0  0  0  0  0  0  0  0
  147.2174  140.7931  153.2524 C   0  0  2  0  0  0  0  0  0  0  0  0
  148.1891  140.2131  154.2805 C   0  0  1  0  0  0  0  0  0  0  0  0
  149.6280  139.8377  154.2645 C   0  0  0  0  0  0  0  0  0  0  0  0
  150.0364  140.5109  155.6024 C   0  0  0  0  0  0  0  0  0  0  0  0
  148.9127  141.3391  155.9902 O   0  0  0  0  0  0  0  0  0  0  0  0
  148.2823  141.6469  154.7639 C   0  0  2  0  0  0  0  0  0  0  0  0
  146.7953  141.8021  154.3867 C   0  0  0  0  0  0  0  0  0  0  0  0
  146.3891  143.1955  153.9063 C   0  0  0  0  0  0  0  0  0  0  0  0
  145.7423  141.3807  155.4319 C   0  0  0  0  0  0  0  0  0  0  0  0
  143.9067  136.1761  151.0803 C   0  0  0  0  0  0  0  0  0  0  0  0
  143.7849  134.8751  150.7391 N   0  3  0  0  0  0  0  0  0  0  0  0
  145.8992  131.5014  151.7282 H   0  0  0  0  0  0  0  0  0  0  0  0
  144.5982  130.5140  151.0681 H   0  0  0  0  0  0  0  0  0  0  0  0
  144.2975  131.5201  152.4830 H   0  0  0  0  0  0  0  0  0  0  0  0
  144.4149  132.7589  148.5738 H   0  0  0  0  0  0  0  0  0  0  0  0
  142.8169  132.7708  149.3393 H   0  0  0  0  0  0  0  0  0  0  0  0
  143.7160  131.2635  149.1872 H   0  0  0  0  0  0  0  0  0  0  0  0
  146.5405  133.5713  152.1695 H   0  0  0  0  0  0  0  0  0  0  0  0
  146.8232  135.9264  152.8330 H   0  0  0  0  0  0  0  0  0  0  0  0
  144.3863  138.5049  152.3578 H   0  0  0  0  0  0  0  0  0  0  0  0
  145.2249  140.2116  152.8400 H   0  0  0  0  0  0  0  0  0  0  0  0
  147.7211  141.2577  152.3995 H   0  0  0  0  0  0  0  0  0  0  0  0
  147.6582  139.5606  154.9779 H   0  0  0  0  0  0  0  0  0  0  0  0
  149.7858  138.7590  154.2721 H   0  0  0  0  0  0  0  0  0  0  0  0
  150.1535  140.2696  153.4117 H   0  0  0  0  0  0  0  0  0  0  0  0
  150.2339  139.7769  156.3842 H   0  0  0  0  0  0  0  0  0  0  0  0
  150.9323  141.1194  155.4739 H   0  0  0  0  0  0  0  0  0  0  0  0
  148.9293  142.2807  154.1464 H   0  0  0  0  0  0  0  0  0  0  0  0
  146.3888  143.9165  154.7244 H   0  0  0  0  0  0  0  0  0  0  0  0
  145.3913  143.1938  153.4667 H   0  0  0  0  0  0  0  0  0  0  0  0
  147.0727  143.5720  153.1452 H   0  0  0  0  0  0  0  0  0  0  0  0
  145.7591  142.0473  156.2947 H   0  0  0  0  0  0  0  0  0  0  0  0
  145.8825  140.3717  155.8153 H   0  0  0  0  0  0  0  0  0  0  0  0
  144.7349  141.4173  155.0159 H   0  0  0  0  0  0  0  0  0  0  0  0
  143.1027  136.8084  150.7356 H   0  0  0  0  0  0  0  0  0  0  0  0
  142.9714  134.6006  150.1881 H   0  0  0  0  0  0  0  0  0  0  0  0
  1  2  1  0  0  0  0
  1 23  1  0  0  0  0
  1 24  1  0  0  0  0
  1 25  1  0  0  0  0
  2  3  1  0  0  0  0
  2  4  1  0  0  0  0
  3 26  1  0  0  0  0
  3 27  1  0  0  0  0
  3 28  1  0  0  0  0
  4 22  1  0  0  0  0
  4  5  2  0  0  0  0
  5  6  1  0  0  0  0
  5 29  1  0  0  0  0
  6  7  2  0  0  0  0
  6 30  1  0  0  0  0
  7  8  1  0  0  0  0
  7 21  1  0  0  0  0
  8  9  1  0  0  0  0
  8 31  1  0  0  0  0
  9 10  2  0  0  0  0
  9 11  1  0  0  0  0
 11 12  1  0  0  0  0
 11 32  1  0  0  0  0
 12 18  1  0  0  0  0
 12 13  1  0  0  0  0
 12 33  1  0  0  0  0
 13 17  1  0  0  0  0
 13 14  1  0  0  0  0
 13 34  1  0  0  0  0
 14 15  1  0  0  0  0
 14 35  1  0  0  0  0
 14 36  1  0  0  0  0
 15 16  1  0  0  0  0
 15 37  1  0  0  0  0
 15 38  1  0  0  0  0
 16 17  1  0  0  0  0
 17 18  1  0  0  0  0
 17 39  1  0  0  0  0
 18 19  1  0  0  0  0
 18 20  1  0  0  0  0
 19 40  1  0  0  0  0
 19 41  1  0  0  0  0
 19 42  1  0  0  0  0
 20 43  1  0  0  0  0
 20 44  1  0  0  0  0
 20 45  1  0  0  0  0
 21 22  2  0  0  0  0
 21 46  1  0  0  0  0
 22 47  1  0  0  0  0
M  CHG  1  22   1
M  END
> <s_m_source_file>
AV-unprocessed.smi

> <i_m_source_file_index>
2923

> <i_lp_mmshare_version>
43012

> <i_f3d_flags>
0

> <s_epik_input>
W0NIM11OKFtDSDNdKWMxW2NIXVtjSF1jKFtjSF1uMSlbTkhdQyg9TylbTkhdW0NASF0yQyhbQ0gzXSkoW0NIM10pW0NAQEhdKFtDQEhdMjMpT1tDSDJdW0NIMl0z

> <s_epik_cmdline>
J2VwaWtfcHl0aG9uJywgJy1waCcsICc3LjAnLCAnLXRuJywgJzgnLCAnLW1hJywgJzIwMCcsICctbWV0YWxfYmluZGluZycsICctaW1hZScsICc8aW5maWxlLm1hZT4nLCAnLW9tYWUnLCAnPG91dGZpbGUubWFlPic=

> <r_lp_tautomer_probability>
0.999994

> <r_epik_Ionization_Penalty>
0.252205

> <r_epik_Ionization_Penalty_Charging>
0.252185

> <r_epik_Ionization_Penalty_Neutral>
1.99479e-05

> <r_epik_State_Penalty>
0.243573

> <r_epik_Charging_Adjusted_Penalty>
0.495758

> <i_epik_Tot_Q>
1

> <i_epik_Tot_abs_Q>
1

> <r_epik_Metal_State_Penalty>
0.534372

> <b_epik_Metal_Only>
0

> <s_lp_Force_Field>
OPLS_2005

> <r_lp_Energy>
68.0101

> <b_lp_Chiralities_Consistent>
1

> <s_lp_Variant>
AV-unprocessed.smi:2923-7

> <Gold.Version>
5.8.1

> <Gold.Id.Protein>
6NUR|6NUR_protein|mol2

> <Gold.PLP.Fitness>
44.3346

> <Gold.PLP.PLP>
-34.4645

> <Gold.PLP.part.hbond>
-4.0000

> <Gold.PLP.part.metal>
0.0000

> <Gold.PLP.part.buried>
2.3936

> <Gold.PLP.part.nonpolar>
-37.1565

> <Gold.PLP.part.repulsive>
4.7682

> <Gold.PLP.ligand.clash>
0.0000

> <Gold.PLP.ligand.torsion>
0.8523

> <Gold.PLP.Chemscore.Hbond>
3.7687

> <Gold.PLP.Chemscore.CHOScore>
0.0000

> <Gold.PLP.Chemscore.Metal>
0.0000

> <Gold.Chemscore.Hbonds>
donor molecule, donor type, donor heavy atom, donor atom, acceptor molecule, acceptor atom, score
      L1  H     8    31       P1 10175  0.82
      L1  H    11    32       P1 10175  1.00
      L1  H    22    47       P1 10186  1.82

> <Gold.PLP.Chemscore.Internal.Correction>
0.2685

> <Gold.Rescore>
     Score         DG    S(hbond)    S(metal)    S(lipo)     H(rot)  DE(clash)    DE(int)     intcor
     14.11     -21.42       2.37        0.00      90.48       1.00       3.85       3.46       ----

> <Gold.Chemscore.Fitness>
14.1124

> <Gold.Chemscore.DG>
-21.4199

> <Gold.Chemscore.ZeroCoef>
-5.4800

> <Gold.Chemscore.Hbond>
2.3694

> <Gold.Chemscore.Metal>
0.0000

> <Gold.Chemscore.Lipo>
90.4790

> <Gold.Chemscore.Internal_Hbond>
0.0000

> <Gold.Chemscore.DEClash>
3.8468

> <Gold.Chemscore.DEInternal>
3.4607

> <Gold.Chemscore.Rot>
1.0000

> <Gold.Chemscore.Internal.Correction>
   9.000000E+99

> <Gold.Chemscore.Hbonds>
donor molecule, donor type, donor heavy atom, donor atom, acceptor molecule, acceptor atom, score
      L1  H     8    31       P1 10175  0.77
      L1  H    11    32       P1 10175  0.96
      L1  H    22    47       P1 10186  0.58

> <Gold.Chemscore.Hbond.Weighted>
-7.9139

> <Gold.Chemscore.Metal.Weighted>
-0.0000

> <Gold.Chemscore.Lipo.Weighted>
-10.5860

> <Gold.Chemscore.Internal_Hbond.Weighted>
0.0000

> <Gold.Chemscore.DEClash.Weighted>
3.8468

> <Gold.Chemscore.DEInternal.Weighted>
3.4607

> <Gold.Chemscore.Rot.Weighted>
2.5600

> <Gold.Chemscore.Internal.Correction.Weighted>
   9.000000E+99

> <Gold.Protein.RotatedTorsions>
[ 6907 6896 6895 6894 ] final  105.98 input  -60.11 | X-H torsion
[ 7974 7965 7964 7962 ] final -126.95 input  175.53 | X-H torsion
[ 8008 7997 7996 7995 ] final -126.26 input   59.86 | X-H torsion
[ 10167 10162 10161 10158 ] final -110.57 input  -65.29 | X-H torsion
[ 10718 10713 10712 10709 ] final   99.01 input   66.30 | X-H torsion
[ 10763 10752 10751 10750 ] final   33.25 input  -60.55 | X-H torsion
[ 11005 11000 10999 10996 ] final   85.78 input  -57.11 | X-H torsion

> <Gold.Protein.ActiveResidues>
 VAL166  LYS551  ARG553  GLY616  TRP617  ASP618  TYR619  PRO620  LYS621  CYS622 
 ASP623  PHE694  ASN695  SER759  ASP760  ASP761  ALA762  ILE779  LEU786  VAL792 
 PHE793  MET794  SER795  GLU796  ALA797  LYS798  CYS799  TRP800  GLU811  SER814 

> <Gold.Protein.RotatedAtoms>
  152.5211  133.9448  159.7643 H   0  0  0  0  0  0  0  0  0  0  0  0  # atno 6907 bound_to 6896
  150.9771  133.6276  159.2735 H   0  0  0  0  0  0  0  0  0  0  0  0  # atno 6908 bound_to 6896
  151.3466  135.0881  159.9442 H   0  0  0  0  0  0  0  0  0  0  0  0  # atno 6909 bound_to 6896
  144.9820  140.7650  143.4606 H   0  0  0  0  0  0  0  0  0  0  0  0  # atno 7974 bound_to 7965
  155.2268  140.0424  157.2956 H   0  0  0  0  0  0  0  0  0  0  0  0  # atno 8008 bound_to 7997
  154.5914  140.2427  155.7886 H   0  0  0  0  0  0  0  0  0  0  0  0  # atno 8009 bound_to 7997
  156.2261  140.2954  156.0080 H   0  0  0  0  0  0  0  0  0  0  0  0  # atno 8010 bound_to 7997
  140.1430  143.4263  152.1548 H   0  0  0  0  0  0  0  0  0  0  0  0  # atno 10167 bound_to 10162
  157.6884  131.0657  150.4883 H   0  0  0  0  0  0  0  0  0  0  0  0  # atno 10718 bound_to 10713
  153.0221  135.6392  154.1482 H   0  0  0  0  0  0  0  0  0  0  0  0  # atno 10763 bound_to 10752
  154.1215  135.2846  155.3209 H   0  0  0  0  0  0  0  0  0  0  0  0  # atno 10764 bound_to 10752
  154.6260  135.5509  153.7689 H   0  0  0  0  0  0  0  0  0  0  0  0  # atno 10765 bound_to 10752
  139.8962  134.8310  156.2629 H   0  0  0  0  0  0  0  0  0  0  0  0  # atno 11005 bound_to 11000
  145.2407  139.2074  143.4994 LP  0  0  0  0  0  0  0  0  0  0  0  0  # atno 17320 bound_to 7965
  146.3410  140.2301  142.8593 LP  0  0  0  0  0  0  0  0  0  0  0  0  # atno 17321 bound_to 7965
  139.5462  144.7300  151.4575 LP  0  0  0  0  0  0  0  0  0  0  0  0  # atno 17342 bound_to 10162
  140.6749  143.8213  150.7045 LP  0  0  0  0  0  0  0  0  0  0  0  0  # atno 17343 bound_to 10162
  156.5211  130.4162  149.6250 LP  0  0  0  0  0  0  0  0  0  0  0  0  # atno 17370 bound_to 10713
  156.3154  130.7251  151.2153 LP  0  0  0  0  0  0  0  0  0  0  0  0  # atno 17371 bound_to 10713
  141.0151  133.7073  156.1175 LP  0  0  0  0  0  0  0  0  0  0  0  0  # atno 17394 bound_to 11000
  140.7313  134.4251  157.5565 LP  0  0  0  0  0  0  0  0  0  0  0  0  # atno 17395 bound_to 11000

$$$$
