AV-unprocessed.smi:3292|AV-procd|sdf|12627|dock5
  -GOLD-   2272018563D 1   1.00000     0.00000
 Structure written by MMmdl.
 38 39  0  0  0  0  0  0  0  0  1 V2000
  146.0711  133.3187  154.4065 C   0  0  0  0  0  0  0  0  0  0  0  0
  146.0583  134.0905  153.0804 C   0  0  2  0  0  0  0  0  0  0  0  0
  146.5685  133.2130  151.9161 C   0  0  0  0  0  0  0  0  0  0  0  0
  145.4964  132.7310  151.0634 N   0  0  0  0  0  0  0  0  0  0  0  0
  144.1427  133.0200  151.1739 C   0  0  0  0  0  0  0  0  0  0  0  0
  143.5150  132.3613  150.1407 C   0  0  0  0  0  0  0  0  0  0  0  0
  144.4558  131.6578  149.3918 N   0  0  0  0  0  0  0  0  0  0  0  0
  145.6043  131.9203  150.0013 C   0  0  0  0  0  0  0  0  0  0  0  0
  146.8779  135.2937  153.2214 N   0  0  0  0  0  0  0  0  0  0  0  0
  146.5947  136.3381  154.0135 C   0  0  0  0  0  0  0  0  0  0  0  0
  145.6399  136.3804  154.7897 O   0  0  0  0  0  0  0  0  0  0  0  0
  147.4481  137.3521  153.8209 N   0  0  0  0  0  0  0  0  0  0  0  0
  147.3120  138.6767  154.4164 C   0  0  0  0  0  0  0  0  0  0  0  0
  148.5118  139.5853  154.0784 C   0  0  1  0  0  0  0  0  0  0  0  0
  148.3924  141.0029  154.6279 C   0  0  0  0  0  0  0  0  0  0  0  0
  149.7942  141.3281  155.1544 C   0  0  0  0  0  0  0  0  0  0  0  0
  150.6281  140.2920  154.6579 O   0  0  0  0  0  0  0  0  0  0  0  0
  149.8506  139.1080  154.6417 C   0  0  0  0  0  0  0  0  0  0  0  0
  145.4458  132.4275  154.3468 H   0  0  0  0  0  0  0  0  0  0  0  0
  145.6894  133.9332  155.2225 H   0  0  0  0  0  0  0  0  0  0  0  0
  147.0798  132.9996  154.6720 H   0  0  0  0  0  0  0  0  0  0  0  0
  145.0225  134.3709  152.8802 H   0  0  0  0  0  0  0  0  0  0  0  0
  147.2838  133.7654  151.3046 H   0  0  0  0  0  0  0  0  0  0  0  0
  147.0990  132.3438  152.3067 H   0  0  0  0  0  0  0  0  0  0  0  0
  143.7512  133.6609  151.9500 H   0  0  0  0  0  0  0  0  0  0  0  0
  142.4672  132.3401  149.8806 H   0  0  0  0  0  0  0  0  0  0  0  0
  146.5489  131.5236  149.6591 H   0  0  0  0  0  0  0  0  0  0  0  0
  147.6890  135.3605  152.6240 H   0  0  0  0  0  0  0  0  0  0  0  0
  148.2057  137.2215  153.1665 H   0  0  0  0  0  0  0  0  0  0  0  0
  146.3803  139.1389  154.0856 H   0  0  0  0  0  0  0  0  0  0  0  0
  147.2291  138.5529  155.4965 H   0  0  0  0  0  0  0  0  0  0  0  0
  148.6162  139.6595  152.9945 H   0  0  0  0  0  0  0  0  0  0  0  0
  148.0913  141.6948  153.8407 H   0  0  0  0  0  0  0  0  0  0  0  0
  147.6590  141.0761  155.4319 H   0  0  0  0  0  0  0  0  0  0  0  0
  150.1471  142.3078  154.8319 H   0  0  0  0  0  0  0  0  0  0  0  0
  149.8078  141.3045  156.2452 H   0  0  0  0  0  0  0  0  0  0  0  0
  149.7430  138.7263  155.6587 H   0  0  0  0  0  0  0  0  0  0  0  0
  150.3137  138.3338  154.0296 H   0  0  0  0  0  0  0  0  0  0  0  0
  1  2  1  0  0  0  0
  1 19  1  0  0  0  0
  1 20  1  0  0  0  0
  1 21  1  0  0  0  0
  2  3  1  0  0  0  0
  2  9  1  0  0  0  0
  2 22  1  0  0  0  0
  3  4  1  0  0  0  0
  3 23  1  0  0  0  0
  3 24  1  0  0  0  0
  4  8  1  0  0  0  0
  4  5  1  0  0  0  0
  5  6  2  0  0  0  0
  5 25  1  0  0  0  0
  6  7  1  0  0  0  0
  6 26  1  0  0  0  0
  7  8  2  0  0  0  0
  8 27  1  0  0  0  0
  9 10  1  0  0  0  0
  9 28  1  0  0  0  0
 10 11  2  0  0  0  0
 10 12  1  0  0  0  0
 12 13  1  0  0  0  0
 12 29  1  0  0  0  0
 13 14  1  0  0  0  0
 13 30  1  0  0  0  0
 13 31  1  0  0  0  0
 14 18  1  0  0  0  0
 14 15  1  0  0  0  0
 14 32  1  0  0  0  0
 15 16  1  0  0  0  0
 15 33  1  0  0  0  0
 15 34  1  0  0  0  0
 16 17  1  0  0  0  0
 16 35  1  0  0  0  0
 16 36  1  0  0  0  0
 17 18  1  0  0  0  0
 18 37  1  0  0  0  0
 18 38  1  0  0  0  0
M  END
> <s_m_source_file>
AV-unprocessed.smi

> <i_m_source_file_index>
3292

> <i_lp_mmshare_version>
43012

> <i_f3d_flags>
0

> <s_epik_input>
W2NIXTFuW2NIXVtjSF1uMVtDSDJdW0NAQEhdKFtDSDNdKVtOSF1DKD1PKVtOSF1bQ0gyXVtDQEBIXTJbQ0gyXVtDSDJdT1tDSDJdMg==

> <s_epik_cmdline>
J2VwaWtfcHl0aG9uJywgJy1waCcsICc3LjAnLCAnLXRuJywgJzgnLCAnLW1hJywgJzIwMCcsICctbWV0YWxfYmluZGluZycsICctaW1hZScsICc8aW5maWxlLm1hZT4nLCAnLW9tYWUnLCAnPG91dGZpbGUubWFlPic=

> <r_lp_tautomer_probability>
1

> <r_epik_Ionization_Penalty>
0.621291

> <r_epik_Ionization_Penalty_Charging>
0.621234

> <r_epik_Ionization_Penalty_Neutral>
5.72199e-05

> <r_epik_State_Penalty>
0.637278

> <r_epik_Charging_Adjusted_Penalty>
1.25851

> <i_epik_Tot_Q>
0

> <i_epik_Tot_abs_Q>
0

> <r_epik_Metal_State_Penalty>
0.306757

> <b_epik_Metal_Only>
0

> <s_lp_Force_Field>
OPLS_2005

> <r_lp_Energy>
18.0695

> <b_lp_Chiralities_Consistent>
1

> <s_lp_Variant>
AV-unprocessed.smi:3292-7

> <Gold.Version>
5.8.1

> <Gold.Id.Protein>
6NUR|6NUR_protein|mol2

> <Gold.PLP.Fitness>
45.8909

> <Gold.PLP.PLP>
-29.3799

> <Gold.PLP.part.hbond>
-4.0000

> <Gold.PLP.part.metal>
0.0000

> <Gold.PLP.part.buried>
-2.9316

> <Gold.PLP.part.nonpolar>
-23.4497

> <Gold.PLP.part.repulsive>
0.2706

> <Gold.PLP.ligand.clash>
0.0000

> <Gold.PLP.ligand.torsion>
0.7162

> <Gold.PLP.Chemscore.Hbond>
3.4144

> <Gold.PLP.Chemscore.CHOScore>
2.5512

> <Gold.PLP.Chemscore.Metal>
0.0000

> <Gold.Chemscore.Hbonds>
donor molecule, donor type, donor heavy atom, donor atom, acceptor molecule, acceptor atom, score
      L1  H     9    28       P1  7948  1.00
      L1  H    12    29       P1  7948  0.99
      P1  H  7989  7998       L1    17  1.00
      P1  H 10785 10796       L1     7  0.39
      L1  C     6    26       P1 10186  0.85
      L1  C     6    26       P1 10952  0.84
      L1  C     8    27       P1 10747  0.89

> <Gold.PLP.Chemscore.Internal.Correction>
0.0466

> <Gold.Rescore>
     Score         DG    S(hbond)    S(metal)    S(lipo)     H(rot)  DE(clash)    DE(int)     intcor
     16.62     -17.64       3.24        0.00      58.62       2.16       0.15       0.86       ----

> <Gold.Chemscore.Fitness>
16.6204

> <Gold.Chemscore.DG>
-17.6354

> <Gold.Chemscore.ZeroCoef>
-5.4800

> <Gold.Chemscore.Hbond>
3.2395

> <Gold.Chemscore.Metal>
0.0000

> <Gold.Chemscore.Lipo>
58.6250

> <Gold.Chemscore.Internal_Hbond>
0.0000

> <Gold.Chemscore.DEClash>
0.1521

> <Gold.Chemscore.DEInternal>
0.8629

> <Gold.Chemscore.Rot>
2.1577

> <Gold.Chemscore.Internal.Correction>
   9.000000E+99

> <Gold.Chemscore.Hbonds>
donor molecule, donor type, donor heavy atom, donor atom, acceptor molecule, acceptor atom, score
      L1  H     9    28       P1  7948  0.98
      L1  H    12    29       P1  7948  0.93
      P1  H  7989  7998       L1    17  0.74
      P1  H 10785 10796       L1     7  0.07

> <Gold.Chemscore.Hbond.Weighted>
-10.8200

> <Gold.Chemscore.Metal.Weighted>
-0.0000

> <Gold.Chemscore.Lipo.Weighted>
-6.8591

> <Gold.Chemscore.Internal_Hbond.Weighted>
0.0000

> <Gold.Chemscore.DEClash.Weighted>
0.1521

> <Gold.Chemscore.DEInternal.Weighted>
0.8629

> <Gold.Chemscore.Rot.Weighted>
5.5237

> <Gold.Chemscore.Internal.Correction.Weighted>
   9.000000E+99

> <Gold.Protein.RotatedTorsions>
[ 6907 6896 6895 6894 ] final   -5.11 input  -60.11 | X-H torsion
[ 7974 7965 7964 7962 ] final   31.70 input  175.53 | X-H torsion
[ 8008 7997 7996 7995 ] final    9.28 input   59.86 | X-H torsion
[ 10167 10162 10161 10158 ] final  -47.73 input  -65.29 | X-H torsion
[ 10718 10713 10712 10709 ] final -159.26 input   66.30 | X-H torsion
[ 10763 10752 10751 10750 ] final  169.00 input  -60.55 | X-H torsion
[ 11005 11000 10999 10996 ] final -136.89 input  -57.11 | X-H torsion

> <Gold.Protein.ActiveResidues>
 VAL166  LYS551  ARG553  GLY616  TRP617  ASP618  TYR619  PRO620  LYS621  CYS622 
 ASP623  PHE694  ASN695  SER759  ASP760  ASP761  ALA762  ILE779  LEU786  VAL792 
 PHE793  MET794  SER795  GLU796  ALA797  LYS798  CYS799  TRP800  GLU811  SER814 

> <Gold.Protein.RotatedAtoms>
  151.4869  135.1055  159.9792 H   0  0  0  0  0  0  0  0  0  0  0  0  # atno 6907 bound_to 6896
  152.4757  133.8128  159.7023 H   0  0  0  0  0  0  0  0  0  0  0  0  # atno 6908 bound_to 6896
  150.8793  133.7332  159.2963 H   0  0  0  0  0  0  0  0  0  0  0  0  # atno 6909 bound_to 6896
  146.1533  139.6622  142.9083 H   0  0  0  0  0  0  0  0  0  0  0  0  # atno 7974 bound_to 7965
  154.7780  140.2814  155.6086 H   0  0  0  0  0  0  0  0  0  0  0  0  # atno 8008 bound_to 7997
  156.2945  140.2628  156.2526 H   0  0  0  0  0  0  0  0  0  0  0  0  # atno 8009 bound_to 7997
  154.9819  140.0374  157.2271 H   0  0  0  0  0  0  0  0  0  0  0  0  # atno 8010 bound_to 7997
  140.6762  143.2771  151.3969 H   0  0  0  0  0  0  0  0  0  0  0  0  # atno 10167 bound_to 10162
  156.5656  130.8666  151.2822 H   0  0  0  0  0  0  0  0  0  0  0  0  # atno 10718 bound_to 10713
  154.3767  135.2753  155.2235 H   0  0  0  0  0  0  0  0  0  0  0  0  # atno 10763 bound_to 10752
  154.4359  135.5966  153.6101 H   0  0  0  0  0  0  0  0  0  0  0  0  # atno 10764 bound_to 10752
  152.9836  135.6007  154.4005 H   0  0  0  0  0  0  0  0  0  0  0  0  # atno 10765 bound_to 10752
  140.8762  134.1989  157.4620 H   0  0  0  0  0  0  0  0  0  0  0  0  # atno 11005 bound_to 11000
  145.4769  141.0437  143.2667 LP  0  0  0  0  0  0  0  0  0  0  0  0  # atno 17320 bound_to 7965
  144.7932  139.6287  143.7104 LP  0  0  0  0  0  0  0  0  0  0  0  0  # atno 17321 bound_to 7965
  139.6056  144.1204  152.2245 LP  0  0  0  0  0  0  0  0  0  0  0  0  # atno 17342 bound_to 10162
  140.0602  144.5863  150.7269 LP  0  0  0  0  0  0  0  0  0  0  0  0  # atno 17343 bound_to 10162
  157.7359  130.9770  150.2108 LP  0  0  0  0  0  0  0  0  0  0  0  0  # atno 17370 bound_to 10713
  156.2760  130.3727  149.7983 LP  0  0  0  0  0  0  0  0  0  0  0  0  # atno 17371 bound_to 10713
  139.8716  134.9797  156.5046 LP  0  0  0  0  0  0  0  0  0  0  0  0  # atno 17394 bound_to 11000
  140.8515  133.8128  155.9173 LP  0  0  0  0  0  0  0  0  0  0  0  0  # atno 17395 bound_to 11000

$$$$
