AV-unprocessed.smi:2119|AV-procd|sdf|8630|dock3
  -GOLD-   2272011373D 1   1.00000     0.00000
 Structure written by MMmdl.
 47 49  0  0  0  0  0  0  0  0  1 V2000
  145.5299  134.5262  154.2327 O   0  0  0  0  0  0  0  0  0  0  0  0
  146.4132  134.8904  153.4568 C   0  0  0  0  0  0  0  0  0  0  0  0
  147.4119  135.7119  153.8090 N   0  0  0  0  0  0  0  0  0  0  0  0
  147.5968  136.2890  155.1383 C   0  0  0  0  0  0  0  0  0  0  0  0
  149.0918  136.3792  155.5806 C   0  0  2  0  0  0  0  0  0  0  0  0
  149.2686  135.6053  156.9318 C   0  0  2  0  0  0  0  0  0  0  0  0
  148.4414  134.3336  157.0757 C   0  0  0  0  0  0  0  0  0  0  0  0
  148.4115  134.0862  158.5882 C   0  0  0  0  0  0  0  0  0  0  0  0
  149.0174  135.2285  159.1850 O   0  0  0  0  0  0  0  0  0  0  0  0
  148.9526  136.2981  158.2571 C   0  0  0  0  0  0  0  0  0  0  0  0
  149.6576  137.7527  155.6052 N   0  0  0  0  0  0  0  0  0  0  0  0
  151.1258  137.7392  155.5586 C   0  0  0  0  0  0  0  0  0  0  0  0
  151.7259  139.1484  155.6908 C   0  0  0  0  0  0  0  0  0  0  0  0
  151.2334  139.9683  154.6381 O   0  0  0  0  0  0  0  0  0  0  0  0
  149.8133  140.0457  154.6295 C   0  0  0  0  0  0  0  0  0  0  0  0
  149.2113  138.6327  154.5199 C   0  0  0  0  0  0  0  0  0  0  0  0
  146.5028  134.5482  152.1603 N   0  0  0  0  0  0  0  0  0  0  0  0
  145.6535  133.6956  151.4040 C   0  0  0  0  0  0  0  0  0  0  0  0
  146.0714  132.9378  150.2829 C   0  0  0  0  0  0  0  0  0  0  0  0
  145.1242  132.1435  149.6081 C   0  0  0  0  0  0  0  0  0  0  0  0
  143.7946  132.1410  150.0725 C   0  0  0  0  0  0  0  0  0  0  0  0
  143.3797  132.8674  151.1315 N   0  0  0  0  0  0  0  0  0  0  0  0
  144.2934  133.6263  151.7734 C   0  0  0  0  0  0  0  0  0  0  0  0
  148.0919  135.9634  153.1065 H   0  0  0  0  0  0  0  0  0  0  0  0
  147.1303  137.2749  155.1244 H   0  0  0  0  0  0  0  0  0  0  0  0
  147.0233  135.6895  155.8457 H   0  0  0  0  0  0  0  0  0  0  0  0
  149.6467  135.8188  154.8267 H   0  0  0  0  0  0  0  0  0  0  0  0
  150.3175  135.3161  157.0108 H   0  0  0  0  0  0  0  0  0  0  0  0
  147.4273  134.4912  156.7055 H   0  0  0  0  0  0  0  0  0  0  0  0
  148.8708  133.4923  156.5311 H   0  0  0  0  0  0  0  0  0  0  0  0
  147.3863  133.9768  158.9438 H   0  0  0  0  0  0  0  0  0  0  0  0
  148.9655  133.1894  158.8663 H   0  0  0  0  0  0  0  0  0  0  0  0
  149.6562  137.0927  158.5065 H   0  0  0  0  0  0  0  0  0  0  0  0
  147.9357  136.6904  158.2873 H   0  0  0  0  0  0  0  0  0  0  0  0
  151.5568  137.1044  156.3251 H   0  0  0  0  0  0  0  0  0  0  0  0
  151.4542  137.3077  154.6115 H   0  0  0  0  0  0  0  0  0  0  0  0
  151.4764  139.5878  156.6578 H   0  0  0  0  0  0  0  0  0  0  0  0
  152.8133  139.1053  155.6278 H   0  0  0  0  0  0  0  0  0  0  0  0
  149.4653  140.5423  155.5367 H   0  0  0  0  0  0  0  0  0  0  0  0
  149.4954  140.6595  153.7868 H   0  0  0  0  0  0  0  0  0  0  0  0
  149.4747  138.1990  153.5538 H   0  0  0  0  0  0  0  0  0  0  0  0
  148.1273  138.7412  154.5390 H   0  0  0  0  0  0  0  0  0  0  0  0
  147.2432  134.9915  151.6364 H   0  0  0  0  0  0  0  0  0  0  0  0
  147.0865  132.9577  149.9192 H   0  0  0  0  0  0  0  0  0  0  0  0
  145.4099  131.5527  148.7503 H   0  0  0  0  0  0  0  0  0  0  0  0
  143.0434  131.5441  149.5767 H   0  0  0  0  0  0  0  0  0  0  0  0
  143.9250  134.1953  152.6147 H   0  0  0  0  0  0  0  0  0  0  0  0
  1  2  2  0  0  0  0
  2  3  1  0  0  0  0
  2 17  1  0  0  0  0
  3  4  1  0  0  0  0
  3 24  1  0  0  0  0
  4  5  1  0  0  0  0
  4 25  1  0  0  0  0
  4 26  1  0  0  0  0
  5  6  1  0  0  0  0
  5 11  1  0  0  0  0
  5 27  1  0  0  0  0
  6 10  1  0  0  0  0
  6  7  1  0  0  0  0
  6 28  1  0  0  0  0
  7  8  1  0  0  0  0
  7 29  1  0  0  0  0
  7 30  1  0  0  0  0
  8  9  1  0  0  0  0
  8 31  1  0  0  0  0
  8 32  1  0  0  0  0
  9 10  1  0  0  0  0
 10 33  1  0  0  0  0
 10 34  1  0  0  0  0
 11 16  1  0  0  0  0
 11 12  1  0  0  0  0
 12 13  1  0  0  0  0
 12 35  1  0  0  0  0
 12 36  1  0  0  0  0
 13 14  1  0  0  0  0
 13 37  1  0  0  0  0
 13 38  1  0  0  0  0
 14 15  1  0  0  0  0
 15 16  1  0  0  0  0
 15 39  1  0  0  0  0
 15 40  1  0  0  0  0
 16 41  1  0  0  0  0
 16 42  1  0  0  0  0
 17 18  1  0  0  0  0
 17 43  1  0  0  0  0
 18 23  1  0  0  0  0
 18 19  2  0  0  0  0
 19 20  1  0  0  0  0
 19 44  1  0  0  0  0
 20 21  2  0  0  0  0
 20 45  1  0  0  0  0
 21 22  1  0  0  0  0
 21 46  1  0  0  0  0
 22 23  2  0  0  0  0
 23 47  1  0  0  0  0
M  END
> <s_m_source_file>
AV-unprocessed.smi

> <i_m_source_file_index>
2119

> <i_lp_mmshare_version>
43012

> <i_f3d_flags>
0

> <s_epik_input>
W2NIXTFuW2NIXVtjSF1bY0hdYzFbTkhdQyg9TylbTkhdW0NIMl1bQ0BIXShbQ0BASF0yW0NIMl1bQ0gyXU9bQ0gyXTIpTjNbQ0gyXVtDSDJdT1tDSDJdW0NIMl0z

> <s_epik_cmdline>
J2VwaWtfcHl0aG9uJywgJy1waCcsICc3LjAnLCAnLXRuJywgJzgnLCAnLW1hJywgJzIwMCcsICctbWV0YWxfYmluZGluZycsICctaW1hZScsICc8aW5maWxlLm1hZT4nLCAnLW9tYWUnLCAnPG91dGZpbGUubWFlPic=

> <r_epik_Ionization_Penalty>
0.129787

> <r_epik_Ionization_Penalty_Charging>
0

> <r_epik_Ionization_Penalty_Neutral>
0.129787

> <r_epik_State_Penalty>
0.121311

> <r_epik_Charging_Adjusted_Penalty>
0.121311

> <i_epik_Tot_Q>
0

> <i_epik_Tot_abs_Q>
0

> <r_epik_Metal_State_Penalty>
0.117931

> <b_epik_Metal_Only>
0

> <s_lp_Force_Field>
OPLS_2005

> <r_lp_Energy>
59.4027

> <b_lp_Chiralities_Consistent>
1

> <s_lp_Variant>
AV-unprocessed.smi:2119-1

> <Gold.Version>
5.8.1

> <Gold.Id.Protein>
6NUR|6NUR_protein|mol2

> <Gold.PLP.Fitness>
42.0911

> <Gold.PLP.PLP>
-31.0059

> <Gold.PLP.part.hbond>
-4.0000

> <Gold.PLP.part.metal>
0.0000

> <Gold.PLP.part.buried>
-5.8130

> <Gold.PLP.part.nonpolar>
-23.1218

> <Gold.PLP.part.repulsive>
0.4580

> <Gold.PLP.ligand.clash>
0.0000

> <Gold.PLP.ligand.torsion>
1.7069

> <Gold.PLP.Chemscore.Hbond>
3.7865

> <Gold.PLP.Chemscore.CHOScore>
0.9896

> <Gold.PLP.Chemscore.Metal>
0.0000

> <Gold.Chemscore.Hbonds>
donor molecule, donor type, donor heavy atom, donor atom, acceptor molecule, acceptor atom, score
      L1  H     3    24       P1  7948  1.00
      L1  H    17    43       P1  7948  0.79
      P1  H  6896  6909       L1     9  0.90
      P1  H  7989  7998       L1    14  0.94
      L1  C    21    46       P1 10952  1.00

> <Gold.PLP.Chemscore.Internal.Correction>
0.1708

> <Gold.Rescore>
     Score         DG    S(hbond)    S(metal)    S(lipo)     H(rot)  DE(clash)    DE(int)     intcor
     18.49     -21.79       3.41        0.00      78.14       1.65       0.08       3.23       ----

> <Gold.Chemscore.Fitness>
18.4869

> <Gold.Chemscore.DG>
-21.7935

> <Gold.Chemscore.ZeroCoef>
-5.4800

> <Gold.Chemscore.Hbond>
3.4124

> <Gold.Chemscore.Metal>
0.0000

> <Gold.Chemscore.Lipo>
78.1388

> <Gold.Chemscore.Internal_Hbond>
0.0000

> <Gold.Chemscore.DEClash>
0.0811

> <Gold.Chemscore.DEInternal>
3.2256

> <Gold.Chemscore.Rot>
1.6508

> <Gold.Chemscore.Internal.Correction>
   9.000000E+99

> <Gold.Chemscore.Hbonds>
donor molecule, donor type, donor heavy atom, donor atom, acceptor molecule, acceptor atom, score
      L1  H     3    24       P1  7948  0.93
      L1  H    17    43       P1  7948  0.61
      P1  H  6896  6909       L1     9  0.17
      P1  H  7989  7998       L1    14  0.40

> <Gold.Chemscore.Hbond.Weighted>
-11.3975

> <Gold.Chemscore.Metal.Weighted>
-0.0000

> <Gold.Chemscore.Lipo.Weighted>
-9.1422

> <Gold.Chemscore.Internal_Hbond.Weighted>
0.0000

> <Gold.Chemscore.DEClash.Weighted>
0.0811

> <Gold.Chemscore.DEInternal.Weighted>
3.2256

> <Gold.Chemscore.Rot.Weighted>
4.2262

> <Gold.Chemscore.Internal.Correction.Weighted>
   9.000000E+99

> <Gold.Protein.RotatedTorsions>
[ 6907 6896 6895 6894 ] final   45.12 input  -60.11 | X-H torsion
[ 7974 7965 7964 7962 ] final   63.71 input  175.53 | X-H torsion
[ 8008 7997 7996 7995 ] final  -79.63 input   59.86 | X-H torsion
[ 10167 10162 10161 10158 ] final  146.36 input  -65.29 | X-H torsion
[ 10718 10713 10712 10709 ] final  151.90 input   66.30 | X-H torsion
[ 10763 10752 10751 10750 ] final   44.80 input  -60.55 | X-H torsion
[ 11005 11000 10999 10996 ] final -109.21 input  -57.11 | X-H torsion

> <Gold.Protein.ActiveResidues>
 VAL166  LYS551  ARG553  GLY616  TRP617  ASP618  TYR619  PRO620  LYS621  CYS622 
 ASP623  PHE694  ASN695  SER759  ASP760  ASP761  ALA762  ILE779  LEU786  VAL792 
 PHE793  MET794  SER795  GLU796  ALA797  LYS798  CYS799  TRP800  GLU811  SER814 

> <Gold.Protein.RotatedAtoms>
  152.2408  134.8231  160.0460 H   0  0  0  0  0  0  0  0  0  0  0  0  # atno 6907 bound_to 6896
  151.8946  133.3519  159.3818 H   0  0  0  0  0  0  0  0  0  0  0  0  # atno 6908 bound_to 6896
  150.7053  134.4815  159.5517 H   0  0  0  0  0  0  0  0  0  0  0  0  # atno 6909 bound_to 6896
  145.8587  139.3301  143.0832 H   0  0  0  0  0  0  0  0  0  0  0  0  # atno 7974 bound_to 7965
  154.5804  140.0675  156.9095 H   0  0  0  0  0  0  0  0  0  0  0  0  # atno 8008 bound_to 7997
  155.2474  140.3349  155.4267 H   0  0  0  0  0  0  0  0  0  0  0  0  # atno 8009 bound_to 7997
  156.2185  140.1788  156.7518 H   0  0  0  0  0  0  0  0  0  0  0  0  # atno 8010 bound_to 7997
  139.4908  144.5835  151.6825 H   0  0  0  0  0  0  0  0  0  0  0  0  # atno 10167 bound_to 10162
  157.2648  131.0805  151.1641 H   0  0  0  0  0  0  0  0  0  0  0  0  # atno 10718 bound_to 10713
  152.9835  135.6059  154.3332 H   0  0  0  0  0  0  0  0  0  0  0  0  # atno 10763 bound_to 10752
  154.3034  135.2772  155.2602 H   0  0  0  0  0  0  0  0  0  0  0  0  # atno 10764 bound_to 10752
  154.4844  135.5909  153.6469 H   0  0  0  0  0  0  0  0  0  0  0  0  # atno 10765 bound_to 10752
  141.0860  133.9138  157.2184 H   0  0  0  0  0  0  0  0  0  0  0  0  # atno 11005 bound_to 11000
  145.9273  140.9073  143.0374 LP  0  0  0  0  0  0  0  0  0  0  0  0  # atno 17320 bound_to 7965
  144.6727  140.1371  143.7440 LP  0  0  0  0  0  0  0  0  0  0  0  0  # atno 17321 bound_to 7965
  140.5446  144.0524  150.6102 LP  0  0  0  0  0  0  0  0  0  0  0  0  # atno 17342 bound_to 10162
  140.3558  143.2936  152.0438 LP  0  0  0  0  0  0  0  0  0  0  0  0  # atno 17343 bound_to 10162
  157.3136  130.6902  149.6229 LP  0  0  0  0  0  0  0  0  0  0  0  0  # atno 17370 bound_to 10713
  155.9663  130.4356  150.5098 LP  0  0  0  0  0  0  0  0  0  0  0  0  # atno 17371 bound_to 10713
  139.9678  135.0137  156.9434 LP  0  0  0  0  0  0  0  0  0  0  0  0  # atno 17394 bound_to 11000
  140.5362  134.0765  155.7329 LP  0  0  0  0  0  0  0  0  0  0  0  0  # atno 17395 bound_to 11000

$$$$
