AV-unprocessed.smi:255|AV-procd|sdf|1955|dock3
  -GOLD-   2262021 93D 1   1.00000     0.00000
 Structure written by MMmdl.
 44 47  0  0  0  0  0  0  0  0  1 V2000
  148.0556  138.3774  152.6492 O   0  0  0  0  0  0  0  0  0  0  0  0
  147.9766  138.4400  154.0576 C   0  0  0  0  0  0  0  0  0  0  0  0
  147.7854  139.8955  154.5248 C   0  0  2  0  0  0  0  0  0  0  0  0
  146.6466  140.6134  153.8008 C   0  0  0  0  0  0  0  0  0  0  0  0
  146.9701  142.0842  154.0539 C   0  0  1  0  0  0  0  0  0  0  0  0
  146.4579  142.4575  155.2273 F   0  0  0  0  0  0  0  0  0  0  0  0
  148.5021  142.1213  154.1389 C   0  0  0  0  0  0  0  0  0  0  0  0
  148.9462  140.7348  154.2438 N   0  0  0  0  0  0  0  0  0  0  0  0
  150.0255  140.5508  155.0355 C   0  0  0  0  0  0  0  0  0  0  0  0
  151.0853  139.8254  154.5907 N   0  0  0  0  0  0  0  0  0  0  0  0
  152.1519  139.6544  155.3777 C   0  0  0  0  0  0  0  0  0  0  0  0
  152.3575  140.1078  156.6167 N   0  0  0  0  0  0  0  0  0  0  0  0
  151.2901  140.8302  157.0646 C   0  0  0  0  0  0  0  0  0  0  0  0
  150.0941  141.0979  156.3424 C   0  0  0  0  0  0  0  0  0  0  0  0
  149.2332  141.8704  157.1107 N   0  0  0  0  0  0  0  0  0  0  0  0
  149.8849  142.0502  158.2275 C   0  0  0  0  0  0  0  0  0  0  0  0
  151.1251  141.4534  158.2894 N   0  0  0  0  0  0  0  0  0  0  0  0
  152.0584  141.4957  159.4051 C   0  0  0  0  0  0  0  0  0  0  0  0
  152.4373  142.9300  159.8440 C   0  0  2  0  0  0  0  0  0  0  0  0
  153.3625  142.8534  160.9153 O   0  0  0  0  0  0  0  0  0  0  0  0
  151.2360  143.7441  160.3073 C   0  0  0  0  0  0  0  0  0  0  0  0
  151.6547  145.1726  159.9875 C   0  0  0  0  0  0  0  0  0  0  0  0
  152.3176  145.0377  158.7421 O   0  0  0  0  0  0  0  0  0  0  0  0
  153.0444  143.8121  158.7329 C   0  0  0  0  0  0  0  0  0  0  0  0
  147.5593  139.9116  155.5926 H   0  0  0  0  0  0  0  0  0  0  0  0
  146.5647  142.7510  153.2924 H   0  0  0  0  0  0  0  0  0  0  0  0
  148.5498  139.1221  152.3422 H   0  0  0  0  0  0  0  0  0  0  0  0
  147.1806  137.7912  154.4252 H   0  0  0  0  0  0  0  0  0  0  0  0
  148.9157  138.0452  154.4460 H   0  0  0  0  0  0  0  0  0  0  0  0
  146.6901  140.4058  152.7305 H   0  0  0  0  0  0  0  0  0  0  0  0
  145.6593  140.3230  154.1617 H   0  0  0  0  0  0  0  0  0  0  0  0
  148.9197  142.5407  153.2233 H   0  0  0  0  0  0  0  0  0  0  0  0
  148.8426  142.7427  154.9690 H   0  0  0  0  0  0  0  0  0  0  0  0
  152.9560  139.0710  154.9538 H   0  0  0  0  0  0  0  0  0  0  0  0
  149.4745  142.6249  159.0449 H   0  0  0  0  0  0  0  0  0  0  0  0
  151.6140  140.9545  160.2410 H   0  0  0  0  0  0  0  0  0  0  0  0
  152.9526  140.9382  159.1231 H   0  0  0  0  0  0  0  0  0  0  0  0
  153.2931  141.9974  161.3098 H   0  0  0  0  0  0  0  0  0  0  0  0
  150.3563  143.4926  159.7134 H   0  0  0  0  0  0  0  0  0  0  0  0
  150.9812  143.5950  161.3572 H   0  0  0  0  0  0  0  0  0  0  0  0
  150.8091  145.8573  159.9212 H   0  0  0  0  0  0  0  0  0  0  0  0
  152.3514  145.5543  160.7352 H   0  0  0  0  0  0  0  0  0  0  0  0
  154.1074  144.0026  158.8890 H   0  0  0  0  0  0  0  0  0  0  0  0
  152.9351  143.3674  157.7445 H   0  0  0  0  0  0  0  0  0  0  0  0
  1  2  1  0  0  0  0
  1 27  1  0  0  0  0
  2  3  1  0  0  0  0
  2 28  1  0  0  0  0
  2 29  1  0  0  0  0
  3 25  1  0  0  0  0
  3  8  1  0  0  0  0
  3  4  1  0  0  0  0
  4  5  1  0  0  0  0
  4 30  1  0  0  0  0
  4 31  1  0  0  0  0
  5 26  1  0  0  0  0
  5  6  1  0  0  0  0
  5  7  1  0  0  0  0
  7  8  1  0  0  0  0
  7 32  1  0  0  0  0
  7 33  1  0  0  0  0
  8  9  1  0  0  0  0
  9 14  1  0  0  0  0
  9 10  2  0  0  0  0
 10 11  1  0  0  0  0
 11 12  2  0  0  0  0
 11 34  1  0  0  0  0
 12 13  1  0  0  0  0
 13 17  1  0  0  0  0
 13 14  2  0  0  0  0
 14 15  1  0  0  0  0
 15 16  2  0  0  0  0
 16 17  1  0  0  0  0
 16 35  1  0  0  0  0
 17 18  1  0  0  0  0
 18 19  1  0  0  0  0
 18 36  1  0  0  0  0
 18 37  1  0  0  0  0
 19 24  1  0  0  0  0
 19 20  1  0  0  0  0
 19 21  1  0  0  0  0
 20 38  1  0  0  0  0
 21 22  1  0  0  0  0
 21 39  1  0  0  0  0
 21 40  1  0  0  0  0
 22 23  1  0  0  0  0
 22 41  1  0  0  0  0
 22 42  1  0  0  0  0
 23 24  1  0  0  0  0
 24 43  1  0  0  0  0
 24 44  1  0  0  0  0
M  END
> <s_m_source_file>
AV-unprocessed.smi

> <i_m_source_file_index>
255

> <i_lp_mmshare_version>
43012

> <i_f3d_flags>
0

> <s_epik_input>
W09IXVtDSDJdW0NAQEhdMVtDSDJdW0NASF0oRilbQ0gyXU4xYyhuW2NIXW4yKWMoYzIzKW5bY0hdbjNbQ0gyXVtDQEBdNChbT0hdKVtDSDJdW0NIMl1PW0NIMl00

> <s_epik_cmdline>
J2VwaWtfcHl0aG9uJywgJy1waCcsICc3LjAnLCAnLXRuJywgJzgnLCAnLW1hJywgJzIwMCcsICctbWV0YWxfYmluZGluZycsICctaW1hZScsICc8aW5maWxlLm1hZT4nLCAnLW9tYWUnLCAnPG91dGZpbGUubWFlPic=

> <r_lp_tautomer_probability>
1

> <r_epik_Ionization_Penalty>
0.0058098

> <r_epik_Ionization_Penalty_Charging>
0

> <r_epik_Ionization_Penalty_Neutral>
0.0058098

> <r_epik_State_Penalty>
0.00411166

> <r_epik_Charging_Adjusted_Penalty>
0.00411166

> <i_epik_Tot_Q>
0

> <i_epik_Tot_abs_Q>
0

> <r_epik_Metal_State_Penalty>
-0

> <b_epik_Metal_Only>
0

> <s_lp_Force_Field>
OPLS_2005

> <r_lp_Energy>
53.8685

> <b_lp_Chiralities_Consistent>
1

> <s_lp_Variant>
AV-unprocessed.smi:255-7

> <Gold.Version>
5.8.1

> <Gold.Id.Protein>
6NUR|6NUR_protein|mol2

> <Gold.PLP.Fitness>
51.4409

> <Gold.PLP.PLP>
-43.4510

> <Gold.PLP.part.hbond>
-3.7761

> <Gold.PLP.part.metal>
0.0000

> <Gold.PLP.part.buried>
-0.3904

> <Gold.PLP.part.nonpolar>
-38.4444

> <Gold.PLP.part.repulsive>
0.3808

> <Gold.PLP.ligand.clash>
0.0000

> <Gold.PLP.ligand.torsion>
0.4067

> <Gold.PLP.Chemscore.Hbond>
2.9000

> <Gold.PLP.Chemscore.CHOScore>
0.0000

> <Gold.PLP.Chemscore.Metal>
0.0000

> <Gold.Chemscore.Hbonds>
donor molecule, donor type, donor heavy atom, donor atom, acceptor molecule, acceptor atom, score
      L1  H     1    27       P1  7957  1.00
      P1  H  7989  7998       L1    10  0.95
      P1  H  7997  8009       L1    12  0.95

> <Gold.PLP.Chemscore.Internal.Correction>
0.1032

> <Gold.Rescore>
     Score         DG    S(hbond)    S(metal)    S(lipo)     H(rot)  DE(clash)    DE(int)     intcor
     10.42     -13.64       1.80        0.00      91.11       3.33       1.60       1.61       ----

> <Gold.Chemscore.Fitness>
10.4214

> <Gold.Chemscore.DG>
-13.6378

> <Gold.Chemscore.ZeroCoef>
-5.4800

> <Gold.Chemscore.Hbond>
1.8012

> <Gold.Chemscore.Metal>
0.0000

> <Gold.Chemscore.Lipo>
91.1083

> <Gold.Chemscore.Internal_Hbond>
0.0000

> <Gold.Chemscore.DEClash>
1.6015

> <Gold.Chemscore.DEInternal>
1.6149

> <Gold.Chemscore.Rot>
3.3273

> <Gold.Chemscore.Internal.Correction>
   9.000000E+99

> <Gold.Chemscore.Hbonds>
donor molecule, donor type, donor heavy atom, donor atom, acceptor molecule, acceptor atom, score
      L1  H     1    27       P1  7957  0.97
      P1  H  7989  7998       L1    10  0.07
      P1  H  7997  8009       L1    12  0.20

> <Gold.Chemscore.Hbond.Weighted>
-6.0160

> <Gold.Chemscore.Metal.Weighted>
-0.0000

> <Gold.Chemscore.Lipo.Weighted>
-10.6597

> <Gold.Chemscore.Internal_Hbond.Weighted>
0.0000

> <Gold.Chemscore.DEClash.Weighted>
1.6015

> <Gold.Chemscore.DEInternal.Weighted>
1.6149

> <Gold.Chemscore.Rot.Weighted>
8.5179

> <Gold.Chemscore.Internal.Correction.Weighted>
   9.000000E+99

> <Gold.Protein.RotatedTorsions>
[ 6907 6896 6895 6894 ] final  106.45 input  -60.11 | X-H torsion
[ 7974 7965 7964 7962 ] final  -24.71 input  175.53 | X-H torsion
[ 8008 7997 7996 7995 ] final  179.53 input   59.86 | X-H torsion
[ 10167 10162 10161 10158 ] final  -16.06 input  -65.29 | X-H torsion
[ 10718 10713 10712 10709 ] final -161.26 input   66.30 | X-H torsion
[ 10763 10752 10751 10750 ] final  -16.45 input  -60.55 | X-H torsion
[ 11005 11000 10999 10996 ] final   27.31 input  -57.11 | X-H torsion

> <Gold.Protein.ActiveResidues>
 VAL166  LYS551  ARG553  GLY616  TRP617  ASP618  TYR619  PRO620  LYS621  CYS622 
 ASP623  PHE694  ASN695  SER759  ASP760  ASP761  ALA762  ILE779  LEU786  VAL792 
 PHE793  MET794  SER795  GLU796  ALA797  LYS798  CYS799  TRP800  GLU811  SER814 

> <Gold.Protein.RotatedAtoms>
  152.5193  133.9379  159.7611 H   0  0  0  0  0  0  0  0  0  0  0  0  # atno 6907 bound_to 6896
  150.9715  133.6331  159.2744 H   0  0  0  0  0  0  0  0  0  0  0  0  # atno 6908 bound_to 6896
  151.3540  135.0896  159.9465 H   0  0  0  0  0  0  0  0  0  0  0  0  # atno 6909 bound_to 6896
  146.1537  140.4788  142.8600 H   0  0  0  0  0  0  0  0  0  0  0  0  # atno 7974 bound_to 7965
  156.0423  140.1306  157.0142 H   0  0  0  0  0  0  0  0  0  0  0  0  # atno 8008 bound_to 7997
  154.4397  140.1027  156.6326 H   0  0  0  0  0  0  0  0  0  0  0  0  # atno 8009 bound_to 7997
  155.5647  140.3465  155.4502 H   0  0  0  0  0  0  0  0  0  0  0  0  # atno 8010 bound_to 7997
  140.7228  143.5155  150.9698 H   0  0  0  0  0  0  0  0  0  0  0  0  # atno 10167 bound_to 10162
  156.5938  130.8781  151.2896 H   0  0  0  0  0  0  0  0  0  0  0  0  # atno 10718 bound_to 10713
  153.5588  135.7010  153.5557 H   0  0  0  0  0  0  0  0  0  0  0  0  # atno 10763 bound_to 10752
  153.3448  135.4011  155.1600 H   0  0  0  0  0  0  0  0  0  0  0  0  # atno 10764 bound_to 10752
  154.8651  135.3751  154.5103 H   0  0  0  0  0  0  0  0  0  0  0  0  # atno 10765 bound_to 10752
  140.3276  134.2473  155.7707 H   0  0  0  0  0  0  0  0  0  0  0  0  # atno 11005 bound_to 11000
  144.7937  140.6081  143.6525 LP  0  0  0  0  0  0  0  0  0  0  0  0  # atno 17320 bound_to 7965
  145.4760  139.1499  143.3788 LP  0  0  0  0  0  0  0  0  0  0  0  0  # atno 17321 bound_to 7965
  139.8870  143.7001  152.3150 LP  0  0  0  0  0  0  0  0  0  0  0  0  # atno 17342 bound_to 10162
  139.7303  144.7584  151.0813 LP  0  0  0  0  0  0  0  0  0  0  0  0  # atno 17343 bound_to 10162
  157.7297  130.9675  150.1799 LP  0  0  0  0  0  0  0  0  0  0  0  0  # atno 17370 bound_to 10713
  156.2527  130.3702  149.8215 LP  0  0  0  0  0  0  0  0  0  0  0  0  # atno 17371 bound_to 10713
  141.2071  133.7814  157.0137 LP  0  0  0  0  0  0  0  0  0  0  0  0  # atno 17394 bound_to 11000
  140.0888  134.9605  157.1743 LP  0  0  0  0  0  0  0  0  0  0  0  0  # atno 17395 bound_to 11000

$$$$
