AV-unprocessed.smi:702|AV-procd|sdf|3423|dock6
  -GOLD-   22720 0403D 1   1.00000     0.00000
 Structure written by MMmdl.
 50 52  0  0  0  0  0  0  0  0  2 V2000
  146.8958  139.7634  151.5977 C   0  0  0  0  0  0  0  0  0  0  0  0
  146.3499  138.8580  152.7194 C   0  0  1  0  0  0  0  0  0  0  0  0
  146.5664  137.4585  152.3322 N   0  0  0  0  0  0  0  0  0  0  0  0
  145.6245  136.5603  152.0073 C   0  0  0  0  0  0  0  0  0  0  0  0
  144.4200  136.8102  151.9773 O   0  0  0  0  0  0  0  0  0  0  0  0
  146.1730  135.3606  151.7494 N   0  0  0  0  0  0  0  0  0  0  0  0
  145.5206  134.1448  151.4094 C   0  0  0  0  0  0  0  0  0  0  0  0
  144.1104  134.1165  151.4847 C   0  0  0  0  0  0  0  0  0  0  0  0
  143.4204  132.9280  151.1705 C   0  0  0  0  0  0  0  0  0  0  0  0
  144.1110  131.8250  150.8104 N   0  3  0  0  0  0  0  0  0  0  0  0
  145.4591  131.7989  150.7386 C   0  0  0  0  0  0  0  0  0  0  0  0
  146.2033  132.9574  151.0411 C   0  0  0  0  0  0  0  0  0  0  0  0
  146.9419  139.1862  154.1425 C   0  0  0  0  0  0  0  0  0  0  0  0
  146.3324  138.3172  155.1965 N   0  0  0  0  0  0  0  0  0  0  0  0
  144.8617  138.3372  155.2631 C   0  0  0  0  0  0  0  0  0  0  0  0
  144.3115  137.3317  156.2878 C   0  0  0  0  0  0  0  0  0  0  0  0
  144.8622  137.6094  157.5685 O   0  0  0  0  0  0  0  0  0  0  0  0
  146.2818  137.5353  157.5712 C   0  0  0  0  0  0  0  0  0  0  0  0
  146.8622  138.5297  156.5506 C   0  0  0  0  0  0  0  0  0  0  0  0
  148.4990  139.0653  154.0905 C   0  0  0  0  0  0  0  0  0  0  0  0
  149.0717  140.4840  154.1200 C   0  0  0  0  0  0  0  0  0  0  0  0
  148.0409  141.2867  154.8994 C   0  0  0  0  0  0  0  0  0  0  0  0
  146.7024  140.7030  154.4445 C   0  0  0  0  0  0  0  0  0  0  0  0
  146.6780  140.8143  151.7873 H   0  0  0  0  0  0  0  0  0  0  0  0
  146.4410  139.5113  150.6391 H   0  0  0  0  0  0  0  0  0  0  0  0
  147.9752  139.6645  151.4843 H   0  0  0  0  0  0  0  0  0  0  0  0
  145.2726  139.0124  152.7489 H   0  0  0  0  0  0  0  0  0  0  0  0
  147.5267  137.1472  152.3315 H   0  0  0  0  0  0  0  0  0  0  0  0
  147.1708  135.2933  151.8883 H   0  0  0  0  0  0  0  0  0  0  0  0
  143.5575  134.9986  151.7744 H   0  0  0  0  0  0  0  0  0  0  0  0
  142.3451  132.8271  151.1977 H   0  0  0  0  0  0  0  0  0  0  0  0
  145.9004  130.8566  150.4483 H   0  0  0  0  0  0  0  0  0  0  0  0
  147.2804  132.9084  150.9964 H   0  0  0  0  0  0  0  0  0  0  0  0
  144.4996  139.3289  155.5296 H   0  0  0  0  0  0  0  0  0  0  0  0
  144.4185  138.0964  154.2994 H   0  0  0  0  0  0  0  0  0  0  0  0
  143.2253  137.4054  156.3447 H   0  0  0  0  0  0  0  0  0  0  0  0
  144.5486  136.3084  155.9928 H   0  0  0  0  0  0  0  0  0  0  0  0
  146.6481  137.7641  158.5720 H   0  0  0  0  0  0  0  0  0  0  0  0
  146.6002  136.5176  157.3400 H   0  0  0  0  0  0  0  0  0  0  0  0
  147.9423  138.4086  156.5753 H   0  0  0  0  0  0  0  0  0  0  0  0
  146.6513  139.5468  156.8819 H   0  0  0  0  0  0  0  0  0  0  0  0
  148.8957  138.5263  154.9486 H   0  0  0  0  0  0  0  0  0  0  0  0
  148.8552  138.5117  153.2213 H   0  0  0  0  0  0  0  0  0  0  0  0
  150.0636  140.5259  154.5704 H   0  0  0  0  0  0  0  0  0  0  0  0
  149.1515  140.8740  153.1047 H   0  0  0  0  0  0  0  0  0  0  0  0
  148.1796  141.1252  155.9688 H   0  0  0  0  0  0  0  0  0  0  0  0
  148.1164  142.3583  154.7130 H   0  0  0  0  0  0  0  0  0  0  0  0
  146.3953  141.2565  153.5583 H   0  0  0  0  0  0  0  0  0  0  0  0
  145.9040  140.8864  155.1635 H   0  0  0  0  0  0  0  0  0  0  0  0
  143.5933  130.9740  150.5882 H   0  0  0  0  0  0  0  0  0  0  0  0
  1  2  1  0  0  0  0
  1 24  1  0  0  0  0
  1 25  1  0  0  0  0
  1 26  1  0  0  0  0
  2  3  1  0  0  0  0
  2 13  1  0  0  0  0
  2 27  1  0  0  0  0
  3  4  1  0  0  0  0
  3 28  1  0  0  0  0
  4  5  2  0  0  0  0
  4  6  1  0  0  0  0
  6  7  1  0  0  0  0
  6 29  1  0  0  0  0
  7 12  1  0  0  0  0
  7  8  2  0  0  0  0
  8  9  1  0  0  0  0
  8 30  1  0  0  0  0
  9 10  2  0  0  0  0
  9 31  1  0  0  0  0
 10 11  1  0  0  0  0
 10 50  1  0  0  0  0
 11 12  2  0  0  0  0
 11 32  1  0  0  0  0
 12 33  1  0  0  0  0
 13 23  1  0  0  0  0
 13 14  1  0  0  0  0
 13 20  1  0  0  0  0
 14 19  1  0  0  0  0
 14 15  1  0  0  0  0
 15 16  1  0  0  0  0
 15 34  1  0  0  0  0
 15 35  1  0  0  0  0
 16 17  1  0  0  0  0
 16 36  1  0  0  0  0
 16 37  1  0  0  0  0
 17 18  1  0  0  0  0
 18 19  1  0  0  0  0
 18 38  1  0  0  0  0
 18 39  1  0  0  0  0
 19 40  1  0  0  0  0
 19 41  1  0  0  0  0
 20 21  1  0  0  0  0
 20 42  1  0  0  0  0
 20 43  1  0  0  0  0
 21 22  1  0  0  0  0
 21 44  1  0  0  0  0
 21 45  1  0  0  0  0
 22 23  1  0  0  0  0
 22 46  1  0  0  0  0
 22 47  1  0  0  0  0
 23 48  1  0  0  0  0
 23 49  1  0  0  0  0
M  CHG  1  10   1
M  END
> <s_m_source_file>
AV-unprocessed.smi

> <i_m_source_file_index>
702

> <i_lp_mmshare_version>
43012

> <i_f3d_flags>
0

> <s_epik_input>
W0NIMl0xW0NIMl1PW0NIMl1bQ0gyXU4xQzIoW0NIMl1bQ0gyXVtDSDJdW0NIMl0yKVtDQEhdKFtDSDNdKVtOSF1DKD1PKVtOSF1jM1tjSF1bY0hdbltjSF1bY0hdMw==

> <s_epik_cmdline>
J2VwaWtfcHl0aG9uJywgJy1waCcsICc3LjAnLCAnLXRuJywgJzgnLCAnLW1hJywgJzIwMCcsICctbWV0YWxfYmluZGluZycsICctaW1hZScsICc8aW5maWxlLm1hZT4nLCAnLW9tYWUnLCAnPG91dGZpbGUubWFlPic=

> <r_epik_Ionization_Penalty>
1.54019

> <r_epik_Ionization_Penalty_Charging>
1.02845

> <r_epik_Ionization_Penalty_Neutral>
0.511739

> <r_epik_State_Penalty>
1.62583

> <r_epik_Charging_Adjusted_Penalty>
2.65428

> <i_epik_Tot_Q>
1

> <i_epik_Tot_abs_Q>
1

> <r_epik_Metal_State_Penalty>
1.71803

> <b_epik_Metal_Only>
0

> <s_lp_Force_Field>
OPLS_2005

> <r_lp_Energy>
72.2563

> <b_lp_Chiralities_Consistent>
1

> <s_lp_Variant>
AV-unprocessed.smi:702-8

> <Gold.Version>
5.8.1

> <Gold.Id.Protein>
6NUR|6NUR_protein|mol2

> <Gold.PLP.Fitness>
34.8730

> <Gold.PLP.PLP>
-28.9447

> <Gold.PLP.part.hbond>
-2.0000

> <Gold.PLP.part.metal>
0.0000

> <Gold.PLP.part.buried>
-0.4210

> <Gold.PLP.part.nonpolar>
-28.2112

> <Gold.PLP.part.repulsive>
1.4990

> <Gold.PLP.ligand.clash>
0.0000

> <Gold.PLP.ligand.torsion>
0.0970

> <Gold.PLP.Chemscore.Hbond>
2.0000

> <Gold.PLP.Chemscore.CHOScore>
0.0000

> <Gold.PLP.Chemscore.Metal>
0.0000

> <Gold.Chemscore.Hbonds>
donor molecule, donor type, donor heavy atom, donor atom, acceptor molecule, acceptor atom, score
      L1  H     3    28       P1  7948  1.00
      L1  H     6    29       P1  7948  0.96

> <Gold.PLP.Chemscore.Internal.Correction>
0.1222

> <Gold.Rescore>
     Score         DG    S(hbond)    S(metal)    S(lipo)     H(rot)  DE(clash)    DE(int)     intcor
     14.74     -17.70       1.97        0.00      79.67       1.44       1.45       1.52       ----

> <Gold.Chemscore.Fitness>
14.7380

> <Gold.Chemscore.DG>
-17.7048

> <Gold.Chemscore.ZeroCoef>
-5.4800

> <Gold.Chemscore.Hbond>
1.9726

> <Gold.Chemscore.Metal>
0.0000

> <Gold.Chemscore.Lipo>
79.6669

> <Gold.Chemscore.Internal_Hbond>
0.0000

> <Gold.Chemscore.DEClash>
1.4461

> <Gold.Chemscore.DEInternal>
1.5207

> <Gold.Chemscore.Rot>
1.4394

> <Gold.Chemscore.Internal.Correction>
   9.000000E+99

> <Gold.Chemscore.Hbonds>
donor molecule, donor type, donor heavy atom, donor atom, acceptor molecule, acceptor atom, score
      L1  H     3    28       P1  7948  0.99
      L1  H     6    29       P1  7948  0.90

> <Gold.Chemscore.Hbond.Weighted>
-6.5886

> <Gold.Chemscore.Metal.Weighted>
-0.0000

> <Gold.Chemscore.Lipo.Weighted>
-9.3210

> <Gold.Chemscore.Internal_Hbond.Weighted>
0.0000

> <Gold.Chemscore.DEClash.Weighted>
1.4461

> <Gold.Chemscore.DEInternal.Weighted>
1.5207

> <Gold.Chemscore.Rot.Weighted>
3.6848

> <Gold.Chemscore.Internal.Correction.Weighted>
   9.000000E+99

> <Gold.Protein.RotatedTorsions>
[ 6907 6896 6895 6894 ] final  -22.85 input  -60.11 | X-H torsion
[ 7974 7965 7964 7962 ] final  -31.12 input  175.53 | X-H torsion
[ 8008 7997 7996 7995 ] final   12.12 input   59.86 | X-H torsion
[ 10167 10162 10161 10158 ] final   74.97 input  -65.29 | X-H torsion
[ 10718 10713 10712 10709 ] final   15.11 input   66.30 | X-H torsion
[ 10763 10752 10751 10750 ] final  164.43 input  -60.55 | X-H torsion
[ 11005 11000 10999 10996 ] final -167.22 input  -57.11 | X-H torsion

> <Gold.Protein.ActiveResidues>
 VAL166  LYS551  ARG553  GLY616  TRP617  ASP618  TYR619  PRO620  LYS621  CYS622 
 ASP623  PHE694  ASN695  SER759  ASP760  ASP761  ALA762  ILE779  LEU786  VAL792 
 PHE793  MET794  SER795  GLU796  ALA797  LYS798  CYS799  TRP800  GLU811  SER814 

> <Gold.Protein.RotatedAtoms>
  151.2126  135.0487  159.8916 H   0  0  0  0  0  0  0  0  0  0  0  0  # atno 6907 bound_to 6896
  152.5423  134.0728  159.8212 H   0  0  0  0  0  0  0  0  0  0  0  0  # atno 6908 bound_to 6896
  151.0884  133.5287  159.2648 H   0  0  0  0  0  0  0  0  0  0  0  0  # atno 6909 bound_to 6896
  146.1092  140.5626  142.8786 H   0  0  0  0  0  0  0  0  0  0  0  0  # atno 7974 bound_to 7965
  154.8163  140.2876  155.5818 H   0  0  0  0  0  0  0  0  0  0  0  0  # atno 8008 bound_to 7997
  156.2993  140.2558  156.2991 H   0  0  0  0  0  0  0  0  0  0  0  0  # atno 8009 bound_to 7997
  154.9389  140.0382  157.2076 H   0  0  0  0  0  0  0  0  0  0  0  0  # atno 8010 bound_to 7997
  140.0080  144.5636  150.7682 H   0  0  0  0  0  0  0  0  0  0  0  0  # atno 10167 bound_to 10162
  157.0488  130.6261  149.5764 H   0  0  0  0  0  0  0  0  0  0  0  0  # atno 10718 bound_to 10713
  154.3088  135.2757  155.2576 H   0  0  0  0  0  0  0  0  0  0  0  0  # atno 10763 bound_to 10752
  154.4980  135.5816  153.6512 H   0  0  0  0  0  0  0  0  0  0  0  0  # atno 10764 bound_to 10752
  152.9890  135.6151  154.3264 H   0  0  0  0  0  0  0  0  0  0  0  0  # atno 10765 bound_to 10752
  140.5557  134.5383  157.5132 H   0  0  0  0  0  0  0  0  0  0  0  0  # atno 11005 bound_to 11000
  144.7497  140.5158  143.6811 LP  0  0  0  0  0  0  0  0  0  0  0  0  # atno 17320 bound_to 7965
  145.5699  139.1483  143.3294 LP  0  0  0  0  0  0  0  0  0  0  0  0  # atno 17321 bound_to 7965
  140.7393  143.2789  151.3658 LP  0  0  0  0  0  0  0  0  0  0  0  0  # atno 17342 bound_to 10162
  139.6225  144.0879  152.2404 LP  0  0  0  0  0  0  0  0  0  0  0  0  # atno 17343 bound_to 10162
  156.0014  130.5094  150.7676 LP  0  0  0  0  0  0  0  0  0  0  0  0  # atno 17370 bound_to 10713
  157.5046  131.0921  151.0273 LP  0  0  0  0  0  0  0  0  0  0  0  0  # atno 17371 bound_to 10713
  139.9433  134.7748  156.0625 LP  0  0  0  0  0  0  0  0  0  0  0  0  # atno 17394 bound_to 11000
  141.1145  133.6632  156.3059 LP  0  0  0  0  0  0  0  0  0  0  0  0  # atno 17395 bound_to 11000

$$$$
