AV-unprocessed.smi:1643|AV-procd|sdf|6574|dock10
  -GOLD-   22720 7263D 1   1.00000     0.00000
 Structure written by MMmdl.
 54 56  0  0  0  0  0  0  0  0  2 V2000
  150.8176  140.1811  155.3517 C   0  0  0  0  0  0  0  0  0  0  0  0
  149.5201  140.4836  156.1058 C   0  0  0  0  0  0  0  0  0  0  0  0
  149.4470  140.1473  157.2876 O   0  0  0  0  0  0  0  0  0  0  0  0
  148.5061  141.1120  155.4610 N   0  0  0  0  0  0  0  0  0  0  0  0
  147.2813  141.5142  156.1681 C   0  0  0  0  0  0  0  0  0  0  0  0
  146.1177  140.5206  155.9439 C   0  0  0  0  0  0  0  0  0  0  0  0
  146.3475  139.4475  154.8546 C   0  0  0  0  0  0  0  0  0  0  0  0
  146.5046  139.9670  153.4627 N   0  3  2  0  0  0  0  0  0  0  0  0
  147.0972  138.9655  152.5342 C   0  0  0  0  0  0  0  0  0  0  0  0
  146.0408  138.0684  151.8592 C   0  0  1  0  0  0  0  0  0  0  0  0
  146.5675  137.5759  150.6416 O   0  0  0  0  0  0  0  0  0  0  0  0
  145.6359  136.8829  152.7561 C   0  0  0  0  0  0  0  0  0  0  0  0
  145.2236  135.7237  151.9853 N   0  0  0  0  0  0  0  0  0  0  0  0
  144.2738  135.6734  151.0315 C   0  0  0  0  0  0  0  0  0  0  0  0
  144.0561  134.4969  150.4510 N   0  0  0  0  0  0  0  0  0  0  0  0
  144.9740  133.6901  151.1012 C   0  0  0  0  0  0  0  0  0  0  0  0
  145.2555  132.3146  150.9511 C   0  0  0  0  0  0  0  0  0  0  0  0
  146.2513  131.6888  151.7345 C   0  0  0  0  0  0  0  0  0  0  0  0
  146.5199  130.2067  151.5414 C   0  0  0  0  0  0  0  0  0  0  0  0
  146.9844  132.4420  152.6866 C   0  0  0  0  0  0  0  0  0  0  0  0
  148.0586  131.7907  153.5399 C   0  0  0  0  0  0  0  0  0  0  0  0
  146.7168  133.8174  152.8486 C   0  0  0  0  0  0  0  0  0  0  0  0
  145.7221  134.4279  152.0645 C   0  0  0  0  0  0  0  0  0  0  0  0
  147.1448  141.3077  153.3287 C   0  0  0  0  0  0  0  0  0  0  0  0
  148.5224  141.4492  154.0264 C   0  0  0  0  0  0  0  0  0  0  0  0
  151.1934  141.0708  154.8452 H   0  0  0  0  0  0  0  0  0  0  0  0
  150.6599  139.3925  154.6158 H   0  0  0  0  0  0  0  0  0  0  0  0
  151.5913  139.8422  156.0416 H   0  0  0  0  0  0  0  0  0  0  0  0
  147.4518  141.6439  157.2382 H   0  0  0  0  0  0  0  0  0  0  0  0
  146.9916  142.5098  155.8303 H   0  0  0  0  0  0  0  0  0  0  0  0
  145.9326  140.0008  156.8846 H   0  0  0  0  0  0  0  0  0  0  0  0
  145.2008  141.0723  155.7339 H   0  0  0  0  0  0  0  0  0  0  0  0
  147.2078  138.8333  155.1245 H   0  0  0  0  0  0  0  0  0  0  0  0
  145.4926  138.7718  154.8661 H   0  0  0  0  0  0  0  0  0  0  0  0
  147.6676  139.4711  151.7535 H   0  0  0  0  0  0  0  0  0  0  0  0
  147.8153  138.3547  153.0835 H   0  0  0  0  0  0  0  0  0  0  0  0
  145.1447  138.6455  151.6342 H   0  0  0  0  0  0  0  0  0  0  0  0
  145.9201  137.6888  149.9621 H   0  0  0  0  0  0  0  0  0  0  0  0
  146.4601  136.5959  153.4110 H   0  0  0  0  0  0  0  0  0  0  0  0
  144.8062  137.1674  153.4046 H   0  0  0  0  0  0  0  0  0  0  0  0
  143.7071  136.5488  150.7495 H   0  0  0  0  0  0  0  0  0  0  0  0
  144.6971  131.7410  150.2260 H   0  0  0  0  0  0  0  0  0  0  0  0
  147.5655  130.0368  151.2833 H   0  0  0  0  0  0  0  0  0  0  0  0
  145.9079  129.7920  150.7397 H   0  0  0  0  0  0  0  0  0  0  0  0
  146.2940  129.6566  152.4552 H   0  0  0  0  0  0  0  0  0  0  0  0
  148.5072  132.5063  154.2295 H   0  0  0  0  0  0  0  0  0  0  0  0
  148.8536  131.3885  152.9115 H   0  0  0  0  0  0  0  0  0  0  0  0
  147.6375  130.9765  154.1302 H   0  0  0  0  0  0  0  0  0  0  0  0
  147.2681  134.4023  153.5696 H   0  0  0  0  0  0  0  0  0  0  0  0
  147.2542  141.5525  152.2716 H   0  0  0  0  0  0  0  0  0  0  0  0
  146.4479  142.0601  153.6974 H   0  0  0  0  0  0  0  0  0  0  0  0
  148.8804  142.4740  153.9208 H   0  0  0  0  0  0  0  0  0  0  0  0
  149.2253  140.8263  153.4745 H   0  0  0  0  0  0  0  0  0  0  0  0
  145.5637  140.1112  153.1236 H   0  0  0  0  0  0  0  0  0  0  0  0
  1  2  1  0  0  0  0
  1 26  1  0  0  0  0
  1 27  1  0  0  0  0
  1 28  1  0  0  0  0
  2  3  2  0  0  0  0
  2  4  1  0  0  0  0
  4 25  1  0  0  0  0
  4  5  1  0  0  0  0
  5  6  1  0  0  0  0
  5 29  1  0  0  0  0
  5 30  1  0  0  0  0
  6  7  1  0  0  0  0
  6 31  1  0  0  0  0
  6 32  1  0  0  0  0
  7  8  1  0  0  0  0
  7 33  1  0  0  0  0
  7 34  1  0  0  0  0
  8  9  1  0  0  0  0
  8 24  1  0  0  0  0
  8 54  1  0  0  0  0
  9 10  1  0  0  0  0
  9 35  1  0  0  0  0
  9 36  1  0  0  0  0
 10 11  1  0  0  0  0
 10 12  1  0  0  0  0
 10 37  1  0  0  0  0
 11 38  1  0  0  0  0
 12 13  1  0  0  0  0
 12 39  1  0  0  0  0
 12 40  1  0  0  0  0
 13 23  1  0  0  0  0
 13 14  1  0  0  0  0
 14 15  2  0  0  0  0
 14 41  1  0  0  0  0
 15 16  1  0  0  0  0
 16 23  2  0  0  0  0
 16 17  1  0  0  0  0
 17 18  2  0  0  0  0
 17 42  1  0  0  0  0
 18 19  1  0  0  0  0
 18 20  1  0  0  0  0
 19 43  1  0  0  0  0
 19 44  1  0  0  0  0
 19 45  1  0  0  0  0
 20 21  1  0  0  0  0
 20 22  2  0  0  0  0
 21 46  1  0  0  0  0
 21 47  1  0  0  0  0
 21 48  1  0  0  0  0
 22 23  1  0  0  0  0
 22 49  1  0  0  0  0
 24 25  1  0  0  0  0
 24 50  1  0  0  0  0
 24 51  1  0  0  0  0
 25 52  1  0  0  0  0
 25 53  1  0  0  0  0
M  CHG  1   8   1
M  END
> <s_m_source_file>
AV-unprocessed.smi

> <i_m_source_file_index>
1643

> <i_lp_mmshare_version>
43012

> <i_f3d_flags>
0

> <s_epik_input>
W0NIM11DKD1PKU4xW0NIMl1bQ0gyXVtDSDJdTihbQ0gyXVtDSDJdMSlbQ0gyXVtDQEhdKFtPSF0pW0NIMl1uKFtjSF1uMiljKGMyMylbY0hdYyhbQ0gzXSljKFtjSF0zKVtDSDNd

> <s_epik_cmdline>
J2VwaWtfcHl0aG9uJywgJy1waCcsICc3LjAnLCAnLXRuJywgJzgnLCAnLW1hJywgJzIwMCcsICctbWV0YWxfYmluZGluZycsICctaW1hZScsICc8aW5maWxlLm1hZT4nLCAnLW9tYWUnLCAnPG91dGZpbGUubWFlPic=

> <r_epik_Ionization_Penalty>
0.189467

> <r_epik_Ionization_Penalty_Charging>
0.101761

> <r_epik_Ionization_Penalty_Neutral>
0.0877056

> <r_epik_State_Penalty>
0.170758

> <r_epik_Charging_Adjusted_Penalty>
0.272519

> <i_epik_Tot_Q>
1

> <i_epik_Tot_abs_Q>
1

> <r_epik_Metal_State_Penalty>
0.0948013

> <b_epik_Metal_Only>
0

> <s_lp_Force_Field>
OPLS_2005

> <r_lp_Energy>
48.7512

> <b_lp_Chiralities_Consistent>
1

> <s_lp_Variant>
AV-unprocessed.smi:1643-3

> <Gold.Version>
5.8.1

> <Gold.Id.Protein>
6NUR|6NUR_protein|mol2

> <Gold.PLP.Fitness>
51.6543

> <Gold.PLP.PLP>
-40.1587

> <Gold.PLP.part.hbond>
-3.9743

> <Gold.PLP.part.metal>
0.0000

> <Gold.PLP.part.buried>
-1.5042

> <Gold.PLP.part.nonpolar>
-35.6391

> <Gold.PLP.part.repulsive>
0.8004

> <Gold.PLP.ligand.clash>
0.0000

> <Gold.PLP.ligand.torsion>
1.1359

> <Gold.PLP.Chemscore.Hbond>
3.5606

> <Gold.PLP.Chemscore.CHOScore>
1.0000

> <Gold.PLP.Chemscore.Metal>
0.0000

> <Gold.Chemscore.Hbonds>
donor molecule, donor type, donor heavy atom, donor atom, acceptor molecule, acceptor atom, score
      L1  H     8    54       P1 10175  2.00
      L1  H    11    38       P1 10171  0.39
      P1  H  7954  7966       L1    11  1.00
      L1  C    14    41       P1 10171  1.00

> <Gold.PLP.Chemscore.Internal.Correction>
0.0856

> <Gold.Rescore>
     Score         DG    S(hbond)    S(metal)    S(lipo)     H(rot)  DE(clash)    DE(int)     intcor
     16.23     -20.47       2.46        0.00     104.24       2.12       1.80       2.45       ----

> <Gold.Chemscore.Fitness>
16.2266

> <Gold.Chemscore.DG>
-20.4730

> <Gold.Chemscore.ZeroCoef>
-5.4800

> <Gold.Chemscore.Hbond>
2.4607

> <Gold.Chemscore.Metal>
0.0000

> <Gold.Chemscore.Lipo>
104.2367

> <Gold.Chemscore.Internal_Hbond>
0.0000

> <Gold.Chemscore.DEClash>
1.8014

> <Gold.Chemscore.DEInternal>
2.4450

> <Gold.Chemscore.Rot>
2.1178

> <Gold.Chemscore.Internal.Correction>
   9.000000E+99

> <Gold.Chemscore.Hbonds>
donor molecule, donor type, donor heavy atom, donor atom, acceptor molecule, acceptor atom, score
      L1  H     8    54       P1 10175  0.94
      L1  H    11    38       P1 10171  0.38
      P1  H  7954  7966       L1    11  0.53

> <Gold.Chemscore.Hbond.Weighted>
-8.2188

> <Gold.Chemscore.Metal.Weighted>
-0.0000

> <Gold.Chemscore.Lipo.Weighted>
-12.1957

> <Gold.Chemscore.Internal_Hbond.Weighted>
0.0000

> <Gold.Chemscore.DEClash.Weighted>
1.8014

> <Gold.Chemscore.DEInternal.Weighted>
2.4450

> <Gold.Chemscore.Rot.Weighted>
5.4215

> <Gold.Chemscore.Internal.Correction.Weighted>
   9.000000E+99

> <Gold.Protein.RotatedTorsions>
[ 6907 6896 6895 6894 ] final -156.26 input  -60.11 | X-H torsion
[ 7974 7965 7964 7962 ] final  -31.01 input  175.53 | X-H torsion
[ 8008 7997 7996 7995 ] final  178.87 input   59.86 | X-H torsion
[ 10167 10162 10161 10158 ] final  -79.35 input  -65.29 | X-H torsion
[ 10718 10713 10712 10709 ] final   36.72 input   66.30 | X-H torsion
[ 10763 10752 10751 10750 ] final  108.34 input  -60.55 | X-H torsion
[ 11005 11000 10999 10996 ] final -110.67 input  -57.11 | X-H torsion

> <Gold.Protein.ActiveResidues>
 VAL166  LYS551  ARG553  GLY616  TRP617  ASP618  TYR619  PRO620  LYS621  CYS622 
 ASP623  PHE694  ASN695  SER759  ASP760  ASP761  ALA762  ILE779  LEU786  VAL792 
 PHE793  MET794  SER795  GLU796  ALA797  LYS798  CYS799  TRP800  GLU811  SER814 

> <Gold.Protein.RotatedAtoms>
  151.2849  133.4192  159.2629 H   0  0  0  0  0  0  0  0  0  0  0  0  # atno 6907 bound_to 6896
  151.0328  134.9552  159.8130 H   0  0  0  0  0  0  0  0  0  0  0  0  # atno 6908 bound_to 6896
  152.5349  134.2809  159.9059 H   0  0  0  0  0  0  0  0  0  0  0  0  # atno 6909 bound_to 6896
  146.1100  140.5613  142.8782 H   0  0  0  0  0  0  0  0  0  0  0  0  # atno 7974 bound_to 7965
  156.0497  140.1322  157.0063 H   0  0  0  0  0  0  0  0  0  0  0  0  # atno 8008 bound_to 7997
  154.4429  140.1013  156.6429 H   0  0  0  0  0  0  0  0  0  0  0  0  # atno 8009 bound_to 7997
  155.5541  140.3463  155.4478 H   0  0  0  0  0  0  0  0  0  0  0  0  # atno 8010 bound_to 7997
  140.4601  143.2456  151.8361 H   0  0  0  0  0  0  0  0  0  0  0  0  # atno 10167 bound_to 10162
  157.3382  130.7534  149.6894 H   0  0  0  0  0  0  0  0  0  0  0  0  # atno 10718 bound_to 10713
  153.4192  135.3815  155.2100 H   0  0  0  0  0  0  0  0  0  0  0  0  # atno 10763 bound_to 10752
  154.8743  135.3813  154.4404 H   0  0  0  0  0  0  0  0  0  0  0  0  # atno 10764 bound_to 10752
  153.4923  135.7088  153.5940 H   0  0  0  0  0  0  0  0  0  0  0  0  # atno 10765 bound_to 10752
  141.0778  133.9271  157.2352 H   0  0  0  0  0  0  0  0  0  0  0  0  # atno 11005 bound_to 11000
  144.7503  140.5174  143.6806 LP  0  0  0  0  0  0  0  0  0  0  0  0  # atno 17320 bound_to 7965
  145.5684  139.1482  143.3302 LP  0  0  0  0  0  0  0  0  0  0  0  0  # atno 17321 bound_to 7965
  139.4805  144.5017  151.9051 LP  0  0  0  0  0  0  0  0  0  0  0  0  # atno 17342 bound_to 10162
  140.4103  144.2377  150.5889 LP  0  0  0  0  0  0  0  0  0  0  0  0  # atno 17343 bound_to 10162
  155.9704  130.4175  150.4283 LP  0  0  0  0  0  0  0  0  0  0  0  0  # atno 17370 bound_to 10713
  157.2327  131.0507  151.2483 LP  0  0  0  0  0  0  0  0  0  0  0  0  # atno 17371 bound_to 10713
  139.9591  135.0158  156.9211 LP  0  0  0  0  0  0  0  0  0  0  0  0  # atno 17394 bound_to 11000
  140.5534  134.0605  155.7376 LP  0  0  0  0  0  0  0  0  0  0  0  0  # atno 17395 bound_to 11000

$$$$
