AV-unprocessed.smi:1960|AV-procd|sdf|7916|dock6
  -GOLD-   2272010 83D 1   1.00000     0.00000
 Structure written by MMmdl.
 38 39  0  0  0  0  0  0  0  0  1 V2000
  153.6997  142.5556  162.9079 C   0  0  0  0  0  0  0  0  0  0  0  0
  152.4447  143.4021  161.8628 S   0  0  0  0  0  0  0  0  0  0  0  0
  151.2010  142.6185  161.9150 O   0  0  0  0  0  0  0  0  0  0  0  0
  152.4255  144.8259  162.2317 O   0  0  0  0  0  0  0  0  0  0  0  0
  153.0843  143.2792  160.2487 N   0  0  0  0  0  0  0  0  0  0  0  0
  153.1123  141.9710  159.5641 C   0  0  0  0  0  0  0  0  0  0  0  0
  151.9655  141.8350  158.5471 C   0  0  0  0  0  0  0  0  0  0  0  0
  151.9560  143.0069  157.5508 C   0  0  0  0  0  0  0  0  0  0  0  0
  150.8194  142.9071  156.6392 N   0  0  0  0  0  0  0  0  0  0  0  0
  150.4576  141.8007  155.9734 C   0  0  0  0  0  0  0  0  0  0  0  0
  151.0570  140.7296  156.0646 O   0  0  0  0  0  0  0  0  0  0  0  0
  149.3597  142.0190  155.2283 N   0  0  0  0  0  0  0  0  0  0  0  0
  148.6677  141.1135  154.3787 C   0  0  0  0  0  0  0  0  0  0  0  0
  149.1411  139.7869  154.3087 C   0  0  0  0  0  0  0  0  0  0  0  0
  148.4623  138.8655  153.4863 C   0  0  0  0  0  0  0  0  0  0  0  0
  147.3686  139.1830  152.7623 N   0  0  0  0  0  0  0  0  0  0  0  0
  146.9081  140.4494  152.8412 C   0  0  0  0  0  0  0  0  0  0  0  0
  147.5119  141.4475  153.6322 C   0  0  0  0  0  0  0  0  0  0  0  0
  151.8872  144.3303  158.3268 C   0  0  0  0  0  0  0  0  0  0  0  0
  153.0359  144.4459  159.3445 C   0  0  0  0  0  0  0  0  0  0  0  0
  153.3769  142.5895  163.9480 H   0  0  0  0  0  0  0  0  0  0  0  0
  154.6590  143.0625  162.8199 H   0  0  0  0  0  0  0  0  0  0  0  0
  153.7971  141.5154  162.6023 H   0  0  0  0  0  0  0  0  0  0  0  0
  154.0682  141.8737  159.0483 H   0  0  0  0  0  0  0  0  0  0  0  0
  153.0722  141.1605  160.2911 H   0  0  0  0  0  0  0  0  0  0  0  0
  152.0700  140.8897  158.0135 H   0  0  0  0  0  0  0  0  0  0  0  0
  151.0100  141.7841  159.0682 H   0  0  0  0  0  0  0  0  0  0  0  0
  152.8821  142.9941  156.9726 H   0  0  0  0  0  0  0  0  0  0  0  0
  150.2685  143.7426  156.5076 H   0  0  0  0  0  0  0  0  0  0  0  0
  148.9346  142.9297  155.3233 H   0  0  0  0  0  0  0  0  0  0  0  0
  150.0119  139.4776  154.8683 H   0  0  0  0  0  0  0  0  0  0  0  0
  148.8070  137.8447  153.4098 H   0  0  0  0  0  0  0  0  0  0  0  0
  146.0258  140.6737  152.2604 H   0  0  0  0  0  0  0  0  0  0  0  0
  147.0729  142.4327  153.6582 H   0  0  0  0  0  0  0  0  0  0  0  0
  151.9328  145.1703  157.6327 H   0  0  0  0  0  0  0  0  0  0  0  0
  150.9289  144.4120  158.8389 H   0  0  0  0  0  0  0  0  0  0  0  0
  152.9436  145.3676  159.9182 H   0  0  0  0  0  0  0  0  0  0  0  0
  153.9867  144.5087  158.8140 H   0  0  0  0  0  0  0  0  0  0  0  0
  1  2  1  0  0  0  0
  1 21  1  0  0  0  0
  1 22  1  0  0  0  0
  1 23  1  0  0  0  0
  2  3  2  0  0  0  0
  2  4  2  0  0  0  0
  2  5  1  0  0  0  0
  5 20  1  0  0  0  0
  5  6  1  0  0  0  0
  6  7  1  0  0  0  0
  6 24  1  0  0  0  0
  6 25  1  0  0  0  0
  7  8  1  0  0  0  0
  7 26  1  0  0  0  0
  7 27  1  0  0  0  0
  8  9  1  0  0  0  0
  8 19  1  0  0  0  0
  8 28  1  0  0  0  0
  9 10  1  0  0  0  0
  9 29  1  0  0  0  0
 10 11  2  0  0  0  0
 10 12  1  0  0  0  0
 12 13  1  0  0  0  0
 12 30  1  0  0  0  0
 13 18  1  0  0  0  0
 13 14  2  0  0  0  0
 14 15  1  0  0  0  0
 14 31  1  0  0  0  0
 15 16  2  0  0  0  0
 15 32  1  0  0  0  0
 16 17  1  0  0  0  0
 17 18  2  0  0  0  0
 17 33  1  0  0  0  0
 18 34  1  0  0  0  0
 19 20  1  0  0  0  0
 19 35  1  0  0  0  0
 19 36  1  0  0  0  0
 20 37  1  0  0  0  0
 20 38  1  0  0  0  0
M  END
> <s_m_source_file>
AV-unprocessed.smi

> <i_m_source_file_index>
1960

> <i_lp_mmshare_version>
43012

> <i_f3d_flags>
0

> <s_epik_input>
W0NIM11TKD1PKSg9TylOMVtDSDJdW0NIMl1bQ0hdKFtDSDJdW0NIMl0xKVtOSF1DKD1PKVtOSF1jMltjSF1bY0hdbltjSF1bY0hdMg==

> <s_epik_cmdline>
J2VwaWtfcHl0aG9uJywgJy1waCcsICc3LjAnLCAnLXRuJywgJzgnLCAnLW1hJywgJzIwMCcsICctbWV0YWxfYmluZGluZycsICctaW1hZScsICc8aW5maWxlLm1hZT4nLCAnLW9tYWUnLCAnPG91dGZpbGUubWFlPic=

> <r_epik_Ionization_Penalty>
0.116752

> <r_epik_Ionization_Penalty_Charging>
0

> <r_epik_Ionization_Penalty_Neutral>
0.116752

> <r_epik_State_Penalty>
0.106329

> <r_epik_Charging_Adjusted_Penalty>
0.106329

> <i_epik_Tot_Q>
0

> <i_epik_Tot_abs_Q>
0

> <r_epik_Metal_State_Penalty>
0.0886803

> <b_epik_Metal_Only>
0

> <s_lp_Force_Field>
OPLS_2005

> <r_lp_Energy>
6.48368

> <b_lp_Chiralities_Consistent>
1

> <s_lp_Variant>
AV-unprocessed.smi:1960-1

> <Gold.Version>
5.8.1

> <Gold.Id.Protein>
6NUR|6NUR_protein|mol2

> <Gold.PLP.Fitness>
44.5978

> <Gold.PLP.PLP>
-31.0391

> <Gold.PLP.part.hbond>
-2.2894

> <Gold.PLP.part.metal>
0.0000

> <Gold.PLP.part.buried>
-1.2106

> <Gold.PLP.part.nonpolar>
-32.3874

> <Gold.PLP.part.repulsive>
6.4957

> <Gold.PLP.ligand.clash>
0.0000

> <Gold.PLP.ligand.torsion>
1.2068

> <Gold.PLP.Chemscore.Hbond>
2.6406

> <Gold.PLP.Chemscore.CHOScore>
1.9995

> <Gold.PLP.Chemscore.Metal>
0.0000

> <Gold.Chemscore.Hbonds>
donor molecule, donor type, donor heavy atom, donor atom, acceptor molecule, acceptor atom, score
      L1  H     9    29       P1  8028  1.00
      L1  H    12    30       P1  8028  1.00
      P1  H  6933  6945       L1     3  0.58
      L1  C    15    32       P1  7948  1.00
      L1  C    17    33       P1 10175  0.90

> <Gold.PLP.Chemscore.Internal.Correction>
2.0519

> <Gold.Rescore>
     Score         DG    S(hbond)    S(metal)    S(lipo)     H(rot)  DE(clash)    DE(int)     intcor
     13.94     -23.03       2.52        0.00     100.01       1.00       5.00       4.09       ----

> <Gold.Chemscore.Fitness>
13.9432

> <Gold.Chemscore.DG>
-23.0336

> <Gold.Chemscore.ZeroCoef>
-5.4800

> <Gold.Chemscore.Hbond>
2.5188

> <Gold.Chemscore.Metal>
0.0000

> <Gold.Chemscore.Lipo>
100.0061

> <Gold.Chemscore.Internal_Hbond>
0.0000

> <Gold.Chemscore.DEClash>
4.9962

> <Gold.Chemscore.DEInternal>
4.0941

> <Gold.Chemscore.Rot>
1.0000

> <Gold.Chemscore.Internal.Correction>
   9.000000E+99

> <Gold.Chemscore.Hbonds>
donor molecule, donor type, donor heavy atom, donor atom, acceptor molecule, acceptor atom, score
      L1  H     9    29       P1  8028  0.97
      L1  H    12    30       P1  8028  0.99
      P1  H  6933  6945       L1     3  0.56

> <Gold.Chemscore.Hbond.Weighted>
-8.4129

> <Gold.Chemscore.Metal.Weighted>
-0.0000

> <Gold.Chemscore.Lipo.Weighted>
-11.7007

> <Gold.Chemscore.Internal_Hbond.Weighted>
0.0000

> <Gold.Chemscore.DEClash.Weighted>
4.9962

> <Gold.Chemscore.DEInternal.Weighted>
4.0941

> <Gold.Chemscore.Rot.Weighted>
2.5600

> <Gold.Chemscore.Internal.Correction.Weighted>
   9.000000E+99

> <Gold.Protein.RotatedTorsions>
[ 6907 6896 6895 6894 ] final   88.64 input  -60.11 | X-H torsion
[ 7974 7965 7964 7962 ] final  125.61 input  175.53 | X-H torsion
[ 8008 7997 7996 7995 ] final   -2.17 input   59.86 | X-H torsion
[ 10167 10162 10161 10158 ] final   22.05 input  -65.29 | X-H torsion
[ 10718 10713 10712 10709 ] final  -95.89 input   66.30 | X-H torsion
[ 10763 10752 10751 10750 ] final   44.99 input  -60.55 | X-H torsion
[ 11005 11000 10999 10996 ] final  115.15 input  -57.11 | X-H torsion

> <Gold.Protein.ActiveResidues>
 VAL166  LYS551  ARG553  GLY616  TRP617  ASP618  TYR619  PRO620  LYS621  CYS622 
 ASP623  PHE694  ASN695  SER759  ASP760  ASP761  ALA762  ILE779  LEU786  VAL792 
 PHE793  MET794  SER795  GLU796  ALA797  LYS798  CYS799  TRP800  GLU811  SER814 

> <Gold.Protein.RotatedAtoms>
  152.5427  134.2089  159.8741 H   0  0  0  0  0  0  0  0  0  0  0  0  # atno 6907 bound_to 6896
  151.2073  133.4569  159.2605 H   0  0  0  0  0  0  0  0  0  0  0  0  # atno 6908 bound_to 6896
  151.0931  134.9940  159.8468 H   0  0  0  0  0  0  0  0  0  0  0  0  # atno 6909 bound_to 6896
  145.0710  139.3730  143.4957 H   0  0  0  0  0  0  0  0  0  0  0  0  # atno 7974 bound_to 7965
  154.6386  140.2541  155.7348 H   0  0  0  0  0  0  0  0  0  0  0  0  # atno 8008 bound_to 7997
  156.2517  140.2892  156.0690 H   0  0  0  0  0  0  0  0  0  0  0  0  # atno 8009 bound_to 7997
  155.1631  140.0385  157.2837 H   0  0  0  0  0  0  0  0  0  0  0  0  # atno 8010 bound_to 7997
  140.5379  143.9728  150.6502 H   0  0  0  0  0  0  0  0  0  0  0  0  # atno 10167 bound_to 10162
  156.0052  130.5128  150.6145 H   0  0  0  0  0  0  0  0  0  0  0  0  # atno 10718 bound_to 10713
  152.9831  135.6053  154.3364 H   0  0  0  0  0  0  0  0  0  0  0  0  # atno 10763 bound_to 10752
  154.3064  135.2772  155.2588 H   0  0  0  0  0  0  0  0  0  0  0  0  # atno 10764 bound_to 10752
  154.4817  135.5915  153.6450 H   0  0  0  0  0  0  0  0  0  0  0  0  # atno 10765 bound_to 10752
  139.9001  134.9579  156.7001 H   0  0  0  0  0  0  0  0  0  0  0  0  # atno 11005 bound_to 11000
  146.3528  140.0455  142.8640 LP  0  0  0  0  0  0  0  0  0  0  0  0  # atno 17320 bound_to 7965
  145.1292  140.9508  143.4554 LP  0  0  0  0  0  0  0  0  0  0  0  0  # atno 17321 bound_to 7965
  140.3121  143.3191  152.0868 LP  0  0  0  0  0  0  0  0  0  0  0  0  # atno 17342 bound_to 10162
  139.4978  144.6629  151.6423 LP  0  0  0  0  0  0  0  0  0  0  0  0  # atno 17343 bound_to 10162
  157.3971  131.0804  151.1342 LP  0  0  0  0  0  0  0  0  0  0  0  0  # atno 17370 bound_to 10713
  157.2015  130.6397  149.5740 LP  0  0  0  0  0  0  0  0  0  0  0  0  # atno 17371 bound_to 10713
  140.7157  133.9184  155.8113 LP  0  0  0  0  0  0  0  0  0  0  0  0  # atno 17394 bound_to 11000
  141.0266  134.0814  157.4061 LP  0  0  0  0  0  0  0  0  0  0  0  0  # atno 17395 bound_to 11000

$$$$
