AV-unprocessed.smi:1410|AV-procd|sdf|5731|dock3
  -GOLD-   22720 5363D 1   1.00000     0.00000
 Structure written by MMmdl.
 40 41  0  0  0  0  0  0  0  0  2 V2000
  149.0362  133.8913  153.6097 N   0  0  0  0  0  0  0  0  0  0  0  0
  149.2559  134.1948  154.8911 C   0  0  0  0  0  0  0  0  0  0  0  0
  149.8522  133.4340  155.6514 O   0  0  0  0  0  0  0  0  0  0  0  0
  148.7463  135.5553  155.3786 C   0  0  0  0  0  0  0  0  0  0  0  0
  149.4345  136.6994  154.7271 N   0  3  2  0  0  0  0  0  0  0  0  0
  150.9065  136.6920  154.9391 C   0  0  0  0  0  0  0  0  0  0  0  0
  151.5878  137.8026  154.1212 C   0  0  0  0  0  0  0  0  0  0  0  0
  151.0036  139.1941  154.4387 C   0  0  2  0  0  0  0  0  0  0  0  0
  151.3840  139.6554  155.7742 N   0  0  0  0  0  0  0  0  0  0  0  0
  151.3625  140.9316  156.1873 C   0  0  0  0  0  0  0  0  0  0  0  0
  151.0251  141.8683  155.4644 O   0  0  0  0  0  0  0  0  0  0  0  0
  151.7711  141.0360  157.4642 N   0  0  0  0  0  0  0  0  0  0  0  0
  151.9076  142.2013  158.2684 C   0  0  0  0  0  0  0  0  0  0  0  0
  152.4441  142.0410  159.5628 C   0  0  0  0  0  0  0  0  0  0  0  0
  152.5806  143.1750  160.3884 C   0  0  0  0  0  0  0  0  0  0  0  0
  152.2161  144.4172  160.0079 N   0  0  0  0  0  0  0  0  0  0  0  0
  151.6911  144.5679  158.7738 C   0  0  0  0  0  0  0  0  0  0  0  0
  151.5115  143.5013  157.8700 C   0  0  0  0  0  0  0  0  0  0  0  0
  149.4720  139.1587  154.2938 C   0  0  0  0  0  0  0  0  0  0  0  0
  148.8372  138.0078  155.0969 C   0  0  0  0  0  0  0  0  0  0  0  0
  149.3577  133.0064  153.2428 H   0  0  0  0  0  0  0  0  0  0  0  0
  148.5543  134.5432  153.0072 H   0  0  0  0  0  0  0  0  0  0  0  0
  147.6805  135.5883  155.1484 H   0  0  0  0  0  0  0  0  0  0  0  0
  148.8348  135.6334  156.4637 H   0  0  0  0  0  0  0  0  0  0  0  0
  151.1251  136.8163  156.0007 H   0  0  0  0  0  0  0  0  0  0  0  0
  151.3239  135.7287  154.6451 H   0  0  0  0  0  0  0  0  0  0  0  0
  152.6646  137.7862  154.2931 H   0  0  0  0  0  0  0  0  0  0  0  0
  151.4524  137.5931  153.0592 H   0  0  0  0  0  0  0  0  0  0  0  0
  151.3935  139.9125  153.7151 H   0  0  0  0  0  0  0  0  0  0  0  0
  151.6708  138.9495  156.4365 H   0  0  0  0  0  0  0  0  0  0  0  0
  152.0721  140.1781  157.9023 H   0  0  0  0  0  0  0  0  0  0  0  0
  152.7516  141.0694  159.9209 H   0  0  0  0  0  0  0  0  0  0  0  0
  152.9931  143.0802  161.3819 H   0  0  0  0  0  0  0  0  0  0  0  0
  151.3987  145.5703  158.4982 H   0  0  0  0  0  0  0  0  0  0  0  0
  151.0684  143.7039  156.9077 H   0  0  0  0  0  0  0  0  0  0  0  0
  149.0399  140.1129  154.5985 H   0  0  0  0  0  0  0  0  0  0  0  0
  149.2178  139.0356  153.2399 H   0  0  0  0  0  0  0  0  0  0  0  0
  147.7642  137.9900  154.9017 H   0  0  0  0  0  0  0  0  0  0  0  0
  148.9603  138.1760  156.1679 H   0  0  0  0  0  0  0  0  0  0  0  0
  149.2804  136.5876  153.7348 H   0  0  0  0  0  0  0  0  0  0  0  0
  1  2  1  0  0  0  0
  1 21  1  0  0  0  0
  1 22  1  0  0  0  0
  2  3  2  0  0  0  0
  2  4  1  0  0  0  0
  4  5  1  0  0  0  0
  4 23  1  0  0  0  0
  4 24  1  0  0  0  0
  5 20  1  0  0  0  0
  5  6  1  0  0  0  0
  5 40  1  0  0  0  0
  6  7  1  0  0  0  0
  6 25  1  0  0  0  0
  6 26  1  0  0  0  0
  7  8  1  0  0  0  0
  7 27  1  0  0  0  0
  7 28  1  0  0  0  0
  8  9  1  0  0  0  0
  8 19  1  0  0  0  0
  8 29  1  0  0  0  0
  9 10  1  0  0  0  0
  9 30  1  0  0  0  0
 10 11  2  0  0  0  0
 10 12  1  0  0  0  0
 12 13  1  0  0  0  0
 12 31  1  0  0  0  0
 13 18  1  0  0  0  0
 13 14  2  0  0  0  0
 14 15  1  0  0  0  0
 14 32  1  0  0  0  0
 15 16  2  0  0  0  0
 15 33  1  0  0  0  0
 16 17  1  0  0  0  0
 17 18  2  0  0  0  0
 17 34  1  0  0  0  0
 18 35  1  0  0  0  0
 19 20  1  0  0  0  0
 19 36  1  0  0  0  0
 19 37  1  0  0  0  0
 20 38  1  0  0  0  0
 20 39  1  0  0  0  0
M  CHG  1   5   1
M  END
> <s_m_source_file>
AV-unprocessed.smi

> <i_m_source_file_index>
1410

> <i_lp_mmshare_version>
43012

> <i_f3d_flags>
0

> <s_epik_input>
W05IMl1DKD1PKVtDSDJdTjFbQ0gyXVtDSDJdW0NIXShbQ0gyXVtDSDJdMSlbTkhdQyg9TylbTkhdYzJbY0hdW2NIXW5bY0hdW2NIXTI=

> <s_epik_cmdline>
J2VwaWtfcHl0aG9uJywgJy1waCcsICc3LjAnLCAnLXRuJywgJzgnLCAnLW1hJywgJzIwMCcsICctbWV0YWxfYmluZGluZycsICctaW1hZScsICc8aW5maWxlLm1hZT4nLCAnLW9tYWUnLCAnPG91dGZpbGUubWFlPic=

> <r_epik_Ionization_Penalty>
0.938358

> <r_epik_Ionization_Penalty_Charging>
0.838844

> <r_epik_Ionization_Penalty_Neutral>
0.0995144

> <r_epik_State_Penalty>
0.957795

> <r_epik_Charging_Adjusted_Penalty>
1.79664

> <i_epik_Tot_Q>
1

> <i_epik_Tot_abs_Q>
1

> <r_epik_Metal_State_Penalty>
0.97276

> <b_epik_Metal_Only>
0

> <s_lp_Force_Field>
OPLS_2005

> <r_lp_Energy>
18.9404

> <b_lp_Chiralities_Consistent>
1

> <s_lp_Variant>
AV-unprocessed.smi:1410-3

> <Gold.Version>
5.8.1

> <Gold.Id.Protein>
6NUR|6NUR_protein|mol2

> <Gold.PLP.Fitness>
41.8486

> <Gold.PLP.PLP>
-33.8272

> <Gold.PLP.part.hbond>
-3.0000

> <Gold.PLP.part.metal>
0.0000

> <Gold.PLP.part.buried>
0.2650

> <Gold.PLP.part.nonpolar>
-29.6093

> <Gold.PLP.part.repulsive>
0.3805

> <Gold.PLP.ligand.clash>
0.0000

> <Gold.PLP.ligand.torsion>
0.3033

> <Gold.PLP.Chemscore.Hbond>
2.8673

> <Gold.PLP.Chemscore.CHOScore>
0.0000

> <Gold.PLP.Chemscore.Metal>
0.0000

> <Gold.Chemscore.Hbonds>
donor molecule, donor type, donor heavy atom, donor atom, acceptor molecule, acceptor atom, score
      L1  H     1    22       P1  7948  0.78
      L1  H     5    40       P1  7948  2.00
      P1  H  7989  7998       L1    11  0.10

> <Gold.PLP.Chemscore.Internal.Correction>
0.0260

> <Gold.Rescore>
     Score         DG    S(hbond)    S(metal)    S(lipo)     H(rot)  DE(clash)    DE(int)     intcor
     12.69     -15.83       1.42        0.00      90.77       1.96       1.64       1.49       ----

> <Gold.Chemscore.Fitness>
12.6896

> <Gold.Chemscore.DG>
-15.8257

> <Gold.Chemscore.ZeroCoef>
-5.4800

> <Gold.Chemscore.Hbond>
1.4233

> <Gold.Chemscore.Metal>
0.0000

> <Gold.Chemscore.Lipo>
90.7699

> <Gold.Chemscore.Internal_Hbond>
0.0000

> <Gold.Chemscore.DEClash>
1.6415

> <Gold.Chemscore.DEInternal>
1.4946

> <Gold.Chemscore.Rot>
1.9642

> <Gold.Chemscore.Internal.Correction>
   9.000000E+99

> <Gold.Chemscore.Hbonds>
donor molecule, donor type, donor heavy atom, donor atom, acceptor molecule, acceptor atom, score
      L1  H     1    22       P1  7948  0.18
      L1  H     5    40       P1  7948  0.94
      P1  H  7989  7998       L1    11  0.02

> <Gold.Chemscore.Hbond.Weighted>
-4.7540

> <Gold.Chemscore.Metal.Weighted>
-0.0000

> <Gold.Chemscore.Lipo.Weighted>
-10.6201

> <Gold.Chemscore.Internal_Hbond.Weighted>
0.0000

> <Gold.Chemscore.DEClash.Weighted>
1.6415

> <Gold.Chemscore.DEInternal.Weighted>
1.4946

> <Gold.Chemscore.Rot.Weighted>
5.0283

> <Gold.Chemscore.Internal.Correction.Weighted>
   9.000000E+99

> <Gold.Protein.RotatedTorsions>
[ 6907 6896 6895 6894 ] final   18.50 input  -60.11 | X-H torsion
[ 7974 7965 7964 7962 ] final   27.41 input  175.53 | X-H torsion
[ 8008 7997 7996 7995 ] final  -94.28 input   59.86 | X-H torsion
[ 10167 10162 10161 10158 ] final -170.70 input  -65.29 | X-H torsion
[ 10718 10713 10712 10709 ] final   71.64 input   66.30 | X-H torsion
[ 10763 10752 10751 10750 ] final  179.69 input  -60.55 | X-H torsion
[ 11005 11000 10999 10996 ] final -132.19 input  -57.11 | X-H torsion

> <Gold.Protein.ActiveResidues>
 VAL166  LYS551  ARG553  GLY616  TRP617  ASP618  TYR619  PRO620  LYS621  CYS622 
 ASP623  PHE694  ASN695  SER759  ASP760  ASP761  ALA762  ILE779  LEU786  VAL792 
 PHE793  MET794  SER795  GLU796  ALA797  LYS798  CYS799  TRP800  GLU811  SER814 

> <Gold.Protein.RotatedAtoms>
  151.8663  135.0506  160.0474 H   0  0  0  0  0  0  0  0  0  0  0  0  # atno 6907 bound_to 6896
  152.2623  133.5304  159.5398 H   0  0  0  0  0  0  0  0  0  0  0  0  # atno 6908 bound_to 6896
  150.7121  134.0728  159.3913 H   0  0  0  0  0  0  0  0  0  0  0  0  # atno 6909 bound_to 6896
  146.1786  139.7196  142.8917 H   0  0  0  0  0  0  0  0  0  0  0  0  # atno 7974 bound_to 7965
  154.7464  140.0491  157.0855 H   0  0  0  0  0  0  0  0  0  0  0  0  # atno 8008 bound_to 7997
  155.0113  140.3136  155.4809 H   0  0  0  0  0  0  0  0  0  0  0  0  # atno 8009 bound_to 7997
  156.2875  140.2183  156.5228 H   0  0  0  0  0  0  0  0  0  0  0  0  # atno 8010 bound_to 7997
  139.5846  144.1346  152.1559 H   0  0  0  0  0  0  0  0  0  0  0  0  # atno 10167 bound_to 10162
  157.6462  130.9538  150.0818 H   0  0  0  0  0  0  0  0  0  0  0  0  # atno 10718 bound_to 10713
  154.5239  135.2795  155.1239 H   0  0  0  0  0  0  0  0  0  0  0  0  # atno 10763 bound_to 10752
  154.2785  135.6290  153.5341 H   0  0  0  0  0  0  0  0  0  0  0  0  # atno 10764 bound_to 10752
  152.9942  135.5645  154.5735 H   0  0  0  0  0  0  0  0  0  0  0  0  # atno 10765 bound_to 10752
  140.9192  134.1467  157.4328 H   0  0  0  0  0  0  0  0  0  0  0  0  # atno 11005 bound_to 11000
  145.4142  141.0400  143.3000 LP  0  0  0  0  0  0  0  0  0  0  0  0  # atno 17320 bound_to 7965
  144.8277  139.5682  143.6958 LP  0  0  0  0  0  0  0  0  0  0  0  0  # atno 17321 bound_to 7965
  140.0907  144.5623  150.7056 LP  0  0  0  0  0  0  0  0  0  0  0  0  # atno 17342 bound_to 10162
  140.7120  143.2513  151.4552 LP  0  0  0  0  0  0  0  0  0  0  0  0  # atno 17343 bound_to 10162
  156.1792  130.3649  149.9059 LP  0  0  0  0  0  0  0  0  0  0  0  0  # atno 17370 bound_to 10713
  156.7015  130.8935  151.3600 LP  0  0  0  0  0  0  0  0  0  0  0  0  # atno 17371 bound_to 10713
  139.8772  134.9965  156.5797 LP  0  0  0  0  0  0  0  0  0  0  0  0  # atno 17394 bound_to 11000
  140.8010  133.8505  155.8727 LP  0  0  0  0  0  0  0  0  0  0  0  0  # atno 17395 bound_to 11000

$$$$
