AV-unprocessed.smi:1502|AV-procd|sdf|6067|dock8
  -GOLD-   22720 6183D 1   1.00000     0.00000
 Structure written by MMmdl.
 40 41  0  0  0  0  0  0  0  0  1 V2000
  150.4547  140.9748  155.1781 O   0  0  0  0  0  0  0  0  0  0  0  0
  149.3991  141.1093  155.7959 C   0  0  0  0  0  0  0  0  0  0  0  0
  148.0799  140.6942  155.1201 C   0  0  0  0  0  0  0  0  0  0  0  0
  147.0709  141.7621  155.0171 N   0  0  0  0  0  0  0  0  0  0  0  0
  146.7606  142.1199  153.7166 N   0  0  0  0  0  0  0  0  0  0  0  0
  145.9003  143.0551  153.5038 C   0  0  0  0  0  0  0  0  0  0  0  0
  145.2373  143.7520  154.5837 C   0  0  0  0  0  0  0  0  0  0  0  0
  144.0923  144.9993  154.2367 Cl  0  0  0  0  0  0  0  0  0  0  0  0
  145.5458  143.3917  155.8548 C   0  0  0  0  0  0  0  0  0  0  0  0
  144.7950  144.1811  157.1990 Cl  0  0  0  0  0  0  0  0  0  0  0  0
  146.5227  142.3305  156.1355 C   0  0  0  0  0  0  0  0  0  0  0  0
  146.8363  141.9811  157.2738 O   0  0  0  0  0  0  0  0  0  0  0  0
  149.3427  141.6070  157.0437 N   0  0  0  0  0  0  0  0  0  0  0  0
  150.4807  142.0361  157.8529 C   0  0  0  0  0  0  0  0  0  0  0  0
  151.3708  142.9907  157.0235 C   0  0  0  0  0  0  0  0  0  0  0  0
  151.6092  144.3721  157.6629 C   0  0  0  0  0  0  0  0  0  0  0  0
  151.9458  144.4138  159.1683 C   0  0  0  0  0  0  0  0  0  0  0  0
  153.0981  143.5087  159.6382 C   0  0  0  0  0  0  0  0  0  0  0  0
  152.6802  142.1023  160.1209 C   0  0  0  0  0  0  0  0  0  0  0  0
  152.6146  141.0254  159.0236 C   0  0  0  0  0  0  0  0  0  0  0  0
  151.2346  140.7918  158.3745 C   0  0  0  0  0  0  0  0  0  0  0  0
  148.3212  140.3175  154.1246 H   0  0  0  0  0  0  0  0  0  0  0  0
  147.6684  139.8375  155.6569 H   0  0  0  0  0  0  0  0  0  0  0  0
  145.6261  143.3714  152.4974 H   0  0  0  0  0  0  0  0  0  0  0  0
  148.4320  141.6841  157.4725 H   0  0  0  0  0  0  0  0  0  0  0  0
  150.0747  142.5745  158.7081 H   0  0  0  0  0  0  0  0  0  0  0  0
  152.3310  142.5273  156.8023 H   0  0  0  0  0  0  0  0  0  0  0  0
  150.9308  143.1584  156.0390 H   0  0  0  0  0  0  0  0  0  0  0  0
  152.4047  144.8713  157.1087 H   0  0  0  0  0  0  0  0  0  0  0  0
  150.7190  144.9821  157.5052 H   0  0  0  0  0  0  0  0  0  0  0  0
  152.2191  145.4447  159.3967 H   0  0  0  0  0  0  0  0  0  0  0  0
  151.0575  144.2309  159.7724 H   0  0  0  0  0  0  0  0  0  0  0  0
  153.8844  143.4538  158.8848 H   0  0  0  0  0  0  0  0  0  0  0  0
  153.5581  144.0071  160.4926 H   0  0  0  0  0  0  0  0  0  0  0  0
  153.4405  141.7784  160.8328 H   0  0  0  0  0  0  0  0  0  0  0  0
  151.7523  142.1365  160.6931 H   0  0  0  0  0  0  0  0  0  0  0  0
  153.3728  141.2195  158.2655 H   0  0  0  0  0  0  0  0  0  0  0  0
  152.9144  140.0760  159.4689 H   0  0  0  0  0  0  0  0  0  0  0  0
  150.5965  140.2791  159.0954 H   0  0  0  0  0  0  0  0  0  0  0  0
  151.3723  140.0866  157.5537 H   0  0  0  0  0  0  0  0  0  0  0  0
  1  2  2  0  0  0  0
  2  3  1  0  0  0  0
  2 13  1  0  0  0  0
  3  4  1  0  0  0  0
  3 22  1  0  0  0  0
  3 23  1  0  0  0  0
  4 11  1  0  0  0  0
  4  5  1  0  0  0  0
  5  6  2  0  0  0  0
  6  7  1  0  0  0  0
  6 24  1  0  0  0  0
  7  8  1  0  0  0  0
  7  9  2  0  0  0  0
  9 10  1  0  0  0  0
  9 11  1  0  0  0  0
 11 12  2  0  0  0  0
 13 14  1  0  0  0  0
 13 25  1  0  0  0  0
 14 21  1  0  0  0  0
 14 15  1  0  0  0  0
 14 26  1  0  0  0  0
 15 16  1  0  0  0  0
 15 27  1  0  0  0  0
 15 28  1  0  0  0  0
 16 17  1  0  0  0  0
 16 29  1  0  0  0  0
 16 30  1  0  0  0  0
 17 18  1  0  0  0  0
 17 31  1  0  0  0  0
 17 32  1  0  0  0  0
 18 19  1  0  0  0  0
 18 33  1  0  0  0  0
 18 34  1  0  0  0  0
 19 20  1  0  0  0  0
 19 35  1  0  0  0  0
 19 36  1  0  0  0  0
 20 21  1  0  0  0  0
 20 37  1  0  0  0  0
 20 38  1  0  0  0  0
 21 39  1  0  0  0  0
 21 40  1  0  0  0  0
M  END
> <s_m_source_file>
AV-unprocessed.smi

> <i_m_source_file_index>
1502

> <i_lp_mmshare_version>
43012

> <i_f3d_flags>
0

> <s_epik_input>
Tz1jMWMoQ2wpYyhDbClbY0hdbm4xW0NIMl1DKD1PKVtOSF1bQ0hdMltDSDJdW0NIMl1bQ0gyXVtDSDJdW0NIMl1bQ0gyXVtDSDJdMg==

> <s_epik_cmdline>
J2VwaWtfcHl0aG9uJywgJy1waCcsICc3LjAnLCAnLXRuJywgJzgnLCAnLW1hJywgJzIwMCcsICctbWV0YWxfYmluZGluZycsICctaW1hZScsICc8aW5maWxlLm1hZT4nLCAnLW9tYWUnLCAnPG91dGZpbGUubWFlPic=

> <r_lp_tautomer_probability>
1

> <r_epik_Ionization_Penalty>
2.0245e-08

> <r_epik_Ionization_Penalty_Charging>
3.01779e-11

> <r_epik_Ionization_Penalty_Neutral>
2.02148e-08

> <r_epik_State_Penalty>
-0

> <r_epik_Charging_Adjusted_Penalty>
3.01779e-11

> <i_epik_Tot_Q>
0

> <i_epik_Tot_abs_Q>
0

> <r_epik_Metal_State_Penalty>
-0

> <b_epik_Metal_Only>
0

> <s_lp_Force_Field>
OPLS_2005

> <r_lp_Energy>
35.729

> <b_lp_Chiralities_Consistent>
1

> <s_lp_Variant>
AV-unprocessed.smi:1502-1

> <Gold.Version>
5.8.1

> <Gold.Id.Protein>
6NUR|6NUR_protein|mol2

> <Gold.PLP.Fitness>
43.7262

> <Gold.PLP.PLP>
-41.8815

> <Gold.PLP.part.hbond>
-1.0000

> <Gold.PLP.part.metal>
0.0000

> <Gold.PLP.part.buried>
-6.2974

> <Gold.PLP.part.nonpolar>
-34.0890

> <Gold.PLP.part.repulsive>
0.4255

> <Gold.PLP.ligand.clash>
0.0000

> <Gold.PLP.ligand.torsion>
0.1600

> <Gold.PLP.Chemscore.Hbond>
0.7176

> <Gold.PLP.Chemscore.CHOScore>
0.0000

> <Gold.PLP.Chemscore.Metal>
0.0000

> <Gold.Chemscore.Hbonds>
donor molecule, donor type, donor heavy atom, donor atom, acceptor molecule, acceptor atom, score
      P1  H  7989  7998       L1     1  0.72

> <Gold.PLP.Chemscore.Internal.Correction>
0.0119

> <Gold.Rescore>
     Score         DG    S(hbond)    S(metal)    S(lipo)     H(rot)  DE(clash)    DE(int)     intcor
     14.41     -16.51       0.69        0.00     107.10       1.49       0.23       1.87       ----

> <Gold.Chemscore.Fitness>
14.4099

> <Gold.Chemscore.DG>
-16.5107

> <Gold.Chemscore.ZeroCoef>
-5.4800

> <Gold.Chemscore.Hbond>
0.6903

> <Gold.Chemscore.Metal>
0.0000

> <Gold.Chemscore.Lipo>
107.1009

> <Gold.Chemscore.Internal_Hbond>
0.0000

> <Gold.Chemscore.DEClash>
0.2322

> <Gold.Chemscore.DEInternal>
1.8686

> <Gold.Chemscore.Rot>
1.4866

> <Gold.Chemscore.Internal.Correction>
   9.000000E+99

> <Gold.Chemscore.Hbonds>
donor molecule, donor type, donor heavy atom, donor atom, acceptor molecule, acceptor atom, score
      P1  H  7989  7998       L1     1  0.67

> <Gold.Chemscore.Hbond.Weighted>
-2.3056

> <Gold.Chemscore.Metal.Weighted>
-0.0000

> <Gold.Chemscore.Lipo.Weighted>
-12.5308

> <Gold.Chemscore.Internal_Hbond.Weighted>
0.0000

> <Gold.Chemscore.DEClash.Weighted>
0.2322

> <Gold.Chemscore.DEInternal.Weighted>
1.8686

> <Gold.Chemscore.Rot.Weighted>
3.8057

> <Gold.Chemscore.Internal.Correction.Weighted>
   9.000000E+99

> <Gold.Protein.RotatedTorsions>
[ 6907 6896 6895 6894 ] final  -41.98 input  -60.11 | X-H torsion
[ 7974 7965 7964 7962 ] final  -13.65 input  175.53 | X-H torsion
[ 8008 7997 7996 7995 ] final  164.92 input   59.86 | X-H torsion
[ 10167 10162 10161 10158 ] final -162.69 input  -65.29 | X-H torsion
[ 10718 10713 10712 10709 ] final -169.64 input   66.30 | X-H torsion
[ 10763 10752 10751 10750 ] final   50.96 input  -60.55 | X-H torsion
[ 11005 11000 10999 10996 ] final  142.75 input  -57.11 | X-H torsion

> <Gold.Protein.ActiveResidues>
 VAL166  LYS551  ARG553  GLY616  TRP617  ASP618  TYR619  PRO620  LYS621  CYS622 
 ASP623  PHE694  ASN695  SER759  ASP760  ASP761  ALA762  ILE779  LEU786  VAL792 
 PHE793  MET794  SER795  GLU796  ALA797  LYS798  CYS799  TRP800  GLU811  SER814 

> <Gold.Protein.RotatedAtoms>
  150.9605  134.8994  159.7727 H   0  0  0  0  0  0  0  0  0  0  0  0  # atno 6907 bound_to 6896
  152.5154  134.3679  159.9318 H   0  0  0  0  0  0  0  0  0  0  0  0  # atno 6908 bound_to 6896
  151.3692  133.3820  159.2732 H   0  0  0  0  0  0  0  0  0  0  0  0  # atno 6909 bound_to 6896
  146.2105  140.3235  142.8392 H   0  0  0  0  0  0  0  0  0  0  0  0  # atno 7974 bound_to 7965
  156.1842  140.1684  156.8216 H   0  0  0  0  0  0  0  0  0  0  0  0  # atno 8008 bound_to 7997
  154.5395  140.0739  156.8518 H   0  0  0  0  0  0  0  0  0  0  0  0  # atno 8009 bound_to 7997
  155.3244  140.3375  155.4243 H   0  0  0  0  0  0  0  0  0  0  0  0  # atno 8010 bound_to 7997
  139.6374  144.0323  152.2065 H   0  0  0  0  0  0  0  0  0  0  0  0  # atno 10167 bound_to 10162
  156.7145  130.9246  151.3092 H   0  0  0  0  0  0  0  0  0  0  0  0  # atno 10718 bound_to 10713
  152.9785  135.5861  154.4338 H   0  0  0  0  0  0  0  0  0  0  0  0  # atno 10763 bound_to 10752
  154.3947  135.2768  155.2135 H   0  0  0  0  0  0  0  0  0  0  0  0  # atno 10764 bound_to 10752
  154.3992  135.6107  153.5941 H   0  0  0  0  0  0  0  0  0  0  0  0  # atno 10765 bound_to 10752
  140.0500  134.9260  157.1000 H   0  0  0  0  0  0  0  0  0  0  0  0  # atno 11005 bound_to 11000
  144.8903  140.7515  143.5931 LP  0  0  0  0  0  0  0  0  0  0  0  0  # atno 17320 bound_to 7965
  145.3157  139.1804  143.4615 LP  0  0  0  0  0  0  0  0  0  0  0  0  # atno 17321 bound_to 7965
  140.0004  144.6297  150.7735 LP  0  0  0  0  0  0  0  0  0  0  0  0  # atno 17342 bound_to 10162
  140.7473  143.2904  151.3347 LP  0  0  0  0  0  0  0  0  0  0  0  0  # atno 17343 bound_to 10162
  157.6923  130.9246  150.0547 LP  0  0  0  0  0  0  0  0  0  0  0  0  # atno 17370 bound_to 10713
  156.1638  130.3644  149.9262 LP  0  0  0  0  0  0  0  0  0  0  0  0  # atno 17371 bound_to 10713
  140.3932  134.2162  155.7165 LP  0  0  0  0  0  0  0  0  0  0  0  0  # atno 17394 bound_to 11000
  141.1926  133.8170  157.0833 LP  0  0  0  0  0  0  0  0  0  0  0  0  # atno 17395 bound_to 11000

$$$$
