AV-unprocessed.smi:1251|AV-procd|sdf|5262|dock3
  -GOLD-   22720 4373D 1   1.00000     0.00000
 Structure written by MMmdl.
 38 39  0  0  0  0  0  0  0  0  2 V2000
  146.4952  142.0714  154.4827 C   0  0  0  0  0  0  0  0  0  0  0  0
  147.4580  140.9159  154.1897 C   0  0  0  0  0  0  0  0  0  0  0  0
  148.8786  141.1873  154.7040 C   0  0  0  0  0  0  0  0  0  0  0  0
  149.7691  139.9964  154.5803 C   0  0  0  0  0  0  0  0  0  0  0  0
  151.0954  140.0658  154.7206 N   0  0  0  0  0  0  0  0  0  0  0  0
  151.7003  138.8241  154.5922 N   0  0  0  0  0  0  0  0  0  0  0  0
  150.8257  137.8340  154.3646 C   0  0  0  0  0  0  0  0  0  0  0  0
  151.2087  136.5550  154.2178 N   0  5  0  0  0  0  0  0  0  0  0  0
  150.5901  135.5788  154.9205 C   0  0  0  0  0  0  0  0  0  0  0  0
  150.9034  135.1765  156.0433 O   0  0  0  0  0  0  0  0  0  0  0  0
  149.5446  135.0360  154.2810 N   0  0  0  0  0  0  0  0  0  0  0  0
  148.6695  133.9793  154.7874 C   0  0  2  0  0  0  0  0  0  0  0  0
  149.4856  132.7199  155.1207 C   0  0  0  0  0  0  0  0  0  0  0  0
  147.5384  133.6906  153.7793 C   0  0  1  0  0  0  0  0  0  0  0  0
  148.0134  133.1011  152.4390 C   0  0  0  0  0  0  0  0  0  0  0  0
  147.4198  131.7061  152.4220 C   0  0  0  0  0  0  0  0  0  0  0  0
  146.1808  131.8770  153.2875 C   0  0  0  0  0  0  0  0  0  0  0  0
  146.6291  132.7341  154.3244 O   0  0  0  0  0  0  0  0  0  0  0  0
  149.1487  138.3765  154.3105 S   0  0  0  0  0  0  0  0  0  0  0  0
  145.4955  141.8472  154.1104 H   0  0  0  0  0  0  0  0  0  0  0  0
  146.8295  142.9928  154.0052 H   0  0  0  0  0  0  0  0  0  0  0  0
  146.4173  142.2571  155.5543 H   0  0  0  0  0  0  0  0  0  0  0  0
  147.0729  140.0027  154.6452 H   0  0  0  0  0  0  0  0  0  0  0  0
  147.4866  140.7361  153.1145 H   0  0  0  0  0  0  0  0  0  0  0  0
  149.3262  142.0128  154.1501 H   0  0  0  0  0  0  0  0  0  0  0  0
  148.8471  141.4948  155.7500 H   0  0  0  0  0  0  0  0  0  0  0  0
  149.3292  135.3963  153.3628 H   0  0  0  0  0  0  0  0  0  0  0  0
  148.1968  134.3230  155.7091 H   0  0  0  0  0  0  0  0  0  0  0  0
  148.8451  131.9314  155.5157 H   0  0  0  0  0  0  0  0  0  0  0  0
  150.2469  132.9315  155.8722 H   0  0  0  0  0  0  0  0  0  0  0  0
  149.9913  132.3280  154.2377 H   0  0  0  0  0  0  0  0  0  0  0  0
  146.9859  134.6100  153.5801 H   0  0  0  0  0  0  0  0  0  0  0  0
  147.6064  133.6877  151.6146 H   0  0  0  0  0  0  0  0  0  0  0  0
  149.0984  133.0883  152.3277 H   0  0  0  0  0  0  0  0  0  0  0  0
  147.1951  131.3472  151.4174 H   0  0  0  0  0  0  0  0  0  0  0  0
  148.1078  131.0022  152.8922 H   0  0  0  0  0  0  0  0  0  0  0  0
  145.3797  132.3650  152.7301 H   0  0  0  0  0  0  0  0  0  0  0  0
  145.8049  130.9323  153.6806 H   0  0  0  0  0  0  0  0  0  0  0  0
  1  2  1  0  0  0  0
  1 20  1  0  0  0  0
  1 21  1  0  0  0  0
  1 22  1  0  0  0  0
  2  3  1  0  0  0  0
  2 23  1  0  0  0  0
  2 24  1  0  0  0  0
  3  4  1  0  0  0  0
  3 25  1  0  0  0  0
  3 26  1  0  0  0  0
  4 19  1  0  0  0  0
  4  5  2  0  0  0  0
  5  6  1  0  0  0  0
  6  7  2  0  0  0  0
  7  8  1  0  0  0  0
  7 19  1  0  0  0  0
  8  9  1  0  0  0  0
  9 10  2  0  0  0  0
  9 11  1  0  0  0  0
 11 12  1  0  0  0  0
 11 27  1  0  0  0  0
 12 13  1  0  0  0  0
 12 14  1  0  0  0  0
 12 28  1  0  0  0  0
 13 29  1  0  0  0  0
 13 30  1  0  0  0  0
 13 31  1  0  0  0  0
 14 18  1  0  0  0  0
 14 15  1  0  0  0  0
 14 32  1  0  0  0  0
 15 16  1  0  0  0  0
 15 33  1  0  0  0  0
 15 34  1  0  0  0  0
 16 17  1  0  0  0  0
 16 35  1  0  0  0  0
 16 36  1  0  0  0  0
 17 18  1  0  0  0  0
 17 37  1  0  0  0  0
 17 38  1  0  0  0  0
M  CHG  1   8  -1
M  END
> <s_m_source_file>
AV-unprocessed.smi

> <i_m_source_file_index>
1251

> <i_lp_mmshare_version>
43012

> <i_f3d_flags>
0

> <s_epik_input>
W0NIM11bQ0gyXVtDSDJdYzFubmMoczEpW05IXUMoPU8pW05IXVtDQEhdKFtDSDNdKVtDQEBIXTJbQ0gyXVtDSDJdW0NIMl1PMg==

> <s_epik_cmdline>
J2VwaWtfcHl0aG9uJywgJy1waCcsICc3LjAnLCAnLXRuJywgJzgnLCAnLW1hJywgJzIwMCcsICctbWV0YWxfYmluZGluZycsICctaW1hZScsICc8aW5maWxlLm1hZT4nLCAnLW9tYWUnLCAnPG91dGZpbGUubWFlPic=

> <r_lp_tautomer_probability>
1

> <r_epik_Ionization_Penalty>
4.22551

> <r_epik_Ionization_Penalty_Charging>
4.21437

> <r_epik_Ionization_Penalty_Neutral>
0.0111434

> <r_epik_State_Penalty>
4.21389

> <r_epik_Charging_Adjusted_Penalty>
8.42826

> <i_epik_Tot_Q>
-1

> <i_epik_Tot_abs_Q>
1

> <r_epik_Metal_State_Penalty>
0.69377

> <b_epik_Metal_Only>
1

> <s_lp_Force_Field>
OPLS_2005

> <r_lp_Energy>
12.7313

> <b_lp_Chiralities_Consistent>
1

> <s_lp_Variant>
AV-unprocessed.smi:1251-7

> <Gold.Version>
5.8.1

> <Gold.Id.Protein>
6NUR|6NUR_protein|mol2

> <Gold.PLP.Fitness>
40.3910

> <Gold.PLP.PLP>
-30.9771

> <Gold.PLP.part.hbond>
-3.0454

> <Gold.PLP.part.metal>
0.0000

> <Gold.PLP.part.buried>
-3.5361

> <Gold.PLP.part.nonpolar>
-26.6428

> <Gold.PLP.part.repulsive>
1.5268

> <Gold.PLP.ligand.clash>
0.0000

> <Gold.PLP.ligand.torsion>
1.3873

> <Gold.PLP.Chemscore.Hbond>
4.0000

> <Gold.PLP.Chemscore.CHOScore>
0.0000

> <Gold.PLP.Chemscore.Metal>
0.0000

> <Gold.Chemscore.Hbonds>
donor molecule, donor type, donor heavy atom, donor atom, acceptor molecule, acceptor atom, score
      L1  H    11    27       P1  7948  0.90
      P1  H  7989  7998       L1     5  1.00
      P1  H 10752 10763       L1     8  1.10

> <Gold.PLP.Chemscore.Internal.Correction>
0.1886

> <Gold.Rescore>
     Score         DG    S(hbond)    S(metal)    S(lipo)     H(rot)  DE(clash)    DE(int)     intcor
     11.10     -13.40       1.40        0.00      61.50       1.55       0.07       2.24       ----

> <Gold.Chemscore.Fitness>
11.1004

> <Gold.Chemscore.DG>
-13.4048

> <Gold.Chemscore.ZeroCoef>
-5.4800

> <Gold.Chemscore.Hbond>
1.4040

> <Gold.Chemscore.Metal>
0.0000

> <Gold.Chemscore.Lipo>
61.5002

> <Gold.Chemscore.Internal_Hbond>
0.0000

> <Gold.Chemscore.DEClash>
0.0652

> <Gold.Chemscore.DEInternal>
2.2391

> <Gold.Chemscore.Rot>
1.5469

> <Gold.Chemscore.Internal.Correction>
   9.000000E+99

> <Gold.Chemscore.Hbonds>
donor molecule, donor type, donor heavy atom, donor atom, acceptor molecule, acceptor atom, score
      L1  H    11    27       P1  7948  0.18
      P1  H  7989  7998       L1     5  0.26
      P1  H 10752 10763       L1     8  0.03

> <Gold.Chemscore.Hbond.Weighted>
-4.6892

> <Gold.Chemscore.Metal.Weighted>
-0.0000

> <Gold.Chemscore.Lipo.Weighted>
-7.1955

> <Gold.Chemscore.Internal_Hbond.Weighted>
0.0000

> <Gold.Chemscore.DEClash.Weighted>
0.0652

> <Gold.Chemscore.DEInternal.Weighted>
2.2391

> <Gold.Chemscore.Rot.Weighted>
3.9600

> <Gold.Chemscore.Internal.Correction.Weighted>
   9.000000E+99

> <Gold.Protein.RotatedTorsions>
[ 6907 6896 6895 6894 ] final   86.20 input  -60.11 | X-H torsion
[ 7974 7965 7964 7962 ] final  -94.54 input  175.53 | X-H torsion
[ 8008 7997 7996 7995 ] final   24.06 input   59.86 | X-H torsion
[ 10167 10162 10161 10158 ] final  144.61 input  -65.29 | X-H torsion
[ 10718 10713 10712 10709 ] final   71.65 input   66.30 | X-H torsion
[ 10763 10752 10751 10750 ] final   47.07 input  -60.55 | X-H torsion
[ 11005 11000 10999 10996 ] final -161.58 input  -57.11 | X-H torsion

> <Gold.Protein.ActiveResidues>
 VAL166  LYS551  ARG553  GLY616  TRP617  ASP618  TYR619  PRO620  LYS621  CYS622 
 ASP623  PHE694  ASN695  SER759  ASP760  ASP761  ALA762  ILE779  LEU786  VAL792 
 PHE793  MET794  SER795  GLU796  ALA797  LYS798  CYS799  TRP800  GLU811  SER814 

> <Gold.Protein.RotatedAtoms>
  152.5390  134.2468  159.8882 H   0  0  0  0  0  0  0  0  0  0  0  0  # atno 6907 bound_to 6896
  151.2433  133.4381  159.2616 H   0  0  0  0  0  0  0  0  0  0  0  0  # atno 6908 bound_to 6896
  151.0607  134.9748  159.8315 H   0  0  0  0  0  0  0  0  0  0  0  0  # atno 6909 bound_to 6896
  145.3719  140.9506  143.2442 H   0  0  0  0  0  0  0  0  0  0  0  0  # atno 7974 bound_to 7965
  154.9905  140.3113  155.4908 H   0  0  0  0  0  0  0  0  0  0  0  0  # atno 8008 bound_to 7997
  156.2940  140.2250  156.4949 H   0  0  0  0  0  0  0  0  0  0  0  0  # atno 8009 bound_to 7997
  154.7708  140.0452  157.1038 H   0  0  0  0  0  0  0  0  0  0  0  0  # atno 8010 bound_to 7997
  139.4943  144.5960  151.6583 H   0  0  0  0  0  0  0  0  0  0  0  0  # atno 10167 bound_to 10162
  157.6462  130.9539  150.0819 H   0  0  0  0  0  0  0  0  0  0  0  0  # atno 10718 bound_to 10713
  152.9803  135.5988  154.3703 H   0  0  0  0  0  0  0  0  0  0  0  0  # atno 10763 bound_to 10752
  154.3377  135.2768  155.2440 H   0  0  0  0  0  0  0  0  0  0  0  0  # atno 10764 bound_to 10752
  154.4536  135.5983  153.6263 H   0  0  0  0  0  0  0  0  0  0  0  0  # atno 10765 bound_to 10752
  140.6188  134.4772  157.5222 H   0  0  0  0  0  0  0  0  0  0  0  0  # atno 11005 bound_to 11000
  144.8570  139.5234  143.6830 LP  0  0  0  0  0  0  0  0  0  0  0  0  # atno 17320 bound_to 7965
  146.2881  139.7062  142.9180 LP  0  0  0  0  0  0  0  0  0  0  0  0  # atno 17321 bound_to 7965
  140.5597  144.0288  150.6164 LP  0  0  0  0  0  0  0  0  0  0  0  0  # atno 17342 bound_to 10162
  140.3370  143.3042  152.0628 LP  0  0  0  0  0  0  0  0  0  0  0  0  # atno 17343 bound_to 10162
  156.1793  130.3649  149.9057 LP  0  0  0  0  0  0  0  0  0  0  0  0  # atno 17370 bound_to 10713
  156.7014  130.8934  151.3600 LP  0  0  0  0  0  0  0  0  0  0  0  0  # atno 17371 bound_to 10713
  139.9162  134.8242  156.1360 LP  0  0  0  0  0  0  0  0  0  0  0  0  # atno 17394 bound_to 11000
  141.0757  133.6776  156.2231 LP  0  0  0  0  0  0  0  0  0  0  0  0  # atno 17395 bound_to 11000

$$$$
