AV-unprocessed.smi:895|AV-procd|sdf|4073|dock8
  -GOLD-   22720 1563D 1   1.00000     0.00000
 Structure written by MMmdl.
 44 45  0  0  0  0  0  0  0  0  1 V2000
  150.7208  137.6949  156.4357 C   0  0  0  0  0  0  0  0  0  0  0  0
  149.8953  137.4842  155.1551 C   0  0  0  0  0  0  0  0  0  0  0  0
  149.4892  138.8427  154.5503 C   0  0  0  0  0  0  0  0  0  0  0  0
  150.7630  136.8304  154.2504 O   0  0  0  0  0  0  0  0  0  0  0  0
  148.6992  136.5417  155.4469 C   0  0  0  0  0  0  0  0  0  0  0  0
  148.2019  135.8347  154.2698 N   0  0  0  0  0  0  0  0  0  0  0  0
  147.2160  134.9278  154.2744 C   0  0  0  0  0  0  0  0  0  0  0  0
  146.6082  134.5768  155.2852 O   0  0  0  0  0  0  0  0  0  0  0  0
  146.9736  134.4554  153.0434 N   0  0  0  0  0  0  0  0  0  0  0  0
  145.9559  133.4646  152.6921 C   0  0  2  0  0  0  0  0  0  0  0  0
  146.6573  132.2610  152.0314 C   0  0  0  0  0  0  0  0  0  0  0  0
  145.6531  131.2093  151.5376 C   0  0  0  0  0  0  0  0  0  0  0  0
  144.6343  131.8313  150.5733 C   0  0  0  0  0  0  0  0  0  0  0  0
  143.9033  133.0073  151.2362 C   0  0  0  0  0  0  0  0  0  0  0  0
  144.8916  134.0804  151.7440 C   0  0  1  0  0  0  0  0  0  0  0  0
  144.1825  135.1928  152.3658 N   0  0  0  0  0  0  0  0  0  0  0  0
  143.2811  135.1488  153.4094 C   0  0  0  0  0  0  0  0  0  0  0  0
  142.8467  136.4242  153.6300 C   0  0  0  0  0  0  0  0  0  0  0  0
  143.5447  137.1914  152.6565 C   0  0  0  0  0  0  0  0  0  0  0  0
  144.3413  136.4534  151.9019 N   0  0  0  0  0  0  0  0  0  0  0  0
  150.1375  138.2087  157.2003 H   0  0  0  0  0  0  0  0  0  0  0  0
  151.6103  138.2963  156.2437 H   0  0  0  0  0  0  0  0  0  0  0  0
  151.0506  136.7445  156.8575 H   0  0  0  0  0  0  0  0  0  0  0  0
  148.7918  139.3691  155.2028 H   0  0  0  0  0  0  0  0  0  0  0  0
  149.0135  138.7312  153.5753 H   0  0  0  0  0  0  0  0  0  0  0  0
  150.3574  139.4876  154.4099 H   0  0  0  0  0  0  0  0  0  0  0  0
  150.2594  136.5522  153.4998 H   0  0  0  0  0  0  0  0  0  0  0  0
  148.9324  135.8422  156.2524 H   0  0  0  0  0  0  0  0  0  0  0  0
  147.8592  137.1362  155.8078 H   0  0  0  0  0  0  0  0  0  0  0  0
  148.6416  136.0555  153.3885 H   0  0  0  0  0  0  0  0  0  0  0  0
  147.5342  134.8123  152.2840 H   0  0  0  0  0  0  0  0  0  0  0  0
  145.4595  133.1014  153.5942 H   0  0  0  0  0  0  0  0  0  0  0  0
  147.2594  132.6022  151.1877 H   0  0  0  0  0  0  0  0  0  0  0  0
  147.3499  131.8007  152.7370 H   0  0  0  0  0  0  0  0  0  0  0  0
  146.1821  130.3936  151.0439 H   0  0  0  0  0  0  0  0  0  0  0  0
  145.1319  130.7706  152.3894 H   0  0  0  0  0  0  0  0  0  0  0  0
  145.1422  132.1745  149.6711 H   0  0  0  0  0  0  0  0  0  0  0  0
  143.9137  131.0768  150.2562 H   0  0  0  0  0  0  0  0  0  0  0  0
  143.2045  133.4514  150.5264 H   0  0  0  0  0  0  0  0  0  0  0  0
  143.3023  132.6270  152.0632 H   0  0  0  0  0  0  0  0  0  0  0  0
  145.4102  134.4826  150.8719 H   0  0  0  0  0  0  0  0  0  0  0  0
  143.0219  134.2221  153.8997 H   0  0  0  0  0  0  0  0  0  0  0  0
  142.1354  136.7580  154.3706 H   0  0  0  0  0  0  0  0  0  0  0  0
  143.4952  138.2550  152.4756 H   0  0  0  0  0  0  0  0  0  0  0  0
  1  2  1  0  0  0  0
  1 21  1  0  0  0  0
  1 22  1  0  0  0  0
  1 23  1  0  0  0  0
  2  3  1  0  0  0  0
  2  4  1  0  0  0  0
  2  5  1  0  0  0  0
  3 24  1  0  0  0  0
  3 25  1  0  0  0  0
  3 26  1  0  0  0  0
  4 27  1  0  0  0  0
  5  6  1  0  0  0  0
  5 28  1  0  0  0  0
  5 29  1  0  0  0  0
  6  7  1  0  0  0  0
  6 30  1  0  0  0  0
  7  8  2  0  0  0  0
  7  9  1  0  0  0  0
  9 10  1  0  0  0  0
  9 31  1  0  0  0  0
 10 15  1  0  0  0  0
 10 11  1  0  0  0  0
 10 32  1  0  0  0  0
 11 12  1  0  0  0  0
 11 33  1  0  0  0  0
 11 34  1  0  0  0  0
 12 13  1  0  0  0  0
 12 35  1  0  0  0  0
 12 36  1  0  0  0  0
 13 14  1  0  0  0  0
 13 37  1  0  0  0  0
 13 38  1  0  0  0  0
 14 15  1  0  0  0  0
 14 39  1  0  0  0  0
 14 40  1  0  0  0  0
 15 16  1  0  0  0  0
 15 41  1  0  0  0  0
 16 20  1  0  0  0  0
 16 17  1  0  0  0  0
 17 18  2  0  0  0  0
 17 42  1  0  0  0  0
 18 19  1  0  0  0  0
 18 43  1  0  0  0  0
 19 20  2  0  0  0  0
 19 44  1  0  0  0  0
M  END
> <s_m_source_file>
AV-unprocessed.smi

> <i_m_source_file_index>
895

> <i_lp_mmshare_version>
43012

> <i_f3d_flags>
0

> <s_epik_input>
W0NIM11DKFtDSDNdKShbT0hdKVtDSDJdW05IXUMoPU8pW05IXVtDQEBIXTFbQ0gyXVtDSDJdW0NIMl1bQ0gyXVtDQEhdMW4yW2NIXVtjSF1bY0hdbjI=

> <s_epik_cmdline>
J2VwaWtfcHl0aG9uJywgJy1waCcsICc3LjAnLCAnLXRuJywgJzgnLCAnLW1hJywgJzIwMCcsICctbWV0YWxfYmluZGluZycsICctaW1hZScsICc8aW5maWxlLm1hZT4nLCAnLW9tYWUnLCAnPG91dGZpbGUubWFlPic=

> <r_lp_tautomer_probability>
1

> <r_epik_Ionization_Penalty>
0.000440451

> <r_epik_Ionization_Penalty_Charging>
0

> <r_epik_Ionization_Penalty_Neutral>
0.000440451

> <r_epik_State_Penalty>
-0

> <r_epik_Charging_Adjusted_Penalty>
0

> <i_epik_Tot_Q>
0

> <i_epik_Tot_abs_Q>
0

> <r_epik_Metal_State_Penalty>
-0

> <b_epik_Metal_Only>
0

> <s_lp_Force_Field>
OPLS_2005

> <r_lp_Energy>
10.7008

> <b_lp_Chiralities_Consistent>
1

> <s_lp_Variant>
AV-unprocessed.smi:895-1

> <Gold.Version>
5.8.1

> <Gold.Id.Protein>
6NUR|6NUR_protein|mol2

> <Gold.PLP.Fitness>
43.6851

> <Gold.PLP.PLP>
-29.1304

> <Gold.PLP.part.hbond>
-3.9738

> <Gold.PLP.part.metal>
0.0000

> <Gold.PLP.part.buried>
-5.2356

> <Gold.PLP.part.nonpolar>
-20.8752

> <Gold.PLP.part.repulsive>
1.1837

> <Gold.PLP.ligand.clash>
0.0000

> <Gold.PLP.ligand.torsion>
0.4091

> <Gold.PLP.Chemscore.Hbond>
2.8247

> <Gold.PLP.Chemscore.CHOScore>
2.2847

> <Gold.PLP.Chemscore.Metal>
0.0000

> <Gold.Chemscore.Hbonds>
donor molecule, donor type, donor heavy atom, donor atom, acceptor molecule, acceptor atom, score
      L1  H     4    27       P1  7948  0.50
      L1  H     6    30       P1  7948  1.00
      L1  H     9    31       P1  7948  0.86
      L1  C    17    42       P1 10957  0.74
      L1  C    19    44       P1 10171  0.32
      L1  C    19    44       P1 10175  1.00

> <Gold.PLP.Chemscore.Internal.Correction>
0.0449

> <Gold.Rescore>
     Score         DG    S(hbond)    S(metal)    S(lipo)     H(rot)  DE(clash)    DE(int)     intcor
     15.99     -16.77       2.80        0.00      64.55       2.19       0.00       0.78       ----

> <Gold.Chemscore.Fitness>
15.9900

> <Gold.Chemscore.DG>
-16.7714

> <Gold.Chemscore.ZeroCoef>
-5.4800

> <Gold.Chemscore.Hbond>
2.7996

> <Gold.Chemscore.Metal>
0.0000

> <Gold.Chemscore.Lipo>
64.5466

> <Gold.Chemscore.Internal_Hbond>
0.0000

> <Gold.Chemscore.DEClash>
0.0004

> <Gold.Chemscore.DEInternal>
0.7810

> <Gold.Chemscore.Rot>
2.1919

> <Gold.Chemscore.Internal.Correction>
   9.000000E+99

> <Gold.Chemscore.Hbonds>
donor molecule, donor type, donor heavy atom, donor atom, acceptor molecule, acceptor atom, score
      L1  H     4    27       P1  7948  0.03
      L1  H     6    30       P1  7948  0.96
      L1  H     9    31       P1  7948  0.73

> <Gold.Chemscore.Hbond.Weighted>
-9.3508

> <Gold.Chemscore.Metal.Weighted>
-0.0000

> <Gold.Chemscore.Lipo.Weighted>
-7.5519

> <Gold.Chemscore.Internal_Hbond.Weighted>
0.0000

> <Gold.Chemscore.DEClash.Weighted>
0.0004

> <Gold.Chemscore.DEInternal.Weighted>
0.7810

> <Gold.Chemscore.Rot.Weighted>
5.6113

> <Gold.Chemscore.Internal.Correction.Weighted>
   9.000000E+99

> <Gold.Protein.RotatedTorsions>
[ 6907 6896 6895 6894 ] final -161.31 input  -60.11 | X-H torsion
[ 7974 7965 7964 7962 ] final -143.95 input  175.53 | X-H torsion
[ 8008 7997 7996 7995 ] final  -84.77 input   59.86 | X-H torsion
[ 10167 10162 10161 10158 ] final  -11.83 input  -65.29 | X-H torsion
[ 10718 10713 10712 10709 ] final  117.66 input   66.30 | X-H torsion
[ 10763 10752 10751 10750 ] final  -40.01 input  -60.55 | X-H torsion
[ 11005 11000 10999 10996 ] final  -59.73 input  -57.11 | X-H torsion

> <Gold.Protein.ActiveResidues>
 VAL166  LYS551  ARG553  GLY616  TRP617  ASP618  TYR619  PRO620  LYS621  CYS622 
 ASP623  PHE694  ASN695  SER759  ASP760  ASP761  ALA762  ILE779  LEU786  VAL792 
 PHE793  MET794  SER795  GLU796  ALA797  LYS798  CYS799  TRP800  GLU811  SER814 

> <Gold.Protein.RotatedAtoms>
  151.3627  133.3884  159.2691 H   0  0  0  0  0  0  0  0  0  0  0  0  # atno 6907 bound_to 6896
  150.9713  134.9086  159.7800 H   0  0  0  0  0  0  0  0  0  0  0  0  # atno 6908 bound_to 6896
  152.5185  134.3589  159.9330 H   0  0  0  0  0  0  0  0  0  0  0  0  # atno 6909 bound_to 6896
  144.8332  140.5770  143.5501 H   0  0  0  0  0  0  0  0  0  0  0  0  # atno 7974 bound_to 7965
  154.6334  140.0600  156.9760 H   0  0  0  0  0  0  0  0  0  0  0  0  # atno 8008 bound_to 7997
  155.1629  140.3284  155.4389 H   0  0  0  0  0  0  0  0  0  0  0  0  # atno 8009 bound_to 7997
  156.2495  140.1927  156.6735 H   0  0  0  0  0  0  0  0  0  0  0  0  # atno 8010 bound_to 7997
  140.7147  143.5597  150.9209 H   0  0  0  0  0  0  0  0  0  0  0  0  # atno 10167 bound_to 10162
  157.6082  131.1039  150.7646 H   0  0  0  0  0  0  0  0  0  0  0  0  # atno 10718 bound_to 10713
  153.9388  135.6763  153.4744 H   0  0  0  0  0  0  0  0  0  0  0  0  # atno 10763 bound_to 10752
  153.0942  135.4859  154.8744 H   0  0  0  0  0  0  0  0  0  0  0  0  # atno 10764 bound_to 10752
  154.7388  135.3155  154.8722 H   0  0  0  0  0  0  0  0  0  0  0  0  # atno 10765 bound_to 10752
  141.1260  133.6618  156.5116 H   0  0  0  0  0  0  0  0  0  0  0  0  # atno 11005 bound_to 11000
  145.4850  139.1492  143.3741 LP  0  0  0  0  0  0  0  0  0  0  0  0  # atno 17320 bound_to 7965
  146.2633  140.4987  142.8844 LP  0  0  0  0  0  0  0  0  0  0  0  0  # atno 17321 bound_to 7965
  139.9322  143.6480  152.3073 LP  0  0  0  0  0  0  0  0  0  0  0  0  # atno 17342 bound_to 10162
  139.6934  144.7644  151.1398 LP  0  0  0  0  0  0  0  0  0  0  0  0  # atno 17343 bound_to 10162
  156.8030  130.4927  149.5367 LP  0  0  0  0  0  0  0  0  0  0  0  0  # atno 17370 bound_to 10713
  156.1175  130.6086  151.0143 LP  0  0  0  0  0  0  0  0  0  0  0  0  # atno 17371 bound_to 10713
  140.4364  134.7055  157.4969 LP  0  0  0  0  0  0  0  0  0  0  0  0  # atno 17394 bound_to 11000
  140.0259  134.6478  155.9174 LP  0  0  0  0  0  0  0  0  0  0  0  0  # atno 17395 bound_to 11000

$$$$
