AV-unprocessed.smi:1437|AV-procd|sdf|5864|dock5
  -GOLD-   22720 5533D 1   1.00000     0.00000
 Structure written by MMmdl.
 36 37  0  0  0  0  0  0  0  0  2 V2000
  153.0864  142.3115  154.9943 C   0  0  0  0  0  0  0  0  0  0  0  0
  152.4356  141.1550  154.3162 C   0  0  0  0  0  0  0  0  0  0  0  0
  151.2731  141.0258  153.6093 C   0  0  0  0  0  0  0  0  0  0  0  0
  151.2668  139.6510  153.2532 C   0  0  0  0  0  0  0  0  0  0  0  0
  150.2012  139.1000  152.4965 N   0  0  0  0  0  0  0  0  0  0  0  0
  149.1936  139.7610  151.9015 C   0  0  0  0  0  0  0  0  0  0  0  0
  149.0320  140.9812  151.9263 O   0  0  0  0  0  0  0  0  0  0  0  0
  148.3658  138.9190  151.2655 N   0  0  0  0  0  0  0  0  0  0  0  0
  147.1832  139.3154  150.5010 C   0  0  2  0  0  0  0  0  0  0  0  0
  146.0569  139.8429  151.4133 C   0  0  0  0  0  0  0  0  0  0  0  0
  145.4145  138.7189  152.2453 C   0  0  0  0  0  0  0  0  0  0  0  0
  144.9194  137.6265  151.3713 N   0  3  2  0  0  0  0  0  0  0  0  0
  144.1838  136.5898  152.1267 C   0  0  0  0  0  0  0  0  0  0  0  0
  145.9997  137.0519  150.5316 C   0  0  0  0  0  0  0  0  0  0  0  0
  146.6636  138.1348  149.6609 C   0  0  0  0  0  0  0  0  0  0  0  0
  152.3293  138.9999  153.7010 N   0  0  0  0  0  0  0  0  0  0  0  0
  153.0837  139.9603  154.3851 O   0  0  0  0  0  0  0  0  0  0  0  0
  152.7228  143.2553  154.5877 H   0  0  0  0  0  0  0  0  0  0  0  0
  154.1682  142.2819  154.8618 H   0  0  0  0  0  0  0  0  0  0  0  0
  152.8747  142.2993  156.0635 H   0  0  0  0  0  0  0  0  0  0  0  0
  150.5468  141.7934  153.3867 H   0  0  0  0  0  0  0  0  0  0  0  0
  150.2122  138.0964  152.3935 H   0  0  0  0  0  0  0  0  0  0  0  0
  148.5807  137.9331  151.2956 H   0  0  0  0  0  0  0  0  0  0  0  0
  147.4808  140.1109  149.8151 H   0  0  0  0  0  0  0  0  0  0  0  0
  146.4284  140.6299  152.0705 H   0  0  0  0  0  0  0  0  0  0  0  0
  145.2880  140.3086  150.7952 H   0  0  0  0  0  0  0  0  0  0  0  0
  146.1335  138.3189  152.9621 H   0  0  0  0  0  0  0  0  0  0  0  0
  144.5852  139.1268  152.8245 H   0  0  0  0  0  0  0  0  0  0  0  0
  144.8382  136.0867  152.8398 H   0  0  0  0  0  0  0  0  0  0  0  0
  143.7738  135.8391  151.4502 H   0  0  0  0  0  0  0  0  0  0  0  0
  143.3515  137.0304  152.6767 H   0  0  0  0  0  0  0  0  0  0  0  0
  146.7421  136.5699  151.1698 H   0  0  0  0  0  0  0  0  0  0  0  0
  145.5858  136.2748  149.8878 H   0  0  0  0  0  0  0  0  0  0  0  0
  145.9344  138.5051  148.9390 H   0  0  0  0  0  0  0  0  0  0  0  0
  147.4743  137.7002  149.0747 H   0  0  0  0  0  0  0  0  0  0  0  0
  144.2531  138.0453  150.7377 H   0  0  0  0  0  0  0  0  0  0  0  0
  1  2  1  0  0  0  0
  1 18  1  0  0  0  0
  1 19  1  0  0  0  0
  1 20  1  0  0  0  0
  2 17  1  0  0  0  0
  2  3  2  0  0  0  0
  3  4  1  0  0  0  0
  3 21  1  0  0  0  0
  4  5  1  0  0  0  0
  4 16  2  0  0  0  0
  5  6  1  0  0  0  0
  5 22  1  0  0  0  0
  6  7  2  0  0  0  0
  6  8  1  0  0  0  0
  8  9  1  0  0  0  0
  8 23  1  0  0  0  0
  9 15  1  0  0  0  0
  9 10  1  0  0  0  0
  9 24  1  0  0  0  0
 10 11  1  0  0  0  0
 10 25  1  0  0  0  0
 10 26  1  0  0  0  0
 11 12  1  0  0  0  0
 11 27  1  0  0  0  0
 11 28  1  0  0  0  0
 12 13  1  0  0  0  0
 12 14  1  0  0  0  0
 12 36  1  0  0  0  0
 13 29  1  0  0  0  0
 13 30  1  0  0  0  0
 13 31  1  0  0  0  0
 14 15  1  0  0  0  0
 14 32  1  0  0  0  0
 14 33  1  0  0  0  0
 15 34  1  0  0  0  0
 15 35  1  0  0  0  0
 16 17  1  0  0  0  0
M  CHG  1  12   1
M  END
> <s_m_source_file>
AV-unprocessed.smi

> <i_m_source_file_index>
1437

> <i_lp_mmshare_version>
43012

> <i_f3d_flags>
0

> <s_epik_input>
W0NIM11jMVtjSF1jKG5vMSlbTkhdQyg9TylbTkhdW0NIXTJbQ0gyXVtDSDJdTihbQ0gzXSlbQ0gyXVtDSDJdMg==

> <s_epik_cmdline>
J2VwaWtfcHl0aG9uJywgJy1waCcsICc3LjAnLCAnLXRuJywgJzgnLCAnLW1hJywgJzIwMCcsICctbWV0YWxfYmluZGluZycsICctaW1hZScsICc8aW5maWxlLm1hZT4nLCAnLW9tYWUnLCAnPG91dGZpbGUubWFlPic=

> <r_epik_Ionization_Penalty>
0.00408962

> <r_epik_Ionization_Penalty_Charging>
0.00405645

> <r_epik_Ionization_Penalty_Neutral>
3.31706e-05

> <r_epik_State_Penalty>
0.00290716

> <r_epik_Charging_Adjusted_Penalty>
0.00696361

> <i_epik_Tot_Q>
1

> <i_epik_Tot_abs_Q>
1

> <r_epik_Metal_State_Penalty>
0.0142111

> <b_epik_Metal_Only>
0

> <s_lp_Force_Field>
OPLS_2005

> <r_lp_Energy>
12.346

> <b_lp_Chiralities_Consistent>
1

> <s_lp_Variant>
AV-unprocessed.smi:1437-2

> <Gold.Version>
5.8.1

> <Gold.Id.Protein>
6NUR|6NUR_protein|mol2

> <Gold.PLP.Fitness>
35.2346

> <Gold.PLP.PLP>
-23.0111

> <Gold.PLP.part.hbond>
-6.1788

> <Gold.PLP.part.metal>
0.0000

> <Gold.PLP.part.buried>
6.2374

> <Gold.PLP.part.nonpolar>
-22.5353

> <Gold.PLP.part.repulsive>
0.2835

> <Gold.PLP.ligand.clash>
0.0000

> <Gold.PLP.ligand.torsion>
0.1334

> <Gold.PLP.Chemscore.Hbond>
4.1621

> <Gold.PLP.Chemscore.CHOScore>
0.0000

> <Gold.PLP.Chemscore.Metal>
0.0000

> <Gold.Chemscore.Hbonds>
donor molecule, donor type, donor heavy atom, donor atom, acceptor molecule, acceptor atom, score
      L1  H     5    22       P1  7948  0.24
      L1  H     8    23       P1  7948  1.00
      L1  H    12    36       P1 10171  0.02
      P1  H  7997  8008       L1    17  0.43
      P1  H  8011  8017       L1     7  1.00

> <Gold.PLP.Chemscore.Internal.Correction>
0.0038

> <Gold.Rescore>
     Score         DG    S(hbond)    S(metal)    S(lipo)     H(rot)  DE(clash)    DE(int)     intcor
     14.95     -17.28       2.61        0.00      48.17       1.00       0.75       1.58       ----

> <Gold.Chemscore.Fitness>
14.9513

> <Gold.Chemscore.DG>
-17.2774

> <Gold.Chemscore.ZeroCoef>
-5.4800

> <Gold.Chemscore.Hbond>
2.6111

> <Gold.Chemscore.Metal>
0.0000

> <Gold.Chemscore.Lipo>
48.1729

> <Gold.Chemscore.Internal_Hbond>
0.0000

> <Gold.Chemscore.DEClash>
0.7464

> <Gold.Chemscore.DEInternal>
1.5797

> <Gold.Chemscore.Rot>
1.0000

> <Gold.Chemscore.Internal.Correction>
   9.000000E+99

> <Gold.Chemscore.Hbonds>
donor molecule, donor type, donor heavy atom, donor atom, acceptor molecule, acceptor atom, score
      L1  H     5    22       P1  7948  0.01
      L1  H     8    23       P1  7948  0.82
      L1  H    12    36       P1 10171  0.09
      P1  H  7997  8008       L1    17  0.19
      P1  H  8011  8017       L1     7  0.95

> <Gold.Chemscore.Hbond.Weighted>
-8.7212

> <Gold.Chemscore.Metal.Weighted>
-0.0000

> <Gold.Chemscore.Lipo.Weighted>
-5.6362

> <Gold.Chemscore.Internal_Hbond.Weighted>
0.0000

> <Gold.Chemscore.DEClash.Weighted>
0.7464

> <Gold.Chemscore.DEInternal.Weighted>
1.5797

> <Gold.Chemscore.Rot.Weighted>
2.5600

> <Gold.Chemscore.Internal.Correction.Weighted>
   9.000000E+99

> <Gold.Protein.RotatedTorsions>
[ 6907 6896 6895 6894 ] final    1.80 input  -60.11 | X-H torsion
[ 7974 7965 7964 7962 ] final   -5.65 input  175.53 | X-H torsion
[ 8008 7997 7996 7995 ] final  -34.68 input   59.86 | X-H torsion
[ 10167 10162 10161 10158 ] final   83.47 input  -65.29 | X-H torsion
[ 10718 10713 10712 10709 ] final   79.16 input   66.30 | X-H torsion
[ 10763 10752 10751 10750 ] final  -60.63 input  -60.55 | X-H torsion
[ 11005 11000 10999 10996 ] final  -77.05 input  -57.11 | X-H torsion

> <Gold.Protein.ActiveResidues>
 VAL166  LYS551  ARG553  GLY616  TRP617  ASP618  TYR619  PRO620  LYS621  CYS622 
 ASP623  PHE694  ASN695  SER759  ASP760  ASP761  ALA762  ILE779  LEU786  VAL792 
 PHE793  MET794  SER795  GLU796  ALA797  LYS798  CYS799  TRP800  GLU811  SER814 

> <Gold.Protein.RotatedAtoms>
  151.5984  135.1049  160.0054 H   0  0  0  0  0  0  0  0  0  0  0  0  # atno 6907 bound_to 6896
  152.4270  133.7208  159.6543 H   0  0  0  0  0  0  0  0  0  0  0  0  # atno 6908 bound_to 6896
  150.8160  133.8265  159.3183 H   0  0  0  0  0  0  0  0  0  0  0  0  # atno 6909 bound_to 6896
  146.2348  140.2053  142.8334 H   0  0  0  0  0  0  0  0  0  0  0  0  # atno 7974 bound_to 7965
  154.4114  140.1677  156.2088 H   0  0  0  0  0  0  0  0  0  0  0  0  # atno 8008 bound_to 7997
  155.9461  140.3404  155.6345 H   0  0  0  0  0  0  0  0  0  0  0  0  # atno 8009 bound_to 7997
  155.6928  140.0736  157.2432 H   0  0  0  0  0  0  0  0  0  0  0  0  # atno 8010 bound_to 7997
  139.9181  144.6230  150.8468 H   0  0  0  0  0  0  0  0  0  0  0  0  # atno 10167 bound_to 10162
  157.6768  130.9901  150.1891 H   0  0  0  0  0  0  0  0  0  0  0  0  # atno 10718 bound_to 10713
  154.2721  135.6288  153.5314 H   0  0  0  0  0  0  0  0  0  0  0  0  # atno 10763 bound_to 10752
  152.9878  135.5612  154.5589 H   0  0  0  0  0  0  0  0  0  0  0  0  # atno 10764 bound_to 10752
  154.5161  135.2879  155.1277 H   0  0  0  0  0  0  0  0  0  0  0  0  # atno 10765 bound_to 10752
  141.1658  133.7007  156.7762 H   0  0  0  0  0  0  0  0  0  0  0  0  # atno 11005 bound_to 11000
  144.9749  140.8404  143.5432 LP  0  0  0  0  0  0  0  0  0  0  0  0  # atno 17320 bound_to 7965
  145.2039  139.2238  143.5178 LP  0  0  0  0  0  0  0  0  0  0  0  0  # atno 17321 bound_to 7965
  140.7669  143.3317  151.2396 LP  0  0  0  0  0  0  0  0  0  0  0  0  # atno 17342 bound_to 10162
  139.6885  143.9732  152.2847 LP  0  0  0  0  0  0  0  0  0  0  0  0  # atno 17343 bound_to 10162
  156.2607  130.3710  149.8134 LP  0  0  0  0  0  0  0  0  0  0  0  0  # atno 17370 bound_to 10713
  156.5880  130.8494  151.3400 LP  0  0  0  0  0  0  0  0  0  0  0  0  # atno 17371 bound_to 10713
  140.2428  134.8601  157.3590 LP  0  0  0  0  0  0  0  0  0  0  0  0  # atno 17394 bound_to 11000
  140.1779  134.4526  155.7790 LP  0  0  0  0  0  0  0  0  0  0  0  0  # atno 17395 bound_to 11000

$$$$
