AV-unprocessed.smi:53|AV-procd|sdf|516|dock4
  -GOLD-   2262016393D 1   1.00000     0.00000
 Structure written by MMmdl.
 30 31  0  0  0  0  0  0  0  0  1 V2000
  152.7795  137.5136  156.0340 N   0  0  0  0  0  0  0  0  0  0  0  0
  151.8741  138.4338  155.6735 C   0  0  0  0  0  0  0  0  0  0  0  0
  151.1447  138.2942  154.4352 C   0  0  0  0  0  0  0  0  0  0  0  0
  150.2420  139.2572  154.1469 C   0  0  0  0  0  0  0  0  0  0  0  0
  149.9787  140.3177  155.0084 N   0  0  0  0  0  0  0  0  0  0  0  0
  148.9911  141.4182  154.6437 C   0  0  1  0  0  0  0  0  0  0  0  0
  148.5861  141.2568  153.3120 O   0  0  0  0  0  0  0  0  0  0  0  0
  147.2725  140.7071  153.2205 C   0  0  1  0  0  0  0  0  0  0  0  0
  147.3119  139.1610  153.2315 C   0  0  0  0  0  0  0  0  0  0  0  0
  147.5077  138.6760  151.9203 O   0  0  0  0  0  0  0  0  0  0  0  0
  146.5959  141.3498  154.4355 C   0  0  1  0  0  0  0  0  0  0  0  0
  145.4568  140.6397  154.8808 O   0  0  0  0  0  0  0  0  0  0  0  0
  147.6943  141.3757  155.4916 C   0  0  2  0  0  0  0  0  0  0  0  0
  147.5412  142.5340  156.2890 O   0  0  0  0  0  0  0  0  0  0  0  0
  150.7651  140.4592  156.1802 C   0  0  0  0  0  0  0  0  0  0  0  0
  150.6610  141.4348  156.9216 O   0  0  0  0  0  0  0  0  0  0  0  0
  151.6703  139.4712  156.4604 N   0  0  0  0  0  0  0  0  0  0  0  0
  149.5655  142.3412  154.7431 H   0  0  0  0  0  0  0  0  0  0  0  0
  146.7893  141.0480  152.3038 H   0  0  0  0  0  0  0  0  0  0  0  0
  146.3015  142.3667  154.1694 H   0  0  0  0  0  0  0  0  0  0  0  0
  147.6647  140.4701  156.0997 H   0  0  0  0  0  0  0  0  0  0  0  0
  153.2941  137.6193  156.8960 H   0  0  0  0  0  0  0  0  0  0  0  0
  152.9441  136.7132  155.4405 H   0  0  0  0  0  0  0  0  0  0  0  0
  151.2888  137.4714  153.7496 H   0  0  0  0  0  0  0  0  0  0  0  0
  149.7149  139.1617  153.2096 H   0  0  0  0  0  0  0  0  0  0  0  0
  148.0686  138.7637  153.9062 H   0  0  0  0  0  0  0  0  0  0  0  0
  146.3560  138.7574  153.5648 H   0  0  0  0  0  0  0  0  0  0  0  0
  148.2774  139.0889  151.5596 H   0  0  0  0  0  0  0  0  0  0  0  0
  144.7755  140.7323  154.2320 H   0  0  0  0  0  0  0  0  0  0  0  0
  147.9257  143.2665  155.8324 H   0  0  0  0  0  0  0  0  0  0  0  0
  1  2  1  0  0  0  0
  1 22  1  0  0  0  0
  1 23  1  0  0  0  0
  2 17  2  0  0  0  0
  2  3  1  0  0  0  0
  3  4  2  0  0  0  0
  3 24  1  0  0  0  0
  4  5  1  0  0  0  0
  4 25  1  0  0  0  0
  5  6  1  0  0  0  0
  5 15  1  0  0  0  0
  6 18  1  0  0  0  0
  6 13  1  0  0  0  0
  6  7  1  0  0  0  0
  7  8  1  0  0  0  0
  8 19  1  0  0  0  0
  8  9  1  0  0  0  0
  8 11  1  0  0  0  0
  9 10  1  0  0  0  0
  9 26  1  0  0  0  0
  9 27  1  0  0  0  0
 10 28  1  0  0  0  0
 11 20  1  0  0  0  0
 11 12  1  0  0  0  0
 11 13  1  0  0  0  0
 12 29  1  0  0  0  0
 13 21  1  0  0  0  0
 13 14  1  0  0  0  0
 14 30  1  0  0  0  0
 15 16  2  0  0  0  0
 15 17  1  0  0  0  0
M  END
> <s_m_source_file>
AV-unprocessed.smi

> <i_m_source_file_index>
53

> <i_lp_mmshare_version>
43012

> <i_f3d_flags>
0

> <s_epik_input>
W05IMl1jMVtjSF1bY0hdbihjKD1PKW4xKVtDQEBIXTJPW0NASF0oW0NIMl1bT0hdKVtDQEBIXShbT0hdKVtDQEBIXTJbT0hd

> <s_epik_cmdline>
J2VwaWtfcHl0aG9uJywgJy1waCcsICc3LjAnLCAnLXRuJywgJzgnLCAnLW1hJywgJzIwMCcsICctbWV0YWxfYmluZGluZycsICctaW1hZScsICc8aW5maWxlLm1hZT4nLCAnLW9tYWUnLCAnPG91dGZpbGUubWFlPic=

> <r_lp_tautomer_probability>
0.99996

> <r_epik_Ionization_Penalty>
0.00069087

> <r_epik_Ionization_Penalty_Charging>
2.61959e-08

> <r_epik_Ionization_Penalty_Neutral>
0.000690844

> <r_epik_State_Penalty>
1.15523e-05

> <r_epik_Charging_Adjusted_Penalty>
1.15785e-05

> <i_epik_Tot_Q>
0

> <i_epik_Tot_abs_Q>
0

> <r_epik_Metal_State_Penalty>
-0

> <b_epik_Metal_Only>
0

> <s_epik_Chemistry_Notes>
This compound contains an acetal/aminal-like group ( X-CH(R)-Y where X, Y are N, S, or O) that may be acid/base labile, releasing an aldehyde.

> <s_lp_Force_Field>
OPLS_2005

> <r_lp_Energy>
31.3802

> <b_lp_Chiralities_Consistent>
1

> <s_lp_Variant>
AV-unprocessed.smi:53-4

> <Gold.Version>
5.8.1

> <Gold.Id.Protein>
6NUR|6NUR_protein|mol2

> <Gold.PLP.Fitness>
39.8276

> <Gold.PLP.PLP>
-26.1309

> <Gold.PLP.part.hbond>
-5.5137

> <Gold.PLP.part.metal>
0.0000

> <Gold.PLP.part.buried>
-1.1302

> <Gold.PLP.part.nonpolar>
-21.7448

> <Gold.PLP.part.repulsive>
2.8975

> <Gold.PLP.ligand.clash>
0.0000

> <Gold.PLP.ligand.torsion>
0.5316

> <Gold.PLP.Chemscore.Hbond>
3.8960

> <Gold.PLP.Chemscore.CHOScore>
1.0000

> <Gold.PLP.Chemscore.Metal>
0.0000

> <Gold.Chemscore.Hbonds>
donor molecule, donor type, donor heavy atom, donor atom, acceptor molecule, acceptor atom, score
      L1  H    10    28       P1  7957  1.00
      L1  H    12    29       P1 10175  0.89
      L1  H    14    30       P1  8028  1.00
      P1  H  8011  8017       L1     7  0.90
      L1  C     4    25       P1  7957  1.00

> <Gold.PLP.Chemscore.Internal.Correction>
0.0720

> <Gold.Rescore>
     Score         DG    S(hbond)    S(metal)    S(lipo)     H(rot)  DE(clash)    DE(int)     intcor
      8.74     -10.41       2.92        0.00      40.08       3.71       1.21       0.46       ----

> <Gold.Chemscore.Fitness>
8.7436

> <Gold.Chemscore.DG>
-10.4129

> <Gold.Chemscore.ZeroCoef>
-5.4800

> <Gold.Chemscore.Hbond>
2.9161

> <Gold.Chemscore.Metal>
0.0000

> <Gold.Chemscore.Lipo>
40.0809

> <Gold.Chemscore.Internal_Hbond>
0.0000

> <Gold.Chemscore.DEClash>
1.2102

> <Gold.Chemscore.DEInternal>
0.4590

> <Gold.Chemscore.Rot>
3.7095

> <Gold.Chemscore.Internal.Correction>
   9.000000E+99

> <Gold.Chemscore.Hbonds>
donor molecule, donor type, donor heavy atom, donor atom, acceptor molecule, acceptor atom, score
      L1  H    10    28       P1  7957  0.85
      L1  H    12    29       P1 10175  0.86
      L1  H    14    30       P1  8028  0.39
      P1  H  8011  8017       L1     7  0.39

> <Gold.Chemscore.Hbond.Weighted>
-9.7398

> <Gold.Chemscore.Metal.Weighted>
-0.0000

> <Gold.Chemscore.Lipo.Weighted>
-4.6895

> <Gold.Chemscore.Internal_Hbond.Weighted>
0.0000

> <Gold.Chemscore.DEClash.Weighted>
1.2102

> <Gold.Chemscore.DEInternal.Weighted>
0.4590

> <Gold.Chemscore.Rot.Weighted>
9.4964

> <Gold.Chemscore.Internal.Correction.Weighted>
   9.000000E+99

> <Gold.Protein.RotatedTorsions>
[ 6907 6896 6895 6894 ] final  -17.45 input  -60.11 | X-H torsion
[ 7974 7965 7964 7962 ] final   37.93 input  175.53 | X-H torsion
[ 8008 7997 7996 7995 ] final -120.26 input   59.86 | X-H torsion
[ 10167 10162 10161 10158 ] final  151.50 input  -65.29 | X-H torsion
[ 10718 10713 10712 10709 ] final -163.70 input   66.30 | X-H torsion
[ 10763 10752 10751 10750 ] final  159.99 input  -60.55 | X-H torsion
[ 11005 11000 10999 10996 ] final -120.34 input  -57.11 | X-H torsion

> <Gold.Protein.ActiveResidues>
 VAL166  LYS551  ARG553  GLY616  TRP617  ASP618  TYR619  PRO620  LYS621  CYS622 
 ASP623  PHE694  ASN695  SER759  ASP760  ASP761  ALA762  ILE779  LEU786  VAL792 
 PHE793  MET794  SER795  GLU796  ALA797  LYS798  CYS799  TRP800  GLU811  SER814 

> <Gold.Protein.RotatedAtoms>
  151.2932  135.0747  159.9211 H   0  0  0  0  0  0  0  0  0  0  0  0  # atno 6907 bound_to 6896
  152.5312  133.9910  159.7861 H   0  0  0  0  0  0  0  0  0  0  0  0  # atno 6908 bound_to 6896
  151.0184  133.5848  159.2705 H   0  0  0  0  0  0  0  0  0  0  0  0  # atno 6909 bound_to 6896
  146.1101  139.5834  142.9358 H   0  0  0  0  0  0  0  0  0  0  0  0  # atno 7974 bound_to 7965
  155.1289  140.0400  157.2769 H   0  0  0  0  0  0  0  0  0  0  0  0  # atno 8008 bound_to 7997
  154.6557  140.2579  155.7138 H   0  0  0  0  0  0  0  0  0  0  0  0  # atno 8009 bound_to 7997
  156.2597  140.2827  156.1009 H   0  0  0  0  0  0  0  0  0  0  0  0  # atno 8010 bound_to 7997
  139.4840  144.5436  151.7523 H   0  0  0  0  0  0  0  0  0  0  0  0  # atno 10167 bound_to 10162
  156.6284  130.8919  151.2972 H   0  0  0  0  0  0  0  0  0  0  0  0  # atno 10718 bound_to 10713
  154.2404  135.2775  155.2856 H   0  0  0  0  0  0  0  0  0  0  0  0  # atno 10763 bound_to 10752
  154.5549  135.5664  153.6959 H   0  0  0  0  0  0  0  0  0  0  0  0  # atno 10764 bound_to 10752
  153.0001  135.6283  154.2548 H   0  0  0  0  0  0  0  0  0  0  0  0  # atno 10765 bound_to 10752
  141.0150  134.0208  157.3361 H   0  0  0  0  0  0  0  0  0  0  0  0  # atno 11005 bound_to 11000
  145.5682  141.0397  143.2189 LP  0  0  0  0  0  0  0  0  0  0  0  0  # atno 17320 bound_to 7965
  144.7504  139.7209  143.7275 LP  0  0  0  0  0  0  0  0  0  0  0  0  # atno 17321 bound_to 7965
  140.4979  144.1213  150.5964 LP  0  0  0  0  0  0  0  0  0  0  0  0  # atno 17342 bound_to 10162
  140.4096  143.2663  151.9849 LP  0  0  0  0  0  0  0  0  0  0  0  0  # atno 17343 bound_to 10162
  157.7207  130.9555  150.1428 LP  0  0  0  0  0  0  0  0  0  0  0  0  # atno 17370 bound_to 10713
  156.2254  130.3677  149.8506 LP  0  0  0  0  0  0  0  0  0  0  0  0  # atno 17371 bound_to 10713
  139.9112  135.0190  156.7698 LP  0  0  0  0  0  0  0  0  0  0  0  0  # atno 17394 bound_to 11000
  140.6669  133.9594  155.7835 LP  0  0  0  0  0  0  0  0  0  0  0  0  # atno 17395 bound_to 11000

$$$$
