AV-unprocessed.smi:1817|AV-procd|sdf|7372|dock2
  -GOLD-   22720 9 33D 1   1.00000     0.00000
 Structure written by MMmdl.
 42 43  0  0  0  0  0  0  0  0  1 V2000
  152.6117  144.1810  158.5669 C   0  0  0  0  0  0  0  0  0  0  0  0
  151.9749  142.8787  159.0725 C   0  0  0  0  0  0  0  0  0  0  0  0
  151.7353  141.8691  158.0430 N   0  0  0  0  0  0  0  0  0  0  0  0
  150.8927  142.4031  156.9759 C   0  0  0  0  0  0  0  0  0  0  0  0
  150.6413  141.3613  155.8706 C   0  0  0  0  0  0  0  0  0  0  0  0
  149.9882  140.1514  156.3887 N   0  0  0  0  0  0  0  0  0  0  0  0
  149.7301  139.1483  155.3327 C   0  0  2  0  0  0  0  0  0  0  0  0
  151.0104  138.6729  154.6094 C   0  0  0  0  0  0  0  0  0  0  0  0
  148.7035  139.6086  154.2645 C   0  0  0  0  0  0  0  0  0  0  0  0
  148.1488  138.4892  153.5055 N   0  0  0  0  0  0  0  0  0  0  0  0
  146.8456  138.2100  153.3620 C   0  0  0  0  0  0  0  0  0  0  0  0
  145.9454  138.8922  153.8512 O   0  0  0  0  0  0  0  0  0  0  0  0
  146.6667  137.0997  152.6283 N   0  0  0  0  0  0  0  0  0  0  0  0
  145.4434  136.4855  152.2603 C   0  0  0  0  0  0  0  0  0  0  0  0
  144.3373  136.8391  152.9254 N   0  0  0  0  0  0  0  0  0  0  0  0
  143.2142  136.1623  152.4653 N   0  0  0  0  0  0  0  0  0  0  0  0
  143.5180  135.3236  151.4700 C   0  0  0  0  0  0  0  0  0  0  0  0
  145.2063  135.2761  150.9949 S   0  0  0  0  0  0  0  0  0  0  0  0
  150.8326  139.6264  157.4709 C   0  0  0  0  0  0  0  0  0  0  0  0
  151.0834  140.6716  158.5735 C   0  0  0  0  0  0  0  0  0  0  0  0
  152.6614  144.9180  159.3685 H   0  0  0  0  0  0  0  0  0  0  0  0
  152.0271  144.6153  157.7553 H   0  0  0  0  0  0  0  0  0  0  0  0
  153.6286  144.0263  158.2074 H   0  0  0  0  0  0  0  0  0  0  0  0
  152.5900  142.4583  159.8697 H   0  0  0  0  0  0  0  0  0  0  0  0
  151.0227  143.1404  159.5356 H   0  0  0  0  0  0  0  0  0  0  0  0
  149.9381  142.7391  157.3847 H   0  0  0  0  0  0  0  0  0  0  0  0
  151.3682  143.2806  156.5363 H   0  0  0  0  0  0  0  0  0  0  0  0
  150.0185  141.8361  155.1141 H   0  0  0  0  0  0  0  0  0  0  0  0
  151.5839  141.1012  155.3862 H   0  0  0  0  0  0  0  0  0  0  0  0
  149.3009  138.2647  155.8078 H   0  0  0  0  0  0  0  0  0  0  0  0
  150.7707  138.0332  153.7596 H   0  0  0  0  0  0  0  0  0  0  0  0
  151.6528  138.0817  155.2613 H   0  0  0  0  0  0  0  0  0  0  0  0
  151.5944  139.5135  154.2338 H   0  0  0  0  0  0  0  0  0  0  0  0
  147.9085  140.1908  154.7333 H   0  0  0  0  0  0  0  0  0  0  0  0
  149.1632  140.3004  153.5597 H   0  0  0  0  0  0  0  0  0  0  0  0
  148.8160  137.8658  153.0751 H   0  0  0  0  0  0  0  0  0  0  0  0
  147.5007  136.6388  152.2951 H   0  0  0  0  0  0  0  0  0  0  0  0
  142.7417  134.7284  151.0125 H   0  0  0  0  0  0  0  0  0  0  0  0
  150.3596  138.7663  157.9416 H   0  0  0  0  0  0  0  0  0  0  0  0
  151.7855  139.2801  157.0677 H   0  0  0  0  0  0  0  0  0  0  0  0
  151.7030  140.2168  159.3456 H   0  0  0  0  0  0  0  0  0  0  0  0
  150.1376  140.9382  159.0481 H   0  0  0  0  0  0  0  0  0  0  0  0
  1  2  1  0  0  0  0
  1 21  1  0  0  0  0
  1 22  1  0  0  0  0
  1 23  1  0  0  0  0
  2  3  1  0  0  0  0
  2 24  1  0  0  0  0
  2 25  1  0  0  0  0
  3 20  1  0  0  0  0
  3  4  1  0  0  0  0
  4  5  1  0  0  0  0
  4 26  1  0  0  0  0
  4 27  1  0  0  0  0
  5  6  1  0  0  0  0
  5 28  1  0  0  0  0
  5 29  1  0  0  0  0
  6  7  1  0  0  0  0
  6 19  1  0  0  0  0
  7  8  1  0  0  0  0
  7  9  1  0  0  0  0
  7 30  1  0  0  0  0
  8 31  1  0  0  0  0
  8 32  1  0  0  0  0
  8 33  1  0  0  0  0
  9 10  1  0  0  0  0
  9 34  1  0  0  0  0
  9 35  1  0  0  0  0
 10 11  1  0  0  0  0
 10 36  1  0  0  0  0
 11 12  2  0  0  0  0
 11 13  1  0  0  0  0
 13 14  1  0  0  0  0
 13 37  1  0  0  0  0
 14 18  1  0  0  0  0
 14 15  2  0  0  0  0
 15 16  1  0  0  0  0
 16 17  2  0  0  0  0
 17 18  1  0  0  0  0
 17 38  1  0  0  0  0
 19 20  1  0  0  0  0
 19 39  1  0  0  0  0
 19 40  1  0  0  0  0
 20 41  1  0  0  0  0
 20 42  1  0  0  0  0
M  END
> <s_m_source_file>
AV-unprocessed.smi

> <i_m_source_file_index>
1817

> <i_lp_mmshare_version>
43012

> <i_f3d_flags>
0

> <s_epik_input>
W0NIM11bQ0gyXU4xW0NIMl1bQ0gyXU4oW0NIMl1bQ0gyXTEpW0NASF0oW0NIM10pW0NIMl1bTkhdQyg9TylbTkhdYzJubltjSF1zMg==

> <s_epik_cmdline>
J2VwaWtfcHl0aG9uJywgJy1waCcsICc3LjAnLCAnLXRuJywgJzgnLCAnLW1hJywgJzIwMCcsICctbWV0YWxfYmluZGluZycsICctaW1hZScsICc8aW5maWxlLm1hZT4nLCAnLW9tYWUnLCAnPG91dGZpbGUubWFlPic=

> <r_lp_tautomer_probability>
1

> <r_epik_Ionization_Penalty>
2.44129

> <r_epik_Ionization_Penalty_Charging>
0

> <r_epik_Ionization_Penalty_Neutral>
2.44129

> <r_epik_State_Penalty>
1.7682

> <r_epik_Charging_Adjusted_Penalty>
1.7682

> <i_epik_Tot_Q>
0

> <i_epik_Tot_abs_Q>
0

> <r_epik_Metal_State_Penalty>
2.10306

> <b_epik_Metal_Only>
0

> <s_lp_Force_Field>
OPLS_2005

> <r_lp_Energy>
42.0041

> <b_lp_Chiralities_Consistent>
1

> <s_lp_Variant>
AV-unprocessed.smi:1817-5

> <Gold.Version>
5.8.1

> <Gold.Id.Protein>
6NUR|6NUR_protein|mol2

> <Gold.PLP.Fitness>
39.6667

> <Gold.PLP.PLP>
-32.1263

> <Gold.PLP.part.hbond>
-2.4125

> <Gold.PLP.part.metal>
0.0000

> <Gold.PLP.part.buried>
-5.4928

> <Gold.PLP.part.nonpolar>
-26.5820

> <Gold.PLP.part.repulsive>
0.4633

> <Gold.PLP.ligand.clash>
0.0000

> <Gold.PLP.ligand.torsion>
0.2071

> <Gold.PLP.Chemscore.Hbond>
1.8406

> <Gold.PLP.Chemscore.CHOScore>
0.7908

> <Gold.PLP.Chemscore.Metal>
0.0000

> <Gold.Chemscore.Hbonds>
donor molecule, donor type, donor heavy atom, donor atom, acceptor molecule, acceptor atom, score
      L1  H    10    36       P1  7948  0.86
      L1  H    13    37       P1  7948  1.00
      L1  C    17    38       P1 10186  0.63

> <Gold.PLP.Chemscore.Internal.Correction>
0.0604

> <Gold.Rescore>
     Score         DG    S(hbond)    S(metal)    S(lipo)     H(rot)  DE(clash)    DE(int)     intcor
     14.80     -16.49       1.94        0.00      79.70       1.87       0.01       1.68       ----

> <Gold.Chemscore.Fitness>
14.8023

> <Gold.Chemscore.DG>
-16.4932

> <Gold.Chemscore.ZeroCoef>
-5.4800

> <Gold.Chemscore.Hbond>
1.9413

> <Gold.Chemscore.Metal>
0.0000

> <Gold.Chemscore.Lipo>
79.7008

> <Gold.Chemscore.Internal_Hbond>
0.0000

> <Gold.Chemscore.DEClash>
0.0095

> <Gold.Chemscore.DEInternal>
1.6815

> <Gold.Chemscore.Rot>
1.8733

> <Gold.Chemscore.Internal.Correction>
   9.000000E+99

> <Gold.Chemscore.Hbonds>
donor molecule, donor type, donor heavy atom, donor atom, acceptor molecule, acceptor atom, score
      L1  H    10    36       P1  7948  0.80
      L1  H    13    37       P1  7948  0.96

> <Gold.Chemscore.Hbond.Weighted>
-6.4839

> <Gold.Chemscore.Metal.Weighted>
-0.0000

> <Gold.Chemscore.Lipo.Weighted>
-9.3250

> <Gold.Chemscore.Internal_Hbond.Weighted>
0.0000

> <Gold.Chemscore.DEClash.Weighted>
0.0095

> <Gold.Chemscore.DEInternal.Weighted>
1.6815

> <Gold.Chemscore.Rot.Weighted>
4.7957

> <Gold.Chemscore.Internal.Correction.Weighted>
   9.000000E+99

> <Gold.Protein.RotatedTorsions>
[ 6907 6896 6895 6894 ] final  133.05 input  -60.11 | X-H torsion
[ 7974 7965 7964 7962 ] final  -98.80 input  175.53 | X-H torsion
[ 8008 7997 7996 7995 ] final -146.38 input   59.86 | X-H torsion
[ 10167 10162 10161 10158 ] final  120.92 input  -65.29 | X-H torsion
[ 10718 10713 10712 10709 ] final  169.14 input   66.30 | X-H torsion
[ 10763 10752 10751 10750 ] final  -55.60 input  -60.55 | X-H torsion
[ 11005 11000 10999 10996 ] final -110.16 input  -57.11 | X-H torsion

> <Gold.Protein.ActiveResidues>
 VAL166  LYS551  ARG553  GLY616  TRP617  ASP618  TYR619  PRO620  LYS621  CYS622 
 ASP623  PHE694  ASN695  SER759  ASP760  ASP761  ALA762  ILE779  LEU786  VAL792 
 PHE793  MET794  SER795  GLU796  ALA797  LYS798  CYS799  TRP800  GLU811  SER814 

> <Gold.Protein.RotatedAtoms>
  152.3260  133.5905  159.5776 H   0  0  0  0  0  0  0  0  0  0  0  0  # atno 6907 bound_to 6896
  150.7397  133.9940  159.3625 H   0  0  0  0  0  0  0  0  0  0  0  0  # atno 6908 bound_to 6896
  151.7820  135.0759  160.0426 H   0  0  0  0  0  0  0  0  0  0  0  0  # atno 6909 bound_to 6896
  145.3159  140.9411  143.2743 H   0  0  0  0  0  0  0  0  0  0  0  0  # atno 7974 bound_to 7965
  155.5585  140.0623  157.2834 H   0  0  0  0  0  0  0  0  0  0  0  0  # atno 8008 bound_to 7997
  154.4398  140.1890  156.0803 H   0  0  0  0  0  0  0  0  0  0  0  0  # atno 8009 bound_to 7997
  156.0464  140.3289  155.7305 H   0  0  0  0  0  0  0  0  0  0  0  0  # atno 8010 bound_to 7997
  139.5952  144.7039  151.3194 H   0  0  0  0  0  0  0  0  0  0  0  0  # atno 10167 bound_to 10162
  157.0270  131.0248  151.2757 H   0  0  0  0  0  0  0  0  0  0  0  0  # atno 10718 bound_to 10713
  154.1933  135.6423  153.5066 H   0  0  0  0  0  0  0  0  0  0  0  0  # atno 10763 bound_to 10752
  153.0030  135.5434  154.6392 H   0  0  0  0  0  0  0  0  0  0  0  0  # atno 10764 bound_to 10752
  154.5787  135.2923  155.0728 H   0  0  0  0  0  0  0  0  0  0  0  0  # atno 10765 bound_to 10752
  141.0807  133.9224  157.2294 H   0  0  0  0  0  0  0  0  0  0  0  0  # atno 11005 bound_to 11000
  144.8978  139.4689  143.6647 LP  0  0  0  0  0  0  0  0  0  0  0  0  # atno 17320 bound_to 7965
  146.3101  139.7715  142.9026 LP  0  0  0  0  0  0  0  0  0  0  0  0  # atno 17321 bound_to 7965
  140.7206  143.7147  150.7742 LP  0  0  0  0  0  0  0  0  0  0  0  0  # atno 17342 bound_to 10162
  140.0711  143.5060  152.2579 LP  0  0  0  0  0  0  0  0  0  0  0  0  # atno 17343 bound_to 10162
  157.5206  130.7996  149.7805 LP  0  0  0  0  0  0  0  0  0  0  0  0  # atno 17370 bound_to 10713
  156.0082  130.3845  150.2355 LP  0  0  0  0  0  0  0  0  0  0  0  0  # atno 17371 bound_to 10713
  139.9621  135.0151  156.9289 LP  0  0  0  0  0  0  0  0  0  0  0  0  # atno 17394 bound_to 11000
  140.5474  134.0660  155.7359 LP  0  0  0  0  0  0  0  0  0  0  0  0  # atno 17395 bound_to 11000

$$$$
