AV-unprocessed.smi:1245|AV-procd|sdf|5240|dock10
  -GOLD-   22720 4353D 1   1.00000     0.00000
 Structure written by MMmdl.
 44 45  0  0  0  0  0  0  0  0  2 V2000
  152.5872  139.0430  156.1896 O   0  0  0  0  0  0  0  0  0  0  0  0
  151.3828  138.9790  155.9407 C   0  0  0  0  0  0  0  0  0  0  0  0
  150.8483  138.0053  154.8866 C   0  0  0  0  0  0  0  0  0  0  0  0
  149.9250  136.9219  155.4726 C   0  0  0  0  0  0  0  0  0  0  0  0
  150.8298  135.8003  156.6374 S   0  0  0  0  0  0  0  0  0  0  0  0
  152.2327  136.2399  156.6788 O   0  0  0  0  0  0  0  0  0  0  0  0
  150.0575  135.6936  157.8851 O   0  0  0  0  0  0  0  0  0  0  0  0
  150.7817  134.1520  155.7870 C   0  0  0  0  0  0  0  0  0  0  0  0
  150.0293  134.1918  154.4432 C   0  0  0  0  0  0  0  0  0  0  0  0
  148.8694  133.1984  154.5723 C   0  0  0  0  0  0  0  0  0  0  0  0
  149.3169  132.2112  155.6487 C   0  0  0  0  0  0  0  0  0  0  0  0
  150.1080  133.0644  156.6397 C   0  0  0  0  0  0  0  0  0  0  0  0
  150.4652  139.7385  156.5584 N   0  0  0  0  0  0  0  0  0  0  0  0
  150.7502  140.7229  157.5961 C   0  0  0  0  0  0  0  0  0  0  0  0
  151.2288  142.0578  157.0000 C   0  0  0  0  0  0  0  0  0  0  0  0
  151.5161  143.0948  158.0686 C   0  0  0  0  0  0  0  0  0  0  0  0
  152.3405  142.8187  159.1812 C   0  0  0  0  0  0  0  0  0  0  0  0
  152.5622  143.8280  160.1417 C   0  0  0  0  0  0  0  0  0  0  0  0
  151.9552  145.0894  159.9703 C   0  0  0  0  0  0  0  0  0  0  0  0
  151.1395  145.3100  158.8419 C   0  0  0  0  0  0  0  0  0  0  0  0
  150.9508  144.3177  157.9442 N   0  3  0  0  0  0  0  0  0  0  0  0
  150.3134  138.5777  154.1279 H   0  0  0  0  0  0  0  0  0  0  0  0
  151.6961  137.5354  154.3867 H   0  0  0  0  0  0  0  0  0  0  0  0
  149.0790  137.3696  155.9901 H   0  0  0  0  0  0  0  0  0  0  0  0
  149.5166  136.3013  154.6743 H   0  0  0  0  0  0  0  0  0  0  0  0
  151.8173  133.8665  155.5979 H   0  0  0  0  0  0  0  0  0  0  0  0
  149.6745  135.1891  154.1813 H   0  0  0  0  0  0  0  0  0  0  0  0
  150.6994  133.8731  153.6438 H   0  0  0  0  0  0  0  0  0  0  0  0
  147.9698  133.7176  154.9037 H   0  0  0  0  0  0  0  0  0  0  0  0
  148.6344  132.7073  153.6277 H   0  0  0  0  0  0  0  0  0  0  0  0
  148.4799  131.6922  156.1167 H   0  0  0  0  0  0  0  0  0  0  0  0
  149.9716  131.4583  155.2076 H   0  0  0  0  0  0  0  0  0  0  0  0
  150.8294  132.4777  157.2091 H   0  0  0  0  0  0  0  0  0  0  0  0
  149.4164  133.5069  157.3550 H   0  0  0  0  0  0  0  0  0  0  0  0
  149.4973  139.6176  156.2963 H   0  0  0  0  0  0  0  0  0  0  0  0
  149.8366  140.8768  158.1708 H   0  0  0  0  0  0  0  0  0  0  0  0
  151.4916  140.3271  158.2925 H   0  0  0  0  0  0  0  0  0  0  0  0
  152.1305  141.9061  156.4054 H   0  0  0  0  0  0  0  0  0  0  0  0
  150.4748  142.4535  156.3180 H   0  0  0  0  0  0  0  0  0  0  0  0
  152.7971  141.8468  159.3003 H   0  0  0  0  0  0  0  0  0  0  0  0
  153.1899  143.6364  160.9997 H   0  0  0  0  0  0  0  0  0  0  0  0
  152.1126  145.8755  160.6945 H   0  0  0  0  0  0  0  0  0  0  0  0
  150.6362  146.2424  158.6315 H   0  0  0  0  0  0  0  0  0  0  0  0
  150.3566  144.4998  157.1350 H   0  0  0  0  0  0  0  0  0  0  0  0
  1  2  2  0  0  0  0
  2  3  1  0  0  0  0
  2 13  1  0  0  0  0
  3  4  1  0  0  0  0
  3 22  1  0  0  0  0
  3 23  1  0  0  0  0
  4  5  1  0  0  0  0
  4 24  1  0  0  0  0
  4 25  1  0  0  0  0
  5  6  2  0  0  0  0
  5  7  2  0  0  0  0
  5  8  1  0  0  0  0
  8 12  1  0  0  0  0
  8  9  1  0  0  0  0
  8 26  1  0  0  0  0
  9 10  1  0  0  0  0
  9 27  1  0  0  0  0
  9 28  1  0  0  0  0
 10 11  1  0  0  0  0
 10 29  1  0  0  0  0
 10 30  1  0  0  0  0
 11 12  1  0  0  0  0
 11 31  1  0  0  0  0
 11 32  1  0  0  0  0
 12 33  1  0  0  0  0
 12 34  1  0  0  0  0
 13 14  1  0  0  0  0
 13 35  1  0  0  0  0
 14 15  1  0  0  0  0
 14 36  1  0  0  0  0
 14 37  1  0  0  0  0
 15 16  1  0  0  0  0
 15 38  1  0  0  0  0
 15 39  1  0  0  0  0
 16 21  1  0  0  0  0
 16 17  2  0  0  0  0
 17 18  1  0  0  0  0
 17 40  1  0  0  0  0
 18 19  2  0  0  0  0
 18 41  1  0  0  0  0
 19 20  1  0  0  0  0
 19 42  1  0  0  0  0
 20 21  2  0  0  0  0
 20 43  1  0  0  0  0
 21 44  1  0  0  0  0
M  CHG  1  21   1
M  END
> <s_m_source_file>
AV-unprocessed.smi

> <i_m_source_file_index>
1245

> <i_lp_mmshare_version>
43012

> <i_f3d_flags>
0

> <s_epik_input>
W0NIMl0xW0NIMl1bQ0gyXVtDSDJdW0NIXTFTKD1PKSg9TylbQ0gyXVtDSDJdQyg9TylbTkhdW0NIMl1bQ0gyXWMyW2NIXVtjSF1bY0hdW2NIXW4y

> <s_epik_cmdline>
J2VwaWtfcHl0aG9uJywgJy1waCcsICc3LjAnLCAnLXRuJywgJzgnLCAnLW1hJywgJzIwMCcsICctbWV0YWxfYmluZGluZycsICctaW1hZScsICc8aW5maWxlLm1hZT4nLCAnLW9tYWUnLCAnPG91dGZpbGUubWFlPic=

> <r_epik_Ionization_Penalty>
1.90383

> <r_epik_Ionization_Penalty_Charging>
1.90383

> <r_epik_Ionization_Penalty_Neutral>
6.52612e-08

> <r_epik_State_Penalty>
2.02532

> <r_epik_Charging_Adjusted_Penalty>
3.92915

> <i_epik_Tot_Q>
1

> <i_epik_Tot_abs_Q>
1

> <r_epik_Metal_State_Penalty>
2.0489

> <b_epik_Metal_Only>
0

> <s_lp_Force_Field>
OPLS_2005

> <r_lp_Energy>
22.4311

> <b_lp_Chiralities_Consistent>
1

> <s_lp_Variant>
AV-unprocessed.smi:1245-2

> <Gold.Version>
5.8.1

> <Gold.Id.Protein>
6NUR|6NUR_protein|mol2

> <Gold.PLP.Fitness>
53.7510

> <Gold.PLP.PLP>
-40.0706

> <Gold.PLP.part.hbond>
-3.9888

> <Gold.PLP.part.metal>
0.0000

> <Gold.PLP.part.buried>
-6.5866

> <Gold.PLP.part.nonpolar>
-30.0362

> <Gold.PLP.part.repulsive>
0.0876

> <Gold.PLP.ligand.clash>
0.0000

> <Gold.PLP.ligand.torsion>
0.3785

> <Gold.PLP.Chemscore.Hbond>
4.7112

> <Gold.PLP.Chemscore.CHOScore>
0.0000

> <Gold.PLP.Chemscore.Metal>
0.0000

> <Gold.Chemscore.Hbonds>
donor molecule, donor type, donor heavy atom, donor atom, acceptor molecule, acceptor atom, score
      L1  H    21    44       P1  8028  1.85
      P1  H  6896  6907       L1     7  0.69
      P1  H  7997  8009       L1     1  0.91
      P1  H 10752 10763       L1     6  1.00

> <Gold.PLP.Chemscore.Internal.Correction>
0.3037

> <Gold.Rescore>
     Score         DG    S(hbond)    S(metal)    S(lipo)     H(rot)  DE(clash)    DE(int)     intcor
     21.53     -24.03       3.48        0.00     106.04       2.14       0.02       2.48       ----

> <Gold.Chemscore.Fitness>
21.5303

> <Gold.Chemscore.DG>
-24.0315

> <Gold.Chemscore.ZeroCoef>
-5.4800

> <Gold.Chemscore.Hbond>
3.4807

> <Gold.Chemscore.Metal>
0.0000

> <Gold.Chemscore.Lipo>
106.0386

> <Gold.Chemscore.Internal_Hbond>
0.0000

> <Gold.Chemscore.DEClash>
0.0243

> <Gold.Chemscore.DEInternal>
2.4769

> <Gold.Chemscore.Rot>
2.1408

> <Gold.Chemscore.Internal.Correction>
   9.000000E+99

> <Gold.Chemscore.Hbonds>
donor molecule, donor type, donor heavy atom, donor atom, acceptor molecule, acceptor atom, score
      L1  H    21    44       P1  8028  0.62
      P1  H  6896  6907       L1     7  0.66
      P1  H  7997  8009       L1     1  0.87
      P1  H 10752 10763       L1     6  0.79

> <Gold.Chemscore.Hbond.Weighted>
-11.6254

> <Gold.Chemscore.Metal.Weighted>
-0.0000

> <Gold.Chemscore.Lipo.Weighted>
-12.4065

> <Gold.Chemscore.Internal_Hbond.Weighted>
0.0000

> <Gold.Chemscore.DEClash.Weighted>
0.0243

> <Gold.Chemscore.DEInternal.Weighted>
2.4769

> <Gold.Chemscore.Rot.Weighted>
5.4805

> <Gold.Chemscore.Internal.Correction.Weighted>
   9.000000E+99

> <Gold.Protein.RotatedTorsions>
[ 6907 6896 6895 6894 ] final  -57.80 input  -60.11 | X-H torsion
[ 7974 7965 7964 7962 ] final   20.26 input  175.53 | X-H torsion
[ 8008 7997 7996 7995 ] final -170.92 input   59.86 | X-H torsion
[ 10167 10162 10161 10158 ] final  -89.06 input  -65.29 | X-H torsion
[ 10718 10713 10712 10709 ] final   -7.35 input   66.30 | X-H torsion
[ 10763 10752 10751 10750 ] final  102.42 input  -60.55 | X-H torsion
[ 11005 11000 10999 10996 ] final  141.29 input  -57.11 | X-H torsion

> <Gold.Protein.ActiveResidues>
 VAL166  LYS551  ARG553  GLY616  TRP617  ASP618  TYR619  PRO620  LYS621  CYS622 
 ASP623  PHE694  ASN695  SER759  ASP760  ASP761  ALA762  ILE779  LEU786  VAL792 
 PHE793  MET794  SER795  GLU796  ALA797  LYS798  CYS799  TRP800  GLU811  SER814 

> <Gold.Protein.RotatedAtoms>
  150.8057  134.7181  159.6641 H   0  0  0  0  0  0  0  0  0  0  0  0  # atno 6907 bound_to 6896
  152.4176  134.6009  160.0009 H   0  0  0  0  0  0  0  0  0  0  0  0  # atno 6908 bound_to 6896
  151.6234  133.3300  159.3129 H   0  0  0  0  0  0  0  0  0  0  0  0  # atno 6909 bound_to 6896
  146.2118  139.8195  142.8683 H   0  0  0  0  0  0  0  0  0  0  0  0  # atno 7974 bound_to 7965
  155.9247  140.1080  157.1179 H   0  0  0  0  0  0  0  0  0  0  0  0  # atno 8008 bound_to 7997
  154.4060  140.1249  156.4790 H   0  0  0  0  0  0  0  0  0  0  0  0  # atno 8009 bound_to 7997
  155.7153  140.3470  155.4994 H   0  0  0  0  0  0  0  0  0  0  0  0  # atno 8010 bound_to 7997
  140.3686  143.2806  151.9528 H   0  0  0  0  0  0  0  0  0  0  0  0  # atno 10167 bound_to 10162
  156.7185  130.5143  149.5874 H   0  0  0  0  0  0  0  0  0  0  0  0  # atno 10718 bound_to 10713
  153.3393  135.4011  155.1559 H   0  0  0  0  0  0  0  0  0  0  0  0  # atno 10763 bound_to 10752
  154.8640  135.3629  154.5367 H   0  0  0  0  0  0  0  0  0  0  0  0  # atno 10764 bound_to 10752
  153.5811  135.7076  153.5522 H   0  0  0  0  0  0  0  0  0  0  0  0  # atno 10765 bound_to 10752
  140.0390  134.9314  157.0808 H   0  0  0  0  0  0  0  0  0  0  0  0  # atno 11005 bound_to 11000
  145.3111  141.0220  143.3554 LP  0  0  0  0  0  0  0  0  0  0  0  0  # atno 17320 bound_to 7965
  144.8935  139.4743  143.6666 LP  0  0  0  0  0  0  0  0  0  0  0  0  # atno 17321 bound_to 7965
  139.4806  144.5928  151.7742 LP  0  0  0  0  0  0  0  0  0  0  0  0  # atno 17342 bound_to 10162
  140.5056  144.1103  150.5982 LP  0  0  0  0  0  0  0  0  0  0  0  0  # atno 17343 bound_to 10162
  156.1611  130.6374  151.0720 LP  0  0  0  0  0  0  0  0  0  0  0  0  # atno 17370 bound_to 10713
  157.6907  131.0810  150.7114 LP  0  0  0  0  0  0  0  0  0  0  0  0  # atno 17371 bound_to 10713
  140.4100  134.1992  155.7163 LP  0  0  0  0  0  0  0  0  0  0  0  0  # atno 17394 bound_to 11000
  141.1873  133.8284  157.1037 LP  0  0  0  0  0  0  0  0  0  0  0  0  # atno 17395 bound_to 11000

$$$$
