AV-unprocessed.smi:104|AV-procd|sdf|999|dock2
  -GOLD-   2262017583D 1   1.00000     0.00000
 Structure written by MMmdl.
 47 49  0  0  0  0  0  0  0  0  1 V2000
  152.2280  142.8775  159.8967 C   0  0  0  0  0  0  0  0  0  0  0  0
  151.2182  142.5681  158.7993 C   0  0  0  0  0  0  0  0  0  0  0  0
  150.0309  142.3660  159.0554 O   0  0  0  0  0  0  0  0  0  0  0  0
  151.7774  142.5486  157.5805 O   0  0  0  0  0  0  0  0  0  0  0  0
  150.9744  142.2649  156.4470 C   0  0  0  0  0  0  0  0  0  0  0  0
  151.0226  140.7615  156.1536 C   0  0  2  0  0  0  0  0  0  0  0  0
  150.2929  140.4790  154.9697 O   0  0  0  0  0  0  0  0  0  0  0  0
  149.8634  139.1550  154.9904 C   0  0  2  0  0  0  0  0  0  0  0  0
  148.4837  139.1197  154.4060 N   0  0  0  0  0  0  0  0  0  0  0  0
  147.7173  140.1557  153.9228 C   0  0  0  0  0  0  0  0  0  0  0  0
  148.3368  141.9561  153.8968 Br  0  0  0  0  0  0  0  0  0  0  0  0
  146.5353  139.8569  153.4608 N   0  0  0  0  0  0  0  0  0  0  0  0
  146.4785  138.4793  153.6328 C   0  0  0  0  0  0  0  0  0  0  0  0
  145.5021  137.4908  153.3516 C   0  0  0  0  0  0  0  0  0  0  0  0
  144.3112  137.7735  152.8052 N   0  0  0  0  0  0  0  0  0  0  0  0
  145.7845  136.2003  153.6471 N   0  0  0  0  0  0  0  0  0  0  0  0
  146.9658  135.8913  154.1920 C   0  0  0  0  0  0  0  0  0  0  0  0
  147.9757  136.7037  154.5142 N   0  0  0  0  0  0  0  0  0  0  0  0
  147.6890  138.0059  154.2185 C   0  0  0  0  0  0  0  0  0  0  0  0
  149.9064  138.6644  156.4536 C   0  0  2  0  0  0  0  0  0  0  0  0
  148.6442  138.1820  156.9061 O   0  0  0  0  0  0  0  0  0  0  0  0
  148.5766  137.2737  157.8921 C   0  0  0  0  0  0  0  0  0  0  0  0
  147.1412  136.9592  158.2905 C   0  0  0  0  0  0  0  0  0  0  0  0
  149.5325  136.7309  158.4459 O   0  0  0  0  0  0  0  0  0  0  0  0
  150.3239  139.9141  157.2167 C   0  0  1  0  0  0  0  0  0  0  0  0
  151.2248  139.5501  158.2553 O   0  0  0  0  0  0  0  0  0  0  0  0
  152.3808  138.9283  157.9694 C   0  0  0  0  0  0  0  0  0  0  0  0
  153.0725  138.3942  159.2162 C   0  0  0  0  0  0  0  0  0  0  0  0
  152.8689  138.7781  156.8495 O   0  0  0  0  0  0  0  0  0  0  0  0
  152.5278  143.9245  159.8498 H   0  0  0  0  0  0  0  0  0  0  0  0
  153.1165  142.2564  159.7821 H   0  0  0  0  0  0  0  0  0  0  0  0
  151.7975  142.6840  160.8793 H   0  0  0  0  0  0  0  0  0  0  0  0
  149.9491  142.5691  156.6612 H   0  0  0  0  0  0  0  0  0  0  0  0
  151.3114  142.8342  155.5795 H   0  0  0  0  0  0  0  0  0  0  0  0
  152.0508  140.4184  156.0230 H   0  0  0  0  0  0  0  0  0  0  0  0
  150.4790  138.5518  154.3241 H   0  0  0  0  0  0  0  0  0  0  0  0
  144.0768  138.7284  152.5747 H   0  0  0  0  0  0  0  0  0  0  0  0
  143.6482  137.0325  152.6298 H   0  0  0  0  0  0  0  0  0  0  0  0
  147.1249  134.8435  154.4005 H   0  0  0  0  0  0  0  0  0  0  0  0
  150.6764  137.8932  156.5102 H   0  0  0  0  0  0  0  0  0  0  0  0
  146.6232  136.4576  157.4729 H   0  0  0  0  0  0  0  0  0  0  0  0
  146.6047  137.8776  158.5297 H   0  0  0  0  0  0  0  0  0  0  0  0
  147.1200  136.3093  159.1655 H   0  0  0  0  0  0  0  0  0  0  0  0
  149.4331  140.4296  157.5808 H   0  0  0  0  0  0  0  0  0  0  0  0
  152.4746  137.6045  159.6710 H   0  0  0  0  0  0  0  0  0  0  0  0
  153.2074  139.1924  159.9462 H   0  0  0  0  0  0  0  0  0  0  0  0
  154.0520  137.9862  158.9658 H   0  0  0  0  0  0  0  0  0  0  0  0
  1  2  1  0  0  0  0
  1 30  1  0  0  0  0
  1 31  1  0  0  0  0
  1 32  1  0  0  0  0
  2  3  2  0  0  0  0
  2  4  1  0  0  0  0
  4  5  1  0  0  0  0
  5  6  1  0  0  0  0
  5 33  1  0  0  0  0
  5 34  1  0  0  0  0
  6 25  1  0  0  0  0
  6  7  1  0  0  0  0
  6 35  1  0  0  0  0
  7  8  1  0  0  0  0
  8  9  1  0  0  0  0
  8 20  1  0  0  0  0
  8 36  1  0  0  0  0
  9 19  1  0  0  0  0
  9 10  1  0  0  0  0
 10 11  1  0  0  0  0
 10 12  2  0  0  0  0
 12 13  1  0  0  0  0
 13 19  2  0  0  0  0
 13 14  1  0  0  0  0
 14 15  1  0  0  0  0
 14 16  2  0  0  0  0
 15 37  1  0  0  0  0
 15 38  1  0  0  0  0
 16 17  1  0  0  0  0
 17 18  2  0  0  0  0
 17 39  1  0  0  0  0
 18 19  1  0  0  0  0
 20 21  1  0  0  0  0
 20 25  1  0  0  0  0
 20 40  1  0  0  0  0
 21 22  1  0  0  0  0
 22 23  1  0  0  0  0
 22 24  2  0  0  0  0
 23 41  1  0  0  0  0
 23 42  1  0  0  0  0
 23 43  1  0  0  0  0
 25 26  1  0  0  0  0
 25 44  1  0  0  0  0
 26 27  1  0  0  0  0
 27 28  1  0  0  0  0
 27 29  2  0  0  0  0
 28 45  1  0  0  0  0
 28 46  1  0  0  0  0
 28 47  1  0  0  0  0
M  END
> <s_m_source_file>
AV-unprocessed.smi

> <i_m_source_file_index>
104

> <i_lp_mmshare_version>
43012

> <i_f3d_flags>
0

> <s_epik_input>
W0NIM11DKD1PKU9bQ0gyXVtDQEBIXTFPW0NASF0oW0NAQEhdKE9DKD1PKVtDSDNdKVtDQEhdMU9DKD1PKVtDSDNdKW4oYyhCciluMiljKGMyMyluW2NIXW5jM1tOSDJd

> <s_epik_cmdline>
J2VwaWtfcHl0aG9uJywgJy1waCcsICc3LjAnLCAnLXRuJywgJzgnLCAnLW1hJywgJzIwMCcsICctbWV0YWxfYmluZGluZycsICctaW1hZScsICc8aW5maWxlLm1hZT4nLCAnLW9tYWUnLCAnPG91dGZpbGUubWFlPic=

> <r_lp_tautomer_probability>
1

> <r_epik_Ionization_Penalty>
7.36622e-05

> <r_epik_Ionization_Penalty_Charging>
0

> <r_epik_Ionization_Penalty_Neutral>
7.36622e-05

> <r_epik_State_Penalty>
-0

> <r_epik_Charging_Adjusted_Penalty>
0

> <i_epik_Tot_Q>
0

> <i_epik_Tot_abs_Q>
0

> <r_epik_Metal_State_Penalty>
-0

> <b_epik_Metal_Only>
0

> <s_epik_Chemistry_Notes>
This compound has an ester and may undergo hydrolysis at high or low pH. This compound contains an acetal/aminal-like group ( X-CH(R)-Y where X, Y are N, S, or O) that may be acid/base labile, releasing an aldehyde.

> <s_lp_Force_Field>
OPLS_2005

> <r_lp_Energy>
16.6292

> <b_lp_Chiralities_Consistent>
1

> <s_lp_Variant>
AV-unprocessed.smi:104-7

> <Gold.Version>
5.8.1

> <Gold.Id.Protein>
6NUR|6NUR_protein|mol2

> <Gold.PLP.Fitness>
35.1103

> <Gold.PLP.PLP>
-27.6150

> <Gold.PLP.part.hbond>
-4.0603

> <Gold.PLP.part.metal>
0.0000

> <Gold.PLP.part.buried>
-1.4176

> <Gold.PLP.part.nonpolar>
-21.9464

> <Gold.PLP.part.repulsive>
1.1826

> <Gold.PLP.ligand.clash>
0.0000

> <Gold.PLP.ligand.torsion>
0.7170

> <Gold.PLP.Chemscore.Hbond>
2.9051

> <Gold.PLP.Chemscore.CHOScore>
0.0000

> <Gold.PLP.Chemscore.Metal>
0.0000

> <Gold.Chemscore.Hbonds>
donor molecule, donor type, donor heavy atom, donor atom, acceptor molecule, acceptor atom, score
      L1  H    15    37       P1 10175  1.00
      P1  H  7989  7998       L1     7  0.99
      P1  H  7997  8009       L1    29  1.00

> <Gold.PLP.Chemscore.Internal.Correction>
0.2140

> <Gold.Rescore>
     Score         DG    S(hbond)    S(metal)    S(lipo)     H(rot)  DE(clash)    DE(int)     intcor
      3.23      -9.89       2.91        0.00      48.84       4.31       0.09       6.57       ----

> <Gold.Chemscore.Fitness>
3.2307

> <Gold.Chemscore.DG>
-9.8908

> <Gold.Chemscore.ZeroCoef>
-5.4800

> <Gold.Chemscore.Hbond>
2.9109

> <Gold.Chemscore.Metal>
0.0000

> <Gold.Chemscore.Lipo>
48.8388

> <Gold.Chemscore.Internal_Hbond>
0.0000

> <Gold.Chemscore.DEClash>
0.0901

> <Gold.Chemscore.DEInternal>
6.5701

> <Gold.Chemscore.Rot>
4.3070

> <Gold.Chemscore.Internal.Correction>
   9.000000E+99

> <Gold.Chemscore.Hbonds>
donor molecule, donor type, donor heavy atom, donor atom, acceptor molecule, acceptor atom, score
      L1  H    15    37       P1 10175  1.00
      P1  H  7989  7998       L1     7  0.31
      P1  H  7997  8009       L1    29  0.63

> <Gold.Chemscore.Hbond.Weighted>
-9.7225

> <Gold.Chemscore.Metal.Weighted>
-0.0000

> <Gold.Chemscore.Lipo.Weighted>
-5.7141

> <Gold.Chemscore.Internal_Hbond.Weighted>
0.0000

> <Gold.Chemscore.DEClash.Weighted>
0.0901

> <Gold.Chemscore.DEInternal.Weighted>
6.5701

> <Gold.Chemscore.Rot.Weighted>
11.0259

> <Gold.Chemscore.Internal.Correction.Weighted>
   9.000000E+99

> <Gold.Protein.RotatedTorsions>
[ 6907 6896 6895 6894 ] final -171.52 input  -60.11 | X-H torsion
[ 7974 7965 7964 7962 ] final  -75.63 input  175.53 | X-H torsion
[ 8008 7997 7996 7995 ] final  177.78 input   59.86 | X-H torsion
[ 10167 10162 10161 10158 ] final  -58.18 input  -65.29 | X-H torsion
[ 10718 10713 10712 10709 ] final  103.13 input   66.30 | X-H torsion
[ 10763 10752 10751 10750 ] final   74.24 input  -60.55 | X-H torsion
[ 11005 11000 10999 10996 ] final  113.08 input  -57.11 | X-H torsion

> <Gold.Protein.ActiveResidues>
 VAL166  LYS551  ARG553  GLY616  TRP617  ASP618  TYR619  PRO620  LYS621  CYS622 
 ASP623  PHE694  ASN695  SER759  ASP760  ASP761  ALA762  ILE779  LEU786  VAL792 
 PHE793  MET794  SER795  GLU796  ALA797  LYS798  CYS799  TRP800  GLU811  SER814 

> <Gold.Protein.RotatedAtoms>
  151.5251  133.3459  159.2908 H   0  0  0  0  0  0  0  0  0  0  0  0  # atno 6907 bound_to 6896
  150.8628  134.7986  159.7107 H   0  0  0  0  0  0  0  0  0  0  0  0  # atno 6908 bound_to 6896
  152.4642  134.5123  159.9809 H   0  0  0  0  0  0  0  0  0  0  0  0  # atno 6909 bound_to 6896
  145.6235  140.9357  143.1125 H   0  0  0  0  0  0  0  0  0  0  0  0  # atno 7974 bound_to 7965
  156.0619  140.1350  156.9931 H   0  0  0  0  0  0  0  0  0  0  0  0  # atno 8008 bound_to 7997
  154.4486  140.0990  156.6600 H   0  0  0  0  0  0  0  0  0  0  0  0  # atno 8009 bound_to 7997
  155.5365  140.3460  155.4439 H   0  0  0  0  0  0  0  0  0  0  0  0  # atno 8010 bound_to 7997
  140.6213  143.2421  151.5473 H   0  0  0  0  0  0  0  0  0  0  0  0  # atno 10167 bound_to 10162
  157.6782  131.0771  150.5508 H   0  0  0  0  0  0  0  0  0  0  0  0  # atno 10718 bound_to 10713
  153.0574  135.5033  154.8013 H   0  0  0  0  0  0  0  0  0  0  0  0  # atno 10763 bound_to 10752
  154.6828  135.2971  154.9591 H   0  0  0  0  0  0  0  0  0  0  0  0  # atno 10764 bound_to 10752
  154.0371  135.6722  153.4839 H   0  0  0  0  0  0  0  0  0  0  0  0  # atno 10765 bound_to 10752
  139.8943  134.9543  156.6683 H   0  0  0  0  0  0  0  0  0  0  0  0  # atno 11005 bound_to 11000
  144.7222  139.7994  143.7378 LP  0  0  0  0  0  0  0  0  0  0  0  0  # atno 17320 bound_to 7965
  146.1413  139.4470  143.0107 LP  0  0  0  0  0  0  0  0  0  0  0  0  # atno 17321 bound_to 7965
  139.5441  144.2568  152.1408 LP  0  0  0  0  0  0  0  0  0  0  0  0  # atno 17342 bound_to 10162
  140.1789  144.4864  150.6539 LP  0  0  0  0  0  0  0  0  0  0  0  0  # atno 17343 bound_to 10162
  156.5813  130.4305  149.5976 LP  0  0  0  0  0  0  0  0  0  0  0  0  # atno 17370 bound_to 10713
  156.2659  130.6989  151.1772 LP  0  0  0  0  0  0  0  0  0  0  0  0  # atno 17371 bound_to 10713
  140.7393  133.8992  155.8266 LP  0  0  0  0  0  0  0  0  0  0  0  0  # atno 17394 bound_to 11000
  141.0091  134.1046  157.4240 LP  0  0  0  0  0  0  0  0  0  0  0  0  # atno 17395 bound_to 11000

$$$$
