AV-unprocessed.smi:255|AV-procd|sdf|1954|dock4
  -GOLD-   2262021 93D 1   1.00000     0.00000
 Structure written by MMmdl.
 44 47  0  0  0  0  0  0  0  0  1 V2000
  150.3391  143.5522  159.6313 O   0  0  0  0  0  0  0  0  0  0  0  0
  151.4468  143.7971  158.7912 C   0  0  0  0  0  0  0  0  0  0  0  0
  152.4923  142.6752  158.9515 C   0  0  1  0  0  0  0  0  0  0  0  0
  153.1019  142.6128  160.3556 C   0  0  0  0  0  0  0  0  0  0  0  0
  153.6262  141.1821  160.4327 C   0  0  2  0  0  0  0  0  0  0  0  0
  154.8234  141.1143  159.8487 F   0  0  0  0  0  0  0  0  0  0  0  0
  152.6160  140.3796  159.6064 C   0  0  0  0  0  0  0  0  0  0  0  0
  151.9334  141.3393  158.7430 N   0  0  0  0  0  0  0  0  0  0  0  0
  151.5817  140.9004  157.5053 C   0  0  0  0  0  0  0  0  0  0  0  0
  152.4694  140.1901  156.7590 N   0  0  0  0  0  0  0  0  0  0  0  0
  152.1343  139.7500  155.5431 C   0  0  0  0  0  0  0  0  0  0  0  0
  150.9823  139.9045  154.8887 N   0  0  0  0  0  0  0  0  0  0  0  0
  150.0846  140.6146  155.6295 C   0  0  0  0  0  0  0  0  0  0  0  0
  150.3008  141.1475  156.9323 C   0  0  0  0  0  0  0  0  0  0  0  0
  149.1641  141.8261  157.3571 N   0  0  0  0  0  0  0  0  0  0  0  0
  148.3239  141.6955  156.3672 C   0  0  0  0  0  0  0  0  0  0  0  0
  148.7907  140.9732  155.2924 N   0  0  0  0  0  0  0  0  0  0  0  0
  148.0729  140.6745  154.0620 C   0  0  0  0  0  0  0  0  0  0  0  0
  148.0506  139.1687  153.7025 C   0  0  2  0  0  0  0  0  0  0  0  0
  149.3436  138.7774  153.2788 O   0  0  0  0  0  0  0  0  0  0  0  0
  147.0449  138.8488  152.5940 C   0  0  0  0  0  0  0  0  0  0  0  0
  145.9435  138.0821  153.3160 C   0  0  0  0  0  0  0  0  0  0  0  0
  146.6610  137.3621  154.3018 O   0  0  0  0  0  0  0  0  0  0  0  0
  147.6055  138.2600  154.8659 C   0  0  0  0  0  0  0  0  0  0  0  0
  153.2997  142.8236  158.2323 H   0  0  0  0  0  0  0  0  0  0  0  0
  153.7368  140.8143  161.4530 H   0  0  0  0  0  0  0  0  0  0  0  0
  149.6191  144.0919  159.3427 H   0  0  0  0  0  0  0  0  0  0  0  0
  151.1070  143.8674  157.7575 H   0  0  0  0  0  0  0  0  0  0  0  0
  151.8615  144.7691  159.0565 H   0  0  0  0  0  0  0  0  0  0  0  0
  153.8765  143.3626  160.5188 H   0  0  0  0  0  0  0  0  0  0  0  0
  152.3283  142.7582  161.1111 H   0  0  0  0  0  0  0  0  0  0  0  0
  153.1055  139.5819  159.0452 H   0  0  0  0  0  0  0  0  0  0  0  0
  151.8746  139.9218  160.2621 H   0  0  0  0  0  0  0  0  0  0  0  0
  152.8983  139.1939  155.0199 H   0  0  0  0  0  0  0  0  0  0  0  0
  147.3339  142.1267  156.3963 H   0  0  0  0  0  0  0  0  0  0  0  0
  147.0538  141.0500  154.1644 H   0  0  0  0  0  0  0  0  0  0  0  0
  148.5279  141.2483  153.2535 H   0  0  0  0  0  0  0  0  0  0  0  0
  149.2643  137.9888  152.7640 H   0  0  0  0  0  0  0  0  0  0  0  0
  146.6643  139.7338  152.0829 H   0  0  0  0  0  0  0  0  0  0  0  0
  147.4888  138.2011  151.8359 H   0  0  0  0  0  0  0  0  0  0  0  0
  145.2393  138.7637  153.7958 H   0  0  0  0  0  0  0  0  0  0  0  0
  145.3874  137.4179  152.6540 H   0  0  0  0  0  0  0  0  0  0  0  0
  148.4276  137.7272  155.3456 H   0  0  0  0  0  0  0  0  0  0  0  0
  147.0898  138.8328  155.6372 H   0  0  0  0  0  0  0  0  0  0  0  0
  1  2  1  0  0  0  0
  1 27  1  0  0  0  0
  2  3  1  0  0  0  0
  2 28  1  0  0  0  0
  2 29  1  0  0  0  0
  3 25  1  0  0  0  0
  3  8  1  0  0  0  0
  3  4  1  0  0  0  0
  4  5  1  0  0  0  0
  4 30  1  0  0  0  0
  4 31  1  0  0  0  0
  5 26  1  0  0  0  0
  5  6  1  0  0  0  0
  5  7  1  0  0  0  0
  7  8  1  0  0  0  0
  7 32  1  0  0  0  0
  7 33  1  0  0  0  0
  8  9  1  0  0  0  0
  9 14  1  0  0  0  0
  9 10  2  0  0  0  0
 10 11  1  0  0  0  0
 11 12  2  0  0  0  0
 11 34  1  0  0  0  0
 12 13  1  0  0  0  0
 13 17  1  0  0  0  0
 13 14  2  0  0  0  0
 14 15  1  0  0  0  0
 15 16  2  0  0  0  0
 16 17  1  0  0  0  0
 16 35  1  0  0  0  0
 17 18  1  0  0  0  0
 18 19  1  0  0  0  0
 18 36  1  0  0  0  0
 18 37  1  0  0  0  0
 19 24  1  0  0  0  0
 19 20  1  0  0  0  0
 19 21  1  0  0  0  0
 20 38  1  0  0  0  0
 21 22  1  0  0  0  0
 21 39  1  0  0  0  0
 21 40  1  0  0  0  0
 22 23  1  0  0  0  0
 22 41  1  0  0  0  0
 22 42  1  0  0  0  0
 23 24  1  0  0  0  0
 24 43  1  0  0  0  0
 24 44  1  0  0  0  0
M  END
> <s_m_source_file>
AV-unprocessed.smi

> <i_m_source_file_index>
255

> <i_lp_mmshare_version>
43012

> <i_f3d_flags>
0

> <s_epik_input>
W09IXVtDSDJdW0NAQEhdMVtDSDJdW0NASF0oRilbQ0gyXU4xYyhuW2NIXW4yKWMoYzIzKW5bY0hdbjNbQ0gyXVtDQEBdNChbT0hdKVtDSDJdW0NIMl1PW0NIMl00

> <s_epik_cmdline>
J2VwaWtfcHl0aG9uJywgJy1waCcsICc3LjAnLCAnLXRuJywgJzgnLCAnLW1hJywgJzIwMCcsICctbWV0YWxfYmluZGluZycsICctaW1hZScsICc8aW5maWxlLm1hZT4nLCAnLW9tYWUnLCAnPG91dGZpbGUubWFlPic=

> <r_lp_tautomer_probability>
1

> <r_epik_Ionization_Penalty>
0.0058098

> <r_epik_Ionization_Penalty_Charging>
0

> <r_epik_Ionization_Penalty_Neutral>
0.0058098

> <r_epik_State_Penalty>
0.00411166

> <r_epik_Charging_Adjusted_Penalty>
0.00411166

> <i_epik_Tot_Q>
0

> <i_epik_Tot_abs_Q>
0

> <r_epik_Metal_State_Penalty>
-0

> <b_epik_Metal_Only>
0

> <s_lp_Force_Field>
OPLS_2005

> <r_lp_Energy>
48.4918

> <b_lp_Chiralities_Consistent>
1

> <s_lp_Variant>
AV-unprocessed.smi:255-6

> <Gold.Version>
5.8.1

> <Gold.Id.Protein>
6NUR|6NUR_protein|mol2

> <Gold.PLP.Fitness>
50.9391

> <Gold.PLP.PLP>
-43.3059

> <Gold.PLP.part.hbond>
-4.5207

> <Gold.PLP.part.metal>
0.0000

> <Gold.PLP.part.buried>
-2.4220

> <Gold.PLP.part.nonpolar>
-36.1629

> <Gold.PLP.part.repulsive>
0.2680

> <Gold.PLP.ligand.clash>
0.0000

> <Gold.PLP.ligand.torsion>
0.7078

> <Gold.PLP.Chemscore.Hbond>
2.9000

> <Gold.PLP.Chemscore.CHOScore>
0.0000

> <Gold.PLP.Chemscore.Metal>
0.0000

> <Gold.Chemscore.Hbonds>
donor molecule, donor type, donor heavy atom, donor atom, acceptor molecule, acceptor atom, score
      L1  H    20    38       P1  7948  1.00
      P1  H  7989  7998       L1    12  0.85
      P1  H  7997  8009       L1    10  1.00

> <Gold.PLP.Chemscore.Internal.Correction>
0.3486

> <Gold.Rescore>
     Score         DG    S(hbond)    S(metal)    S(lipo)     H(rot)  DE(clash)    DE(int)     intcor
     11.57     -12.45       1.78        0.00      81.57       3.33       0.11       0.77       ----

> <Gold.Chemscore.Fitness>
11.5732

> <Gold.Chemscore.DG>
-12.4515

> <Gold.Chemscore.ZeroCoef>
-5.4800

> <Gold.Chemscore.Hbond>
1.7802

> <Gold.Chemscore.Metal>
0.0000

> <Gold.Chemscore.Lipo>
81.5688

> <Gold.Chemscore.Internal_Hbond>
0.0000

> <Gold.Chemscore.DEClash>
0.1068

> <Gold.Chemscore.DEInternal>
0.7715

> <Gold.Chemscore.Rot>
3.3273

> <Gold.Chemscore.Internal.Correction>
   9.000000E+99

> <Gold.Chemscore.Hbonds>
donor molecule, donor type, donor heavy atom, donor atom, acceptor molecule, acceptor atom, score
      L1  H    20    38       P1  7948  0.93
      P1  H  7989  7998       L1    12  0.12
      P1  H  7997  8009       L1    10  0.25

> <Gold.Chemscore.Hbond.Weighted>
-5.9459

> <Gold.Chemscore.Metal.Weighted>
-0.0000

> <Gold.Chemscore.Lipo.Weighted>
-9.5435

> <Gold.Chemscore.Internal_Hbond.Weighted>
0.0000

> <Gold.Chemscore.DEClash.Weighted>
0.1068

> <Gold.Chemscore.DEInternal.Weighted>
0.7715

> <Gold.Chemscore.Rot.Weighted>
8.5179

> <Gold.Chemscore.Internal.Correction.Weighted>
   9.000000E+99

> <Gold.Protein.RotatedTorsions>
[ 6907 6896 6895 6894 ] final -155.23 input  -60.11 | X-H torsion
[ 7974 7965 7964 7962 ] final -170.30 input  175.53 | X-H torsion
[ 8008 7997 7996 7995 ] final -178.85 input   59.86 | X-H torsion
[ 10167 10162 10161 10158 ] final  156.74 input  -65.29 | X-H torsion
[ 10718 10713 10712 10709 ] final  -48.33 input   66.30 | X-H torsion
[ 10763 10752 10751 10750 ] final   90.30 input  -60.55 | X-H torsion
[ 11005 11000 10999 10996 ] final -134.94 input  -57.11 | X-H torsion

> <Gold.Protein.ActiveResidues>
 VAL166  LYS551  ARG553  GLY616  TRP617  ASP618  TYR619  PRO620  LYS621  CYS622 
 ASP623  PHE694  ASN695  SER759  ASP760  ASP761  ALA762  ILE779  LEU786  VAL792 
 PHE793  MET794  SER795  GLU796  ALA797  LYS798  CYS799  TRP800  GLU811  SER814 

> <Gold.Protein.RotatedAtoms>
  151.2693  133.4263  159.2620 H   0  0  0  0  0  0  0  0  0  0  0  0  # atno 6907 bound_to 6896
  151.0459  134.9640  159.8196 H   0  0  0  0  0  0  0  0  0  0  0  0  # atno 6908 bound_to 6896
  152.5374  134.2649  159.9002 H   0  0  0  0  0  0  0  0  0  0  0  0  # atno 6909 bound_to 6896
  144.7172  140.2093  143.6329 H   0  0  0  0  0  0  0  0  0  0  0  0  # atno 7974 bound_to 7965
  156.0236  140.1266  157.0332 H   0  0  0  0  0  0  0  0  0  0  0  0  # atno 8008 bound_to 7997
  154.4321  140.1063  156.6069 H   0  0  0  0  0  0  0  0  0  0  0  0  # atno 8009 bound_to 7997
  155.5909  140.3469  155.4568 H   0  0  0  0  0  0  0  0  0  0  0  0  # atno 8010 bound_to 7997
  139.4821  144.4981  151.8210 H   0  0  0  0  0  0  0  0  0  0  0  0  # atno 10167 bound_to 10162
  156.1998  130.4156  149.9256 H   0  0  0  0  0  0  0  0  0  0  0  0  # atno 10718 bound_to 10713
  153.1961  135.4439  155.0210 H   0  0  0  0  0  0  0  0  0  0  0  0  # atno 10763 bound_to 10752
  154.8120  135.3298  154.7283 H   0  0  0  0  0  0  0  0  0  0  0  0  # atno 10764 bound_to 10752
  153.7732  135.6983  153.4958 H   0  0  0  0  0  0  0  0  0  0  0  0  # atno 10765 bound_to 10752
  140.8944  134.1771  157.4505 H   0  0  0  0  0  0  0  0  0  0  0  0  # atno 11005 bound_to 11000
  145.8606  139.2221  143.1719 LP  0  0  0  0  0  0  0  0  0  0  0  0  # atno 17320 bound_to 7965
  146.0177  140.8377  142.9939 LP  0  0  0  0  0  0  0  0  0  0  0  0  # atno 17321 bound_to 7965
  140.4471  144.1906  150.5895 LP  0  0  0  0  0  0  0  0  0  0  0  0  # atno 17342 bound_to 10162
  140.4623  143.2444  151.9203 LP  0  0  0  0  0  0  0  0  0  0  0  0  # atno 17343 bound_to 10162
  156.6969  130.8918  151.3595 LP  0  0  0  0  0  0  0  0  0  0  0  0  # atno 17370 bound_to 10713
  157.6979  130.9301  150.0698 LP  0  0  0  0  0  0  0  0  0  0  0  0  # atno 17371 bound_to 10713
  139.8733  134.9872  156.5357 LP  0  0  0  0  0  0  0  0  0  0  0  0  # atno 17394 bound_to 11000
  140.8308  133.8281  155.8982 LP  0  0  0  0  0  0  0  0  0  0  0  0  # atno 17395 bound_to 11000

$$$$
