AV-unprocessed.smi:883|AV-procd|sdf|4039|dock1
  -GOLD-   22720 1533D 1   1.00000     0.00000
 Structure written by MMmdl.
 29 31  0  0  0  0  0  0  0  0  1 V2000
  150.8312  136.3469  154.4120 N   0  0  0  0  0  0  0  0  0  0  0  0
  150.8711  137.4329  154.8094 C   0  0  0  0  0  0  0  0  0  0  0  0
  150.9216  138.7961  155.3088 C   0  0  0  0  0  0  0  0  0  0  0  0
  151.6407  139.1108  156.4785 C   0  0  0  0  0  0  0  0  0  0  0  0
  151.6643  140.4483  156.9205 C   0  0  0  0  0  0  0  0  0  0  0  0
  150.9670  141.4240  156.1771 C   0  0  0  0  0  0  0  0  0  0  0  0
  150.9967  142.7530  156.6231 N   0  0  0  0  0  0  0  0  0  0  0  0
  151.9066  143.1783  157.6825 C   0  0  1  0  0  0  0  0  0  0  0  0
  152.2973  144.6547  157.5806 C   0  0  0  0  0  0  0  0  0  0  0  0
  151.9502  145.1704  158.9846 C   0  0  1  0  0  0  0  0  0  0  0  0
  150.4354  145.3258  159.1687 C   0  0  0  0  0  0  0  0  0  0  0  0
  149.9833  143.8698  159.2602 C   0  0  0  0  0  0  0  0  0  0  0  0
  151.3134  143.1124  159.1046 C   0  0  2  0  0  0  0  0  0  0  0  0
  152.1870  144.0116  159.7665 O   0  0  0  0  0  0  0  0  0  0  0  0
  150.2708  141.1212  155.0554 N   0  0  0  0  0  0  0  0  0  0  0  0
  150.2527  139.8379  154.6349 C   0  0  0  0  0  0  0  0  0  0  0  0
  152.1682  138.3460  157.0305 H   0  0  0  0  0  0  0  0  0  0  0  0
  152.2104  140.7161  157.8132 H   0  0  0  0  0  0  0  0  0  0  0  0
  150.2623  143.3849  156.3392 H   0  0  0  0  0  0  0  0  0  0  0  0
  152.8158  142.5766  157.6397 H   0  0  0  0  0  0  0  0  0  0  0  0
  153.3657  144.7491  157.3835 H   0  0  0  0  0  0  0  0  0  0  0  0
  151.7612  145.2004  156.8027 H   0  0  0  0  0  0  0  0  0  0  0  0
  152.5245  146.0456  159.2892 H   0  0  0  0  0  0  0  0  0  0  0  0
  150.2081  145.8550  160.0948 H   0  0  0  0  0  0  0  0  0  0  0  0
  149.9688  145.8646  158.3435 H   0  0  0  0  0  0  0  0  0  0  0  0
  149.5434  143.6720  160.2383 H   0  0  0  0  0  0  0  0  0  0  0  0
  149.2468  143.6029  158.5022 H   0  0  0  0  0  0  0  0  0  0  0  0
  151.3013  142.1106  159.5346 H   0  0  0  0  0  0  0  0  0  0  0  0
  149.6881  139.6432  153.7343 H   0  0  0  0  0  0  0  0  0  0  0  0
  1  2  3  0  0  0  0
  2  3  1  0  0  0  0
  3 16  1  0  0  0  0
  3  4  2  0  0  0  0
  4  5  1  0  0  0  0
  4 17  1  0  0  0  0
  5  6  2  0  0  0  0
  5 18  1  0  0  0  0
  6  7  1  0  0  0  0
  6 15  1  0  0  0  0
  7  8  1  0  0  0  0
  7 19  1  0  0  0  0
  8 13  1  0  0  0  0
  8  9  1  0  0  0  0
  8 20  1  0  0  0  0
  9 10  1  0  0  0  0
  9 21  1  0  0  0  0
  9 22  1  0  0  0  0
 10 14  1  0  0  0  0
 10 11  1  0  0  0  0
 10 23  1  0  0  0  0
 11 12  1  0  0  0  0
 11 24  1  0  0  0  0
 11 25  1  0  0  0  0
 12 13  1  0  0  0  0
 12 26  1  0  0  0  0
 12 27  1  0  0  0  0
 13 14  1  0  0  0  0
 13 28  1  0  0  0  0
 15 16  2  0  0  0  0
 16 29  1  0  0  0  0
M  END
> <s_m_source_file>
AV-unprocessed.smi

> <i_m_source_file_index>
883

> <i_lp_mmshare_version>
43012

> <i_f3d_flags>
0

> <s_epik_input>
TiNDYzFbY0hdW2NIXWMobltjSF0xKVtOSF1bQ0BIXShbQ0gyXVtDQEBIXTIzKVtDQEBIXShPMylbQ0gyXVtDSDJdMg==

> <s_epik_cmdline>
J2VwaWtfcHl0aG9uJywgJy1waCcsICc3LjAnLCAnLXRuJywgJzgnLCAnLW1hJywgJzIwMCcsICctbWV0YWxfYmluZGluZycsICctaW1hZScsICc8aW5maWxlLm1hZT4nLCAnLW9tYWUnLCAnPG91dGZpbGUubWFlPic=

> <r_lp_tautomer_probability>
1

> <r_epik_Ionization_Penalty>
1.50983e-05

> <r_epik_Ionization_Penalty_Charging>
0

> <r_epik_Ionization_Penalty_Neutral>
1.50983e-05

> <r_epik_State_Penalty>
-0

> <r_epik_Charging_Adjusted_Penalty>
0

> <i_epik_Tot_Q>
0

> <i_epik_Tot_abs_Q>
0

> <r_epik_Metal_State_Penalty>
-0

> <b_epik_Metal_Only>
0

> <s_lp_Force_Field>
OPLS_2005

> <r_lp_Energy>
39.3985

> <b_lp_Chiralities_Consistent>
1

> <s_lp_Variant>
AV-unprocessed.smi:883-2

> <Gold.Version>
5.8.1

> <Gold.Id.Protein>
6NUR|6NUR_protein|mol2

> <Gold.PLP.Fitness>
39.1329

> <Gold.PLP.PLP>
-31.7015

> <Gold.PLP.part.hbond>
-2.9949

> <Gold.PLP.part.metal>
0.0000

> <Gold.PLP.part.buried>
-3.0208

> <Gold.PLP.part.nonpolar>
-26.0156

> <Gold.PLP.part.repulsive>
1.6145

> <Gold.PLP.ligand.clash>
0.0000

> <Gold.PLP.ligand.torsion>
0.3965

> <Gold.PLP.Chemscore.Hbond>
2.0000

> <Gold.PLP.Chemscore.CHOScore>
0.7383

> <Gold.PLP.Chemscore.Metal>
0.0000

> <Gold.Chemscore.Hbonds>
donor molecule, donor type, donor heavy atom, donor atom, acceptor molecule, acceptor atom, score
      L1  H     7    19       P1  8028  1.00
      P1  H 10752 10764       L1     1  0.52
      L1  C    16    29       P1  7957  0.82

> <Gold.PLP.Chemscore.Internal.Correction>
0.0095

> <Gold.Rescore>
     Score         DG    S(hbond)    S(metal)    S(lipo)     H(rot)  DE(clash)    DE(int)     intcor
     17.85     -18.34       1.68        0.00      83.97       1.00       0.11       0.38       ----

> <Gold.Chemscore.Fitness>
17.8463

> <Gold.Chemscore.DG>
-18.3403

> <Gold.Chemscore.ZeroCoef>
-5.4800

> <Gold.Chemscore.Hbond>
1.6753

> <Gold.Chemscore.Metal>
0.0000

> <Gold.Chemscore.Lipo>
83.9723

> <Gold.Chemscore.Internal_Hbond>
0.0000

> <Gold.Chemscore.DEClash>
0.1100

> <Gold.Chemscore.DEInternal>
0.3840

> <Gold.Chemscore.Rot>
1.0000

> <Gold.Chemscore.Internal.Correction>
   9.000000E+99

> <Gold.Chemscore.Hbonds>
donor molecule, donor type, donor heavy atom, donor atom, acceptor molecule, acceptor atom, score
      L1  H     7    19       P1  8028  0.93
      P1  H 10752 10764       L1     1  0.29

> <Gold.Chemscore.Hbond.Weighted>
-5.5955

> <Gold.Chemscore.Metal.Weighted>
-0.0000

> <Gold.Chemscore.Lipo.Weighted>
-9.8248

> <Gold.Chemscore.Internal_Hbond.Weighted>
0.0000

> <Gold.Chemscore.DEClash.Weighted>
0.1100

> <Gold.Chemscore.DEInternal.Weighted>
0.3840

> <Gold.Chemscore.Rot.Weighted>
2.5600

> <Gold.Chemscore.Internal.Correction.Weighted>
   9.000000E+99

> <Gold.Protein.RotatedTorsions>
[ 6907 6896 6895 6894 ] final  -74.26 input  -60.11 | X-H torsion
[ 7974 7965 7964 7962 ] final   12.35 input  175.53 | X-H torsion
[ 8008 7997 7996 7995 ] final  176.32 input   59.86 | X-H torsion
[ 10167 10162 10161 10158 ] final   20.74 input  -65.29 | X-H torsion
[ 10718 10713 10712 10709 ] final    1.42 input   66.30 | X-H torsion
[ 10763 10752 10751 10750 ] final  -63.23 input  -60.55 | X-H torsion
[ 11005 11000 10999 10996 ] final -107.81 input  -57.11 | X-H torsion

> <Gold.Protein.ActiveResidues>
 VAL166  LYS551  ARG553  GLY616  TRP617  ASP618  TYR619  PRO620  LYS621  CYS622 
 ASP623  PHE694  ASN695  SER759  ASP760  ASP761  ALA762  ILE779  LEU786  VAL792 
 PHE793  MET794  SER795  GLU796  ALA797  LYS798  CYS799  TRP800  GLU811  SER814 

> <Gold.Protein.RotatedAtoms>
  150.7099  134.4895  159.5508 H   0  0  0  0  0  0  0  0  0  0  0  0  # atno 6907 bound_to 6896
  152.2515  134.8124  160.0454 H   0  0  0  0  0  0  0  0  0  0  0  0  # atno 6908 bound_to 6896
  151.8870  133.3472  159.3822 H   0  0  0  0  0  0  0  0  0  0  0  0  # atno 6909 bound_to 6896
  146.2353  139.9350  142.8491 H   0  0  0  0  0  0  0  0  0  0  0  0  # atno 7974 bound_to 7965
  156.0777  140.1386  156.9751 H   0  0  0  0  0  0  0  0  0  0  0  0  # atno 8008 bound_to 7997
  154.4567  140.0958  156.6827 H   0  0  0  0  0  0  0  0  0  0  0  0  # atno 8009 bound_to 7997
  155.5127  140.3454  155.4393 H   0  0  0  0  0  0  0  0  0  0  0  0  # atno 8010 bound_to 7997
  140.5480  143.9560  150.6560 H   0  0  0  0  0  0  0  0  0  0  0  0  # atno 10167 bound_to 10162
  156.8479  130.5543  149.5672 H   0  0  0  0  0  0  0  0  0  0  0  0  # atno 10718 bound_to 10713
  154.3120  135.6213  153.5469 H   0  0  0  0  0  0  0  0  0  0  0  0  # atno 10763 bound_to 10752
  152.9828  135.5703  154.5167 H   0  0  0  0  0  0  0  0  0  0  0  0  # atno 10764 bound_to 10752
  154.4818  135.2863  155.1541 H   0  0  0  0  0  0  0  0  0  0  0  0  # atno 10765 bound_to 10752
  141.0934  133.9014  157.2020 H   0  0  0  0  0  0  0  0  0  0  0  0  # atno 11005 bound_to 11000
  145.2008  140.9853  143.4157 LP  0  0  0  0  0  0  0  0  0  0  0  0  # atno 17320 bound_to 7965
  144.9775  139.3817  143.6278 LP  0  0  0  0  0  0  0  0  0  0  0  0  # atno 17321 bound_to 7965
  140.2978  143.3281  152.1001 LP  0  0  0  0  0  0  0  0  0  0  0  0  # atno 17342 bound_to 10162
  139.5015  144.6716  151.6230 LP  0  0  0  0  0  0  0  0  0  0  0  0  # atno 17343 bound_to 10162
  156.0844  130.5846  150.9622 LP  0  0  0  0  0  0  0  0  0  0  0  0  # atno 17370 bound_to 10713
  157.6320  131.0920  150.8423 LP  0  0  0  0  0  0  0  0  0  0  0  0  # atno 17371 bound_to 10713
  139.9765  135.0112  156.9645 LP  0  0  0  0  0  0  0  0  0  0  0  0  # atno 17394 bound_to 11000
  140.5197  134.0920  155.7289 LP  0  0  0  0  0  0  0  0  0  0  0  0  # atno 17395 bound_to 11000

$$$$
