AV-unprocessed.smi:2067|AV-procd|sdf|8423|dock3
  -GOLD-   2272011113D 1   1.00000     0.00000
 Structure written by MMmdl.
 47 48  0  0  0  0  0  0  0  0  1 V2000
  152.1780  131.3346  155.8638 C   0  0  0  0  0  0  0  0  0  0  0  0
  150.7443  131.0333  155.3973 C   0  0  2  0  0  0  0  0  0  0  0  0
  150.7002  129.7149  154.5984 C   0  0  0  0  0  0  0  0  0  0  0  0
  149.2796  129.3881  154.1138 C   0  0  0  0  0  0  0  0  0  0  0  0
  148.7014  130.5434  153.2854 C   0  0  0  0  0  0  0  0  0  0  0  0
  148.7280  131.8582  154.0784 C   0  0  0  0  0  0  0  0  0  0  0  0
  150.1534  132.1964  154.5673 C   0  0  1  0  0  0  0  0  0  0  0  0
  150.1273  133.3500  155.3998 O   0  0  0  0  0  0  0  0  0  0  0  0
  149.4678  134.4765  154.8401 C   0  0  0  0  0  0  0  0  0  0  0  0
  150.4607  135.6399  154.7727 C   0  0  0  0  0  0  0  0  0  0  0  0
  149.7862  136.8868  154.4490 N   0  0  0  0  0  0  0  0  0  0  0  0
  150.0906  138.1602  154.9197 C   0  0  0  0  0  0  0  0  0  0  0  0
  151.1011  138.3712  155.8099 C   0  0  0  0  0  0  0  0  0  0  0  0
  151.9063  137.3223  156.3529 C   0  0  0  0  0  0  0  0  0  0  0  0
  152.5601  136.4835  156.8115 N   0  0  0  0  0  0  0  0  0  0  0  0
  151.4143  139.7021  156.3253 C   0  0  0  0  0  0  0  0  0  0  0  0
  152.3298  139.9341  157.1188 O   0  0  0  0  0  0  0  0  0  0  0  0
  150.5796  140.7325  155.8480 N   0  0  0  0  0  0  0  0  0  0  0  0
  150.8537  142.0643  156.3509 C   0  0  0  0  0  0  0  0  0  0  0  0
  149.5225  140.5415  154.9337 C   0  0  0  0  0  0  0  0  0  0  0  0
  148.8187  141.4801  154.5487 O   0  0  0  0  0  0  0  0  0  0  0  0
  149.2998  139.2217  154.4693 N   0  0  0  0  0  0  0  0  0  0  0  0
  148.2143  139.0937  153.5174 C   0  0  0  0  0  0  0  0  0  0  0  0
  152.8458  131.4931  155.0164 H   0  0  0  0  0  0  0  0  0  0  0  0
  152.5795  130.5108  156.4543 H   0  0  0  0  0  0  0  0  0  0  0  0
  152.2145  132.2282  156.4874 H   0  0  0  0  0  0  0  0  0  0  0  0
  150.1270  130.9047  156.2878 H   0  0  0  0  0  0  0  0  0  0  0  0
  151.3694  129.7822  153.7394 H   0  0  0  0  0  0  0  0  0  0  0  0
  151.0714  128.8946  155.2136 H   0  0  0  0  0  0  0  0  0  0  0  0
  149.2903  128.4734  153.5203 H   0  0  0  0  0  0  0  0  0  0  0  0
  148.6351  129.1926  154.9717 H   0  0  0  0  0  0  0  0  0  0  0  0
  149.2770  130.6591  152.3662 H   0  0  0  0  0  0  0  0  0  0  0  0
  147.6797  130.3108  152.9842 H   0  0  0  0  0  0  0  0  0  0  0  0
  148.3354  132.6566  153.4497 H   0  0  0  0  0  0  0  0  0  0  0  0
  148.0563  131.7807  154.9343 H   0  0  0  0  0  0  0  0  0  0  0  0
  150.8031  132.3725  153.7078 H   0  0  0  0  0  0  0  0  0  0  0  0
  149.1238  134.2400  153.8323 H   0  0  0  0  0  0  0  0  0  0  0  0
  148.5944  134.7609  155.4275 H   0  0  0  0  0  0  0  0  0  0  0  0
  150.9915  135.7470  155.7191 H   0  0  0  0  0  0  0  0  0  0  0  0
  151.2031  135.4166  154.0067 H   0  0  0  0  0  0  0  0  0  0  0  0
  149.3655  136.8664  153.5306 H   0  0  0  0  0  0  0  0  0  0  0  0
  150.1348  142.7918  155.9761 H   0  0  0  0  0  0  0  0  0  0  0  0
  151.8595  142.3319  156.0219 H   0  0  0  0  0  0  0  0  0  0  0  0
  150.7900  142.0204  157.4399 H   0  0  0  0  0  0  0  0  0  0  0  0
  147.2922  139.3576  154.0384 H   0  0  0  0  0  0  0  0  0  0  0  0
  148.1520  138.0762  153.1380 H   0  0  0  0  0  0  0  0  0  0  0  0
  148.4188  139.7718  152.6867 H   0  0  0  0  0  0  0  0  0  0  0  0
  1  2  1  0  0  0  0
  1 24  1  0  0  0  0
  1 25  1  0  0  0  0
  1 26  1  0  0  0  0
  2  7  1  0  0  0  0
  2  3  1  0  0  0  0
  2 27  1  0  0  0  0
  3  4  1  0  0  0  0
  3 28  1  0  0  0  0
  3 29  1  0  0  0  0
  4  5  1  0  0  0  0
  4 30  1  0  0  0  0
  4 31  1  0  0  0  0
  5  6  1  0  0  0  0
  5 32  1  0  0  0  0
  5 33  1  0  0  0  0
  6  7  1  0  0  0  0
  6 34  1  0  0  0  0
  6 35  1  0  0  0  0
  7  8  1  0  0  0  0
  7 36  1  0  0  0  0
  8  9  1  0  0  0  0
  9 10  1  0  0  0  0
  9 37  1  0  0  0  0
  9 38  1  0  0  0  0
 10 11  1  0  0  0  0
 10 39  1  0  0  0  0
 10 40  1  0  0  0  0
 11 12  1  0  0  0  0
 11 41  1  0  0  0  0
 12 22  1  0  0  0  0
 12 13  2  0  0  0  0
 13 14  1  0  0  0  0
 13 16  1  0  0  0  0
 14 15  3  0  0  0  0
 16 17  2  0  0  0  0
 16 18  1  0  0  0  0
 18 19  1  0  0  0  0
 18 20  1  0  0  0  0
 19 42  1  0  0  0  0
 19 43  1  0  0  0  0
 19 44  1  0  0  0  0
 20 21  2  0  0  0  0
 20 22  1  0  0  0  0
 22 23  1  0  0  0  0
 23 45  1  0  0  0  0
 23 46  1  0  0  0  0
 23 47  1  0  0  0  0
M  END
> <s_m_source_file>
AV-unprocessed.smi

> <i_m_source_file_index>
2067

> <i_lp_mmshare_version>
43012

> <i_f3d_flags>
0

> <s_epik_input>
W0NIM11bQ0BASF0xW0NIMl1bQ0gyXVtDSDJdW0NIMl1bQ0BIXTFPW0NIMl1bQ0gyXVtOSF1jMmMoQyNOKWMoPU8pbihbQ0gzXSljKD1PKW4yW0NIM10=

> <s_epik_cmdline>
J2VwaWtfcHl0aG9uJywgJy1waCcsICc3LjAnLCAnLXRuJywgJzgnLCAnLW1hJywgJzIwMCcsICctbWV0YWxfYmluZGluZycsICctaW1hZScsICc8aW5maWxlLm1hZT4nLCAnLW9tYWUnLCAnPG91dGZpbGUubWFlPic=

> <r_epik_Ionization_Penalty>
0.00056529

> <r_epik_Ionization_Penalty_Charging>
3.94678e-10

> <r_epik_Ionization_Penalty_Neutral>
0.000565289

> <r_epik_State_Penalty>
0.000354611

> <r_epik_Charging_Adjusted_Penalty>
0.000354611

> <i_epik_Tot_Q>
0

> <i_epik_Tot_abs_Q>
0

> <r_epik_Metal_State_Penalty>
-0

> <b_epik_Metal_Only>
0

> <s_lp_Force_Field>
OPLS_2005

> <r_lp_Energy>
32.0891

> <b_lp_Chiralities_Consistent>
1

> <s_lp_Variant>
AV-unprocessed.smi:2067-1

> <Gold.Version>
5.8.1

> <Gold.Id.Protein>
6NUR|6NUR_protein|mol2

> <Gold.PLP.Fitness>
45.3664

> <Gold.PLP.PLP>
-37.5748

> <Gold.PLP.part.hbond>
-3.2977

> <Gold.PLP.part.metal>
0.0000

> <Gold.PLP.part.buried>
-2.9833

> <Gold.PLP.part.nonpolar>
-31.1391

> <Gold.PLP.part.repulsive>
0.2001

> <Gold.PLP.ligand.clash>
8.7922

> <Gold.PLP.ligand.torsion>
0.6067

> <Gold.PLP.Chemscore.Hbond>
3.0000

> <Gold.PLP.Chemscore.CHOScore>
0.0000

> <Gold.PLP.Chemscore.Metal>
0.0000

> <Gold.Chemscore.Hbonds>
donor molecule, donor type, donor heavy atom, donor atom, acceptor molecule, acceptor atom, score
      L1  H    11    41       P1  7948  1.00
      P1  H  7997  8009       L1    17  0.83
      P1  H 10752 10763       L1    15  0.88

> <Gold.PLP.Chemscore.Internal.Correction>
8.7971

> <Gold.Rescore>
     Score         DG    S(hbond)    S(metal)    S(lipo)     H(rot)  DE(clash)    DE(int)     intcor
     15.12     -18.34       2.82        0.00      67.94       1.76       0.33       2.90       ----

> <Gold.Chemscore.Fitness>
15.1167

> <Gold.Chemscore.DG>
-18.3441

> <Gold.Chemscore.ZeroCoef>
-5.4800

> <Gold.Chemscore.Hbond>
2.8194

> <Gold.Chemscore.Metal>
0.0000

> <Gold.Chemscore.Lipo>
67.9356

> <Gold.Chemscore.Internal_Hbond>
0.0000

> <Gold.Chemscore.DEClash>
0.3254

> <Gold.Chemscore.DEInternal>
2.9021

> <Gold.Chemscore.Rot>
1.7583

> <Gold.Chemscore.Internal.Correction>
   9.000000E+99

> <Gold.Chemscore.Hbonds>
donor molecule, donor type, donor heavy atom, donor atom, acceptor molecule, acceptor atom, score
      L1  H    11    41       P1  7948  0.93
      P1  H  7997  8009       L1    17  0.80
      P1  H 10752 10763       L1    15  0.66

> <Gold.Chemscore.Hbond.Weighted>
-9.4169

> <Gold.Chemscore.Metal.Weighted>
-0.0000

> <Gold.Chemscore.Lipo.Weighted>
-7.9485

> <Gold.Chemscore.Internal_Hbond.Weighted>
0.0000

> <Gold.Chemscore.DEClash.Weighted>
0.3254

> <Gold.Chemscore.DEInternal.Weighted>
2.9021

> <Gold.Chemscore.Rot.Weighted>
4.5012

> <Gold.Chemscore.Internal.Correction.Weighted>
   9.000000E+99

> <Gold.Protein.RotatedTorsions>
[ 6907 6896 6895 6894 ] final -112.07 input  -60.11 | X-H torsion
[ 7974 7965 7964 7962 ] final -174.87 input  175.53 | X-H torsion
[ 8008 7997 7996 7995 ] final -177.29 input   59.86 | X-H torsion
[ 10167 10162 10161 10158 ] final  -96.42 input  -65.29 | X-H torsion
[ 10718 10713 10712 10709 ] final -101.91 input   66.30 | X-H torsion
[ 10763 10752 10751 10750 ] final  117.70 input  -60.55 | X-H torsion
[ 11005 11000 10999 10996 ] final   43.46 input  -57.11 | X-H torsion

> <Gold.Protein.ActiveResidues>
 VAL166  LYS551  ARG553  GLY616  TRP617  ASP618  TYR619  PRO620  LYS621  CYS622 
 ASP623  PHE694  ASN695  SER759  ASP760  ASP761  ALA762  ILE779  LEU786  VAL792 
 PHE793  MET794  SER795  GLU796  ALA797  LYS798  CYS799  TRP800  GLU811  SER814 

> <Gold.Protein.RotatedAtoms>
  150.7733  133.9143  159.3378 H   0  0  0  0  0  0  0  0  0  0  0  0  # atno 6907 bound_to 6896
  151.7024  135.0926  160.0262 H   0  0  0  0  0  0  0  0  0  0  0  0  # atno 6908 bound_to 6896
  152.3760  133.6443  159.6159 H   0  0  0  0  0  0  0  0  0  0  0  0  # atno 6909 bound_to 6896
  144.7130  140.1407  143.6392 H   0  0  0  0  0  0  0  0  0  0  0  0  # atno 7974 bound_to 7965
  156.0052  140.1229  157.0508 H   0  0  0  0  0  0  0  0  0  0  0  0  # atno 8008 bound_to 7997
  154.4256  140.1099  156.5821 H   0  0  0  0  0  0  0  0  0  0  0  0  # atno 8009 bound_to 7997
  155.6157  140.3472  155.4638 H   0  0  0  0  0  0  0  0  0  0  0  0  # atno 8010 bound_to 7997
  140.2940  143.3203  152.0317 H   0  0  0  0  0  0  0  0  0  0  0  0  # atno 10167 bound_to 10162
  156.0210  130.5395  150.7031 H   0  0  0  0  0  0  0  0  0  0  0  0  # atno 10718 bound_to 10713
  153.5564  135.3529  155.2781 H   0  0  0  0  0  0  0  0  0  0  0  0  # atno 10763 bound_to 10752
  154.8700  135.4126  154.2880 H   0  0  0  0  0  0  0  0  0  0  0  0  # atno 10764 bound_to 10752
  153.3616  135.7060  153.6776 H   0  0  0  0  0  0  0  0  0  0  0  0  # atno 10765 bound_to 10752
  140.1643  134.4302  155.8297 H   0  0  0  0  0  0  0  0  0  0  0  0  # atno 11005 bound_to 11000
  145.9204  139.2542  143.1384 LP  0  0  0  0  0  0  0  0  0  0  0  0  # atno 17320 bound_to 7965
  145.9626  140.8824  143.0203 LP  0  0  0  0  0  0  0  0  0  0  0  0  # atno 17321 bound_to 7965
  139.4931  144.6504  151.6687 LP  0  0  0  0  0  0  0  0  0  0  0  0  # atno 17342 bound_to 10162
  140.5708  144.0112  150.6216 LP  0  0  0  0  0  0  0  0  0  0  0  0  # atno 17343 bound_to 10162
  157.4687  131.0891  151.0666 LP  0  0  0  0  0  0  0  0  0  0  0  0  # atno 17370 bound_to 10713
  157.1133  130.6031  149.5487 LP  0  0  0  0  0  0  0  0  0  0  0  0  # atno 17371 bound_to 10713
  141.2212  133.6927  156.7649 LP  0  0  0  0  0  0  0  0  0  0  0  0  # atno 17394 bound_to 11000
  140.2453  134.8582  157.3614 LP  0  0  0  0  0  0  0  0  0  0  0  0  # atno 17395 bound_to 11000

$$$$
