AV-unprocessed.smi:946|AV-procd|sdf|4236|dock10
  -GOLD-   22720 2143D 1   1.00000     0.00000
 Structure written by MMmdl.
 42 43  0  0  0  0  0  0  0  0  1 V2000
  152.4065  138.4218  154.3369 C   0  0  0  0  0  0  0  0  0  0  0  0
  151.0134  137.9801  154.8076 C   0  0  2  0  0  0  0  0  0  0  0  0
  150.6918  138.7504  155.9618 O   0  0  0  0  0  0  0  0  0  0  0  0
  150.8366  140.1583  155.8177 C   0  0  0  0  0  0  0  0  0  0  0  0
  150.9028  140.7867  157.2157 C   0  0  1  0  0  0  0  0  0  0  0  0
  152.1750  140.3691  157.9788 C   0  0  0  0  0  0  0  0  0  0  0  0
  152.2481  141.0833  159.3335 C   0  0  0  0  0  0  0  0  0  0  0  0
  152.1094  142.5955  159.1294 C   0  0  0  0  0  0  0  0  0  0  0  0
  150.8557  142.9095  158.2974 C   0  0  0  0  0  0  0  0  0  0  0  0
  150.9050  142.2046  157.0610 O   0  0  0  0  0  0  0  0  0  0  0  0
  150.9924  136.4811  155.1458 C   0  0  0  0  0  0  0  0  0  0  0  0
  151.7815  136.0342  155.9790 O   0  0  0  0  0  0  0  0  0  0  0  0
  150.0724  135.7468  154.4920 N   0  0  0  0  0  0  0  0  0  0  0  0
  149.8292  134.3513  154.5897 C   0  0  0  0  0  0  0  0  0  0  0  0
  148.7294  133.8804  153.8394 C   0  0  0  0  0  0  0  0  0  0  0  0
  148.4092  132.5098  153.8667 C   0  0  0  0  0  0  0  0  0  0  0  0
  149.1967  131.6433  154.6450 C   0  0  0  0  0  0  0  0  0  0  0  0
  150.2777  132.1905  155.3686 C   0  0  0  0  0  0  0  0  0  0  0  0
  151.1784  131.3235  156.2372 C   0  0  0  0  0  0  0  0  0  0  0  0
  151.7818  130.3706  155.5255 F   0  0  0  0  0  0  0  0  0  0  0  0
  152.1155  132.0801  156.8086 F   0  0  0  0  0  0  0  0  0  0  0  0
  150.4544  130.7407  157.1931 F   0  0  0  0  0  0  0  0  0  0  0  0
  150.5812  133.5079  155.3385 N   0  0  0  0  0  0  0  0  0  0  0  0
  152.7188  137.8691  153.4501 H   0  0  0  0  0  0  0  0  0  0  0  0
  153.1599  138.2688  155.1108 H   0  0  0  0  0  0  0  0  0  0  0  0
  152.4096  139.4818  154.0818 H   0  0  0  0  0  0  0  0  0  0  0  0
  150.2966  138.1969  154.0134 H   0  0  0  0  0  0  0  0  0  0  0  0
  151.7619  140.3618  155.2769 H   0  0  0  0  0  0  0  0  0  0  0  0
  150.0191  140.5984  155.2452 H   0  0  0  0  0  0  0  0  0  0  0  0
  150.0235  140.4790  157.7850 H   0  0  0  0  0  0  0  0  0  0  0  0
  152.1911  139.2888  158.1272 H   0  0  0  0  0  0  0  0  0  0  0  0
  153.0574  140.6170  157.3872 H   0  0  0  0  0  0  0  0  0  0  0  0
  151.4466  140.7253  159.9810 H   0  0  0  0  0  0  0  0  0  0  0  0
  153.1865  140.8513  159.8379 H   0  0  0  0  0  0  0  0  0  0  0  0
  152.0612  143.1040  160.0926 H   0  0  0  0  0  0  0  0  0  0  0  0
  152.9921  142.9791  158.6162 H   0  0  0  0  0  0  0  0  0  0  0  0
  149.9488  142.6447  158.8431 H   0  0  0  0  0  0  0  0  0  0  0  0
  150.8017  143.9784  158.0907 H   0  0  0  0  0  0  0  0  0  0  0  0
  149.4872  136.2454  153.8380 H   0  0  0  0  0  0  0  0  0  0  0  0
  148.1353  134.5587  153.2443 H   0  0  0  0  0  0  0  0  0  0  0  0
  147.5731  132.1297  153.2981 H   0  0  0  0  0  0  0  0  0  0  0  0
  148.9703  130.5880  154.6796 H   0  0  0  0  0  0  0  0  0  0  0  0
  1  2  1  0  0  0  0
  1 24  1  0  0  0  0
  1 25  1  0  0  0  0
  1 26  1  0  0  0  0
  2  3  1  0  0  0  0
  2 11  1  0  0  0  0
  2 27  1  0  0  0  0
  3  4  1  0  0  0  0
  4  5  1  0  0  0  0
  4 28  1  0  0  0  0
  4 29  1  0  0  0  0
  5 10  1  0  0  0  0
  5  6  1  0  0  0  0
  5 30  1  0  0  0  0
  6  7  1  0  0  0  0
  6 31  1  0  0  0  0
  6 32  1  0  0  0  0
  7  8  1  0  0  0  0
  7 33  1  0  0  0  0
  7 34  1  0  0  0  0
  8  9  1  0  0  0  0
  8 35  1  0  0  0  0
  8 36  1  0  0  0  0
  9 10  1  0  0  0  0
  9 37  1  0  0  0  0
  9 38  1  0  0  0  0
 11 12  2  0  0  0  0
 11 13  1  0  0  0  0
 13 14  1  0  0  0  0
 13 39  1  0  0  0  0
 14 23  1  0  0  0  0
 14 15  2  0  0  0  0
 15 16  1  0  0  0  0
 15 40  1  0  0  0  0
 16 17  2  0  0  0  0
 16 41  1  0  0  0  0
 17 18  1  0  0  0  0
 17 42  1  0  0  0  0
 18 19  1  0  0  0  0
 18 23  2  0  0  0  0
 19 20  1  0  0  0  0
 19 21  1  0  0  0  0
 19 22  1  0  0  0  0
M  END
> <s_m_source_file>
AV-unprocessed.smi

> <i_m_source_file_index>
946

> <i_lp_mmshare_version>
43012

> <i_f3d_flags>
0

> <s_epik_input>
TzFbQ0gyXVtDSDJdW0NIMl1bQ0gyXVtDQEhdMVtDSDJdT1tDQEBIXShbQ0gzXSlDKD1PKVtOSF1jMltjSF1bY0hdW2NIXWMobjIpQyhGKShGKUY=

> <s_epik_cmdline>
J2VwaWtfcHl0aG9uJywgJy1waCcsICc3LjAnLCAnLXRuJywgJzgnLCAnLW1hJywgJzIwMCcsICctbWV0YWxfYmluZGluZycsICctaW1hZScsICc8aW5maWxlLm1hZT4nLCAnLW9tYWUnLCAnPG91dGZpbGUubWFlPic=

> <r_lp_tautomer_probability>
1

> <r_epik_Ionization_Penalty>
1.32683e-06

> <r_epik_Ionization_Penalty_Charging>
0

> <r_epik_Ionization_Penalty_Neutral>
1.32683e-06

> <r_epik_State_Penalty>
-0

> <r_epik_Charging_Adjusted_Penalty>
0

> <i_epik_Tot_Q>
0

> <i_epik_Tot_abs_Q>
0

> <r_epik_Metal_State_Penalty>
-0

> <b_epik_Metal_Only>
0

> <s_lp_Force_Field>
OPLS_2005

> <r_lp_Energy>
15.6569

> <b_lp_Chiralities_Consistent>
1

> <s_lp_Variant>
AV-unprocessed.smi:946-3

> <Gold.Version>
5.8.1

> <Gold.Id.Protein>
6NUR|6NUR_protein|mol2

> <Gold.PLP.Fitness>
43.3430

> <Gold.PLP.PLP>
-38.8313

> <Gold.PLP.part.hbond>
-2.4893

> <Gold.PLP.part.metal>
0.0000

> <Gold.PLP.part.buried>
-2.6717

> <Gold.PLP.part.nonpolar>
-33.3799

> <Gold.PLP.part.repulsive>
0.2078

> <Gold.PLP.ligand.clash>
0.0000

> <Gold.PLP.ligand.torsion>
0.1564

> <Gold.PLP.Chemscore.Hbond>
1.5840

> <Gold.PLP.Chemscore.CHOScore>
0.0000

> <Gold.PLP.Chemscore.Metal>
0.0000

> <Gold.Chemscore.Hbonds>
donor molecule, donor type, donor heavy atom, donor atom, acceptor molecule, acceptor atom, score
      L1  H    13    39       P1  7948  0.78
      P1  H 10752 10764       L1    12  0.75

> <Gold.PLP.Chemscore.Internal.Correction>
0.0725

> <Gold.Rescore>
     Score         DG    S(hbond)    S(metal)    S(lipo)     H(rot)  DE(clash)    DE(int)     intcor
     12.91     -14.80       1.21        0.00      83.55       1.76       0.35       1.53       ----

> <Gold.Chemscore.Fitness>
12.9124

> <Gold.Chemscore.DG>
-14.7954

> <Gold.Chemscore.ZeroCoef>
-5.4800

> <Gold.Chemscore.Hbond>
1.2080

> <Gold.Chemscore.Metal>
0.0000

> <Gold.Chemscore.Lipo>
83.5503

> <Gold.Chemscore.Internal_Hbond>
0.0000

> <Gold.Chemscore.DEClash>
0.3486

> <Gold.Chemscore.DEInternal>
1.5344

> <Gold.Chemscore.Rot>
1.7557

> <Gold.Chemscore.Internal.Correction>
   9.000000E+99

> <Gold.Chemscore.Hbonds>
donor molecule, donor type, donor heavy atom, donor atom, acceptor molecule, acceptor atom, score
      L1  H    13    39       P1  7948  0.51
      P1  H 10752 10764       L1    12  0.09

> <Gold.Chemscore.Hbond.Weighted>
-4.0346

> <Gold.Chemscore.Metal.Weighted>
-0.0000

> <Gold.Chemscore.Lipo.Weighted>
-9.7754

> <Gold.Chemscore.Internal_Hbond.Weighted>
0.0000

> <Gold.Chemscore.DEClash.Weighted>
0.3486

> <Gold.Chemscore.DEInternal.Weighted>
1.5344

> <Gold.Chemscore.Rot.Weighted>
4.4946

> <Gold.Chemscore.Internal.Correction.Weighted>
   9.000000E+99

> <Gold.Protein.RotatedTorsions>
[ 6907 6896 6895 6894 ] final   48.63 input  -60.11 | X-H torsion
[ 7974 7965 7964 7962 ] final   95.49 input  175.53 | X-H torsion
[ 8008 7997 7996 7995 ] final  -17.69 input   59.86 | X-H torsion
[ 10167 10162 10161 10158 ] final -139.21 input  -65.29 | X-H torsion
[ 10718 10713 10712 10709 ] final  172.36 input   66.30 | X-H torsion
[ 10763 10752 10751 10750 ] final  -47.58 input  -60.55 | X-H torsion
[ 11005 11000 10999 10996 ] final   34.32 input  -57.11 | X-H torsion

> <Gold.Protein.ActiveResidues>
 VAL166  LYS551  ARG553  GLY616  TRP617  ASP618  TYR619  PRO620  LYS621  CYS622 
 ASP623  PHE694  ASN695  SER759  ASP760  ASP761  ALA762  ILE779  LEU786  VAL792 
 PHE793  MET794  SER795  GLU796  ALA797  LYS798  CYS799  TRP800  GLU811  SER814 

> <Gold.Protein.RotatedAtoms>
  152.2817  134.7821  160.0394 H   0  0  0  0  0  0  0  0  0  0  0  0  # atno 6907 bound_to 6896
  151.8398  133.3416  159.3647 H   0  0  0  0  0  0  0  0  0  0  0  0  # atno 6908 bound_to 6896
  150.7192  134.5331  159.5754 H   0  0  0  0  0  0  0  0  0  0  0  0  # atno 6909 bound_to 6896
  145.4515  139.2293  143.3037 H   0  0  0  0  0  0  0  0  0  0  0  0  # atno 7974 bound_to 7965
  154.4960  140.2136  155.9447 H   0  0  0  0  0  0  0  0  0  0  0  0  # atno 8008 bound_to 7997
  156.1370  140.3186  155.8404 H   0  0  0  0  0  0  0  0  0  0  0  0  # atno 8009 bound_to 7997
  155.4191  140.0495  157.3017 H   0  0  0  0  0  0  0  0  0  0  0  0  # atno 8010 bound_to 7997
  139.8402  143.7332  152.2663 H   0  0  0  0  0  0  0  0  0  0  0  0  # atno 10167 bound_to 10162
  156.9801  131.0116  151.2883 H   0  0  0  0  0  0  0  0  0  0  0  0  # atno 10718 bound_to 10713
  154.0638  135.6614  153.4815 H   0  0  0  0  0  0  0  0  0  0  0  0  # atno 10763 bound_to 10752
  153.0417  135.5141  154.7633 H   0  0  0  0  0  0  0  0  0  0  0  0  # atno 10764 bound_to 10752
  154.6678  135.3025  154.9749 H   0  0  0  0  0  0  0  0  0  0  0  0  # atno 10765 bound_to 10752
  140.2540  134.3269  155.7880 H   0  0  0  0  0  0  0  0  0  0  0  0  # atno 11005 bound_to 11000
  146.2501  140.5275  142.8897 LP  0  0  0  0  0  0  0  0  0  0  0  0  # atno 17320 bound_to 7965
  144.8058  140.6297  143.6448 LP  0  0  0  0  0  0  0  0  0  0  0  0  # atno 17321 bound_to 7965
  139.7566  144.7519  151.0426 LP  0  0  0  0  0  0  0  0  0  0  0  0  # atno 17342 bound_to 10162
  140.7799  143.4798  151.0033 LP  0  0  0  0  0  0  0  0  0  0  0  0  # atno 17343 bound_to 10162
  157.5532  130.8196  149.8171 LP  0  0  0  0  0  0  0  0  0  0  0  0  # atno 17370 bound_to 10713
  156.0248  130.3783  150.1856 LP  0  0  0  0  0  0  0  0  0  0  0  0  # atno 17371 bound_to 10713
  141.2198  133.7370  156.9083 LP  0  0  0  0  0  0  0  0  0  0  0  0  # atno 17394 bound_to 11000
  140.1529  134.9218  157.2616 LP  0  0  0  0  0  0  0  0  0  0  0  0  # atno 17395 bound_to 11000

$$$$
