AV-unprocessed.smi:2973|AV-procd|sdf|11337|dock5
  -GOLD-   2272016243D 1   1.00000     0.00000
 Structure written by MMmdl.
 49 51  0  0  0  0  0  0  0  0  1 V2000
  146.6047  133.2707  153.1241 C   0  0  0  0  0  0  0  0  0  0  0  0
  145.6863  132.7318  152.0067 C   0  0  2  0  0  0  0  0  0  0  0  0
  146.4796  132.5350  150.6967 C   0  0  0  0  0  0  0  0  0  0  0  0
  145.6103  131.9096  149.5947 C   0  0  0  0  0  0  0  0  0  0  0  0
  144.3493  132.7446  149.3324 C   0  0  0  0  0  0  0  0  0  0  0  0
  143.5410  132.9527  150.6255 C   0  0  0  0  0  0  0  0  0  0  0  0
  144.3817  133.5596  151.7774 C   0  0  1  0  0  0  0  0  0  0  0  0
  143.5793  133.6178  152.9869 N   0  0  0  0  0  0  0  0  0  0  0  0
  143.3732  134.8655  153.4254 C   0  0  0  0  0  0  0  0  0  0  0  0
  142.7320  135.1668  154.4309 O   0  0  0  0  0  0  0  0  0  0  0  0
  143.9903  135.7154  152.5862 N   0  0  0  0  0  0  0  0  0  0  0  0
  144.0245  137.1724  152.7684 C   0  0  0  0  0  0  0  0  0  0  0  0
  145.2779  137.6621  153.5084 C   0  0  0  0  0  0  0  0  0  0  0  0
  146.0092  136.8742  154.1105 O   0  0  0  0  0  0  0  0  0  0  0  0
  145.5153  138.9805  153.4442 N   0  0  0  0  0  0  0  0  0  0  0  0
  146.6293  139.6654  154.0894 C   0  0  0  0  0  0  0  0  0  0  0  0
  147.9582  138.9208  153.8802 C   0  0  0  0  0  0  0  0  0  0  0  0
  149.1060  139.5903  154.6119 C   0  0  0  0  0  0  0  0  0  0  0  0
  150.3708  138.9687  154.6893 C   0  0  0  0  0  0  0  0  0  0  0  0
  151.4080  139.6404  155.3648 C   0  0  0  0  0  0  0  0  0  0  0  0
  151.1424  140.9012  155.9334 C   0  0  0  0  0  0  0  0  0  0  0  0
  149.8457  141.4364  155.8007 C   0  0  0  0  0  0  0  0  0  0  0  0
  148.8443  140.8010  155.1546 N   0  0  0  0  0  0  0  0  0  0  0  0
  144.6112  135.0618  151.5945 C   0  0  0  0  0  0  0  0  0  0  0  0
  145.2705  135.5629  150.6833 O   0  0  0  0  0  0  0  0  0  0  0  0
  147.0141  134.2502  152.8756 H   0  0  0  0  0  0  0  0  0  0  0  0
  147.4479  132.5997  153.2892 H   0  0  0  0  0  0  0  0  0  0  0  0
  146.0764  133.3609  154.0731 H   0  0  0  0  0  0  0  0  0  0  0  0
  145.3716  131.7387  152.3319 H   0  0  0  0  0  0  0  0  0  0  0  0
  146.8846  133.4860  150.3503 H   0  0  0  0  0  0  0  0  0  0  0  0
  147.3404  131.8909  150.8797 H   0  0  0  0  0  0  0  0  0  0  0  0
  146.1887  131.8125  148.6757 H   0  0  0  0  0  0  0  0  0  0  0  0
  145.3235  130.8987  149.8870 H   0  0  0  0  0  0  0  0  0  0  0  0
  144.6278  133.7063  148.9014 H   0  0  0  0  0  0  0  0  0  0  0  0
  143.7278  132.2480  148.5870 H   0  0  0  0  0  0  0  0  0  0  0  0
  142.6757  133.5820  150.4111 H   0  0  0  0  0  0  0  0  0  0  0  0
  143.1362  131.9912  150.9448 H   0  0  0  0  0  0  0  0  0  0  0  0
  143.2236  132.7909  153.4445 H   0  0  0  0  0  0  0  0  0  0  0  0
  143.9726  137.6784  151.8030 H   0  0  0  0  0  0  0  0  0  0  0  0
  143.1368  137.4910  153.3180 H   0  0  0  0  0  0  0  0  0  0  0  0
  144.8667  139.5539  152.9243 H   0  0  0  0  0  0  0  0  0  0  0  0
  146.6972  140.6676  153.6653 H   0  0  0  0  0  0  0  0  0  0  0  0
  146.4237  139.7928  155.1537 H   0  0  0  0  0  0  0  0  0  0  0  0
  147.8737  137.8899  154.2268 H   0  0  0  0  0  0  0  0  0  0  0  0
  148.1935  138.8677  152.8162 H   0  0  0  0  0  0  0  0  0  0  0  0
  150.5451  138.0026  154.2384 H   0  0  0  0  0  0  0  0  0  0  0  0
  152.3896  139.1969  155.4433 H   0  0  0  0  0  0  0  0  0  0  0  0
  151.9133  141.4458  156.4579 H   0  0  0  0  0  0  0  0  0  0  0  0
  149.6072  142.4014  156.2231 H   0  0  0  0  0  0  0  0  0  0  0  0
  1  2  1  0  0  0  0
  1 26  1  0  0  0  0
  1 27  1  0  0  0  0
  1 28  1  0  0  0  0
  2  7  1  0  0  0  0
  2  3  1  0  0  0  0
  2 29  1  0  0  0  0
  3  4  1  0  0  0  0
  3 30  1  0  0  0  0
  3 31  1  0  0  0  0
  4  5  1  0  0  0  0
  4 32  1  0  0  0  0
  4 33  1  0  0  0  0
  5  6  1  0  0  0  0
  5 34  1  0  0  0  0
  5 35  1  0  0  0  0
  6  7  1  0  0  0  0
  6 36  1  0  0  0  0
  6 37  1  0  0  0  0
  7 24  1  0  0  0  0
  7  8  1  0  0  0  0
  8  9  1  0  0  0  0
  8 38  1  0  0  0  0
  9 10  2  0  0  0  0
  9 11  1  0  0  0  0
 11 12  1  0  0  0  0
 11 24  1  0  0  0  0
 12 13  1  0  0  0  0
 12 39  1  0  0  0  0
 12 40  1  0  0  0  0
 13 14  2  0  0  0  0
 13 15  1  0  0  0  0
 15 16  1  0  0  0  0
 15 41  1  0  0  0  0
 16 17  1  0  0  0  0
 16 42  1  0  0  0  0
 16 43  1  0  0  0  0
 17 18  1  0  0  0  0
 17 44  1  0  0  0  0
 17 45  1  0  0  0  0
 18 23  1  0  0  0  0
 18 19  2  0  0  0  0
 19 20  1  0  0  0  0
 19 46  1  0  0  0  0
 20 21  2  0  0  0  0
 20 47  1  0  0  0  0
 21 22  1  0  0  0  0
 21 48  1  0  0  0  0
 22 23  2  0  0  0  0
 22 49  1  0  0  0  0
 24 25  2  0  0  0  0
M  END
> <s_m_source_file>
AV-unprocessed.smi

> <i_m_source_file_index>
2973

> <i_lp_mmshare_version>
43012

> <i_f3d_flags>
0

> <s_epik_input>
W0NIMl0xW0NIMl1bQ0gyXVtDSDJdW0NAQEhdKFtDSDNdKVtDQF0xMltOSF1DKD1PKU4oQzI9TylbQ0gyXUMoPU8pW05IXVtDSDJdW0NIMl1jM1tjSF1bY0hdW2NIXVtjSF1uMw==

> <s_epik_cmdline>
J2VwaWtfcHl0aG9uJywgJy1waCcsICc3LjAnLCAnLXRuJywgJzgnLCAnLW1hJywgJzIwMCcsICctbWV0YWxfYmluZGluZycsICctaW1hZScsICc8aW5maWxlLm1hZT4nLCAnLW9tYWUnLCAnPG91dGZpbGUubWFlPic=

> <r_lp_tautomer_probability>
1

> <r_epik_Ionization_Penalty>
0.0245152

> <r_epik_Ionization_Penalty_Charging>
0

> <r_epik_Ionization_Penalty_Neutral>
0.0245152

> <r_epik_State_Penalty>
0.0198648

> <r_epik_Charging_Adjusted_Penalty>
0.0198648

> <i_epik_Tot_Q>
0

> <i_epik_Tot_abs_Q>
0

> <r_epik_Metal_State_Penalty>
0.0400162

> <b_epik_Metal_Only>
0

> <s_lp_Force_Field>
OPLS_2005

> <r_lp_Energy>
16.1581

> <b_lp_Chiralities_Consistent>
1

> <s_lp_Variant>
AV-unprocessed.smi:2973-1

> <Gold.Version>
5.8.1

> <Gold.Id.Protein>
6NUR|6NUR_protein|mol2

> <Gold.PLP.Fitness>
50.5279

> <Gold.PLP.PLP>
-42.8450

> <Gold.PLP.part.hbond>
-2.0000

> <Gold.PLP.part.metal>
0.0000

> <Gold.PLP.part.buried>
-2.3657

> <Gold.PLP.part.nonpolar>
-38.7453

> <Gold.PLP.part.repulsive>
0.5323

> <Gold.PLP.ligand.clash>
0.0000

> <Gold.PLP.ligand.torsion>
0.6801

> <Gold.PLP.Chemscore.Hbond>
2.0000

> <Gold.PLP.Chemscore.CHOScore>
1.0000

> <Gold.PLP.Chemscore.Metal>
0.0000

> <Gold.Chemscore.Hbonds>
donor molecule, donor type, donor heavy atom, donor atom, acceptor molecule, acceptor atom, score
      L1  H     8    38       P1 10957  1.00
      L1  H    15    41       P1 10175  1.00
      L1  C    22    49       P1  8028  1.00

> <Gold.PLP.Chemscore.Internal.Correction>
0.0430

> <Gold.Rescore>
     Score         DG    S(hbond)    S(metal)    S(lipo)     H(rot)  DE(clash)    DE(int)     intcor
     17.03     -18.93       1.93        0.00     100.62       1.86       0.09       1.81       ----

> <Gold.Chemscore.Fitness>
17.0334

> <Gold.Chemscore.DG>
-18.9341

> <Gold.Chemscore.ZeroCoef>
-5.4800

> <Gold.Chemscore.Hbond>
1.9254

> <Gold.Chemscore.Metal>
0.0000

> <Gold.Chemscore.Lipo>
100.6233

> <Gold.Chemscore.Internal_Hbond>
0.0000

> <Gold.Chemscore.DEClash>
0.0865

> <Gold.Chemscore.DEInternal>
1.8142

> <Gold.Chemscore.Rot>
1.8553

> <Gold.Chemscore.Internal.Correction>
   9.000000E+99

> <Gold.Chemscore.Hbonds>
donor molecule, donor type, donor heavy atom, donor atom, acceptor molecule, acceptor atom, score
      L1  H     8    38       P1 10957  0.65
      L1  H    15    41       P1 10175  0.97

> <Gold.Chemscore.Hbond.Weighted>
-6.4309

> <Gold.Chemscore.Metal.Weighted>
-0.0000

> <Gold.Chemscore.Lipo.Weighted>
-11.7729

> <Gold.Chemscore.Internal_Hbond.Weighted>
0.0000

> <Gold.Chemscore.DEClash.Weighted>
0.0865

> <Gold.Chemscore.DEInternal.Weighted>
1.8142

> <Gold.Chemscore.Rot.Weighted>
4.7497

> <Gold.Chemscore.Internal.Correction.Weighted>
   9.000000E+99

> <Gold.Protein.RotatedTorsions>
[ 6907 6896 6895 6894 ] final   17.46 input  -60.11 | X-H torsion
[ 7974 7965 7964 7962 ] final -160.83 input  175.53 | X-H torsion
[ 8008 7997 7996 7995 ] final -160.70 input   59.86 | X-H torsion
[ 10167 10162 10161 10158 ] final -103.08 input  -65.29 | X-H torsion
[ 10718 10713 10712 10709 ] final   62.63 input   66.30 | X-H torsion
[ 10763 10752 10751 10750 ] final -122.19 input  -60.55 | X-H torsion
[ 11005 11000 10999 10996 ] final   69.31 input  -57.11 | X-H torsion

> <Gold.Protein.ActiveResidues>
 VAL166  LYS551  ARG553  GLY616  TRP617  ASP618  TYR619  PRO620  LYS621  CYS622 
 ASP623  PHE694  ASN695  SER759  ASP760  ASP761  ALA762  ILE779  LEU786  VAL792 
 PHE793  MET794  SER795  GLU796  ALA797  LYS798  CYS799  TRP800  GLU811  SER814 

> <Gold.Protein.RotatedAtoms>
  151.8500  135.0561  160.0457 H   0  0  0  0  0  0  0  0  0  0  0  0  # atno 6907 bound_to 6896
  152.2744  133.5407  159.5467 H   0  0  0  0  0  0  0  0  0  0  0  0  # atno 6908 bound_to 6896
  150.7164  134.0569  159.3860 H   0  0  0  0  0  0  0  0  0  0  0  0  # atno 6909 bound_to 6896
  144.7412  140.3485  143.6120 H   0  0  0  0  0  0  0  0  0  0  0  0  # atno 7974 bound_to 7965
  155.7814  140.0865  157.2057 H   0  0  0  0  0  0  0  0  0  0  0  0  # atno 8008 bound_to 7997
  154.3990  140.1507  156.3114 H   0  0  0  0  0  0  0  0  0  0  0  0  # atno 8009 bound_to 7997
  155.8650  140.3428  155.5785 H   0  0  0  0  0  0  0  0  0  0  0  0  # atno 8010 bound_to 7997
  140.2238  143.3656  152.0946 H   0  0  0  0  0  0  0  0  0  0  0  0  # atno 10167 bound_to 10162
  157.5915  130.9061  149.9613 H   0  0  0  0  0  0  0  0  0  0  0  0  # atno 10718 bound_to 10713
  154.8684  135.4141  154.2741 H   0  0  0  0  0  0  0  0  0  0  0  0  # atno 10763 bound_to 10752
  153.3646  135.7005  153.6691 H   0  0  0  0  0  0  0  0  0  0  0  0  # atno 10764 bound_to 10752
  153.5578  135.3616  155.2758 H   0  0  0  0  0  0  0  0  0  0  0  0  # atno 10765 bound_to 10752
  139.9661  134.6979  156.0543 H   0  0  0  0  0  0  0  0  0  0  0  0  # atno 11005 bound_to 11000
  145.7301  139.1734  143.2435 LP  0  0  0  0  0  0  0  0  0  0  0  0  # atno 17320 bound_to 7965
  146.1212  140.7306  142.9456 LP  0  0  0  0  0  0  0  0  0  0  0  0  # atno 17321 bound_to 7965
  139.5134  144.6932  151.5702 LP  0  0  0  0  0  0  0  0  0  0  0  0  # atno 17342 bound_to 10162
  140.6235  143.9213  150.6545 LP  0  0  0  0  0  0  0  0  0  0  0  0  # atno 17343 bound_to 10162
  156.0970  130.3658  150.0288 LP  0  0  0  0  0  0  0  0  0  0  0  0  # atno 17370 bound_to 10713
  156.8410  130.9425  151.3632 LP  0  0  0  0  0  0  0  0  0  0  0  0  # atno 17371 bound_to 10713
  141.1340  133.6579  156.3543 LP  0  0  0  0  0  0  0  0  0  0  0  0  # atno 17394 bound_to 11000
  140.5394  134.6135  157.5375 LP  0  0  0  0  0  0  0  0  0  0  0  0  # atno 17395 bound_to 11000

$$$$
