AV-unprocessed.smi:2482|AV-procd|sdf|9780|dock9
  -GOLD-   2272013423D 1   1.00000     0.00000
 Structure written by MMmdl.
 34 35  0  0  0  0  0  0  0  0  1 V2000
  152.5455  143.8016  161.9121 C   0  0  0  0  0  0  0  0  0  0  0  0
  151.9366  143.7091  160.5254 C   0  0  0  0  0  0  0  0  0  0  0  0
  151.1855  144.7655  160.1449 N   0  0  0  0  0  0  0  0  0  0  0  0
  150.6143  144.7312  158.9238 C   0  0  0  0  0  0  0  0  0  0  0  0
  150.7662  143.6566  158.0272 C   0  0  0  0  0  0  0  0  0  0  0  0
  151.5661  142.5553  158.4158 C   0  0  0  0  0  0  0  0  0  0  0  0
  151.7690  141.4090  157.5988 N   0  0  0  0  0  0  0  0  0  0  0  0
  151.1958  141.0944  156.4221 C   0  0  0  0  0  0  0  0  0  0  0  0
  150.3555  141.7893  155.8505 O   0  0  0  0  0  0  0  0  0  0  0  0
  151.6547  139.7701  155.7947 C   0  0  1  0  0  0  0  0  0  0  0  0
  151.3624  138.5451  156.6917 C   0  0  0  0  0  0  0  0  0  0  0  0
  151.7452  137.2960  156.0453 N   0  0  0  0  0  0  0  0  0  0  0  0
  151.4653  136.1465  156.8920 C   0  0  0  0  0  0  0  0  0  0  0  0
  151.0797  137.1875  154.7544 C   0  0  0  0  0  0  0  0  0  0  0  0
  151.3730  138.4051  153.8624 C   0  0  0  0  0  0  0  0  0  0  0  0
  150.9896  139.5963  154.5420 O   0  0  0  0  0  0  0  0  0  0  0  0
  152.1536  142.5788  159.7027 C   0  0  0  0  0  0  0  0  0  0  0  0
  153.1238  141.2555  160.2578 Cl  0  0  0  0  0  0  0  0  0  0  0  0
  153.6329  143.7526  161.8526 H   0  0  0  0  0  0  0  0  0  0  0  0
  152.1958  142.9789  162.5360 H   0  0  0  0  0  0  0  0  0  0  0  0
  152.2775  144.7365  162.4064 H   0  0  0  0  0  0  0  0  0  0  0  0
  150.0101  145.5848  158.6546 H   0  0  0  0  0  0  0  0  0  0  0  0
  150.2600  143.6932  157.0752 H   0  0  0  0  0  0  0  0  0  0  0  0
  152.5033  140.7865  157.9049 H   0  0  0  0  0  0  0  0  0  0  0  0
  152.7290  139.8453  155.6169 H   0  0  0  0  0  0  0  0  0  0  0  0
  151.9016  138.6437  157.6348 H   0  0  0  0  0  0  0  0  0  0  0  0
  150.3000  138.5194  156.9413 H   0  0  0  0  0  0  0  0  0  0  0  0
  151.7900  135.2237  156.4102 H   0  0  0  0  0  0  0  0  0  0  0  0
  150.3983  136.0626  157.1031 H   0  0  0  0  0  0  0  0  0  0  0  0
  151.9940  136.2287  157.8421 H   0  0  0  0  0  0  0  0  0  0  0  0
  151.4023  136.2781  154.2463 H   0  0  0  0  0  0  0  0  0  0  0  0
  150.0019  137.0990  154.9001 H   0  0  0  0  0  0  0  0  0  0  0  0
  152.4321  138.4501  153.6044 H   0  0  0  0  0  0  0  0  0  0  0  0
  150.8175  138.3334  152.9272 H   0  0  0  0  0  0  0  0  0  0  0  0
  1  2  1  0  0  0  0
  1 19  1  0  0  0  0
  1 20  1  0  0  0  0
  1 21  1  0  0  0  0
  2 17  1  0  0  0  0
  2  3  2  0  0  0  0
  3  4  1  0  0  0  0
  4  5  2  0  0  0  0
  4 22  1  0  0  0  0
  5  6  1  0  0  0  0
  5 23  1  0  0  0  0
  6  7  1  0  0  0  0
  6 17  2  0  0  0  0
  7  8  1  0  0  0  0
  7 24  1  0  0  0  0
  8  9  2  0  0  0  0
  8 10  1  0  0  0  0
 10 16  1  0  0  0  0
 10 11  1  0  0  0  0
 10 25  1  0  0  0  0
 11 12  1  0  0  0  0
 11 26  1  0  0  0  0
 11 27  1  0  0  0  0
 12 13  1  0  0  0  0
 12 14  1  0  0  0  0
 13 28  1  0  0  0  0
 13 29  1  0  0  0  0
 13 30  1  0  0  0  0
 14 15  1  0  0  0  0
 14 31  1  0  0  0  0
 14 32  1  0  0  0  0
 15 16  1  0  0  0  0
 15 33  1  0  0  0  0
 15 34  1  0  0  0  0
 17 18  1  0  0  0  0
M  END
> <s_m_source_file>
AV-unprocessed.smi

> <i_m_source_file_index>
2482

> <i_lp_mmshare_version>
43012

> <i_f3d_flags>
0

> <s_epik_input>
W0NIM11jMW5bY0hdW2NIXWMoYzFDbClbTkhdQyg9TylbQ0BASF0yW0NIMl1OKFtDSDNdKVtDSDJdW0NIMl1PMg==

> <s_epik_cmdline>
J2VwaWtfcHl0aG9uJywgJy1waCcsICc3LjAnLCAnLXRuJywgJzgnLCAnLW1hJywgJzIwMCcsICctbWV0YWxfYmluZGluZycsICctaW1hZScsICc8aW5maWxlLm1hZT4nLCAnLW9tYWUnLCAnPG91dGZpbGUubWFlPic=

> <r_epik_Ionization_Penalty>
0.52656

> <r_epik_Ionization_Penalty_Charging>
0

> <r_epik_Ionization_Penalty_Neutral>
0.52656

> <r_epik_State_Penalty>
0.534659

> <r_epik_Charging_Adjusted_Penalty>
0.534659

> <i_epik_Tot_Q>
0

> <i_epik_Tot_abs_Q>
0

> <r_epik_Metal_State_Penalty>
0.54077

> <b_epik_Metal_Only>
0

> <s_lp_Force_Field>
OPLS_2005

> <r_lp_Energy>
25.124

> <b_lp_Chiralities_Consistent>
1

> <s_lp_Variant>
AV-unprocessed.smi:2482-6

> <Gold.Version>
5.8.1

> <Gold.Id.Protein>
6NUR|6NUR_protein|mol2

> <Gold.PLP.Fitness>
39.2415

> <Gold.PLP.PLP>
-33.3319

> <Gold.PLP.part.hbond>
-1.0000

> <Gold.PLP.part.metal>
0.0000

> <Gold.PLP.part.buried>
-5.3714

> <Gold.PLP.part.nonpolar>
-26.9519

> <Gold.PLP.part.repulsive>
0.4069

> <Gold.PLP.ligand.clash>
0.0000

> <Gold.PLP.ligand.torsion>
0.0147

> <Gold.PLP.Chemscore.Hbond>
1.0000

> <Gold.PLP.Chemscore.CHOScore>
0.9790

> <Gold.PLP.Chemscore.Metal>
0.0000

> <Gold.Chemscore.Hbonds>
donor molecule, donor type, donor heavy atom, donor atom, acceptor molecule, acceptor atom, score
      P1  H  7989  7998       L1    16  1.00
      L1  C     4    22       P1  8029  0.99

> <Gold.PLP.Chemscore.Internal.Correction>
0.0020

> <Gold.Rescore>
     Score         DG    S(hbond)    S(metal)    S(lipo)     H(rot)  DE(clash)    DE(int)     intcor
     16.13     -17.43       0.74        0.00     102.92       1.00       0.01       1.28       ----

> <Gold.Chemscore.Fitness>
16.1334

> <Gold.Chemscore.DG>
-17.4325

> <Gold.Chemscore.ZeroCoef>
-5.4800

> <Gold.Chemscore.Hbond>
0.7397

> <Gold.Chemscore.Metal>
0.0000

> <Gold.Chemscore.Lipo>
102.9220

> <Gold.Chemscore.Internal_Hbond>
0.0000

> <Gold.Chemscore.DEClash>
0.0149

> <Gold.Chemscore.DEInternal>
1.2842

> <Gold.Chemscore.Rot>
1.0000

> <Gold.Chemscore.Internal.Correction>
   9.000000E+99

> <Gold.Chemscore.Hbonds>
donor molecule, donor type, donor heavy atom, donor atom, acceptor molecule, acceptor atom, score
      P1  H  7989  7998       L1    16  0.17

> <Gold.Chemscore.Hbond.Weighted>
-2.4706

> <Gold.Chemscore.Metal.Weighted>
-0.0000

> <Gold.Chemscore.Lipo.Weighted>
-12.0419

> <Gold.Chemscore.Internal_Hbond.Weighted>
0.0000

> <Gold.Chemscore.DEClash.Weighted>
0.0149

> <Gold.Chemscore.DEInternal.Weighted>
1.2842

> <Gold.Chemscore.Rot.Weighted>
2.5600

> <Gold.Chemscore.Internal.Correction.Weighted>
   9.000000E+99

> <Gold.Protein.RotatedTorsions>
[ 6907 6896 6895 6894 ] final  -35.88 input  -60.11 | X-H torsion
[ 7974 7965 7964 7962 ] final   89.31 input  175.53 | X-H torsion
[ 8008 7997 7996 7995 ] final -173.62 input   59.86 | X-H torsion
[ 10167 10162 10161 10158 ] final   12.18 input  -65.29 | X-H torsion
[ 10718 10713 10712 10709 ] final  -29.07 input   66.30 | X-H torsion
[ 10763 10752 10751 10750 ] final   60.98 input  -60.55 | X-H torsion
[ 11005 11000 10999 10996 ] final  -59.01 input  -57.11 | X-H torsion

> <Gold.Protein.ActiveResidues>
 VAL166  LYS551  ARG553  GLY616  TRP617  ASP618  TYR619  PRO620  LYS621  CYS622 
 ASP623  PHE694  ASN695  SER759  ASP760  ASP761  ALA762  ILE779  LEU786  VAL792 
 PHE793  MET794  SER795  GLU796  ALA797  LYS798  CYS799  TRP800  GLU811  SER814 

> <Gold.Protein.RotatedAtoms>
  151.0343  134.9561  159.8127 H   0  0  0  0  0  0  0  0  0  0  0  0  # atno 6907 bound_to 6896
  152.5352  134.2740  159.8992 H   0  0  0  0  0  0  0  0  0  0  0  0  # atno 6908 bound_to 6896
  151.2751  133.4194  159.2657 H   0  0  0  0  0  0  0  0  0  0  0  0  # atno 6909 bound_to 6896
  145.5341  139.2285  143.2602 H   0  0  0  0  0  0  0  0  0  0  0  0  # atno 7974 bound_to 7965
  155.9598  140.1142  157.0906 H   0  0  0  0  0  0  0  0  0  0  0  0  # atno 8008 bound_to 7997
  154.4129  140.1184  156.5230 H   0  0  0  0  0  0  0  0  0  0  0  0  # atno 8009 bound_to 7997
  155.6736  140.3473  155.4830 H   0  0  0  0  0  0  0  0  0  0  0  0  # atno 8010 bound_to 7997
  140.6084  143.8459  150.7039 H   0  0  0  0  0  0  0  0  0  0  0  0  # atno 10167 bound_to 10162
  156.4171  130.4419  149.7210 H   0  0  0  0  0  0  0  0  0  0  0  0  # atno 10718 bound_to 10713
  152.9937  135.5517  154.5961 H   0  0  0  0  0  0  0  0  0  0  0  0  # atno 10763 bound_to 10752
  154.5312  135.2813  155.1180 H   0  0  0  0  0  0  0  0  0  0  0  0  # atno 10764 bound_to 10752
  154.2494  135.6401  153.5288 H   0  0  0  0  0  0  0  0  0  0  0  0  # atno 10765 bound_to 10752
  141.1231  133.6614  156.5007 H   0  0  0  0  0  0  0  0  0  0  0  0  # atno 11005 bound_to 11000
  146.2025  140.6158  142.9096 LP  0  0  0  0  0  0  0  0  0  0  0  0  # atno 17320 bound_to 7965
  144.7611  140.5423  143.6735 LP  0  0  0  0  0  0  0  0  0  0  0  0  # atno 17321 bound_to 7965
  140.2021  143.3951  152.1783 LP  0  0  0  0  0  0  0  0  0  0  0  0  # atno 17342 bound_to 10162
  139.5343  144.7192  151.4949 LP  0  0  0  0  0  0  0  0  0  0  0  0  # atno 17343 bound_to 10162
  156.4165  130.7748  151.2763 LP  0  0  0  0  0  0  0  0  0  0  0  0  # atno 17370 bound_to 10713
  157.7508  131.0195  150.3672 LP  0  0  0  0  0  0  0  0  0  0  0  0  # atno 17371 bound_to 10713
  140.4448  134.6982  157.5010 LP  0  0  0  0  0  0  0  0  0  0  0  0  # atno 17394 bound_to 11000
  140.0205  134.6554  155.9247 LP  0  0  0  0  0  0  0  0  0  0  0  0  # atno 17395 bound_to 11000

$$$$
