AV-unprocessed.smi:1482|AV-procd|sdf|5988|dock2
  -GOLD-   22720 6 83D 1   1.00000     0.00000
 Structure written by MMmdl.
 36 37  0  0  0  0  0  0  0  0  1 V2000
  157.0227  140.6379  159.2806 C   0  0  0  0  0  0  0  0  0  0  0  0
  155.7995  139.9699  159.0252 O   0  0  0  0  0  0  0  0  0  0  0  0
  154.8581  140.1444  160.0709 C   0  0  0  0  0  0  0  0  0  0  0  0
  154.3294  141.5807  160.0344 C   0  0  0  0  0  0  0  0  0  0  0  0
  153.1912  141.6214  159.1800 O   0  0  0  0  0  0  0  0  0  0  0  0
  152.4849  142.8027  159.0676 C   0  0  0  0  0  0  0  0  0  0  0  0
  152.8286  143.8378  159.8755 N   0  0  0  0  0  0  0  0  0  0  0  0
  152.1493  144.9980  159.7619 C   0  0  0  0  0  0  0  0  0  0  0  0
  151.0982  145.1896  158.8459 C   0  0  0  0  0  0  0  0  0  0  0  0
  150.7394  144.1170  158.0092 C   0  0  0  0  0  0  0  0  0  0  0  0
  151.4397  142.8969  158.1170 C   0  0  0  0  0  0  0  0  0  0  0  0
  151.0694  141.7265  157.2163 C   0  0  0  0  0  0  0  0  0  0  0  0
  150.0347  142.0619  156.2450 N   0  0  0  0  0  0  0  0  0  0  0  0
  149.7396  141.3349  155.1565 C   0  0  0  0  0  0  0  0  0  0  0  0
  150.3239  140.2888  154.8699 O   0  0  0  0  0  0  0  0  0  0  0  0
  148.6398  141.9091  154.3246 C   0  0  0  0  0  0  0  0  0  0  0  0
  147.2478  141.9367  154.9226 C   0  0  0  0  0  0  0  0  0  0  0  0
  147.5712  140.9611  153.8191 C   0  0  0  0  0  0  0  0  0  0  0  0
  157.7107  140.4722  158.4517 H   0  0  0  0  0  0  0  0  0  0  0  0
  157.4949  140.2633  160.1898 H   0  0  0  0  0  0  0  0  0  0  0  0
  156.8710  141.7130  159.3823 H   0  0  0  0  0  0  0  0  0  0  0  0
  154.0325  139.4405  159.9550 H   0  0  0  0  0  0  0  0  0  0  0  0
  155.3289  139.9459  161.0348 H   0  0  0  0  0  0  0  0  0  0  0  0
  154.0569  141.8988  161.0422 H   0  0  0  0  0  0  0  0  0  0  0  0
  155.1090  142.2492  159.6657 H   0  0  0  0  0  0  0  0  0  0  0  0
  152.4537  145.7979  160.4205 H   0  0  0  0  0  0  0  0  0  0  0  0
  150.5813  146.1358  158.7863 H   0  0  0  0  0  0  0  0  0  0  0  0
  149.9380  144.2301  157.2940 H   0  0  0  0  0  0  0  0  0  0  0  0
  151.9408  141.3217  156.7006 H   0  0  0  0  0  0  0  0  0  0  0  0
  150.6924  140.9197  157.8450 H   0  0  0  0  0  0  0  0  0  0  0  0
  149.5065  142.9063  156.4106 H   0  0  0  0  0  0  0  0  0  0  0  0
  148.9072  142.7364  153.6685 H   0  0  0  0  0  0  0  0  0  0  0  0
  147.1018  141.5304  155.9220 H   0  0  0  0  0  0  0  0  0  0  0  0
  146.6236  142.7943  154.6803 H   0  0  0  0  0  0  0  0  0  0  0  0
  147.1667  141.1574  152.8283 H   0  0  0  0  0  0  0  0  0  0  0  0
  147.6389  139.9082  154.0872 H   0  0  0  0  0  0  0  0  0  0  0  0
  1  2  1  0  0  0  0
  1 19  1  0  0  0  0
  1 20  1  0  0  0  0
  1 21  1  0  0  0  0
  2  3  1  0  0  0  0
  3  4  1  0  0  0  0
  3 22  1  0  0  0  0
  3 23  1  0  0  0  0
  4  5  1  0  0  0  0
  4 24  1  0  0  0  0
  4 25  1  0  0  0  0
  5  6  1  0  0  0  0
  6 11  1  0  0  0  0
  6  7  2  0  0  0  0
  7  8  1  0  0  0  0
  8  9  2  0  0  0  0
  8 26  1  0  0  0  0
  9 10  1  0  0  0  0
  9 27  1  0  0  0  0
 10 11  2  0  0  0  0
 10 28  1  0  0  0  0
 11 12  1  0  0  0  0
 12 13  1  0  0  0  0
 12 29  1  0  0  0  0
 12 30  1  0  0  0  0
 13 14  1  0  0  0  0
 13 31  1  0  0  0  0
 14 15  2  0  0  0  0
 14 16  1  0  0  0  0
 16 18  1  0  0  0  0
 16 17  1  0  0  0  0
 16 32  1  0  0  0  0
 17 18  1  0  0  0  0
 17 33  1  0  0  0  0
 17 34  1  0  0  0  0
 18 35  1  0  0  0  0
 18 36  1  0  0  0  0
M  END
> <s_m_source_file>
AV-unprocessed.smi

> <i_m_source_file_index>
1482

> <i_lp_mmshare_version>
43012

> <i_f3d_flags>
0

> <s_epik_input>
W0NIM11PW0NIMl1bQ0gyXU9jMW5bY0hdW2NIXVtjSF1jMVtDSDJdW05IXUMoPU8pW0NIXTJbQ0gyXVtDSDJdMg==

> <s_epik_cmdline>
J2VwaWtfcHl0aG9uJywgJy1waCcsICc3LjAnLCAnLXRuJywgJzgnLCAnLW1hJywgJzIwMCcsICctbWV0YWxfYmluZGluZycsICctaW1hZScsICc8aW5maWxlLm1hZT4nLCAnLW9tYWUnLCAnPG91dGZpbGUubWFlPic=

> <r_lp_tautomer_probability>
1

> <r_epik_Ionization_Penalty>
6.12052e-05

> <r_epik_Ionization_Penalty_Charging>
0

> <r_epik_Ionization_Penalty_Neutral>
6.12052e-05

> <r_epik_State_Penalty>
-0

> <r_epik_Charging_Adjusted_Penalty>
0

> <i_epik_Tot_Q>
0

> <i_epik_Tot_abs_Q>
0

> <r_epik_Metal_State_Penalty>
-0

> <b_epik_Metal_Only>
0

> <s_lp_Force_Field>
OPLS_2005

> <r_lp_Energy>
6.94905

> <b_lp_Chiralities_Consistent>
1

> <s_lp_Variant>
AV-unprocessed.smi:1482-1

> <Gold.Version>
5.8.1

> <Gold.Id.Protein>
6NUR|6NUR_protein|mol2

> <Gold.PLP.Fitness>
47.0187

> <Gold.PLP.PLP>
-39.1015

> <Gold.PLP.part.hbond>
-3.0000

> <Gold.PLP.part.metal>
0.0000

> <Gold.PLP.part.buried>
-0.2138

> <Gold.PLP.part.nonpolar>
-35.7445

> <Gold.PLP.part.repulsive>
0.1744

> <Gold.PLP.ligand.clash>
0.0000

> <Gold.PLP.ligand.torsion>
0.6260

> <Gold.PLP.Chemscore.Hbond>
2.9833

> <Gold.PLP.Chemscore.CHOScore>
0.0000

> <Gold.PLP.Chemscore.Metal>
0.0000

> <Gold.Chemscore.Hbonds>
donor molecule, donor type, donor heavy atom, donor atom, acceptor molecule, acceptor atom, score
      L1  H    13    31       P1  8028  0.87
      P1  H  7989  7998       L1    15  1.00
      P1  H  7997  8009       L1     2  0.99

> <Gold.PLP.Chemscore.Internal.Correction>
0.2191

> <Gold.Rescore>
     Score         DG    S(hbond)    S(metal)    S(lipo)     H(rot)  DE(clash)    DE(int)     intcor
     17.47     -18.97       2.40        0.00      95.35       2.21       0.95       0.55       ----

> <Gold.Chemscore.Fitness>
17.4735

> <Gold.Chemscore.DG>
-18.9702

> <Gold.Chemscore.ZeroCoef>
-5.4800

> <Gold.Chemscore.Hbond>
2.3955

> <Gold.Chemscore.Metal>
0.0000

> <Gold.Chemscore.Lipo>
95.3477

> <Gold.Chemscore.Internal_Hbond>
0.0000

> <Gold.Chemscore.DEClash>
0.9503

> <Gold.Chemscore.DEInternal>
0.5464

> <Gold.Chemscore.Rot>
2.2134

> <Gold.Chemscore.Internal.Correction>
   9.000000E+99

> <Gold.Chemscore.Hbonds>
donor molecule, donor type, donor heavy atom, donor atom, acceptor molecule, acceptor atom, score
      L1  H    13    31       P1  8028  0.81
      P1  H  7989  7998       L1    15  0.38
      P1  H  7997  8009       L1     2  0.79

> <Gold.Chemscore.Hbond.Weighted>
-8.0008

> <Gold.Chemscore.Metal.Weighted>
-0.0000

> <Gold.Chemscore.Lipo.Weighted>
-11.1557

> <Gold.Chemscore.Internal_Hbond.Weighted>
0.0000

> <Gold.Chemscore.DEClash.Weighted>
0.9503

> <Gold.Chemscore.DEInternal.Weighted>
0.5464

> <Gold.Chemscore.Rot.Weighted>
5.6663

> <Gold.Chemscore.Internal.Correction.Weighted>
   9.000000E+99

> <Gold.Protein.RotatedTorsions>
[ 6907 6896 6895 6894 ] final  -84.93 input  -60.11 | X-H torsion
[ 7974 7965 7964 7962 ] final  159.71 input  175.53 | X-H torsion
[ 8008 7997 7996 7995 ] final  108.90 input   59.86 | X-H torsion
[ 10167 10162 10161 10158 ] final  -13.44 input  -65.29 | X-H torsion
[ 10718 10713 10712 10709 ] final  -64.91 input   66.30 | X-H torsion
[ 10763 10752 10751 10750 ] final  -89.35 input  -60.55 | X-H torsion
[ 11005 11000 10999 10996 ] final  158.36 input  -57.11 | X-H torsion

> <Gold.Protein.ActiveResidues>
 VAL166  LYS551  ARG553  GLY616  TRP617  ASP618  TYR619  PRO620  LYS621  CYS622 
 ASP623  PHE694  ASN695  SER759  ASP760  ASP761  ALA762  ILE779  LEU786  VAL792 
 PHE793  MET794  SER795  GLU796  ALA797  LYS798  CYS799  TRP800  GLU811  SER814 

> <Gold.Protein.RotatedAtoms>
  150.6873  134.3282  159.4815 H   0  0  0  0  0  0  0  0  0  0  0  0  # atno 6907 bound_to 6896
  152.1150  134.9244  160.0574 H   0  0  0  0  0  0  0  0  0  0  0  0  # atno 6908 bound_to 6896
  152.0472  133.3968  159.4399 H   0  0  0  0  0  0  0  0  0  0  0  0  # atno 6909 bound_to 6896
  144.7775  139.7656  143.6273 H   0  0  0  0  0  0  0  0  0  0  0  0  # atno 7974 bound_to 7965
  156.1938  140.3068  155.9386 H   0  0  0  0  0  0  0  0  0  0  0  0  # atno 8008 bound_to 7997
  155.3113  140.0451  157.3052 H   0  0  0  0  0  0  0  0  0  0  0  0  # atno 8009 bound_to 7997
  154.5484  140.2284  155.8534 H   0  0  0  0  0  0  0  0  0  0  0  0  # atno 8010 bound_to 7997
  140.7182  143.5426  150.9392 H   0  0  0  0  0  0  0  0  0  0  0  0  # atno 10167 bound_to 10162
  156.0701  130.4240  150.1488 H   0  0  0  0  0  0  0  0  0  0  0  0  # atno 10718 bound_to 10713
  154.6543  135.5344  153.7940 H   0  0  0  0  0  0  0  0  0  0  0  0  # atno 10763 bound_to 10752
  153.0404  135.6490  154.0969 H   0  0  0  0  0  0  0  0  0  0  0  0  # atno 10764 bound_to 10752
  154.0883  135.2942  155.3256 H   0  0  0  0  0  0  0  0  0  0  0  0  # atno 10765 bound_to 10752
  140.1857  134.8443  157.2855 H   0  0  0  0  0  0  0  0  0  0  0  0  # atno 11005 bound_to 11000
  146.1964  139.5233  142.9772 LP  0  0  0  0  0  0  0  0  0  0  0  0  # atno 17320 bound_to 7965
  145.6143  141.0334  143.1949 LP  0  0  0  0  0  0  0  0  0  0  0  0  # atno 17321 bound_to 7965
  139.9149  143.6675  152.3108 LP  0  0  0  0  0  0  0  0  0  0  0  0  # atno 17342 bound_to 10162
  139.7072  144.7626  151.1173 LP  0  0  0  0  0  0  0  0  0  0  0  0  # atno 17343 bound_to 10162
  156.9540  130.9784  151.3492 LP  0  0  0  0  0  0  0  0  0  0  0  0  # atno 17370 bound_to 10713
  157.5766  130.8347  149.8465 LP  0  0  0  0  0  0  0  0  0  0  0  0  # atno 17371 bound_to 10713
  140.2216  134.4016  155.7563 LP  0  0  0  0  0  0  0  0  0  0  0  0  # atno 17394 bound_to 11000
  141.2225  133.7169  156.8499 LP  0  0  0  0  0  0  0  0  0  0  0  0  # atno 17395 bound_to 11000

$$$$
