AV-unprocessed.smi:1278|AV-procd|sdf|5354|dock6
  -GOLD-   22720 4493D 1   1.00000     0.00000
 Structure written by MMmdl.
 38 39  0  0  0  0  0  0  0  0  3 V2000
  151.8621  145.0446  159.3420 C   0  0  0  0  0  0  0  0  0  0  0  0
  152.2956  143.6043  159.0343 C   0  0  1  0  0  0  0  0  0  0  0  0
  153.0135  142.9658  160.2349 C   0  0  0  0  0  0  0  0  0  0  0  0
  153.4112  141.5211  159.9084 C   0  0  0  0  0  0  0  0  0  0  0  0
  152.1907  140.7033  159.4580 C   0  0  0  0  0  0  0  0  0  0  0  0
  151.5169  141.3401  158.2969 N   0  3  1  0  0  0  0  0  0  0  0  0
  150.4130  140.5046  157.7632 C   0  0  0  0  0  0  0  0  0  0  0  0
  150.8021  139.0175  157.6616 C   0  0  0  0  0  0  0  0  0  0  0  0
  149.6851  138.1522  158.0210 N   0  0  0  0  0  0  0  0  0  0  0  0
  149.7313  137.1365  158.8947 C   0  0  0  0  0  0  0  0  0  0  0  0
  150.7930  136.8575  159.4569 O   0  0  0  0  0  0  0  0  0  0  0  0
  148.5438  136.5150  159.0680 N   0  5  0  0  0  0  0  0  0  0  0  0
  148.2265  135.9954  160.2651 C   0  0  0  0  0  0  0  0  0  0  0  0
  148.1059  136.7343  161.3739 N   0  0  0  0  0  0  0  0  0  0  0  0
  147.7760  135.9863  162.5058 C   0  0  0  0  0  0  0  0  0  0  0  0
  147.6487  134.6462  162.2540 C   0  0  0  0  0  0  0  0  0  0  0  0
  147.9450  134.2805  160.5783 S   0  0  0  0  0  0  0  0  0  0  0  0
  151.0973  142.7340  158.6043 C   0  0  0  0  0  0  0  0  0  0  0  0
  151.1516  145.0778  160.1688 H   0  0  0  0  0  0  0  0  0  0  0  0
  151.3855  145.5051  158.4760 H   0  0  0  0  0  0  0  0  0  0  0  0
  152.7182  145.6631  159.6135 H   0  0  0  0  0  0  0  0  0  0  0  0
  152.9991  143.6447  158.2012 H   0  0  0  0  0  0  0  0  0  0  0  0
  153.8998  143.5440  160.4991 H   0  0  0  0  0  0  0  0  0  0  0  0
  152.3611  142.9775  161.1093 H   0  0  0  0  0  0  0  0  0  0  0  0
  154.1659  141.5172  159.1206 H   0  0  0  0  0  0  0  0  0  0  0  0
  153.8713  141.0550  160.7802 H   0  0  0  0  0  0  0  0  0  0  0  0
  152.5168  139.6973  159.1902 H   0  0  0  0  0  0  0  0  0  0  0  0
  151.4810  140.5992  160.2804 H   0  0  0  0  0  0  0  0  0  0  0  0
  149.5525  140.5897  158.4279 H   0  0  0  0  0  0  0  0  0  0  0  0
  150.0890  140.8895  156.7948 H   0  0  0  0  0  0  0  0  0  0  0  0
  151.0955  138.7594  156.6448 H   0  0  0  0  0  0  0  0  0  0  0  0
  151.6613  138.7998  158.2984 H   0  0  0  0  0  0  0  0  0  0  0  0
  148.7975  138.3406  157.5781 H   0  0  0  0  0  0  0  0  0  0  0  0
  147.6511  136.4908  163.4522 H   0  0  0  0  0  0  0  0  0  0  0  0
  147.4030  133.8558  162.9470 H   0  0  0  0  0  0  0  0  0  0  0  0
  150.3410  142.7190  159.3910 H   0  0  0  0  0  0  0  0  0  0  0  0
  150.6295  143.1837  157.7291 H   0  0  0  0  0  0  0  0  0  0  0  0
  152.2106  141.3924  157.5647 H   0  0  0  0  0  0  0  0  0  0  0  0
  1  2  1  0  0  0  0
  1 19  1  0  0  0  0
  1 20  1  0  0  0  0
  1 21  1  0  0  0  0
  2 18  1  0  0  0  0
  2  3  1  0  0  0  0
  2 22  1  0  0  0  0
  3  4  1  0  0  0  0
  3 23  1  0  0  0  0
  3 24  1  0  0  0  0
  4  5  1  0  0  0  0
  4 25  1  0  0  0  0
  4 26  1  0  0  0  0
  5  6  1  0  0  0  0
  5 27  1  0  0  0  0
  5 28  1  0  0  0  0
  6  7  1  0  0  0  0
  6 18  1  0  0  0  0
  6 38  1  0  0  0  0
  7  8  1  0  0  0  0
  7 29  1  0  0  0  0
  7 30  1  0  0  0  0
  8  9  1  0  0  0  0
  8 31  1  0  0  0  0
  8 32  1  0  0  0  0
  9 10  1  0  0  0  0
  9 33  1  0  0  0  0
 10 11  2  0  0  0  0
 10 12  1  0  0  0  0
 12 13  1  0  0  0  0
 13 17  1  0  0  0  0
 13 14  2  0  0  0  0
 14 15  1  0  0  0  0
 15 16  2  0  0  0  0
 15 34  1  0  0  0  0
 16 17  1  0  0  0  0
 16 35  1  0  0  0  0
 18 36  1  0  0  0  0
 18 37  1  0  0  0  0
M  CHG  1   6   1
M  CHG  1  12  -1
M  END
> <s_m_source_file>
AV-unprocessed.smi

> <i_m_source_file_index>
1278

> <i_lp_mmshare_version>
43012

> <i_f3d_flags>
0

> <s_epik_input>
W0NIM11bQ0BASF0xW0NIMl1bQ0gyXVtDSDJdTihbQ0gyXTEpW0NIMl1bQ0gyXVtOSF1DKD1PKVtOSF1jMm5bY0hdW2NIXXMy

> <s_epik_cmdline>
J2VwaWtfcHl0aG9uJywgJy1waCcsICc3LjAnLCAnLXRuJywgJzgnLCAnLW1hJywgJzIwMCcsICctbWV0YWxfYmluZGluZycsICctaW1hZScsICc8aW5maWxlLm1hZT4nLCAnLW9tYWUnLCAnPG91dGZpbGUubWFlPic=

> <r_lp_tautomer_probability>
0.999

> <r_epik_Ionization_Penalty>
6.22019

> <r_epik_Ionization_Penalty_Charging>
5.38911

> <r_epik_Ionization_Penalty_Neutral>
0.831074

> <r_epik_State_Penalty>
5.38904

> <r_epik_Charging_Adjusted_Penalty>
10.7782

> <i_epik_Tot_Q>
0

> <i_epik_Tot_abs_Q>
2

> <r_epik_Metal_State_Penalty>
1.41502

> <b_epik_Metal_Only>
1

> <s_lp_Force_Field>
OPLS_2005

> <r_lp_Energy>
5.28715

> <b_lp_Chiralities_Consistent>
1

> <s_lp_Variant>
AV-unprocessed.smi:1278-8

> <Gold.Version>
5.8.1

> <Gold.Id.Protein>
6NUR|6NUR_protein|mol2

> <Gold.PLP.Fitness>
48.0545

> <Gold.PLP.PLP>
-42.3774

> <Gold.PLP.part.hbond>
-3.2180

> <Gold.PLP.part.metal>
0.0000

> <Gold.PLP.part.buried>
-5.1532

> <Gold.PLP.part.nonpolar>
-34.2819

> <Gold.PLP.part.repulsive>
0.2055

> <Gold.PLP.ligand.clash>
0.0000

> <Gold.PLP.ligand.torsion>
1.2057

> <Gold.PLP.Chemscore.Hbond>
2.6820

> <Gold.PLP.Chemscore.CHOScore>
0.0000

> <Gold.PLP.Chemscore.Metal>
0.0000

> <Gold.Chemscore.Hbonds>
donor molecule, donor type, donor heavy atom, donor atom, acceptor molecule, acceptor atom, score
      P1  H  6896  6909       L1    11  1.00
      P1  H  6931  6943       L1    14  1.00

> <Gold.PLP.Chemscore.Internal.Correction>
0.0425

> <Gold.Rescore>
     Score         DG    S(hbond)    S(metal)    S(lipo)     H(rot)  DE(clash)    DE(int)     intcor
     19.78     -21.05       2.47        0.00      96.80       1.57       0.08       1.19       ----

> <Gold.Chemscore.Fitness>
19.7801

> <Gold.Chemscore.DG>
-21.0488

> <Gold.Chemscore.ZeroCoef>
-5.4800

> <Gold.Chemscore.Hbond>
2.4719

> <Gold.Chemscore.Metal>
0.0000

> <Gold.Chemscore.Lipo>
96.7997

> <Gold.Chemscore.Internal_Hbond>
0.0000

> <Gold.Chemscore.DEClash>
0.0801

> <Gold.Chemscore.DEInternal>
1.1886

> <Gold.Chemscore.Rot>
1.5676

> <Gold.Chemscore.Internal.Correction>
   9.000000E+99

> <Gold.Chemscore.Hbonds>
donor molecule, donor type, donor heavy atom, donor atom, acceptor molecule, acceptor atom, score
      P1  H  6896  6909       L1    11  0.99
      P1  H  6931  6943       L1    14  0.70
      P1  H  6934  6947       L1    14  0.01

> <Gold.Chemscore.Hbond.Weighted>
-8.2562

> <Gold.Chemscore.Metal.Weighted>
-0.0000

> <Gold.Chemscore.Lipo.Weighted>
-11.3256

> <Gold.Chemscore.Internal_Hbond.Weighted>
0.0000

> <Gold.Chemscore.DEClash.Weighted>
0.0801

> <Gold.Chemscore.DEInternal.Weighted>
1.1886

> <Gold.Chemscore.Rot.Weighted>
4.0130

> <Gold.Chemscore.Internal.Correction.Weighted>
   9.000000E+99

> <Gold.Protein.RotatedTorsions>
[ 6907 6896 6895 6894 ] final  100.04 input  -60.11 | X-H torsion
[ 7974 7965 7964 7962 ] final  -90.78 input  175.53 | X-H torsion
[ 8008 7997 7996 7995 ] final  -86.86 input   59.86 | X-H torsion
[ 10167 10162 10161 10158 ] final -165.08 input  -65.29 | X-H torsion
[ 10718 10713 10712 10709 ] final  161.08 input   66.30 | X-H torsion
[ 10763 10752 10751 10750 ] final   80.55 input  -60.55 | X-H torsion
[ 11005 11000 10999 10996 ] final   28.85 input  -57.11 | X-H torsion

> <Gold.Protein.ActiveResidues>
 VAL166  LYS551  ARG553  GLY616  TRP617  ASP618  TYR619  PRO620  LYS621  CYS622 
 ASP623  PHE694  ASN695  SER759  ASP760  ASP761  ALA762  ILE779  LEU786  VAL792 
 PHE793  MET794  SER795  GLU796  ALA797  LYS798  CYS799  TRP800  GLU811  SER814 

> <Gold.Protein.RotatedAtoms>
  152.5380  134.0338  159.8036 H   0  0  0  0  0  0  0  0  0  0  0  0  # atno 6907 bound_to 6896
  151.0504  133.5621  159.2650 H   0  0  0  0  0  0  0  0  0  0  0  0  # atno 6908 bound_to 6896
  151.2557  135.0645  159.9133 H   0  0  0  0  0  0  0  0  0  0  0  0  # atno 6909 bound_to 6896
  145.4219  140.9551  143.2176 H   0  0  0  0  0  0  0  0  0  0  0  0  # atno 7974 bound_to 7965
  154.6567  140.0573  157.0016 H   0  0  0  0  0  0  0  0  0  0  0  0  # atno 8008 bound_to 7997
  155.1290  140.3254  155.4460 H   0  0  0  0  0  0  0  0  0  0  0  0  # atno 8009 bound_to 7997
  156.2600  140.1984  156.6410 H   0  0  0  0  0  0  0  0  0  0  0  0  # atno 8010 bound_to 7997
  139.6207  144.0631  152.1929 H   0  0  0  0  0  0  0  0  0  0  0  0  # atno 10167 bound_to 10162
  157.1415  131.0542  151.2324 H   0  0  0  0  0  0  0  0  0  0  0  0  # atno 10718 bound_to 10713
  153.1043  135.4798  154.8923 H   0  0  0  0  0  0  0  0  0  0  0  0  # atno 10763 bound_to 10752
  154.7413  135.3083  154.8726 H   0  0  0  0  0  0  0  0  0  0  0  0  # atno 10764 bound_to 10752
  153.9333  135.6842  153.4798 H   0  0  0  0  0  0  0  0  0  0  0  0  # atno 10765 bound_to 10752
  140.3112  134.2647  155.7734 H   0  0  0  0  0  0  0  0  0  0  0  0  # atno 11005 bound_to 11000
  144.8240  139.5742  143.6974 LP  0  0  0  0  0  0  0  0  0  0  0  0  # atno 17320 bound_to 7965
  146.2652  139.6503  142.9334 LP  0  0  0  0  0  0  0  0  0  0  0  0  # atno 17321 bound_to 7965
  140.0272  144.6108  150.7518 LP  0  0  0  0  0  0  0  0  0  0  0  0  # atno 17342 bound_to 10162
  140.7380  143.2772  151.3705 LP  0  0  0  0  0  0  0  0  0  0  0  0  # atno 17343 bound_to 10162
  157.4302  130.7486  149.6984 LP  0  0  0  0  0  0  0  0  0  0  0  0  # atno 17370 bound_to 10713
  155.9787  130.4048  150.3629 LP  0  0  0  0  0  0  0  0  0  0  0  0  # atno 17371 bound_to 10713
  141.2108  133.7709  156.9910 LP  0  0  0  0  0  0  0  0  0  0  0  0  # atno 17394 bound_to 11000
  140.1023  134.9528  157.1942 LP  0  0  0  0  0  0  0  0  0  0  0  0  # atno 17395 bound_to 11000

$$$$
