AV-unprocessed.smi:54|AV-procd|sdf|543|dock9
  -GOLD-   2262016433D 1   1.00000     0.00000
 Structure written by MMmdl.
 44 46  0  0  0  0  0  0  0  0  1 V2000
  152.5247  145.3867  159.5869 C   0  0  0  0  0  0  0  0  0  0  0  0
  151.2134  144.7327  159.1230 C   0  0  0  0  0  0  0  0  0  0  0  0
  150.1378  144.7998  160.2195 C   0  0  0  0  0  0  0  0  0  0  0  0
  151.4576  143.2818  158.6928 C   0  0  0  0  0  0  0  0  0  0  0  0
  151.9452  142.4477  159.4569 O   0  0  0  0  0  0  0  0  0  0  0  0
  151.0686  142.9635  157.3300 N   0  0  0  0  0  0  0  0  0  0  0  0
  151.1674  141.7681  156.7031 C   0  0  0  0  0  0  0  0  0  0  0  0
  150.3794  141.4062  155.7008 N   0  0  0  0  0  0  0  0  0  0  0  0
  150.6408  140.1650  155.1896 C   0  0  0  0  0  0  0  0  0  0  0  0
  151.6108  139.2861  155.6227 C   0  0  0  0  0  0  0  0  0  0  0  0
  151.5721  138.1208  154.8671 N   0  0  0  0  0  0  0  0  0  0  0  0
  150.6046  138.3268  154.0174 C   0  0  0  0  0  0  0  0  0  0  0  0
  149.9931  139.5550  154.1359 N   0  0  0  0  0  0  0  0  0  0  0  0
  148.8506  140.1438  153.3568 C   0  0  2  0  0  0  0  0  0  0  0  0
  148.6702  141.4649  153.7639 O   0  0  0  0  0  0  0  0  0  0  0  0
  147.6590  141.5702  154.7747 C   0  0  1  0  0  0  0  0  0  0  0  0
  146.6429  142.6249  154.3046 C   0  0  0  0  0  0  0  0  0  0  0  0
  145.4650  142.5424  155.0783 O   0  0  0  0  0  0  0  0  0  0  0  0
  147.0350  140.1650  154.9041 C   0  0  2  0  0  0  0  0  0  0  0  0
  147.4918  139.5482  156.0950 O   0  0  0  0  0  0  0  0  0  0  0  0
  147.5191  139.4444  153.6520 C   0  0  2  0  0  0  0  0  0  0  0  0
  147.5800  138.0356  153.7885 O   0  0  0  0  0  0  0  0  0  0  0  0
  152.4641  139.6574  156.7142 C   0  0  0  0  0  0  0  0  0  0  0  0
  153.3705  139.0060  157.2289 O   0  0  0  0  0  0  0  0  0  0  0  0
  152.1700  140.9372  157.2030 N   0  0  0  0  0  0  0  0  0  0  0  0
  149.1680  140.0832  152.3151 H   0  0  0  0  0  0  0  0  0  0  0  0
  148.1001  141.8836  155.7224 H   0  0  0  0  0  0  0  0  0  0  0  0
  145.9455  140.1884  154.9444 H   0  0  0  0  0  0  0  0  0  0  0  0
  146.8477  139.6821  152.8260 H   0  0  0  0  0  0  0  0  0  0  0  0
  153.2886  145.3391  158.8096 H   0  0  0  0  0  0  0  0  0  0  0  0
  152.9242  144.8985  160.4770 H   0  0  0  0  0  0  0  0  0  0  0  0
  152.3711  146.4387  159.8290 H   0  0  0  0  0  0  0  0  0  0  0  0
  150.8469  145.2874  158.2579 H   0  0  0  0  0  0  0  0  0  0  0  0
  149.2117  144.3226  159.8972 H   0  0  0  0  0  0  0  0  0  0  0  0
  149.9018  145.8343  160.4704 H   0  0  0  0  0  0  0  0  0  0  0  0
  150.4658  144.3055  161.1352 H   0  0  0  0  0  0  0  0  0  0  0  0
  150.6653  143.7209  156.7986 H   0  0  0  0  0  0  0  0  0  0  0  0
  150.3201  137.5855  153.2862 H   0  0  0  0  0  0  0  0  0  0  0  0
  147.0607  143.6309  154.3526 H   0  0  0  0  0  0  0  0  0  0  0  0
  146.3587  142.4413  153.2682 H   0  0  0  0  0  0  0  0  0  0  0  0
  145.0420  143.3874  155.0735 H   0  0  0  0  0  0  0  0  0  0  0  0
  146.9984  138.7522  156.2244 H   0  0  0  0  0  0  0  0  0  0  0  0
  147.9191  137.6720  152.9844 H   0  0  0  0  0  0  0  0  0  0  0  0
  152.7363  141.2665  157.9711 H   0  0  0  0  0  0  0  0  0  0  0  0
  1  2  1  0  0  0  0
  1 30  1  0  0  0  0
  1 31  1  0  0  0  0
  1 32  1  0  0  0  0
  2  3  1  0  0  0  0
  2  4  1  0  0  0  0
  2 33  1  0  0  0  0
  3 34  1  0  0  0  0
  3 35  1  0  0  0  0
  3 36  1  0  0  0  0
  4  5  2  0  0  0  0
  4  6  1  0  0  0  0
  6 37  1  0  0  0  0
  6  7  1  0  0  0  0
  7 25  1  0  0  0  0
  7  8  2  0  0  0  0
  8  9  1  0  0  0  0
  9 13  1  0  0  0  0
  9 10  2  0  0  0  0
 10 11  1  0  0  0  0
 10 23  1  0  0  0  0
 11 12  2  0  0  0  0
 12 13  1  0  0  0  0
 12 38  1  0  0  0  0
 13 14  1  0  0  0  0
 14 26  1  0  0  0  0
 14 21  1  0  0  0  0
 14 15  1  0  0  0  0
 15 16  1  0  0  0  0
 16 27  1  0  0  0  0
 16 17  1  0  0  0  0
 16 19  1  0  0  0  0
 17 18  1  0  0  0  0
 17 39  1  0  0  0  0
 17 40  1  0  0  0  0
 18 41  1  0  0  0  0
 19 28  1  0  0  0  0
 19 20  1  0  0  0  0
 19 21  1  0  0  0  0
 20 42  1  0  0  0  0
 21 29  1  0  0  0  0
 21 22  1  0  0  0  0
 22 43  1  0  0  0  0
 23 24  2  0  0  0  0
 23 25  1  0  0  0  0
 25 44  1  0  0  0  0
M  END
> <s_m_source_file>
AV-unprocessed.smi

> <i_m_source_file_index>
54

> <i_lp_mmshare_version>
43012

> <i_f3d_flags>
0

> <s_epik_input>
W0NIM11bQ0hdKFtDSDNdKUMoPU8pW05IXWMobjEpW25IXWMoPU8pYyhjMTIpbltjSF1uMltDQEBIXTNPW0NASF0oW0NIMl1bT0hdKVtDQEBIXShbT0hdKVtDQEhdM1tPSF0=

> <s_epik_cmdline>
J2VwaWtfcHl0aG9uJywgJy1waCcsICc3LjAnLCAnLXRuJywgJzgnLCAnLW1hJywgJzIwMCcsICctbWV0YWxfYmluZGluZycsICctaW1hZScsICc8aW5maWxlLm1hZT4nLCAnLW9tYWUnLCAnPG91dGZpbGUubWFlPic=

> <r_lp_tautomer_probability>
0.85571

> <r_epik_Ionization_Penalty>
0.0316551

> <r_epik_Ionization_Penalty_Charging>
0.0316043

> <r_epik_Ionization_Penalty_Neutral>
5.07097e-05

> <r_epik_State_Penalty>
3.15494e-07

> <r_epik_Charging_Adjusted_Penalty>
0.0316047

> <i_epik_Tot_Q>
0

> <i_epik_Tot_abs_Q>
0

> <r_epik_Metal_State_Penalty>
0.421206

> <b_epik_Metal_Only>
0

> <s_epik_Chemistry_Notes>
This compound contains an acetal/aminal-like group ( X-CH(R)-Y where X, Y are N, S, or O) that may be acid/base labile, releasing an aldehyde.

> <s_lp_Force_Field>
OPLS_2005

> <r_lp_Energy>
46.2687

> <b_lp_Chiralities_Consistent>
1

> <s_lp_Variant>
AV-unprocessed.smi:54-15

> <Gold.Version>
5.8.1

> <Gold.Id.Protein>
6NUR|6NUR_protein|mol2

> <Gold.PLP.Fitness>
54.1883

> <Gold.PLP.PLP>
-40.7194

> <Gold.PLP.part.hbond>
-4.2610

> <Gold.PLP.part.metal>
0.0000

> <Gold.PLP.part.buried>
0.5746

> <Gold.PLP.part.nonpolar>
-36.1493

> <Gold.PLP.part.repulsive>
0.6390

> <Gold.PLP.ligand.clash>
0.0000

> <Gold.PLP.ligand.torsion>
0.4085

> <Gold.PLP.Chemscore.Hbond>
3.6817

> <Gold.PLP.Chemscore.CHOScore>
1.0323

> <Gold.PLP.Chemscore.Metal>
0.0000

> <Gold.Chemscore.Hbonds>
donor molecule, donor type, donor heavy atom, donor atom, acceptor molecule, acceptor atom, score
      L1  H     6    37       P1  8028  0.28
      L1  H    22    43       P1  7948  0.84
      P1  H  7997  8009       L1    24  1.00
      P1  H  8011  8017       L1    15  0.69
      L1  C    12    38       P1  7948  0.79
      L1  C    12    38       P1  7949  0.31

> <Gold.PLP.Chemscore.Internal.Correction>
0.1439

> <Gold.Rescore>
     Score         DG    S(hbond)    S(metal)    S(lipo)     H(rot)  DE(clash)    DE(int)     intcor
      5.04     -12.44       2.99        0.00      62.75       4.05       3.46       3.94       ----

> <Gold.Chemscore.Fitness>
5.0359

> <Gold.Chemscore.DG>
-12.4390

> <Gold.Chemscore.ZeroCoef>
-5.4800

> <Gold.Chemscore.Hbond>
2.9891

> <Gold.Chemscore.Metal>
0.0000

> <Gold.Chemscore.Lipo>
62.7484

> <Gold.Chemscore.Internal_Hbond>
0.0000

> <Gold.Chemscore.DEClash>
3.4640

> <Gold.Chemscore.DEInternal>
3.9391

> <Gold.Chemscore.Rot>
4.0493

> <Gold.Chemscore.Internal.Correction>
   9.000000E+99

> <Gold.Chemscore.Hbonds>
donor molecule, donor type, donor heavy atom, donor atom, acceptor molecule, acceptor atom, score
      L1  H     6    37       P1  8028  0.26
      L1  H    22    43       P1  7948  0.82
      P1  H  7997  8009       L1    24  0.24
      P1  H  8011  8017       L1    15  0.17

> <Gold.Chemscore.Hbond.Weighted>
-9.9837

> <Gold.Chemscore.Metal.Weighted>
-0.0000

> <Gold.Chemscore.Lipo.Weighted>
-7.3416

> <Gold.Chemscore.Internal_Hbond.Weighted>
0.0000

> <Gold.Chemscore.DEClash.Weighted>
3.4640

> <Gold.Chemscore.DEInternal.Weighted>
3.9391

> <Gold.Chemscore.Rot.Weighted>
10.3662

> <Gold.Chemscore.Internal.Correction.Weighted>
   9.000000E+99

> <Gold.Protein.RotatedTorsions>
[ 6907 6896 6895 6894 ] final  -95.50 input  -60.11 | X-H torsion
[ 7974 7965 7964 7962 ] final   76.25 input  175.53 | X-H torsion
[ 8008 7997 7996 7995 ] final  153.74 input   59.86 | X-H torsion
[ 10167 10162 10161 10158 ] final   -0.48 input  -65.29 | X-H torsion
[ 10718 10713 10712 10709 ] final   91.85 input   66.30 | X-H torsion
[ 10763 10752 10751 10750 ] final  -73.36 input  -60.55 | X-H torsion
[ 11005 11000 10999 10996 ] final  -57.00 input  -57.11 | X-H torsion

> <Gold.Protein.ActiveResidues>
 VAL166  LYS551  ARG553  GLY616  TRP617  ASP618  TYR619  PRO620  LYS621  CYS622 
 ASP623  PHE694  ASN695  SER759  ASP760  ASP761  ALA762  ILE779  LEU786  VAL792 
 PHE793  MET794  SER795  GLU796  ALA797  LYS798  CYS799  TRP800  GLU811  SER814 

> <Gold.Protein.RotatedAtoms>
  150.6965  134.1649  159.4189 H   0  0  0  0  0  0  0  0  0  0  0  0  # atno 6907 bound_to 6896
  151.9628  135.0113  160.0558 H   0  0  0  0  0  0  0  0  0  0  0  0  # atno 6908 bound_to 6896
  152.1911  133.4739  159.5045 H   0  0  0  0  0  0  0  0  0  0  0  0  # atno 6909 bound_to 6896
  145.7053  139.2596  143.1682 H   0  0  0  0  0  0  0  0  0  0  0  0  # atno 7974 bound_to 7965
  156.2567  140.1985  156.6537 H   0  0  0  0  0  0  0  0  0  0  0  0  # atno 8008 bound_to 7997
  154.6517  140.0571  156.9988 H   0  0  0  0  0  0  0  0  0  0  0  0  # atno 8009 bound_to 7997
  155.1408  140.3242  155.4455 H   0  0  0  0  0  0  0  0  0  0  0  0  # atno 8010 bound_to 7997
  140.6769  143.6889  150.8044 H   0  0  0  0  0  0  0  0  0  0  0  0  # atno 10167 bound_to 10162
  157.6960  131.0422  150.3792 H   0  0  0  0  0  0  0  0  0  0  0  0  # atno 10718 bound_to 10713
  154.4585  135.5899  153.6239 H   0  0  0  0  0  0  0  0  0  0  0  0  # atno 10763 bound_to 10752
  152.9820  135.6038  154.3516 H   0  0  0  0  0  0  0  0  0  0  0  0  # atno 10764 bound_to 10752
  154.3385  135.2842  155.2414 H   0  0  0  0  0  0  0  0  0  0  0  0  # atno 10765 bound_to 10752
  141.1145  133.6610  156.4704 H   0  0  0  0  0  0  0  0  0  0  0  0  # atno 11005 bound_to 11000
  146.0761  140.7815  142.9664 LP  0  0  0  0  0  0  0  0  0  0  0  0  # atno 17320 bound_to 7965
  144.6957  140.3417  143.7198 LP  0  0  0  0  0  0  0  0  0  0  0  0  # atno 17321 bound_to 7965
  140.0584  143.5180  152.2640 LP  0  0  0  0  0  0  0  0  0  0  0  0  # atno 17342 bound_to 10162
  139.6067  144.7598  151.3045 LP  0  0  0  0  0  0  0  0  0  0  0  0  # atno 17343 bound_to 10162
  156.4208  130.3952  149.6826 LP  0  0  0  0  0  0  0  0  0  0  0  0  # atno 17370 bound_to 10713
  156.4078  130.7707  151.2718 LP  0  0  0  0  0  0  0  0  0  0  0  0  # atno 17371 bound_to 10713
  140.4683  134.6777  157.5117 LP  0  0  0  0  0  0  0  0  0  0  0  0  # atno 17394 bound_to 11000
  140.0059  134.6765  155.9456 LP  0  0  0  0  0  0  0  0  0  0  0  0  # atno 17395 bound_to 11000

$$$$
