AV-unprocessed.smi:2260|AV-procd|sdf|9132|dock3
  -GOLD-   2272012333D 1   1.00000     0.00000
 Structure written by MMmdl.
 43 44  0  0  0  0  0  0  0  0  2 V2000
  148.7171  138.9688  154.0711 C   0  0  0  0  0  0  0  0  0  0  0  0
  150.1438  138.7799  154.5562 C   0  0  0  0  0  0  0  0  0  0  0  0
  151.0214  137.8937  154.0737 C   0  0  0  0  0  0  0  0  0  0  0  0
  152.5797  137.9889  154.8600 S   0  0  0  0  0  0  0  0  0  0  0  0
  151.9824  139.3294  155.9029 C   0  0  0  0  0  0  0  0  0  0  0  0
  152.6847  139.8886  156.7436 O   0  0  0  0  0  0  0  0  0  0  0  0
  150.6516  139.5878  155.5812 N   0  0  0  0  0  0  0  0  0  0  0  0
  149.8784  140.6247  156.2704 C   0  0  0  0  0  0  0  0  0  0  0  0
  150.5169  142.0098  156.0857 C   0  0  0  0  0  0  0  0  0  0  0  0
  150.3051  142.8485  157.2834 N   0  3  0  0  0  0  0  0  0  0  0  0
  151.4543  142.9370  158.2159 C   0  0  2  0  0  0  0  0  0  0  0  0
  151.6591  141.6071  158.9788 C   0  0  0  0  0  0  0  0  0  0  0  0
  152.8520  141.6838  159.9414 C   0  0  0  0  0  0  0  0  0  0  0  0
  152.7081  142.8602  160.9138 C   0  0  0  0  0  0  0  0  0  0  0  0
  152.5065  144.1828  160.1557 C   0  0  0  0  0  0  0  0  0  0  0  0
  151.3045  144.1585  159.1758 C   0  0  0  0  0  0  0  0  0  0  0  0
  151.3380  145.4700  158.3610 C   0  0  0  0  0  0  0  0  0  0  0  0
  149.9769  144.1181  159.9709 C   0  0  0  0  0  0  0  0  0  0  0  0
  148.5875  138.5097  153.0904 H   0  0  0  0  0  0  0  0  0  0  0  0
  148.4578  140.0228  153.9750 H   0  0  0  0  0  0  0  0  0  0  0  0
  148.0174  138.4956  154.7605 H   0  0  0  0  0  0  0  0  0  0  0  0
  150.8433  137.1821  153.2807 H   0  0  0  0  0  0  0  0  0  0  0  0
  148.8451  140.6295  155.9233 H   0  0  0  0  0  0  0  0  0  0  0  0
  149.8197  140.3867  157.3340 H   0  0  0  0  0  0  0  0  0  0  0  0
  151.5850  141.9024  155.8967 H   0  0  0  0  0  0  0  0  0  0  0  0
  150.0842  142.5052  155.2159 H   0  0  0  0  0  0  0  0  0  0  0  0
  150.1114  143.7855  156.9601 H   0  0  0  0  0  0  0  0  0  0  0  0
  152.3478  143.1093  157.6129 H   0  0  0  0  0  0  0  0  0  0  0  0
  150.7576  141.3419  159.5313 H   0  0  0  0  0  0  0  0  0  0  0  0
  151.8346  140.7892  158.2803 H   0  0  0  0  0  0  0  0  0  0  0  0
  152.9434  140.7504  160.4973 H   0  0  0  0  0  0  0  0  0  0  0  0
  153.7746  141.7942  159.3701 H   0  0  0  0  0  0  0  0  0  0  0  0
  151.8744  142.6814  161.5930 H   0  0  0  0  0  0  0  0  0  0  0  0
  153.5978  142.9287  161.5405 H   0  0  0  0  0  0  0  0  0  0  0  0
  152.3928  144.9972  160.8726 H   0  0  0  0  0  0  0  0  0  0  0  0
  153.4212  144.4012  159.6024 H   0  0  0  0  0  0  0  0  0  0  0  0
  151.3018  146.3421  159.0151 H   0  0  0  0  0  0  0  0  0  0  0  0
  150.4922  145.5469  157.6773 H   0  0  0  0  0  0  0  0  0  0  0  0
  152.2481  145.5490  157.7652 H   0  0  0  0  0  0  0  0  0  0  0  0
  149.9127  144.9545  160.6676 H   0  0  0  0  0  0  0  0  0  0  0  0
  149.8664  143.2060  160.5556 H   0  0  0  0  0  0  0  0  0  0  0  0
  149.1095  144.1865  159.3140 H   0  0  0  0  0  0  0  0  0  0  0  0
  149.4978  142.5137  157.7899 H   0  0  0  0  0  0  0  0  0  0  0  0
  1  2  1  0  0  0  0
  1 19  1  0  0  0  0
  1 20  1  0  0  0  0
  1 21  1  0  0  0  0
  2  7  1  0  0  0  0
  2  3  2  0  0  0  0
  3  4  1  0  0  0  0
  3 22  1  0  0  0  0
  4  5  1  0  0  0  0
  5  6  2  0  0  0  0
  5  7  1  0  0  0  0
  7  8  1  0  0  0  0
  8  9  1  0  0  0  0
  8 23  1  0  0  0  0
  8 24  1  0  0  0  0
  9 10  1  0  0  0  0
  9 25  1  0  0  0  0
  9 26  1  0  0  0  0
 10 11  1  0  0  0  0
 10 27  1  0  0  0  0
 10 43  1  0  0  0  0
 11 16  1  0  0  0  0
 11 12  1  0  0  0  0
 11 28  1  0  0  0  0
 12 13  1  0  0  0  0
 12 29  1  0  0  0  0
 12 30  1  0  0  0  0
 13 14  1  0  0  0  0
 13 31  1  0  0  0  0
 13 32  1  0  0  0  0
 14 15  1  0  0  0  0
 14 33  1  0  0  0  0
 14 34  1  0  0  0  0
 15 16  1  0  0  0  0
 15 35  1  0  0  0  0
 15 36  1  0  0  0  0
 16 17  1  0  0  0  0
 16 18  1  0  0  0  0
 17 37  1  0  0  0  0
 17 38  1  0  0  0  0
 17 39  1  0  0  0  0
 18 40  1  0  0  0  0
 18 41  1  0  0  0  0
 18 42  1  0  0  0  0
M  CHG  1  10   1
M  END
> <s_m_source_file>
AV-unprocessed.smi

> <i_m_source_file_index>
2260

> <i_lp_mmshare_version>
43012

> <i_f3d_flags>
0

> <s_epik_input>
W0NIM11jMVtjSF1zYyg9TyluMVtDSDJdW0NIMl1bTkhdW0NAQEhdKEMyKFtDSDNdKVtDSDNdKVtDSDJdW0NIMl1bQ0gyXVtDSDJdMg==

> <s_epik_cmdline>
J2VwaWtfcHl0aG9uJywgJy1waCcsICc3LjAnLCAnLXRuJywgJzgnLCAnLW1hJywgJzIwMCcsICctbWV0YWxfYmluZGluZycsICctaW1hZScsICc8aW5maWxlLm1hZT4nLCAnLW9tYWUnLCAnPG91dGZpbGUubWFlPic=

> <r_epik_Ionization_Penalty>
0.0114277

> <r_epik_Ionization_Penalty_Charging>
0.0114277

> <r_epik_Ionization_Penalty_Neutral>
2.57259e-08

> <r_epik_State_Penalty>
0.0087935

> <r_epik_Charging_Adjusted_Penalty>
0.0202212

> <i_epik_Tot_Q>
1

> <i_epik_Tot_abs_Q>
1

> <r_epik_Metal_State_Penalty>
0.0087935

> <b_epik_Metal_Only>
0

> <s_lp_Force_Field>
OPLS_2005

> <r_lp_Energy>
26.3368

> <b_lp_Chiralities_Consistent>
1

> <s_lp_Variant>
AV-unprocessed.smi:2260-1

> <Gold.Version>
5.8.1

> <Gold.Id.Protein>
6NUR|6NUR_protein|mol2

> <Gold.PLP.Fitness>
47.6315

> <Gold.PLP.PLP>
-37.7632

> <Gold.PLP.part.hbond>
-2.0000

> <Gold.PLP.part.metal>
0.0000

> <Gold.PLP.part.buried>
0.4927

> <Gold.PLP.part.nonpolar>
-35.7295

> <Gold.PLP.part.repulsive>
0.0101

> <Gold.PLP.ligand.clash>
0.0000

> <Gold.PLP.ligand.torsion>
0.6098

> <Gold.PLP.Chemscore.Hbond>
2.6320

> <Gold.PLP.Chemscore.CHOScore>
1.0602

> <Gold.PLP.Chemscore.Metal>
0.0000

> <Gold.Chemscore.Hbonds>
donor molecule, donor type, donor heavy atom, donor atom, acceptor molecule, acceptor atom, score
      L1  H    10    27       P1  8028  1.60
      P1  H  7997  8009       L1     6  1.00
      L1  C     3    22       P1  7948  0.15
      L1  C     3    22       P1  7949  0.85

> <Gold.PLP.Chemscore.Internal.Correction>
0.0115

> <Gold.Rescore>
     Score         DG    S(hbond)    S(metal)    S(lipo)     H(rot)  DE(clash)    DE(int)     intcor
     20.53     -22.39       1.78        0.00     125.94       1.48       1.29       0.56       ----

> <Gold.Chemscore.Fitness>
20.5312

> <Gold.Chemscore.DG>
-22.3871

> <Gold.Chemscore.ZeroCoef>
-5.4800

> <Gold.Chemscore.Hbond>
1.7835

> <Gold.Chemscore.Metal>
0.0000

> <Gold.Chemscore.Lipo>
125.9431

> <Gold.Chemscore.Internal_Hbond>
0.0000

> <Gold.Chemscore.DEClash>
1.2937

> <Gold.Chemscore.DEInternal>
0.5622

> <Gold.Chemscore.Rot>
1.4785

> <Gold.Chemscore.Internal.Correction>
   9.000000E+99

> <Gold.Chemscore.Hbonds>
donor molecule, donor type, donor heavy atom, donor atom, acceptor molecule, acceptor atom, score
      L1  H    10    27       P1  8028  0.76
      P1  H  7997  8009       L1     6  0.97

> <Gold.Chemscore.Hbond.Weighted>
-5.9567

> <Gold.Chemscore.Metal.Weighted>
-0.0000

> <Gold.Chemscore.Lipo.Weighted>
-14.7353

> <Gold.Chemscore.Internal_Hbond.Weighted>
0.0000

> <Gold.Chemscore.DEClash.Weighted>
1.2937

> <Gold.Chemscore.DEInternal.Weighted>
0.5622

> <Gold.Chemscore.Rot.Weighted>
3.7850

> <Gold.Chemscore.Internal.Correction.Weighted>
   9.000000E+99

> <Gold.Protein.RotatedTorsions>
[ 6907 6896 6895 6894 ] final   70.06 input  -60.11 | X-H torsion
[ 7974 7965 7964 7962 ] final  111.10 input  175.53 | X-H torsion
[ 8008 7997 7996 7995 ] final -166.16 input   59.86 | X-H torsion
[ 10167 10162 10161 10158 ] final  172.40 input  -65.29 | X-H torsion
[ 10718 10713 10712 10709 ] final  -20.12 input   66.30 | X-H torsion
[ 10763 10752 10751 10750 ] final -106.75 input  -60.55 | X-H torsion
[ 11005 11000 10999 10996 ] final  -63.09 input  -57.11 | X-H torsion

> <Gold.Protein.ActiveResidues>
 VAL166  LYS551  ARG553  GLY616  TRP617  ASP618  TYR619  PRO620  LYS621  CYS622 
 ASP623  PHE694  ASN695  SER759  ASP760  ASP761  ALA762  ILE779  LEU786  VAL792 
 PHE793  MET794  SER795  GLU796  ALA797  LYS798  CYS799  TRP800  GLU811  SER814 

> <Gold.Protein.RotatedAtoms>
  152.4726  134.4923  159.9698 H   0  0  0  0  0  0  0  0  0  0  0  0  # atno 6907 bound_to 6896
  151.4947  133.3511  159.2867 H   0  0  0  0  0  0  0  0  0  0  0  0  # atno 6908 bound_to 6896
  150.8745  134.8152  159.7241 H   0  0  0  0  0  0  0  0  0  0  0  0  # atno 6909 bound_to 6896
  145.2465  139.2757  143.4090 H   0  0  0  0  0  0  0  0  0  0  0  0  # atno 7974 bound_to 7965
  155.8599  140.0976  157.1620 H   0  0  0  0  0  0  0  0  0  0  0  0  # atno 8008 bound_to 7997
  154.3990  140.1367  156.4010 H   0  0  0  0  0  0  0  0  0  0  0  0  # atno 8009 bound_to 7997
  155.7868  140.3457  155.5330 H   0  0  0  0  0  0  0  0  0  0  0  0  # atno 8010 bound_to 7997
  139.5075  144.3378  152.0048 H   0  0  0  0  0  0  0  0  0  0  0  0  # atno 10167 bound_to 10162
  156.5363  130.4667  149.6521 H   0  0  0  0  0  0  0  0  0  0  0  0  # atno 10718 bound_to 10713
  154.8032  135.4700  154.0328 H   0  0  0  0  0  0  0  0  0  0  0  0  # atno 10763 bound_to 10752
  153.1817  135.6841  153.8476 H   0  0  0  0  0  0  0  0  0  0  0  0  # atno 10764 bound_to 10752
  153.8024  135.3228  155.3369 H   0  0  0  0  0  0  0  0  0  0  0  0  # atno 10765 bound_to 10752
  141.1381  133.6647  156.5627 H   0  0  0  0  0  0  0  0  0  0  0  0  # atno 11005 bound_to 11000
  146.3314  140.2843  142.8612 LP  0  0  0  0  0  0  0  0  0  0  0  0  # atno 17320 bound_to 7965
  144.9542  140.8209  143.5553 LP  0  0  0  0  0  0  0  0  0  0  0  0  # atno 17321 bound_to 7965
  140.2816  144.3853  150.6117 LP  0  0  0  0  0  0  0  0  0  0  0  0  # atno 17342 bound_to 10162
  140.6014  143.2167  151.7065 LP  0  0  0  0  0  0  0  0  0  0  0  0  # atno 17343 bound_to 10162
  156.3013  130.7178  151.2051 LP  0  0  0  0  0  0  0  0  0  0  0  0  # atno 17370 bound_to 10713
  157.7413  131.0505  150.5105 LP  0  0  0  0  0  0  0  0  0  0  0  0  # atno 17371 bound_to 10713
  140.3975  134.7385  157.4760 LP  0  0  0  0  0  0  0  0  0  0  0  0  # atno 17394 bound_to 11000
  140.0520  134.6117  155.8850 LP  0  0  0  0  0  0  0  0  0  0  0  0  # atno 17395 bound_to 11000

$$$$
