AV-unprocessed.smi:726|AV-procd|sdf|3511|dock5
  -GOLD-   22720 0513D 1   1.00000     0.00000
 Structure written by MMmdl.
 24 24  0  0  0  0  0  0  0  0  2 V2000
  152.8768  139.5333  158.7327 C   0  0  0  0  0  0  0  0  0  0  0  0
  152.0301  140.4228  157.8292 C   0  0  0  0  0  0  0  0  0  0  0  0
  151.7930  141.7001  158.1804 C   0  0  0  0  0  0  0  0  0  0  0  0
  151.0308  142.5568  157.3104 C   0  0  0  0  0  0  0  0  0  0  0  0
  150.7713  143.8206  157.6679 O   0  0  0  0  0  0  0  0  0  0  0  0
  150.5929  142.0808  156.1329 C   0  0  0  0  0  0  0  0  0  0  0  0
  150.8549  140.7055  155.7041 C   0  0  0  0  0  0  0  0  0  0  0  0
  150.4807  140.3203  154.5967 O   0  0  0  0  0  0  0  0  0  0  0  0
  151.5312  139.8974  156.5925 N   0  0  0  0  0  0  0  0  0  0  0  0
  151.7011  138.4443  156.2825 C   0  0  1  0  0  0  0  0  0  0  0  0
  150.3909  137.6268  156.4101 C   0  0  0  0  0  0  0  0  0  0  0  0
  152.4825  138.2108  154.9766 C   0  0  0  0  0  0  0  0  0  0  0  0
  151.9897  137.4342  154.1288 O   0  0  0  0  0  0  0  0  0  0  0  0
  153.5673  138.8200  154.8478 O   0  5  0  0  0  0  0  0  0  0  0  0
  153.3491  140.1190  159.5220 H   0  0  0  0  0  0  0  0  0  0  0  0
  153.6818  139.0493  158.1800 H   0  0  0  0  0  0  0  0  0  0  0  0
  152.2612  138.7744  159.2165 H   0  0  0  0  0  0  0  0  0  0  0  0
  152.1858  142.0928  159.1071 H   0  0  0  0  0  0  0  0  0  0  0  0
  150.1154  144.1538  157.0749 H   0  0  0  0  0  0  0  0  0  0  0  0
  150.0264  142.7271  155.4777 H   0  0  0  0  0  0  0  0  0  0  0  0
  152.3182  137.9594  157.0319 H   0  0  0  0  0  0  0  0  0  0  0  0
  150.6023  136.5581  156.3601 H   0  0  0  0  0  0  0  0  0  0  0  0
  149.6656  137.8348  155.6248 H   0  0  0  0  0  0  0  0  0  0  0  0
  149.9081  137.8144  157.3694 H   0  0  0  0  0  0  0  0  0  0  0  0
  1  2  1  0  0  0  0
  1 15  1  0  0  0  0
  1 16  1  0  0  0  0
  1 17  1  0  0  0  0
  2  9  1  0  0  0  0
  2  3  2  0  0  0  0
  3  4  1  0  0  0  0
  3 18  1  0  0  0  0
  4  5  1  0  0  0  0
  4  6  2  0  0  0  0
  5 19  1  0  0  0  0
  6  7  1  0  0  0  0
  6 20  1  0  0  0  0
  7  8  2  0  0  0  0
  7  9  1  0  0  0  0
  9 10  1  0  0  0  0
 10 11  1  0  0  0  0
 10 12  1  0  0  0  0
 10 21  1  0  0  0  0
 11 22  1  0  0  0  0
 11 23  1  0  0  0  0
 11 24  1  0  0  0  0
 12 13  2  0  0  0  0
 12 14  1  0  0  0  0
M  CHG  1  14  -1
M  END
> <s_m_source_file>
AV-unprocessed.smi

> <i_m_source_file_index>
726

> <i_lp_mmshare_version>
43012

> <i_f3d_flags>
0

> <s_epik_input>
W0NIM11jMVtjSF1jKFtPSF0pW2NIXWMoPU8pbjFbQ0BIXShbQ0gzXSlDKD1PKVtPSF0=

> <s_epik_cmdline>
J2VwaWtfcHl0aG9uJywgJy1waCcsICc3LjAnLCAnLXRuJywgJzgnLCAnLW1hJywgJzIwMCcsICctbWV0YWxfYmluZGluZycsICctaW1hZScsICc8aW5maWxlLm1hZT4nLCAnLW9tYWUnLCAnPG91dGZpbGUubWFlPic=

> <r_lp_tautomer_probability>
0.999984

> <r_epik_Ionization_Penalty>
0.316948

> <r_epik_Ionization_Penalty_Charging>
0.000813874

> <r_epik_Ionization_Penalty_Neutral>
0.316134

> <r_epik_State_Penalty>
0.363429

> <r_epik_Charging_Adjusted_Penalty>
0.364242

> <i_epik_Tot_Q>
-1

> <i_epik_Tot_abs_Q>
1

> <r_epik_Metal_State_Penalty>
0.363429

> <b_epik_Metal_Only>
0

> <s_lp_Force_Field>
OPLS_2005

> <r_lp_Energy>
20.5014

> <b_lp_Chiralities_Consistent>
1

> <s_lp_Variant>
AV-unprocessed.smi:726-2

> <Gold.Version>
5.8.1

> <Gold.Id.Protein>
6NUR|6NUR_protein|mol2

> <Gold.PLP.Fitness>
42.4987

> <Gold.PLP.PLP>
-24.7378

> <Gold.PLP.part.hbond>
-4.0000

> <Gold.PLP.part.metal>
0.0000

> <Gold.PLP.part.buried>
-4.4236

> <Gold.PLP.part.nonpolar>
-17.8065

> <Gold.PLP.part.repulsive>
0.6067

> <Gold.PLP.ligand.clash>
0.0000

> <Gold.PLP.ligand.torsion>
0.2424

> <Gold.PLP.Chemscore.Hbond>
5.9840

> <Gold.PLP.Chemscore.CHOScore>
0.0000

> <Gold.PLP.Chemscore.Metal>
0.0000

> <Gold.Chemscore.Hbonds>
donor molecule, donor type, donor heavy atom, donor atom, acceptor molecule, acceptor atom, score
      L1  H     5    19       P1  8028  1.00
      P1  H  7989  7998       L1     8  1.00
      P1  H  7997  8010       L1    14  1.98
      P1  H 10752 10765       L1    13  1.92

> <Gold.PLP.Chemscore.Internal.Correction>
0.2936

> <Gold.Rescore>
     Score         DG    S(hbond)    S(metal)    S(lipo)     H(rot)  DE(clash)    DE(int)     intcor
     15.40     -16.40       3.25        0.00      45.46       2.06       0.02       0.98       ----

> <Gold.Chemscore.Fitness>
15.4000

> <Gold.Chemscore.DG>
-16.3964

> <Gold.Chemscore.ZeroCoef>
-5.4800

> <Gold.Chemscore.Hbond>
3.2541

> <Gold.Chemscore.Metal>
0.0000

> <Gold.Chemscore.Lipo>
45.4624

> <Gold.Chemscore.Internal_Hbond>
0.0000

> <Gold.Chemscore.DEClash>
0.0161

> <Gold.Chemscore.DEInternal>
0.9804

> <Gold.Chemscore.Rot>
2.0592

> <Gold.Chemscore.Internal.Correction>
   9.000000E+99

> <Gold.Chemscore.Hbonds>
donor molecule, donor type, donor heavy atom, donor atom, acceptor molecule, acceptor atom, score
      L1  H     5    19       P1  8028  0.88
      P1  H  7989  7998       L1     8  0.54
      P1  H  7997  8010       L1    14  0.94
      P1  H 10752 10765       L1    13  0.66

> <Gold.Chemscore.Hbond.Weighted>
-10.8688

> <Gold.Chemscore.Metal.Weighted>
-0.0000

> <Gold.Chemscore.Lipo.Weighted>
-5.3191

> <Gold.Chemscore.Internal_Hbond.Weighted>
0.0000

> <Gold.Chemscore.DEClash.Weighted>
0.0161

> <Gold.Chemscore.DEInternal.Weighted>
0.9804

> <Gold.Chemscore.Rot.Weighted>
5.2715

> <Gold.Chemscore.Internal.Correction.Weighted>
   9.000000E+99

> <Gold.Protein.RotatedTorsions>
[ 6907 6896 6895 6894 ] final  -72.93 input  -60.11 | X-H torsion
[ 7974 7965 7964 7962 ] final  115.94 input  175.53 | X-H torsion
[ 8008 7997 7996 7995 ] final  104.60 input   59.86 | X-H torsion
[ 10167 10162 10161 10158 ] final   29.85 input  -65.29 | X-H torsion
[ 10718 10713 10712 10709 ] final  108.62 input   66.30 | X-H torsion
[ 10763 10752 10751 10750 ] final  151.76 input  -60.55 | X-H torsion
[ 11005 11000 10999 10996 ] final   61.24 input  -57.11 | X-H torsion

> <Gold.Protein.ActiveResidues>
 VAL166  LYS551  ARG553  GLY616  TRP617  ASP618  TYR619  PRO620  LYS621  CYS622 
 ASP623  PHE694  ASN695  SER759  ASP760  ASP761  ALA762  ILE779  LEU786  VAL792 
 PHE793  MET794  SER795  GLU796  ALA797  LYS798  CYS799  TRP800  GLU811  SER814 

> <Gold.Protein.RotatedAtoms>
  150.7150  134.5090  159.5597 H   0  0  0  0  0  0  0  0  0  0  0  0  # atno 6907 bound_to 6896
  152.2671  134.7970  160.0430 H   0  0  0  0  0  0  0  0  0  0  0  0  # atno 6908 bound_to 6896
  151.8663  133.3431  159.3757 H   0  0  0  0  0  0  0  0  0  0  0  0  # atno 6909 bound_to 6896
  145.1858  139.3026  143.4394 H   0  0  0  0  0  0  0  0  0  0  0  0  # atno 7974 bound_to 7965
  156.1587  140.3145  155.8769 H   0  0  0  0  0  0  0  0  0  0  0  0  # atno 8008 bound_to 7997
  155.3827  140.0488  157.3060 H   0  0  0  0  0  0  0  0  0  0  0  0  # atno 8009 bound_to 7997
  154.5125  140.2170  155.9139 H   0  0  0  0  0  0  0  0  0  0  0  0  # atno 8010 bound_to 7997
  140.4730  144.0734  150.6242 H   0  0  0  0  0  0  0  0  0  0  0  0  # atno 10167 bound_to 10162
  157.6578  131.0897  150.6332 H   0  0  0  0  0  0  0  0  0  0  0  0  # atno 10718 bound_to 10713
  154.1091  135.2840  155.3234 H   0  0  0  0  0  0  0  0  0  0  0  0  # atno 10763 bound_to 10752
  154.6502  135.5371  153.7896 H   0  0  0  0  0  0  0  0  0  0  0  0  # atno 10764 bound_to 10752
  153.0352  135.6508  154.1250 H   0  0  0  0  0  0  0  0  0  0  0  0  # atno 10765 bound_to 10752
  140.0175  134.6203  155.9688 H   0  0  0  0  0  0  0  0  0  0  0  0  # atno 11005 bound_to 11000
  146.3445  140.2053  142.8589 LP  0  0  0  0  0  0  0  0  0  0  0  0  # atno 17320 bound_to 7965
  145.0091  140.8698  143.5235 LP  0  0  0  0  0  0  0  0  0  0  0  0  # atno 17321 bound_to 7965
  140.3954  143.2731  152.0011 LP  0  0  0  0  0  0  0  0  0  0  0  0  # atno 17342 bound_to 10162
  139.4821  144.6043  151.7550 LP  0  0  0  0  0  0  0  0  0  0  0  0  # atno 17343 bound_to 10162
  156.6637  130.4519  149.5679 LP  0  0  0  0  0  0  0  0  0  0  0  0  # atno 17370 bound_to 10713
  156.2048  130.6642  151.1206 LP  0  0  0  0  0  0  0  0  0  0  0  0  # atno 17371 bound_to 10713
  141.1752  133.6540  156.4802 LP  0  0  0  0  0  0  0  0  0  0  0  0  # atno 17394 bound_to 11000
  140.4446  134.6985  157.5009 LP  0  0  0  0  0  0  0  0  0  0  0  0  # atno 17395 bound_to 11000

$$$$
