AV-unprocessed.smi:1531|AV-procd|sdf|6159|dock1
  -GOLD-   22720 6303D 1   1.00000     0.00000
 Structure written by MMmdl.
 44 45  0  0  0  0  0  0  0  0  1 V2000
  151.8019  145.7582  160.3948 C   0  0  0  0  0  0  0  0  0  0  0  0
  151.4148  144.8184  159.2440 C   0  0  0  0  0  0  0  0  0  0  0  0
  152.2732  143.5329  159.1522 C   0  0  1  0  0  0  0  0  0  0  0  0
  153.0958  143.3057  160.4425 C   0  0  0  0  0  0  0  0  0  0  0  0
  153.9400  142.0243  160.3786 C   0  0  0  0  0  0  0  0  0  0  0  0
  153.0636  140.7994  160.0920 C   0  0  0  0  0  0  0  0  0  0  0  0
  152.2628  140.9949  158.7987 C   0  0  0  0  0  0  0  0  0  0  0  0
  151.4104  142.2800  158.8425 C   0  0  2  0  0  0  0  0  0  0  0  0
  150.7152  142.4326  157.5652 N   0  0  0  0  0  0  0  0  0  0  0  0
  150.0331  141.4683  156.9309 C   0  0  0  0  0  0  0  0  0  0  0  0
  149.9135  140.3207  157.3601 O   0  0  0  0  0  0  0  0  0  0  0  0
  149.5119  141.9188  155.7786 N   0  0  0  0  0  0  0  0  0  0  0  0
  148.7031  141.1982  154.8649 C   0  0  0  0  0  0  0  0  0  0  0  0
  147.8834  141.6850  153.8077 C   0  0  0  0  0  0  0  0  0  0  0  0
  147.2886  140.6880  153.1698 N   0  0  0  0  0  0  0  0  0  0  0  0
  147.7125  139.5629  153.7982 N   0  0  0  0  0  0  0  0  0  0  0  0
  147.2468  138.2652  153.3420 C   0  0  0  0  0  0  0  0  0  0  0  0
  146.3341  138.4016  152.1218 C   0  0  0  0  0  0  0  0  0  0  0  0
  145.0209  138.2628  152.3233 N   0  0  0  0  0  0  0  0  0  0  0  0
  146.8092  138.6281  151.0111 O   0  0  0  0  0  0  0  0  0  0  0  0
  148.5763  139.8420  154.8397 C   0  0  0  0  0  0  0  0  0  0  0  0
  151.2328  146.6863  160.3394 H   0  0  0  0  0  0  0  0  0  0  0  0
  152.8603  146.0164  160.3555 H   0  0  0  0  0  0  0  0  0  0  0  0
  151.5975  145.3136  161.3685 H   0  0  0  0  0  0  0  0  0  0  0  0
  150.3604  144.5537  159.3306 H   0  0  0  0  0  0  0  0  0  0  0  0
  151.5030  145.3888  158.3195 H   0  0  0  0  0  0  0  0  0  0  0  0
  152.9776  143.6617  158.3286 H   0  0  0  0  0  0  0  0  0  0  0  0
  153.7628  144.1480  160.6235 H   0  0  0  0  0  0  0  0  0  0  0  0
  152.4251  143.2544  161.3013 H   0  0  0  0  0  0  0  0  0  0  0  0
  154.6993  142.1237  159.6019 H   0  0  0  0  0  0  0  0  0  0  0  0
  154.4752  141.8854  161.3183 H   0  0  0  0  0  0  0  0  0  0  0  0
  153.6843  139.9064  160.0138 H   0  0  0  0  0  0  0  0  0  0  0  0
  152.3805  140.6315  160.9255 H   0  0  0  0  0  0  0  0  0  0  0  0
  152.9498  141.0360  157.9522 H   0  0  0  0  0  0  0  0  0  0  0  0
  151.6233  140.1267  158.6339 H   0  0  0  0  0  0  0  0  0  0  0  0
  150.6760  142.1777  159.6442 H   0  0  0  0  0  0  0  0  0  0  0  0
  150.7589  143.3444  157.1338 H   0  0  0  0  0  0  0  0  0  0  0  0
  149.7060  142.8787  155.5338 H   0  0  0  0  0  0  0  0  0  0  0  0
  147.7005  142.6974  153.4798 H   0  0  0  0  0  0  0  0  0  0  0  0
  148.1142  137.6524  153.0924 H   0  0  0  0  0  0  0  0  0  0  0  0
  146.7174  137.7576  154.1502 H   0  0  0  0  0  0  0  0  0  0  0  0
  144.3813  138.3366  151.5452 H   0  0  0  0  0  0  0  0  0  0  0  0
  144.6727  138.0760  153.2525 H   0  0  0  0  0  0  0  0  0  0  0  0
  149.0156  139.0681  155.4520 H   0  0  0  0  0  0  0  0  0  0  0  0
  1  2  1  0  0  0  0
  1 22  1  0  0  0  0
  1 23  1  0  0  0  0
  1 24  1  0  0  0  0
  2  3  1  0  0  0  0
  2 25  1  0  0  0  0
  2 26  1  0  0  0  0
  3  8  1  0  0  0  0
  3  4  1  0  0  0  0
  3 27  1  0  0  0  0
  4  5  1  0  0  0  0
  4 28  1  0  0  0  0
  4 29  1  0  0  0  0
  5  6  1  0  0  0  0
  5 30  1  0  0  0  0
  5 31  1  0  0  0  0
  6  7  1  0  0  0  0
  6 32  1  0  0  0  0
  6 33  1  0  0  0  0
  7  8  1  0  0  0  0
  7 34  1  0  0  0  0
  7 35  1  0  0  0  0
  8  9  1  0  0  0  0
  8 36  1  0  0  0  0
  9 10  1  0  0  0  0
  9 37  1  0  0  0  0
 10 11  2  0  0  0  0
 10 12  1  0  0  0  0
 12 13  1  0  0  0  0
 12 38  1  0  0  0  0
 13 21  2  0  0  0  0
 13 14  1  0  0  0  0
 14 15  2  0  0  0  0
 14 39  1  0  0  0  0
 15 16  1  0  0  0  0
 16 17  1  0  0  0  0
 16 21  1  0  0  0  0
 17 18  1  0  0  0  0
 17 40  1  0  0  0  0
 17 41  1  0  0  0  0
 18 19  1  0  0  0  0
 18 20  2  0  0  0  0
 19 42  1  0  0  0  0
 19 43  1  0  0  0  0
 21 44  1  0  0  0  0
M  END
> <s_m_source_file>
AV-unprocessed.smi

> <i_m_source_file_index>
1531

> <i_lp_mmshare_version>
43012

> <i_f3d_flags>
0

> <s_epik_input>
W0NIM11bQ0gyXVtDQEBIXTFbQ0gyXVtDSDJdW0NIMl1bQ0gyXVtDQEhdMVtOSF1DKD1PKVtOSF1jMltjSF1ubihbY0hdMilbQ0gyXUMoPU8pW05IMl0=

> <s_epik_cmdline>
J2VwaWtfcHl0aG9uJywgJy1waCcsICc3LjAnLCAnLXRuJywgJzgnLCAnLW1hJywgJzIwMCcsICctbWV0YWxfYmluZGluZycsICctaW1hZScsICc8aW5maWxlLm1hZT4nLCAnLW9tYWUnLCAnPG91dGZpbGUubWFlPic=

> <r_lp_tautomer_probability>
1

> <r_epik_Ionization_Penalty>
4.83437e-05

> <r_epik_Ionization_Penalty_Charging>
0

> <r_epik_Ionization_Penalty_Neutral>
4.83437e-05

> <r_epik_State_Penalty>
-0

> <r_epik_Charging_Adjusted_Penalty>
0

> <i_epik_Tot_Q>
0

> <i_epik_Tot_abs_Q>
0

> <r_epik_Metal_State_Penalty>
-0

> <b_epik_Metal_Only>
0

> <s_lp_Force_Field>
OPLS_2005

> <r_lp_Energy>
14.9038

> <b_lp_Chiralities_Consistent>
1

> <s_lp_Variant>
AV-unprocessed.smi:1531-4

> <Gold.Version>
5.8.1

> <Gold.Id.Protein>
6NUR|6NUR_protein|mol2

> <Gold.PLP.Fitness>
49.6193

> <Gold.PLP.PLP>
-43.2330

> <Gold.PLP.part.hbond>
-4.0000

> <Gold.PLP.part.metal>
0.0000

> <Gold.PLP.part.buried>
-6.1274

> <Gold.PLP.part.nonpolar>
-35.1882

> <Gold.PLP.part.repulsive>
0.9957

> <Gold.PLP.ligand.clash>
0.0000

> <Gold.PLP.ligand.torsion>
1.0048

> <Gold.PLP.Chemscore.Hbond>
2.7920

> <Gold.PLP.Chemscore.CHOScore>
0.0000

> <Gold.PLP.Chemscore.Metal>
0.0000

> <Gold.Chemscore.Hbonds>
donor molecule, donor type, donor heavy atom, donor atom, acceptor molecule, acceptor atom, score
      L1  H    12    38       P1  8028  0.82
      L1  H    19    42       P1 10171  1.00
      P1  H  7954  7966       L1    20  0.98

> <Gold.PLP.Chemscore.Internal.Correction>
0.0200

> <Gold.Rescore>
     Score         DG    S(hbond)    S(metal)    S(lipo)     H(rot)  DE(clash)    DE(int)     intcor
     17.83     -21.77       2.81        0.00     105.61       2.13       0.25       3.70       ----

> <Gold.Chemscore.Fitness>
17.8262

> <Gold.Chemscore.DG>
-21.7749

> <Gold.Chemscore.ZeroCoef>
-5.4800

> <Gold.Chemscore.Hbond>
2.8143

> <Gold.Chemscore.Metal>
0.0000

> <Gold.Chemscore.Lipo>
105.6141

> <Gold.Chemscore.Internal_Hbond>
0.0000

> <Gold.Chemscore.DEClash>
0.2516

> <Gold.Chemscore.DEInternal>
3.6970

> <Gold.Chemscore.Rot>
2.1335

> <Gold.Chemscore.Internal.Correction>
   9.000000E+99

> <Gold.Chemscore.Hbonds>
donor molecule, donor type, donor heavy atom, donor atom, acceptor molecule, acceptor atom, score
      L1  H    12    38       P1  8028  0.77
      L1  H    19    42       P1 10171  0.99
      P1  H  7954  7966       L1    20  0.93

> <Gold.Chemscore.Hbond.Weighted>
-9.3999

> <Gold.Chemscore.Metal.Weighted>
-0.0000

> <Gold.Chemscore.Lipo.Weighted>
-12.3568

> <Gold.Chemscore.Internal_Hbond.Weighted>
0.0000

> <Gold.Chemscore.DEClash.Weighted>
0.2516

> <Gold.Chemscore.DEInternal.Weighted>
3.6970

> <Gold.Chemscore.Rot.Weighted>
5.4618

> <Gold.Chemscore.Internal.Correction.Weighted>
   9.000000E+99

> <Gold.Protein.RotatedTorsions>
[ 6907 6896 6895 6894 ] final   -0.20 input  -60.11 | X-H torsion
[ 7974 7965 7964 7962 ] final   52.04 input  175.53 | X-H torsion
[ 8008 7997 7996 7995 ] final  179.53 input   59.86 | X-H torsion
[ 10167 10162 10161 10158 ] final -141.82 input  -65.29 | X-H torsion
[ 10718 10713 10712 10709 ] final -106.10 input   66.30 | X-H torsion
[ 10763 10752 10751 10750 ] final  148.84 input  -60.55 | X-H torsion
[ 11005 11000 10999 10996 ] final   80.00 input  -57.11 | X-H torsion

> <Gold.Protein.ActiveResidues>
 VAL166  LYS551  ARG553  GLY616  TRP617  ASP618  TYR619  PRO620  LYS621  CYS622 
 ASP623  PHE694  ASN695  SER759  ASP760  ASP761  ALA762  ILE779  LEU786  VAL792 
 PHE793  MET794  SER795  GLU796  ALA797  LYS798  CYS799  TRP800  GLU811  SER814 

> <Gold.Protein.RotatedAtoms>
  151.5660  135.1064  159.9983 H   0  0  0  0  0  0  0  0  0  0  0  0  # atno 6907 bound_to 6896
  152.4424  133.7468  159.6682 H   0  0  0  0  0  0  0  0  0  0  0  0  # atno 6908 bound_to 6896
  150.8332  133.7988  159.3114 H   0  0  0  0  0  0  0  0  0  0  0  0  # atno 6909 bound_to 6896
  145.9853  139.4283  143.0107 H   0  0  0  0  0  0  0  0  0  0  0  0  # atno 7974 bound_to 7965
  156.0423  140.1306  157.0142 H   0  0  0  0  0  0  0  0  0  0  0  0  # atno 8008 bound_to 7997
  154.4397  140.1027  156.6326 H   0  0  0  0  0  0  0  0  0  0  0  0  # atno 8009 bound_to 7997
  155.5648  140.3465  155.4502 H   0  0  0  0  0  0  0  0  0  0  0  0  # atno 8010 bound_to 7997
  139.8148  143.7654  152.2664 H   0  0  0  0  0  0  0  0  0  0  0  0  # atno 10167 bound_to 10162
  156.0375  130.5596  150.7633 H   0  0  0  0  0  0  0  0  0  0  0  0  # atno 10718 bound_to 10713
  154.0614  135.2874  155.3324 H   0  0  0  0  0  0  0  0  0  0  0  0  # atno 10763 bound_to 10752
  154.6806  135.5265  153.8261 H   0  0  0  0  0  0  0  0  0  0  0  0  # atno 10764 bound_to 10752
  153.0521  135.6580  154.0803 H   0  0  0  0  0  0  0  0  0  0  0  0  # atno 10765 bound_to 10752
  139.9151  134.7886  156.1852 H   0  0  0  0  0  0  0  0  0  0  0  0  # atno 11005 bound_to 11000
  145.7710  140.9896  143.1149 LP  0  0  0  0  0  0  0  0  0  0  0  0  # atno 17320 bound_to 7965
  144.6873  139.9447  143.7476 LP  0  0  0  0  0  0  0  0  0  0  0  0  # atno 17321 bound_to 7965
  139.7814  144.7443  151.0083 LP  0  0  0  0  0  0  0  0  0  0  0  0  # atno 17342 bound_to 10162
  140.7816  143.4538  151.0375 LP  0  0  0  0  0  0  0  0  0  0  0  0  # atno 17343 bound_to 10162
  157.5147  131.0928  151.0154 LP  0  0  0  0  0  0  0  0  0  0  0  0  # atno 17370 bound_to 10713
  157.0501  130.5783  149.5369 LP  0  0  0  0  0  0  0  0  0  0  0  0  # atno 17371 bound_to 10713
  141.0618  133.6838  156.1967 LP  0  0  0  0  0  0  0  0  0  0  0  0  # atno 17394 bound_to 11000
  140.6649  134.4929  157.5585 LP  0  0  0  0  0  0  0  0  0  0  0  0  # atno 17395 bound_to 11000

$$$$
