AV-unprocessed.smi:2720|AV-procd|sdf|10499|dock7
  -GOLD-   2272014543D 1   1.00000     0.00000
 Structure written by MMmdl.
 32 33  0  0  0  0  0  0  0  0  3 V2000
  146.6321  135.9251  152.8786 O   0  0  0  0  0  0  0  0  0  0  0  0
  145.7710  136.7463  152.1095 C   0  0  0  0  0  0  0  0  0  0  0  0
  145.5416  136.0182  150.7578 C   0  0  0  0  0  0  0  0  0  0  0  0
  145.1042  134.5645  150.8695 C   0  0  0  0  0  0  0  0  0  0  0  0
  145.9836  133.5157  150.5165 C   0  0  0  0  0  0  0  0  0  0  0  0
  145.5441  132.1806  150.6294 C   0  0  0  0  0  0  0  0  0  0  0  0
  144.2942  131.9186  151.0700 N   0  3  0  0  0  0  0  0  0  0  0  0
  143.4213  132.8900  151.4151 C   0  0  0  0  0  0  0  0  0  0  0  0
  143.8049  134.2435  151.3218 C   0  0  0  0  0  0  0  0  0  0  0  0
  144.4352  136.8896  152.8760 C   0  0  0  0  0  0  0  0  0  0  0  0
  144.5825  137.6803  154.1896 C   0  0  0  0  0  0  0  0  0  0  0  0
  145.1947  139.0018  153.9409 N   0  3  0  0  0  0  0  0  0  0  0  0
  146.5203  138.9033  153.2958 C   0  0  0  0  0  0  0  0  0  0  0  0
  146.4307  138.1411  151.9595 C   0  0  0  0  0  0  0  0  0  0  0  0
  147.5272  136.1760  152.7051 H   0  0  0  0  0  0  0  0  0  0  0  0
  144.8244  136.5645  150.1428 H   0  0  0  0  0  0  0  0  0  0  0  0
  146.4711  136.0259  150.1870 H   0  0  0  0  0  0  0  0  0  0  0  0
  146.9828  133.7274  150.1645 H   0  0  0  0  0  0  0  0  0  0  0  0
  146.1497  131.3210  150.3817 H   0  0  0  0  0  0  0  0  0  0  0  0
  142.4501  132.5579  151.7519 H   0  0  0  0  0  0  0  0  0  0  0  0
  143.1095  135.0238  151.5958 H   0  0  0  0  0  0  0  0  0  0  0  0
  143.7090  137.4036  152.2443 H   0  0  0  0  0  0  0  0  0  0  0  0
  144.0100  135.9067  153.0836 H   0  0  0  0  0  0  0  0  0  0  0  0
  143.6067  137.8246  154.6537 H   0  0  0  0  0  0  0  0  0  0  0  0
  145.1936  137.1288  154.9054 H   0  0  0  0  0  0  0  0  0  0  0  0
  144.5812  139.5364  153.3425 H   0  0  0  0  0  0  0  0  0  0  0  0
  146.9088  139.9085  153.1304 H   0  0  0  0  0  0  0  0  0  0  0  0
  147.2135  138.4054  153.9750 H   0  0  0  0  0  0  0  0  0  0  0  0
  147.4318  138.0539  151.5356 H   0  0  0  0  0  0  0  0  0  0  0  0
  145.8515  138.7383  151.2536 H   0  0  0  0  0  0  0  0  0  0  0  0
  145.2941  139.4870  154.8215 H   0  0  0  0  0  0  0  0  0  0  0  0
  143.9960  130.9454  151.1437 H   0  0  0  0  0  0  0  0  0  0  0  0
  1  2  1  0  0  0  0
  1 15  1  0  0  0  0
  2 14  1  0  0  0  0
  2  3  1  0  0  0  0
  2 10  1  0  0  0  0
  3  4  1  0  0  0  0
  3 16  1  0  0  0  0
  3 17  1  0  0  0  0
  4  9  1  0  0  0  0
  4  5  2  0  0  0  0
  5  6  1  0  0  0  0
  5 18  1  0  0  0  0
  6  7  2  0  0  0  0
  6 19  1  0  0  0  0
  7  8  1  0  0  0  0
  7 32  1  0  0  0  0
  8  9  2  0  0  0  0
  8 20  1  0  0  0  0
  9 21  1  0  0  0  0
 10 11  1  0  0  0  0
 10 22  1  0  0  0  0
 10 23  1  0  0  0  0
 11 12  1  0  0  0  0
 11 24  1  0  0  0  0
 11 25  1  0  0  0  0
 12 13  1  0  0  0  0
 12 26  1  0  0  0  0
 12 31  1  0  0  0  0
 13 14  1  0  0  0  0
 13 27  1  0  0  0  0
 13 28  1  0  0  0  0
 14 29  1  0  0  0  0
 14 30  1  0  0  0  0
M  CHG  1   7   1
M  CHG  1  12   1
M  END
> <s_m_source_file>
AV-unprocessed.smi

> <i_m_source_file_index>
2720

> <i_lp_mmshare_version>
43012

> <i_f3d_flags>
0

> <s_epik_input>
W0NIMl0xW0NIMl1bTkhdW0NIMl1bQ0gyXUMxKFtPSF0pW0NIMl1jMltjSF1bY0hdbltjSF1bY0hdMg==

> <s_epik_cmdline>
J2VwaWtfcHl0aG9uJywgJy1waCcsICc3LjAnLCAnLXRuJywgJzgnLCAnLW1hJywgJzIwMCcsICctbWV0YWxfYmluZGluZycsICctaW1hZScsICc8aW5maWxlLm1hZT4nLCAnLW9tYWUnLCAnPG91dGZpbGUubWFlPic=

> <r_epik_Ionization_Penalty>
1.30405

> <r_epik_Ionization_Penalty_Charging>
1.30405

> <r_epik_Ionization_Penalty_Neutral>
5.30574e-07

> <r_epik_State_Penalty>
1.37793

> <r_epik_Charging_Adjusted_Penalty>
2.68198

> <i_epik_Tot_Q>
2

> <i_epik_Tot_abs_Q>
2

> <r_epik_Metal_State_Penalty>
5.40982

> <b_epik_Metal_Only>
0

> <s_lp_Force_Field>
OPLS_2005

> <r_lp_Energy>
28.3784

> <b_lp_Chiralities_Consistent>
1

> <s_lp_Variant>
AV-unprocessed.smi:2720-2

> <Gold.Version>
5.8.1

> <Gold.Id.Protein>
6NUR|6NUR_protein|mol2

> <Gold.PLP.Fitness>
34.6726

> <Gold.PLP.PLP>
-25.9932

> <Gold.PLP.part.hbond>
-1.9656

> <Gold.PLP.part.metal>
0.0000

> <Gold.PLP.part.buried>
-1.9163

> <Gold.PLP.part.nonpolar>
-22.6116

> <Gold.PLP.part.repulsive>
0.0581

> <Gold.PLP.ligand.clash>
0.0000

> <Gold.PLP.ligand.torsion>
0.1620

> <Gold.PLP.Chemscore.Hbond>
3.0000

> <Gold.PLP.Chemscore.CHOScore>
0.0000

> <Gold.PLP.Chemscore.Metal>
0.0000

> <Gold.Chemscore.Hbonds>
donor molecule, donor type, donor heavy atom, donor atom, acceptor molecule, acceptor atom, score
      L1  H     1    15       P1  7948  1.00
      L1  H    12    26       P1 10175  2.00

> <Gold.PLP.Chemscore.Internal.Correction>
0.0035

> <Gold.Rescore>
     Score         DG    S(hbond)    S(metal)    S(lipo)     H(rot)  DE(clash)    DE(int)     intcor
     15.54     -15.76       1.98        0.00      67.96       1.67       0.02       0.20       ----

> <Gold.Chemscore.Fitness>
15.5379

> <Gold.Chemscore.DG>
-15.7566

> <Gold.Chemscore.ZeroCoef>
-5.4800

> <Gold.Chemscore.Hbond>
1.9755

> <Gold.Chemscore.Metal>
0.0000

> <Gold.Chemscore.Lipo>
67.9608

> <Gold.Chemscore.Internal_Hbond>
0.0000

> <Gold.Chemscore.DEClash>
0.0156

> <Gold.Chemscore.DEInternal>
0.2031

> <Gold.Chemscore.Rot>
1.6691

> <Gold.Chemscore.Internal.Correction>
   9.000000E+99

> <Gold.Chemscore.Hbonds>
donor molecule, donor type, donor heavy atom, donor atom, acceptor molecule, acceptor atom, score
      L1  H     1    15       P1  7948  0.98
      L1  H    12    26       P1 10175  0.96

> <Gold.Chemscore.Hbond.Weighted>
-6.5981

> <Gold.Chemscore.Metal.Weighted>
-0.0000

> <Gold.Chemscore.Lipo.Weighted>
-7.9514

> <Gold.Chemscore.Internal_Hbond.Weighted>
0.0000

> <Gold.Chemscore.DEClash.Weighted>
0.0156

> <Gold.Chemscore.DEInternal.Weighted>
0.2031

> <Gold.Chemscore.Rot.Weighted>
4.2728

> <Gold.Chemscore.Internal.Correction.Weighted>
   9.000000E+99

> <Gold.Protein.RotatedTorsions>
[ 6907 6896 6895 6894 ] final   82.26 input  -60.11 | X-H torsion
[ 7974 7965 7964 7962 ] final  -35.79 input  175.53 | X-H torsion
[ 8008 7997 7996 7995 ] final  126.51 input   59.86 | X-H torsion
[ 10167 10162 10161 10158 ] final -124.14 input  -65.29 | X-H torsion
[ 10718 10713 10712 10709 ] final   18.34 input   66.30 | X-H torsion
[ 10763 10752 10751 10750 ] final   43.16 input  -60.55 | X-H torsion
[ 11005 11000 10999 10996 ] final    0.01 input  -57.11 | X-H torsion

> <Gold.Protein.ActiveResidues>
 VAL166  LYS551  ARG553  GLY616  TRP617  ASP618  TYR619  PRO620  LYS621  CYS622 
 ASP623  PHE694  ASN695  SER759  ASP760  ASP761  ALA762  ILE779  LEU786  VAL792 
 PHE793  MET794  SER795  GLU796  ALA797  LYS798  CYS799  TRP800  GLU811  SER814 

> <Gold.Protein.RotatedAtoms>
  152.5294  134.3077  159.9101 H   0  0  0  0  0  0  0  0  0  0  0  0  # atno 6907 bound_to 6896
  151.3027  133.4109  159.2648 H   0  0  0  0  0  0  0  0  0  0  0  0  # atno 6908 bound_to 6896
  151.0105  134.9410  159.8062 H   0  0  0  0  0  0  0  0  0  0  0  0  # atno 6909 bound_to 6896
  146.0717  140.6201  142.8949 H   0  0  0  0  0  0  0  0  0  0  0  0  # atno 7974 bound_to 7965
  156.2866  140.2691  156.2123 H   0  0  0  0  0  0  0  0  0  0  0  0  # atno 8008 bound_to 7997
  155.0251  140.0386  157.2470 H   0  0  0  0  0  0  0  0  0  0  0  0  # atno 8009 bound_to 7997
  154.7402  140.2723  155.6385 H   0  0  0  0  0  0  0  0  0  0  0  0  # atno 8010 bound_to 7997
  139.9959  143.5591  152.2323 H   0  0  0  0  0  0  0  0  0  0  0  0  # atno 10167 bound_to 10162
  157.0949  130.6443  149.5858 H   0  0  0  0  0  0  0  0  0  0  0  0  # atno 10718 bound_to 10713
  152.9867  135.6110  154.3066 H   0  0  0  0  0  0  0  0  0  0  0  0  # atno 10763 bound_to 10752
  154.2784  135.2777  155.2710 H   0  0  0  0  0  0  0  0  0  0  0  0  # atno 10764 bound_to 10752
  154.5060  135.5854  153.6624 H   0  0  0  0  0  0  0  0  0  0  0  0  # atno 10765 bound_to 10752
  140.6313  133.9573  155.8276 H   0  0  0  0  0  0  0  0  0  0  0  0  # atno 11005 bound_to 11000
  144.7236  140.4452  143.6990 LP  0  0  0  0  0  0  0  0  0  0  0  0  # atno 17320 bound_to 7965
  145.6380  139.1546  143.2932 LP  0  0  0  0  0  0  0  0  0  0  0  0  # atno 17321 bound_to 7965
  139.6306  144.7643  151.2544 LP  0  0  0  0  0  0  0  0  0  0  0  0  # atno 17342 bound_to 10162
  140.7437  143.6486  150.8269 LP  0  0  0  0  0  0  0  0  0  0  0  0  # atno 17343 bound_to 10162
  155.9888  130.4933  150.7188 LP  0  0  0  0  0  0  0  0  0  0  0  0  # atno 17370 bound_to 10713
  157.4690  131.0891  151.0663 LP  0  0  0  0  0  0  0  0  0  0  0  0  # atno 17371 bound_to 10713
  141.0673  134.0257  157.3575 LP  0  0  0  0  0  0  0  0  0  0  0  0  # atno 17394 bound_to 11000
  139.9115  135.0191  156.7710 LP  0  0  0  0  0  0  0  0  0  0  0  0  # atno 17395 bound_to 11000

$$$$
