AV-unprocessed.smi:1997|AV-procd|sdf|8089|dock7
  -GOLD-   2272010303D 1   1.00000     0.00000
 Structure written by MMmdl.
 36 38  0  0  0  0  0  0  0  0  2 V2000
  148.8899  139.3512  158.5184 O   0  0  0  0  0  0  0  0  0  0  0  0
  149.9656  138.8123  158.2471 C   0  0  0  0  0  0  0  0  0  0  0  0
  150.1559  137.5047  157.9578 N   0  5  0  0  0  0  0  0  0  0  0  0
  149.5773  136.5589  158.7160 C   0  0  0  0  0  0  0  0  0  0  0  0
  149.6353  135.2555  158.4083 N   0  0  0  0  0  0  0  0  0  0  0  0
  148.9743  134.4499  159.3241 N   0  0  0  0  0  0  0  0  0  0  0  0
  148.4298  135.1576  160.3165 C   0  0  0  0  0  0  0  0  0  0  0  0
  147.6616  134.5207  161.4258 C   0  0  0  0  0  0  0  0  0  0  0  0
  148.0129  134.7987  162.8693 C   0  0  0  0  0  0  0  0  0  0  0  0
  148.2697  133.4334  162.2848 C   0  0  0  0  0  0  0  0  0  0  0  0
  148.6984  136.8901  160.2082 S   0  0  0  0  0  0  0  0  0  0  0  0
  151.0926  139.5404  158.2256 N   0  0  0  0  0  0  0  0  0  0  0  0
  151.2023  140.9750  158.5045 C   0  0  1  0  0  0  0  0  0  0  0  0
  152.7059  141.3139  158.6242 C   0  0  0  0  0  0  0  0  0  0  0  0
  152.9918  142.5958  159.4260 C   0  0  0  0  0  0  0  0  0  0  0  0
  152.4627  143.8911  158.7916 C   0  0  0  0  0  0  0  0  0  0  0  0
  150.9317  143.9291  158.6476 C   0  0  0  0  0  0  0  0  0  0  0  0
  150.4693  143.1384  157.5148 N   0  0  0  0  0  0  0  0  0  0  0  0
  150.5830  141.8105  157.3596 C   0  0  0  0  0  0  0  0  0  0  0  0
  150.2046  141.2737  156.3186 O   0  0  0  0  0  0  0  0  0  0  0  0
  146.6091  134.4332  161.1638 H   0  0  0  0  0  0  0  0  0  0  0  0
  148.8764  135.4313  163.0658 H   0  0  0  0  0  0  0  0  0  0  0  0
  147.1909  134.8977  163.5752 H   0  0  0  0  0  0  0  0  0  0  0  0
  147.6183  132.6210  162.5999 H   0  0  0  0  0  0  0  0  0  0  0  0
  149.3069  133.1567  162.1079 H   0  0  0  0  0  0  0  0  0  0  0  0
  151.9471  139.0584  157.9886 H   0  0  0  0  0  0  0  0  0  0  0  0
  150.6939  141.1927  159.4453 H   0  0  0  0  0  0  0  0  0  0  0  0
  153.2131  140.4969  159.1399 H   0  0  0  0  0  0  0  0  0  0  0  0
  153.1737  141.3711  157.6398 H   0  0  0  0  0  0  0  0  0  0  0  0
  152.5819  142.4913  160.4314 H   0  0  0  0  0  0  0  0  0  0  0  0
  154.0704  142.6903  159.5550 H   0  0  0  0  0  0  0  0  0  0  0  0
  152.7703  144.7259  159.4220 H   0  0  0  0  0  0  0  0  0  0  0  0
  152.9364  144.0576  157.8232 H   0  0  0  0  0  0  0  0  0  0  0  0
  150.4388  143.6083  159.5665 H   0  0  0  0  0  0  0  0  0  0  0  0
  150.6137  144.9570  158.4721 H   0  0  0  0  0  0  0  0  0  0  0  0
  150.0482  143.6520  156.7545 H   0  0  0  0  0  0  0  0  0  0  0  0
  1  2  2  0  0  0  0
  2  3  1  0  0  0  0
  2 12  1  0  0  0  0
  3  4  1  0  0  0  0
  4 11  1  0  0  0  0
  4  5  2  0  0  0  0
  5  6  1  0  0  0  0
  6  7  2  0  0  0  0
  7  8  1  0  0  0  0
  7 11  1  0  0  0  0
  8 10  1  0  0  0  0
  8  9  1  0  0  0  0
  8 21  1  0  0  0  0
  9 10  1  0  0  0  0
  9 22  1  0  0  0  0
  9 23  1  0  0  0  0
 10 24  1  0  0  0  0
 10 25  1  0  0  0  0
 12 13  1  0  0  0  0
 12 26  1  0  0  0  0
 13 19  1  0  0  0  0
 13 14  1  0  0  0  0
 13 27  1  0  0  0  0
 14 15  1  0  0  0  0
 14 28  1  0  0  0  0
 14 29  1  0  0  0  0
 15 16  1  0  0  0  0
 15 30  1  0  0  0  0
 15 31  1  0  0  0  0
 16 17  1  0  0  0  0
 16 32  1  0  0  0  0
 16 33  1  0  0  0  0
 17 18  1  0  0  0  0
 17 34  1  0  0  0  0
 17 35  1  0  0  0  0
 18 19  1  0  0  0  0
 18 36  1  0  0  0  0
 19 20  2  0  0  0  0
M  CHG  1   3  -1
M  END
> <s_m_source_file>
AV-unprocessed.smi

> <i_m_source_file_index>
1997

> <i_lp_mmshare_version>
43012

> <i_f3d_flags>
0

> <s_epik_input>
W0NIMl0xW0NIMl1bQ0hdMWMoczIpbm5jMltOSF1DKD1PKVtOSF1bQ0BASF0zW0NIMl1bQ0gyXVtDSDJdW0NIMl1bTkhdQzM9Tw==

> <s_epik_cmdline>
J2VwaWtfcHl0aG9uJywgJy1waCcsICc3LjAnLCAnLXRuJywgJzgnLCAnLW1hJywgJzIwMCcsICctbWV0YWxfYmluZGluZycsICctaW1hZScsICc8aW5maWxlLm1hZT4nLCAnLW9tYWUnLCAnPG91dGZpbGUubWFlPic=

> <r_lp_tautomer_probability>
1

> <r_epik_Ionization_Penalty>
4.47229

> <r_epik_Ionization_Penalty_Charging>
4.32584

> <r_epik_Ionization_Penalty_Neutral>
0.146443

> <r_epik_State_Penalty>
4.32544

> <r_epik_Charging_Adjusted_Penalty>
8.65129

> <i_epik_Tot_Q>
-1

> <i_epik_Tot_abs_Q>
1

> <r_epik_Metal_State_Penalty>
0.738743

> <b_epik_Metal_Only>
1

> <s_lp_Force_Field>
OPLS_2005

> <r_lp_Energy>
7.41149

> <b_lp_Chiralities_Consistent>
1

> <s_lp_Variant>
AV-unprocessed.smi:1997-4

> <Gold.Version>
5.8.1

> <Gold.Id.Protein>
6NUR|6NUR_protein|mol2

> <Gold.PLP.Fitness>
38.5538

> <Gold.PLP.PLP>
-36.5323

> <Gold.PLP.part.hbond>
-3.6790

> <Gold.PLP.part.metal>
0.0000

> <Gold.PLP.part.buried>
-5.1320

> <Gold.PLP.part.nonpolar>
-28.6806

> <Gold.PLP.part.repulsive>
0.1743

> <Gold.PLP.ligand.clash>
0.0000

> <Gold.PLP.ligand.torsion>
0.5728

> <Gold.PLP.Chemscore.Hbond>
1.0121

> <Gold.PLP.Chemscore.CHOScore>
0.0000

> <Gold.PLP.Chemscore.Metal>
0.0000

> <Gold.Chemscore.Hbonds>
donor molecule, donor type, donor heavy atom, donor atom, acceptor molecule, acceptor atom, score
      L1  H    18    36       P1  8028  1.00

> <Gold.PLP.Chemscore.Internal.Correction>
0.1307

> <Gold.Rescore>
     Score         DG    S(hbond)    S(metal)    S(lipo)     H(rot)  DE(clash)    DE(int)     intcor
     14.26     -15.22       0.98        0.00      83.29       1.27       0.31       0.64       ----

> <Gold.Chemscore.Fitness>
14.2648

> <Gold.Chemscore.DG>
-15.2215

> <Gold.Chemscore.ZeroCoef>
-5.4800

> <Gold.Chemscore.Hbond>
0.9752

> <Gold.Chemscore.Metal>
0.0000

> <Gold.Chemscore.Lipo>
83.2940

> <Gold.Chemscore.Internal_Hbond>
0.0000

> <Gold.Chemscore.DEClash>
0.3145

> <Gold.Chemscore.DEInternal>
0.6422

> <Gold.Chemscore.Rot>
1.2738

> <Gold.Chemscore.Internal.Correction>
   9.000000E+99

> <Gold.Chemscore.Hbonds>
donor molecule, donor type, donor heavy atom, donor atom, acceptor molecule, acceptor atom, score
      L1  H    18    36       P1  8028  1.00

> <Gold.Chemscore.Hbond.Weighted>
-3.2571

> <Gold.Chemscore.Metal.Weighted>
-0.0000

> <Gold.Chemscore.Lipo.Weighted>
-9.7454

> <Gold.Chemscore.Internal_Hbond.Weighted>
0.0000

> <Gold.Chemscore.DEClash.Weighted>
0.3145

> <Gold.Chemscore.DEInternal.Weighted>
0.6422

> <Gold.Chemscore.Rot.Weighted>
3.2610

> <Gold.Chemscore.Internal.Correction.Weighted>
   9.000000E+99

> <Gold.Protein.RotatedTorsions>
[ 6907 6896 6895 6894 ] final  -22.83 input  -60.11 | X-H torsion
[ 7974 7965 7964 7962 ] final  -71.74 input  175.53 | X-H torsion
[ 8008 7997 7996 7995 ] final  -61.06 input   59.86 | X-H torsion
[ 10167 10162 10161 10158 ] final  163.87 input  -65.29 | X-H torsion
[ 10718 10713 10712 10709 ] final   79.85 input   66.30 | X-H torsion
[ 10763 10752 10751 10750 ] final  -27.50 input  -60.55 | X-H torsion
[ 11005 11000 10999 10996 ] final -176.37 input  -57.11 | X-H torsion

> <Gold.Protein.ActiveResidues>
 VAL166  LYS551  ARG553  GLY616  TRP617  ASP618  TYR619  PRO620  LYS621  CYS622 
 ASP623  PHE694  ASN695  SER759  ASP760  ASP761  ALA762  ILE779  LEU786  VAL792 
 PHE793  MET794  SER795  GLU796  ALA797  LYS798  CYS799  TRP800  GLU811  SER814 

> <Gold.Protein.RotatedAtoms>
  151.2128  135.0488  159.8917 H   0  0  0  0  0  0  0  0  0  0  0  0  # atno 6907 bound_to 6896
  152.5423  134.0726  159.8211 H   0  0  0  0  0  0  0  0  0  0  0  0  # atno 6908 bound_to 6896
  151.0881  133.5289  159.2648 H   0  0  0  0  0  0  0  0  0  0  0  0  # atno 6909 bound_to 6896
  145.6741  140.9211  143.0867 H   0  0  0  0  0  0  0  0  0  0  0  0  # atno 7974 bound_to 7965
  154.4429  140.1026  156.6371 H   0  0  0  0  0  0  0  0  0  0  0  0  # atno 8008 bound_to 7997
  155.5541  140.3486  155.4457 H   0  0  0  0  0  0  0  0  0  0  0  0  # atno 8009 bound_to 7997
  156.0507  140.1303  157.0042 H   0  0  0  0  0  0  0  0  0  0  0  0  # atno 8010 bound_to 7997
  139.4880  144.4294  151.9090 H   0  0  0  0  0  0  0  0  0  0  0  0  # atno 10167 bound_to 10162
  157.6789  130.9933  150.1992 H   0  0  0  0  0  0  0  0  0  0  0  0  # atno 10718 bound_to 10713
  153.7331  135.6937  153.4984 H   0  0  0  0  0  0  0  0  0  0  0  0  # atno 10763 bound_to 10752
  153.2122  135.4399  155.0391 H   0  0  0  0  0  0  0  0  0  0  0  0  # atno 10764 bound_to 10752
  154.8246  135.3439  154.6860 H   0  0  0  0  0  0  0  0  0  0  0  0  # atno 10765 bound_to 10752
  140.4528  134.6327  157.4809 H   0  0  0  0  0  0  0  0  0  0  0  0  # atno 11005 bound_to 11000
  144.7047  139.8611  143.7433 LP  0  0  0  0  0  0  0  0  0  0  0  0  # atno 17320 bound_to 7965
  146.1020  139.4016  143.0341 LP  0  0  0  0  0  0  0  0  0  0  0  0  # atno 17321 bound_to 7965
  140.3741  144.2819  150.5916 LP  0  0  0  0  0  0  0  0  0  0  0  0  # atno 17342 bound_to 10162
  140.5293  143.2247  151.8265 LP  0  0  0  0  0  0  0  0  0  0  0  0  # atno 17343 bound_to 10162
  156.2687  130.3719  149.8054 LP  0  0  0  0  0  0  0  0  0  0  0  0  # atno 17370 bound_to 10713
  156.5778  130.8452  151.3374 LP  0  0  0  0  0  0  0  0  0  0  0  0  # atno 17371 bound_to 10713
  139.9996  134.6858  155.9553 LP  0  0  0  0  0  0  0  0  0  0  0  0  # atno 17394 bound_to 11000
  141.1656  133.6537  156.4469 LP  0  0  0  0  0  0  0  0  0  0  0  0  # atno 17395 bound_to 11000

$$$$
