AV-unprocessed.smi:2090|AV-procd|sdf|8534|dock6
  -GOLD-   2272011253D 1   1.00000     0.00000
 Structure written by MMmdl.
 41 42  0  0  0  0  0  0  0  0  3 V2000
  148.1000  123.6751  149.3206 C   0  0  0  0  0  0  0  0  0  0  0  0
  148.3849  124.7493  150.3143 C   0  0  0  0  0  0  0  0  0  0  0  0
  148.8402  126.0312  150.1897 C   0  0  0  0  0  0  0  0  0  0  0  0
  148.8736  126.4963  151.5327 C   0  0  0  0  0  0  0  0  0  0  0  0
  149.2682  127.7144  151.9351 N   0  5  0  0  0  0  0  0  0  0  0  0
  148.6968  128.2915  153.0169 C   0  0  0  0  0  0  0  0  0  0  0  0
  148.2792  127.7128  154.0226 O   0  0  0  0  0  0  0  0  0  0  0  0
  148.6013  129.6247  152.9286 N   0  0  0  0  0  0  0  0  0  0  0  0
  148.0270  130.4916  153.9480 C   0  0  0  0  0  0  0  0  0  0  0  0
  147.9531  131.9398  153.4408 C   0  0  0  0  0  0  0  0  0  0  0  0
  147.1719  132.0540  152.1839 N   0  3  2  0  0  0  0  0  0  0  0  0
  146.9310  133.4679  151.7966 C   0  0  0  0  0  0  0  0  0  0  0  0
  146.2456  133.5597  150.4227 C   0  0  0  0  0  0  0  0  0  0  0  0
  144.9273  132.7684  150.4014 C   0  0  1  0  0  0  0  0  0  0  0  0
  144.2517  132.8264  149.0239 C   0  0  0  0  0  0  0  0  0  0  0  0
  145.1995  131.3202  150.8420 C   0  0  0  0  0  0  0  0  0  0  0  0
  145.9062  131.2738  152.2075 C   0  0  0  0  0  0  0  0  0  0  0  0
  148.4904  125.5720  152.3976 N   0  0  0  0  0  0  0  0  0  0  0  0
  148.1672  124.4511  151.6234 O   0  0  0  0  0  0  0  0  0  0  0  0
  148.9299  123.5661  148.6226 H   0  0  0  0  0  0  0  0  0  0  0  0
  147.2032  123.9097  148.7471 H   0  0  0  0  0  0  0  0  0  0  0  0
  147.9454  122.7147  149.8128 H   0  0  0  0  0  0  0  0  0  0  0  0
  149.1033  126.5553  149.2831 H   0  0  0  0  0  0  0  0  0  0  0  0
  148.9574  130.0630  152.0916 H   0  0  0  0  0  0  0  0  0  0  0  0
  147.0276  130.1387  154.2081 H   0  0  0  0  0  0  0  0  0  0  0  0
  148.6412  130.4173  154.8455 H   0  0  0  0  0  0  0  0  0  0  0  0
  147.5325  132.6000  154.2012 H   0  0  0  0  0  0  0  0  0  0  0  0
  148.9731  132.2849  153.2638 H   0  0  0  0  0  0  0  0  0  0  0  0
  146.3198  133.9559  152.5574 H   0  0  0  0  0  0  0  0  0  0  0  0
  147.8787  134.0065  151.7568 H   0  0  0  0  0  0  0  0  0  0  0  0
  146.0575  134.6052  150.1759 H   0  0  0  0  0  0  0  0  0  0  0  0
  146.9196  133.1782  149.6540 H   0  0  0  0  0  0  0  0  0  0  0  0
  144.2465  133.2214  151.1239 H   0  0  0  0  0  0  0  0  0  0  0  0
  144.8871  132.3936  148.2505 H   0  0  0  0  0  0  0  0  0  0  0  0
  144.0329  133.8554  148.7372 H   0  0  0  0  0  0  0  0  0  0  0  0
  143.3094  132.2777  149.0258 H   0  0  0  0  0  0  0  0  0  0  0  0
  144.2629  130.7642  150.8966 H   0  0  0  0  0  0  0  0  0  0  0  0
  145.8155  130.8147  150.0968 H   0  0  0  0  0  0  0  0  0  0  0  0
  146.1048  130.2339  152.4646 H   0  0  0  0  0  0  0  0  0  0  0  0
  145.2482  131.6691  152.9830 H   0  0  0  0  0  0  0  0  0  0  0  0
  147.7494  131.6582  151.4558 H   0  0  0  0  0  0  0  0  0  0  0  0
  1  2  1  0  0  0  0
  1 20  1  0  0  0  0
  1 21  1  0  0  0  0
  1 22  1  0  0  0  0
  2 19  1  0  0  0  0
  2  3  2  0  0  0  0
  3  4  1  0  0  0  0
  3 23  1  0  0  0  0
  4  5  1  0  0  0  0
  4 18  2  0  0  0  0
  5  6  1  0  0  0  0
  6  7  2  0  0  0  0
  6  8  1  0  0  0  0
  8  9  1  0  0  0  0
  8 24  1  0  0  0  0
  9 10  1  0  0  0  0
  9 25  1  0  0  0  0
  9 26  1  0  0  0  0
 10 11  1  0  0  0  0
 10 27  1  0  0  0  0
 10 28  1  0  0  0  0
 11 17  1  0  0  0  0
 11 12  1  0  0  0  0
 11 41  1  0  0  0  0
 12 13  1  0  0  0  0
 12 29  1  0  0  0  0
 12 30  1  0  0  0  0
 13 14  1  0  0  0  0
 13 31  1  0  0  0  0
 13 32  1  0  0  0  0
 14 15  1  0  0  0  0
 14 16  1  0  0  0  0
 14 33  1  0  0  0  0
 15 34  1  0  0  0  0
 15 35  1  0  0  0  0
 15 36  1  0  0  0  0
 16 17  1  0  0  0  0
 16 37  1  0  0  0  0
 16 38  1  0  0  0  0
 17 39  1  0  0  0  0
 17 40  1  0  0  0  0
 18 19  1  0  0  0  0
M  CHG  1   5  -1
M  CHG  1  11   1
M  END
> <s_m_source_file>
AV-unprocessed.smi

> <i_m_source_file_index>
2090

> <i_lp_mmshare_version>
43012

> <i_f3d_flags>
0

> <s_epik_input>
W0NIM11jMVtjSF1jKG5vMSlbTkhdQyg9TylbTkhdW0NIMl1bQ0gyXU4yW0NIMl1bQ0gyXVtDSF0oW0NIM10pW0NIMl1bQ0gyXTI=

> <s_epik_cmdline>
J2VwaWtfcHl0aG9uJywgJy1waCcsICc3LjAnLCAnLXRuJywgJzgnLCAnLW1hJywgJzIwMCcsICctbWV0YWxfYmluZGluZycsICctaW1hZScsICc8aW5maWxlLm1hZT4nLCAnLW9tYWUnLCAnPG91dGZpbGUubWFlPic=

> <r_epik_Ionization_Penalty>
6.22503

> <r_epik_Ionization_Penalty_Charging>
6.22494

> <r_epik_Ionization_Penalty_Neutral>
9.3589e-05

> <r_epik_State_Penalty>
6.22491

> <r_epik_Charging_Adjusted_Penalty>
12.4498

> <i_epik_Tot_Q>
0

> <i_epik_Tot_abs_Q>
2

> <r_epik_Metal_State_Penalty>
2.16853

> <b_epik_Metal_Only>
1

> <s_lp_Force_Field>
OPLS_2005

> <r_lp_Energy>
5.4778

> <b_lp_Chiralities_Consistent>
1

> <s_lp_Variant>
AV-unprocessed.smi:2090-3

> <Gold.Version>
5.8.1

> <Gold.Id.Protein>
6NUR|6NUR_protein|mol2

> <Gold.PLP.Fitness>
41.6021

> <Gold.PLP.PLP>
-37.1157

> <Gold.PLP.part.hbond>
-2.8460

> <Gold.PLP.part.metal>
0.0000

> <Gold.PLP.part.buried>
-5.5855

> <Gold.PLP.part.nonpolar>
-29.6318

> <Gold.PLP.part.repulsive>
1.8601

> <Gold.PLP.ligand.clash>
0.0000

> <Gold.PLP.ligand.torsion>
0.5503

> <Gold.PLP.Chemscore.Hbond>
1.8500

> <Gold.PLP.Chemscore.CHOScore>
0.0000

> <Gold.PLP.Chemscore.Metal>
0.0000

> <Gold.Chemscore.Hbonds>
donor molecule, donor type, donor heavy atom, donor atom, acceptor molecule, acceptor atom, score
      L1  H     8    24       P1 10747  0.75
      L1  H    11    41       P1 10747  1.00

> <Gold.PLP.Chemscore.Internal.Correction>
0.0369

> <Gold.Rescore>
     Score         DG    S(hbond)    S(metal)    S(lipo)     H(rot)  DE(clash)    DE(int)     intcor
     13.30     -16.05       1.36        0.00      85.35       1.54       0.66       2.09       ----

> <Gold.Chemscore.Fitness>
13.3025

> <Gold.Chemscore.DG>
-16.0537

> <Gold.Chemscore.ZeroCoef>
-5.4800

> <Gold.Chemscore.Hbond>
1.3571

> <Gold.Chemscore.Metal>
0.0000

> <Gold.Chemscore.Lipo>
85.3484

> <Gold.Chemscore.Internal_Hbond>
0.0000

> <Gold.Chemscore.DEClash>
0.6644

> <Gold.Chemscore.DEInternal>
2.0868

> <Gold.Chemscore.Rot>
1.5409

> <Gold.Chemscore.Internal.Correction>
   9.000000E+99

> <Gold.Chemscore.Hbonds>
donor molecule, donor type, donor heavy atom, donor atom, acceptor molecule, acceptor atom, score
      L1  H     8    24       P1 10747  0.09
      L1  H    11    41       P1 10747  1.00

> <Gold.Chemscore.Hbond.Weighted>
-4.5325

> <Gold.Chemscore.Metal.Weighted>
-0.0000

> <Gold.Chemscore.Lipo.Weighted>
-9.9858

> <Gold.Chemscore.Internal_Hbond.Weighted>
0.0000

> <Gold.Chemscore.DEClash.Weighted>
0.6644

> <Gold.Chemscore.DEInternal.Weighted>
2.0868

> <Gold.Chemscore.Rot.Weighted>
3.9446

> <Gold.Chemscore.Internal.Correction.Weighted>
   9.000000E+99

> <Gold.Protein.RotatedTorsions>
[ 6907 6896 6895 6894 ] final   43.80 input  -60.11 | X-H torsion
[ 7974 7965 7964 7962 ] final  -57.28 input  175.53 | X-H torsion
[ 8008 7997 7996 7995 ] final  -75.41 input   59.86 | X-H torsion
[ 10167 10162 10161 10158 ] final  -52.97 input  -65.29 | X-H torsion
[ 10718 10713 10712 10709 ] final  -81.30 input   66.30 | X-H torsion
[ 10763 10752 10751 10750 ] final   44.12 input  -60.55 | X-H torsion
[ 11005 11000 10999 10996 ] final  149.10 input  -57.11 | X-H torsion

> <Gold.Protein.ActiveResidues>
 VAL166  LYS551  ARG553  GLY616  TRP617  ASP618  TYR619  PRO620  LYS621  CYS622 
 ASP623  PHE694  ASN695  SER759  ASP760  ASP761  ALA762  ILE779  LEU786  VAL792 
 PHE793  MET794  SER795  GLU796  ALA797  LYS798  CYS799  TRP800  GLU811  SER814 

> <Gold.Protein.RotatedAtoms>
  152.2248  134.8379  160.0481 H   0  0  0  0  0  0  0  0  0  0  0  0  # atno 6907 bound_to 6896
  151.9149  133.3565  159.3885 H   0  0  0  0  0  0  0  0  0  0  0  0  # atno 6908 bound_to 6896
  150.7009  134.4619  159.5429 H   0  0  0  0  0  0  0  0  0  0  0  0  # atno 6909 bound_to 6896
  145.8529  140.8340  142.9976 H   0  0  0  0  0  0  0  0  0  0  0  0  # atno 7974 bound_to 7965
  154.5415  140.0744  156.8517 H   0  0  0  0  0  0  0  0  0  0  0  0  # atno 8008 bound_to 7997
  155.3172  140.3394  155.4224 H   0  0  0  0  0  0  0  0  0  0  0  0  # atno 8009 bound_to 7997
  156.1878  140.1675  156.8137 H   0  0  0  0  0  0  0  0  0  0  0  0  # atno 8010 bound_to 7997
  140.6509  143.2566  151.4725 H   0  0  0  0  0  0  0  0  0  0  0  0  # atno 10167 bound_to 10162
  156.0053  130.4599  150.3931 H   0  0  0  0  0  0  0  0  0  0  0  0  # atno 10718 bound_to 10713
  152.9847  135.6080  154.3223 H   0  0  0  0  0  0  0  0  0  0  0  0  # atno 10763 bound_to 10752
  154.2931  135.2774  155.2647 H   0  0  0  0  0  0  0  0  0  0  0  0  # atno 10764 bound_to 10752
  154.4933  135.5886  153.6532 H   0  0  0  0  0  0  0  0  0  0  0  0  # atno 10765 bound_to 10752
  140.1016  134.8979  157.1804 H   0  0  0  0  0  0  0  0  0  0  0  0  # atno 11005 bound_to 11000
  144.6728  140.0979  143.7462 LP  0  0  0  0  0  0  0  0  0  0  0  0  # atno 17320 bound_to 7965
  145.9337  139.2623  143.1310 LP  0  0  0  0  0  0  0  0  0  0  0  0  # atno 17321 bound_to 7965
  139.5724  144.1896  152.1856 LP  0  0  0  0  0  0  0  0  0  0  0  0  # atno 17342 bound_to 10162
  140.1197  144.5384  150.6871 LP  0  0  0  0  0  0  0  0  0  0  0  0  # atno 17343 bound_to 10162
  157.2004  131.0436  151.2653 LP  0  0  0  0  0  0  0  0  0  0  0  0  # atno 17370 bound_to 10713
  157.3980  130.7318  149.6746 LP  0  0  0  0  0  0  0  0  0  0  0  0  # atno 17371 bound_to 10713
  140.3212  134.2914  155.7246 LP  0  0  0  0  0  0  0  0  0  0  0  0  # atno 17394 bound_to 11000
  141.2107  133.7711  156.9913 LP  0  0  0  0  0  0  0  0  0  0  0  0  # atno 17395 bound_to 11000

$$$$
