AV-unprocessed.smi:511|AV-procd|sdf|2766|dock9
  -GOLD-   2262023233D 1   1.00000     0.00000
 Structure written by MMmdl.
 45 47  0  0  0  0  0  0  0  0  3 V2000
  150.9742  142.0431  157.4462 C   0  0  0  0  0  0  0  0  0  0  0  0
  150.7322  141.1490  156.3742 O   0  0  0  0  0  0  0  0  0  0  0  0
  149.8003  141.6648  155.4391 C   0  0  0  0  0  0  0  0  0  0  0  0
  149.7233  140.7139  154.2381 C   0  0  0  0  0  0  0  0  0  0  0  0
  149.6270  139.3199  154.6658 N   0  0  0  0  0  0  0  0  0  0  0  0
  148.5267  138.5214  154.7037 C   0  0  0  0  0  0  0  0  0  0  0  0
  147.2810  138.9523  154.2475 N   0  0  0  0  0  0  0  0  0  0  0  0
  146.9747  139.2870  152.8582 C   0  0  0  0  0  0  0  0  0  0  0  0
  146.2130  138.1441  152.1613 C   0  0  0  0  0  0  0  0  0  0  0  0
  144.9770  137.7967  152.9028 N   0  3  0  0  0  0  0  0  0  0  0  0
  144.2140  136.7062  152.2592 C   0  0  0  0  0  0  0  0  0  0  0  0
  145.2496  137.5351  154.3360 C   0  0  0  0  0  0  0  0  0  0  0  0
  146.0318  138.7036  154.9605 C   0  0  0  0  0  0  0  0  0  0  0  0
  148.7321  137.3106  155.2252 N   0  0  0  0  0  0  0  0  0  0  0  0
  150.0879  137.3253  155.5164 C   0  0  0  0  0  0  0  0  0  0  0  0
  150.6481  138.5208  155.1897 C   0  0  0  0  0  0  0  0  0  0  0  0
  152.0756  138.8459  155.4027 C   0  0  0  0  0  0  0  0  0  0  0  0
  152.5260  139.9498  155.1034 O   0  0  0  0  0  0  0  0  0  0  0  0
  152.7685  137.7970  155.9489 N   0  5  0  0  0  0  0  0  0  0  0  0
  152.2440  136.5686  156.2896 C   0  0  0  0  0  0  0  0  0  0  0  0
  152.9401  135.6760  156.7749 O   0  0  0  0  0  0  0  0  0  0  0  0
  150.9118  136.3179  156.0881 N   0  0  0  0  0  0  0  0  0  0  0  0
  150.3250  135.0232  156.4456 C   0  0  0  0  0  0  0  0  0  0  0  0
  151.6916  141.6006  158.1371 H   0  0  0  0  0  0  0  0  0  0  0  0
  150.0583  142.2524  158.0008 H   0  0  0  0  0  0  0  0  0  0  0  0
  151.3892  142.9856  157.0870 H   0  0  0  0  0  0  0  0  0  0  0  0
  148.8200  141.7685  155.9065 H   0  0  0  0  0  0  0  0  0  0  0  0
  150.1144  142.6570  155.1105 H   0  0  0  0  0  0  0  0  0  0  0  0
  148.8672  140.9852  153.6265 H   0  0  0  0  0  0  0  0  0  0  0  0
  150.5919  140.8316  153.5913 H   0  0  0  0  0  0  0  0  0  0  0  0
  146.3948  140.2102  152.8274 H   0  0  0  0  0  0  0  0  0  0  0  0
  147.8966  139.4735  152.3075 H   0  0  0  0  0  0  0  0  0  0  0  0
  145.9594  138.4365  151.1418 H   0  0  0  0  0  0  0  0  0  0  0  0
  146.8539  137.2632  152.0916 H   0  0  0  0  0  0  0  0  0  0  0  0
  144.7882  135.7789  152.2487 H   0  0  0  0  0  0  0  0  0  0  0  0
  143.9654  136.9670  151.2299 H   0  0  0  0  0  0  0  0  0  0  0  0
  143.2801  136.5242  152.7916 H   0  0  0  0  0  0  0  0  0  0  0  0
  144.3087  137.3934  154.8686 H   0  0  0  0  0  0  0  0  0  0  0  0
  145.8186  136.6094  154.4378 H   0  0  0  0  0  0  0  0  0  0  0  0
  146.2480  138.4886  156.0078 H   0  0  0  0  0  0  0  0  0  0  0  0
  145.4276  139.6118  154.9513 H   0  0  0  0  0  0  0  0  0  0  0  0
  150.4934  134.8035  157.5009 H   0  0  0  0  0  0  0  0  0  0  0  0
  150.7764  134.2249  155.8550 H   0  0  0  0  0  0  0  0  0  0  0  0
  149.2490  134.9872  156.2764 H   0  0  0  0  0  0  0  0  0  0  0  0
  144.3894  138.6175  152.8724 H   0  0  0  0  0  0  0  0  0  0  0  0
  1  2  1  0  0  0  0
  1 24  1  0  0  0  0
  1 25  1  0  0  0  0
  1 26  1  0  0  0  0
  2  3  1  0  0  0  0
  3  4  1  0  0  0  0
  3 27  1  0  0  0  0
  3 28  1  0  0  0  0
  4  5  1  0  0  0  0
  4 29  1  0  0  0  0
  4 30  1  0  0  0  0
  5 16  1  0  0  0  0
  5  6  1  0  0  0  0
  6  7  1  0  0  0  0
  6 14  2  0  0  0  0
  7 13  1  0  0  0  0
  7  8  1  0  0  0  0
  8  9  1  0  0  0  0
  8 31  1  0  0  0  0
  8 32  1  0  0  0  0
  9 10  1  0  0  0  0
  9 33  1  0  0  0  0
  9 34  1  0  0  0  0
 10 11  1  0  0  0  0
 10 12  1  0  0  0  0
 10 45  1  0  0  0  0
 11 35  1  0  0  0  0
 11 36  1  0  0  0  0
 11 37  1  0  0  0  0
 12 13  1  0  0  0  0
 12 38  1  0  0  0  0
 12 39  1  0  0  0  0
 13 40  1  0  0  0  0
 13 41  1  0  0  0  0
 14 15  1  0  0  0  0
 15 22  1  0  0  0  0
 15 16  2  0  0  0  0
 16 17  1  0  0  0  0
 17 18  2  0  0  0  0
 17 19  1  0  0  0  0
 19 20  1  0  0  0  0
 20 21  2  0  0  0  0
 20 22  1  0  0  0  0
 22 23  1  0  0  0  0
 23 42  1  0  0  0  0
 23 43  1  0  0  0  0
 23 44  1  0  0  0  0
M  CHG  1  10   1
M  CHG  1  19  -1
M  END
> <s_m_source_file>
AV-unprocessed.smi

> <i_m_source_file_index>
511

> <i_lp_mmshare_version>
43012

> <i_f3d_flags>
0

> <s_epik_input>
W0NIM11uMWMoPU8pW25IXWMoPU8pYyhjMTIpbihbQ0gyXVtDSDJdT1tDSDNdKWMobjIpTjNbQ0gyXVtDSDJdTihbQ0gzXSlbQ0gyXVtDSDJdMw==

> <s_epik_cmdline>
J2VwaWtfcHl0aG9uJywgJy1waCcsICc3LjAnLCAnLXRuJywgJzgnLCAnLW1hJywgJzIwMCcsICctbWV0YWxfYmluZGluZycsICctaW1hZScsICc8aW5maWxlLm1hZT4nLCAnLW9tYWUnLCAnPG91dGZpbGUubWFlPic=

> <r_epik_Ionization_Penalty>
5.9833

> <r_epik_Ionization_Penalty_Charging>
0.125752

> <r_epik_Ionization_Penalty_Neutral>
5.85754

> <r_epik_State_Penalty>
5.9139

> <r_epik_Charging_Adjusted_Penalty>
6.03966

> <i_epik_Tot_Q>
0

> <i_epik_Tot_abs_Q>
2

> <r_epik_Metal_State_Penalty>
1.87741

> <b_epik_Metal_Only>
1

> <s_lp_Force_Field>
OPLS_2005

> <r_lp_Energy>
51.0512

> <b_lp_Chiralities_Consistent>
1

> <s_lp_Variant>
AV-unprocessed.smi:511-3

> <Gold.Version>
5.8.1

> <Gold.Id.Protein>
6NUR|6NUR_protein|mol2

> <Gold.PLP.Fitness>
39.3004

> <Gold.PLP.PLP>
-28.3340

> <Gold.PLP.part.hbond>
-4.2698

> <Gold.PLP.part.metal>
0.0000

> <Gold.PLP.part.buried>
2.8736

> <Gold.PLP.part.nonpolar>
-27.0526

> <Gold.PLP.part.repulsive>
0.1581

> <Gold.PLP.ligand.clash>
0.0000

> <Gold.PLP.ligand.torsion>
1.2277

> <Gold.PLP.Chemscore.Hbond>
4.2873

> <Gold.PLP.Chemscore.CHOScore>
0.0000

> <Gold.PLP.Chemscore.Metal>
0.0000

> <Gold.Chemscore.Hbonds>
donor molecule, donor type, donor heavy atom, donor atom, acceptor molecule, acceptor atom, score
      L1  H    10    45       P1 10175  2.00
      P1  H  7989  7998       L1    18  0.58
      P1  H  7997  8010       L1    18  0.86
      P1  H 10752 10763       L1    21  0.84

> <Gold.PLP.Chemscore.Internal.Correction>
0.5601

> <Gold.Rescore>
     Score         DG    S(hbond)    S(metal)    S(lipo)     H(rot)  DE(clash)    DE(int)     intcor
      8.95     -15.67       2.28        0.00      54.66       1.49       1.58       5.14       ----

> <Gold.Chemscore.Fitness>
8.9504

> <Gold.Chemscore.DG>
-15.6738

> <Gold.Chemscore.ZeroCoef>
-5.4800

> <Gold.Chemscore.Hbond>
2.2804

> <Gold.Chemscore.Metal>
0.0000

> <Gold.Chemscore.Lipo>
54.6626

> <Gold.Chemscore.Internal_Hbond>
0.0000

> <Gold.Chemscore.DEClash>
1.5794

> <Gold.Chemscore.DEInternal>
5.1440

> <Gold.Chemscore.Rot>
1.4915

> <Gold.Chemscore.Internal.Correction>
   9.000000E+99

> <Gold.Chemscore.Hbonds>
donor molecule, donor type, donor heavy atom, donor atom, acceptor molecule, acceptor atom, score
      L1  H    10    45       P1 10175  0.95
      P1  H  7989  7998       L1    18  0.51
      P1  H  7997  8010       L1    18  0.62
      P1  H 10752 10763       L1    21  0.14

> <Gold.Chemscore.Hbond.Weighted>
-7.6166

> <Gold.Chemscore.Metal.Weighted>
-0.0000

> <Gold.Chemscore.Lipo.Weighted>
-6.3955

> <Gold.Chemscore.Internal_Hbond.Weighted>
0.0000

> <Gold.Chemscore.DEClash.Weighted>
1.5794

> <Gold.Chemscore.DEInternal.Weighted>
5.1440

> <Gold.Chemscore.Rot.Weighted>
3.8183

> <Gold.Chemscore.Internal.Correction.Weighted>
   9.000000E+99

> <Gold.Protein.RotatedTorsions>
[ 6907 6896 6895 6894 ] final  -37.00 input  -60.11 | X-H torsion
[ 7974 7965 7964 7962 ] final   72.42 input  175.53 | X-H torsion
[ 8008 7997 7996 7995 ] final  100.55 input   59.86 | X-H torsion
[ 10167 10162 10161 10158 ] final  141.23 input  -65.29 | X-H torsion
[ 10718 10713 10712 10709 ] final -134.17 input   66.30 | X-H torsion
[ 10763 10752 10751 10750 ] final  136.18 input  -60.55 | X-H torsion
[ 11005 11000 10999 10996 ] final  136.70 input  -57.11 | X-H torsion

> <Gold.Protein.ActiveResidues>
 VAL166  LYS551  ARG553  GLY616  TRP617  ASP618  TYR619  PRO620  LYS621  CYS622 
 ASP623  PHE694  ASN695  SER759  ASP760  ASP761  ALA762  ILE779  LEU786  VAL792 
 PHE793  MET794  SER795  GLU796  ALA797  LYS798  CYS799  TRP800  GLU811  SER814 

> <Gold.Protein.RotatedAtoms>
  151.0202  134.9463  159.8055 H   0  0  0  0  0  0  0  0  0  0  0  0  # atno 6907 bound_to 6896
  152.5323  134.2913  159.9054 H   0  0  0  0  0  0  0  0  0  0  0  0  # atno 6908 bound_to 6896
  151.2921  133.4119  159.2668 H   0  0  0  0  0  0  0  0  0  0  0  0  # atno 6909 bound_to 6896
  145.7535  139.2770  143.1417 H   0  0  0  0  0  0  0  0  0  0  0  0  # atno 7974 bound_to 7965
  156.1214  140.3211  155.8213 H   0  0  0  0  0  0  0  0  0  0  0  0  # atno 8008 bound_to 7997
  155.4498  140.0531  157.3019 H   0  0  0  0  0  0  0  0  0  0  0  0  # atno 8009 bound_to 7997
  154.4830  140.2061  155.9733 H   0  0  0  0  0  0  0  0  0  0  0  0  # atno 8010 bound_to 7997
  139.5026  144.6184  151.6109 H   0  0  0  0  0  0  0  0  0  0  0  0  # atno 10167 bound_to 10162
  156.2526  130.7162  151.1067 H   0  0  0  0  0  0  0  0  0  0  0  0  # atno 10718 bound_to 10713
  153.8523  135.3078  155.3433 H   0  0  0  0  0  0  0  0  0  0  0  0  # atno 10763 bound_to 10752
  154.7886  135.4796  154.0004 H   0  0  0  0  0  0  0  0  0  0  0  0  # atno 10764 bound_to 10752
  153.1511  135.6843  153.8974 H   0  0  0  0  0  0  0  0  0  0  0  0  # atno 10765 bound_to 10752
  140.0064  134.9457  157.0184 H   0  0  0  0  0  0  0  0  0  0  0  0  # atno 11005 bound_to 11000
  146.0333  140.8236  142.9865 LP  0  0  0  0  0  0  0  0  0  0  0  0  # atno 17320 bound_to 7965
  144.6845  140.2801  143.7293 LP  0  0  0  0  0  0  0  0  0  0  0  0  # atno 17321 bound_to 7965
  140.5879  143.9831  150.6307 LP  0  0  0  0  0  0  0  0  0  0  0  0  # atno 17342 bound_to 10162
  140.3002  143.3265  152.0979 LP  0  0  0  0  0  0  0  0  0  0  0  0  # atno 17343 bound_to 10162
  157.7220  131.0675  150.6094 LP  0  0  0  0  0  0  0  0  0  0  0  0  # atno 17370 bound_to 10713
  156.6175  130.4397  149.5835 LP  0  0  0  0  0  0  0  0  0  0  0  0  # atno 17371 bound_to 10713
  140.4634  134.1461  155.7194 LP  0  0  0  0  0  0  0  0  0  0  0  0  # atno 17394 bound_to 11000
  141.1680  133.8665  157.1658 LP  0  0  0  0  0  0  0  0  0  0  0  0  # atno 17395 bound_to 11000

$$$$
