AV-unprocessed.smi:2604|AV-procd|sdf|10189|dock4
  -GOLD-   2272014203D 1   1.00000     0.00000
 Structure written by MMmdl.
 26 27  0  0  0  0  0  0  0  0  2 V2000
  152.2514  139.2198  155.8103 C   0  0  0  0  0  0  0  0  0  0  0  0
  152.2135  138.0626  155.0076 C   0  0  0  0  0  0  0  0  0  0  0  0
  151.2504  137.8291  154.0903 N   0  0  0  0  0  0  0  0  0  0  0  0
  150.2772  138.7535  153.9451 C   0  0  0  0  0  0  0  0  0  0  0  0
  150.2152  139.9446  154.7008 C   0  0  0  0  0  0  0  0  0  0  0  0
  149.0933  140.9441  154.4710 C   0  0  2  0  0  0  0  0  0  0  0  0
  148.3833  141.3002  155.7971 C   0  0  0  0  0  0  0  0  0  0  0  0
  147.3245  142.3035  155.5645 N   0  3  0  0  0  0  0  0  0  0  0  0
  146.3684  141.8399  154.5398 C   0  0  0  0  0  0  0  0  0  0  0  0
  147.1183  141.4874  153.2424 C   0  0  0  0  0  0  0  0  0  0  0  0
  148.1073  140.4481  153.5105 N   0  0  0  0  0  0  0  0  0  0  0  0
  151.2330  140.1791  155.6517 C   0  0  0  0  0  0  0  0  0  0  0  0
  153.0434  139.3670  156.5297 H   0  0  0  0  0  0  0  0  0  0  0  0
  152.9778  137.3057  155.1036 H   0  0  0  0  0  0  0  0  0  0  0  0
  149.5255  138.5347  153.2009 H   0  0  0  0  0  0  0  0  0  0  0  0
  149.5412  141.8473  154.0528 H   0  0  0  0  0  0  0  0  0  0  0  0
  147.9437  140.4124  156.2544 H   0  0  0  0  0  0  0  0  0  0  0  0
  149.0974  141.7080  156.5131 H   0  0  0  0  0  0  0  0  0  0  0  0
  146.8332  142.4817  156.4288 H   0  0  0  0  0  0  0  0  0  0  0  0
  145.8214  140.9736  154.9153 H   0  0  0  0  0  0  0  0  0  0  0  0
  145.6359  142.6257  154.3542 H   0  0  0  0  0  0  0  0  0  0  0  0
  146.4167  141.1217  152.4924 H   0  0  0  0  0  0  0  0  0  0  0  0
  147.6063  142.3679  152.8219 H   0  0  0  0  0  0  0  0  0  0  0  0
  148.5720  140.1905  152.6506 H   0  0  0  0  0  0  0  0  0  0  0  0
  151.2373  141.0785  156.2501 H   0  0  0  0  0  0  0  0  0  0  0  0
  147.7536  143.1594  155.2434 H   0  0  0  0  0  0  0  0  0  0  0  0
  1 12  1  0  0  0  0
  1  2  2  0  0  0  0
  1 13  1  0  0  0  0
  2  3  1  0  0  0  0
  2 14  1  0  0  0  0
  3  4  2  0  0  0  0
  4  5  1  0  0  0  0
  4 15  1  0  0  0  0
  5  6  1  0  0  0  0
  5 12  2  0  0  0  0
  6 11  1  0  0  0  0
  6  7  1  0  0  0  0
  6 16  1  0  0  0  0
  7  8  1  0  0  0  0
  7 17  1  0  0  0  0
  7 18  1  0  0  0  0
  8  9  1  0  0  0  0
  8 19  1  0  0  0  0
  8 26  1  0  0  0  0
  9 10  1  0  0  0  0
  9 20  1  0  0  0  0
  9 21  1  0  0  0  0
 10 11  1  0  0  0  0
 10 22  1  0  0  0  0
 10 23  1  0  0  0  0
 11 24  1  0  0  0  0
 12 25  1  0  0  0  0
M  CHG  1   8   1
M  END
> <s_m_source_file>
AV-unprocessed.smi

> <i_m_source_file_index>
2604

> <i_lp_mmshare_version>
43012

> <i_f3d_flags>
0

> <s_epik_input>
W2NIXTFbY0hdW2NIXW5bY0hdYzFbQ0BASF0yW0NIMl1bTkhdW0NIMl1bQ0gyXVtOSF0y

> <s_epik_cmdline>
J2VwaWtfcHl0aG9uJywgJy1waCcsICc3LjAnLCAnLXRuJywgJzgnLCAnLW1hJywgJzIwMCcsICctbWV0YWxfYmluZGluZycsICctaW1hZScsICc8aW5maWxlLm1hZT4nLCAnLW9tYWUnLCAnPG91dGZpbGUubWFlPic=

> <r_epik_Ionization_Penalty>
0.0181456

> <r_epik_Ionization_Penalty_Charging>
0.010317

> <r_epik_Ionization_Penalty_Neutral>
0.00782861

> <r_epik_State_Penalty>
0.306622

> <r_epik_Charging_Adjusted_Penalty>
0.316939

> <i_epik_Tot_Q>
1

> <i_epik_Tot_abs_Q>
1

> <r_epik_Metal_State_Penalty>
0.302658

> <b_epik_Metal_Only>
0

> <s_lp_Force_Field>
OPLS_2005

> <r_lp_Energy>
10.6943

> <b_lp_Chiralities_Consistent>
1

> <s_lp_Variant>
AV-unprocessed.smi:2604-1

> <Gold.Version>
5.8.1

> <Gold.Id.Protein>
6NUR|6NUR_protein|mol2

> <Gold.PLP.Fitness>
37.3777

> <Gold.PLP.PLP>
-24.6285

> <Gold.PLP.part.hbond>
-2.0000

> <Gold.PLP.part.metal>
0.0000

> <Gold.PLP.part.buried>
-2.0768

> <Gold.PLP.part.nonpolar>
-20.8470

> <Gold.PLP.part.repulsive>
0.2870

> <Gold.PLP.ligand.clash>
0.0000

> <Gold.PLP.ligand.torsion>
0.0717

> <Gold.PLP.Chemscore.Hbond>
2.9840

> <Gold.PLP.Chemscore.CHOScore>
1.3108

> <Gold.PLP.Chemscore.Metal>
0.0000

> <Gold.Chemscore.Hbonds>
donor molecule, donor type, donor heavy atom, donor atom, acceptor molecule, acceptor atom, score
      L1  H     8    26       P1  8028  1.95
      L1  H    11    24       P1  7957  1.00
      L1  C     4    15       P1  7948  0.61
      L1  C     4    15       P1  7957  0.69

> <Gold.PLP.Chemscore.Internal.Correction>
0.0081

> <Gold.Rescore>
     Score         DG    S(hbond)    S(metal)    S(lipo)     H(rot)  DE(clash)    DE(int)     intcor
     15.86     -16.33       1.90        0.00      60.32       1.00       0.44       0.04       ----

> <Gold.Chemscore.Fitness>
15.8581

> <Gold.Chemscore.DG>
-16.3327

> <Gold.Chemscore.ZeroCoef>
-5.4800

> <Gold.Chemscore.Hbond>
1.9028

> <Gold.Chemscore.Metal>
0.0000

> <Gold.Chemscore.Lipo>
60.3175

> <Gold.Chemscore.Internal_Hbond>
0.0000

> <Gold.Chemscore.DEClash>
0.4391

> <Gold.Chemscore.DEInternal>
0.0355

> <Gold.Chemscore.Rot>
1.0000

> <Gold.Chemscore.Internal.Correction>
   9.000000E+99

> <Gold.Chemscore.Hbonds>
donor molecule, donor type, donor heavy atom, donor atom, acceptor molecule, acceptor atom, score
      L1  H     8    26       P1  8028  0.51
      L1  H    11    24       P1  7957  1.00

> <Gold.Chemscore.Hbond.Weighted>
-6.3555

> <Gold.Chemscore.Metal.Weighted>
-0.0000

> <Gold.Chemscore.Lipo.Weighted>
-7.0571

> <Gold.Chemscore.Internal_Hbond.Weighted>
0.0000

> <Gold.Chemscore.DEClash.Weighted>
0.4391

> <Gold.Chemscore.DEInternal.Weighted>
0.0355

> <Gold.Chemscore.Rot.Weighted>
2.5600

> <Gold.Chemscore.Internal.Correction.Weighted>
   9.000000E+99

> <Gold.Protein.RotatedTorsions>
[ 6907 6896 6895 6894 ] final  106.95 input  -60.11 | X-H torsion
[ 7974 7965 7964 7962 ] final    0.77 input  175.53 | X-H torsion
[ 8008 7997 7996 7995 ] final -129.45 input   59.86 | X-H torsion
[ 10167 10162 10161 10158 ] final -150.14 input  -65.29 | X-H torsion
[ 10718 10713 10712 10709 ] final  168.85 input   66.30 | X-H torsion
[ 10763 10752 10751 10750 ] final -120.82 input  -60.55 | X-H torsion
[ 11005 11000 10999 10996 ] final  -51.73 input  -57.11 | X-H torsion

> <Gold.Protein.ActiveResidues>
 VAL166  LYS551  ARG553  GLY616  TRP617  ASP618  TYR619  PRO620  LYS621  CYS622 
 ASP623  PHE694  ASN695  SER759  ASP760  ASP761  ALA762  ILE779  LEU786  VAL792 
 PHE793  MET794  SER795  GLU796  ALA797  LYS798  CYS799  TRP800  GLU811  SER814 

> <Gold.Protein.RotatedAtoms>
  152.5174  133.9306  159.7578 H   0  0  0  0  0  0  0  0  0  0  0  0  # atno 6907 bound_to 6896
  150.9657  133.6389  159.2753 H   0  0  0  0  0  0  0  0  0  0  0  0  # atno 6908 bound_to 6896
  151.3618  135.0911  159.9490 H   0  0  0  0  0  0  0  0  0  0  0  0  # atno 6909 bound_to 6896
  146.2436  140.1087  142.8344 H   0  0  0  0  0  0  0  0  0  0  0  0  # atno 7974 bound_to 7965
  155.2793  140.0443  157.3014 H   0  0  0  0  0  0  0  0  0  0  0  0  # atno 8008 bound_to 7997
  154.5606  140.2345  155.8309 H   0  0  0  0  0  0  0  0  0  0  0  0  # atno 8009 bound_to 7997
  156.2044  140.3016  155.9602 H   0  0  0  0  0  0  0  0  0  0  0  0  # atno 8010 bound_to 7997
  139.7380  143.8705  152.2554 H   0  0  0  0  0  0  0  0  0  0  0  0  # atno 10167 bound_to 10162
  157.0311  131.0259  151.2744 H   0  0  0  0  0  0  0  0  0  0  0  0  # atno 10718 bound_to 10713
  154.8653  135.4189  154.2521 H   0  0  0  0  0  0  0  0  0  0  0  0  # atno 10763 bound_to 10752
  153.3466  135.6996  153.6829 H   0  0  0  0  0  0  0  0  0  0  0  0  # atno 10764 bound_to 10752
  153.5786  135.3577  155.2839 H   0  0  0  0  0  0  0  0  0  0  0  0  # atno 10765 bound_to 10752
  141.0886  133.6637  156.3920 H   0  0  0  0  0  0  0  0  0  0  0  0  # atno 11005 bound_to 11000
  145.0505  140.9014  143.4998 LP  0  0  0  0  0  0  0  0  0  0  0  0  # atno 17320 bound_to 7965
  145.1184  139.2710  143.5601 LP  0  0  0  0  0  0  0  0  0  0  0  0  # atno 17321 bound_to 7965
  139.8648  144.7099  150.9057 LP  0  0  0  0  0  0  0  0  0  0  0  0  # atno 17342 bound_to 10162
  140.7782  143.3787  151.1515 LP  0  0  0  0  0  0  0  0  0  0  0  0  # atno 17343 bound_to 10162
  157.5177  130.7978  149.7774 LP  0  0  0  0  0  0  0  0  0  0  0  0  # atno 17370 bound_to 10713
  156.0069  130.3851  150.2399 LP  0  0  0  0  0  0  0  0  0  0  0  0  # atno 17371 bound_to 10713
  140.5304  134.6218  157.5348 LP  0  0  0  0  0  0  0  0  0  0  0  0  # atno 17394 bound_to 11000
  139.9708  134.7295  156.0044 LP  0  0  0  0  0  0  0  0  0  0  0  0  # atno 17395 bound_to 11000

$$$$
