AV-unprocessed.smi:1433|AV-procd|sdf|5845|dock6
  -GOLD-   22720 5513D 1   1.00000     0.00000
 Structure written by MMmdl.
 45 46  0  0  0  0  0  0  0  0  2 V2000
  145.8748  131.9278  151.3942 C   0  0  0  0  0  0  0  0  0  0  0  0
  146.2957  133.3549  151.7626 C   0  0  2  0  0  0  0  0  0  0  0  0
  147.0934  133.4033  153.0803 C   0  0  0  0  0  0  0  0  0  0  0  0
  147.4212  134.8060  153.4564 N   0  3  2  0  0  0  0  0  0  0  0  0
  148.2454  134.9796  154.6978 C   0  0  2  0  0  0  0  0  0  0  0  0
  149.4690  134.0359  154.6491 C   0  0  0  0  0  0  0  0  0  0  0  0
  147.4458  134.7803  156.0153 C   0  0  0  0  0  0  0  0  0  0  0  0
  148.1079  135.3848  157.1681 N   0  0  0  0  0  0  0  0  0  0  0  0
  147.5889  135.4852  158.4027 C   0  0  0  0  0  0  0  0  0  0  0  0
  146.4515  135.1158  158.6931 O   0  0  0  0  0  0  0  0  0  0  0  0
  148.4978  136.0796  159.4804 C   0  0  0  0  0  0  0  0  0  0  0  0
  147.8375  136.1057  160.7747 N   0  0  0  0  0  0  0  0  0  0  0  0
  147.4703  135.0414  161.5717 C   0  0  0  0  0  0  0  0  0  0  0  0
  146.8719  135.5550  162.6864 C   0  0  0  0  0  0  0  0  0  0  0  0
  146.9221  136.9617  162.4794 C   0  0  0  0  0  0  0  0  0  0  0  0
  147.4998  137.2882  161.3350 N   0  0  0  0  0  0  0  0  0  0  0  0
  146.1717  135.6135  153.4849 C   0  0  0  0  0  0  0  0  0  0  0  0
  145.4130  135.5090  152.1493 C   0  0  2  0  0  0  0  0  0  0  0  0
  144.0900  136.2824  152.1733 C   0  0  0  0  0  0  0  0  0  0  0  0
  145.1197  134.1419  151.8944 O   0  0  0  0  0  0  0  0  0  0  0  0
  146.7440  131.2818  151.2680 H   0  0  0  0  0  0  0  0  0  0  0  0
  145.3141  131.9156  150.4591 H   0  0  0  0  0  0  0  0  0  0  0  0
  145.2421  131.4905  152.1669 H   0  0  0  0  0  0  0  0  0  0  0  0
  146.9053  133.7546  150.9501 H   0  0  0  0  0  0  0  0  0  0  0  0
  146.5264  132.9326  153.8852 H   0  0  0  0  0  0  0  0  0  0  0  0
  148.0021  132.8206  152.9326 H   0  0  0  0  0  0  0  0  0  0  0  0
  148.6110  136.0078  154.7075 H   0  0  0  0  0  0  0  0  0  0  0  0
  150.1475  134.2096  155.4843 H   0  0  0  0  0  0  0  0  0  0  0  0
  150.0671  134.1662  153.7493 H   0  0  0  0  0  0  0  0  0  0  0  0
  149.1590  132.9912  154.6887 H   0  0  0  0  0  0  0  0  0  0  0  0
  146.4729  135.2670  155.9504 H   0  0  0  0  0  0  0  0  0  0  0  0
  147.2538  133.7197  156.1868 H   0  0  0  0  0  0  0  0  0  0  0  0
  149.0494  135.7214  157.0265 H   0  0  0  0  0  0  0  0  0  0  0  0
  149.4121  135.4899  159.5580 H   0  0  0  0  0  0  0  0  0  0  0  0
  148.7910  137.0951  159.2100 H   0  0  0  0  0  0  0  0  0  0  0  0
  147.6621  134.0188  161.2817 H   0  0  0  0  0  0  0  0  0  0  0  0
  146.4623  135.0097  163.5235 H   0  0  0  0  0  0  0  0  0  0  0  0
  146.5583  137.7498  163.1221 H   0  0  0  0  0  0  0  0  0  0  0  0
  145.5355  135.2664  154.3009 H   0  0  0  0  0  0  0  0  0  0  0  0
  146.3888  136.6618  153.6818 H   0  0  0  0  0  0  0  0  0  0  0  0
  146.0308  135.9046  151.3411 H   0  0  0  0  0  0  0  0  0  0  0  0
  144.2585  137.3440  152.3562 H   0  0  0  0  0  0  0  0  0  0  0  0
  143.4275  135.9090  152.9549 H   0  0  0  0  0  0  0  0  0  0  0  0
  143.5665  136.1889  151.2214 H   0  0  0  0  0  0  0  0  0  0  0  0
  147.9843  135.1643  152.6980 H   0  0  0  0  0  0  0  0  0  0  0  0
  1  2  1  0  0  0  0
  1 21  1  0  0  0  0
  1 22  1  0  0  0  0
  1 23  1  0  0  0  0
  2 20  1  0  0  0  0
  2  3  1  0  0  0  0
  2 24  1  0  0  0  0
  3  4  1  0  0  0  0
  3 25  1  0  0  0  0
  3 26  1  0  0  0  0
  4  5  1  0  0  0  0
  4 17  1  0  0  0  0
  4 45  1  0  0  0  0
  5  6  1  0  0  0  0
  5  7  1  0  0  0  0
  5 27  1  0  0  0  0
  6 28  1  0  0  0  0
  6 29  1  0  0  0  0
  6 30  1  0  0  0  0
  7  8  1  0  0  0  0
  7 31  1  0  0  0  0
  7 32  1  0  0  0  0
  8  9  1  0  0  0  0
  8 33  1  0  0  0  0
  9 10  2  0  0  0  0
  9 11  1  0  0  0  0
 11 12  1  0  0  0  0
 11 34  1  0  0  0  0
 11 35  1  0  0  0  0
 12 16  1  0  0  0  0
 12 13  1  0  0  0  0
 13 14  2  0  0  0  0
 13 36  1  0  0  0  0
 14 15  1  0  0  0  0
 14 37  1  0  0  0  0
 15 16  2  0  0  0  0
 15 38  1  0  0  0  0
 17 18  1  0  0  0  0
 17 39  1  0  0  0  0
 17 40  1  0  0  0  0
 18 19  1  0  0  0  0
 18 20  1  0  0  0  0
 18 41  1  0  0  0  0
 19 42  1  0  0  0  0
 19 43  1  0  0  0  0
 19 44  1  0  0  0  0
M  CHG  1   4   1
M  END
> <s_m_source_file>
AV-unprocessed.smi

> <i_m_source_file_index>
1433

> <i_lp_mmshare_version>
43012

> <i_f3d_flags>
0

> <s_epik_input>
W0NIM11bQ0BASF0xW0NIMl1OKFtDSDJdW0NASF0oTzEpW0NIM10pW0NASF0oW0NIM10pW0NIMl1bTkhdQyg9TylbQ0gyXW4yW2NIXVtjSF1bY0hdbjI=

> <s_epik_cmdline>
J2VwaWtfcHl0aG9uJywgJy1waCcsICc3LjAnLCAnLXRuJywgJzgnLCAnLW1hJywgJzIwMCcsICctbWV0YWxfYmluZGluZycsICctaW1hZScsICc8aW5maWxlLm1hZT4nLCAnLW9tYWUnLCAnPG91dGZpbGUubWFlPic=

> <r_lp_tautomer_probability>
1

> <r_epik_Ionization_Penalty>
0.748405

> <r_epik_Ionization_Penalty_Charging>
0.748396

> <r_epik_Ionization_Penalty_Neutral>
8.54426e-06

> <r_epik_State_Penalty>
0.775162

> <r_epik_Charging_Adjusted_Penalty>
1.52356

> <i_epik_Tot_Q>
1

> <i_epik_Tot_abs_Q>
1

> <r_epik_Metal_State_Penalty>
0.775167

> <b_epik_Metal_Only>
0

> <s_lp_Force_Field>
OPLS_2005

> <r_lp_Energy>
19.9081

> <b_lp_Chiralities_Consistent>
1

> <s_lp_Variant>
AV-unprocessed.smi:1433-11

> <Gold.Version>
5.8.1

> <Gold.Id.Protein>
6NUR|6NUR_protein|mol2

> <Gold.PLP.Fitness>
43.4677

> <Gold.PLP.PLP>
-32.6342

> <Gold.PLP.part.hbond>
-3.0000

> <Gold.PLP.part.metal>
0.0000

> <Gold.PLP.part.buried>
-3.4272

> <Gold.PLP.part.nonpolar>
-25.3705

> <Gold.PLP.part.repulsive>
0.1219

> <Gold.PLP.ligand.clash>
0.0000

> <Gold.PLP.ligand.torsion>
0.3508

> <Gold.PLP.Chemscore.Hbond>
3.8240

> <Gold.PLP.Chemscore.CHOScore>
0.0000

> <Gold.PLP.Chemscore.Metal>
0.0000

> <Gold.Chemscore.Hbonds>
donor molecule, donor type, donor heavy atom, donor atom, acceptor molecule, acceptor atom, score
      L1  H     4    45       P1  7948  2.00
      P1  H  6931  6943       L1    16  0.88
      P1  H  6934  6947       L1    16  0.90

> <Gold.PLP.Chemscore.Internal.Correction>
0.0630

> <Gold.Rescore>
     Score         DG    S(hbond)    S(metal)    S(lipo)     H(rot)  DE(clash)    DE(int)     intcor
     15.73     -17.15       2.48        0.00      69.84       1.87       0.01       1.40       ----

> <Gold.Chemscore.Fitness>
15.7335

> <Gold.Chemscore.DG>
-17.1505

> <Gold.Chemscore.ZeroCoef>
-5.4800

> <Gold.Chemscore.Hbond>
2.4777

> <Gold.Chemscore.Metal>
0.0000

> <Gold.Chemscore.Lipo>
69.8371

> <Gold.Chemscore.Internal_Hbond>
0.0000

> <Gold.Chemscore.DEClash>
0.0132

> <Gold.Chemscore.DEInternal>
1.4037

> <Gold.Chemscore.Rot>
1.8657

> <Gold.Chemscore.Internal.Correction>
   9.000000E+99

> <Gold.Chemscore.Hbonds>
donor molecule, donor type, donor heavy atom, donor atom, acceptor molecule, acceptor atom, score
      L1  H     4    45       P1  7948  0.97
      P1  H  6931  6943       L1    16  0.25
      P1  H  6934  6947       L1    16  0.66

> <Gold.Chemscore.Hbond.Weighted>
-8.2757

> <Gold.Chemscore.Metal.Weighted>
-0.0000

> <Gold.Chemscore.Lipo.Weighted>
-8.1709

> <Gold.Chemscore.Internal_Hbond.Weighted>
0.0000

> <Gold.Chemscore.DEClash.Weighted>
0.0132

> <Gold.Chemscore.DEInternal.Weighted>
1.4037

> <Gold.Chemscore.Rot.Weighted>
4.7761

> <Gold.Chemscore.Internal.Correction.Weighted>
   9.000000E+99

> <Gold.Protein.RotatedTorsions>
[ 6907 6896 6895 6894 ] final   51.15 input  -60.11 | X-H torsion
[ 7974 7965 7964 7962 ] final  179.27 input  175.53 | X-H torsion
[ 8008 7997 7996 7995 ] final  162.89 input   59.86 | X-H torsion
[ 10167 10162 10161 10158 ] final   40.66 input  -65.29 | X-H torsion
[ 10718 10713 10712 10709 ] final  -50.25 input   66.30 | X-H torsion
[ 10763 10752 10751 10750 ] final -107.10 input  -60.55 | X-H torsion
[ 11005 11000 10999 10996 ] final -107.04 input  -57.11 | X-H torsion

> <Gold.Protein.ActiveResidues>
 VAL166  LYS551  ARG553  GLY616  TRP617  ASP618  TYR619  PRO620  LYS621  CYS622 
 ASP623  PHE694  ASN695  SER759  ASP760  ASP761  ALA762  ILE779  LEU786  VAL792 
 PHE793  MET794  SER795  GLU796  ALA797  LYS798  CYS799  TRP800  GLU811  SER814 

> <Gold.Protein.RotatedAtoms>
  152.3096  134.7514  160.0339 H   0  0  0  0  0  0  0  0  0  0  0  0  # atno 6907 bound_to 6896
  151.7999  133.3363  159.3532 H   0  0  0  0  0  0  0  0  0  0  0  0  # atno 6908 bound_to 6896
  150.7313  134.5694  159.5927 H   0  0  0  0  0  0  0  0  0  0  0  0  # atno 6909 bound_to 6896
  144.7147  140.0523  143.6435 H   0  0  0  0  0  0  0  0  0  0  0  0  # atno 7974 bound_to 7965
  156.1998  140.1738  156.7923 H   0  0  0  0  0  0  0  0  0  0  0  0  # atno 8008 bound_to 7997
  154.5577  140.0705  156.8800 H   0  0  0  0  0  0  0  0  0  0  0  0  # atno 8009 bound_to 7997
  155.2908  140.3355  155.4255 H   0  0  0  0  0  0  0  0  0  0  0  0  # atno 8010 bound_to 7997
  140.3720  144.2092  150.6133 H   0  0  0  0  0  0  0  0  0  0  0  0  # atno 10167 bound_to 10162
  156.1818  130.4150  149.9496 H   0  0  0  0  0  0  0  0  0  0  0  0  # atno 10718 bound_to 10713
  154.8054  135.4687  154.0379 H   0  0  0  0  0  0  0  0  0  0  0  0  # atno 10763 bound_to 10752
  153.1852  135.6847  153.8432 H   0  0  0  0  0  0  0  0  0  0  0  0  # atno 10764 bound_to 10752
  153.7968  135.3235  155.3363 H   0  0  0  0  0  0  0  0  0  0  0  0  # atno 10765 bound_to 10752
  141.0974  133.8946  157.1928 H   0  0  0  0  0  0  0  0  0  0  0  0  # atno 11005 bound_to 11000
  145.9933  139.3032  143.0971 LP  0  0  0  0  0  0  0  0  0  0  0  0  # atno 17320 bound_to 7965
  145.8877  140.9323  143.0568 LP  0  0  0  0  0  0  0  0  0  0  0  0  # atno 17321 bound_to 7965
  140.5024  143.2314  151.8659 LP  0  0  0  0  0  0  0  0  0  0  0  0  # atno 17342 bound_to 10162
  139.4803  144.5045  151.9017 LP  0  0  0  0  0  0  0  0  0  0  0  0  # atno 17343 bound_to 10162
  156.7264  130.9027  151.3622 LP  0  0  0  0  0  0  0  0  0  0  0  0  # atno 17370 bound_to 10713
  157.6873  130.9198  150.0419 LP  0  0  0  0  0  0  0  0  0  0  0  0  # atno 17371 bound_to 10713
  139.9815  135.0096  156.9760 LP  0  0  0  0  0  0  0  0  0  0  0  0  # atno 17394 bound_to 11000
  140.5106  134.1006  155.7269 LP  0  0  0  0  0  0  0  0  0  0  0  0  # atno 17395 bound_to 11000

$$$$
