AV-unprocessed.smi:196|AV-procd|sdf|1542|dock5
  -GOLD-   2262019403D 1   1.00000     0.00000
 Structure written by MMmdl.
 47 50  0  0  0  0  0  0  0  0  1 V2000
  149.7293  138.1072  154.2862 C   0  0  0  0  0  0  0  0  0  0  0  0
  149.9600  139.6131  154.0805 C   0  0  2  0  0  0  0  0  0  0  0  0
  151.2211  140.0104  154.6184 O   0  0  0  0  0  0  0  0  0  0  0  0
  151.0464  141.0737  155.5445 C   0  0  0  0  0  0  0  0  0  0  0  0
  149.7498  141.7461  155.1126 C   0  0  0  0  0  0  0  0  0  0  0  0
  148.8965  140.5645  154.6753 C   0  0  2  0  0  0  0  0  0  0  0  0
  148.2943  139.9957  155.8278 O   0  0  0  0  0  0  0  0  0  0  0  0
  147.7806  140.9295  153.6684 C   0  0  0  0  0  0  0  0  0  0  0  0
  147.0798  139.7717  153.1359 N   0  0  0  0  0  0  0  0  0  0  0  0
  146.9409  139.4318  151.8083 C   0  0  0  0  0  0  0  0  0  0  0  0
  146.2630  138.3402  151.5797 N   0  0  0  0  0  0  0  0  0  0  0  0
  145.8983  137.9020  152.8458 C   0  0  0  0  0  0  0  0  0  0  0  0
  145.1501  136.7979  153.3281 C   0  0  0  0  0  0  0  0  0  0  0  0
  144.6143  135.8817  152.4914 N   0  0  0  0  0  0  0  0  0  0  0  0
  145.5323  135.3251  151.5029 C   0  0  0  0  0  0  0  0  0  0  0  0
  145.2305  133.8255  151.4349 C   0  0  1  0  0  0  0  0  0  0  0  0
  146.0840  133.1666  152.2204 F   0  0  0  0  0  0  0  0  0  0  0  0
  143.8226  133.7188  152.0130 C   0  0  0  0  0  0  0  0  0  0  0  0
  143.8063  134.8152  153.0855 C   0  0  2  0  0  0  0  0  0  0  0  0
  142.3800  135.2820  153.4124 C   0  0  0  0  0  0  0  0  0  0  0  0
  141.5248  134.3497  153.8382 N   0  0  0  0  0  0  0  0  0  0  0  0
  142.0480  136.4582  153.2736 O   0  0  0  0  0  0  0  0  0  0  0  0
  144.9889  136.6735  154.6715 N   0  0  0  0  0  0  0  0  0  0  0  0
  145.5208  137.5843  155.4925 C   0  0  0  0  0  0  0  0  0  0  0  0
  146.2348  138.6700  155.1854 N   0  0  0  0  0  0  0  0  0  0  0  0
  146.4020  138.7892  153.8365 C   0  0  0  0  0  0  0  0  0  0  0  0
  145.3213  133.4110  150.4306 H   0  0  0  0  0  0  0  0  0  0  0  0
  144.2845  134.4346  153.9903 H   0  0  0  0  0  0  0  0  0  0  0  0
  148.7600  137.8010  153.8921 H   0  0  0  0  0  0  0  0  0  0  0  0
  149.7678  137.8348  155.3414 H   0  0  0  0  0  0  0  0  0  0  0  0
  150.4949  137.5265  153.7712 H   0  0  0  0  0  0  0  0  0  0  0  0
  150.0338  139.7999  153.0082 H   0  0  0  0  0  0  0  0  0  0  0  0
  150.9493  140.6583  156.5484 H   0  0  0  0  0  0  0  0  0  0  0  0
  151.8971  141.7554  155.5378 H   0  0  0  0  0  0  0  0  0  0  0  0
  149.2966  142.3527  155.8978 H   0  0  0  0  0  0  0  0  0  0  0  0
  149.9549  142.3977  154.2624 H   0  0  0  0  0  0  0  0  0  0  0  0
  147.5130  140.4874  156.0299 H   0  0  0  0  0  0  0  0  0  0  0  0
  147.0455  141.5842  154.1386 H   0  0  0  0  0  0  0  0  0  0  0  0
  148.1974  141.4923  152.8321 H   0  0  0  0  0  0  0  0  0  0  0  0
  147.3651  140.0216  151.0084 H   0  0  0  0  0  0  0  0  0  0  0  0
  145.3123  135.7961  150.5444 H   0  0  0  0  0  0  0  0  0  0  0  0
  146.5835  135.5162  151.7271 H   0  0  0  0  0  0  0  0  0  0  0  0
  143.0914  133.9287  151.2302 H   0  0  0  0  0  0  0  0  0  0  0  0
  143.6068  132.7287  152.4159 H   0  0  0  0  0  0  0  0  0  0  0  0
  140.5739  134.6026  154.0647 H   0  0  0  0  0  0  0  0  0  0  0  0
  141.8333  133.3926  153.9297 H   0  0  0  0  0  0  0  0  0  0  0  0
  145.3496  137.4200  156.5461 H   0  0  0  0  0  0  0  0  0  0  0  0
  1  2  1  0  0  0  0
  1 29  1  0  0  0  0
  1 30  1  0  0  0  0
  1 31  1  0  0  0  0
  2  6  1  0  0  0  0
  2  3  1  0  0  0  0
  2 32  1  0  0  0  0
  3  4  1  0  0  0  0
  4  5  1  0  0  0  0
  4 33  1  0  0  0  0
  4 34  1  0  0  0  0
  5  6  1  0  0  0  0
  5 35  1  0  0  0  0
  5 36  1  0  0  0  0
  6  7  1  0  0  0  0
  6  8  1  0  0  0  0
  7 37  1  0  0  0  0
  8  9  1  0  0  0  0
  8 38  1  0  0  0  0
  8 39  1  0  0  0  0
  9 26  1  0  0  0  0
  9 10  1  0  0  0  0
 10 11  2  0  0  0  0
 10 40  1  0  0  0  0
 11 12  1  0  0  0  0
 12 26  2  0  0  0  0
 12 13  1  0  0  0  0
 13 14  1  0  0  0  0
 13 23  2  0  0  0  0
 14 19  1  0  0  0  0
 14 15  1  0  0  0  0
 15 16  1  0  0  0  0
 15 41  1  0  0  0  0
 15 42  1  0  0  0  0
 16 27  1  0  0  0  0
 16 17  1  0  0  0  0
 16 18  1  0  0  0  0
 18 19  1  0  0  0  0
 18 43  1  0  0  0  0
 18 44  1  0  0  0  0
 19 28  1  0  0  0  0
 19 20  1  0  0  0  0
 20 21  1  0  0  0  0
 20 22  2  0  0  0  0
 21 45  1  0  0  0  0
 21 46  1  0  0  0  0
 23 24  1  0  0  0  0
 24 25  2  0  0  0  0
 24 47  1  0  0  0  0
 25 26  1  0  0  0  0
M  END
> <s_m_source_file>
AV-unprocessed.smi

> <i_m_source_file_index>
196

> <i_lp_mmshare_version>
43012

> <i_f3d_flags>
0

> <s_epik_input>
W0NIMl0xW0NIMl1PW0NAQEhdKFtDSDNdKVtDQEBdMShbT0hdKVtDSDJdbihbY0hdbjIpYyhjMjMpbltjSF1uYzNONFtDSDJdW0NASF0oRilbQ0gyXVtDQEhdNEMoPU8pW05IMl0=

> <s_epik_cmdline>
J2VwaWtfcHl0aG9uJywgJy1waCcsICc3LjAnLCAnLXRuJywgJzgnLCAnLW1hJywgJzIwMCcsICctbWV0YWxfYmluZGluZycsICctaW1hZScsICc8aW5maWxlLm1hZT4nLCAnLW9tYWUnLCAnPG91dGZpbGUubWFlPic=

> <r_lp_tautomer_probability>
1

> <r_epik_Ionization_Penalty>
0.000857933

> <r_epik_Ionization_Penalty_Charging>
0

> <r_epik_Ionization_Penalty_Neutral>
0.000857933

> <r_epik_State_Penalty>
0.000462053

> <r_epik_Charging_Adjusted_Penalty>
0.000462053

> <i_epik_Tot_Q>
0

> <i_epik_Tot_abs_Q>
0

> <r_epik_Metal_State_Penalty>
-0

> <b_epik_Metal_Only>
0

> <s_lp_Force_Field>
OPLS_2005

> <r_lp_Energy>
44.722

> <b_lp_Chiralities_Consistent>
1

> <s_lp_Variant>
AV-unprocessed.smi:196-15

> <Gold.Version>
5.8.1

> <Gold.Id.Protein>
6NUR|6NUR_protein|mol2

> <Gold.PLP.Fitness>
43.5705

> <Gold.PLP.PLP>
-36.4399

> <Gold.PLP.part.hbond>
-2.4616

> <Gold.PLP.part.metal>
0.0000

> <Gold.PLP.part.buried>
-3.9319

> <Gold.PLP.part.nonpolar>
-32.1959

> <Gold.PLP.part.repulsive>
1.2485

> <Gold.PLP.ligand.clash>
0.0000

> <Gold.PLP.ligand.torsion>
0.1663

> <Gold.PLP.Chemscore.Hbond>
1.7000

> <Gold.PLP.Chemscore.CHOScore>
0.7249

> <Gold.PLP.Chemscore.Metal>
0.0000

> <Gold.Chemscore.Hbonds>
donor molecule, donor type, donor heavy atom, donor atom, acceptor molecule, acceptor atom, score
      L1  H    21    46       P1 10957  1.00
      P1  H  7989  7998       L1     3  0.57
      L1  C    10    40       P1  7957  0.63

> <Gold.PLP.Chemscore.Internal.Correction>
0.1884

> <Gold.Rescore>
     Score         DG    S(hbond)    S(metal)    S(lipo)     H(rot)  DE(clash)    DE(int)     intcor
      5.82      -8.56       1.18        0.00      59.16       3.04       0.10       2.64       ----

> <Gold.Chemscore.Fitness>
5.8178

> <Gold.Chemscore.DG>
-8.5582

> <Gold.Chemscore.ZeroCoef>
-5.4800

> <Gold.Chemscore.Hbond>
1.1801

> <Gold.Chemscore.Metal>
0.0000

> <Gold.Chemscore.Lipo>
59.1644

> <Gold.Chemscore.Internal_Hbond>
0.0000

> <Gold.Chemscore.DEClash>
0.0963

> <Gold.Chemscore.DEInternal>
2.6441

> <Gold.Chemscore.Rot>
3.0413

> <Gold.Chemscore.Internal.Correction>
   9.000000E+99

> <Gold.Chemscore.Hbonds>
donor molecule, donor type, donor heavy atom, donor atom, acceptor molecule, acceptor atom, score
      L1  H    21    46       P1 10957  0.96
      P1  H  7989  7998       L1     3  0.01

> <Gold.Chemscore.Hbond.Weighted>
-3.9416

> <Gold.Chemscore.Metal.Weighted>
-0.0000

> <Gold.Chemscore.Lipo.Weighted>
-6.9222

> <Gold.Chemscore.Internal_Hbond.Weighted>
0.0000

> <Gold.Chemscore.DEClash.Weighted>
0.0963

> <Gold.Chemscore.DEInternal.Weighted>
2.6441

> <Gold.Chemscore.Rot.Weighted>
7.7856

> <Gold.Chemscore.Internal.Correction.Weighted>
   9.000000E+99

> <Gold.Protein.RotatedTorsions>
[ 6907 6896 6895 6894 ] final   78.59 input  -60.11 | X-H torsion
[ 7974 7965 7964 7962 ] final  113.62 input  175.53 | X-H torsion
[ 8008 7997 7996 7995 ] final -139.98 input   59.86 | X-H torsion
[ 10167 10162 10161 10158 ] final -126.93 input  -65.29 | X-H torsion
[ 10718 10713 10712 10709 ] final  -61.40 input   66.30 | X-H torsion
[ 10763 10752 10751 10750 ] final   94.66 input  -60.55 | X-H torsion
[ 11005 11000 10999 10996 ] final -110.45 input  -57.11 | X-H torsion

> <Gold.Protein.ActiveResidues>
 VAL166  LYS551  ARG553  GLY616  TRP617  ASP618  TYR619  PRO620  LYS621  CYS622 
 ASP623  PHE694  ASN695  SER759  ASP760  ASP761  ALA762  ILE779  LEU786  VAL792 
 PHE793  MET794  SER795  GLU796  ALA797  LYS798  CYS799  TRP800  GLU811  SER814 

> <Gold.Protein.RotatedAtoms>
  152.5165  134.3640  159.9294 H   0  0  0  0  0  0  0  0  0  0  0  0  # atno 6907 bound_to 6896
  151.3593  133.3889  159.2696 H   0  0  0  0  0  0  0  0  0  0  0  0  # atno 6908 bound_to 6896
  150.9665  134.9064  159.7820 H   0  0  0  0  0  0  0  0  0  0  0  0  # atno 6909 bound_to 6896
  145.2147  139.2890  143.4250 H   0  0  0  0  0  0  0  0  0  0  0  0  # atno 7974 bound_to 7965
  155.4538  140.0540  157.2998 H   0  0  0  0  0  0  0  0  0  0  0  0  # atno 8008 bound_to 7997
  154.4766  140.2063  155.9819 H   0  0  0  0  0  0  0  0  0  0  0  0  # atno 8009 bound_to 7997
  156.1141  140.3199  155.8119 H   0  0  0  0  0  0  0  0  0  0  0  0  # atno 8010 bound_to 7997
  139.9662  143.5895  152.2428 H   0  0  0  0  0  0  0  0  0  0  0  0  # atno 10167 bound_to 10162
  156.0924  130.4198  150.0988 H   0  0  0  0  0  0  0  0  0  0  0  0  # atno 10718 bound_to 10713
  153.2442  135.4281  155.0730 H   0  0  0  0  0  0  0  0  0  0  0  0  # atno 10763 bound_to 10752
  154.8354  135.3410  154.6605 H   0  0  0  0  0  0  0  0  0  0  0  0  # atno 10764 bound_to 10752
  153.7028  135.7027  153.5115 H   0  0  0  0  0  0  0  0  0  0  0  0  # atno 10765 bound_to 10752
  141.0791  133.9251  157.2328 H   0  0  0  0  0  0  0  0  0  0  0  0  # atno 11005 bound_to 11000
  146.3390  140.2434  142.8596 LP  0  0  0  0  0  0  0  0  0  0  0  0  # atno 17320 bound_to 7965
  144.9822  140.8470  143.5390 LP  0  0  0  0  0  0  0  0  0  0  0  0  # atno 17321 bound_to 7965
  139.6516  144.7661  151.2137 LP  0  0  0  0  0  0  0  0  0  0  0  0  # atno 17342 bound_to 10162
  140.7537  143.6152  150.8566 LP  0  0  0  0  0  0  0  0  0  0  0  0  # atno 17343 bound_to 10162
  156.8995  130.9615  151.3578 LP  0  0  0  0  0  0  0  0  0  0  0  0  # atno 17370 bound_to 10713
  157.6077  130.8559  149.8902 LP  0  0  0  0  0  0  0  0  0  0  0  0  # atno 17371 bound_to 10713
  139.9604  135.0155  156.9244 LP  0  0  0  0  0  0  0  0  0  0  0  0  # atno 17394 bound_to 11000
  140.5509  134.0628  155.7369 LP  0  0  0  0  0  0  0  0  0  0  0  0  # atno 17395 bound_to 11000

$$$$
