AV-unprocessed.smi:652|AV-procd|sdf|3193|dock8
  -GOLD-   22720 0123D 1   1.00000     0.00000
 Structure written by MMmdl.
 48 49  0  0  0  0  0  0  0  0  2 V2000
  145.3181  132.8318  151.1656 C   0  0  0  0  0  0  0  0  0  0  0  0
  145.7928  134.1389  151.8190 C   0  0  0  0  0  0  0  0  0  0  0  0
  145.5815  135.3444  150.8935 C   0  0  0  0  0  0  0  0  0  0  0  0
  147.2051  134.0438  152.1773 N   0  0  0  0  0  0  0  0  0  0  0  0
  147.7290  133.1792  153.0601 C   0  0  0  0  0  0  0  0  0  0  0  0
  147.0556  132.3551  153.6795 O   0  0  0  0  0  0  0  0  0  0  0  0
  149.2449  133.2726  153.2653 C   0  0  0  0  0  0  0  0  0  0  0  0
  149.6483  133.8494  154.6393 C   0  0  0  0  0  0  0  0  0  0  0  0
  149.5048  135.3290  154.7065 N   0  3  2  0  0  0  0  0  0  0  0  0
  150.7584  136.0245  155.0885 C   0  0  0  0  0  0  0  0  0  0  0  0
  151.0103  135.9265  156.6044 C   0  0  0  0  0  0  0  0  0  0  0  0
  149.8871  136.4434  157.3079 O   0  0  0  0  0  0  0  0  0  0  0  0
  148.6932  135.7112  157.0472 C   0  0  1  0  0  0  0  0  0  0  0  0
  147.5661  136.3051  157.9030 C   0  0  0  0  0  0  0  0  0  0  0  0
  148.0850  136.9445  159.1039 N   0  0  0  0  0  0  0  0  0  0  0  0
  147.8882  136.3682  160.3658 C   0  0  0  0  0  0  0  0  0  0  0  0
  147.5413  135.0050  160.4459 C   0  0  0  0  0  0  0  0  0  0  0  0
  147.3446  134.4562  161.7248 C   0  0  0  0  0  0  0  0  0  0  0  0
  147.5105  135.3138  162.8274 C   0  0  0  0  0  0  0  0  0  0  0  0
  147.8458  136.6167  162.6924 N   0  0  0  0  0  0  0  0  0  0  0  0
  148.0321  137.1377  161.4741 N   0  0  0  0  0  0  0  0  0  0  0  0
  148.3750  135.8150  155.5401 C   0  0  0  0  0  0  0  0  0  0  0  0
  144.2603  132.8862  150.9073 H   0  0  0  0  0  0  0  0  0  0  0  0
  145.4475  131.9828  151.8376 H   0  0  0  0  0  0  0  0  0  0  0  0
  145.8729  132.6204  150.2507 H   0  0  0  0  0  0  0  0  0  0  0  0
  145.2047  134.3086  152.7228 H   0  0  0  0  0  0  0  0  0  0  0  0
  144.5295  135.4556  150.6296 H   0  0  0  0  0  0  0  0  0  0  0  0
  146.1468  135.2390  149.9667 H   0  0  0  0  0  0  0  0  0  0  0  0
  145.8984  136.2703  151.3747 H   0  0  0  0  0  0  0  0  0  0  0  0
  147.8317  134.6866  151.7150 H   0  0  0  0  0  0  0  0  0  0  0  0
  149.6640  132.2723  153.1490 H   0  0  0  0  0  0  0  0  0  0  0  0
  149.6510  133.8822  152.4586 H   0  0  0  0  0  0  0  0  0  0  0  0
  149.0820  133.3685  155.4371 H   0  0  0  0  0  0  0  0  0  0  0  0
  150.6967  133.6064  154.8197 H   0  0  0  0  0  0  0  0  0  0  0  0
  151.6067  135.6313  154.5272 H   0  0  0  0  0  0  0  0  0  0  0  0
  150.6668  137.0745  154.8071 H   0  0  0  0  0  0  0  0  0  0  0  0
  151.2077  134.8981  156.9099 H   0  0  0  0  0  0  0  0  0  0  0  0
  151.8905  136.5097  156.8749 H   0  0  0  0  0  0  0  0  0  0  0  0
  148.8312  134.6659  157.3278 H   0  0  0  0  0  0  0  0  0  0  0  0
  146.9864  137.0240  157.3224 H   0  0  0  0  0  0  0  0  0  0  0  0
  146.8837  135.5086  158.2036 H   0  0  0  0  0  0  0  0  0  0  0  0
  148.5703  137.8261  159.0221 H   0  0  0  0  0  0  0  0  0  0  0  0
  147.4275  134.3991  159.5587 H   0  0  0  0  0  0  0  0  0  0  0  0
  147.0759  133.4186  161.8557 H   0  0  0  0  0  0  0  0  0  0  0  0
  147.3727  134.9502  163.8350 H   0  0  0  0  0  0  0  0  0  0  0  0
  148.1937  136.8597  155.2829 H   0  0  0  0  0  0  0  0  0  0  0  0
  147.4526  135.2871  155.3022 H   0  0  0  0  0  0  0  0  0  0  0  0
  149.3070  135.6172  153.7589 H   0  0  0  0  0  0  0  0  0  0  0  0
  1  2  1  0  0  0  0
  1 23  1  0  0  0  0
  1 24  1  0  0  0  0
  1 25  1  0  0  0  0
  2  3  1  0  0  0  0
  2  4  1  0  0  0  0
  2 26  1  0  0  0  0
  3 27  1  0  0  0  0
  3 28  1  0  0  0  0
  3 29  1  0  0  0  0
  4  5  1  0  0  0  0
  4 30  1  0  0  0  0
  5  6  2  0  0  0  0
  5  7  1  0  0  0  0
  7  8  1  0  0  0  0
  7 31  1  0  0  0  0
  7 32  1  0  0  0  0
  8  9  1  0  0  0  0
  8 33  1  0  0  0  0
  8 34  1  0  0  0  0
  9 22  1  0  0  0  0
  9 10  1  0  0  0  0
  9 48  1  0  0  0  0
 10 11  1  0  0  0  0
 10 35  1  0  0  0  0
 10 36  1  0  0  0  0
 11 12  1  0  0  0  0
 11 37  1  0  0  0  0
 11 38  1  0  0  0  0
 12 13  1  0  0  0  0
 13 14  1  0  0  0  0
 13 22  1  0  0  0  0
 13 39  1  0  0  0  0
 14 15  1  0  0  0  0
 14 40  1  0  0  0  0
 14 41  1  0  0  0  0
 15 16  1  0  0  0  0
 15 42  1  0  0  0  0
 16 21  1  0  0  0  0
 16 17  2  0  0  0  0
 17 18  1  0  0  0  0
 17 43  1  0  0  0  0
 18 19  2  0  0  0  0
 18 44  1  0  0  0  0
 19 20  1  0  0  0  0
 19 45  1  0  0  0  0
 20 21  2  0  0  0  0
 22 46  1  0  0  0  0
 22 47  1  0  0  0  0
M  CHG  1   9   1
M  END
> <s_m_source_file>
AV-unprocessed.smi

> <i_m_source_file_index>
652

> <i_lp_mmshare_version>
43012

> <i_f3d_flags>
0

> <s_epik_input>
W0NIM11bQ0hdKFtDSDNdKVtOSF1DKD1PKVtDSDJdW0NIMl1OMVtDSDJdW0NIMl1PW0NASF0oW0NIMl0xKVtDSDJdW05IXWMyW2NIXVtjSF1bY0hdbm4y

> <s_epik_cmdline>
J2VwaWtfcHl0aG9uJywgJy1waCcsICc3LjAnLCAnLXRuJywgJzgnLCAnLW1hJywgJzIwMCcsICctbWV0YWxfYmluZGluZycsICctaW1hZScsICc8aW5maWxlLm1hZT4nLCAnLW9tYWUnLCAnPG91dGZpbGUubWFlPic=

> <r_lp_tautomer_probability>
0.999978

> <r_epik_Ionization_Penalty>
0.433079

> <r_epik_Ionization_Penalty_Charging>
0.413784

> <r_epik_Ionization_Penalty_Neutral>
0.0192945

> <r_epik_State_Penalty>
0.425138

> <r_epik_Charging_Adjusted_Penalty>
0.838922

> <i_epik_Tot_Q>
1

> <i_epik_Tot_abs_Q>
1

> <r_epik_Metal_State_Penalty>
0.422073

> <b_epik_Metal_Only>
0

> <s_lp_Force_Field>
OPLS_2005

> <r_lp_Energy>
24.1608

> <b_lp_Chiralities_Consistent>
1

> <s_lp_Variant>
AV-unprocessed.smi:652-2

> <Gold.Version>
5.8.1

> <Gold.Id.Protein>
6NUR|6NUR_protein|mol2

> <Gold.PLP.Fitness>
46.4415

> <Gold.PLP.PLP>
-35.6960

> <Gold.PLP.part.hbond>
-4.8084

> <Gold.PLP.part.metal>
0.0000

> <Gold.PLP.part.buried>
-5.2629

> <Gold.PLP.part.nonpolar>
-25.7105

> <Gold.PLP.part.repulsive>
0.2924

> <Gold.PLP.ligand.clash>
0.0000

> <Gold.PLP.ligand.torsion>
1.4921

> <Gold.PLP.Chemscore.Hbond>
4.5380

> <Gold.PLP.Chemscore.CHOScore>
0.0000

> <Gold.PLP.Chemscore.Metal>
0.0000

> <Gold.Chemscore.Hbonds>
donor molecule, donor type, donor heavy atom, donor atom, acceptor molecule, acceptor atom, score
      L1  H     4    30       P1  7948  0.94
      L1  H     9    48       P1  7948  2.00
      P1  H  6931  6943       L1    21  0.85
      P1  H  6934  6947       L1    21  0.48

> <Gold.PLP.Chemscore.Internal.Correction>
0.1157

> <Gold.Rescore>
     Score         DG    S(hbond)    S(metal)    S(lipo)     H(rot)  DE(clash)    DE(int)     intcor
     12.38     -13.98       1.90        0.00      67.67       2.26       0.07       1.52       ----

> <Gold.Chemscore.Fitness>
12.3807

> <Gold.Chemscore.DG>
-13.9750

> <Gold.Chemscore.ZeroCoef>
-5.4800

> <Gold.Chemscore.Hbond>
1.9046

> <Gold.Chemscore.Metal>
0.0000

> <Gold.Chemscore.Lipo>
67.6745

> <Gold.Chemscore.Internal_Hbond>
0.0000

> <Gold.Chemscore.DEClash>
0.0700

> <Gold.Chemscore.DEInternal>
1.5244

> <Gold.Chemscore.Rot>
2.2594

> <Gold.Chemscore.Internal.Correction>
   9.000000E+99

> <Gold.Chemscore.Hbonds>
donor molecule, donor type, donor heavy atom, donor atom, acceptor molecule, acceptor atom, score
      L1  H     4    30       P1  7948  0.20
      L1  H     9    48       P1  7948  0.53
      P1  H  6931  6943       L1    21  0.14
      P1  H  6934  6947       L1    21  0.24

> <Gold.Chemscore.Hbond.Weighted>
-6.3612

> <Gold.Chemscore.Metal.Weighted>
-0.0000

> <Gold.Chemscore.Lipo.Weighted>
-7.9179

> <Gold.Chemscore.Internal_Hbond.Weighted>
0.0000

> <Gold.Chemscore.DEClash.Weighted>
0.0700

> <Gold.Chemscore.DEInternal.Weighted>
1.5244

> <Gold.Chemscore.Rot.Weighted>
5.7841

> <Gold.Chemscore.Internal.Correction.Weighted>
   9.000000E+99

> <Gold.Protein.RotatedTorsions>
[ 6907 6896 6895 6894 ] final  -56.25 input  -60.11 | X-H torsion
[ 7974 7965 7964 7962 ] final  146.13 input  175.53 | X-H torsion
[ 8008 7997 7996 7995 ] final  -66.53 input   59.86 | X-H torsion
[ 10167 10162 10161 10158 ] final  139.43 input  -65.29 | X-H torsion
[ 10718 10713 10712 10709 ] final   92.01 input   66.30 | X-H torsion
[ 10763 10752 10751 10750 ] final  -43.92 input  -60.55 | X-H torsion
[ 11005 11000 10999 10996 ] final -100.91 input  -57.11 | X-H torsion

> <Gold.Protein.ActiveResidues>
 VAL166  LYS551  ARG553  GLY616  TRP617  ASP618  TYR619  PRO620  LYS621  CYS622 
 ASP623  PHE694  ASN695  SER759  ASP760  ASP761  ALA762  ILE779  LEU786  VAL792 
 PHE793  MET794  SER795  GLU796  ALA797  LYS798  CYS799  TRP800  GLU811  SER814 

> <Gold.Protein.RotatedAtoms>
  150.8183  134.7377  159.6749 H   0  0  0  0  0  0  0  0  0  0  0  0  # atno 6907 bound_to 6896
  152.4300  134.5792  159.9953 H   0  0  0  0  0  0  0  0  0  0  0  0  # atno 6908 bound_to 6896
  151.5983  133.3322  159.3078 H   0  0  0  0  0  0  0  0  0  0  0  0  # atno 6909 bound_to 6896
  144.8696  139.5867  143.5893 H   0  0  0  0  0  0  0  0  0  0  0  0  # atno 7974 bound_to 7965
  154.4740  140.0911  156.7217 H   0  0  0  0  0  0  0  0  0  0  0  0  # atno 8008 bound_to 7997
  155.4645  140.3462  155.4299 H   0  0  0  0  0  0  0  0  0  0  0  0  # atno 8009 bound_to 7997
  156.1087  140.1442  156.9357 H   0  0  0  0  0  0  0  0  0  0  0  0  # atno 8010 bound_to 7997
  139.5079  144.6295  151.5854 H   0  0  0  0  0  0  0  0  0  0  0  0  # atno 10167 bound_to 10162
  157.6959  131.0428  150.3817 H   0  0  0  0  0  0  0  0  0  0  0  0  # atno 10718 bound_to 10713
  154.0036  135.6690  153.4760 H   0  0  0  0  0  0  0  0  0  0  0  0  # atno 10763 bound_to 10752
  153.0652  135.5005  154.8179 H   0  0  0  0  0  0  0  0  0  0  0  0  # atno 10764 bound_to 10752
  154.7038  135.3084  154.9264 H   0  0  0  0  0  0  0  0  0  0  0  0  # atno 10765 bound_to 10752
  141.1252  133.8436  157.1164 H   0  0  0  0  0  0  0  0  0  0  0  0  # atno 11005 bound_to 11000
  146.2921  139.7169  142.9153 LP  0  0  0  0  0  0  0  0  0  0  0  0  # atno 17320 bound_to 7965
  145.4155  141.0401  143.2993 LP  0  0  0  0  0  0  0  0  0  0  0  0  # atno 17321 bound_to 7965
  140.6023  143.9588  150.6394 LP  0  0  0  0  0  0  0  0  0  0  0  0  # atno 17342 bound_to 10162
  140.2804  143.3394  152.1157 LP  0  0  0  0  0  0  0  0  0  0  0  0  # atno 17343 bound_to 10162
  156.4230  130.3957  149.6812 LP  0  0  0  0  0  0  0  0  0  0  0  0  # atno 17370 bound_to 10713
  156.4056  130.7696  151.2707 LP  0  0  0  0  0  0  0  0  0  0  0  0  # atno 17371 bound_to 10713
  140.0244  134.9931  157.0656 LP  0  0  0  0  0  0  0  0  0  0  0  0  # atno 17394 bound_to 11000
  140.4387  134.1704  155.7172 LP  0  0  0  0  0  0  0  0  0  0  0  0  # atno 17395 bound_to 11000

$$$$
