AV-unprocessed.smi:2994|AV-procd|sdf|11405|dock6
  -GOLD-   2272016333D 1   1.00000     0.00000
 Structure written by MMmdl.
 47 49  0  0  0  0  0  0  0  0  1 V2000
  149.4522  132.0192  153.6910 C   0  0  0  0  0  0  0  0  0  0  0  0
  148.3655  133.0576  154.0029 C   0  0  1  0  0  0  0  0  0  0  0  0
  148.9730  134.3849  153.9952 N   0  0  0  0  0  0  0  0  0  0  0  0
  149.5838  134.9671  155.0372 C   0  0  0  0  0  0  0  0  0  0  0  0
  149.7014  134.4321  156.1388 O   0  0  0  0  0  0  0  0  0  0  0  0
  150.0294  136.1923  154.7092 N   0  0  0  0  0  0  0  0  0  0  0  0
  150.7342  137.1417  155.5003 C   0  0  0  0  0  0  0  0  0  0  0  0
  151.0430  138.4644  155.0999 C   0  0  0  0  0  0  0  0  0  0  0  0
  151.7401  139.3007  155.9926 C   0  0  0  0  0  0  0  0  0  0  0  0
  152.0956  138.7968  157.2637 C   0  0  0  0  0  0  0  0  0  0  0  0
  152.8570  139.6500  158.2362 C   0  0  0  0  0  0  0  0  0  0  0  0
  154.0412  139.3854  158.4483 O   0  0  0  0  0  0  0  0  0  0  0  0
  152.2100  140.6821  158.8348 N   0  0  0  0  0  0  0  0  0  0  0  0
  152.8448  141.7895  159.5681 C   0  0  0  0  0  0  0  0  0  0  0  0
  152.7584  143.0700  158.7169 C   0  0  0  0  0  0  0  0  0  0  0  0
  151.3009  143.3869  158.3357 C   0  0  0  0  0  0  0  0  0  0  0  0
  150.5977  142.1608  157.7263 C   0  0  0  0  0  0  0  0  0  0  0  0
  150.7761  140.9255  158.6271 C   0  0  0  0  0  0  0  0  0  0  0  0
  151.8117  137.5329  157.6484 N   0  0  0  0  0  0  0  0  0  0  0  0
  151.1449  136.7364  156.7873 C   0  0  0  0  0  0  0  0  0  0  0  0
  147.1952  132.9211  153.0428 C   0  0  0  0  0  0  0  0  0  0  0  0
  147.2653  133.4588  151.6327 C   0  0  0  0  0  0  0  0  0  0  0  0
  146.3678  134.1226  152.6515 C   0  0  0  0  0  0  0  0  0  0  0  0
  149.0528  131.0059  153.7407 H   0  0  0  0  0  0  0  0  0  0  0  0
  150.2744  132.0823  154.4049 H   0  0  0  0  0  0  0  0  0  0  0  0
  149.8657  132.1642  152.6921 H   0  0  0  0  0  0  0  0  0  0  0  0
  148.0011  132.8503  155.0111 H   0  0  0  0  0  0  0  0  0  0  0  0
  148.9207  134.9004  153.1288 H   0  0  0  0  0  0  0  0  0  0  0  0
  149.8200  136.4952  153.7692 H   0  0  0  0  0  0  0  0  0  0  0  0
  150.7617  138.8629  154.1389 H   0  0  0  0  0  0  0  0  0  0  0  0
  151.9911  140.3116  155.7058 H   0  0  0  0  0  0  0  0  0  0  0  0
  152.3272  141.9336  160.5175 H   0  0  0  0  0  0  0  0  0  0  0  0
  153.8871  141.6114  159.8252 H   0  0  0  0  0  0  0  0  0  0  0  0
  153.1929  143.9108  159.2582 H   0  0  0  0  0  0  0  0  0  0  0  0
  153.3537  142.9443  157.8114 H   0  0  0  0  0  0  0  0  0  0  0  0
  150.7592  143.7014  159.2285 H   0  0  0  0  0  0  0  0  0  0  0  0
  151.2659  144.2264  157.6410 H   0  0  0  0  0  0  0  0  0  0  0  0
  149.5379  142.3715  157.5814 H   0  0  0  0  0  0  0  0  0  0  0  0
  151.0111  141.9543  156.7381 H   0  0  0  0  0  0  0  0  0  0  0  0
  150.2624  140.0678  158.1905 H   0  0  0  0  0  0  0  0  0  0  0  0
  150.2972  141.0942  159.5928 H   0  0  0  0  0  0  0  0  0  0  0  0
  150.9330  135.7377  157.1402 H   0  0  0  0  0  0  0  0  0  0  0  0
  146.6377  131.9947  153.1694 H   0  0  0  0  0  0  0  0  0  0  0  0
  148.1645  133.9945  151.3348 H   0  0  0  0  0  0  0  0  0  0  0  0
  146.7918  132.8712  150.8490 H   0  0  0  0  0  0  0  0  0  0  0  0
  145.2943  133.9805  152.5455 H   0  0  0  0  0  0  0  0  0  0  0  0
  146.6746  135.0955  153.0306 H   0  0  0  0  0  0  0  0  0  0  0  0
  1  2  1  0  0  0  0
  1 24  1  0  0  0  0
  1 25  1  0  0  0  0
  1 26  1  0  0  0  0
  2  3  1  0  0  0  0
  2 21  1  0  0  0  0
  2 27  1  0  0  0  0
  3  4  1  0  0  0  0
  3 28  1  0  0  0  0
  4  5  2  0  0  0  0
  4  6  1  0  0  0  0
  6  7  1  0  0  0  0
  6 29  1  0  0  0  0
  7 20  1  0  0  0  0
  7  8  2  0  0  0  0
  8  9  1  0  0  0  0
  8 30  1  0  0  0  0
  9 10  2  0  0  0  0
  9 31  1  0  0  0  0
 10 11  1  0  0  0  0
 10 19  1  0  0  0  0
 11 12  2  0  0  0  0
 11 13  1  0  0  0  0
 13 18  1  0  0  0  0
 13 14  1  0  0  0  0
 14 15  1  0  0  0  0
 14 32  1  0  0  0  0
 14 33  1  0  0  0  0
 15 16  1  0  0  0  0
 15 34  1  0  0  0  0
 15 35  1  0  0  0  0
 16 17  1  0  0  0  0
 16 36  1  0  0  0  0
 16 37  1  0  0  0  0
 17 18  1  0  0  0  0
 17 38  1  0  0  0  0
 17 39  1  0  0  0  0
 18 40  1  0  0  0  0
 18 41  1  0  0  0  0
 19 20  2  0  0  0  0
 20 42  1  0  0  0  0
 21 23  1  0  0  0  0
 21 22  1  0  0  0  0
 21 43  1  0  0  0  0
 22 23  1  0  0  0  0
 22 44  1  0  0  0  0
 22 45  1  0  0  0  0
 23 46  1  0  0  0  0
 23 47  1  0  0  0  0
M  END
> <s_m_source_file>
AV-unprocessed.smi

> <i_m_source_file_index>
2994

> <i_lp_mmshare_version>
43012

> <i_f3d_flags>
0

> <s_epik_input>
W0NIMl0xW0NIMl1bQ0hdMVtDQEhdKFtDSDNdKVtOSF1DKD1PKVtOSF1jMltjSF1bY0hdYyhuW2NIXTIpQyg9TylOM1tDSDJdW0NIMl1bQ0gyXVtDSDJdW0NIMl0z

> <s_epik_cmdline>
J2VwaWtfcHl0aG9uJywgJy1waCcsICc3LjAnLCAnLXRuJywgJzgnLCAnLW1hJywgJzIwMCcsICctbWV0YWxfYmluZGluZycsICctaW1hZScsICc8aW5maWxlLm1hZT4nLCAnLW9tYWUnLCAnPG91dGZpbGUubWFlPic=

> <r_lp_tautomer_probability>
1

> <r_epik_Ionization_Penalty>
4.52104e-05

> <r_epik_Ionization_Penalty_Charging>
0

> <r_epik_Ionization_Penalty_Neutral>
4.52104e-05

> <r_epik_State_Penalty>
-0

> <r_epik_Charging_Adjusted_Penalty>
0

> <i_epik_Tot_Q>
0

> <i_epik_Tot_abs_Q>
0

> <r_epik_Metal_State_Penalty>
-0

> <b_epik_Metal_Only>
0

> <s_lp_Force_Field>
OPLS_2005

> <r_lp_Energy>
45.5302

> <b_lp_Chiralities_Consistent>
1

> <s_lp_Variant>
AV-unprocessed.smi:2994-2

> <Gold.Version>
5.8.1

> <Gold.Id.Protein>
6NUR|6NUR_protein|mol2

> <Gold.PLP.Fitness>
44.0290

> <Gold.PLP.PLP>
-37.6223

> <Gold.PLP.part.hbond>
-3.0000

> <Gold.PLP.part.metal>
0.0000

> <Gold.PLP.part.buried>
-4.0953

> <Gold.PLP.part.nonpolar>
-29.8958

> <Gold.PLP.part.repulsive>
0.0668

> <Gold.PLP.ligand.clash>
0.0000

> <Gold.PLP.ligand.torsion>
2.3087

> <Gold.PLP.Chemscore.Hbond>
3.0000

> <Gold.PLP.Chemscore.CHOScore>
0.0000

> <Gold.PLP.Chemscore.Metal>
0.0000

> <Gold.Chemscore.Hbonds>
donor molecule, donor type, donor heavy atom, donor atom, acceptor molecule, acceptor atom, score
      L1  H     3    28       P1  7948  0.90
      L1  H     6    29       P1  7948  0.89
      P1  H  7997  8008       L1    12  1.00

> <Gold.PLP.Chemscore.Internal.Correction>
2.0242

> <Gold.Rescore>
     Score         DG    S(hbond)    S(metal)    S(lipo)     H(rot)  DE(clash)    DE(int)     intcor
     18.30     -22.07       2.77        0.00      87.67       1.14       0.00       3.77       ----

> <Gold.Chemscore.Fitness>
18.2951

> <Gold.Chemscore.DG>
-22.0707

> <Gold.Chemscore.ZeroCoef>
-5.4800

> <Gold.Chemscore.Hbond>
2.7700

> <Gold.Chemscore.Metal>
0.0000

> <Gold.Chemscore.Lipo>
87.6661

> <Gold.Chemscore.Internal_Hbond>
0.0000

> <Gold.Chemscore.DEClash>
0.0015

> <Gold.Chemscore.DEInternal>
3.7741

> <Gold.Chemscore.Rot>
1.1399

> <Gold.Chemscore.Internal.Correction>
   9.000000E+99

> <Gold.Chemscore.Hbonds>
donor molecule, donor type, donor heavy atom, donor atom, acceptor molecule, acceptor atom, score
      L1  H     3    28       P1  7948  0.18
      L1  H     6    29       P1  7948  0.33
      P1  H  7997  8008       L1    12  0.25

> <Gold.Chemscore.Hbond.Weighted>
-9.2518

> <Gold.Chemscore.Metal.Weighted>
-0.0000

> <Gold.Chemscore.Lipo.Weighted>
-10.2569

> <Gold.Chemscore.Internal_Hbond.Weighted>
0.0000

> <Gold.Chemscore.DEClash.Weighted>
0.0015

> <Gold.Chemscore.DEInternal.Weighted>
3.7741

> <Gold.Chemscore.Rot.Weighted>
2.9180

> <Gold.Chemscore.Internal.Correction.Weighted>
   9.000000E+99

> <Gold.Protein.RotatedTorsions>
[ 6907 6896 6895 6894 ] final  -29.90 input  -60.11 | X-H torsion
[ 7974 7965 7964 7962 ] final  -84.65 input  175.53 | X-H torsion
[ 8008 7997 7996 7995 ] final  -93.20 input   59.86 | X-H torsion
[ 10167 10162 10161 10158 ] final -161.58 input  -65.29 | X-H torsion
[ 10718 10713 10712 10709 ] final   19.11 input   66.30 | X-H torsion
[ 10763 10752 10751 10750 ] final   56.18 input  -60.55 | X-H torsion
[ 11005 11000 10999 10996 ] final  149.02 input  -57.11 | X-H torsion

> <Gold.Protein.ActiveResidues>
 VAL166  LYS551  ARG553  GLY616  TRP617  ASP618  TYR619  PRO620  LYS621  CYS622 
 ASP623  PHE694  ASN695  SER759  ASP760  ASP761  ALA762  ILE779  LEU786  VAL792 
 PHE793  MET794  SER795  GLU796  ALA797  LYS798  CYS799  TRP800  GLU811  SER814 

> <Gold.Protein.RotatedAtoms>
  151.1128  135.0036  159.8501 H   0  0  0  0  0  0  0  0  0  0  0  0  # atno 6907 bound_to 6896
  152.5444  134.1815  159.8647 H   0  0  0  0  0  0  0  0  0  0  0  0  # atno 6908 bound_to 6896
  151.1867  133.4647  159.2627 H   0  0  0  0  0  0  0  0  0  0  0  0  # atno 6909 bound_to 6896
  145.5038  140.9545  143.1745 H   0  0  0  0  0  0  0  0  0  0  0  0  # atno 7974 bound_to 7965
  154.7326  140.0501  157.0740 H   0  0  0  0  0  0  0  0  0  0  0  0  # atno 8008 bound_to 7997
  155.0281  140.3155  155.4749 H   0  0  0  0  0  0  0  0  0  0  0  0  # atno 8009 bound_to 7997
  156.2845  140.2155  156.5402 H   0  0  0  0  0  0  0  0  0  0  0  0  # atno 8010 bound_to 7997
  139.6455  144.0181  152.2123 H   0  0  0  0  0  0  0  0  0  0  0  0  # atno 10167 bound_to 10162
  157.1058  130.6487  149.5884 H   0  0  0  0  0  0  0  0  0  0  0  0  # atno 10718 bound_to 10713
  152.9828  135.5685  154.5187 H   0  0  0  0  0  0  0  0  0  0  0  0  # atno 10763 bound_to 10752
  154.4679  135.2784  155.1667 H   0  0  0  0  0  0  0  0  0  0  0  0  # atno 10764 bound_to 10752
  154.3227  135.6265  153.5568 H   0  0  0  0  0  0  0  0  0  0  0  0  # atno 10765 bound_to 10752
  140.1009  134.8984  157.1794 H   0  0  0  0  0  0  0  0  0  0  0  0  # atno 11005 bound_to 11000
  144.7765  139.6618  143.7172 LP  0  0  0  0  0  0  0  0  0  0  0  0  # atno 17320 bound_to 7965
  146.2209  139.5635  142.9619 LP  0  0  0  0  0  0  0  0  0  0  0  0  # atno 17321 bound_to 7965
  139.9881  144.6381  150.7839 LP  0  0  0  0  0  0  0  0  0  0  0  0  # atno 17342 bound_to 10162
  140.7512  143.2969  151.3182 LP  0  0  0  0  0  0  0  0  0  0  0  0  # atno 17343 bound_to 10162
  155.9862  130.4896  150.7069 LP  0  0  0  0  0  0  0  0  0  0  0  0  # atno 17370 bound_to 10713
  157.4602  131.0882  151.0754 LP  0  0  0  0  0  0  0  0  0  0  0  0  # atno 17371 bound_to 10713
  140.3221  134.2904  155.7244 LP  0  0  0  0  0  0  0  0  0  0  0  0  # atno 17394 bound_to 11000
  141.2105  133.7717  156.9926 LP  0  0  0  0  0  0  0  0  0  0  0  0  # atno 17395 bound_to 11000

$$$$
