AV-unprocessed.smi:2887|AV-procd|sdf|11099|dock4
  -GOLD-   2272015563D 1   1.00000     0.00000
 Structure written by MMmdl.
 38 39  0  0  0  0  0  0  0  0  3 V2000
  150.6079  140.5838  155.1110 O   0  0  0  0  0  0  0  0  0  0  0  0
  149.8904  141.5709  155.2675 C   0  0  0  0  0  0  0  0  0  0  0  0
  148.6591  141.7458  154.3640 C   0  0  0  0  0  0  0  0  0  0  0  0
  147.6940  140.6498  154.4365 N   0  0  0  0  0  0  0  0  0  0  0  0
  147.3337  139.9217  153.3074 C   0  0  0  0  0  0  0  0  0  0  0  0
  146.5086  138.8584  153.3292 C   0  0  0  0  0  0  0  0  0  0  0  0
  145.9372  138.4089  154.6148 C   0  0  0  0  0  0  0  0  0  0  0  0
  145.1994  137.4258  154.6612 O   0  0  0  0  0  0  0  0  0  0  0  0
  146.3100  139.1909  155.8304 C   0  0  0  0  0  0  0  0  0  0  0  0
  145.8352  138.9177  157.1722 N   0  3  0  0  0  0  0  0  0  0  0  0
  146.2830  139.5712  158.1101 O   0  0  0  0  0  0  0  0  0  0  0  0
  144.9937  138.0400  157.3336 O   0  5  0  0  0  0  0  0  0  0  0  0
  147.1527  140.2403  155.6551 C   0  0  0  0  0  0  0  0  0  0  0  0
  150.1424  142.5222  156.1835 N   0  0  0  0  0  0  0  0  0  0  0  0
  151.3089  142.5867  157.0589 C   0  0  0  0  0  0  0  0  0  0  0  0
  151.1846  143.7471  158.0621 C   0  0  0  0  0  0  0  0  0  0  0  0
  151.8529  143.4660  159.3962 C   0  0  0  0  0  0  0  0  0  0  0  0
  152.6219  142.4196  159.6933 C   0  0  0  0  0  0  0  0  0  0  0  0
  153.1151  142.4477  161.1136 C   0  0  0  0  0  0  0  0  0  0  0  0
  152.5020  143.7401  161.6973 C   0  0  0  0  0  0  0  0  0  0  0  0
  151.6894  144.4048  160.5633 C   0  0  0  0  0  0  0  0  0  0  0  0
  148.1631  142.6808  154.6289 H   0  0  0  0  0  0  0  0  0  0  0  0
  149.0006  141.8689  153.3353 H   0  0  0  0  0  0  0  0  0  0  0  0
  147.7733  140.2778  152.3870 H   0  0  0  0  0  0  0  0  0  0  0  0
  146.2568  138.3229  152.4255 H   0  0  0  0  0  0  0  0  0  0  0  0
  147.4679  140.8594  156.4832 H   0  0  0  0  0  0  0  0  0  0  0  0
  149.4923  143.2925  156.2444 H   0  0  0  0  0  0  0  0  0  0  0  0
  151.3852  141.6421  157.5978 H   0  0  0  0  0  0  0  0  0  0  0  0
  152.2342  142.6867  156.4894 H   0  0  0  0  0  0  0  0  0  0  0  0
  151.6302  144.6455  157.6324 H   0  0  0  0  0  0  0  0  0  0  0  0
  150.1334  143.9774  158.2376 H   0  0  0  0  0  0  0  0  0  0  0  0
  152.8760  141.6194  159.0137 H   0  0  0  0  0  0  0  0  0  0  0  0
  152.7740  141.5617  161.6496 H   0  0  0  0  0  0  0  0  0  0  0  0
  154.2050  142.4707  161.1340 H   0  0  0  0  0  0  0  0  0  0  0  0
  151.8568  143.5082  162.5456 H   0  0  0  0  0  0  0  0  0  0  0  0
  153.2827  144.4105  162.0586 H   0  0  0  0  0  0  0  0  0  0  0  0
  152.0801  145.3912  160.3120 H   0  0  0  0  0  0  0  0  0  0  0  0
  150.6380  144.5060  160.8330 H   0  0  0  0  0  0  0  0  0  0  0  0
  1  2  2  0  0  0  0
  2  3  1  0  0  0  0
  2 14  1  0  0  0  0
  3  4  1  0  0  0  0
  3 22  1  0  0  0  0
  3 23  1  0  0  0  0
  4 13  1  0  0  0  0
  4  5  1  0  0  0  0
  5  6  2  0  0  0  0
  5 24  1  0  0  0  0
  6  7  1  0  0  0  0
  6 25  1  0  0  0  0
  7  8  2  0  0  0  0
  7  9  1  0  0  0  0
  9 10  1  0  0  0  0
  9 13  2  0  0  0  0
 10 11  2  0  0  0  0
 10 12  1  0  0  0  0
 13 26  1  0  0  0  0
 14 15  1  0  0  0  0
 14 27  1  0  0  0  0
 15 16  1  0  0  0  0
 15 28  1  0  0  0  0
 15 29  1  0  0  0  0
 16 17  1  0  0  0  0
 16 30  1  0  0  0  0
 16 31  1  0  0  0  0
 17 21  1  0  0  0  0
 17 18  2  0  0  0  0
 18 19  1  0  0  0  0
 18 32  1  0  0  0  0
 19 20  1  0  0  0  0
 19 33  1  0  0  0  0
 19 34  1  0  0  0  0
 20 21  1  0  0  0  0
 20 35  1  0  0  0  0
 20 36  1  0  0  0  0
 21 37  1  0  0  0  0
 21 38  1  0  0  0  0
M  CHG  1  10   1
M  CHG  1  12  -1
M  END
> <s_m_source_file>
AV-unprocessed.smi

> <i_m_source_file_index>
2887

> <i_lp_mmshare_version>
43012

> <i_f3d_flags>
0

> <s_epik_input>
W0NIMl0xW0NIMl1bQ0gyXVtDSF09QzFbQ0gyXVtDSDJdW05IXUMoPU8pW0NIMl1uMltjSF1bY0hdYyg9TyljKFtOK10oPU8pW08tXSlbY0hdMg==

> <s_epik_cmdline>
J2VwaWtfcHl0aG9uJywgJy1waCcsICc3LjAnLCAnLXRuJywgJzgnLCAnLW1hJywgJzIwMCcsICctbWV0YWxfYmluZGluZycsICctaW1hZScsICc8aW5maWxlLm1hZT4nLCAnLW9tYWUnLCAnPG91dGZpbGUubWFlPic=

> <r_lp_tautomer_probability>
1

> <r_epik_Ionization_Penalty>
2.85916e-08

> <r_epik_Ionization_Penalty_Charging>
1.01785e-08

> <r_epik_Ionization_Penalty_Neutral>
1.84131e-08

> <r_epik_State_Penalty>
-0

> <r_epik_Charging_Adjusted_Penalty>
1.01785e-08

> <i_epik_Tot_Q>
0

> <i_epik_Tot_abs_Q>
2

> <r_epik_Metal_State_Penalty>
-0

> <b_epik_Metal_Only>
0

> <s_lp_Force_Field>
OPLS_2005

> <r_lp_Energy>
18.7972

> <b_lp_Chiralities_Consistent>
1

> <s_lp_Variant>
AV-unprocessed.smi:2887-1

> <Gold.Version>
5.8.1

> <Gold.Id.Protein>
6NUR|6NUR_protein|mol2

> <Gold.PLP.Fitness>
46.8528

> <Gold.PLP.PLP>
-38.4670

> <Gold.PLP.part.hbond>
-2.7398

> <Gold.PLP.part.metal>
0.0000

> <Gold.PLP.part.buried>
-4.1264

> <Gold.PLP.part.nonpolar>
-30.7976

> <Gold.PLP.part.repulsive>
0.2178

> <Gold.PLP.ligand.clash>
0.0000

> <Gold.PLP.ligand.torsion>
0.3121

> <Gold.PLP.Chemscore.Hbond>
1.9920

> <Gold.PLP.Chemscore.CHOScore>
1.0000

> <Gold.PLP.Chemscore.Metal>
0.0000

> <Gold.Chemscore.Hbonds>
donor molecule, donor type, donor heavy atom, donor atom, acceptor molecule, acceptor atom, score
      L1  H    14    27       P1  8028  1.00
      P1  H  7989  7998       L1     1  0.96
      L1  C     5    24       P1  7957  1.00

> <Gold.PLP.Chemscore.Internal.Correction>
0.0339

> <Gold.Rescore>
     Score         DG    S(hbond)    S(metal)    S(lipo)     H(rot)  DE(clash)    DE(int)     intcor
     15.68     -17.50       1.59        0.00     101.18       2.00       0.02       1.80       ----

> <Gold.Chemscore.Fitness>
15.6843

> <Gold.Chemscore.DG>
-17.4989

> <Gold.Chemscore.ZeroCoef>
-5.4800

> <Gold.Chemscore.Hbond>
1.5865

> <Gold.Chemscore.Metal>
0.0000

> <Gold.Chemscore.Lipo>
101.1758

> <Gold.Chemscore.Internal_Hbond>
0.0000

> <Gold.Chemscore.DEClash>
0.0186

> <Gold.Chemscore.DEInternal>
1.7959

> <Gold.Chemscore.Rot>
1.9991

> <Gold.Chemscore.Internal.Correction>
   9.000000E+99

> <Gold.Chemscore.Hbonds>
donor molecule, donor type, donor heavy atom, donor atom, acceptor molecule, acceptor atom, score
      L1  H    14    27       P1  8028  0.95
      P1  H  7989  7998       L1     1  0.55

> <Gold.Chemscore.Hbond.Weighted>
-5.2990

> <Gold.Chemscore.Metal.Weighted>
-0.0000

> <Gold.Chemscore.Lipo.Weighted>
-11.8376

> <Gold.Chemscore.Internal_Hbond.Weighted>
0.0000

> <Gold.Chemscore.DEClash.Weighted>
0.0186

> <Gold.Chemscore.DEInternal.Weighted>
1.7959

> <Gold.Chemscore.Rot.Weighted>
5.1177

> <Gold.Chemscore.Internal.Correction.Weighted>
   9.000000E+99

> <Gold.Protein.RotatedTorsions>
[ 6907 6896 6895 6894 ] final   91.22 input  -60.11 | X-H torsion
[ 7974 7965 7964 7962 ] final -174.33 input  175.53 | X-H torsion
[ 8008 7997 7996 7995 ] final  121.17 input   59.86 | X-H torsion
[ 10167 10162 10161 10158 ] final -108.53 input  -65.29 | X-H torsion
[ 10718 10713 10712 10709 ] final  159.81 input   66.30 | X-H torsion
[ 10763 10752 10751 10750 ] final   -6.69 input  -60.55 | X-H torsion
[ 11005 11000 10999 10996 ] final  -31.94 input  -57.11 | X-H torsion

> <Gold.Protein.ActiveResidues>
 VAL166  LYS551  ARG553  GLY616  TRP617  ASP618  TYR619  PRO620  LYS621  CYS622 
 ASP623  PHE694  ASN695  SER759  ASP760  ASP761  ALA762  ILE779  LEU786  VAL792 
 PHE793  MET794  SER795  GLU796  ALA797  LYS798  CYS799  TRP800  GLU811  SER814 

> <Gold.Protein.RotatedAtoms>
  152.5449  134.1691  159.8589 H   0  0  0  0  0  0  0  0  0  0  0  0  # atno 6907 bound_to 6896
  151.1703  133.4782  159.2601 H   0  0  0  0  0  0  0  0  0  0  0  0  # atno 6908 bound_to 6896
  151.1282  135.0127  159.8625 H   0  0  0  0  0  0  0  0  0  0  0  0  # atno 6909 bound_to 6896
  144.7132  140.1488  143.6386 H   0  0  0  0  0  0  0  0  0  0  0  0  # atno 7974 bound_to 7965
  156.2675  140.2814  156.1266 H   0  0  0  0  0  0  0  0  0  0  0  0  # atno 8008 bound_to 7997
  155.1099  140.0390  157.2738 H   0  0  0  0  0  0  0  0  0  0  0  0  # atno 8009 bound_to 7997
  154.6750  140.2596  155.6973 H   0  0  0  0  0  0  0  0  0  0  0  0  # atno 8010 bound_to 7997
  140.1651  143.4088  152.1397 H   0  0  0  0  0  0  0  0  0  0  0  0  # atno 10167 bound_to 10162
  157.1590  131.0582  151.2242 H   0  0  0  0  0  0  0  0  0  0  0  0  # atno 10718 bound_to 10713
  153.4159  135.7009  153.6327 H   0  0  0  0  0  0  0  0  0  0  0  0  # atno 10763 bound_to 10752
  153.4801  135.3695  155.2438 H   0  0  0  0  0  0  0  0  0  0  0  0  # atno 10764 bound_to 10752
  154.8719  135.4064  154.3519 H   0  0  0  0  0  0  0  0  0  0  0  0  # atno 10765 bound_to 10752
  140.9510  133.7221  156.1220 H   0  0  0  0  0  0  0  0  0  0  0  0  # atno 11005 bound_to 11000
  145.9135  139.2502  143.1423 LP  0  0  0  0  0  0  0  0  0  0  0  0  # atno 17320 bound_to 7965
  145.9692  140.8774  143.0171 LP  0  0  0  0  0  0  0  0  0  0  0  0  # atno 17321 bound_to 7965
  139.5363  144.7213  151.4882 LP  0  0  0  0  0  0  0  0  0  0  0  0  # atno 17342 bound_to 10162
  140.6618  143.8482  150.6896 LP  0  0  0  0  0  0  0  0  0  0  0  0  # atno 17343 bound_to 10162
  157.4150  130.7406  149.6868 LP  0  0  0  0  0  0  0  0  0  0  0  0  # atno 17370 bound_to 10713
  155.9757  130.4085  150.3831 LP  0  0  0  0  0  0  0  0  0  0  0  0  # atno 17371 bound_to 10713
  140.7602  134.3947  157.5527 LP  0  0  0  0  0  0  0  0  0  0  0  0  # atno 17394 bound_to 11000
  139.8847  134.8956  156.2684 LP  0  0  0  0  0  0  0  0  0  0  0  0  # atno 17395 bound_to 11000

$$$$
