AV-unprocessed.smi:778|AV-procd|sdf|3703|dock10
  -GOLD-   22720 1123D 1   1.00000     0.00000
 Structure written by MMmdl.
 40 41  0  0  0  0  0  0  0  0  1 V2000
  144.9328  137.4704  154.5156 N   0  0  0  0  0  0  0  0  0  0  0  0
  146.0079  137.8700  154.6673 C   0  0  0  0  0  0  0  0  0  0  0  0
  147.3613  138.3732  154.8582 C   0  0  0  0  0  0  0  0  0  0  0  0
  147.9973  138.2551  156.1129 C   0  0  0  0  0  0  0  0  0  0  0  0
  149.2510  138.7103  156.3243 N   0  0  0  0  0  0  0  0  0  0  0  0
  149.8625  139.2788  155.2819 C   0  0  0  0  0  0  0  0  0  0  0  0
  151.5197  139.8978  155.5217 S   0  0  0  0  0  0  0  0  0  0  0  0
  151.2398  141.5178  156.3020 C   0  0  0  0  0  0  0  0  0  0  0  0
  150.8669  141.3680  157.7791 C   0  0  0  0  0  0  0  0  0  0  0  0
  150.9774  142.6390  158.4017 O   0  0  0  0  0  0  0  0  0  0  0  0
  152.2693  143.2329  158.3496 C   0  0  0  0  0  0  0  0  0  0  0  0
  153.3069  142.5405  159.2621 C   0  0  0  0  0  0  0  0  0  0  0  0
  152.8930  142.3724  160.7319 C   0  0  0  0  0  0  0  0  0  0  0  0
  152.5644  143.6841  161.4632 C   0  0  0  0  0  0  0  0  0  0  0  0
  151.2064  144.2697  161.0494 C   0  0  0  0  0  0  0  0  0  0  0  0
  151.2210  145.1604  159.7938 C   0  0  0  0  0  0  0  0  0  0  0  0
  152.1477  144.7418  158.6339 C   0  0  0  0  0  0  0  0  0  0  0  0
  149.3671  139.4491  154.0542 N   0  0  0  0  0  0  0  0  0  0  0  0
  148.1136  138.9977  153.8311 C   0  0  0  0  0  0  0  0  0  0  0  0
  147.6128  139.1831  152.5412 N   0  0  0  0  0  0  0  0  0  0  0  0
  147.5018  137.7934  156.9548 H   0  0  0  0  0  0  0  0  0  0  0  0
  152.1467  142.1163  156.2120 H   0  0  0  0  0  0  0  0  0  0  0  0
  150.4458  142.0445  155.7715 H   0  0  0  0  0  0  0  0  0  0  0  0
  149.8547  140.9724  157.8608 H   0  0  0  0  0  0  0  0  0  0  0  0
  151.5396  140.6585  158.2633 H   0  0  0  0  0  0  0  0  0  0  0  0
  152.6392  143.1467  157.3263 H   0  0  0  0  0  0  0  0  0  0  0  0
  153.5456  141.5570  158.8581 H   0  0  0  0  0  0  0  0  0  0  0  0
  154.2451  143.0947  159.2190 H   0  0  0  0  0  0  0  0  0  0  0  0
  152.0480  141.6862  160.8016 H   0  0  0  0  0  0  0  0  0  0  0  0
  153.7122  141.8811  161.2577 H   0  0  0  0  0  0  0  0  0  0  0  0
  152.5229  143.4644  162.5305 H   0  0  0  0  0  0  0  0  0  0  0  0
  153.3630  144.4166  161.3399 H   0  0  0  0  0  0  0  0  0  0  0  0
  150.4886  143.4594  160.9167 H   0  0  0  0  0  0  0  0  0  0  0  0
  150.8120  144.8637  161.8746 H   0  0  0  0  0  0  0  0  0  0  0  0
  150.1982  145.2278  159.4213 H   0  0  0  0  0  0  0  0  0  0  0  0
  151.4884  146.1767  160.0849 H   0  0  0  0  0  0  0  0  0  0  0  0
  153.1436  145.1521  158.8038 H   0  0  0  0  0  0  0  0  0  0  0  0
  151.7883  145.2382  157.7317 H   0  0  0  0  0  0  0  0  0  0  0  0
  146.6854  138.8772  152.2841 H   0  0  0  0  0  0  0  0  0  0  0  0
  148.1692  139.6188  151.8196 H   0  0  0  0  0  0  0  0  0  0  0  0
  1  2  3  0  0  0  0
  2  3  1  0  0  0  0
  3 19  1  0  0  0  0
  3  4  2  0  0  0  0
  4  5  1  0  0  0  0
  4 21  1  0  0  0  0
  5  6  2  0  0  0  0
  6  7  1  0  0  0  0
  6 18  1  0  0  0  0
  7  8  1  0  0  0  0
  8  9  1  0  0  0  0
  8 22  1  0  0  0  0
  8 23  1  0  0  0  0
  9 10  1  0  0  0  0
  9 24  1  0  0  0  0
  9 25  1  0  0  0  0
 10 11  1  0  0  0  0
 11 17  1  0  0  0  0
 11 12  1  0  0  0  0
 11 26  1  0  0  0  0
 12 13  1  0  0  0  0
 12 27  1  0  0  0  0
 12 28  1  0  0  0  0
 13 14  1  0  0  0  0
 13 29  1  0  0  0  0
 13 30  1  0  0  0  0
 14 15  1  0  0  0  0
 14 31  1  0  0  0  0
 14 32  1  0  0  0  0
 15 16  1  0  0  0  0
 15 33  1  0  0  0  0
 15 34  1  0  0  0  0
 16 17  1  0  0  0  0
 16 35  1  0  0  0  0
 16 36  1  0  0  0  0
 17 37  1  0  0  0  0
 17 38  1  0  0  0  0
 18 19  2  0  0  0  0
 19 20  1  0  0  0  0
 20 39  1  0  0  0  0
 20 40  1  0  0  0  0
M  END
> <s_m_source_file>
AV-unprocessed.smi

> <i_m_source_file_index>
778

> <i_lp_mmshare_version>
43012

> <i_f3d_flags>
0

> <s_epik_input>
TiNDYzFbY0hdbmMobmMxW05IMl0pU1tDSDJdW0NIMl1PW0NIXTJbQ0gyXVtDSDJdW0NIMl1bQ0gyXVtDSDJdW0NIMl0y

> <s_epik_cmdline>
J2VwaWtfcHl0aG9uJywgJy1waCcsICc3LjAnLCAnLXRuJywgJzgnLCAnLW1hJywgJzIwMCcsICctbWV0YWxfYmluZGluZycsICctaW1hZScsICc8aW5maWxlLm1hZT4nLCAnLW9tYWUnLCAnPG91dGZpbGUubWFlPic=

> <r_lp_tautomer_probability>
1

> <r_epik_Ionization_Penalty>
5.1519e-05

> <r_epik_Ionization_Penalty_Charging>
0

> <r_epik_Ionization_Penalty_Neutral>
5.1519e-05

> <r_epik_State_Penalty>
-0

> <r_epik_Charging_Adjusted_Penalty>
0

> <i_epik_Tot_Q>
0

> <i_epik_Tot_abs_Q>
0

> <r_epik_Metal_State_Penalty>
-0

> <b_epik_Metal_Only>
0

> <s_lp_Force_Field>
OPLS_2005

> <r_lp_Energy>
14.4265

> <b_lp_Chiralities_Consistent>
1

> <s_lp_Variant>
AV-unprocessed.smi:778-1

> <Gold.Version>
5.8.1

> <Gold.Id.Protein>
6NUR|6NUR_protein|mol2

> <Gold.PLP.Fitness>
40.9207

> <Gold.PLP.PLP>
-38.9655

> <Gold.PLP.part.hbond>
-1.8172

> <Gold.PLP.part.metal>
0.0000

> <Gold.PLP.part.buried>
-5.5342

> <Gold.PLP.part.nonpolar>
-31.1683

> <Gold.PLP.part.repulsive>
1.0162

> <Gold.PLP.ligand.clash>
0.0000

> <Gold.PLP.ligand.torsion>
0.5286

> <Gold.PLP.Chemscore.Hbond>
1.0000

> <Gold.PLP.Chemscore.CHOScore>
0.0000

> <Gold.PLP.Chemscore.Metal>
0.0000

> <Gold.Chemscore.Hbonds>
donor molecule, donor type, donor heavy atom, donor atom, acceptor molecule, acceptor atom, score
      L1  H    20    40       P1  7957  1.00

> <Gold.PLP.Chemscore.Internal.Correction>
0.0125

> <Gold.Rescore>
     Score         DG    S(hbond)    S(metal)    S(lipo)     H(rot)  DE(clash)    DE(int)     intcor
     14.95     -15.49       1.00        0.00     106.41       2.26       0.08       0.46       ----

> <Gold.Chemscore.Fitness>
14.9508

> <Gold.Chemscore.DG>
-15.4858

> <Gold.Chemscore.ZeroCoef>
-5.4800

> <Gold.Chemscore.Hbond>
0.9975

> <Gold.Chemscore.Metal>
0.0000

> <Gold.Chemscore.Lipo>
106.4105

> <Gold.Chemscore.Internal_Hbond>
0.0000

> <Gold.Chemscore.DEClash>
0.0767

> <Gold.Chemscore.DEInternal>
0.4583

> <Gold.Chemscore.Rot>
2.2562

> <Gold.Chemscore.Internal.Correction>
   9.000000E+99

> <Gold.Chemscore.Hbonds>
donor molecule, donor type, donor heavy atom, donor atom, acceptor molecule, acceptor atom, score
      L1  H    20    40       P1  7957  0.96

> <Gold.Chemscore.Hbond.Weighted>
-3.3316

> <Gold.Chemscore.Metal.Weighted>
-0.0000

> <Gold.Chemscore.Lipo.Weighted>
-12.4500

> <Gold.Chemscore.Internal_Hbond.Weighted>
0.0000

> <Gold.Chemscore.DEClash.Weighted>
0.0767

> <Gold.Chemscore.DEInternal.Weighted>
0.4583

> <Gold.Chemscore.Rot.Weighted>
5.7759

> <Gold.Chemscore.Internal.Correction.Weighted>
   9.000000E+99

> <Gold.Protein.RotatedTorsions>
[ 6907 6896 6895 6894 ] final    2.87 input  -60.11 | X-H torsion
[ 7974 7965 7964 7962 ] final   92.41 input  175.53 | X-H torsion
[ 8008 7997 7996 7995 ] final  -61.75 input   59.86 | X-H torsion
[ 10167 10162 10161 10158 ] final   -7.99 input  -65.29 | X-H torsion
[ 10718 10713 10712 10709 ] final -101.98 input   66.30 | X-H torsion
[ 10763 10752 10751 10750 ] final  148.17 input  -60.55 | X-H torsion
[ 11005 11000 10999 10996 ] final   56.73 input  -57.11 | X-H torsion

> <Gold.Protein.ActiveResidues>
 VAL166  LYS551  ARG553  GLY616  TRP617  ASP618  TYR619  PRO620  LYS621  CYS622 
 ASP623  PHE694  ASN695  SER759  ASP760  ASP761  ALA762  ILE779  LEU786  VAL792 
 PHE793  MET794  SER795  GLU796  ALA797  LYS798  CYS799  TRP800  GLU811  SER814 

> <Gold.Protein.RotatedAtoms>
  151.6158  135.1036  160.0090 H   0  0  0  0  0  0  0  0  0  0  0  0  # atno 6907 bound_to 6896
  152.4184  133.7072  159.6468 H   0  0  0  0  0  0  0  0  0  0  0  0  # atno 6908 bound_to 6896
  150.8072  133.8415  159.3221 H   0  0  0  0  0  0  0  0  0  0  0  0  # atno 6909 bound_to 6896
  145.4927  139.2276  143.2821 H   0  0  0  0  0  0  0  0  0  0  0  0  # atno 7974 bound_to 7965
  154.4464  140.1011  156.6479 H   0  0  0  0  0  0  0  0  0  0  0  0  # atno 8008 bound_to 7997
  155.5430  140.3484  155.4432 H   0  0  0  0  0  0  0  0  0  0  0  0  # atno 8009 bound_to 7997
  156.0584  140.1320  156.9959 H   0  0  0  0  0  0  0  0  0  0  0  0  # atno 8010 bound_to 7997
  140.7045  143.6019  150.8789 H   0  0  0  0  0  0  0  0  0  0  0  0  # atno 10167 bound_to 10162
  156.0213  130.5399  150.7042 H   0  0  0  0  0  0  0  0  0  0  0  0  # atno 10718 bound_to 10713
  154.0504  135.2882  155.3341 H   0  0  0  0  0  0  0  0  0  0  0  0  # atno 10763 bound_to 10752
  154.6873  135.5240  153.8347 H   0  0  0  0  0  0  0  0  0  0  0  0  # atno 10764 bound_to 10752
  153.0563  135.6596  154.0701 H   0  0  0  0  0  0  0  0  0  0  0  0  # atno 10765 bound_to 10752
  140.0506  134.5742  155.9268 H   0  0  0  0  0  0  0  0  0  0  0  0  # atno 11005 bound_to 11000
  146.2274  140.5722  142.8990 LP  0  0  0  0  0  0  0  0  0  0  0  0  # atno 17320 bound_to 7965
  144.7825  140.5869  143.6596 LP  0  0  0  0  0  0  0  0  0  0  0  0  # atno 17321 bound_to 7965
  139.9744  143.6021  152.2963 LP  0  0  0  0  0  0  0  0  0  0  0  0  # atno 17342 bound_to 10162
  139.6619  144.7662  151.1946 LP  0  0  0  0  0  0  0  0  0  0  0  0  # atno 17343 bound_to 10162
  157.4695  131.0891  151.0658 LP  0  0  0  0  0  0  0  0  0  0  0  0  # atno 17370 bound_to 10713
  157.1122  130.6026  149.5485 LP  0  0  0  0  0  0  0  0  0  0  0  0  # atno 17371 bound_to 10713
  141.1928  133.6576  156.5520 LP  0  0  0  0  0  0  0  0  0  0  0  0  # atno 17394 bound_to 11000
  140.3923  134.7429  157.4729 LP  0  0  0  0  0  0  0  0  0  0  0  0  # atno 17395 bound_to 11000

$$$$
