AV-unprocessed.smi:530|AV-procd|sdf|2842|dock7
  -GOLD-   2262023333D 1   1.00000     0.00000
 Structure written by MMmdl.
 35 37  0  0  0  0  0  0  0  0  1 V2000
  152.5061  138.0317  157.4351 C   0  0  0  0  0  0  0  0  0  0  0  0
  152.4898  139.4261  157.9760 C   0  0  0  0  0  0  0  0  0  0  0  0
  153.5044  139.9263  158.6822 N   0  0  0  0  0  0  0  0  0  0  0  0
  153.0742  141.2087  158.9641 C   0  0  0  0  0  0  0  0  0  0  0  0
  153.6993  142.2502  159.6866 C   0  0  0  0  0  0  0  0  0  0  0  0
  153.0570  143.4961  159.8428 C   0  0  0  0  0  0  0  0  0  0  0  0
  151.7835  143.7187  159.2796 C   0  0  0  0  0  0  0  0  0  0  0  0
  151.1422  142.6939  158.5577 C   0  0  0  0  0  0  0  0  0  0  0  0
  151.7871  141.4519  158.4064 C   0  0  0  0  0  0  0  0  0  0  0  0
  151.4405  140.2616  157.7761 N   0  0  0  0  0  0  0  0  0  0  0  0
  150.1994  140.0029  157.0587 C   0  0  0  0  0  0  0  0  0  0  0  0
  150.4382  139.6448  155.5784 C   0  0  2  0  0  0  0  0  0  0  0  0
  151.6470  140.2265  155.1294 O   0  0  0  0  0  0  0  0  0  0  0  0
  149.2517  140.0417  154.7141 C   0  0  0  0  0  0  0  0  0  0  0  0
  148.5258  139.0511  154.0183 C   0  0  0  0  0  0  0  0  0  0  0  0
  147.4217  139.4083  153.2201 C   0  0  0  0  0  0  0  0  0  0  0  0
  147.0358  140.7581  153.1146 C   0  0  0  0  0  0  0  0  0  0  0  0
  147.7525  141.7503  153.8103 C   0  0  0  0  0  0  0  0  0  0  0  0
  148.8562  141.3935  154.6092 C   0  0  0  0  0  0  0  0  0  0  0  0
  153.4039  137.5052  157.7605 H   0  0  0  0  0  0  0  0  0  0  0  0
  152.4957  138.0516  156.3453 H   0  0  0  0  0  0  0  0  0  0  0  0
  151.6370  137.4766  157.7877 H   0  0  0  0  0  0  0  0  0  0  0  0
  154.6750  142.0904  160.1208 H   0  0  0  0  0  0  0  0  0  0  0  0
  153.5438  144.2852  160.3968 H   0  0  0  0  0  0  0  0  0  0  0  0
  151.2990  144.6762  159.4026 H   0  0  0  0  0  0  0  0  0  0  0  0
  150.1664  142.8596  158.1259 H   0  0  0  0  0  0  0  0  0  0  0  0
  149.6909  139.1791  157.5611 H   0  0  0  0  0  0  0  0  0  0  0  0
  149.5369  140.8643  157.1448 H   0  0  0  0  0  0  0  0  0  0  0  0
  150.5682  138.5650  155.4957 H   0  0  0  0  0  0  0  0  0  0  0  0
  152.3079  139.5521  155.0928 H   0  0  0  0  0  0  0  0  0  0  0  0
  148.8120  138.0124  154.0952 H   0  0  0  0  0  0  0  0  0  0  0  0
  146.8704  138.6464  152.6890 H   0  0  0  0  0  0  0  0  0  0  0  0
  146.1894  141.0323  152.5019 H   0  0  0  0  0  0  0  0  0  0  0  0
  147.4549  142.7855  153.7319 H   0  0  0  0  0  0  0  0  0  0  0  0
  149.3975  142.1613  155.1426 H   0  0  0  0  0  0  0  0  0  0  0  0
  1  2  1  0  0  0  0
  1 20  1  0  0  0  0
  1 21  1  0  0  0  0
  1 22  1  0  0  0  0
  2 10  1  0  0  0  0
  2  3  2  0  0  0  0
  3  4  1  0  0  0  0
  4  9  2  0  0  0  0
  4  5  1  0  0  0  0
  5  6  2  0  0  0  0
  5 23  1  0  0  0  0
  6  7  1  0  0  0  0
  6 24  1  0  0  0  0
  7  8  2  0  0  0  0
  7 25  1  0  0  0  0
  8  9  1  0  0  0  0
  8 26  1  0  0  0  0
  9 10  1  0  0  0  0
 10 11  1  0  0  0  0
 11 12  1  0  0  0  0
 11 27  1  0  0  0  0
 11 28  1  0  0  0  0
 12 13  1  0  0  0  0
 12 14  1  0  0  0  0
 12 29  1  0  0  0  0
 13 30  1  0  0  0  0
 14 19  1  0  0  0  0
 14 15  2  0  0  0  0
 15 16  1  0  0  0  0
 15 31  1  0  0  0  0
 16 17  2  0  0  0  0
 16 32  1  0  0  0  0
 17 18  1  0  0  0  0
 17 33  1  0  0  0  0
 18 19  2  0  0  0  0
 18 34  1  0  0  0  0
 19 35  1  0  0  0  0
M  END
> <s_m_source_file>
AV-unprocessed.smi

> <i_m_source_file_index>
530

> <i_lp_mmshare_version>
43012

> <i_f3d_flags>
0

> <s_epik_input>
W2NIXTFbY0hdW2NIXVtjSF1jKGMxMiluKGMobjIpW0NIM10pW0NIMl1bQ0BIXShbT0hdKWMzW2NIXVtjSF1bY0hdW2NIXVtjSF0z

> <s_epik_cmdline>
J2VwaWtfcHl0aG9uJywgJy1waCcsICc3LjAnLCAnLXRuJywgJzgnLCAnLW1hJywgJzIwMCcsICctbWV0YWxfYmluZGluZycsICctaW1hZScsICc8aW5maWxlLm1hZT4nLCAnLW9tYWUnLCAnPG91dGZpbGUubWFlPic=

> <r_epik_Ionization_Penalty>
0.129663

> <r_epik_Ionization_Penalty_Charging>
0

> <r_epik_Ionization_Penalty_Neutral>
0.129663

> <r_epik_State_Penalty>
0.119073

> <r_epik_Charging_Adjusted_Penalty>
0.119073

> <i_epik_Tot_Q>
0

> <i_epik_Tot_abs_Q>
0

> <r_epik_Metal_State_Penalty>
0.000131867

> <b_epik_Metal_Only>
0

> <s_lp_Force_Field>
OPLS_2005

> <r_lp_Energy>
11.6946

> <b_lp_Chiralities_Consistent>
1

> <s_lp_Variant>
AV-unprocessed.smi:530-1

> <Gold.Version>
5.8.1

> <Gold.Id.Protein>
6NUR|6NUR_protein|mol2

> <Gold.PLP.Fitness>
44.4461

> <Gold.PLP.PLP>
-39.3291

> <Gold.PLP.part.hbond>
-2.0000

> <Gold.PLP.part.metal>
0.0000

> <Gold.PLP.part.buried>
-3.8712

> <Gold.PLP.part.nonpolar>
-32.7311

> <Gold.PLP.part.repulsive>
0.0000

> <Gold.PLP.ligand.clash>
0.0000

> <Gold.PLP.ligand.torsion>
0.3951

> <Gold.PLP.Chemscore.Hbond>
1.9600

> <Gold.PLP.Chemscore.CHOScore>
0.0000

> <Gold.PLP.Chemscore.Metal>
0.0000

> <Gold.Chemscore.Hbonds>
donor molecule, donor type, donor heavy atom, donor atom, acceptor molecule, acceptor atom, score
      P1  H  7989  7998       L1    13  0.93
      P1  H  7997  8008       L1     3  0.95

> <Gold.PLP.Chemscore.Internal.Correction>
0.0271

> <Gold.Rescore>
     Score         DG    S(hbond)    S(metal)    S(lipo)     H(rot)  DE(clash)    DE(int)     intcor
     17.89     -18.61       1.09        0.00     118.37       1.70       0.35       0.37       ----

> <Gold.Chemscore.Fitness>
17.8885

> <Gold.Chemscore.DG>
-18.6122

> <Gold.Chemscore.ZeroCoef>
-5.4800

> <Gold.Chemscore.Hbond>
1.0892

> <Gold.Chemscore.Metal>
0.0000

> <Gold.Chemscore.Lipo>
118.3734

> <Gold.Chemscore.Internal_Hbond>
0.0000

> <Gold.Chemscore.DEClash>
0.3488

> <Gold.Chemscore.DEInternal>
0.3749

> <Gold.Chemscore.Rot>
1.7013

> <Gold.Chemscore.Internal.Correction>
   9.000000E+99

> <Gold.Chemscore.Hbonds>
donor molecule, donor type, donor heavy atom, donor atom, acceptor molecule, acceptor atom, score
      P1  H  7989  7998       L1    13  0.34
      P1  H  7997  8008       L1     3  0.13

> <Gold.Chemscore.Hbond.Weighted>
-3.6379

> <Gold.Chemscore.Metal.Weighted>
-0.0000

> <Gold.Chemscore.Lipo.Weighted>
-13.8497

> <Gold.Chemscore.Internal_Hbond.Weighted>
0.0000

> <Gold.Chemscore.DEClash.Weighted>
0.3488

> <Gold.Chemscore.DEInternal.Weighted>
0.3749

> <Gold.Chemscore.Rot.Weighted>
4.3554

> <Gold.Chemscore.Internal.Correction.Weighted>
   9.000000E+99

> <Gold.Protein.RotatedTorsions>
[ 6907 6896 6895 6894 ] final  -57.99 input  -60.11 | X-H torsion
[ 7974 7965 7964 7962 ] final  -82.89 input  175.53 | X-H torsion
[ 8008 7997 7996 7995 ] final -106.31 input   59.86 | X-H torsion
[ 10167 10162 10161 10158 ] final -162.53 input  -65.29 | X-H torsion
[ 10718 10713 10712 10709 ] final -160.48 input   66.30 | X-H torsion
[ 10763 10752 10751 10750 ] final   22.72 input  -60.55 | X-H torsion
[ 11005 11000 10999 10996 ] final  144.09 input  -57.11 | X-H torsion

> <Gold.Protein.ActiveResidues>
 VAL166  LYS551  ARG553  GLY616  TRP617  ASP618  TYR619  PRO620  LYS621  CYS622 
 ASP623  PHE694  ASN695  SER759  ASP760  ASP761  ALA762  ILE779  LEU786  VAL792 
 PHE793  MET794  SER795  GLU796  ALA797  LYS798  CYS799  TRP800  GLU811  SER814 

> <Gold.Protein.RotatedAtoms>
  150.8042  134.7157  159.6628 H   0  0  0  0  0  0  0  0  0  0  0  0  # atno 6907 bound_to 6896
  152.4161  134.6036  160.0016 H   0  0  0  0  0  0  0  0  0  0  0  0  # atno 6908 bound_to 6896
  151.6264  133.3298  159.3135 H   0  0  0  0  0  0  0  0  0  0  0  0  # atno 6909 bound_to 6896
  145.5272  140.9525  143.1622 H   0  0  0  0  0  0  0  0  0  0  0  0  # atno 7974 bound_to 7965
  154.9126  140.0409  157.1954 H   0  0  0  0  0  0  0  0  0  0  0  0  # atno 8008 bound_to 7997
  154.8333  140.2902  155.5686 H   0  0  0  0  0  0  0  0  0  0  0  0  # atno 8009 bound_to 7997
  156.2988  140.2496  156.3262 H   0  0  0  0  0  0  0  0  0  0  0  0  # atno 8010 bound_to 7997
  139.6386  144.0303  152.2074 H   0  0  0  0  0  0  0  0  0  0  0  0  # atno 10167 bound_to 10162
  156.5827  130.8736  151.2869 H   0  0  0  0  0  0  0  0  0  0  0  0  # atno 10718 bound_to 10713
  153.0894  135.6642  153.9885 H   0  0  0  0  0  0  0  0  0  0  0  0  # atno 10763 bound_to 10752
  153.9486  135.2986  155.3441 H   0  0  0  0  0  0  0  0  0  0  0  0  # atno 10764 bound_to 10752
  154.7306  135.5124  153.9030 H   0  0  0  0  0  0  0  0  0  0  0  0  # atno 10765 bound_to 10752
  140.0605  134.9207  157.1175 H   0  0  0  0  0  0  0  0  0  0  0  0  # atno 11005 bound_to 11000
  144.7644  139.6879  143.7221 LP  0  0  0  0  0  0  0  0  0  0  0  0  # atno 17320 bound_to 7965
  146.2067  139.5397  142.9707 LP  0  0  0  0  0  0  0  0  0  0  0  0  # atno 17321 bound_to 7965
  139.9987  144.6309  150.7749 LP  0  0  0  0  0  0  0  0  0  0  0  0  # atno 17342 bound_to 10162
  140.7478  143.2913  151.3324 LP  0  0  0  0  0  0  0  0  0  0  0  0  # atno 17343 bound_to 10162
  157.7323  130.9712  150.1920 LP  0  0  0  0  0  0  0  0  0  0  0  0  # atno 17370 bound_to 10713
  156.2618  130.3711  149.8123 LP  0  0  0  0  0  0  0  0  0  0  0  0  # atno 17371 bound_to 10713
  140.3778  134.2320  155.7173 LP  0  0  0  0  0  0  0  0  0  0  0  0  # atno 17394 bound_to 11000
  141.1971  133.8067  157.0643 LP  0  0  0  0  0  0  0  0  0  0  0  0  # atno 17395 bound_to 11000

$$$$
