AV-unprocessed.smi:3220|AV-procd|sdf|12300|dock8
  -GOLD-   2272018143D 1   1.00000     0.00000
 Structure written by MMmdl.
 33 34  0  0  0  0  0  0  0  0  1 V2000
  147.5907  141.9901  156.9273 C   0  0  0  0  0  0  0  0  0  0  0  0
  149.0055  141.4556  156.6604 C   0  0  1  0  0  0  0  0  0  0  0  0
  149.2363  141.1862  155.1609 C   0  0  0  0  0  0  0  0  0  0  0  0
  150.1407  140.0731  154.9329 N   0  0  0  0  0  0  0  0  0  0  0  0
  151.4030  139.8730  155.4513 C   0  0  0  0  0  0  0  0  0  0  0  0
  151.8606  138.6845  154.9591 C   0  0  0  0  0  0  0  0  0  0  0  0
  150.7927  138.2254  154.1383 C   0  0  0  0  0  0  0  0  0  0  0  0
  149.7647  139.0586  154.1247 N   0  0  0  0  0  0  0  0  0  0  0  0
  149.9933  142.4138  157.1527 N   0  0  0  0  0  0  0  0  0  0  0  0
  151.0140  142.1338  157.9771 C   0  0  0  0  0  0  0  0  0  0  0  0
  151.2275  141.0112  158.4357 O   0  0  0  0  0  0  0  0  0  0  0  0
  151.9420  143.3045  158.3201 C   0  0  1  0  0  0  0  0  0  0  0  0
  151.3414  144.6932  158.0309 C   0  0  0  0  0  0  0  0  0  0  0  0
  151.0867  145.2673  159.4106 C   0  0  0  0  0  0  0  0  0  0  0  0
  152.1783  144.5969  160.2317 C   0  0  0  0  0  0  0  0  0  0  0  0
  152.1940  143.2720  159.7238 O   0  0  0  0  0  0  0  0  0  0  0  0
  146.8341  141.2841  156.5836 H   0  0  0  0  0  0  0  0  0  0  0  0
  147.4200  142.9369  156.4139 H   0  0  0  0  0  0  0  0  0  0  0  0
  147.4261  142.1538  157.9928 H   0  0  0  0  0  0  0  0  0  0  0  0
  149.1118  140.5083  157.1926 H   0  0  0  0  0  0  0  0  0  0  0  0
  148.2890  140.9609  154.6685 H   0  0  0  0  0  0  0  0  0  0  0  0
  149.6397  142.0717  154.6677 H   0  0  0  0  0  0  0  0  0  0  0  0
  151.8632  140.5831  156.1224 H   0  0  0  0  0  0  0  0  0  0  0  0
  152.8122  138.2139  155.1563 H   0  0  0  0  0  0  0  0  0  0  0  0
  150.7347  137.3178  153.5559 H   0  0  0  0  0  0  0  0  0  0  0  0
  149.9035  143.3647  156.8259 H   0  0  0  0  0  0  0  0  0  0  0  0
  152.8886  143.1993  157.7870 H   0  0  0  0  0  0  0  0  0  0  0  0
  152.0739  145.3051  157.5031 H   0  0  0  0  0  0  0  0  0  0  0  0
  150.4370  144.6737  157.4212 H   0  0  0  0  0  0  0  0  0  0  0  0
  151.1365  146.3560  159.4384 H   0  0  0  0  0  0  0  0  0  0  0  0
  150.1048  144.9576  159.7710 H   0  0  0  0  0  0  0  0  0  0  0  0
  153.1460  145.0684  160.0536 H   0  0  0  0  0  0  0  0  0  0  0  0
  151.9750  144.6153  161.3024 H   0  0  0  0  0  0  0  0  0  0  0  0
  1  2  1  0  0  0  0
  1 17  1  0  0  0  0
  1 18  1  0  0  0  0
  1 19  1  0  0  0  0
  2  3  1  0  0  0  0
  2  9  1  0  0  0  0
  2 20  1  0  0  0  0
  3  4  1  0  0  0  0
  3 21  1  0  0  0  0
  3 22  1  0  0  0  0
  4  8  1  0  0  0  0
  4  5  1  0  0  0  0
  5  6  2  0  0  0  0
  5 23  1  0  0  0  0
  6  7  1  0  0  0  0
  6 24  1  0  0  0  0
  7  8  2  0  0  0  0
  7 25  1  0  0  0  0
  9 10  1  0  0  0  0
  9 26  1  0  0  0  0
 10 11  2  0  0  0  0
 10 12  1  0  0  0  0
 12 16  1  0  0  0  0
 12 13  1  0  0  0  0
 12 27  1  0  0  0  0
 13 14  1  0  0  0  0
 13 28  1  0  0  0  0
 13 29  1  0  0  0  0
 14 15  1  0  0  0  0
 14 30  1  0  0  0  0
 14 31  1  0  0  0  0
 15 16  1  0  0  0  0
 15 32  1  0  0  0  0
 15 33  1  0  0  0  0
M  END
> <s_m_source_file>
AV-unprocessed.smi

> <i_m_source_file_index>
3220

> <i_lp_mmshare_version>
43012

> <i_f3d_flags>
0

> <s_epik_input>
bjFbY0hdW2NIXVtjSF1uMVtDSDJdW0NAQEhdKFtDSDNdKVtOSF1DKD1PKVtDQEBIXTJbQ0gyXVtDSDJdW0NIMl1PMg==

> <s_epik_cmdline>
J2VwaWtfcHl0aG9uJywgJy1waCcsICc3LjAnLCAnLXRuJywgJzgnLCAnLW1hJywgJzIwMCcsICctbWV0YWxfYmluZGluZycsICctaW1hZScsICc8aW5maWxlLm1hZT4nLCAnLW9tYWUnLCAnPG91dGZpbGUubWFlPic=

> <r_lp_tautomer_probability>
1

> <r_epik_Ionization_Penalty>
0.00033363

> <r_epik_Ionization_Penalty_Charging>
0

> <r_epik_Ionization_Penalty_Neutral>
0.00033363

> <r_epik_State_Penalty>
-0

> <r_epik_Charging_Adjusted_Penalty>
0

> <i_epik_Tot_Q>
0

> <i_epik_Tot_abs_Q>
0

> <r_epik_Metal_State_Penalty>
-0

> <b_epik_Metal_Only>
0

> <s_lp_Force_Field>
OPLS_2005

> <r_lp_Energy>
17.8243

> <b_lp_Chiralities_Consistent>
1

> <s_lp_Variant>
AV-unprocessed.smi:3220-4

> <Gold.Version>
5.8.1

> <Gold.Id.Protein>
6NUR|6NUR_protein|mol2

> <Gold.PLP.Fitness>
39.9738

> <Gold.PLP.PLP>
-35.4762

> <Gold.PLP.part.hbond>
-1.0000

> <Gold.PLP.part.metal>
0.0000

> <Gold.PLP.part.buried>
-4.8480

> <Gold.PLP.part.nonpolar>
-29.4674

> <Gold.PLP.part.repulsive>
0.3521

> <Gold.PLP.ligand.clash>
0.0000

> <Gold.PLP.ligand.torsion>
0.9531

> <Gold.PLP.Chemscore.Hbond>
0.9920

> <Gold.PLP.Chemscore.CHOScore>
1.1341

> <Gold.PLP.Chemscore.Metal>
0.0000

> <Gold.Chemscore.Hbonds>
donor molecule, donor type, donor heavy atom, donor atom, acceptor molecule, acceptor atom, score
      L1  H     9    26       P1  8028  0.92
      L1  C     7    25       P1  7948  0.34
      L1  C     7    25       P1  7949  0.78

> <Gold.PLP.Chemscore.Internal.Correction>
0.0256

> <Gold.Rescore>
     Score         DG    S(hbond)    S(metal)    S(lipo)     H(rot)  DE(clash)    DE(int)     intcor
     13.52     -14.39       0.96        0.00      84.07       1.62       0.07       0.80       ----

> <Gold.Chemscore.Fitness>
13.5160

> <Gold.Chemscore.DG>
-14.3850

> <Gold.Chemscore.ZeroCoef>
-5.4800

> <Gold.Chemscore.Hbond>
0.9643

> <Gold.Chemscore.Metal>
0.0000

> <Gold.Chemscore.Lipo>
84.0695

> <Gold.Chemscore.Internal_Hbond>
0.0000

> <Gold.Chemscore.DEClash>
0.0684

> <Gold.Chemscore.DEInternal>
0.8006

> <Gold.Chemscore.Rot>
1.6219

> <Gold.Chemscore.Internal.Correction>
   9.000000E+99

> <Gold.Chemscore.Hbonds>
donor molecule, donor type, donor heavy atom, donor atom, acceptor molecule, acceptor atom, score
      L1  H     9    26       P1  8028  0.84

> <Gold.Chemscore.Hbond.Weighted>
-3.2208

> <Gold.Chemscore.Metal.Weighted>
-0.0000

> <Gold.Chemscore.Lipo.Weighted>
-9.8361

> <Gold.Chemscore.Internal_Hbond.Weighted>
0.0000

> <Gold.Chemscore.DEClash.Weighted>
0.0684

> <Gold.Chemscore.DEInternal.Weighted>
0.8006

> <Gold.Chemscore.Rot.Weighted>
4.1520

> <Gold.Chemscore.Internal.Correction.Weighted>
   9.000000E+99

> <Gold.Protein.RotatedTorsions>
[ 6907 6896 6895 6894 ] final   89.17 input  -60.11 | X-H torsion
[ 7974 7965 7964 7962 ] final  118.87 input  175.53 | X-H torsion
[ 8008 7997 7996 7995 ] final -125.98 input   59.86 | X-H torsion
[ 10167 10162 10161 10158 ] final  -84.19 input  -65.29 | X-H torsion
[ 10718 10713 10712 10709 ] final  -18.26 input   66.30 | X-H torsion
[ 10763 10752 10751 10750 ] final   33.31 input  -60.55 | X-H torsion
[ 11005 11000 10999 10996 ] final   42.41 input  -57.11 | X-H torsion

> <Gold.Protein.ActiveResidues>
 VAL166  LYS551  ARG553  GLY616  TRP617  ASP618  TYR619  PRO620  LYS621  CYS622 
 ASP623  PHE694  ASN695  SER759  ASP760  ASP761  ALA762  ILE779  LEU786  VAL792 
 PHE793  MET794  SER795  GLU796  ALA797  LYS798  CYS799  TRP800  GLU811  SER814 

> <Gold.Protein.RotatedAtoms>
  152.5433  134.2008  159.8711 H   0  0  0  0  0  0  0  0  0  0  0  0  # atno 6907 bound_to 6896
  151.1997  133.4611  159.2603 H   0  0  0  0  0  0  0  0  0  0  0  0  # atno 6908 bound_to 6896
  151.1001  134.9979  159.8500 H   0  0  0  0  0  0  0  0  0  0  0  0  # atno 6909 bound_to 6896
  145.1499  139.3217  143.4572 H   0  0  0  0  0  0  0  0  0  0  0  0  # atno 7974 bound_to 7965
  155.2222  140.0422  157.2950 H   0  0  0  0  0  0  0  0  0  0  0  0  # atno 8008 bound_to 7997
  154.5942  140.2435  155.7850 H   0  0  0  0  0  0  0  0  0  0  0  0  # atno 8009 bound_to 7997
  156.2279  140.2948  156.0122 H   0  0  0  0  0  0  0  0  0  0  0  0  # atno 8010 bound_to 7997
  140.4156  143.2605  151.8959 H   0  0  0  0  0  0  0  0  0  0  0  0  # atno 10167 bound_to 10162
  156.5620  130.4728  149.6402 H   0  0  0  0  0  0  0  0  0  0  0  0  # atno 10718 bound_to 10713
  153.0218  135.6390  154.1491 H   0  0  0  0  0  0  0  0  0  0  0  0  # atno 10763 bound_to 10752
  154.1224  135.2846  155.3207 H   0  0  0  0  0  0  0  0  0  0  0  0  # atno 10764 bound_to 10752
  154.6253  135.5511  153.7683 H   0  0  0  0  0  0  0  0  0  0  0  0  # atno 10765 bound_to 10752
  140.1741  134.4185  155.8239 H   0  0  0  0  0  0  0  0  0  0  0  0  # atno 11005 bound_to 11000
  146.3496  140.1569  142.8591 LP  0  0  0  0  0  0  0  0  0  0  0  0  # atno 17320 bound_to 7965
  145.0442  140.8968  143.5034 LP  0  0  0  0  0  0  0  0  0  0  0  0  # atno 17321 bound_to 7965
  139.4782  144.5491  151.8412 LP  0  0  0  0  0  0  0  0  0  0  0  0  # atno 17342 bound_to 10162
  140.4590  144.1748  150.5904 LP  0  0  0  0  0  0  0  0  0  0  0  0  # atno 17343 bound_to 10162
  156.2790  130.7060  151.1879 LP  0  0  0  0  0  0  0  0  0  0  0  0  # atno 17370 bound_to 10713
  157.7366  131.0560  150.5402 LP  0  0  0  0  0  0  0  0  0  0  0  0  # atno 17371 bound_to 10713
  141.2219  133.6970  156.7816 LP  0  0  0  0  0  0  0  0  0  0  0  0  # atno 17394 bound_to 11000
  140.2343  134.8662  157.3508 LP  0  0  0  0  0  0  0  0  0  0  0  0  # atno 17395 bound_to 11000

$$$$
