AV-unprocessed.smi:1638|AV-procd|sdf|6546|dock10
  -GOLD-   22720 7233D 1   1.00000     0.00000
 Structure written by MMmdl.
 41 42  0  0  0  0  0  0  0  0  2 V2000
  137.3078  137.2793  154.3392 C   0  0  0  0  0  0  0  0  0  0  0  0
  138.6374  137.8251  153.9445 C   0  0  0  0  0  0  0  0  0  0  0  0
  138.9195  139.1334  153.9679 N   0  0  0  0  0  0  0  0  0  0  0  0
  140.2173  139.3992  153.5540 N   0  0  0  0  0  0  0  0  0  0  0  0
  140.8772  138.2793  153.2278 C   0  0  0  0  0  0  0  0  0  0  0  0
  142.2198  138.2619  152.7648 N   0  0  0  0  0  0  0  0  0  0  0  0
  143.0296  137.2006  152.6020 C   0  0  0  0  0  0  0  0  0  0  0  0
  142.7174  136.0266  152.8036 O   0  0  0  0  0  0  0  0  0  0  0  0
  144.2461  137.5741  152.1785 N   0  0  0  0  0  0  0  0  0  0  0  0
  145.3502  136.6576  151.9166 C   0  0  0  0  0  0  0  0  0  0  0  0
  145.0213  135.6969  150.7566 C   0  0  0  0  0  0  0  0  0  0  0  0
  145.1885  134.2645  151.1226 N   0  3  0  0  0  0  0  0  0  0  0  0
  146.5969  133.9238  151.4564 C   0  0  0  0  0  0  0  0  0  0  0  0
  146.6587  132.9613  152.6550 C   0  0  0  0  0  0  0  0  0  0  0  0
  146.3630  131.4946  152.3119 C   0  0  0  0  0  0  0  0  0  0  0  0
  145.0055  131.2661  151.6302 C   0  0  0  0  0  0  0  0  0  0  0  0
  144.9558  131.8643  150.2162 C   0  0  0  0  0  0  0  0  0  0  0  0
  144.5318  133.3455  150.1477 C   0  0  0  0  0  0  0  0  0  0  0  0
  139.9573  136.7947  153.4037 S   0  0  0  0  0  0  0  0  0  0  0  0
  136.7531  138.0091  154.9301 H   0  0  0  0  0  0  0  0  0  0  0  0
  137.4350  136.3749  154.9340 H   0  0  0  0  0  0  0  0  0  0  0  0
  136.7275  137.0353  153.4494 H   0  0  0  0  0  0  0  0  0  0  0  0
  142.6117  139.1652  152.5433 H   0  0  0  0  0  0  0  0  0  0  0  0
  144.4234  138.5583  152.0388 H   0  0  0  0  0  0  0  0  0  0  0  0
  146.2327  137.2491  151.6713 H   0  0  0  0  0  0  0  0  0  0  0  0
  145.5833  136.1159  152.8340 H   0  0  0  0  0  0  0  0  0  0  0  0
  144.0063  135.8586  150.3903 H   0  0  0  0  0  0  0  0  0  0  0  0
  145.6906  135.9427  149.9309 H   0  0  0  0  0  0  0  0  0  0  0  0
  147.1371  133.5426  150.5887 H   0  0  0  0  0  0  0  0  0  0  0  0
  147.1324  134.8256  151.7548 H   0  0  0  0  0  0  0  0  0  0  0  0
  147.6590  133.0080  153.0870 H   0  0  0  0  0  0  0  0  0  0  0  0
  145.9827  133.3039  153.4397 H   0  0  0  0  0  0  0  0  0  0  0  0
  147.1592  131.1013  151.6785 H   0  0  0  0  0  0  0  0  0  0  0  0
  146.3991  130.9087  153.2311 H   0  0  0  0  0  0  0  0  0  0  0  0
  144.8482  130.1896  151.5535 H   0  0  0  0  0  0  0  0  0  0  0  0
  144.1879  131.6468  152.2436 H   0  0  0  0  0  0  0  0  0  0  0  0
  145.9145  131.7197  149.7166 H   0  0  0  0  0  0  0  0  0  0  0  0
  144.2420  131.2922  149.6224 H   0  0  0  0  0  0  0  0  0  0  0  0
  143.4552  133.3991  150.3091 H   0  0  0  0  0  0  0  0  0  0  0  0
  144.7091  133.7039  149.1324 H   0  0  0  0  0  0  0  0  0  0  0  0
  144.6894  134.1510  151.9931 H   0  0  0  0  0  0  0  0  0  0  0  0
  1  2  1  0  0  0  0
  1 20  1  0  0  0  0
  1 21  1  0  0  0  0
  1 22  1  0  0  0  0
  2 19  1  0  0  0  0
  2  3  2  0  0  0  0
  3  4  1  0  0  0  0
  4  5  2  0  0  0  0
  5  6  1  0  0  0  0
  5 19  1  0  0  0  0
  6  7  1  0  0  0  0
  6 23  1  0  0  0  0
  7  8  2  0  0  0  0
  7  9  1  0  0  0  0
  9 10  1  0  0  0  0
  9 24  1  0  0  0  0
 10 11  1  0  0  0  0
 10 25  1  0  0  0  0
 10 26  1  0  0  0  0
 11 12  1  0  0  0  0
 11 27  1  0  0  0  0
 11 28  1  0  0  0  0
 12 18  1  0  0  0  0
 12 13  1  0  0  0  0
 12 41  1  0  0  0  0
 13 14  1  0  0  0  0
 13 29  1  0  0  0  0
 13 30  1  0  0  0  0
 14 15  1  0  0  0  0
 14 31  1  0  0  0  0
 14 32  1  0  0  0  0
 15 16  1  0  0  0  0
 15 33  1  0  0  0  0
 15 34  1  0  0  0  0
 16 17  1  0  0  0  0
 16 35  1  0  0  0  0
 16 36  1  0  0  0  0
 17 18  1  0  0  0  0
 17 37  1  0  0  0  0
 17 38  1  0  0  0  0
 18 39  1  0  0  0  0
 18 40  1  0  0  0  0
M  CHG  1  12   1
M  END
> <s_m_source_file>
AV-unprocessed.smi

> <i_m_source_file_index>
1638

> <i_lp_mmshare_version>
43012

> <i_f3d_flags>
0

> <s_epik_input>
W0NIM11jMW5uYyhzMSlbTkhdQyg9TylbTkhdW0NIMl1bQ0gyXU4yW0NIMl1bQ0gyXVtDSDJdW0NIMl1bQ0gyXVtDSDJdMg==

> <s_epik_cmdline>
J2VwaWtfcHl0aG9uJywgJy1waCcsICc3LjAnLCAnLXRuJywgJzgnLCAnLW1hJywgJzIwMCcsICctbWV0YWxfYmluZGluZycsICctaW1hZScsICc8aW5maWxlLm1hZT4nLCAnLW9tYWUnLCAnPG91dGZpbGUubWFlPic=

> <r_lp_tautomer_probability>
1

> <r_epik_Ionization_Penalty>
0.00683162

> <r_epik_Ionization_Penalty_Charging>
0.00256589

> <r_epik_Ionization_Penalty_Neutral>
0.00426573

> <r_epik_State_Penalty>
0.0020046

> <r_epik_Charging_Adjusted_Penalty>
0.00457048

> <i_epik_Tot_Q>
1

> <i_epik_Tot_abs_Q>
1

> <r_epik_Metal_State_Penalty>
0.375345

> <b_epik_Metal_Only>
0

> <s_lp_Force_Field>
OPLS_2005

> <r_lp_Energy>
20.2813

> <b_lp_Chiralities_Consistent>
1

> <s_lp_Variant>
AV-unprocessed.smi:1638-1

> <Gold.Version>
5.8.1

> <Gold.Id.Protein>
6NUR|6NUR_protein|mol2

> <Gold.PLP.Fitness>
41.4217

> <Gold.PLP.PLP>
-36.8969

> <Gold.PLP.part.hbond>
-3.0000

> <Gold.PLP.part.metal>
0.0000

> <Gold.PLP.part.buried>
-7.0716

> <Gold.PLP.part.nonpolar>
-27.8013

> <Gold.PLP.part.repulsive>
0.5214

> <Gold.PLP.ligand.clash>
0.0000

> <Gold.PLP.ligand.torsion>
0.4622

> <Gold.PLP.Chemscore.Hbond>
1.8008

> <Gold.PLP.Chemscore.CHOScore>
0.0000

> <Gold.PLP.Chemscore.Metal>
0.0000

> <Gold.Chemscore.Hbonds>
donor molecule, donor type, donor heavy atom, donor atom, acceptor molecule, acceptor atom, score
      L1  H     6    23       P1 10175  1.00
      L1  H     9    24       P1 10175  0.77

> <Gold.PLP.Chemscore.Internal.Correction>
0.0468

> <Gold.Rescore>
     Score         DG    S(hbond)    S(metal)    S(lipo)     H(rot)  DE(clash)    DE(int)     intcor
     15.49     -17.24       1.94        0.00      80.00       1.60       0.07       1.68       ----

> <Gold.Chemscore.Fitness>
15.4887

> <Gold.Chemscore.DG>
-17.2370

> <Gold.Chemscore.ZeroCoef>
-5.4800

> <Gold.Chemscore.Hbond>
1.9422

> <Gold.Chemscore.Metal>
0.0000

> <Gold.Chemscore.Lipo>
79.9974

> <Gold.Chemscore.Internal_Hbond>
0.0000

> <Gold.Chemscore.DEClash>
0.0666

> <Gold.Chemscore.DEInternal>
1.6817

> <Gold.Chemscore.Rot>
1.5975

> <Gold.Chemscore.Internal.Correction>
   9.000000E+99

> <Gold.Chemscore.Hbonds>
donor molecule, donor type, donor heavy atom, donor atom, acceptor molecule, acceptor atom, score
      L1  H     6    23       P1 10175  0.97
      L1  H     9    24       P1 10175  0.74

> <Gold.Chemscore.Hbond.Weighted>
-6.4868

> <Gold.Chemscore.Metal.Weighted>
-0.0000

> <Gold.Chemscore.Lipo.Weighted>
-9.3597

> <Gold.Chemscore.Internal_Hbond.Weighted>
0.0000

> <Gold.Chemscore.DEClash.Weighted>
0.0666

> <Gold.Chemscore.DEInternal.Weighted>
1.6817

> <Gold.Chemscore.Rot.Weighted>
4.0896

> <Gold.Chemscore.Internal.Correction.Weighted>
   9.000000E+99

> <Gold.Protein.RotatedTorsions>
[ 6907 6896 6895 6894 ] final  175.77 input  -60.11 | X-H torsion
[ 7974 7965 7964 7962 ] final  116.79 input  175.53 | X-H torsion
[ 8008 7997 7996 7995 ] final  -67.44 input   59.86 | X-H torsion
[ 10167 10162 10161 10158 ] final   24.13 input  -65.29 | X-H torsion
[ 10718 10713 10712 10709 ] final  -82.69 input   66.30 | X-H torsion
[ 10763 10752 10751 10750 ] final -165.35 input  -60.55 | X-H torsion
[ 11005 11000 10999 10996 ] final   88.39 input  -57.11 | X-H torsion

> <Gold.Protein.ActiveResidues>
 VAL166  LYS551  ARG553  GLY616  TRP617  ASP618  TYR619  PRO620  LYS621  CYS622 
 ASP623  PHE694  ASN695  SER759  ASP760  ASP761  ALA762  ILE779  LEU786  VAL792 
 PHE793  MET794  SER795  GLU796  ALA797  LYS798  CYS799  TRP800  GLU811  SER814 

> <Gold.Protein.RotatedAtoms>
  151.7309  133.3317  159.3339 H   0  0  0  0  0  0  0  0  0  0  0  0  # atno 6907 bound_to 6896
  150.7613  134.6364  159.6223 H   0  0  0  0  0  0  0  0  0  0  0  0  # atno 6908 bound_to 6896
  152.3592  134.6898  160.0264 H   0  0  0  0  0  0  0  0  0  0  0  0  # atno 6909 bound_to 6896
  145.1753  139.3079  143.4446 H   0  0  0  0  0  0  0  0  0  0  0  0  # atno 7974 bound_to 7965
  154.4800  140.0892  156.7354 H   0  0  0  0  0  0  0  0  0  0  0  0  # atno 8008 bound_to 7997
  155.4496  140.3457  155.4281 H   0  0  0  0  0  0  0  0  0  0  0  0  # atno 8009 bound_to 7997
  156.1176  140.1465  156.9238 H   0  0  0  0  0  0  0  0  0  0  0  0  # atno 8010 bound_to 7997
  140.5213  143.9997  150.6418 H   0  0  0  0  0  0  0  0  0  0  0  0  # atno 10167 bound_to 10162
  156.0029  130.4642  150.4143 H   0  0  0  0  0  0  0  0  0  0  0  0  # atno 10718 bound_to 10713
  154.6941  135.2976  154.9437 H   0  0  0  0  0  0  0  0  0  0  0  0  # atno 10763 bound_to 10752
  154.0391  135.6660  153.4792 H   0  0  0  0  0  0  0  0  0  0  0  0  # atno 10764 bound_to 10752
  153.0633  135.5103  154.8049 H   0  0  0  0  0  0  0  0  0  0  0  0  # atno 10765 bound_to 10752
  139.8897  134.8484  156.2994 H   0  0  0  0  0  0  0  0  0  0  0  0  # atno 11005 bound_to 11000
  146.3462  140.1913  142.8589 LP  0  0  0  0  0  0  0  0  0  0  0  0  # atno 17320 bound_to 7965
  145.0191  140.8779  143.5177 LP  0  0  0  0  0  0  0  0  0  0  0  0  # atno 17321 bound_to 7965
  140.3347  143.3056  152.0651 LP  0  0  0  0  0  0  0  0  0  0  0  0  # atno 17342 bound_to 10162
  139.4924  144.6485  151.6727 LP  0  0  0  0  0  0  0  0  0  0  0  0  # atno 17343 bound_to 10162
  157.2204  131.0481  151.2550 LP  0  0  0  0  0  0  0  0  0  0  0  0  # atno 17370 bound_to 10713
  157.3806  130.7229  149.6627 LP  0  0  0  0  0  0  0  0  0  0  0  0  # atno 17371 bound_to 10713
  140.9923  133.7201  156.0833 LP  0  0  0  0  0  0  0  0  0  0  0  0  # atno 17394 bound_to 11000
  140.7608  134.3941  157.5526 LP  0  0  0  0  0  0  0  0  0  0  0  0  # atno 17395 bound_to 11000

$$$$
