AV-unprocessed.smi:2001|AV-procd|sdf|8110|dock9
  -GOLD-   2272010343D 1   1.00000     0.00000
 Structure written by MMmdl.
 50 51  0  0  0  0  0  0  0  0  3 V2000
  153.0719  139.6939  159.5973 C   0  0  0  0  0  0  0  0  0  0  0  0
  152.2482  139.7395  158.4462 O   0  0  0  0  0  0  0  0  0  0  0  0
  150.8998  139.4012  158.7261 C   0  0  0  0  0  0  0  0  0  0  0  0
  150.0326  139.6307  157.4776 C   0  0  0  0  0  0  0  0  0  0  0  0
  150.2859  138.6214  156.4428 N   0  0  0  0  0  0  0  0  0  0  0  0
  150.0305  137.3231  156.8519 N   0  0  0  0  0  0  0  0  0  0  0  0
  150.2097  136.3317  156.0398 C   0  0  0  0  0  0  0  0  0  0  0  0
  149.9505  134.9252  156.4873 C   0  0  0  0  0  0  0  0  0  0  0  0
  149.7755  134.7830  157.7054 O   0  0  0  0  0  0  0  0  0  0  0  0
  149.9294  133.9249  155.5554 N   0  5  0  0  0  0  0  0  0  0  0  0
  149.0037  133.8388  154.4280 C   0  0  0  0  0  0  0  0  0  0  0  0
  149.2459  132.5222  153.6652 C   0  0  0  0  0  0  0  0  0  0  0  0
  148.0652  132.1143  152.8579 N   0  3  1  0  0  0  0  0  0  0  0  0
  147.1096  131.2754  153.6211 C   0  0  0  0  0  0  0  0  0  0  0  0
  145.9399  130.8102  152.7314 C   0  0  2  0  0  0  0  0  0  0  0  0
  146.3291  129.7078  151.7307 C   0  0  0  0  0  0  0  0  0  0  0  0
  145.3285  131.9295  152.0903 O   0  0  0  0  0  0  0  0  0  0  0  0
  146.2158  132.7359  151.3197 C   0  0  1  0  0  0  0  0  0  0  0  0
  145.4002  133.8817  150.7106 C   0  0  0  0  0  0  0  0  0  0  0  0
  147.3507  133.2512  152.2217 C   0  0  0  0  0  0  0  0  0  0  0  0
  150.6745  136.5688  154.6783 C   0  0  0  0  0  0  0  0  0  0  0  0
  150.9185  137.8404  154.2939 C   0  0  0  0  0  0  0  0  0  0  0  0
  150.7298  138.9740  155.1991 C   0  0  0  0  0  0  0  0  0  0  0  0
  150.9507  140.1393  154.8701 O   0  0  0  0  0  0  0  0  0  0  0  0
  154.0906  139.9724  159.3287 H   0  0  0  0  0  0  0  0  0  0  0  0
  153.0979  138.6905  160.0238 H   0  0  0  0  0  0  0  0  0  0  0  0
  152.7226  140.3906  160.3599 H   0  0  0  0  0  0  0  0  0  0  0  0
  150.8456  138.3506  159.0149 H   0  0  0  0  0  0  0  0  0  0  0  0
  150.5230  139.9876  159.5657 H   0  0  0  0  0  0  0  0  0  0  0  0
  148.9770  139.6684  157.7521 H   0  0  0  0  0  0  0  0  0  0  0  0
  150.2557  140.6180  157.0697 H   0  0  0  0  0  0  0  0  0  0  0  0
  147.9617  133.8709  154.7488 H   0  0  0  0  0  0  0  0  0  0  0  0
  149.1292  134.6761  153.7407 H   0  0  0  0  0  0  0  0  0  0  0  0
  150.1054  132.6690  153.0086 H   0  0  0  0  0  0  0  0  0  0  0  0
  149.5250  131.7189  154.3496 H   0  0  0  0  0  0  0  0  0  0  0  0
  147.6216  130.4086  154.0413 H   0  0  0  0  0  0  0  0  0  0  0  0
  146.7253  131.8546  154.4623 H   0  0  0  0  0  0  0  0  0  0  0  0
  145.1768  130.3855  153.3845 H   0  0  0  0  0  0  0  0  0  0  0  0
  146.6643  128.8124  152.2543 H   0  0  0  0  0  0  0  0  0  0  0  0
  147.1374  130.0159  151.0681 H   0  0  0  0  0  0  0  0  0  0  0  0
  145.4765  129.4270  151.1116 H   0  0  0  0  0  0  0  0  0  0  0  0
  146.6345  132.1484  150.5023 H   0  0  0  0  0  0  0  0  0  0  0  0
  146.0287  134.5299  150.0994 H   0  0  0  0  0  0  0  0  0  0  0  0
  144.9403  134.4954  151.4857 H   0  0  0  0  0  0  0  0  0  0  0  0
  144.6029  133.4967  150.0742 H   0  0  0  0  0  0  0  0  0  0  0  0
  146.9499  133.9079  152.9955 H   0  0  0  0  0  0  0  0  0  0  0  0
  148.0441  133.8479  151.6281 H   0  0  0  0  0  0  0  0  0  0  0  0
  150.8238  135.7602  153.9785 H   0  0  0  0  0  0  0  0  0  0  0  0
  151.2622  138.0277  153.2874 H   0  0  0  0  0  0  0  0  0  0  0  0
  148.4239  131.5313  152.1150 H   0  0  0  0  0  0  0  0  0  0  0  0
  1  2  1  0  0  0  0
  1 25  1  0  0  0  0
  1 26  1  0  0  0  0
  1 27  1  0  0  0  0
  2  3  1  0  0  0  0
  3  4  1  0  0  0  0
  3 28  1  0  0  0  0
  3 29  1  0  0  0  0
  4  5  1  0  0  0  0
  4 30  1  0  0  0  0
  4 31  1  0  0  0  0
  5 23  1  0  0  0  0
  5  6  1  0  0  0  0
  6  7  2  0  0  0  0
  7  8  1  0  0  0  0
  7 21  1  0  0  0  0
  8  9  2  0  0  0  0
  8 10  1  0  0  0  0
 10 11  1  0  0  0  0
 11 12  1  0  0  0  0
 11 32  1  0  0  0  0
 11 33  1  0  0  0  0
 12 13  1  0  0  0  0
 12 34  1  0  0  0  0
 12 35  1  0  0  0  0
 13 20  1  0  0  0  0
 13 14  1  0  0  0  0
 13 50  1  0  0  0  0
 14 15  1  0  0  0  0
 14 36  1  0  0  0  0
 14 37  1  0  0  0  0
 15 16  1  0  0  0  0
 15 17  1  0  0  0  0
 15 38  1  0  0  0  0
 16 39  1  0  0  0  0
 16 40  1  0  0  0  0
 16 41  1  0  0  0  0
 17 18  1  0  0  0  0
 18 19  1  0  0  0  0
 18 20  1  0  0  0  0
 18 42  1  0  0  0  0
 19 43  1  0  0  0  0
 19 44  1  0  0  0  0
 19 45  1  0  0  0  0
 20 46  1  0  0  0  0
 20 47  1  0  0  0  0
 21 22  2  0  0  0  0
 21 48  1  0  0  0  0
 22 23  1  0  0  0  0
 22 49  1  0  0  0  0
 23 24  2  0  0  0  0
M  CHG  1  10  -1
M  CHG  1  13   1
M  END
> <s_m_source_file>
AV-unprocessed.smi

> <i_m_source_file_index>
2001

> <i_lp_mmshare_version>
43012

> <i_f3d_flags>
0

> <s_epik_input>
W0NIM11PW0NIMl1bQ0gyXW4xbmMoW2NIXVtjSF1jMT1PKUMoPU8pW05IXVtDSDJdW0NIMl1OMltDSDJdW0NAQEhdKFtDSDNdKU9bQ0BASF0oW0NIM10pW0NIMl0y

> <s_epik_cmdline>
J2VwaWtfcHl0aG9uJywgJy1waCcsICc3LjAnLCAnLXRuJywgJzgnLCAnLW1hJywgJzIwMCcsICctbWV0YWxfYmluZGluZycsICctaW1hZScsICc8aW5maWxlLm1hZT4nLCAnLW9tYWUnLCAnPG91dGZpbGUubWFlPic=

> <r_lp_tautomer_probability>
1

> <r_epik_Ionization_Penalty>
6.90846

> <r_epik_Ionization_Penalty_Charging>
6.90846

> <r_epik_Ionization_Penalty_Neutral>
1.08445e-11

> <r_epik_State_Penalty>
7.54671

> <r_epik_Charging_Adjusted_Penalty>
14.4552

> <i_epik_Tot_Q>
0

> <i_epik_Tot_abs_Q>
2

> <r_epik_Metal_State_Penalty>
3.46181

> <b_epik_Metal_Only>
1

> <s_lp_Force_Field>
OPLS_2005

> <r_lp_Energy>
44.3308

> <b_lp_Chiralities_Consistent>
1

> <s_lp_Variant>
AV-unprocessed.smi:2001-9

> <Gold.Version>
5.8.1

> <Gold.Id.Protein>
6NUR|6NUR_protein|mol2

> <Gold.PLP.Fitness>
42.8297

> <Gold.PLP.PLP>
-35.9895

> <Gold.PLP.part.hbond>
-3.0000

> <Gold.PLP.part.metal>
0.0000

> <Gold.PLP.part.buried>
-5.3762

> <Gold.PLP.part.nonpolar>
-28.4933

> <Gold.PLP.part.repulsive>
0.2348

> <Gold.PLP.ligand.clash>
0.0000

> <Gold.PLP.ligand.torsion>
1.0795

> <Gold.PLP.Chemscore.Hbond>
2.9440

> <Gold.PLP.Chemscore.CHOScore>
0.0000

> <Gold.PLP.Chemscore.Metal>
0.0000

> <Gold.Chemscore.Hbonds>
donor molecule, donor type, donor heavy atom, donor atom, acceptor molecule, acceptor atom, score
      L1  H    13    50       P1 10747  1.00
      P1  H  6896  6909       L1     9  0.96
      P1  H  7989  7998       L1    24  1.00

> <Gold.PLP.Chemscore.Internal.Correction>
0.1672

> <Gold.Rescore>
     Score         DG    S(hbond)    S(metal)    S(lipo)     H(rot)  DE(clash)    DE(int)     intcor
     18.66     -19.78       2.84        0.00      85.29       2.02       0.10       1.01       ----

> <Gold.Chemscore.Fitness>
18.6649

> <Gold.Chemscore.DG>
-19.7813

> <Gold.Chemscore.ZeroCoef>
-5.4800

> <Gold.Chemscore.Hbond>
2.8408

> <Gold.Chemscore.Metal>
0.0000

> <Gold.Chemscore.Lipo>
85.2908

> <Gold.Chemscore.Internal_Hbond>
0.0000

> <Gold.Chemscore.DEClash>
0.1049

> <Gold.Chemscore.DEInternal>
1.0115

> <Gold.Chemscore.Rot>
2.0179

> <Gold.Chemscore.Internal.Correction>
   9.000000E+99

> <Gold.Chemscore.Hbonds>
donor molecule, donor type, donor heavy atom, donor atom, acceptor molecule, acceptor atom, score
      L1  H    13    50       P1 10747  0.94
      P1  H  6896  6909       L1     9  0.90
      P1  H  7989  7998       L1    24  1.00

> <Gold.Chemscore.Hbond.Weighted>
-9.4882

> <Gold.Chemscore.Metal.Weighted>
-0.0000

> <Gold.Chemscore.Lipo.Weighted>
-9.9790

> <Gold.Chemscore.Internal_Hbond.Weighted>
0.0000

> <Gold.Chemscore.DEClash.Weighted>
0.1049

> <Gold.Chemscore.DEInternal.Weighted>
1.0115

> <Gold.Chemscore.Rot.Weighted>
5.1659

> <Gold.Chemscore.Internal.Correction.Weighted>
   9.000000E+99

> <Gold.Protein.RotatedTorsions>
[ 6907 6896 6895 6894 ] final   31.04 input  -60.11 | X-H torsion
[ 7974 7965 7964 7962 ] final -150.77 input  175.53 | X-H torsion
[ 8008 7997 7996 7995 ] final -134.38 input   59.86 | X-H torsion
[ 10167 10162 10161 10158 ] final  143.67 input  -65.29 | X-H torsion
[ 10718 10713 10712 10709 ] final  -33.68 input   66.30 | X-H torsion
[ 10763 10752 10751 10750 ] final  -22.19 input  -60.55 | X-H torsion
[ 11005 11000 10999 10996 ] final -123.54 input  -57.11 | X-H torsion

> <Gold.Protein.ActiveResidues>
 VAL166  LYS551  ARG553  GLY616  TRP617  ASP618  TYR619  PRO620  LYS621  CYS622 
 ASP623  PHE694  ASN695  SER759  ASP760  ASP761  ALA762  ILE779  LEU786  VAL792 
 PHE793  MET794  SER795  GLU796  ALA797  LYS798  CYS799  TRP800  GLU811  SER814 

> <Gold.Protein.RotatedAtoms>
  152.0547  134.9632  160.0574 H   0  0  0  0  0  0  0  0  0  0  0  0  # atno 6907 bound_to 6896
  152.1019  133.4249  159.4599 H   0  0  0  0  0  0  0  0  0  0  0  0  # atno 6908 bound_to 6896
  150.6840  134.2669  159.4615 H   0  0  0  0  0  0  0  0  0  0  0  0  # atno 6909 bound_to 6896
  144.7888  140.4887  143.5787 H   0  0  0  0  0  0  0  0  0  0  0  0  # atno 7974 bound_to 7965
  155.3611  140.0483  157.3046 H   0  0  0  0  0  0  0  0  0  0  0  0  # atno 8008 bound_to 7997
  154.5177  140.2214  155.8997 H   0  0  0  0  0  0  0  0  0  0  0  0  # atno 8009 bound_to 7997
  156.1655  140.3107  155.8887 H   0  0  0  0  0  0  0  0  0  0  0  0  # atno 8010 bound_to 7997
  139.4964  144.6024  151.6451 H   0  0  0  0  0  0  0  0  0  0  0  0  # atno 10167 bound_to 10162
  156.3597  130.4321  149.7634 H   0  0  0  0  0  0  0  0  0  0  0  0  # atno 10718 bound_to 10713
  153.6481  135.6982  153.5218 H   0  0  0  0  0  0  0  0  0  0  0  0  # atno 10763 bound_to 10752
  153.2728  135.4209  155.1004 H   0  0  0  0  0  0  0  0  0  0  0  0  # atno 10764 bound_to 10752
  154.8483  135.3583  154.6025 H   0  0  0  0  0  0  0  0  0  0  0  0  # atno 10765 bound_to 10752
  140.9911  134.0538  157.3653 H   0  0  0  0  0  0  0  0  0  0  0  0  # atno 11005 bound_to 11000
  145.5849  139.1491  143.3214 LP  0  0  0  0  0  0  0  0  0  0  0  0  # atno 17320 bound_to 7965
  146.2132  140.5978  142.9050 LP  0  0  0  0  0  0  0  0  0  0  0  0  # atno 17321 bound_to 7965
  140.5678  144.0161  150.6201 LP  0  0  0  0  0  0  0  0  0  0  0  0  # atno 17342 bound_to 10162
  140.3268  143.3102  152.0728 LP  0  0  0  0  0  0  0  0  0  0  0  0  # atno 17343 bound_to 10162
  156.4803  130.8038  151.3052 LP  0  0  0  0  0  0  0  0  0  0  0  0  # atno 17370 bound_to 10713
  157.7472  131.0008  150.2939 LP  0  0  0  0  0  0  0  0  0  0  0  0  # atno 17371 bound_to 10713
  139.8993  135.0158  156.7187 LP  0  0  0  0  0  0  0  0  0  0  0  0  # atno 17394 bound_to 11000
  140.7039  133.9282  155.8041 LP  0  0  0  0  0  0  0  0  0  0  0  0  # atno 17395 bound_to 11000

$$$$
