AV-unprocessed.smi:3068|AV-procd|sdf|11708|dock2
  -GOLD-   2272017113D 1   1.00000     0.00000
 Structure written by MMmdl.
 39 41  0  0  0  0  0  0  0  0  1 V2000
  150.4123  135.2312  158.0009 N   0  0  0  0  0  0  0  0  0  0  0  0
  150.4978  136.0183  157.1569 C   0  0  0  0  0  0  0  0  0  0  0  0
  150.6052  137.0095  156.0937 C   0  0  0  0  0  0  0  0  0  0  0  0
  151.2405  136.6210  154.9638 N   0  0  0  0  0  0  0  0  0  0  0  0
  151.3464  137.5290  153.9705 C   0  0  0  0  0  0  0  0  0  0  0  0
  150.8192  138.8283  154.1000 C   0  0  0  0  0  0  0  0  0  0  0  0
  150.1854  139.2246  155.2237 N   0  0  0  0  0  0  0  0  0  0  0  0
  150.0697  138.3217  156.2298 C   0  0  0  0  0  0  0  0  0  0  0  0
  149.4138  138.7206  157.4094 N   0  0  0  0  0  0  0  0  0  0  0  0
  149.9829  139.7225  158.3033 C   0  0  0  0  0  0  0  0  0  0  0  0
  151.4385  140.0825  157.9354 C   0  0  2  0  0  0  0  0  0  0  0  0
  152.1629  140.8548  159.0542 C   0  0  0  0  0  0  0  0  0  0  0  0
  151.6901  142.2269  159.1922 N   0  0  0  0  0  0  0  0  0  0  0  0
  152.4159  142.9292  160.2498 C   0  0  0  0  0  0  0  0  0  0  0  0
  151.9207  144.3704  160.4451 C   0  0  0  0  0  0  0  0  0  0  0  0
  152.0227  145.1497  159.1266 C   0  0  0  0  0  0  0  0  0  0  0  0
  151.3019  144.3842  158.0066 C   0  0  0  0  0  0  0  0  0  0  0  0
  151.8102  142.9300  157.9119 C   0  0  2  0  0  0  0  0  0  0  0  0
  151.0649  142.1728  156.7951 C   0  0  0  0  0  0  0  0  0  0  0  0
  151.5186  140.8238  156.7163 O   0  0  0  0  0  0  0  0  0  0  0  0
  151.8539  137.2183  153.0693 H   0  0  0  0  0  0  0  0  0  0  0  0
  150.9064  139.5505  153.3019 H   0  0  0  0  0  0  0  0  0  0  0  0
  148.4455  138.4648  157.5409 H   0  0  0  0  0  0  0  0  0  0  0  0
  149.3475  140.6069  158.2759 H   0  0  0  0  0  0  0  0  0  0  0  0
  149.9346  139.3625  159.3313 H   0  0  0  0  0  0  0  0  0  0  0  0
  151.9877  139.1545  157.7744 H   0  0  0  0  0  0  0  0  0  0  0  0
  152.0463  140.3238  159.9998 H   0  0  0  0  0  0  0  0  0  0  0  0
  153.2324  140.8617  158.8376 H   0  0  0  0  0  0  0  0  0  0  0  0
  152.3082  142.3869  161.1899 H   0  0  0  0  0  0  0  0  0  0  0  0
  153.4828  142.9409  160.0216 H   0  0  0  0  0  0  0  0  0  0  0  0
  150.8855  144.3587  160.7885 H   0  0  0  0  0  0  0  0  0  0  0  0
  152.5025  144.8668  161.2221 H   0  0  0  0  0  0  0  0  0  0  0  0
  151.5965  146.1469  159.2407 H   0  0  0  0  0  0  0  0  0  0  0  0
  153.0719  145.2852  158.8609 H   0  0  0  0  0  0  0  0  0  0  0  0
  150.2280  144.3879  158.1989 H   0  0  0  0  0  0  0  0  0  0  0  0
  151.4483  144.8980  157.0560 H   0  0  0  0  0  0  0  0  0  0  0  0
  152.8656  142.9650  157.6355 H   0  0  0  0  0  0  0  0  0  0  0  0
  149.9871  142.1981  156.9581 H   0  0  0  0  0  0  0  0  0  0  0  0
  151.2428  142.6511  155.8317 H   0  0  0  0  0  0  0  0  0  0  0  0
  1  2  3  0  0  0  0
  2  3  1  0  0  0  0
  3  8  1  0  0  0  0
  3  4  2  0  0  0  0
  4  5  1  0  0  0  0
  5  6  2  0  0  0  0
  5 21  1  0  0  0  0
  6  7  1  0  0  0  0
  6 22  1  0  0  0  0
  7  8  2  0  0  0  0
  8  9  1  0  0  0  0
  9 10  1  0  0  0  0
  9 23  1  0  0  0  0
 10 11  1  0  0  0  0
 10 24  1  0  0  0  0
 10 25  1  0  0  0  0
 11 20  1  0  0  0  0
 11 12  1  0  0  0  0
 11 26  1  0  0  0  0
 12 13  1  0  0  0  0
 12 27  1  0  0  0  0
 12 28  1  0  0  0  0
 13 18  1  0  0  0  0
 13 14  1  0  0  0  0
 14 15  1  0  0  0  0
 14 29  1  0  0  0  0
 14 30  1  0  0  0  0
 15 16  1  0  0  0  0
 15 31  1  0  0  0  0
 15 32  1  0  0  0  0
 16 17  1  0  0  0  0
 16 33  1  0  0  0  0
 16 34  1  0  0  0  0
 17 18  1  0  0  0  0
 17 35  1  0  0  0  0
 17 36  1  0  0  0  0
 18 19  1  0  0  0  0
 18 37  1  0  0  0  0
 19 20  1  0  0  0  0
 19 38  1  0  0  0  0
 19 39  1  0  0  0  0
M  END
> <s_m_source_file>
AV-unprocessed.smi

> <i_m_source_file_index>
3068

> <i_lp_mmshare_version>
43012

> <i_f3d_flags>
0

> <s_epik_input>
TiNDYzFuW2NIXVtjSF1uYzFbTkhdW0NIMl1bQ0BIXShbQ0gyXTIpT1tDSDJdW0NAQEhdKE4yMylbQ0gyXVtDSDJdW0NIMl1bQ0gyXTM=

> <s_epik_cmdline>
J2VwaWtfcHl0aG9uJywgJy1waCcsICc3LjAnLCAnLXRuJywgJzgnLCAnLW1hJywgJzIwMCcsICctbWV0YWxfYmluZGluZycsICctaW1hZScsICc8aW5maWxlLm1hZT4nLCAnLW9tYWUnLCAnPG91dGZpbGUubWFlPic=

> <r_epik_Ionization_Penalty>
1.22359

> <r_epik_Ionization_Penalty_Charging>
0

> <r_epik_Ionization_Penalty_Neutral>
1.22359

> <r_epik_State_Penalty>
1.29103

> <r_epik_Charging_Adjusted_Penalty>
1.29103

> <i_epik_Tot_Q>
0

> <i_epik_Tot_abs_Q>
0

> <r_epik_Metal_State_Penalty>
1.29103

> <b_epik_Metal_Only>
0

> <s_lp_Force_Field>
OPLS_2005

> <r_lp_Energy>
49.2937

> <b_lp_Chiralities_Consistent>
1

> <s_lp_Variant>
AV-unprocessed.smi:3068-11

> <Gold.Version>
5.8.1

> <Gold.Id.Protein>
6NUR|6NUR_protein|mol2

> <Gold.PLP.Fitness>
42.5579

> <Gold.PLP.PLP>
-33.1811

> <Gold.PLP.part.hbond>
-1.7836

> <Gold.PLP.part.metal>
0.0000

> <Gold.PLP.part.buried>
-3.5641

> <Gold.PLP.part.nonpolar>
-28.4216

> <Gold.PLP.part.repulsive>
0.2609

> <Gold.PLP.ligand.clash>
0.0000

> <Gold.PLP.ligand.torsion>
0.7659

> <Gold.PLP.Chemscore.Hbond>
1.6400

> <Gold.PLP.Chemscore.CHOScore>
1.9946

> <Gold.PLP.Chemscore.Metal>
0.0000

> <Gold.Chemscore.Hbonds>
donor molecule, donor type, donor heavy atom, donor atom, acceptor molecule, acceptor atom, score
      P1  H  6896  6907       L1     1  0.64
      P1  H 10752 10765       L1     4  1.00
      L1  C     5    21       P1  7949  1.00
      L1  C     6    22       P1  7957  0.99

> <Gold.PLP.Chemscore.Internal.Correction>
0.0048

> <Gold.Rescore>
     Score         DG    S(hbond)    S(metal)    S(lipo)     H(rot)  DE(clash)    DE(int)     intcor
     13.49     -18.07       1.12        0.00     104.15       1.30       0.87       3.71       ----

> <Gold.Chemscore.Fitness>
13.4920

> <Gold.Chemscore.DG>
-18.0719

> <Gold.Chemscore.ZeroCoef>
-5.4800

> <Gold.Chemscore.Hbond>
1.1194

> <Gold.Chemscore.Metal>
0.0000

> <Gold.Chemscore.Lipo>
104.1512

> <Gold.Chemscore.Internal_Hbond>
0.0000

> <Gold.Chemscore.DEClash>
0.8741

> <Gold.Chemscore.DEInternal>
3.7058

> <Gold.Chemscore.Rot>
1.3019

> <Gold.Chemscore.Internal.Correction>
   9.000000E+99

> <Gold.Chemscore.Hbonds>
donor molecule, donor type, donor heavy atom, donor atom, acceptor molecule, acceptor atom, score
      P1  H  6896  6907       L1     1  0.64
      P1  H 10752 10765       L1     4  0.24

> <Gold.Chemscore.Hbond.Weighted>
-3.7389

> <Gold.Chemscore.Metal.Weighted>
-0.0000

> <Gold.Chemscore.Lipo.Weighted>
-12.1857

> <Gold.Chemscore.Internal_Hbond.Weighted>
0.0000

> <Gold.Chemscore.DEClash.Weighted>
0.8741

> <Gold.Chemscore.DEInternal.Weighted>
3.7058

> <Gold.Chemscore.Rot.Weighted>
3.3327

> <Gold.Chemscore.Internal.Correction.Weighted>
   9.000000E+99

> <Gold.Protein.RotatedTorsions>
[ 6907 6896 6895 6894 ] final  -69.89 input  -60.11 | X-H torsion
[ 7974 7965 7964 7962 ] final   78.88 input  175.53 | X-H torsion
[ 8008 7997 7996 7995 ] final   92.87 input   59.86 | X-H torsion
[ 10167 10162 10161 10158 ] final -162.95 input  -65.29 | X-H torsion
[ 10718 10713 10712 10709 ] final    1.24 input   66.30 | X-H torsion
[ 10763 10752 10751 10750 ] final -173.53 input  -60.55 | X-H torsion
[ 11005 11000 10999 10996 ] final   76.64 input  -57.11 | X-H torsion

> <Gold.Protein.ActiveResidues>
 VAL166  LYS551  ARG553  GLY616  TRP617  ASP618  TYR619  PRO620  LYS621  CYS622 
 ASP623  PHE694  ASN695  SER759  ASP760  ASP761  ALA762  ILE779  LEU786  VAL792 
 PHE793  MET794  SER795  GLU796  ALA797  LYS798  CYS799  TRP800  GLU811  SER814 

> <Gold.Protein.RotatedAtoms>
  150.7284  134.5532  159.5804 H   0  0  0  0  0  0  0  0  0  0  0  0  # atno 6907 bound_to 6896
  152.3014  134.7603  160.0366 H   0  0  0  0  0  0  0  0  0  0  0  0  # atno 6908 bound_to 6896
  151.8183  133.3355  159.3613 H   0  0  0  0  0  0  0  0  0  0  0  0  # atno 6909 bound_to 6896
  145.6715  139.2498  143.1866 H   0  0  0  0  0  0  0  0  0  0  0  0  # atno 7974 bound_to 7965
  156.0403  140.3320  155.7236 H   0  0  0  0  0  0  0  0  0  0  0  0  # atno 8008 bound_to 7997
  155.5754  140.0632  157.2814 H   0  0  0  0  0  0  0  0  0  0  0  0  # atno 8009 bound_to 7997
  154.4390  140.1853  156.0910 H   0  0  0  0  0  0  0  0  0  0  0  0  # atno 8010 bound_to 7997
  139.6355  144.0358  152.2051 H   0  0  0  0  0  0  0  0  0  0  0  0  # atno 10167 bound_to 10162
  156.8453  130.5535  149.5674 H   0  0  0  0  0  0  0  0  0  0  0  0  # atno 10718 bound_to 10713
  154.6068  135.2860  155.0476 H   0  0  0  0  0  0  0  0  0  0  0  0  # atno 10763 bound_to 10752
  154.1720  135.6471  153.5016 H   0  0  0  0  0  0  0  0  0  0  0  0  # atno 10764 bound_to 10752
  153.0179  135.5403  154.6807 H   0  0  0  0  0  0  0  0  0  0  0  0  # atno 10765 bound_to 10752
  139.9289  134.7617  156.1421 H   0  0  0  0  0  0  0  0  0  0  0  0  # atno 11005 bound_to 11000
  146.1041  140.7508  142.9535 LP  0  0  0  0  0  0  0  0  0  0  0  0  # atno 17320 bound_to 7965
  144.7055  140.3835  143.7121 LP  0  0  0  0  0  0  0  0  0  0  0  0  # atno 17321 bound_to 7965
  140.0034  144.6277  150.7710 LP  0  0  0  0  0  0  0  0  0  0  0  0  # atno 17342 bound_to 10162
  140.7463  143.2888  151.3387 LP  0  0  0  0  0  0  0  0  0  0  0  0  # atno 17343 bound_to 10162
  156.0858  130.5857  150.9645 LP  0  0  0  0  0  0  0  0  0  0  0  0  # atno 17370 bound_to 10713
  157.6333  131.0919  150.8398 LP  0  0  0  0  0  0  0  0  0  0  0  0  # atno 17371 bound_to 10713
  141.0866  133.6732  156.2449 LP  0  0  0  0  0  0  0  0  0  0  0  0  # atno 17394 bound_to 11000
  140.6257  134.5316  157.5553 LP  0  0  0  0  0  0  0  0  0  0  0  0  # atno 17395 bound_to 11000

$$$$
