AV-unprocessed.smi:2562|AV-procd|sdf|10045|dock2
  -GOLD-   2272014 93D 1   1.00000     0.00000
 Structure written by MMmdl.
 31 32  0  0  0  0  0  0  0  0  2 V2000
  153.4970  141.9376  160.8153 C   0  0  0  0  0  0  0  0  0  0  0  0
  152.6434  142.2800  159.5894 C   0  0  0  0  0  0  0  0  0  0  0  0
  152.2290  141.0349  158.7921 C   0  0  0  0  0  0  0  0  0  0  0  0
  151.3981  141.3801  157.6006 C   0  0  0  0  0  0  0  0  0  0  0  0
  150.9808  142.6266  157.3875 N   0  0  0  0  0  0  0  0  0  0  0  0
  150.2437  142.4875  156.2658 N   0  0  0  0  0  0  0  0  0  0  0  0
  150.2451  141.2064  155.8879 C   0  0  0  0  0  0  0  0  0  0  0  0
  149.5033  140.7424  154.6703 C   0  0  1  0  0  0  0  0  0  0  0  0
  149.6176  139.2262  154.4008 C   0  0  0  0  0  0  0  0  0  0  0  0
  148.7906  138.8566  153.2357 N   0  3  0  0  0  0  0  0  0  0  0  0
  147.3891  139.2852  153.4111 C   0  0  0  0  0  0  0  0  0  0  0  0
  147.3306  140.7897  153.7296 C   0  0  0  0  0  0  0  0  0  0  0  0
  148.1315  141.0730  154.8730 O   0  0  0  0  0  0  0  0  0  0  0  0
  150.9660  140.4424  156.7043 N   0  0  0  0  0  0  0  0  0  0  0  0
  149.7703  143.2602  155.8196 H   0  0  0  0  0  0  0  0  0  0  0  0
  153.7722  142.8404  161.3608 H   0  0  0  0  0  0  0  0  0  0  0  0
  154.4173  141.4295  160.5258 H   0  0  0  0  0  0  0  0  0  0  0  0
  152.9555  141.2866  161.5022 H   0  0  0  0  0  0  0  0  0  0  0  0
  151.7530  142.8201  159.9136 H   0  0  0  0  0  0  0  0  0  0  0  0
  153.1991  142.9603  158.9430 H   0  0  0  0  0  0  0  0  0  0  0  0
  153.1147  140.4890  158.4640 H   0  0  0  0  0  0  0  0  0  0  0  0
  151.6652  140.3533  159.4304 H   0  0  0  0  0  0  0  0  0  0  0  0
  149.8886  141.3007  153.8150 H   0  0  0  0  0  0  0  0  0  0  0  0
  150.6528  138.9428  154.2093 H   0  0  0  0  0  0  0  0  0  0  0  0
  149.2799  138.6557  155.2675 H   0  0  0  0  0  0  0  0  0  0  0  0
  149.1680  139.3082  152.4147 H   0  0  0  0  0  0  0  0  0  0  0  0
  146.8260  139.0616  152.5049 H   0  0  0  0  0  0  0  0  0  0  0  0
  146.9377  138.7106  154.2209 H   0  0  0  0  0  0  0  0  0  0  0  0
  147.6719  141.3813  152.8786 H   0  0  0  0  0  0  0  0  0  0  0  0
  146.3029  141.0906  153.9343 H   0  0  0  0  0  0  0  0  0  0  0  0
  148.8231  137.8555  153.1040 H   0  0  0  0  0  0  0  0  0  0  0  0
  1  2  1  0  0  0  0
  1 16  1  0  0  0  0
  1 17  1  0  0  0  0
  1 18  1  0  0  0  0
  2  3  1  0  0  0  0
  2 19  1  0  0  0  0
  2 20  1  0  0  0  0
  3  4  1  0  0  0  0
  3 21  1  0  0  0  0
  3 22  1  0  0  0  0
  4 14  1  0  0  0  0
  4  5  2  0  0  0  0
  5  6  1  0  0  0  0
  6 15  1  0  0  0  0
  6  7  1  0  0  0  0
  7  8  1  0  0  0  0
  7 14  2  0  0  0  0
  8 13  1  0  0  0  0
  8  9  1  0  0  0  0
  8 23  1  0  0  0  0
  9 10  1  0  0  0  0
  9 24  1  0  0  0  0
  9 25  1  0  0  0  0
 10 11  1  0  0  0  0
 10 26  1  0  0  0  0
 10 31  1  0  0  0  0
 11 12  1  0  0  0  0
 11 27  1  0  0  0  0
 11 28  1  0  0  0  0
 12 13  1  0  0  0  0
 12 29  1  0  0  0  0
 12 30  1  0  0  0  0
M  CHG  1  10   1
M  END
> <s_m_source_file>
AV-unprocessed.smi

> <i_m_source_file_index>
2562

> <i_lp_mmshare_version>
43012

> <i_f3d_flags>
0

> <s_epik_input>
W0NIM11bQ0gyXVtDSDJdYzFuW25IXWMobjEpW0NAQEhdMltDSDJdW05IXVtDSDJdW0NIMl1PMg==

> <s_epik_cmdline>
J2VwaWtfcHl0aG9uJywgJy1waCcsICc3LjAnLCAnLXRuJywgJzgnLCAnLW1hJywgJzIwMCcsICctbWV0YWxfYmluZGluZycsICctaW1hZScsICc8aW5maWxlLm1hZT4nLCAnLW9tYWUnLCAnPG91dGZpbGUubWFlPic=

> <r_epik_Ionization_Penalty>
0.162344

> <r_epik_Ionization_Penalty_Charging>
0.125708

> <r_epik_Ionization_Penalty_Neutral>
0.0366364

> <r_epik_State_Penalty>
0.771409

> <r_epik_Charging_Adjusted_Penalty>
0.897117

> <i_epik_Tot_Q>
1

> <i_epik_Tot_abs_Q>
1

> <r_epik_Metal_State_Penalty>
0.893868

> <b_epik_Metal_Only>
0

> <s_lp_Force_Field>
OPLS_2005

> <r_lp_Energy>
12.5305

> <b_lp_Chiralities_Consistent>
1

> <s_lp_Variant>
AV-unprocessed.smi:2562-4

> <Gold.Version>
5.8.1

> <Gold.Id.Protein>
6NUR|6NUR_protein|mol2

> <Gold.PLP.Fitness>
40.7228

> <Gold.PLP.PLP>
-29.0357

> <Gold.PLP.part.hbond>
-3.0000

> <Gold.PLP.part.metal>
0.0000

> <Gold.PLP.part.buried>
-4.7104

> <Gold.PLP.part.nonpolar>
-22.5095

> <Gold.PLP.part.repulsive>
0.4067

> <Gold.PLP.ligand.clash>
0.0000

> <Gold.PLP.ligand.torsion>
0.0261

> <Gold.PLP.Chemscore.Hbond>
3.9113

> <Gold.PLP.Chemscore.CHOScore>
0.0000

> <Gold.PLP.Chemscore.Metal>
0.0000

> <Gold.Chemscore.Hbonds>
donor molecule, donor type, donor heavy atom, donor atom, acceptor molecule, acceptor atom, score
      L1  H     6    15       P1  8028  1.00
      L1  H    10    26       P1  7957  0.94
      L1  H    10    31       P1  7948  1.95

> <Gold.PLP.Chemscore.Internal.Correction>
0.0056

> <Gold.Rescore>
     Score         DG    S(hbond)    S(metal)    S(lipo)     H(rot)  DE(clash)    DE(int)     intcor
     17.76     -17.85       2.83        0.00      58.09       1.51       0.08       0.01       ----

> <Gold.Chemscore.Fitness>
17.7631

> <Gold.Chemscore.DG>
-17.8538

> <Gold.Chemscore.ZeroCoef>
-5.4800

> <Gold.Chemscore.Hbond>
2.8284

> <Gold.Chemscore.Metal>
0.0000

> <Gold.Chemscore.Lipo>
58.0878

> <Gold.Chemscore.Internal_Hbond>
0.0000

> <Gold.Chemscore.DEClash>
0.0782

> <Gold.Chemscore.DEInternal>
0.0125

> <Gold.Chemscore.Rot>
1.5115

> <Gold.Chemscore.Internal.Correction>
   9.000000E+99

> <Gold.Chemscore.Hbonds>
donor molecule, donor type, donor heavy atom, donor atom, acceptor molecule, acceptor atom, score
      L1  H     6    15       P1  8028  0.99
      L1  H    10    26       P1  7957  0.90
      L1  H    10    31       P1  7948  0.87

> <Gold.Chemscore.Hbond.Weighted>
-9.4470

> <Gold.Chemscore.Metal.Weighted>
-0.0000

> <Gold.Chemscore.Lipo.Weighted>
-6.7963

> <Gold.Chemscore.Internal_Hbond.Weighted>
0.0000

> <Gold.Chemscore.DEClash.Weighted>
0.0782

> <Gold.Chemscore.DEInternal.Weighted>
0.0125

> <Gold.Chemscore.Rot.Weighted>
3.8695

> <Gold.Chemscore.Internal.Correction.Weighted>
   9.000000E+99

> <Gold.Protein.RotatedTorsions>
[ 6907 6896 6895 6894 ] final  -10.74 input  -60.11 | X-H torsion
[ 7974 7965 7964 7962 ] final  -80.26 input  175.53 | X-H torsion
[ 8008 7997 7996 7995 ] final  -54.30 input   59.86 | X-H torsion
[ 10167 10162 10161 10158 ] final   10.27 input  -65.29 | X-H torsion
[ 10718 10713 10712 10709 ] final  -25.10 input   66.30 | X-H torsion
[ 10763 10752 10751 10750 ] final   21.42 input  -60.55 | X-H torsion
[ 11005 11000 10999 10996 ] final  150.22 input  -57.11 | X-H torsion

> <Gold.Protein.ActiveResidues>
 VAL166  LYS551  ARG553  GLY616  TRP617  ASP618  TYR619  PRO620  LYS621  CYS622 
 ASP623  PHE694  ASN695  SER759  ASP760  ASP761  ALA762  ILE779  LEU786  VAL792 
 PHE793  MET794  SER795  GLU796  ALA797  LYS798  CYS799  TRP800  GLU811  SER814 

> <Gold.Protein.RotatedAtoms>
  151.3972  135.0965  159.9544 H   0  0  0  0  0  0  0  0  0  0  0  0  # atno 6907 bound_to 6896
  152.5061  133.8923  159.7410 H   0  0  0  0  0  0  0  0  0  0  0  0  # atno 6908 bound_to 6896
  150.9389  133.6623  159.2823 H   0  0  0  0  0  0  0  0  0  0  0  0  # atno 6909 bound_to 6896
  145.5622  140.9480  143.1441 H   0  0  0  0  0  0  0  0  0  0  0  0  # atno 7974 bound_to 7965
  154.4159  140.1179  156.5294 H   0  0  0  0  0  0  0  0  0  0  0  0  # atno 8008 bound_to 7997
  155.6621  140.3496  155.4767 H   0  0  0  0  0  0  0  0  0  0  0  0  # atno 8009 bound_to 7997
  155.9704  140.1140  157.0807 H   0  0  0  0  0  0  0  0  0  0  0  0  # atno 8010 bound_to 7997
  140.6204  143.8217  150.7168 H   0  0  0  0  0  0  0  0  0  0  0  0  # atno 10167 bound_to 10162
  156.4688  130.4520  149.6882 H   0  0  0  0  0  0  0  0  0  0  0  0  # atno 10718 bound_to 10713
  153.0997  135.6669  153.9696 H   0  0  0  0  0  0  0  0  0  0  0  0  # atno 10763 bound_to 10752
  153.9270  135.3008  155.3448 H   0  0  0  0  0  0  0  0  0  0  0  0  # atno 10764 bound_to 10752
  154.7417  135.5076  153.9209 H   0  0  0  0  0  0  0  0  0  0  0  0  # atno 10765 bound_to 10752
  140.1113  134.8922  157.1940 H   0  0  0  0  0  0  0  0  0  0  0  0  # atno 11005 bound_to 11000
  144.7477  139.7276  143.7285 LP  0  0  0  0  0  0  0  0  0  0  0  0  # atno 17320 bound_to 7965
  146.1843  139.5050  142.9846 LP  0  0  0  0  0  0  0  0  0  0  0  0  # atno 17321 bound_to 7965
  140.1805  143.4118  152.1936 LP  0  0  0  0  0  0  0  0  0  0  0  0  # atno 17342 bound_to 10162
  139.5434  144.7277  151.4661 LP  0  0  0  0  0  0  0  0  0  0  0  0  # atno 17343 bound_to 10162
  156.3640  130.7496  151.2472 LP  0  0  0  0  0  0  0  0  0  0  0  0  # atno 17370 bound_to 10713
  157.7493  131.0342  150.4307 LP  0  0  0  0  0  0  0  0  0  0  0  0  # atno 17371 bound_to 10713
  140.3088  134.3048  155.7272 LP  0  0  0  0  0  0  0  0  0  0  0  0  # atno 17394 bound_to 11000
  141.2131  133.7637  156.9746 LP  0  0  0  0  0  0  0  0  0  0  0  0  # atno 17395 bound_to 11000

$$$$
