AV-unprocessed.smi:21|AV-procd|sdf|150|dock5
  -GOLD-   2262015373D 1   1.00000     0.00000
 Structure written by MMmdl.
 62 65  0  0  0  0  0  0  0  0  2 V2000
  146.8319  133.2842  151.0123 C   0  0  0  0  0  0  0  0  0  0  0  0
  145.6013  132.8679  151.5825 O   0  0  0  0  0  0  0  0  0  0  0  0
  144.4563  133.3298  150.8774 C   0  0  2  0  0  0  0  0  0  0  0  0
  144.2800  134.8174  151.1506 C   0  0  0  0  0  0  0  0  0  0  0  0
  143.5895  134.8590  152.5189 C   0  0  1  0  0  0  0  0  0  0  0  0
  142.8470  136.1849  152.8175 C   0  0  0  0  0  0  0  0  0  0  0  0
  143.3966  136.8861  153.9803 N   0  0  0  0  0  0  0  0  0  0  0  0
  142.8658  136.5593  155.2977 C   0  0  0  0  0  0  0  0  0  0  0  0
  144.5908  137.5336  153.8747 C   0  0  0  0  0  0  0  0  0  0  0  0
  145.2453  137.4755  152.6846 N   0  0  0  0  0  0  0  0  0  0  0  0
  146.4199  138.0883  152.5188 C   0  0  0  0  0  0  0  0  0  0  0  0
  147.1177  138.8023  153.4016 N   0  0  0  0  0  0  0  0  0  0  0  0
  146.4767  138.8649  154.6026 C   0  0  0  0  0  0  0  0  0  0  0  0
  145.2226  138.2680  154.9252 C   0  0  0  0  0  0  0  0  0  0  0  0
  144.9107  138.5419  156.2536 N   0  0  0  0  0  0  0  0  0  0  0  0
  145.9099  139.2613  156.6838 C   0  0  0  0  0  0  0  0  0  0  0  0
  146.8921  139.5094  155.7547 N   0  0  0  0  0  0  0  0  0  0  0  0
  148.1084  140.2754  155.9667 C   0  0  0  0  0  0  0  0  0  0  0  0
  148.9839  140.3996  154.6954 C   0  0  1  0  0  0  0  0  0  0  0  0
  148.3444  141.3916  153.6958 C   0  0  0  0  0  0  0  0  0  0  0  0
  148.6351  142.7244  154.0625 O   0  0  0  0  0  0  0  0  0  0  0  0
  150.4693  140.7215  155.0228 C   0  0  1  0  0  0  0  0  0  0  0  0
  150.6964  141.6757  156.1965 C   0  0  0  0  0  0  0  0  0  0  0  0
  151.8012  141.0074  157.0167 C   0  0  0  0  0  0  0  0  0  0  0  0
  152.4086  140.0953  156.1157 O   0  0  0  0  0  0  0  0  0  0  0  0
  151.3612  139.5194  155.3543 C   0  0  0  0  0  0  0  0  0  0  0  0
  142.7631  133.6186  152.5852 N   0  3  1  0  0  0  0  0  0  0  0  0
  141.2931  133.7800  152.6872 C   0  0  0  0  0  0  0  0  0  0  0  0
  143.1708  132.7357  151.4650 C   0  0  0  0  0  0  0  0  0  0  0  0
  144.5567  133.1388  149.8075 H   0  0  0  0  0  0  0  0  0  0  0  0
  144.3597  134.7232  153.2795 H   0  0  0  0  0  0  0  0  0  0  0  0
  147.6579  132.8863  151.6018 H   0  0  0  0  0  0  0  0  0  0  0  0
  146.9160  134.3716  151.0122 H   0  0  0  0  0  0  0  0  0  0  0  0
  146.9487  132.9254  149.9896 H   0  0  0  0  0  0  0  0  0  0  0  0
  145.2228  135.3657  151.1311 H   0  0  0  0  0  0  0  0  0  0  0  0
  143.6276  135.2507  150.3908 H   0  0  0  0  0  0  0  0  0  0  0  0
  142.8334  136.8252  151.9361 H   0  0  0  0  0  0  0  0  0  0  0  0
  141.8012  135.9729  153.0409 H   0  0  0  0  0  0  0  0  0  0  0  0
  142.9527  137.4091  155.9758 H   0  0  0  0  0  0  0  0  0  0  0  0
  143.3956  135.7090  155.7277 H   0  0  0  0  0  0  0  0  0  0  0  0
  141.8093  136.2985  155.2326 H   0  0  0  0  0  0  0  0  0  0  0  0
  146.8639  137.9935  151.5387 H   0  0  0  0  0  0  0  0  0  0  0  0
  145.9581  139.6358  157.6963 H   0  0  0  0  0  0  0  0  0  0  0  0
  147.8155  141.2624  156.3260 H   0  0  0  0  0  0  0  0  0  0  0  0
  148.6796  139.8140  156.7728 H   0  0  0  0  0  0  0  0  0  0  0  0
  148.9906  139.4204  154.2134 H   0  0  0  0  0  0  0  0  0  0  0  0
  148.7103  141.2210  152.6833 H   0  0  0  0  0  0  0  0  0  0  0  0
  147.2607  141.2889  153.6628 H   0  0  0  0  0  0  0  0  0  0  0  0
  148.9165  142.7337  154.9648 H   0  0  0  0  0  0  0  0  0  0  0  0
  150.9185  141.2164  154.1613 H   0  0  0  0  0  0  0  0  0  0  0  0
  151.0293  142.6460  155.8257 H   0  0  0  0  0  0  0  0  0  0  0  0
  149.8078  141.8534  156.8016 H   0  0  0  0  0  0  0  0  0  0  0  0
  152.5234  141.7221  157.4117 H   0  0  0  0  0  0  0  0  0  0  0  0
  151.3754  140.4534  157.8548 H   0  0  0  0  0  0  0  0  0  0  0  0
  150.8494  138.7773  155.9670 H   0  0  0  0  0  0  0  0  0  0  0  0
  151.7438  139.0203  154.4642 H   0  0  0  0  0  0  0  0  0  0  0  0
  140.8917  134.3213  151.8294 H   0  0  0  0  0  0  0  0  0  0  0  0
  141.0140  134.3077  153.5989 H   0  0  0  0  0  0  0  0  0  0  0  0
  140.8116  132.8022  152.7219 H   0  0  0  0  0  0  0  0  0  0  0  0
  142.4002  132.7473  150.6922 H   0  0  0  0  0  0  0  0  0  0  0  0
  143.2790  131.7031  151.7960 H   0  0  0  0  0  0  0  0  0  0  0  0
  143.0506  133.1519  153.4337 H   0  0  0  0  0  0  0  0  0  0  0  0
  1  2  1  0  0  0  0
  1 32  1  0  0  0  0
  1 33  1  0  0  0  0
  1 34  1  0  0  0  0
  2  3  1  0  0  0  0
  3 30  1  0  0  0  0
  3 29  1  0  0  0  0
  3  4  1  0  0  0  0
  4  5  1  0  0  0  0
  4 35  1  0  0  0  0
  4 36  1  0  0  0  0
  5 31  1  0  0  0  0
  5  6  1  0  0  0  0
  5 27  1  0  0  0  0
  6  7  1  0  0  0  0
  6 37  1  0  0  0  0
  6 38  1  0  0  0  0
  7  8  1  0  0  0  0
  7  9  1  0  0  0  0
  8 39  1  0  0  0  0
  8 40  1  0  0  0  0
  8 41  1  0  0  0  0
  9 14  1  0  0  0  0
  9 10  2  0  0  0  0
 10 11  1  0  0  0  0
 11 12  2  0  0  0  0
 11 42  1  0  0  0  0
 12 13  1  0  0  0  0
 13 17  1  0  0  0  0
 13 14  2  0  0  0  0
 14 15  1  0  0  0  0
 15 16  2  0  0  0  0
 16 17  1  0  0  0  0
 16 43  1  0  0  0  0
 17 18  1  0  0  0  0
 18 19  1  0  0  0  0
 18 44  1  0  0  0  0
 18 45  1  0  0  0  0
 19 20  1  0  0  0  0
 19 22  1  0  0  0  0
 19 46  1  0  0  0  0
 20 21  1  0  0  0  0
 20 47  1  0  0  0  0
 20 48  1  0  0  0  0
 21 49  1  0  0  0  0
 22 26  1  0  0  0  0
 22 23  1  0  0  0  0
 22 50  1  0  0  0  0
 23 24  1  0  0  0  0
 23 51  1  0  0  0  0
 23 52  1  0  0  0  0
 24 25  1  0  0  0  0
 24 53  1  0  0  0  0
 24 54  1  0  0  0  0
 25 26  1  0  0  0  0
 26 55  1  0  0  0  0
 26 56  1  0  0  0  0
 27 28  1  0  0  0  0
 27 29  1  0  0  0  0
 27 62  1  0  0  0  0
 28 57  1  0  0  0  0
 28 58  1  0  0  0  0
 28 59  1  0  0  0  0
 29 60  1  0  0  0  0
 29 61  1  0  0  0  0
M  CHG  1  27   1
M  END
> <s_m_source_file>
AV-unprocessed.smi

> <i_m_source_file_index>
21

> <i_lp_mmshare_version>
43012

> <i_f3d_flags>
0

> <s_epik_input>
W0NIM11PW0NASF0xW0NIMl1bQ0BIXShOKFtDSDNdKVtDSDJdMSlbQ0gyXU4oW0NIM10pYyhuW2NIXW4yKWMoYzIzKW5bY0hdbjNbQ0gyXVtDQEhdKFtDSDJdW09IXSlbQ0BASF00W0NIMl1bQ0gyXU9bQ0gyXTQ=

> <s_epik_cmdline>
J2VwaWtfcHl0aG9uJywgJy1waCcsICc3LjAnLCAnLXRuJywgJzgnLCAnLW1hJywgJzIwMCcsICctbWV0YWxfYmluZGluZycsICctaW1hZScsICc8aW5maWxlLm1hZT4nLCAnLW9tYWUnLCAnPG91dGZpbGUubWFlPic=

> <r_lp_tautomer_probability>
1

> <r_epik_Ionization_Penalty>
0.0157465

> <r_epik_Ionization_Penalty_Charging>
0.015354

> <r_epik_Ionization_Penalty_Neutral>
0.000392529

> <r_epik_State_Penalty>
0.0120612

> <r_epik_Charging_Adjusted_Penalty>
0.0274152

> <i_epik_Tot_Q>
1

> <i_epik_Tot_abs_Q>
1

> <r_epik_Metal_State_Penalty>
0.0121253

> <b_epik_Metal_Only>
0

> <s_lp_Force_Field>
OPLS_2005

> <r_lp_Energy>
62.4591

> <b_lp_Chiralities_Consistent>
1

> <s_lp_Variant>
AV-unprocessed.smi:21-30

> <Gold.Version>
5.8.1

> <Gold.Id.Protein>
6NUR|6NUR_protein|mol2

> <Gold.PLP.Fitness>
46.9880

> <Gold.PLP.PLP>
-37.7252

> <Gold.PLP.part.hbond>
-4.6998

> <Gold.PLP.part.metal>
0.0000

> <Gold.PLP.part.buried>
0.1416

> <Gold.PLP.part.nonpolar>
-32.3274

> <Gold.PLP.part.repulsive>
0.5885

> <Gold.PLP.ligand.clash>
0.0000

> <Gold.PLP.ligand.torsion>
2.0747

> <Gold.PLP.Chemscore.Hbond>
3.9062

> <Gold.PLP.Chemscore.CHOScore>
0.3174

> <Gold.PLP.Chemscore.Metal>
0.0000

> <Gold.Chemscore.Hbonds>
donor molecule, donor type, donor heavy atom, donor atom, acceptor molecule, acceptor atom, score
      L1  H    21    49       P1  8028  0.12
      L1  H    27    62       P1 10957  1.86
      P1  H  7997  8008       L1    25  1.00
      P1  H  8022  8030       L1    21  0.88
      L1  C    11    42       P1  7948  0.28

> <Gold.PLP.Chemscore.Internal.Correction>
0.7414

> <Gold.Rescore>
     Score         DG    S(hbond)    S(metal)    S(lipo)     H(rot)  DE(clash)    DE(int)     intcor
     10.10     -16.50       2.55        0.00      88.74       3.08       0.48       5.93       ----

> <Gold.Chemscore.Fitness>
10.0951

> <Gold.Chemscore.DG>
-16.5018

> <Gold.Chemscore.ZeroCoef>
-5.4800

> <Gold.Chemscore.Hbond>
2.5489

> <Gold.Chemscore.Metal>
0.0000

> <Gold.Chemscore.Lipo>
88.7395

> <Gold.Chemscore.Internal_Hbond>
0.0000

> <Gold.Chemscore.DEClash>
0.4767

> <Gold.Chemscore.DEInternal>
5.9300

> <Gold.Chemscore.Rot>
3.0758

> <Gold.Chemscore.Internal.Correction>
   9.000000E+99

> <Gold.Chemscore.Hbonds>
donor molecule, donor type, donor heavy atom, donor atom, acceptor molecule, acceptor atom, score
      L1  H    21    49       P1  8028  0.14
      L1  H    27    62       P1 10957  0.83
      P1  H  7997  8008       L1    25  0.78
      P1  H  8022  8030       L1    21  0.29

> <Gold.Chemscore.Hbond.Weighted>
-8.5134

> <Gold.Chemscore.Metal.Weighted>
-0.0000

> <Gold.Chemscore.Lipo.Weighted>
-10.3825

> <Gold.Chemscore.Internal_Hbond.Weighted>
0.0000

> <Gold.Chemscore.DEClash.Weighted>
0.4767

> <Gold.Chemscore.DEInternal.Weighted>
5.9300

> <Gold.Chemscore.Rot.Weighted>
7.8741

> <Gold.Chemscore.Internal.Correction.Weighted>
   9.000000E+99

> <Gold.Protein.RotatedTorsions>
[ 6907 6896 6895 6894 ] final  150.44 input  -60.11 | X-H torsion
[ 7974 7965 7964 7962 ] final  143.76 input  175.53 | X-H torsion
[ 8008 7997 7996 7995 ] final  -37.23 input   59.86 | X-H torsion
[ 10167 10162 10161 10158 ] final  -18.99 input  -65.29 | X-H torsion
[ 10718 10713 10712 10709 ] final -160.37 input   66.30 | X-H torsion
[ 10763 10752 10751 10750 ] final  -27.19 input  -60.55 | X-H torsion
[ 11005 11000 10999 10996 ] final   10.38 input  -57.11 | X-H torsion

> <Gold.Protein.ActiveResidues>
 VAL166  LYS551  ARG553  GLY616  TRP617  ASP618  TYR619  PRO620  LYS621  CYS622 
 ASP623  PHE694  ASN695  SER759  ASP760  ASP761  ALA762  ILE779  LEU786  VAL792 
 PHE793  MET794  SER795  GLU796  ALA797  LYS798  CYS799  TRP800  GLU811  SER814 

> <Gold.Protein.RotatedAtoms>
  152.1144  133.4318  159.4645 H   0  0  0  0  0  0  0  0  0  0  0  0  # atno 6907 bound_to 6896
  150.6868  134.2610  159.4558 H   0  0  0  0  0  0  0  0  0  0  0  0  # atno 6908 bound_to 6896
  152.0481  134.9670  160.0625 H   0  0  0  0  0  0  0  0  0  0  0  0  # atno 6909 bound_to 6896
  144.8893  139.5582  143.5806 H   0  0  0  0  0  0  0  0  0  0  0  0  # atno 7974 bound_to 7965
  154.4057  140.1610  156.2503 H   0  0  0  0  0  0  0  0  0  0  0  0  # atno 8008 bound_to 7997
  155.9125  140.3426  155.6087 H   0  0  0  0  0  0  0  0  0  0  0  0  # atno 8009 bound_to 7997
  155.7319  140.0781  157.2276 H   0  0  0  0  0  0  0  0  0  0  0  0  # atno 8010 bound_to 7997
  140.7264  143.4862  151.0052 H   0  0  0  0  0  0  0  0  0  0  0  0  # atno 10167 bound_to 10162
  156.5812  130.8730  151.2865 H   0  0  0  0  0  0  0  0  0  0  0  0  # atno 10718 bound_to 10713
  153.7282  135.6940  153.4996 H   0  0  0  0  0  0  0  0  0  0  0  0  # atno 10763 bound_to 10752
  153.2155  135.4388  155.0428 H   0  0  0  0  0  0  0  0  0  0  0  0  # atno 10764 bound_to 10752
  154.8262  135.3447  154.6813 H   0  0  0  0  0  0  0  0  0  0  0  0  # atno 10765 bound_to 10752
  140.5151  134.0614  155.7829 H   0  0  0  0  0  0  0  0  0  0  0  0  # atno 11005 bound_to 11000
  146.3044  139.7531  142.9067 LP  0  0  0  0  0  0  0  0  0  0  0  0  # atno 17320 bound_to 7965
  145.3812  141.0358  143.3176 LP  0  0  0  0  0  0  0  0  0  0  0  0  # atno 17321 bound_to 7965
  139.8564  143.7372  152.3176 LP  0  0  0  0  0  0  0  0  0  0  0  0  # atno 17342 bound_to 10162
  139.7572  144.7517  151.0418 LP  0  0  0  0  0  0  0  0  0  0  0  0  # atno 17343 bound_to 10162
  157.7326  130.9717  150.1936 LP  0  0  0  0  0  0  0  0  0  0  0  0  # atno 17370 bound_to 10713
  156.2630  130.3713  149.8111 LP  0  0  0  0  0  0  0  0  0  0  0  0  # atno 17371 bound_to 10713
  141.1365  133.9213  157.2423 LP  0  0  0  0  0  0  0  0  0  0  0  0  # atno 17394 bound_to 11000
  139.9637  135.0147  156.9330 LP  0  0  0  0  0  0  0  0  0  0  0  0  # atno 17395 bound_to 11000

$$$$
