AV-unprocessed.smi:3083|AV-procd|sdf|11745|dock10
  -GOLD-   2272017143D 1   1.00000     0.00000
 Structure written by MMmdl.
 28 29  0  0  0  0  0  0  0  0  2 V2000
  150.6832  145.0681  158.2607 N   0  3  0  0  0  0  0  0  0  0  0  0
  151.7204  144.6055  159.2018 C   0  0  1  0  0  0  0  0  0  0  0  0
  151.1353  144.3960  160.6162 C   0  0  0  0  0  0  0  0  0  0  0  0
  152.1982  143.8777  161.5981 C   0  0  0  0  0  0  0  0  0  0  0  0
  152.8874  142.6108  161.0687 C   0  0  0  0  0  0  0  0  0  0  0  0
  153.5168  142.8635  159.6884 C   0  0  0  0  0  0  0  0  0  0  0  0
  152.4917  143.3709  158.6516 C   0  0  1  0  0  0  0  0  0  0  0  0
  151.6559  142.2777  158.1491 N   0  0  0  0  0  0  0  0  0  0  0  0
  150.8077  142.3142  157.0599 C   0  0  0  0  0  0  0  0  0  0  0  0
  150.2562  141.0734  156.9194 C   0  0  0  0  0  0  0  0  0  0  0  0
  150.8479  140.3223  157.9713 C   0  0  0  0  0  0  0  0  0  0  0  0
  151.6865  141.0419  158.6978 N   0  0  0  0  0  0  0  0  0  0  0  0
  149.7725  144.8276  158.6267 H   0  0  0  0  0  0  0  0  0  0  0  0
  150.8142  144.6206  157.3649 H   0  0  0  0  0  0  0  0  0  0  0  0
  152.4390  145.4229  159.2762 H   0  0  0  0  0  0  0  0  0  0  0  0
  150.7316  145.3378  160.9897 H   0  0  0  0  0  0  0  0  0  0  0  0
  150.2940  143.7047  160.5957 H   0  0  0  0  0  0  0  0  0  0  0  0
  152.9465  144.6531  161.7679 H   0  0  0  0  0  0  0  0  0  0  0  0
  151.7406  143.6748  162.5668 H   0  0  0  0  0  0  0  0  0  0  0  0
  153.6577  142.2903  161.7709 H   0  0  0  0  0  0  0  0  0  0  0  0
  152.1689  141.7926  161.0113 H   0  0  0  0  0  0  0  0  0  0  0  0
  154.3101  143.6044  159.7963 H   0  0  0  0  0  0  0  0  0  0  0  0
  154.0020  141.9556  159.3279 H   0  0  0  0  0  0  0  0  0  0  0  0
  153.0621  143.7180  157.7884 H   0  0  0  0  0  0  0  0  0  0  0  0
  150.6676  143.2135  156.4783 H   0  0  0  0  0  0  0  0  0  0  0  0
  149.5457  140.7495  156.1732 H   0  0  0  0  0  0  0  0  0  0  0  0
  150.6971  139.2832  158.2245 H   0  0  0  0  0  0  0  0  0  0  0  0
  150.7481  146.0699  158.1508 H   0  0  0  0  0  0  0  0  0  0  0  0
  1  2  1  0  0  0  0
  1 13  1  0  0  0  0
  1 14  1  0  0  0  0
  1 28  1  0  0  0  0
  2  7  1  0  0  0  0
  2  3  1  0  0  0  0
  2 15  1  0  0  0  0
  3  4  1  0  0  0  0
  3 16  1  0  0  0  0
  3 17  1  0  0  0  0
  4  5  1  0  0  0  0
  4 18  1  0  0  0  0
  4 19  1  0  0  0  0
  5  6  1  0  0  0  0
  5 20  1  0  0  0  0
  5 21  1  0  0  0  0
  6  7  1  0  0  0  0
  6 22  1  0  0  0  0
  6 23  1  0  0  0  0
  7  8  1  0  0  0  0
  7 24  1  0  0  0  0
  8 12  1  0  0  0  0
  8  9  1  0  0  0  0
  9 10  2  0  0  0  0
  9 25  1  0  0  0  0
 10 11  1  0  0  0  0
 10 26  1  0  0  0  0
 11 12  2  0  0  0  0
 11 27  1  0  0  0  0
M  CHG  1   1   1
M  END
> <s_m_source_file>
AV-unprocessed.smi

> <i_m_source_file_index>
3083

> <i_lp_mmshare_version>
43012

> <i_f3d_flags>
0

> <s_epik_input>
W05IMl1bQ0BASF0xW0NIMl1bQ0gyXVtDSDJdW0NIMl1bQ0BIXTFuMltjSF1bY0hdW2NIXW4y

> <s_epik_cmdline>
J2VwaWtfcHl0aG9uJywgJy1waCcsICc3LjAnLCAnLXRuJywgJzgnLCAnLW1hJywgJzIwMCcsICctbWV0YWxfYmluZGluZycsICctaW1hZScsICc8aW5maWxlLm1hZT4nLCAnLW9tYWUnLCAnPG91dGZpbGUubWFlPic=

> <r_lp_tautomer_probability>
1

> <r_epik_Ionization_Penalty>
0.00385053

> <r_epik_Ionization_Penalty_Charging>
0.0038389

> <r_epik_Ionization_Penalty_Neutral>
1.16305e-05

> <r_epik_State_Penalty>
-0

> <r_epik_Charging_Adjusted_Penalty>
0.0038389

> <i_epik_Tot_Q>
1

> <i_epik_Tot_abs_Q>
1

> <r_epik_Metal_State_Penalty>
-0

> <b_epik_Metal_Only>
0

> <s_lp_Force_Field>
OPLS_2005

> <r_lp_Energy>
16.3847

> <b_lp_Chiralities_Consistent>
1

> <s_lp_Variant>
AV-unprocessed.smi:3083-2

> <Gold.Version>
5.8.1

> <Gold.Id.Protein>
6NUR|6NUR_protein|mol2

> <Gold.PLP.Fitness>
35.6259

> <Gold.PLP.PLP>
-32.7964

> <Gold.PLP.part.hbond>
-1.5494

> <Gold.PLP.part.metal>
0.0000

> <Gold.PLP.part.buried>
-4.3009

> <Gold.PLP.part.nonpolar>
-27.9323

> <Gold.PLP.part.repulsive>
0.1839

> <Gold.PLP.ligand.clash>
0.0000

> <Gold.PLP.ligand.torsion>
0.1176

> <Gold.PLP.Chemscore.Hbond>
0.0000

> <Gold.PLP.Chemscore.CHOScore>
1.0000

> <Gold.PLP.Chemscore.Metal>
0.0000

> <Gold.Chemscore.Hbonds>
donor molecule, donor type, donor heavy atom, donor atom, acceptor molecule, acceptor atom, score
      L1  C     9    25       P1  8028  1.00

> <Gold.PLP.Chemscore.Internal.Correction>
0.0647

> <Gold.Rescore>
     Score         DG    S(hbond)    S(metal)    S(lipo)     H(rot)  DE(clash)    DE(int)     intcor
     13.18     -14.40       0.31        0.00      89.29       1.00       0.05       1.17       ----

> <Gold.Chemscore.Fitness>
13.1818

> <Gold.Chemscore.DG>
-14.4024

> <Gold.Chemscore.ZeroCoef>
-5.4800

> <Gold.Chemscore.Hbond>
0.3099

> <Gold.Chemscore.Metal>
0.0000

> <Gold.Chemscore.Lipo>
89.2949

> <Gold.Chemscore.Internal_Hbond>
0.0000

> <Gold.Chemscore.DEClash>
0.0525

> <Gold.Chemscore.DEInternal>
1.1682

> <Gold.Chemscore.Rot>
1.0000

> <Gold.Chemscore.Internal.Correction>
   9.000000E+99

> <Gold.Chemscore.Hbond.Weighted>
-1.0349

> <Gold.Chemscore.Metal.Weighted>
-0.0000

> <Gold.Chemscore.Lipo.Weighted>
-10.4475

> <Gold.Chemscore.Internal_Hbond.Weighted>
0.0000

> <Gold.Chemscore.DEClash.Weighted>
0.0525

> <Gold.Chemscore.DEInternal.Weighted>
1.1682

> <Gold.Chemscore.Rot.Weighted>
2.5600

> <Gold.Chemscore.Internal.Correction.Weighted>
   9.000000E+99

> <Gold.Protein.RotatedTorsions>
[ 6907 6896 6895 6894 ] final -178.69 input  -60.11 | X-H torsion
[ 7974 7965 7964 7962 ] final  160.87 input  175.53 | X-H torsion
[ 8008 7997 7996 7995 ] final  113.59 input   59.86 | X-H torsion
[ 10167 10162 10161 10158 ] final  -59.65 input  -65.29 | X-H torsion
[ 10718 10713 10712 10709 ] final  173.67 input   66.30 | X-H torsion
[ 10763 10752 10751 10750 ] final  173.37 input  -60.55 | X-H torsion
[ 11005 11000 10999 10996 ] final    5.75 input  -57.11 | X-H torsion

> <Gold.Protein.ActiveResidues>
 VAL166  LYS551  ARG553  GLY616  TRP617  ASP618  TYR619  PRO620  LYS621  CYS622 
 ASP623  PHE694  ASN695  SER759  ASP760  ASP761  ALA762  ILE779  LEU786  VAL792 
 PHE793  MET794  SER795  GLU796  ALA797  LYS798  CYS799  TRP800  GLU811  SER814 

> <Gold.Protein.RotatedAtoms>
  151.6413  133.3326  159.3130 H   0  0  0  0  0  0  0  0  0  0  0  0  # atno 6907 bound_to 6896
  150.8006  134.7101  159.6608 H   0  0  0  0  0  0  0  0  0  0  0  0  # atno 6908 bound_to 6896
  152.4098  134.6148  160.0086 H   0  0  0  0  0  0  0  0  0  0  0  0  # atno 6909 bound_to 6896
  144.7714  139.7818  143.6295 H   0  0  0  0  0  0  0  0  0  0  0  0  # atno 7974 bound_to 7965
  156.2268  140.2976  156.0087 H   0  0  0  0  0  0  0  0  0  0  0  0  # atno 8008 bound_to 7997
  155.2335  140.0420  157.2982 H   0  0  0  0  0  0  0  0  0  0  0  0  # atno 8009 bound_to 7997
  154.5929  140.2406  155.7904 H   0  0  0  0  0  0  0  0  0  0  0  0  # atno 8010 bound_to 7997
  140.6121  143.2390  151.5684 H   0  0  0  0  0  0  0  0  0  0  0  0  # atno 10167 bound_to 10162
  156.9609  131.0060  151.2927 H   0  0  0  0  0  0  0  0  0  0  0  0  # atno 10718 bound_to 10713
  154.4391  135.2761  155.1860 H   0  0  0  0  0  0  0  0  0  0  0  0  # atno 10763 bound_to 10752
  154.3734  135.6103  153.5755 H   0  0  0  0  0  0  0  0  0  0  0  0  # atno 10764 bound_to 10752
  152.9840  135.5863  154.4715 H   0  0  0  0  0  0  0  0  0  0  0  0  # atno 10765 bound_to 10752
  140.5672  134.0137  155.7994 H   0  0  0  0  0  0  0  0  0  0  0  0  # atno 11005 bound_to 11000
  146.1864  139.5081  142.9833 LP  0  0  0  0  0  0  0  0  0  0  0  0  # atno 17320 bound_to 7965
  145.6312  141.0304  143.1862 LP  0  0  0  0  0  0  0  0  0  0  0  0  # atno 17321 bound_to 7965
  139.5369  144.2754  152.1271 LP  0  0  0  0  0  0  0  0  0  0  0  0  # atno 17342 bound_to 10162
  140.1956  144.4709  150.6457 LP  0  0  0  0  0  0  0  0  0  0  0  0  # atno 17343 bound_to 10162
  157.5658  130.8277  149.8326 LP  0  0  0  0  0  0  0  0  0  0  0  0  # atno 17370 bound_to 10713
  156.0322  130.3761  150.1655 LP  0  0  0  0  0  0  0  0  0  0  0  0  # atno 17371 bound_to 10713
  141.1078  133.9665  157.2964 LP  0  0  0  0  0  0  0  0  0  0  0  0  # atno 17394 bound_to 11000
  139.9379  135.0194  156.8615 LP  0  0  0  0  0  0  0  0  0  0  0  0  # atno 17395 bound_to 11000

$$$$
