AV-unprocessed.smi:1414|AV-procd|sdf|5760|dock6
  -GOLD-   22720 5393D 1   1.00000     0.00000
 Structure written by MMmdl.
 45 46  0  0  0  0  0  0  0  0  1 V2000
  149.3754  139.0998  154.2885 C   0  0  0  0  0  0  0  0  0  0  0  0
  150.8766  139.2737  154.5759 C   0  0  2  0  0  0  0  0  0  0  0  0
  151.5997  137.9824  155.0279 C   0  0  0  0  0  0  0  0  0  0  0  0
  151.5560  137.7650  156.4857 N   0  0  0  0  0  0  0  0  0  0  0  0
  150.9998  136.2628  157.1603 S   0  0  0  0  0  0  0  0  0  0  0  0
  152.0424  135.2564  156.9078 O   0  0  0  0  0  0  0  0  0  0  0  0
  150.5549  136.5290  158.5371 O   0  0  0  0  0  0  0  0  0  0  0  0
  149.5297  135.8367  156.1290 C   0  0  0  0  0  0  0  0  0  0  0  0
  149.7303  134.5251  155.3525 C   0  0  0  0  0  0  0  0  0  0  0  0
  148.9486  134.5068  154.1222 N   0  0  0  0  0  0  0  0  0  0  0  0
  148.1474  133.5045  153.7355 C   0  0  0  0  0  0  0  0  0  0  0  0
  147.9891  132.4720  154.3858 O   0  0  0  0  0  0  0  0  0  0  0  0
  147.5710  133.7713  152.5513 N   0  0  0  0  0  0  0  0  0  0  0  0
  146.6257  132.9873  151.8376 C   0  0  0  0  0  0  0  0  0  0  0  0
  146.2033  131.7706  152.4114 C   0  0  0  0  0  0  0  0  0  0  0  0
  145.2849  130.9650  151.7123 C   0  0  0  0  0  0  0  0  0  0  0  0
  144.8291  131.4060  150.4551 C   0  0  0  0  0  0  0  0  0  0  0  0
  145.2342  132.5600  149.8843 N   0  0  0  0  0  0  0  0  0  0  0  0
  146.1141  133.3291  150.5612 C   0  0  0  0  0  0  0  0  0  0  0  0
  151.7108  138.9623  157.3228 C   0  0  0  0  0  0  0  0  0  0  0  0
  150.8072  140.0973  156.8216 C   0  0  1  0  0  0  0  0  0  0  0  0
  151.0115  141.3893  157.6195 C   0  0  0  0  0  0  0  0  0  0  0  0
  151.1190  140.3647  155.4605 O   0  0  0  0  0  0  0  0  0  0  0  0
  149.2078  138.3115  153.5545 H   0  0  0  0  0  0  0  0  0  0  0  0
  148.9536  140.0198  153.8834 H   0  0  0  0  0  0  0  0  0  0  0  0
  148.8032  138.8465  155.1765 H   0  0  0  0  0  0  0  0  0  0  0  0
  151.3240  139.5655  153.6252 H   0  0  0  0  0  0  0  0  0  0  0  0
  151.2013  137.1178  154.4975 H   0  0  0  0  0  0  0  0  0  0  0  0
  152.6505  138.0528  154.7454 H   0  0  0  0  0  0  0  0  0  0  0  0
  148.6507  135.8134  156.7683 H   0  0  0  0  0  0  0  0  0  0  0  0
  149.3860  136.6544  155.4227 H   0  0  0  0  0  0  0  0  0  0  0  0
  150.7801  134.4079  155.0833 H   0  0  0  0  0  0  0  0  0  0  0  0
  149.4723  133.6645  155.9692 H   0  0  0  0  0  0  0  0  0  0  0  0
  149.0269  135.3138  153.5205 H   0  0  0  0  0  0  0  0  0  0  0  0
  147.8745  134.6147  152.0874 H   0  0  0  0  0  0  0  0  0  0  0  0
  146.5736  131.4576  153.3769 H   0  0  0  0  0  0  0  0  0  0  0  0
  144.9392  130.0306  152.1289 H   0  0  0  0  0  0  0  0  0  0  0  0
  144.1248  130.8131  149.8905 H   0  0  0  0  0  0  0  0  0  0  0  0
  146.4225  134.2239  150.0432 H   0  0  0  0  0  0  0  0  0  0  0  0
  151.4877  138.7301  158.3636 H   0  0  0  0  0  0  0  0  0  0  0  0
  152.7555  139.2728  157.2889 H   0  0  0  0  0  0  0  0  0  0  0  0
  149.7624  139.8078  156.9193 H   0  0  0  0  0  0  0  0  0  0  0  0
  150.7778  141.2394  158.6739 H   0  0  0  0  0  0  0  0  0  0  0  0
  150.3643  142.1834  157.2462 H   0  0  0  0  0  0  0  0  0  0  0  0
  152.0420  141.7386  157.5505 H   0  0  0  0  0  0  0  0  0  0  0  0
  1  2  1  0  0  0  0
  1 24  1  0  0  0  0
  1 25  1  0  0  0  0
  1 26  1  0  0  0  0
  2 23  1  0  0  0  0
  2  3  1  0  0  0  0
  2 27  1  0  0  0  0
  3  4  1  0  0  0  0
  3 28  1  0  0  0  0
  3 29  1  0  0  0  0
  4  5  1  0  0  0  0
  4 20  1  0  0  0  0
  5  6  2  0  0  0  0
  5  7  2  0  0  0  0
  5  8  1  0  0  0  0
  8  9  1  0  0  0  0
  8 30  1  0  0  0  0
  8 31  1  0  0  0  0
  9 10  1  0  0  0  0
  9 32  1  0  0  0  0
  9 33  1  0  0  0  0
 10 11  1  0  0  0  0
 10 34  1  0  0  0  0
 11 12  2  0  0  0  0
 11 13  1  0  0  0  0
 13 14  1  0  0  0  0
 13 35  1  0  0  0  0
 14 19  1  0  0  0  0
 14 15  2  0  0  0  0
 15 16  1  0  0  0  0
 15 36  1  0  0  0  0
 16 17  2  0  0  0  0
 16 37  1  0  0  0  0
 17 18  1  0  0  0  0
 17 38  1  0  0  0  0
 18 19  2  0  0  0  0
 19 39  1  0  0  0  0
 20 21  1  0  0  0  0
 20 40  1  0  0  0  0
 20 41  1  0  0  0  0
 21 22  1  0  0  0  0
 21 23  1  0  0  0  0
 21 42  1  0  0  0  0
 22 43  1  0  0  0  0
 22 44  1  0  0  0  0
 22 45  1  0  0  0  0
M  END
> <s_m_source_file>
AV-unprocessed.smi

> <i_m_source_file_index>
1414

> <i_lp_mmshare_version>
43012

> <i_f3d_flags>
0

> <s_epik_input>
W0NIM11bQ0BASF0xW0NIMl1OKFtDSDJdW0NASF0oTzEpW0NIM10pUyg9TykoPU8pW0NIMl1bQ0gyXVtOSF1DKD1PKVtOSF1jMltjSF1bY0hdW2NIXW5bY0hdMg==

> <s_epik_cmdline>
J2VwaWtfcHl0aG9uJywgJy1waCcsICc3LjAnLCAnLXRuJywgJzgnLCAnLW1hJywgJzIwMCcsICctbWV0YWxfYmluZGluZycsICctaW1hZScsICc8aW5maWxlLm1hZT4nLCAnLW9tYWUnLCAnPG91dGZpbGUubWFlPic=

> <r_epik_Ionization_Penalty>
0.00437531

> <r_epik_Ionization_Penalty_Charging>
0

> <r_epik_Ionization_Penalty_Neutral>
0.00437531

> <r_epik_State_Penalty>
0.00312896

> <r_epik_Charging_Adjusted_Penalty>
0.00312896

> <i_epik_Tot_Q>
0

> <i_epik_Tot_abs_Q>
0

> <r_epik_Metal_State_Penalty>
-0

> <b_epik_Metal_Only>
0

> <s_lp_Force_Field>
OPLS_2005

> <r_lp_Energy>
6.94025

> <b_lp_Chiralities_Consistent>
1

> <s_lp_Variant>
AV-unprocessed.smi:1414-1

> <Gold.Version>
5.8.1

> <Gold.Id.Protein>
6NUR|6NUR_protein|mol2

> <Gold.PLP.Fitness>
49.9362

> <Gold.PLP.PLP>
-36.9874

> <Gold.PLP.part.hbond>
-5.0000

> <Gold.PLP.part.metal>
0.0000

> <Gold.PLP.part.buried>
-4.0759

> <Gold.PLP.part.nonpolar>
-27.8684

> <Gold.PLP.part.repulsive>
0.2464

> <Gold.PLP.ligand.clash>
0.0000

> <Gold.PLP.ligand.torsion>
1.3645

> <Gold.PLP.Chemscore.Hbond>
3.7360

> <Gold.PLP.Chemscore.CHOScore>
0.7857

> <Gold.PLP.Chemscore.Metal>
0.0000

> <Gold.Chemscore.Hbonds>
donor molecule, donor type, donor heavy atom, donor atom, acceptor molecule, acceptor atom, score
      L1  H    10    34       P1  7948  1.00
      L1  H    13    35       P1  7948  1.00
      P1  H  6896  6907       L1     7  0.74
      P1  H 10752 10763       L1     6  0.76
      L1  C    19    39       P1  7921  0.68

> <Gold.PLP.Chemscore.Internal.Correction>
2.1129

> <Gold.Rescore>
     Score         DG    S(hbond)    S(metal)    S(lipo)     H(rot)  DE(clash)    DE(int)     intcor
     18.97     -21.83       3.28        0.00      80.42       1.57       0.06       2.81       ----

> <Gold.Chemscore.Fitness>
18.9678

> <Gold.Chemscore.DG>
-21.8330

> <Gold.Chemscore.ZeroCoef>
-5.4800

> <Gold.Chemscore.Hbond>
3.2815

> <Gold.Chemscore.Metal>
0.0000

> <Gold.Chemscore.Lipo>
80.4160

> <Gold.Chemscore.Internal_Hbond>
0.0000

> <Gold.Chemscore.DEClash>
0.0580

> <Gold.Chemscore.DEInternal>
2.8072

> <Gold.Chemscore.Rot>
1.5687

> <Gold.Chemscore.Internal.Correction>
   9.000000E+99

> <Gold.Chemscore.Hbonds>
donor molecule, donor type, donor heavy atom, donor atom, acceptor molecule, acceptor atom, score
      L1  H    10    34       P1  7948  0.54
      L1  H    13    35       P1  7948  0.39
      P1  H  6896  6907       L1     7  0.58
      P1  H 10752 10763       L1     6  0.74

> <Gold.Chemscore.Hbond.Weighted>
-10.9603

> <Gold.Chemscore.Metal.Weighted>
-0.0000

> <Gold.Chemscore.Lipo.Weighted>
-9.4087

> <Gold.Chemscore.Internal_Hbond.Weighted>
0.0000

> <Gold.Chemscore.DEClash.Weighted>
0.0580

> <Gold.Chemscore.DEInternal.Weighted>
2.8072

> <Gold.Chemscore.Rot.Weighted>
4.0160

> <Gold.Chemscore.Internal.Correction.Weighted>
   9.000000E+99

> <Gold.Protein.RotatedTorsions>
[ 6907 6896 6895 6894 ] final  -18.18 input  -60.11 | X-H torsion
[ 7974 7965 7964 7962 ] final -127.83 input  175.53 | X-H torsion
[ 8008 7997 7996 7995 ] final  -93.63 input   59.86 | X-H torsion
[ 10167 10162 10161 10158 ] final  -10.94 input  -65.29 | X-H torsion
[ 10718 10713 10712 10709 ] final   58.64 input   66.30 | X-H torsion
[ 10763 10752 10751 10750 ] final  110.70 input  -60.55 | X-H torsion
[ 11005 11000 10999 10996 ] final   53.08 input  -57.11 | X-H torsion

> <Gold.Protein.ActiveResidues>
 VAL166  LYS551  ARG553  GLY616  TRP617  ASP618  TYR619  PRO620  LYS621  CYS622 
 ASP623  PHE694  ASN695  SER759  ASP760  ASP761  ALA762  ILE779  LEU786  VAL792 
 PHE793  MET794  SER795  GLU796  ALA797  LYS798  CYS799  TRP800  GLU811  SER814 

> <Gold.Protein.RotatedAtoms>
  151.2821  135.0717  159.9172 H   0  0  0  0  0  0  0  0  0  0  0  0  # atno 6907 bound_to 6896
  152.5332  134.0020  159.7909 H   0  0  0  0  0  0  0  0  0  0  0  0  # atno 6908 bound_to 6896
  151.0276  133.5769  159.2695 H   0  0  0  0  0  0  0  0  0  0  0  0  # atno 6909 bound_to 6896
  144.9731  140.7565  143.4658 H   0  0  0  0  0  0  0  0  0  0  0  0  # atno 7974 bound_to 7965
  154.7381  140.0497  157.0786 H   0  0  0  0  0  0  0  0  0  0  0  0  # atno 8008 bound_to 7997
  155.0215  140.3147  155.4772 H   0  0  0  0  0  0  0  0  0  0  0  0  # atno 8009 bound_to 7997
  156.2858  140.2166  156.5333 H   0  0  0  0  0  0  0  0  0  0  0  0  # atno 8010 bound_to 7997
  140.7126  143.5693  150.9109 H   0  0  0  0  0  0  0  0  0  0  0  0  # atno 10167 bound_to 10162
  157.5613  130.8837  149.9115 H   0  0  0  0  0  0  0  0  0  0  0  0  # atno 10718 bound_to 10713
  153.4527  135.3740  155.2293 H   0  0  0  0  0  0  0  0  0  0  0  0  # atno 10763 bound_to 10752
  154.8756  135.3889  154.4019 H   0  0  0  0  0  0  0  0  0  0  0  0  # atno 10764 bound_to 10752
  153.4581  135.7086  153.6131 H   0  0  0  0  0  0  0  0  0  0  0  0  # atno 10765 bound_to 10752
  140.0797  134.5356  155.8960 H   0  0  0  0  0  0  0  0  0  0  0  0  # atno 11005 bound_to 11000
  145.2530  139.2024  143.4932 LP  0  0  0  0  0  0  0  0  0  0  0  0  # atno 17320 bound_to 7965
  146.3388  140.2446  142.8596 LP  0  0  0  0  0  0  0  0  0  0  0  0  # atno 17321 bound_to 7965
  139.9419  143.6372  152.3051 LP  0  0  0  0  0  0  0  0  0  0  0  0  # atno 17342 bound_to 10162
  139.6859  144.7651  151.1524 LP  0  0  0  0  0  0  0  0  0  0  0  0  # atno 17343 bound_to 10162
  156.0665  130.3691  150.0867 LP  0  0  0  0  0  0  0  0  0  0  0  0  # atno 17370 bound_to 10713
  156.9031  130.9627  151.3573 LP  0  0  0  0  0  0  0  0  0  0  0  0  # atno 17371 bound_to 10713
  141.2042  133.6637  156.6108 LP  0  0  0  0  0  0  0  0  0  0  0  0  # atno 17394 bound_to 11000
  140.3506  134.7772  157.4464 LP  0  0  0  0  0  0  0  0  0  0  0  0  # atno 17395 bound_to 11000

$$$$
