AV-unprocessed.smi:1887|AV-procd|sdf|7656|dock2
  -GOLD-   22720 9393D 1   1.00000     0.00000
 Structure written by MMmdl.
 43 45  0  0  0  0  0  0  0  0  2 V2000
  150.6549  138.7814  154.0917 C   0  0  0  0  0  0  0  0  0  0  0  0
  150.2124  139.3665  155.3026 O   0  0  0  0  0  0  0  0  0  0  0  0
  151.2128  140.1525  155.9283 C   0  0  0  0  0  0  0  0  0  0  0  0
  151.1080  140.0001  157.4519 C   0  0  0  0  0  0  0  0  0  0  0  0
  152.3689  139.5655  158.0488 N   0  0  0  0  0  0  0  0  0  0  0  0
  153.1278  140.2184  158.9666 C   0  0  0  0  0  0  0  0  0  0  0  0
  152.7458  141.4736  159.4844 N   0  0  0  0  0  0  0  0  0  0  0  0
  152.1445  142.3799  158.6860 N   0  0  0  0  0  0  0  0  0  0  0  0
  151.9340  143.4295  159.4620 C   0  0  0  0  0  0  0  0  0  0  0  0
  151.2518  144.6355  158.8835 C   0  0  0  0  0  0  0  0  0  0  0  0
  152.4141  143.2295  160.7896 C   0  0  0  0  0  0  0  0  0  0  0  0
  152.3538  144.1963  161.9403 C   0  0  0  0  0  0  0  0  0  0  0  0
  152.9350  141.9637  160.7638 C   0  0  0  0  0  0  0  0  0  0  0  0
  153.5999  141.1681  161.8428 C   0  0  0  0  0  0  0  0  0  0  0  0
  154.2273  139.5697  159.3549 N   0  0  0  0  0  0  0  0  0  0  0  0
  154.1655  138.3983  158.6136 C   0  0  0  0  0  0  0  0  0  0  0  0
  153.0554  138.3687  157.8272 C   0  0  0  0  0  0  0  0  0  0  0  0
  152.7021  137.2382  156.9416 C   0  0  0  0  0  0  0  0  0  0  0  0
  151.6794  137.2620  156.2597 O   0  0  0  0  0  0  0  0  0  0  0  0
  153.6260  136.2273  157.0015 N   0  5  0  0  0  0  0  0  0  0  0  0
  154.7629  136.2141  157.7810 C   0  0  0  0  0  0  0  0  0  0  0  0
  155.5401  135.2586  157.7804 O   0  0  0  0  0  0  0  0  0  0  0  0
  155.0498  137.2854  158.5863 N   0  0  0  0  0  0  0  0  0  0  0  0
  156.2502  137.2978  159.4271 C   0  0  0  0  0  0  0  0  0  0  0  0
  149.8473  138.1949  153.6541 H   0  0  0  0  0  0  0  0  0  0  0  0
  151.5007  138.1146  154.2633 H   0  0  0  0  0  0  0  0  0  0  0  0
  150.9487  139.5437  153.3691 H   0  0  0  0  0  0  0  0  0  0  0  0
  152.2014  139.8426  155.5867 H   0  0  0  0  0  0  0  0  0  0  0  0
  151.0868  141.2003  155.6523 H   0  0  0  0  0  0  0  0  0  0  0  0
  150.8015  140.9390  157.9111 H   0  0  0  0  0  0  0  0  0  0  0  0
  150.3190  139.2907  157.6957 H   0  0  0  0  0  0  0  0  0  0  0  0
  151.3642  145.5065  159.5289 H   0  0  0  0  0  0  0  0  0  0  0  0
  150.1847  144.4549  158.7544 H   0  0  0  0  0  0  0  0  0  0  0  0
  151.6667  144.8938  157.9088 H   0  0  0  0  0  0  0  0  0  0  0  0
  153.0267  143.9144  162.7501 H   0  0  0  0  0  0  0  0  0  0  0  0
  151.3502  144.2535  162.3616 H   0  0  0  0  0  0  0  0  0  0  0  0
  152.6335  145.2046  161.6355 H   0  0  0  0  0  0  0  0  0  0  0  0
  153.2295  141.4572  162.8260 H   0  0  0  0  0  0  0  0  0  0  0  0
  154.6780  141.3267  161.8269 H   0  0  0  0  0  0  0  0  0  0  0  0
  153.4162  140.1001  161.7257 H   0  0  0  0  0  0  0  0  0  0  0  0
  157.1450  137.1420  158.8229 H   0  0  0  0  0  0  0  0  0  0  0  0
  156.1988  136.5033  160.1727 H   0  0  0  0  0  0  0  0  0  0  0  0
  156.3812  138.2397  159.9596 H   0  0  0  0  0  0  0  0  0  0  0  0
  1  2  1  0  0  0  0
  1 25  1  0  0  0  0
  1 26  1  0  0  0  0
  1 27  1  0  0  0  0
  2  3  1  0  0  0  0
  3  4  1  0  0  0  0
  3 28  1  0  0  0  0
  3 29  1  0  0  0  0
  4  5  1  0  0  0  0
  4 30  1  0  0  0  0
  4 31  1  0  0  0  0
  5 17  1  0  0  0  0
  5  6  1  0  0  0  0
  6  7  1  0  0  0  0
  6 15  2  0  0  0  0
  7 13  1  0  0  0  0
  7  8  1  0  0  0  0
  8  9  2  0  0  0  0
  9 10  1  0  0  0  0
  9 11  1  0  0  0  0
 10 32  1  0  0  0  0
 10 33  1  0  0  0  0
 10 34  1  0  0  0  0
 11 12  1  0  0  0  0
 11 13  2  0  0  0  0
 12 35  1  0  0  0  0
 12 36  1  0  0  0  0
 12 37  1  0  0  0  0
 13 14  1  0  0  0  0
 14 38  1  0  0  0  0
 14 39  1  0  0  0  0
 14 40  1  0  0  0  0
 15 16  1  0  0  0  0
 16 23  1  0  0  0  0
 16 17  2  0  0  0  0
 17 18  1  0  0  0  0
 18 19  2  0  0  0  0
 18 20  1  0  0  0  0
 20 21  1  0  0  0  0
 21 22  2  0  0  0  0
 21 23  1  0  0  0  0
 23 24  1  0  0  0  0
 24 41  1  0  0  0  0
 24 42  1  0  0  0  0
 24 43  1  0  0  0  0
M  CHG  1  20  -1
M  END
> <s_m_source_file>
AV-unprocessed.smi

> <i_m_source_file_index>
1887

> <i_lp_mmshare_version>
43012

> <i_f3d_flags>
0

> <s_epik_input>
W0NIM11uMWMoPU8pW25IXWMoPU8pYyhjMTIpbihbQ0gyXVtDSDJdT1tDSDNdKWMobjIpLW4zbmMoW0NIM10pYyhbQ0gzXSljM1tDSDNd

> <s_epik_cmdline>
J2VwaWtfcHl0aG9uJywgJy1waCcsICc3LjAnLCAnLXRuJywgJzgnLCAnLW1hJywgJzIwMCcsICctbWV0YWxfYmluZGluZycsICctaW1hZScsICc8aW5maWxlLm1hZT4nLCAnLW9tYWUnLCAnPG91dGZpbGUubWFlPic=

> <r_lp_tautomer_probability>
1

> <r_epik_Ionization_Penalty>
3.98818

> <r_epik_Ionization_Penalty_Charging>
0.0180637

> <r_epik_Ionization_Penalty_Neutral>
3.97012

> <r_epik_State_Penalty>
3.96767

> <r_epik_Charging_Adjusted_Penalty>
3.98573

> <i_epik_Tot_Q>
-1

> <i_epik_Tot_abs_Q>
1

> <r_epik_Metal_State_Penalty>
0.612715

> <b_epik_Metal_Only>
1

> <s_lp_Force_Field>
OPLS_2005

> <r_lp_Energy>
28.3599

> <b_lp_Chiralities_Consistent>
1

> <s_lp_Variant>
AV-unprocessed.smi:1887-2

> <Gold.Version>
5.8.1

> <Gold.Id.Protein>
6NUR|6NUR_protein|mol2

> <Gold.PLP.Fitness>
43.1678

> <Gold.PLP.PLP>
-38.9211

> <Gold.PLP.part.hbond>
-1.5889

> <Gold.PLP.part.metal>
0.0000

> <Gold.PLP.part.buried>
-4.5791

> <Gold.PLP.part.nonpolar>
-31.8842

> <Gold.PLP.part.repulsive>
0.0436

> <Gold.PLP.ligand.clash>
0.0000

> <Gold.PLP.ligand.torsion>
1.1204

> <Gold.PLP.Chemscore.Hbond>
2.0000

> <Gold.PLP.Chemscore.CHOScore>
0.0000

> <Gold.PLP.Chemscore.Metal>
0.0000

> <Gold.Chemscore.Hbonds>
donor molecule, donor type, donor heavy atom, donor atom, acceptor molecule, acceptor atom, score
      P1  H 10752 10763       L1    20  2.00

> <Gold.PLP.Chemscore.Internal.Correction>
0.4876

> <Gold.Rescore>
     Score         DG    S(hbond)    S(metal)    S(lipo)     H(rot)  DE(clash)    DE(int)     intcor
     10.41     -14.97       0.70        0.00      93.46       1.48       0.15       4.41       ----

> <Gold.Chemscore.Fitness>
10.4097

> <Gold.Chemscore.DG>
-14.9693

> <Gold.Chemscore.ZeroCoef>
-5.4800

> <Gold.Chemscore.Hbond>
0.7040

> <Gold.Chemscore.Metal>
0.0000

> <Gold.Chemscore.Lipo>
93.4595

> <Gold.Chemscore.Internal_Hbond>
0.0000

> <Gold.Chemscore.DEClash>
0.1500

> <Gold.Chemscore.DEInternal>
4.4095

> <Gold.Chemscore.Rot>
1.4832

> <Gold.Chemscore.Internal.Correction>
   9.000000E+99

> <Gold.Chemscore.Hbonds>
donor molecule, donor type, donor heavy atom, donor atom, acceptor molecule, acceptor atom, score
      P1  H 10752 10763       L1    20  0.59

> <Gold.Chemscore.Hbond.Weighted>
-2.3515

> <Gold.Chemscore.Metal.Weighted>
-0.0000

> <Gold.Chemscore.Lipo.Weighted>
-10.9348

> <Gold.Chemscore.Internal_Hbond.Weighted>
0.0000

> <Gold.Chemscore.DEClash.Weighted>
0.1500

> <Gold.Chemscore.DEInternal.Weighted>
4.4095

> <Gold.Chemscore.Rot.Weighted>
3.7970

> <Gold.Chemscore.Internal.Correction.Weighted>
   9.000000E+99

> <Gold.Protein.RotatedTorsions>
[ 6907 6896 6895 6894 ] final -171.94 input  -60.11 | X-H torsion
[ 7974 7965 7964 7962 ] final  -82.30 input  175.53 | X-H torsion
[ 8008 7997 7996 7995 ] final  -12.97 input   59.86 | X-H torsion
[ 10167 10162 10161 10158 ] final -130.26 input  -65.29 | X-H torsion
[ 10718 10713 10712 10709 ] final -107.56 input   66.30 | X-H torsion
[ 10763 10752 10751 10750 ] final  146.33 input  -60.55 | X-H torsion
[ 11005 11000 10999 10996 ] final  -52.80 input  -57.11 | X-H torsion

> <Gold.Protein.ActiveResidues>
 VAL166  LYS551  ARG553  GLY616  TRP617  ASP618  TYR619  PRO620  LYS621  CYS622 
 ASP623  PHE694  ASN695  SER759  ASP760  ASP761  ALA762  ILE779  LEU786  VAL792 
 PHE793  MET794  SER795  GLU796  ALA797  LYS798  CYS799  TRP800  GLU811  SER814 

> <Gold.Protein.RotatedAtoms>
  151.5320  133.3447  159.2919 H   0  0  0  0  0  0  0  0  0  0  0  0  # atno 6907 bound_to 6896
  150.8587  134.7936  159.7077 H   0  0  0  0  0  0  0  0  0  0  0  0  # atno 6908 bound_to 6896
  152.4613  134.5185  159.9827 H   0  0  0  0  0  0  0  0  0  0  0  0  # atno 6909 bound_to 6896
  145.5351  140.9516  143.1581 H   0  0  0  0  0  0  0  0  0  0  0  0  # atno 7974 bound_to 7965
  154.5332  140.2262  155.8769 H   0  0  0  0  0  0  0  0  0  0  0  0  # atno 8008 bound_to 7997
  156.1784  140.3106  155.9066 H   0  0  0  0  0  0  0  0  0  0  0  0  # atno 8009 bound_to 7997
  155.3409  140.0450  157.3035 H   0  0  0  0  0  0  0  0  0  0  0  0  # atno 8010 bound_to 7997
  139.9312  143.6270  152.2529 H   0  0  0  0  0  0  0  0  0  0  0  0  # atno 10167 bound_to 10162
  156.0442  130.5669  150.7839 H   0  0  0  0  0  0  0  0  0  0  0  0  # atno 10718 bound_to 10713
  154.0201  135.2907  155.3382 H   0  0  0  0  0  0  0  0  0  0  0  0  # atno 10763 bound_to 10752
  154.7051  135.5172  153.8587 H   0  0  0  0  0  0  0  0  0  0  0  0  # atno 10764 bound_to 10752
  153.0685  135.6639  154.0424 H   0  0  0  0  0  0  0  0  0  0  0  0  # atno 10765 bound_to 10752
  141.0943  133.6627  156.4078 H   0  0  0  0  0  0  0  0  0  0  0  0  # atno 11005 bound_to 11000
  144.7605  139.6967  143.7236 LP  0  0  0  0  0  0  0  0  0  0  0  0  # atno 17320 bound_to 7965
  146.2018  139.5317  142.9738 LP  0  0  0  0  0  0  0  0  0  0  0  0  # atno 17321 bound_to 7965
  139.6781  144.7657  151.1659 LP  0  0  0  0  0  0  0  0  0  0  0  0  # atno 17342 bound_to 10162
  140.7637  143.5765  150.8940 LP  0  0  0  0  0  0  0  0  0  0  0  0  # atno 17343 bound_to 10162
  157.5298  131.0936  150.9969 LP  0  0  0  0  0  0  0  0  0  0  0  0  # atno 17370 bound_to 10713
  157.0278  130.5699  149.5339 LP  0  0  0  0  0  0  0  0  0  0  0  0  # atno 17371 bound_to 10713
  140.5177  134.6334  157.5307 LP  0  0  0  0  0  0  0  0  0  0  0  0  # atno 17394 bound_to 11000
  139.9776  134.7190  155.9920 LP  0  0  0  0  0  0  0  0  0  0  0  0  # atno 17395 bound_to 11000

$$$$
