AV-unprocessed.smi:2788|AV-procd|sdf|10760|dock10
  -GOLD-   2272015193D 1   1.00000     0.00000
 Structure written by MMmdl.
 47 48  0  0  0  0  0  0  0  0  1 V2000
  149.2799  136.4012  155.6053 C   0  0  0  0  0  0  0  0  0  0  0  0
  149.8523  135.0773  156.0249 C   0  0  0  0  0  0  0  0  0  0  0  0
  150.2770  134.9211  157.2671 N   0  0  0  0  0  0  0  0  0  0  0  0
  150.7312  133.6017  157.3543 O   0  0  0  0  0  0  0  0  0  0  0  0
  150.5576  133.0071  156.1469 C   0  0  0  0  0  0  0  0  0  0  0  0
  150.9740  131.5793  156.0386 C   0  0  0  0  0  0  0  0  0  0  0  0
  150.0042  133.8860  155.2569 C   0  0  0  0  0  0  0  0  0  0  0  0
  149.6336  133.6493  153.8145 C   0  0  0  0  0  0  0  0  0  0  0  0
  148.1183  133.4943  153.6858 C   0  0  0  0  0  0  0  0  0  0  0  0
  147.5643  132.5183  154.1883 O   0  0  0  0  0  0  0  0  0  0  0  0
  147.4881  134.4678  153.0024 N   0  0  0  0  0  0  0  0  0  0  0  0
  146.0636  134.6685  152.6883 C   0  0  1  0  0  0  0  0  0  0  0  0
  145.1371  134.0891  153.7921 C   0  0  0  0  0  0  0  0  0  0  0  0
  145.8756  136.2114  152.7235 C   0  0  0  0  0  0  0  0  0  0  0  0
  146.4397  136.8627  151.6026 O   0  0  0  0  0  0  0  0  0  0  0  0
  145.7257  134.0804  151.2690 C   0  0  0  0  0  0  0  0  0  0  0  0
  144.2395  134.2210  150.8455 C   0  0  0  0  0  0  0  0  0  0  0  0
  143.9944  133.7161  149.4149 C   0  0  0  0  0  0  0  0  0  0  0  0
  144.4316  132.2543  149.2619 C   0  0  0  0  0  0  0  0  0  0  0  0
  145.9011  132.0838  149.6663 C   0  0  0  0  0  0  0  0  0  0  0  0
  146.1547  132.5984  151.0928 C   0  0  0  0  0  0  0  0  0  0  0  0
  149.4117  136.5707  154.5370 H   0  0  0  0  0  0  0  0  0  0  0  0
  149.7606  137.2277  156.1298 H   0  0  0  0  0  0  0  0  0  0  0  0
  148.2119  136.4468  155.8196 H   0  0  0  0  0  0  0  0  0  0  0  0
  150.1209  130.9182  156.1902 H   0  0  0  0  0  0  0  0  0  0  0  0
  151.7303  131.3345  156.7846 H   0  0  0  0  0  0  0  0  0  0  0  0
  151.3933  131.3698  155.0546 H   0  0  0  0  0  0  0  0  0  0  0  0
  149.9603  134.4689  153.1742 H   0  0  0  0  0  0  0  0  0  0  0  0
  150.1184  132.7542  153.4236 H   0  0  0  0  0  0  0  0  0  0  0  0
  148.0920  135.1954  152.6490 H   0  0  0  0  0  0  0  0  0  0  0  0
  144.0906  134.3148  153.5857 H   0  0  0  0  0  0  0  0  0  0  0  0
  145.3721  134.5148  154.7683 H   0  0  0  0  0  0  0  0  0  0  0  0
  145.2006  133.0084  153.8965 H   0  0  0  0  0  0  0  0  0  0  0  0
  144.8146  136.4629  152.7610 H   0  0  0  0  0  0  0  0  0  0  0  0
  146.3091  136.6473  153.6236 H   0  0  0  0  0  0  0  0  0  0  0  0
  147.3799  136.8673  151.6988 H   0  0  0  0  0  0  0  0  0  0  0  0
  146.2956  134.6617  150.5431 H   0  0  0  0  0  0  0  0  0  0  0  0
  143.5971  133.6590  151.5221 H   0  0  0  0  0  0  0  0  0  0  0  0
  143.9145  135.2587  150.8965 H   0  0  0  0  0  0  0  0  0  0  0  0
  142.9381  133.8148  149.1628 H   0  0  0  0  0  0  0  0  0  0  0  0
  144.5409  134.3397  148.7063 H   0  0  0  0  0  0  0  0  0  0  0  0
  143.8025  131.6155  149.8833 H   0  0  0  0  0  0  0  0  0  0  0  0
  144.2870  131.9266  148.2320 H   0  0  0  0  0  0  0  0  0  0  0  0
  146.1856  131.0337  149.5947 H   0  0  0  0  0  0  0  0  0  0  0  0
  146.5382  132.6242  148.9652 H   0  0  0  0  0  0  0  0  0  0  0  0
  147.2150  132.4714  151.3050 H   0  0  0  0  0  0  0  0  0  0  0  0
  145.6200  131.9660  151.8024 H   0  0  0  0  0  0  0  0  0  0  0  0
  1  2  1  0  0  0  0
  1 22  1  0  0  0  0
  1 23  1  0  0  0  0
  1 24  1  0  0  0  0
  2  7  1  0  0  0  0
  2  3  2  0  0  0  0
  3  4  1  0  0  0  0
  4  5  1  0  0  0  0
  5  6  1  0  0  0  0
  5  7  2  0  0  0  0
  6 25  1  0  0  0  0
  6 26  1  0  0  0  0
  6 27  1  0  0  0  0
  7  8  1  0  0  0  0
  8  9  1  0  0  0  0
  8 28  1  0  0  0  0
  8 29  1  0  0  0  0
  9 10  2  0  0  0  0
  9 11  1  0  0  0  0
 11 12  1  0  0  0  0
 11 30  1  0  0  0  0
 12 13  1  0  0  0  0
 12 14  1  0  0  0  0
 12 16  1  0  0  0  0
 13 31  1  0  0  0  0
 13 32  1  0  0  0  0
 13 33  1  0  0  0  0
 14 15  1  0  0  0  0
 14 34  1  0  0  0  0
 14 35  1  0  0  0  0
 15 36  1  0  0  0  0
 16 21  1  0  0  0  0
 16 17  1  0  0  0  0
 16 37  1  0  0  0  0
 17 18  1  0  0  0  0
 17 38  1  0  0  0  0
 17 39  1  0  0  0  0
 18 19  1  0  0  0  0
 18 40  1  0  0  0  0
 18 41  1  0  0  0  0
 19 20  1  0  0  0  0
 19 42  1  0  0  0  0
 19 43  1  0  0  0  0
 20 21  1  0  0  0  0
 20 44  1  0  0  0  0
 20 45  1  0  0  0  0
 21 46  1  0  0  0  0
 21 47  1  0  0  0  0
M  END
> <s_m_source_file>
AV-unprocessed.smi

> <i_m_source_file_index>
2788

> <i_lp_mmshare_version>
43012

> <i_f3d_flags>
0

> <s_epik_input>
W0NIM11jMW5vYyhbQ0gzXSljMVtDSDJdQyg9TylbTkhdW0NAQF0oW0NIM10pKFtDSDJdW09IXSlbQ0hdMltDSDJdW0NIMl1bQ0gyXVtDSDJdW0NIMl0y

> <s_epik_cmdline>
J2VwaWtfcHl0aG9uJywgJy1waCcsICc3LjAnLCAnLXRuJywgJzgnLCAnLW1hJywgJzIwMCcsICctbWV0YWxfYmluZGluZycsICctaW1hZScsICc8aW5maWxlLm1hZT4nLCAnLW9tYWUnLCAnPG91dGZpbGUubWFlPic=

> <r_lp_tautomer_probability>
1

> <r_epik_Ionization_Penalty>
1.3408e-07

> <r_epik_Ionization_Penalty_Charging>
0

> <r_epik_Ionization_Penalty_Neutral>
1.3408e-07

> <r_epik_State_Penalty>
-0

> <r_epik_Charging_Adjusted_Penalty>
0

> <i_epik_Tot_Q>
0

> <i_epik_Tot_abs_Q>
0

> <r_epik_Metal_State_Penalty>
-0

> <b_epik_Metal_Only>
0

> <s_lp_Force_Field>
OPLS_2005

> <r_lp_Energy>
15.0378

> <b_lp_Chiralities_Consistent>
1

> <s_lp_Variant>
AV-unprocessed.smi:2788-1

> <Gold.Version>
5.8.1

> <Gold.Id.Protein>
6NUR|6NUR_protein|mol2

> <Gold.PLP.Fitness>
40.3606

> <Gold.PLP.PLP>
-34.0472

> <Gold.PLP.part.hbond>
-4.0000

> <Gold.PLP.part.metal>
0.0000

> <Gold.PLP.part.buried>
-1.3157

> <Gold.PLP.part.nonpolar>
-28.5507

> <Gold.PLP.part.repulsive>
0.0458

> <Gold.PLP.ligand.clash>
0.0000

> <Gold.PLP.ligand.torsion>
1.0137

> <Gold.PLP.Chemscore.Hbond>
2.7520

> <Gold.PLP.Chemscore.CHOScore>
0.0000

> <Gold.PLP.Chemscore.Metal>
0.0000

> <Gold.Chemscore.Hbonds>
donor molecule, donor type, donor heavy atom, donor atom, acceptor molecule, acceptor atom, score
      L1  H    11    30       P1  7948  1.00
      L1  H    15    36       P1  7948  1.00
      P1  H  6896  6909       L1     4  0.70

> <Gold.PLP.Chemscore.Internal.Correction>
0.0848

> <Gold.Rescore>
     Score         DG    S(hbond)    S(metal)    S(lipo)     H(rot)  DE(clash)    DE(int)     intcor
     15.82     -18.19       2.45        0.00      87.49       2.24       0.15       2.22       ----

> <Gold.Chemscore.Fitness>
15.8186

> <Gold.Chemscore.DG>
-18.1853

> <Gold.Chemscore.ZeroCoef>
-5.4800

> <Gold.Chemscore.Hbond>
2.4530

> <Gold.Chemscore.Metal>
0.0000

> <Gold.Chemscore.Lipo>
87.4856

> <Gold.Chemscore.Internal_Hbond>
0.0000

> <Gold.Chemscore.DEClash>
0.1503

> <Gold.Chemscore.DEInternal>
2.2165

> <Gold.Chemscore.Rot>
2.2357

> <Gold.Chemscore.Internal.Correction>
   9.000000E+99

> <Gold.Chemscore.Hbonds>
donor molecule, donor type, donor heavy atom, donor atom, acceptor molecule, acceptor atom, score
      L1  H    11    30       P1  7948  0.90
      L1  H    15    36       P1  7948  0.99
      P1  H  6896  6909       L1     4  0.24

> <Gold.Chemscore.Hbond.Weighted>
-8.1930

> <Gold.Chemscore.Metal.Weighted>
-0.0000

> <Gold.Chemscore.Lipo.Weighted>
-10.2358

> <Gold.Chemscore.Internal_Hbond.Weighted>
0.0000

> <Gold.Chemscore.DEClash.Weighted>
0.1503

> <Gold.Chemscore.DEInternal.Weighted>
2.2165

> <Gold.Chemscore.Rot.Weighted>
5.7235

> <Gold.Chemscore.Internal.Correction.Weighted>
   9.000000E+99

> <Gold.Protein.RotatedTorsions>
[ 6907 6896 6895 6894 ] final  -30.40 input  -60.11 | X-H torsion
[ 7974 7965 7964 7962 ] final   53.99 input  175.53 | X-H torsion
[ 8008 7997 7996 7995 ] final  -94.79 input   59.86 | X-H torsion
[ 10167 10162 10161 10158 ] final   83.65 input  -65.29 | X-H torsion
[ 10718 10713 10712 10709 ] final  179.38 input   66.30 | X-H torsion
[ 10763 10752 10751 10750 ] final   -5.32 input  -60.55 | X-H torsion
[ 11005 11000 10999 10996 ] final -107.23 input  -57.11 | X-H torsion

> <Gold.Protein.ActiveResidues>
 VAL166  LYS551  ARG553  GLY616  TRP617  ASP618  TYR619  PRO620  LYS621  CYS622 
 ASP623  PHE694  ASN695  SER759  ASP760  ASP761  ALA762  ILE779  LEU786  VAL792 
 PHE793  MET794  SER795  GLU796  ALA797  LYS798  CYS799  TRP800  GLU811  SER814 

> <Gold.Protein.RotatedAtoms>
  151.1060  134.9999  159.8471 H   0  0  0  0  0  0  0  0  0  0  0  0  # atno 6907 bound_to 6896
  152.5440  134.1893  159.8677 H   0  0  0  0  0  0  0  0  0  0  0  0  # atno 6908 bound_to 6896
  151.1939  133.4606  159.2628 H   0  0  0  0  0  0  0  0  0  0  0  0  # atno 6909 bound_to 6896
  145.9654  139.4099  143.0222 H   0  0  0  0  0  0  0  0  0  0  0  0  # atno 7974 bound_to 7965
  154.7530  140.0486  157.0909 H   0  0  0  0  0  0  0  0  0  0  0  0  # atno 8008 bound_to 7997
  155.0033  140.3127  155.4839 H   0  0  0  0  0  0  0  0  0  0  0  0  # atno 8009 bound_to 7997
  156.2889  140.2197  156.5144 H   0  0  0  0  0  0  0  0  0  0  0  0  # atno 8010 bound_to 7997
  139.9162  144.6241  150.8487 H   0  0  0  0  0  0  0  0  0  0  0  0  # atno 10167 bound_to 10162
  156.8766  130.9801  151.3067 H   0  0  0  0  0  0  0  0  0  0  0  0  # atno 10718 bound_to 10713
  153.3969  135.7003  153.6454 H   0  0  0  0  0  0  0  0  0  0  0  0  # atno 10763 bound_to 10752
  153.5003  135.3653  155.2537 H   0  0  0  0  0  0  0  0  0  0  0  0  # atno 10764 bound_to 10752
  154.8707  135.4110  154.3297 H   0  0  0  0  0  0  0  0  0  0  0  0  # atno 10765 bound_to 10752
  141.0965  133.8962  157.1951 H   0  0  0  0  0  0  0  0  0  0  0  0  # atno 11005 bound_to 11000
  145.7981  140.9784  143.1013 LP  0  0  0  0  0  0  0  0  0  0  0  0  # atno 17320 bound_to 7965
  144.6824  139.9766  143.7483 LP  0  0  0  0  0  0  0  0  0  0  0  0  # atno 17321 bound_to 7965
  140.7673  143.3330  151.2369 LP  0  0  0  0  0  0  0  0  0  0  0  0  # atno 17342 bound_to 10162
  139.6901  143.9707  152.2854 LP  0  0  0  0  0  0  0  0  0  0  0  0  # atno 17343 bound_to 10162
  157.6165  130.8622  149.9036 LP  0  0  0  0  0  0  0  0  0  0  0  0  # atno 17370 bound_to 10713
  156.0699  130.3687  150.0799 LP  0  0  0  0  0  0  0  0  0  0  0  0  # atno 17371 bound_to 10713
  139.9803  135.0100  156.9732 LP  0  0  0  0  0  0  0  0  0  0  0  0  # atno 17394 bound_to 11000
  140.5128  134.0985  155.7274 LP  0  0  0  0  0  0  0  0  0  0  0  0  # atno 17395 bound_to 11000

$$$$
