AV-unprocessed.smi:2198|AV-procd|sdf|8917|dock8
  -GOLD-   2272012133D 1   1.00000     0.00000
 Structure written by MMmdl.
 43 44  0  0  0  0  0  0  0  0  1 V2000
  145.7954  138.3434  152.6870 C   0  0  0  0  0  0  0  0  0  0  0  0
  146.7893  139.3019  153.3064 C   0  0  0  0  0  0  0  0  0  0  0  0
  146.2801  140.5724  153.5170 N   0  0  0  0  0  0  0  0  0  0  0  0
  147.1143  141.5186  154.0858 C   0  0  0  0  0  0  0  0  0  0  0  0
  146.4754  142.8815  154.2888 C   0  0  0  0  0  0  0  0  0  0  0  0
  148.3942  141.2157  154.4215 C   0  0  0  0  0  0  0  0  0  0  0  0
  149.3471  142.2309  155.0495 C   0  0  0  0  0  0  0  0  0  0  0  0
  149.7487  141.9384  156.4962 C   0  0  0  0  0  0  0  0  0  0  0  0
  149.6345  140.7991  156.9473 O   0  0  0  0  0  0  0  0  0  0  0  0
  150.2237  142.9722  157.2081 N   0  0  0  0  0  0  0  0  0  0  0  0
  150.6819  142.9053  158.5921 C   0  0  2  0  0  0  0  0  0  0  0  0
  150.9093  144.3210  159.1584 C   0  0  0  0  0  0  0  0  0  0  0  0
  151.4657  144.2662  160.5894 C   0  0  0  0  0  0  0  0  0  0  0  0
  152.7529  143.4294  160.6574 C   0  0  0  0  0  0  0  0  0  0  0  0
  152.5334  142.0095  160.1013 C   0  0  2  0  0  0  0  0  0  0  0  0
  153.8207  141.1755  160.1669 C   0  0  0  0  0  0  0  0  0  0  0  0
  151.9758  142.0733  158.6658 C   0  0  0  0  0  0  0  0  0  0  0  0
  148.8858  139.8416  154.1620 C   0  0  0  0  0  0  0  0  0  0  0  0
  150.0396  139.5087  154.4291 O   0  0  0  0  0  0  0  0  0  0  0  0
  147.9959  138.9167  153.5920 N   0  0  0  0  0  0  0  0  0  0  0  0
  145.3357  140.8400  153.2794 H   0  0  0  0  0  0  0  0  0  0  0  0
  146.2057  137.3339  152.6377 H   0  0  0  0  0  0  0  0  0  0  0  0
  145.5450  138.6594  151.6739 H   0  0  0  0  0  0  0  0  0  0  0  0
  144.8790  138.3089  153.2769 H   0  0  0  0  0  0  0  0  0  0  0  0
  146.4791  143.1522  155.3447 H   0  0  0  0  0  0  0  0  0  0  0  0
  145.4402  142.8948  153.9455 H   0  0  0  0  0  0  0  0  0  0  0  0
  147.0206  143.6452  153.7339 H   0  0  0  0  0  0  0  0  0  0  0  0
  148.9226  143.2345  155.0109 H   0  0  0  0  0  0  0  0  0  0  0  0
  150.2442  142.2907  154.4321 H   0  0  0  0  0  0  0  0  0  0  0  0
  150.2816  143.8719  156.7537 H   0  0  0  0  0  0  0  0  0  0  0  0
  149.9232  142.4021  159.1949 H   0  0  0  0  0  0  0  0  0  0  0  0
  151.6052  144.8679  158.5205 H   0  0  0  0  0  0  0  0  0  0  0  0
  149.9756  144.8847  159.1518 H   0  0  0  0  0  0  0  0  0  0  0  0
  151.6594  145.2764  160.9514 H   0  0  0  0  0  0  0  0  0  0  0  0
  150.7157  143.8379  161.2554 H   0  0  0  0  0  0  0  0  0  0  0  0
  153.5417  143.9297  160.0937 H   0  0  0  0  0  0  0  0  0  0  0  0
  153.0982  143.3762  161.6904 H   0  0  0  0  0  0  0  0  0  0  0  0
  151.7901  141.5146  160.7284 H   0  0  0  0  0  0  0  0  0  0  0  0
  154.6106  141.6156  159.5574 H   0  0  0  0  0  0  0  0  0  0  0  0
  153.6496  140.1603  159.8076 H   0  0  0  0  0  0  0  0  0  0  0  0
  154.1903  141.1040  161.1901 H   0  0  0  0  0  0  0  0  0  0  0  0
  151.7838  141.0637  158.2999 H   0  0  0  0  0  0  0  0  0  0  0  0
  152.7275  142.5034  158.0020 H   0  0  0  0  0  0  0  0  0  0  0  0
  1 22  1  0  0  0  0
  1 23  1  0  0  0  0
  1 24  1  0  0  0  0
  1  2  1  0  0  0  0
  2  3  1  0  0  0  0
  2 20  2  0  0  0  0
  3  4  1  0  0  0  0
  3 21  1  0  0  0  0
  4  6  2  0  0  0  0
  4  5  1  0  0  0  0
  5 25  1  0  0  0  0
  5 26  1  0  0  0  0
  5 27  1  0  0  0  0
  6 18  1  0  0  0  0
  6  7  1  0  0  0  0
  7  8  1  0  0  0  0
  7 28  1  0  0  0  0
  7 29  1  0  0  0  0
  8  9  2  0  0  0  0
  8 10  1  0  0  0  0
 10 11  1  0  0  0  0
 10 30  1  0  0  0  0
 11 17  1  0  0  0  0
 11 12  1  0  0  0  0
 11 31  1  0  0  0  0
 12 13  1  0  0  0  0
 12 32  1  0  0  0  0
 12 33  1  0  0  0  0
 13 14  1  0  0  0  0
 13 34  1  0  0  0  0
 13 35  1  0  0  0  0
 14 15  1  0  0  0  0
 14 36  1  0  0  0  0
 14 37  1  0  0  0  0
 15 16  1  0  0  0  0
 15 17  1  0  0  0  0
 15 38  1  0  0  0  0
 16 39  1  0  0  0  0
 16 40  1  0  0  0  0
 16 41  1  0  0  0  0
 17 42  1  0  0  0  0
 17 43  1  0  0  0  0
 18 19  2  0  0  0  0
 18 20  1  0  0  0  0
M  END
> <s_m_source_file>
AV-unprocessed.smi

> <i_m_source_file_index>
2198

> <i_lp_mmshare_version>
43012

> <i_f3d_flags>
0

> <s_epik_input>
W0NIM11jMW5jKFtDSDNdKWMoYyg9TylbbkhdMSlbQ0gyXUMoPU8pW05IXVtDQEBIXTJbQ0gyXVtDSDJdW0NIMl1bQ0BASF0oW0NIM10pW0NIMl0y

> <s_epik_cmdline>
J2VwaWtfcHl0aG9uJywgJy1waCcsICc3LjAnLCAnLXRuJywgJzgnLCAnLW1hJywgJzIwMCcsICctbWV0YWxfYmluZGluZycsICctaW1hZScsICc8aW5maWxlLm1hZT4nLCAnLW9tYWUnLCAnPG91dGZpbGUubWFlPic=

> <r_lp_tautomer_probability>
0.156392

> <r_epik_Ionization_Penalty>
0.0136514

> <r_epik_Ionization_Penalty_Charging>
0.0135207

> <r_epik_Ionization_Penalty_Neutral>
0.000130657

> <r_epik_State_Penalty>
1.15342

> <r_epik_Charging_Adjusted_Penalty>
1.16694

> <i_epik_Tot_Q>
0

> <i_epik_Tot_abs_Q>
0

> <r_epik_Metal_State_Penalty>
1.31404

> <b_epik_Metal_Only>
0

> <s_lp_Force_Field>
OPLS_2005

> <r_lp_Energy>
14.0485

> <b_lp_Chiralities_Consistent>
1

> <s_lp_Variant>
AV-unprocessed.smi:2198-7

> <Gold.Version>
5.8.1

> <Gold.Id.Protein>
6NUR|6NUR_protein|mol2

> <Gold.PLP.Fitness>
46.8534

> <Gold.PLP.PLP>
-40.0880

> <Gold.PLP.part.hbond>
-2.9566

> <Gold.PLP.part.metal>
0.0000

> <Gold.PLP.part.buried>
-0.7727

> <Gold.PLP.part.nonpolar>
-38.2706

> <Gold.PLP.part.repulsive>
2.0829

> <Gold.PLP.ligand.clash>
0.0000

> <Gold.PLP.ligand.torsion>
0.4213

> <Gold.PLP.Chemscore.Hbond>
2.5343

> <Gold.PLP.Chemscore.CHOScore>
0.0000

> <Gold.PLP.Chemscore.Metal>
0.0000

> <Gold.Chemscore.Hbonds>
donor molecule, donor type, donor heavy atom, donor atom, acceptor molecule, acceptor atom, score
      L1  H     3    21       P1 10175  1.00
      L1  H    10    30       P1  8028  0.54
      P1  H  7989  7998       L1    19  0.36

> <Gold.PLP.Chemscore.Internal.Correction>
0.0051

> <Gold.Rescore>
     Score         DG    S(hbond)    S(metal)    S(lipo)     H(rot)  DE(clash)    DE(int)     intcor
     18.32     -22.25       2.56        0.00     102.65       1.48       2.24       1.70       ----

> <Gold.Chemscore.Fitness>
18.3201

> <Gold.Chemscore.DG>
-22.2535

> <Gold.Chemscore.ZeroCoef>
-5.4800

> <Gold.Chemscore.Hbond>
2.5608

> <Gold.Chemscore.Metal>
0.0000

> <Gold.Chemscore.Lipo>
102.6460

> <Gold.Chemscore.Internal_Hbond>
0.0000

> <Gold.Chemscore.DEClash>
2.2352

> <Gold.Chemscore.DEInternal>
1.6982

> <Gold.Chemscore.Rot>
1.4801

> <Gold.Chemscore.Internal.Correction>
   9.000000E+99

> <Gold.Chemscore.Hbonds>
donor molecule, donor type, donor heavy atom, donor atom, acceptor molecule, acceptor atom, score
      L1  H     3    21       P1 10175  0.67
      L1  H    10    30       P1  8028  0.55
      P1  H  7989  7998       L1    19  0.30

> <Gold.Chemscore.Hbond.Weighted>
-8.5531

> <Gold.Chemscore.Metal.Weighted>
-0.0000

> <Gold.Chemscore.Lipo.Weighted>
-12.0096

> <Gold.Chemscore.Internal_Hbond.Weighted>
0.0000

> <Gold.Chemscore.DEClash.Weighted>
2.2352

> <Gold.Chemscore.DEInternal.Weighted>
1.6982

> <Gold.Chemscore.Rot.Weighted>
3.7891

> <Gold.Chemscore.Internal.Correction.Weighted>
   9.000000E+99

> <Gold.Protein.RotatedTorsions>
[ 6907 6896 6895 6894 ] final   35.53 input  -60.11 | X-H torsion
[ 7974 7965 7964 7962 ] final  -82.00 input  175.53 | X-H torsion
[ 8008 7997 7996 7995 ] final  -85.51 input   59.86 | X-H torsion
[ 10167 10162 10161 10158 ] final   46.34 input  -65.29 | X-H torsion
[ 10718 10713 10712 10709 ] final  -32.30 input   66.30 | X-H torsion
[ 10763 10752 10751 10750 ] final -124.80 input  -60.55 | X-H torsion
[ 11005 11000 10999 10996 ] final  -75.42 input  -57.11 | X-H torsion

> <Gold.Protein.ActiveResidues>
 VAL166  LYS551  ARG553  GLY616  TRP617  ASP618  TYR619  PRO620  LYS621  CYS622 
 ASP623  PHE694  ASN695  SER759  ASP760  ASP761  ALA762  ILE779  LEU786  VAL792 
 PHE793  MET794  SER795  GLU796  ALA797  LYS798  CYS799  TRP800  GLU811  SER814 

> <Gold.Protein.RotatedAtoms>
  152.1174  134.9230  160.0564 H   0  0  0  0  0  0  0  0  0  0  0  0  # atno 6907 bound_to 6896
  152.0384  133.3962  159.4335 H   0  0  0  0  0  0  0  0  0  0  0  0  # atno 6908 bound_to 6896
  150.6847  134.3363  159.4892 H   0  0  0  0  0  0  0  0  0  0  0  0  # atno 6909 bound_to 6896
  145.5391  140.9512  143.1561 H   0  0  0  0  0  0  0  0  0  0  0  0  # atno 7974 bound_to 7965
  154.6416  140.0590  156.9852 H   0  0  0  0  0  0  0  0  0  0  0  0  # atno 8008 bound_to 7997
  155.1508  140.3274  155.4413 H   0  0  0  0  0  0  0  0  0  0  0  0  # atno 8009 bound_to 7997
  156.2533  140.1947  156.6620 H   0  0  0  0  0  0  0  0  0  0  0  0  # atno 8010 bound_to 7997
  140.3149  144.2776  150.6193 H   0  0  0  0  0  0  0  0  0  0  0  0  # atno 10167 bound_to 10162
  156.3766  130.4348  149.7503 H   0  0  0  0  0  0  0  0  0  0  0  0  # atno 10718 bound_to 10713
  154.8728  135.4051  154.3165 H   0  0  0  0  0  0  0  0  0  0  0  0  # atno 10763 bound_to 10752
  153.4000  135.7017  153.6438 H   0  0  0  0  0  0  0  0  0  0  0  0  # atno 10764 bound_to 10752
  153.5185  135.3692  155.2591 H   0  0  0  0  0  0  0  0  0  0  0  0  # atno 10765 bound_to 10752
  141.1645  133.6946  156.7515 H   0  0  0  0  0  0  0  0  0  0  0  0  # atno 11005 bound_to 11000
  144.7586  139.7013  143.7244 LP  0  0  0  0  0  0  0  0  0  0  0  0  # atno 17320 bound_to 7965
  146.1993  139.5278  142.9754 LP  0  0  0  0  0  0  0  0  0  0  0  0  # atno 17321 bound_to 7965
  140.5535  143.2202  151.7887 LP  0  0  0  0  0  0  0  0  0  0  0  0  # atno 17342 bound_to 10162
  139.4886  144.4444  151.9726 LP  0  0  0  0  0  0  0  0  0  0  0  0  # atno 17343 bound_to 10162
  156.4609  130.7951  151.2972 LP  0  0  0  0  0  0  0  0  0  0  0  0  # atno 17370 bound_to 10713
  157.7489  131.0066  150.3157 LP  0  0  0  0  0  0  0  0  0  0  0  0  # atno 17371 bound_to 10713
  140.2601  134.8474  157.3750 LP  0  0  0  0  0  0  0  0  0  0  0  0  # atno 17394 bound_to 11000
  140.1620  134.4717  155.7888 LP  0  0  0  0  0  0  0  0  0  0  0  0  # atno 17395 bound_to 11000

$$$$
