AV-unprocessed.smi:37|AV-procd|sdf|303|dock1
  -GOLD-   2262016113D 1   1.00000     0.00000
 Structure written by MMmdl.
 44 45  0  0  0  0  0  0  0  0  1 V2000
  147.6008  133.8298  160.3092 C   0  0  0  0  0  0  0  0  0  0  0  0
  146.9328  135.1586  159.9263 C   0  0  0  0  0  0  0  0  0  0  0  0
  147.8350  136.3782  160.1272 C   0  0  0  0  0  0  0  0  0  0  0  0
  147.4983  137.3440  160.8146 O   0  0  0  0  0  0  0  0  0  0  0  0
  148.9999  136.2529  159.4740 O   0  0  0  0  0  0  0  0  0  0  0  0
  149.9980  137.2487  159.6235 C   0  0  0  0  0  0  0  0  0  0  0  0
  149.8269  138.3072  158.5293 C   0  0  2  0  0  0  0  0  0  0  0  0
  149.3414  137.7046  157.3294 O   0  0  0  0  0  0  0  0  0  0  0  0
  150.0554  138.1747  156.2250 C   0  0  1  0  0  0  0  0  0  0  0  0
  149.1065  138.4991  155.0948 N   0  0  0  0  0  0  0  0  0  0  0  0
  147.7729  138.1080  155.1123 C   0  0  0  0  0  0  0  0  0  0  0  0
  146.9112  138.3928  154.1073 C   0  0  0  0  0  0  0  0  0  0  0  0
  145.6333  137.9862  154.1942 F   0  0  0  0  0  0  0  0  0  0  0  0
  147.3548  139.1405  152.9341 C   0  0  0  0  0  0  0  0  0  0  0  0
  146.6504  139.4421  151.9727 O   0  0  0  0  0  0  0  0  0  0  0  0
  148.7006  139.5187  152.9652 N   0  0  0  0  0  0  0  0  0  0  0  0
  149.5983  139.2346  153.9955 C   0  0  0  0  0  0  0  0  0  0  0  0
  150.7636  139.6226  153.9255 O   0  0  0  0  0  0  0  0  0  0  0  0
  150.8607  139.3909  156.6970 C   0  0  1  0  0  0  0  0  0  0  0  0
  149.7791  141.0758  156.6652 Br  0  0  0  0  0  0  0  0  0  0  0  0
  151.1445  138.9755  158.1303 C   0  0  1  0  0  0  0  0  0  0  0  0
  151.4571  140.0747  158.9758 O   0  0  0  0  0  0  0  0  0  0  0  0
  152.7152  140.5470  159.0349 C   0  0  0  0  0  0  0  0  0  0  0  0
  153.6966  140.0585  158.4749 O   0  0  0  0  0  0  0  0  0  0  0  0
  152.8320  141.8022  159.8959 C   0  0  0  0  0  0  0  0  0  0  0  0
  152.1061  143.0008  159.2700 C   0  0  0  0  0  0  0  0  0  0  0  0
  149.0508  140.0434  152.1769 H   0  0  0  0  0  0  0  0  0  0  0  0
  146.9144  132.9974  160.1543 H   0  0  0  0  0  0  0  0  0  0  0  0
  147.8973  133.8210  161.3586 H   0  0  0  0  0  0  0  0  0  0  0  0
  148.4885  133.6418  159.7041 H   0  0  0  0  0  0  0  0  0  0  0  0
  146.6238  135.1260  158.8811 H   0  0  0  0  0  0  0  0  0  0  0  0
  146.0277  135.2972  160.5181 H   0  0  0  0  0  0  0  0  0  0  0  0
  149.8870  137.7137  160.6041 H   0  0  0  0  0  0  0  0  0  0  0  0
  150.9946  136.8073  159.5792 H   0  0  0  0  0  0  0  0  0  0  0  0
  149.1100  139.0689  158.8410 H   0  0  0  0  0  0  0  0  0  0  0  0
  150.6860  137.3563  155.8708 H   0  0  0  0  0  0  0  0  0  0  0  0
  147.3829  137.5625  155.9591 H   0  0  0  0  0  0  0  0  0  0  0  0
  151.7563  139.5386  156.0930 H   0  0  0  0  0  0  0  0  0  0  0  0
  151.9387  138.2266  158.1448 H   0  0  0  0  0  0  0  0  0  0  0  0
  152.4231  141.5916  160.8843 H   0  0  0  0  0  0  0  0  0  0  0  0
  153.8872  142.0392  160.0340 H   0  0  0  0  0  0  0  0  0  0  0  0
  152.2330  143.8906  159.8866 H   0  0  0  0  0  0  0  0  0  0  0  0
  151.0355  142.8159  159.1752 H   0  0  0  0  0  0  0  0  0  0  0  0
  152.4976  143.2273  158.2776 H   0  0  0  0  0  0  0  0  0  0  0  0
  1  2  1  0  0  0  0
  1 28  1  0  0  0  0
  1 29  1  0  0  0  0
  1 30  1  0  0  0  0
  2  3  1  0  0  0  0
  2 31  1  0  0  0  0
  2 32  1  0  0  0  0
  3  4  2  0  0  0  0
  3  5  1  0  0  0  0
  5  6  1  0  0  0  0
  6  7  1  0  0  0  0
  6 33  1  0  0  0  0
  6 34  1  0  0  0  0
  7 21  1  0  0  0  0
  7  8  1  0  0  0  0
  7 35  1  0  0  0  0
  8  9  1  0  0  0  0
  9 10  1  0  0  0  0
  9 19  1  0  0  0  0
  9 36  1  0  0  0  0
 10 17  1  0  0  0  0
 10 11  1  0  0  0  0
 11 12  2  0  0  0  0
 11 37  1  0  0  0  0
 12 13  1  0  0  0  0
 12 14  1  0  0  0  0
 14 15  2  0  0  0  0
 14 16  1  0  0  0  0
 16 27  1  0  0  0  0
 16 17  1  0  0  0  0
 17 18  2  0  0  0  0
 19 20  1  0  0  0  0
 19 21  1  0  0  0  0
 19 38  1  0  0  0  0
 21 22  1  0  0  0  0
 21 39  1  0  0  0  0
 22 23  1  0  0  0  0
 23 24  2  0  0  0  0
 23 25  1  0  0  0  0
 25 26  1  0  0  0  0
 25 40  1  0  0  0  0
 25 41  1  0  0  0  0
 26 42  1  0  0  0  0
 26 43  1  0  0  0  0
 26 44  1  0  0  0  0
M  END
> <s_m_source_file>
AV-unprocessed.smi

> <i_m_source_file_index>
37

> <i_lp_mmshare_version>
43012

> <i_f3d_flags>
0

> <s_epik_input>
W0NIM11bQ0gyXUMoPU8pT1tDSDJdW0NAQEhdMU9bQ0BASF0objJbY0hdYyhGKWMoPU8pW25IXWMyPU8pW0NAQEhdKEJyKVtDQEhdMU9DKD1PKVtDSDJdW0NIM10=

> <s_epik_cmdline>
J2VwaWtfcHl0aG9uJywgJy1waCcsICc3LjAnLCAnLXRuJywgJzgnLCAnLW1hJywgJzIwMCcsICctbWV0YWxfYmluZGluZycsICctaW1hZScsICc8aW5maWxlLm1hZT4nLCAnLW9tYWUnLCAnPG91dGZpbGUubWFlPic=

> <r_lp_tautomer_probability>
0.999537

> <r_epik_Ionization_Penalty>
0.104106

> <r_epik_Ionization_Penalty_Charging>
0.104106

> <r_epik_Ionization_Penalty_Neutral>
3.94675e-16

> <r_epik_State_Penalty>
0.0940182

> <r_epik_Charging_Adjusted_Penalty>
0.198124

> <i_epik_Tot_Q>
0

> <i_epik_Tot_abs_Q>
0

> <r_epik_Metal_State_Penalty>
3.05314

> <b_epik_Metal_Only>
0

> <s_epik_Chemistry_Notes>
This compound has an ester and may undergo hydrolysis at high or low pH. This compound contains an acetal/aminal-like group ( X-CH(R)-Y where X, Y are N, S, or O) that may be acid/base labile, releasing an aldehyde.

> <s_lp_Force_Field>
OPLS_2005

> <r_lp_Energy>
25.209

> <b_lp_Chiralities_Consistent>
1

> <s_lp_Variant>
AV-unprocessed.smi:37-1

> <Gold.Version>
5.8.1

> <Gold.Id.Protein>
6NUR|6NUR_protein|mol2

> <Gold.PLP.Fitness>
41.9920

> <Gold.PLP.PLP>
-30.3041

> <Gold.PLP.part.hbond>
-5.5093

> <Gold.PLP.part.metal>
0.0000

> <Gold.PLP.part.buried>
-2.7144

> <Gold.PLP.part.nonpolar>
-24.2808

> <Gold.PLP.part.repulsive>
0.8825

> <Gold.PLP.ligand.clash>
0.0000

> <Gold.PLP.ligand.torsion>
1.1401

> <Gold.PLP.Chemscore.Hbond>
4.5440

> <Gold.PLP.Chemscore.CHOScore>
0.0000

> <Gold.PLP.Chemscore.Metal>
0.0000

> <Gold.Chemscore.Hbonds>
donor molecule, donor type, donor heavy atom, donor atom, acceptor molecule, acceptor atom, score
      L1  H    16    27       P1  7957  0.06
      P1  H  6931  6943       L1     4  0.63
      P1  H  6934  6947       L1     4  1.00
      P1  H  7989  7998       L1    18  1.00
      P1  H  7997  8008       L1    24  1.00

> <Gold.PLP.Chemscore.Internal.Correction>
0.3362

> <Gold.Rescore>
     Score         DG    S(hbond)    S(metal)    S(lipo)     H(rot)  DE(clash)    DE(int)     intcor
     15.10     -18.36       4.54        0.00      53.19       3.33       0.99       2.27       ----

> <Gold.Chemscore.Fitness>
15.0982

> <Gold.Chemscore.DG>
-18.3554

> <Gold.Chemscore.ZeroCoef>
-5.4800

> <Gold.Chemscore.Hbond>
4.5444

> <Gold.Chemscore.Metal>
0.0000

> <Gold.Chemscore.Lipo>
53.1866

> <Gold.Chemscore.Internal_Hbond>
0.0000

> <Gold.Chemscore.DEClash>
0.9872

> <Gold.Chemscore.DEInternal>
2.2699

> <Gold.Chemscore.Rot>
3.3303

> <Gold.Chemscore.Internal.Correction>
   9.000000E+99

> <Gold.Chemscore.Hbonds>
donor molecule, donor type, donor heavy atom, donor atom, acceptor molecule, acceptor atom, score
      L1  H    16    27       P1  7957  0.10
      P1  H  6931  6943       L1     4  0.57
      P1  H  6934  6947       L1     4  0.95
      P1  H  7989  7998       L1    18  0.96
      P1  H  7997  8008       L1    24  0.95

> <Gold.Chemscore.Hbond.Weighted>
-15.1781

> <Gold.Chemscore.Metal.Weighted>
-0.0000

> <Gold.Chemscore.Lipo.Weighted>
-6.2228

> <Gold.Chemscore.Internal_Hbond.Weighted>
0.0000

> <Gold.Chemscore.DEClash.Weighted>
0.9872

> <Gold.Chemscore.DEInternal.Weighted>
2.2699

> <Gold.Chemscore.Rot.Weighted>
8.5256

> <Gold.Chemscore.Internal.Correction.Weighted>
   9.000000E+99

> <Gold.Protein.RotatedTorsions>
[ 6907 6896 6895 6894 ] final    1.58 input  -60.11 | X-H torsion
[ 7974 7965 7964 7962 ] final  134.60 input  175.53 | X-H torsion
[ 8008 7997 7996 7995 ] final  -95.11 input   59.86 | X-H torsion
[ 10167 10162 10161 10158 ] final  100.41 input  -65.29 | X-H torsion
[ 10718 10713 10712 10709 ] final -127.57 input   66.30 | X-H torsion
[ 10763 10752 10751 10750 ] final  -68.45 input  -60.55 | X-H torsion
[ 11005 11000 10999 10996 ] final  -43.47 input  -57.11 | X-H torsion

> <Gold.Protein.ActiveResidues>
 VAL166  LYS551  ARG553  GLY616  TRP617  ASP618  TYR619  PRO620  LYS621  CYS622 
 ASP623  PHE694  ASN695  SER759  ASP760  ASP761  ALA762  ILE779  LEU786  VAL792 
 PHE793  MET794  SER795  GLU796  ALA797  LYS798  CYS799  TRP800  GLU811  SER814 

> <Gold.Protein.RotatedAtoms>
  151.5950  135.1051  160.0047 H   0  0  0  0  0  0  0  0  0  0  0  0  # atno 6907 bound_to 6896
  152.4287  133.7236  159.6558 H   0  0  0  0  0  0  0  0  0  0  0  0  # atno 6908 bound_to 6896
  150.8178  133.8235  159.3175 H   0  0  0  0  0  0  0  0  0  0  0  0  # atno 6909 bound_to 6896
  144.9747  139.4567  143.5415 H   0  0  0  0  0  0  0  0  0  0  0  0  # atno 7974 bound_to 7965
  154.7571  140.0483  157.0942 H   0  0  0  0  0  0  0  0  0  0  0  0  # atno 8008 bound_to 7997
  154.9984  140.3121  155.4858 H   0  0  0  0  0  0  0  0  0  0  0  0  # atno 8009 bound_to 7997
  156.2897  140.2206  156.5093 H   0  0  0  0  0  0  0  0  0  0  0  0  # atno 8010 bound_to 7997
  139.7530  144.6978  151.0404 H   0  0  0  0  0  0  0  0  0  0  0  0  # atno 10167 bound_to 10162
  156.1870  130.6770  151.0376 H   0  0  0  0  0  0  0  0  0  0  0  0  # atno 10718 bound_to 10713
  154.3892  135.6056  153.5833 H   0  0  0  0  0  0  0  0  0  0  0  0  # atno 10763 bound_to 10752
  152.9787  135.5879  154.4318 H   0  0  0  0  0  0  0  0  0  0  0  0  # atno 10764 bound_to 10752
  154.4100  135.2844  155.2021 H   0  0  0  0  0  0  0  0  0  0  0  0  # atno 10765 bound_to 10752
  141.0386  133.6789  156.2738 H   0  0  0  0  0  0  0  0  0  0  0  0  # atno 11005 bound_to 11000
  146.3392  139.8982  142.8798 LP  0  0  0  0  0  0  0  0  0  0  0  0  # atno 17320 bound_to 7965
  145.2507  141.0043  143.3883 LP  0  0  0  0  0  0  0  0  0  0  0  0  # atno 17321 bound_to 7965
  140.7800  143.4787  151.0048 LP  0  0  0  0  0  0  0  0  0  0  0  0  # atno 17342 bound_to 10162
  139.8474  143.7483  152.3179 LP  0  0  0  0  0  0  0  0  0  0  0  0  # atno 17343 bound_to 10162
  157.6905  131.0811  150.7121 LP  0  0  0  0  0  0  0  0  0  0  0  0  # atno 17370 bound_to 10713
  156.7178  130.4671  149.5530 LP  0  0  0  0  0  0  0  0  0  0  0  0  # atno 17371 bound_to 10713
  140.6276  134.5297  157.5555 LP  0  0  0  0  0  0  0  0  0  0  0  0  # atno 17394 bound_to 11000
  139.9259  134.8057  156.1071 LP  0  0  0  0  0  0  0  0  0  0  0  0  # atno 17395 bound_to 11000

$$$$
