AV-unprocessed.smi:1207|AV-procd|sdf|5055|dock2
  -GOLD-   22720 4 83D 1   1.00000     0.00000
 Structure written by MMmdl.
 52 54  0  0  0  0  0  0  0  0  2 V2000
  152.4401  144.6378  160.2018 C   0  0  0  0  0  0  0  0  0  0  0  0
  152.2071  143.4482  159.2861 C   0  0  0  0  0  0  0  0  0  0  0  0
  151.3716  143.6179  158.1589 C   0  0  0  0  0  0  0  0  0  0  0  0
  151.1828  142.5131  157.3371 C   0  0  0  0  0  0  0  0  0  0  0  0
  150.4345  142.3575  156.1678 N   0  3  0  0  0  0  0  0  0  0  0  0
  150.5628  141.0799  155.7129 C   0  0  0  0  0  0  0  0  0  0  0  0
  151.3811  140.4186  156.5754 N   0  0  0  0  0  0  0  0  0  0  0  0
  151.8548  139.0287  156.5511 C   0  0  0  0  0  0  0  0  0  0  0  0
  152.3905  138.6041  155.1699 C   0  0  2  0  0  0  0  0  0  0  0  0
  153.2156  139.6320  154.6582 O   0  0  0  0  0  0  0  0  0  0  0  0
  151.2449  138.3559  154.1673 C   0  0  0  0  0  0  0  0  0  0  0  0
  150.1818  137.4662  154.6397 N   0  0  0  0  0  0  0  0  0  0  0  0
  149.1851  138.2317  155.3838 C   0  0  0  0  0  0  0  0  0  0  0  0
  150.7053  136.3647  155.4552 C   0  0  0  0  0  0  0  0  0  0  0  0
  149.6331  135.4121  155.9182 C   0  0  0  0  0  0  0  0  0  0  0  0
  148.9472  135.4061  157.1663 C   0  0  0  0  0  0  0  0  0  0  0  0
  149.1161  136.3445  158.3264 C   0  0  0  0  0  0  0  0  0  0  0  0
  148.0654  134.4233  157.2413 N   0  0  0  0  0  0  0  0  0  0  0  0
  148.1485  133.7411  156.0235 O   0  0  0  0  0  0  0  0  0  0  0  0
  149.0876  134.3481  155.2538 C   0  0  0  0  0  0  0  0  0  0  0  0
  149.3279  133.7583  153.9052 C   0  0  0  0  0  0  0  0  0  0  0  0
  151.7899  141.2713  157.6055 C   0  0  0  0  0  0  0  0  0  0  0  0
  152.6121  141.0848  158.7137 C   0  0  0  0  0  0  0  0  0  0  0  0
  152.8190  142.1973  159.5601 C   0  0  0  0  0  0  0  0  0  0  0  0
  153.7162  142.0261  160.7741 C   0  0  0  0  0  0  0  0  0  0  0  0
  151.8962  145.5183  159.8584 H   0  0  0  0  0  0  0  0  0  0  0  0
  153.4996  144.8930  160.2350 H   0  0  0  0  0  0  0  0  0  0  0  0
  152.1051  144.4136  161.2150 H   0  0  0  0  0  0  0  0  0  0  0  0
  150.9028  144.5671  157.9440 H   0  0  0  0  0  0  0  0  0  0  0  0
  150.1040  140.6675  154.8257 H   0  0  0  0  0  0  0  0  0  0  0  0
  152.6207  138.9150  157.3196 H   0  0  0  0  0  0  0  0  0  0  0  0
  151.0201  138.3916  156.8476 H   0  0  0  0  0  0  0  0  0  0  0  0
  153.0055  137.7152  155.2944 H   0  0  0  0  0  0  0  0  0  0  0  0
  152.6658  140.2600  154.2141 H   0  0  0  0  0  0  0  0  0  0  0  0
  150.8008  139.3106  153.8808 H   0  0  0  0  0  0  0  0  0  0  0  0
  151.6837  137.9546  153.2521 H   0  0  0  0  0  0  0  0  0  0  0  0
  148.3464  137.6041  155.6858 H   0  0  0  0  0  0  0  0  0  0  0  0
  148.7775  139.0363  154.7708 H   0  0  0  0  0  0  0  0  0  0  0  0
  149.6181  138.6756  156.2811 H   0  0  0  0  0  0  0  0  0  0  0  0
  151.4442  135.7991  154.8915 H   0  0  0  0  0  0  0  0  0  0  0  0
  151.2535  136.7738  156.3051 H   0  0  0  0  0  0  0  0  0  0  0  0
  150.0924  136.2130  158.7928 H   0  0  0  0  0  0  0  0  0  0  0  0
  148.3582  136.1821  159.0936 H   0  0  0  0  0  0  0  0  0  0  0  0
  149.0397  137.3824  158.0018 H   0  0  0  0  0  0  0  0  0  0  0  0
  149.7776  134.4887  153.2324 H   0  0  0  0  0  0  0  0  0  0  0  0
  148.3934  133.4200  153.4573 H   0  0  0  0  0  0  0  0  0  0  0  0
  149.9998  132.9030  153.9737 H   0  0  0  0  0  0  0  0  0  0  0  0
  153.0781  140.1326  158.9198 H   0  0  0  0  0  0  0  0  0  0  0  0
  154.1054  141.0099  160.8427 H   0  0  0  0  0  0  0  0  0  0  0  0
  153.1641  142.2335  161.6910 H   0  0  0  0  0  0  0  0  0  0  0  0
  154.5674  142.7053  160.7202 H   0  0  0  0  0  0  0  0  0  0  0  0
  149.8793  143.0689  155.7099 H   0  0  0  0  0  0  0  0  0  0  0  0
  1  2  1  0  0  0  0
  1 26  1  0  0  0  0
  1 27  1  0  0  0  0
  1 28  1  0  0  0  0
  2 24  1  0  0  0  0
  2  3  2  0  0  0  0
  3  4  1  0  0  0  0
  3 29  1  0  0  0  0
  4 22  2  0  0  0  0
  4  5  1  0  0  0  0
  5  6  2  0  0  0  0
  5 52  1  0  0  0  0
  6  7  1  0  0  0  0
  6 30  1  0  0  0  0
  7  8  1  0  0  0  0
  7 22  1  0  0  0  0
  8  9  1  0  0  0  0
  8 31  1  0  0  0  0
  8 32  1  0  0  0  0
  9 10  1  0  0  0  0
  9 11  1  0  0  0  0
  9 33  1  0  0  0  0
 10 34  1  0  0  0  0
 11 12  1  0  0  0  0
 11 35  1  0  0  0  0
 11 36  1  0  0  0  0
 12 13  1  0  0  0  0
 12 14  1  0  0  0  0
 13 37  1  0  0  0  0
 13 38  1  0  0  0  0
 13 39  1  0  0  0  0
 14 15  1  0  0  0  0
 14 40  1  0  0  0  0
 14 41  1  0  0  0  0
 15 20  2  0  0  0  0
 15 16  1  0  0  0  0
 16 17  1  0  0  0  0
 16 18  2  0  0  0  0
 17 42  1  0  0  0  0
 17 43  1  0  0  0  0
 17 44  1  0  0  0  0
 18 19  1  0  0  0  0
 19 20  1  0  0  0  0
 20 21  1  0  0  0  0
 21 45  1  0  0  0  0
 21 46  1  0  0  0  0
 21 47  1  0  0  0  0
 22 23  1  0  0  0  0
 23 24  2  0  0  0  0
 23 48  1  0  0  0  0
 24 25  1  0  0  0  0
 25 49  1  0  0  0  0
 25 50  1  0  0  0  0
 25 51  1  0  0  0  0
M  CHG  1   5   1
M  END
> <s_m_source_file>
AV-unprocessed.smi

> <i_m_source_file_index>
1207

> <i_lp_mmshare_version>
43012

> <i_f3d_flags>
0

> <s_epik_input>
W0NIM11jKFtjSF0xKWMoW0NIM10pW2NIXWMoYzEyKW4oW2NIXW4yKVtDSDJdW0NASF0oW09IXSlbQ0gyXU4oW0NIM10pW0NIMl1jM2MoW0NIM10pbm9jM1tDSDNd

> <s_epik_cmdline>
J2VwaWtfcHl0aG9uJywgJy1waCcsICc3LjAnLCAnLXRuJywgJzgnLCAnLW1hJywgJzIwMCcsICctbWV0YWxfYmluZGluZycsICctaW1hZScsICc8aW5maWxlLm1hZT4nLCAnLW9tYWUnLCAnPG91dGZpbGUubWFlPic=

> <r_epik_Ionization_Penalty>
1.48114

> <r_epik_Ionization_Penalty_Charging>
1.21121

> <r_epik_Ionization_Penalty_Neutral>
0.269933

> <r_epik_State_Penalty>
1.53013

> <r_epik_Charging_Adjusted_Penalty>
2.74134

> <i_epik_Tot_Q>
1

> <i_epik_Tot_abs_Q>
1

> <r_epik_Metal_State_Penalty>
1.60462

> <b_epik_Metal_Only>
0

> <s_lp_Force_Field>
OPLS_2005

> <r_lp_Energy>
21.4613

> <b_lp_Chiralities_Consistent>
1

> <s_lp_Variant>
AV-unprocessed.smi:1207-7

> <Gold.Version>
5.8.1

> <Gold.Id.Protein>
6NUR|6NUR_protein|mol2

> <Gold.PLP.Fitness>
56.7143

> <Gold.PLP.PLP>
-49.1110

> <Gold.PLP.part.hbond>
-3.0000

> <Gold.PLP.part.metal>
0.0000

> <Gold.PLP.part.buried>
-7.1741

> <Gold.PLP.part.nonpolar>
-39.7497

> <Gold.PLP.part.repulsive>
0.3007

> <Gold.PLP.ligand.clash>
0.0000

> <Gold.PLP.ligand.torsion>
0.8944

> <Gold.PLP.Chemscore.Hbond>
2.9840

> <Gold.PLP.Chemscore.CHOScore>
0.0000

> <Gold.PLP.Chemscore.Metal>
0.0000

> <Gold.Chemscore.Hbonds>
donor molecule, donor type, donor heavy atom, donor atom, acceptor molecule, acceptor atom, score
      L1  H     5    52       P1  8028  2.00
      P1  H  7997  8009       L1    10  1.00

> <Gold.PLP.Chemscore.Internal.Correction>
0.4402

> <Gold.Rescore>
     Score         DG    S(hbond)    S(metal)    S(lipo)     H(rot)  DE(clash)    DE(int)     intcor
     19.34     -20.28       1.96        0.00     124.41       2.46       0.00       0.94       ----

> <Gold.Chemscore.Fitness>
19.3374

> <Gold.Chemscore.DG>
-20.2816

> <Gold.Chemscore.ZeroCoef>
-5.4800

> <Gold.Chemscore.Hbond>
1.9554

> <Gold.Chemscore.Metal>
0.0000

> <Gold.Chemscore.Lipo>
124.4142

> <Gold.Chemscore.Internal_Hbond>
0.0000

> <Gold.Chemscore.DEClash>
0.0000

> <Gold.Chemscore.DEInternal>
0.9442

> <Gold.Chemscore.Rot>
2.4555

> <Gold.Chemscore.Internal.Correction>
   9.000000E+99

> <Gold.Chemscore.Hbonds>
donor molecule, donor type, donor heavy atom, donor atom, acceptor molecule, acceptor atom, score
      L1  H     5    52       P1  8028  0.97
      P1  H  7997  8009       L1    10  0.86

> <Gold.Chemscore.Hbond.Weighted>
-6.5312

> <Gold.Chemscore.Metal.Weighted>
-0.0000

> <Gold.Chemscore.Lipo.Weighted>
-14.5565

> <Gold.Chemscore.Internal_Hbond.Weighted>
0.0000

> <Gold.Chemscore.DEClash.Weighted>
0.0000

> <Gold.Chemscore.DEInternal.Weighted>
0.9442

> <Gold.Chemscore.Rot.Weighted>
6.2861

> <Gold.Chemscore.Internal.Correction.Weighted>
   9.000000E+99

> <Gold.Protein.RotatedTorsions>
[ 6907 6896 6895 6894 ] final -166.47 input  -60.11 | X-H torsion
[ 7974 7965 7964 7962 ] final -150.99 input  175.53 | X-H torsion
[ 8008 7997 7996 7995 ] final -131.92 input   59.86 | X-H torsion
[ 10167 10162 10161 10158 ] final  102.32 input  -65.29 | X-H torsion
[ 10718 10713 10712 10709 ] final -174.71 input   66.30 | X-H torsion
[ 10763 10752 10751 10750 ] final -179.45 input  -60.55 | X-H torsion
[ 11005 11000 10999 10996 ] final  164.73 input  -57.11 | X-H torsion

> <Gold.Protein.ActiveResidues>
 VAL166  LYS551  ARG553  GLY616  TRP617  ASP618  TYR619  PRO620  LYS621  CYS622 
 ASP623  PHE694  ASN695  SER759  ASP760  ASP761  ALA762  ILE779  LEU786  VAL792 
 PHE793  MET794  SER795  GLU796  ALA797  LYS798  CYS799  TRP800  GLU811  SER814 

> <Gold.Protein.RotatedAtoms>
  151.4441  133.3635  159.2785 H   0  0  0  0  0  0  0  0  0  0  0  0  # atno 6907 bound_to 6896
  150.9137  134.8556  159.7453 H   0  0  0  0  0  0  0  0  0  0  0  0  # atno 6908 bound_to 6896
  152.4946  134.4373  159.9584 H   0  0  0  0  0  0  0  0  0  0  0  0  # atno 6909 bound_to 6896
  144.7876  140.4858  143.5795 H   0  0  0  0  0  0  0  0  0  0  0  0  # atno 7974 bound_to 7965
  155.3204  140.0462  157.3039 H   0  0  0  0  0  0  0  0  0  0  0  0  # atno 8008 bound_to 7997
  154.5383  140.2279  155.8650 H   0  0  0  0  0  0  0  0  0  0  0  0  # atno 8009 bound_to 7997
  156.1856  140.3063  155.9239 H   0  0  0  0  0  0  0  0  0  0  0  0  # atno 8010 bound_to 7997
  139.7360  144.7024  151.0648 H   0  0  0  0  0  0  0  0  0  0  0  0  # atno 10167 bound_to 10162
  156.7892  130.9511  151.3120 H   0  0  0  0  0  0  0  0  0  0  0  0  # atno 10718 bound_to 10713
  154.5349  135.2802  155.1147 H   0  0  0  0  0  0  0  0  0  0  0  0  # atno 10763 bound_to 10752
  154.2653  135.6314  153.5293 H   0  0  0  0  0  0  0  0  0  0  0  0  # atno 10764 bound_to 10752
  152.9965  135.5615  154.5873 H   0  0  0  0  0  0  0  0  0  0  0  0  # atno 10765 bound_to 10752
  140.2489  134.7993  157.3482 H   0  0  0  0  0  0  0  0  0  0  0  0  # atno 11005 bound_to 11000
  145.5881  139.1493  143.3198 LP  0  0  0  0  0  0  0  0  0  0  0  0  # atno 17320 bound_to 7965
  146.2114  140.6008  142.9058 LP  0  0  0  0  0  0  0  0  0  0  0  0  # atno 17321 bound_to 7965
  140.7779  143.4983  150.9804 LP  0  0  0  0  0  0  0  0  0  0  0  0  # atno 17342 bound_to 10162
  139.8672  143.7239  152.3169 LP  0  0  0  0  0  0  0  0  0  0  0  0  # atno 17343 bound_to 10162
  157.6609  130.8965  149.9828 LP  0  0  0  0  0  0  0  0  0  0  0  0  # atno 17370 bound_to 10713
  156.1170  130.3647  149.9952 LP  0  0  0  0  0  0  0  0  0  0  0  0  # atno 17371 bound_to 10713
  140.1578  134.4767  155.7915 LP  0  0  0  0  0  0  0  0  0  0  0  0  # atno 17394 bound_to 11000
  141.2203  133.6889  156.7492 LP  0  0  0  0  0  0  0  0  0  0  0  0  # atno 17395 bound_to 11000

$$$$
