AV-unprocessed.smi:1629|AV-procd|sdf|6522|dock10
  -GOLD-   22720 7203D 1   1.00000     0.00000
 Structure written by MMmdl.
 45 46  0  0  0  0  0  0  0  0  2 V2000
  145.3501  135.4847  151.8834 C   0  0  0  0  0  0  0  0  0  0  0  0
  145.7170  134.2508  153.1949 S   0  0  0  0  0  0  0  0  0  0  0  0
  145.1041  134.6975  154.4549 O   0  0  0  0  0  0  0  0  0  0  0  0
  145.4268  132.9107  152.6622 O   0  0  0  0  0  0  0  0  0  0  0  0
  147.4291  134.3981  153.3682 N   0  0  0  0  0  0  0  0  0  0  0  0
  147.9888  134.7919  154.6642 C   0  0  0  0  0  0  0  0  0  0  0  0
  147.6535  136.2662  154.9809 C   0  0  0  0  0  0  0  0  0  0  0  0
  148.3882  136.7404  156.2480 C   0  0  0  0  0  0  0  0  0  0  0  0
  149.8359  136.5330  156.0695 N   0  0  0  0  0  0  0  0  0  0  0  0
  150.7623  137.4989  155.8448 C   0  0  0  0  0  0  0  0  0  0  0  0
  151.8866  137.2670  155.3979 O   0  0  0  0  0  0  0  0  0  0  0  0
  150.3805  138.7378  156.1957 N   0  0  0  0  0  0  0  0  0  0  0  0
  151.2217  139.9220  156.0917 C   0  0  0  0  0  0  0  0  0  0  0  0
  150.4427  141.1792  156.5014 C   0  0  0  0  0  0  0  0  0  0  0  0
  151.1543  141.9650  157.5862 C   0  0  0  0  0  0  0  0  0  0  0  0
  151.9149  141.3332  158.5941 C   0  0  0  0  0  0  0  0  0  0  0  0
  152.5603  142.1236  159.5681 C   0  0  0  0  0  0  0  0  0  0  0  0
  152.4326  143.5270  159.5134 C   0  0  0  0  0  0  0  0  0  0  0  0
  151.6630  144.1056  158.4836 C   0  0  0  0  0  0  0  0  0  0  0  0
  151.0603  143.3146  157.5686 N   0  3  0  0  0  0  0  0  0  0  0  0
  150.1576  135.1053  155.9461 C   0  0  0  0  0  0  0  0  0  0  0  0
  149.5121  134.5528  154.6628 C   0  0  0  0  0  0  0  0  0  0  0  0
  144.2811  135.4814  151.6715 H   0  0  0  0  0  0  0  0  0  0  0  0
  145.8989  135.2268  150.9776 H   0  0  0  0  0  0  0  0  0  0  0  0
  145.6499  136.4767  152.2205 H   0  0  0  0  0  0  0  0  0  0  0  0
  147.8262  134.9550  152.6118 H   0  0  0  0  0  0  0  0  0  0  0  0
  147.5508  134.1598  155.4376 H   0  0  0  0  0  0  0  0  0  0  0  0
  147.9370  136.9014  154.1404 H   0  0  0  0  0  0  0  0  0  0  0  0
  146.5782  136.3892  155.1142 H   0  0  0  0  0  0  0  0  0  0  0  0
  148.1105  137.7714  156.4654 H   0  0  0  0  0  0  0  0  0  0  0  0
  148.0498  136.1631  157.1096 H   0  0  0  0  0  0  0  0  0  0  0  0
  149.4512  138.8605  156.5709 H   0  0  0  0  0  0  0  0  0  0  0  0
  152.0963  139.8030  156.7337 H   0  0  0  0  0  0  0  0  0  0  0  0
  151.5831  140.0166  155.0665 H   0  0  0  0  0  0  0  0  0  0  0  0
  150.2919  141.8260  155.6357 H   0  0  0  0  0  0  0  0  0  0  0  0
  149.4487  140.9032  156.8564 H   0  0  0  0  0  0  0  0  0  0  0  0
  152.0064  140.2570  158.6207 H   0  0  0  0  0  0  0  0  0  0  0  0
  153.1471  141.6592  160.3471 H   0  0  0  0  0  0  0  0  0  0  0  0
  152.9188  144.1500  160.2502 H   0  0  0  0  0  0  0  0  0  0  0  0
  151.5127  145.1688  158.3648 H   0  0  0  0  0  0  0  0  0  0  0  0
  151.2318  134.9152  155.9349 H   0  0  0  0  0  0  0  0  0  0  0  0
  149.7744  134.5724  156.8175 H   0  0  0  0  0  0  0  0  0  0  0  0
  149.7246  133.4873  154.5687 H   0  0  0  0  0  0  0  0  0  0  0  0
  149.9654  135.0370  153.7962 H   0  0  0  0  0  0  0  0  0  0  0  0
  150.5091  143.7555  156.8318 H   0  0  0  0  0  0  0  0  0  0  0  0
  1  2  1  0  0  0  0
  1 23  1  0  0  0  0
  1 24  1  0  0  0  0
  1 25  1  0  0  0  0
  2  3  2  0  0  0  0
  2  4  2  0  0  0  0
  2  5  1  0  0  0  0
  5  6  1  0  0  0  0
  5 26  1  0  0  0  0
  6 22  1  0  0  0  0
  6  7  1  0  0  0  0
  6 27  1  0  0  0  0
  7  8  1  0  0  0  0
  7 28  1  0  0  0  0
  7 29  1  0  0  0  0
  8  9  1  0  0  0  0
  8 30  1  0  0  0  0
  8 31  1  0  0  0  0
  9 10  1  0  0  0  0
  9 21  1  0  0  0  0
 10 11  2  0  0  0  0
 10 12  1  0  0  0  0
 12 13  1  0  0  0  0
 12 32  1  0  0  0  0
 13 14  1  0  0  0  0
 13 33  1  0  0  0  0
 13 34  1  0  0  0  0
 14 15  1  0  0  0  0
 14 35  1  0  0  0  0
 14 36  1  0  0  0  0
 15 20  1  0  0  0  0
 15 16  2  0  0  0  0
 16 17  1  0  0  0  0
 16 37  1  0  0  0  0
 17 18  2  0  0  0  0
 17 38  1  0  0  0  0
 18 19  1  0  0  0  0
 18 39  1  0  0  0  0
 19 20  2  0  0  0  0
 19 40  1  0  0  0  0
 20 45  1  0  0  0  0
 21 22  1  0  0  0  0
 21 41  1  0  0  0  0
 21 42  1  0  0  0  0
 22 43  1  0  0  0  0
 22 44  1  0  0  0  0
M  CHG  1  20   1
M  END
> <s_m_source_file>
AV-unprocessed.smi

> <i_m_source_file_index>
1629

> <i_lp_mmshare_version>
43012

> <i_f3d_flags>
0

> <s_epik_input>
W0NIM11TKD1PKSg9TylbTkhdW0NIXTFbQ0gyXVtDSDJdTihbQ0gyXVtDSDJdMSlDKD1PKVtOSF1bQ0gyXVtDSDJdYzJbY0hdW2NIXVtjSF1bY0hdbjI=

> <s_epik_cmdline>
J2VwaWtfcHl0aG9uJywgJy1waCcsICc3LjAnLCAnLXRuJywgJzgnLCAnLW1hJywgJzIwMCcsICctbWV0YWxfYmluZGluZycsICctaW1hZScsICc8aW5maWxlLm1hZT4nLCAnLW9tYWUnLCAnPG91dGZpbGUubWFlPic=

> <r_epik_Ionization_Penalty>
1.55223

> <r_epik_Ionization_Penalty_Charging>
1.55216

> <r_epik_Ionization_Penalty_Neutral>
6.06433e-05

> <r_epik_State_Penalty>
1.64647

> <r_epik_Charging_Adjusted_Penalty>
3.19864

> <i_epik_Tot_Q>
1

> <i_epik_Tot_abs_Q>
1

> <r_epik_Metal_State_Penalty>
1.69511

> <b_epik_Metal_Only>
0

> <s_lp_Force_Field>
OPLS_2005

> <r_lp_Energy>
29.0489

> <b_lp_Chiralities_Consistent>
1

> <s_lp_Variant>
AV-unprocessed.smi:1629-2

> <Gold.Version>
5.8.1

> <Gold.Id.Protein>
6NUR|6NUR_protein|mol2

> <Gold.PLP.Fitness>
46.0097

> <Gold.PLP.PLP>
-36.4952

> <Gold.PLP.part.hbond>
-3.0000

> <Gold.PLP.part.metal>
0.0000

> <Gold.PLP.part.buried>
-4.1502

> <Gold.PLP.part.nonpolar>
-28.9824

> <Gold.PLP.part.repulsive>
0.2840

> <Gold.PLP.ligand.clash>
0.0000

> <Gold.PLP.ligand.torsion>
0.9132

> <Gold.PLP.Chemscore.Hbond>
3.7296

> <Gold.PLP.Chemscore.CHOScore>
0.0000

> <Gold.PLP.Chemscore.Metal>
0.0000

> <Gold.Chemscore.Hbonds>
donor molecule, donor type, donor heavy atom, donor atom, acceptor molecule, acceptor atom, score
      L1  H     5    26       P1  7948  1.00
      L1  H    20    45       P1  8028  1.11
      P1  H 10752 10765       L1    11  0.75

> <Gold.PLP.Chemscore.Internal.Correction>
0.1523

> <Gold.Rescore>
     Score         DG    S(hbond)    S(metal)    S(lipo)     H(rot)  DE(clash)    DE(int)     intcor
     17.11     -18.77       2.50        0.00      89.00       2.13       0.01       1.65       ----

> <Gold.Chemscore.Fitness>
17.1110

> <Gold.Chemscore.DG>
-18.7749

> <Gold.Chemscore.ZeroCoef>
-5.4800

> <Gold.Chemscore.Hbond>
2.4974

> <Gold.Chemscore.Metal>
0.0000

> <Gold.Chemscore.Lipo>
89.0005

> <Gold.Chemscore.Internal_Hbond>
0.0000

> <Gold.Chemscore.DEClash>
0.0111

> <Gold.Chemscore.DEInternal>
1.6528

> <Gold.Chemscore.Rot>
2.1326

> <Gold.Chemscore.Internal.Correction>
   9.000000E+99

> <Gold.Chemscore.Hbonds>
donor molecule, donor type, donor heavy atom, donor atom, acceptor molecule, acceptor atom, score
      L1  H     5    26       P1  7948  0.93
      L1  H    20    45       P1  8028  0.56
      P1  H 10752 10765       L1    11  0.71

> <Gold.Chemscore.Hbond.Weighted>
-8.3414

> <Gold.Chemscore.Metal.Weighted>
-0.0000

> <Gold.Chemscore.Lipo.Weighted>
-10.4131

> <Gold.Chemscore.Internal_Hbond.Weighted>
0.0000

> <Gold.Chemscore.DEClash.Weighted>
0.0111

> <Gold.Chemscore.DEInternal.Weighted>
1.6528

> <Gold.Chemscore.Rot.Weighted>
5.4595

> <Gold.Chemscore.Internal.Correction.Weighted>
   9.000000E+99

> <Gold.Protein.RotatedTorsions>
[ 6907 6896 6895 6894 ] final    8.48 input  -60.11 | X-H torsion
[ 7974 7965 7964 7962 ] final   93.99 input  175.53 | X-H torsion
[ 8008 7997 7996 7995 ] final   59.37 input   59.86 | X-H torsion
[ 10167 10162 10161 10158 ] final  -64.67 input  -65.29 | X-H torsion
[ 10718 10713 10712 10709 ] final   15.15 input   66.30 | X-H torsion
[ 10763 10752 10751 10750 ] final -177.00 input  -60.55 | X-H torsion
[ 11005 11000 10999 10996 ] final  156.81 input  -57.11 | X-H torsion

> <Gold.Protein.ActiveResidues>
 VAL166  LYS551  ARG553  GLY616  TRP617  ASP618  TYR619  PRO620  LYS621  CYS622 
 ASP623  PHE694  ASN695  SER759  ASP760  ASP761  ALA762  ILE779  LEU786  VAL792 
 PHE793  MET794  SER795  GLU796  ALA797  LYS798  CYS799  TRP800  GLU811  SER814 

> <Gold.Protein.RotatedAtoms>
  151.7067  135.0920  160.0260 H   0  0  0  0  0  0  0  0  0  0  0  0  # atno 6907 bound_to 6896
  152.3687  133.6386  159.6079 H   0  0  0  0  0  0  0  0  0  0  0  0  # atno 6908 bound_to 6896
  150.7657  133.9222  159.3443 H   0  0  0  0  0  0  0  0  0  0  0  0  # atno 6909 bound_to 6896
  145.4716  139.2282  143.2932 H   0  0  0  0  0  0  0  0  0  0  0  0  # atno 7974 bound_to 7965
  155.5650  140.3489  155.4501 H   0  0  0  0  0  0  0  0  0  0  0  0  # atno 8008 bound_to 7997
  156.0486  140.1312  157.0101 H   0  0  0  0  0  0  0  0  0  0  0  0  # atno 8009 bound_to 7997
  154.4424  140.1009  156.6328 H   0  0  0  0  0  0  0  0  0  0  0  0  # atno 8010 bound_to 7997
  140.5784  143.2324  151.6393 H   0  0  0  0  0  0  0  0  0  0  0  0  # atno 10167 bound_to 10162
  157.0494  130.6263  149.5765 H   0  0  0  0  0  0  0  0  0  0  0  0  # atno 10718 bound_to 10713
  154.5655  135.2823  155.0878 H   0  0  0  0  0  0  0  0  0  0  0  0  # atno 10763 bound_to 10752
  154.2271  135.6381  153.5167 H   0  0  0  0  0  0  0  0  0  0  0  0  # atno 10764 bound_to 10752
  153.0041  135.5528  154.6262 H   0  0  0  0  0  0  0  0  0  0  0  0  # atno 10765 bound_to 10752
  140.1710  134.8543  157.2690 H   0  0  0  0  0  0  0  0  0  0  0  0  # atno 11005 bound_to 11000
  146.2393  140.5494  142.8941 LP  0  0  0  0  0  0  0  0  0  0  0  0  # atno 17320 bound_to 7965
  144.7942  140.6090  143.6521 LP  0  0  0  0  0  0  0  0  0  0  0  0  # atno 17321 bound_to 7965
  139.5156  144.3374  152.0772 LP  0  0  0  0  0  0  0  0  0  0  0  0  # atno 17342 bound_to 10162
  140.2520  144.4158  150.6218 LP  0  0  0  0  0  0  0  0  0  0  0  0  # atno 17343 bound_to 10162
  156.0012  130.5092  150.7671 LP  0  0  0  0  0  0  0  0  0  0  0  0  # atno 17370 bound_to 10713
  157.5042  131.0921  151.0277 LP  0  0  0  0  0  0  0  0  0  0  0  0  # atno 17371 bound_to 10713
  140.2377  134.3833  155.7494 LP  0  0  0  0  0  0  0  0  0  0  0  0  # atno 17394 bound_to 11000
  141.2217  133.7248  156.8740 LP  0  0  0  0  0  0  0  0  0  0  0  0  # atno 17395 bound_to 11000

$$$$
