AV-unprocessed.smi:2119|AV-procd|sdf|8633|dock7
  -GOLD-   2272011383D 1   1.00000     0.00000
 Structure written by MMmdl.
 47 49  0  0  0  0  0  0  0  0  1 V2000
  150.9834  141.0107  156.8628 O   0  0  0  0  0  0  0  0  0  0  0  0
  150.3700  142.0144  156.5017 C   0  0  0  0  0  0  0  0  0  0  0  0
  149.6477  142.0764  155.3748 N   0  0  0  0  0  0  0  0  0  0  0  0
  149.5209  141.0051  154.3933 C   0  0  0  0  0  0  0  0  0  0  0  0
  149.1571  139.6435  155.0490 C   0  0  1  0  0  0  0  0  0  0  0  0
  148.2976  138.7465  154.1092 C   0  0  1  0  0  0  0  0  0  0  0  0
  147.3330  137.8254  154.8405 C   0  0  0  0  0  0  0  0  0  0  0  0
  146.3608  137.4349  153.7362 C   0  0  0  0  0  0  0  0  0  0  0  0
  146.2238  138.6047  152.9421 O   0  0  0  0  0  0  0  0  0  0  0  0
  147.3194  139.4836  153.1818 C   0  0  0  0  0  0  0  0  0  0  0  0
  150.3253  138.9149  155.5755 N   0  0  0  0  0  0  0  0  0  0  0  0
  151.4406  138.8179  154.6377 C   0  0  0  0  0  0  0  0  0  0  0  0
  152.6763  138.1826  155.2974 C   0  0  0  0  0  0  0  0  0  0  0  0
  152.3318  136.9048  155.8244 O   0  0  0  0  0  0  0  0  0  0  0  0
  151.2777  136.9679  156.7806 C   0  0  0  0  0  0  0  0  0  0  0  0
  150.0301  137.5974  156.1373 C   0  0  0  0  0  0  0  0  0  0  0  0
  150.3183  143.1782  157.1717 N   0  0  0  0  0  0  0  0  0  0  0  0
  150.9927  143.5446  158.3678 C   0  0  0  0  0  0  0  0  0  0  0  0
  151.9769  142.6657  158.8654 C   0  0  0  0  0  0  0  0  0  0  0  0
  152.6471  142.9905  160.0600 C   0  0  0  0  0  0  0  0  0  0  0  0
  152.2988  144.1851  160.7192 C   0  0  0  0  0  0  0  0  0  0  0  0
  151.3505  145.0311  160.2653 N   0  0  0  0  0  0  0  0  0  0  0  0
  150.7122  144.7141  159.1179 C   0  0  0  0  0  0  0  0  0  0  0  0
  149.1662  142.9389  155.1674 H   0  0  0  0  0  0  0  0  0  0  0  0
  148.7746  141.2595  153.6389 H   0  0  0  0  0  0  0  0  0  0  0  0
  150.4765  140.9531  153.8741 H   0  0  0  0  0  0  0  0  0  0  0  0
  148.5241  139.8684  155.9088 H   0  0  0  0  0  0  0  0  0  0  0  0
  148.9504  138.1308  153.4885 H   0  0  0  0  0  0  0  0  0  0  0  0
  147.8213  136.9597  155.2894 H   0  0  0  0  0  0  0  0  0  0  0  0
  146.8080  138.3681  155.6281 H   0  0  0  0  0  0  0  0  0  0  0  0
  146.7827  136.6390  153.1211 H   0  0  0  0  0  0  0  0  0  0  0  0
  145.3990  137.0960  154.1212 H   0  0  0  0  0  0  0  0  0  0  0  0
  146.9301  140.3842  153.6579 H   0  0  0  0  0  0  0  0  0  0  0  0
  147.7846  139.7733  152.2394 H   0  0  0  0  0  0  0  0  0  0  0  0
  151.1621  138.2165  153.7731 H   0  0  0  0  0  0  0  0  0  0  0  0
  151.7002  139.8087  154.2632 H   0  0  0  0  0  0  0  0  0  0  0  0
  153.4765  138.0636  154.5669 H   0  0  0  0  0  0  0  0  0  0  0  0
  153.0611  138.8208  156.0945 H   0  0  0  0  0  0  0  0  0  0  0  0
  151.0549  135.9614  157.1344 H   0  0  0  0  0  0  0  0  0  0  0  0
  151.5980  137.5484  157.6470 H   0  0  0  0  0  0  0  0  0  0  0  0
  149.2437  137.6683  156.8879 H   0  0  0  0  0  0  0  0  0  0  0  0
  149.6614  136.9309  155.3569 H   0  0  0  0  0  0  0  0  0  0  0  0
  149.6998  143.8807  156.7934 H   0  0  0  0  0  0  0  0  0  0  0  0
  152.2194  141.7539  158.3393 H   0  0  0  0  0  0  0  0  0  0  0  0
  153.4087  142.3391  160.4623 H   0  0  0  0  0  0  0  0  0  0  0  0
  152.7914  144.4657  161.6384 H   0  0  0  0  0  0  0  0  0  0  0  0
  149.9475  145.4151  158.8227 H   0  0  0  0  0  0  0  0  0  0  0  0
  1  2  2  0  0  0  0
  2  3  1  0  0  0  0
  2 17  1  0  0  0  0
  3  4  1  0  0  0  0
  3 24  1  0  0  0  0
  4  5  1  0  0  0  0
  4 25  1  0  0  0  0
  4 26  1  0  0  0  0
  5  6  1  0  0  0  0
  5 11  1  0  0  0  0
  5 27  1  0  0  0  0
  6 10  1  0  0  0  0
  6  7  1  0  0  0  0
  6 28  1  0  0  0  0
  7  8  1  0  0  0  0
  7 29  1  0  0  0  0
  7 30  1  0  0  0  0
  8  9  1  0  0  0  0
  8 31  1  0  0  0  0
  8 32  1  0  0  0  0
  9 10  1  0  0  0  0
 10 33  1  0  0  0  0
 10 34  1  0  0  0  0
 11 16  1  0  0  0  0
 11 12  1  0  0  0  0
 12 13  1  0  0  0  0
 12 35  1  0  0  0  0
 12 36  1  0  0  0  0
 13 14  1  0  0  0  0
 13 37  1  0  0  0  0
 13 38  1  0  0  0  0
 14 15  1  0  0  0  0
 15 16  1  0  0  0  0
 15 39  1  0  0  0  0
 15 40  1  0  0  0  0
 16 41  1  0  0  0  0
 16 42  1  0  0  0  0
 17 18  1  0  0  0  0
 17 43  1  0  0  0  0
 18 23  1  0  0  0  0
 18 19  2  0  0  0  0
 19 20  1  0  0  0  0
 19 44  1  0  0  0  0
 20 21  2  0  0  0  0
 20 45  1  0  0  0  0
 21 22  1  0  0  0  0
 21 46  1  0  0  0  0
 22 23  2  0  0  0  0
 23 47  1  0  0  0  0
M  END
> <s_m_source_file>
AV-unprocessed.smi

> <i_m_source_file_index>
2119

> <i_lp_mmshare_version>
43012

> <i_f3d_flags>
0

> <s_epik_input>
W2NIXTFuW2NIXVtjSF1bY0hdYzFbTkhdQyg9TylbTkhdW0NIMl1bQ0BIXShbQ0BASF0yW0NIMl1bQ0gyXU9bQ0gyXTIpTjNbQ0gyXVtDSDJdT1tDSDJdW0NIMl0z

> <s_epik_cmdline>
J2VwaWtfcHl0aG9uJywgJy1waCcsICc3LjAnLCAnLXRuJywgJzgnLCAnLW1hJywgJzIwMCcsICctbWV0YWxfYmluZGluZycsICctaW1hZScsICc8aW5maWxlLm1hZT4nLCAnLW9tYWUnLCAnPG91dGZpbGUubWFlPic=

> <r_epik_Ionization_Penalty>
0.129787

> <r_epik_Ionization_Penalty_Charging>
0

> <r_epik_Ionization_Penalty_Neutral>
0.129787

> <r_epik_State_Penalty>
0.121311

> <r_epik_Charging_Adjusted_Penalty>
0.121311

> <i_epik_Tot_Q>
0

> <i_epik_Tot_abs_Q>
0

> <r_epik_Metal_State_Penalty>
0.117931

> <b_epik_Metal_Only>
0

> <s_lp_Force_Field>
OPLS_2005

> <r_lp_Energy>
52.557

> <b_lp_Chiralities_Consistent>
1

> <s_lp_Variant>
AV-unprocessed.smi:2119-4

> <Gold.Version>
5.8.1

> <Gold.Id.Protein>
6NUR|6NUR_protein|mol2

> <Gold.PLP.Fitness>
45.4236

> <Gold.PLP.PLP>
-35.7207

> <Gold.PLP.part.hbond>
-3.0000

> <Gold.PLP.part.metal>
0.0000

> <Gold.PLP.part.buried>
-4.9695

> <Gold.PLP.part.nonpolar>
-29.2954

> <Gold.PLP.part.repulsive>
0.6951

> <Gold.PLP.ligand.clash>
0.0000

> <Gold.PLP.ligand.torsion>
1.0748

> <Gold.PLP.Chemscore.Hbond>
2.8880

> <Gold.PLP.Chemscore.CHOScore>
0.9869

> <Gold.PLP.Chemscore.Metal>
0.0000

> <Gold.Chemscore.Hbonds>
donor molecule, donor type, donor heavy atom, donor atom, acceptor molecule, acceptor atom, score
      L1  H     3    24       P1  8028  0.94
      L1  H    17    43       P1  8028  1.00
      P1  H 10752 10765       L1    14  0.93
      L1  C    23    47       P1  8029  0.80

> <Gold.PLP.Chemscore.Internal.Correction>
0.2279

> <Gold.Rescore>
     Score         DG    S(hbond)    S(metal)    S(lipo)     H(rot)  DE(clash)    DE(int)     intcor
     16.60     -23.09       2.73        0.00     108.62       1.65       0.11       6.38       ----

> <Gold.Chemscore.Fitness>
16.5952

> <Gold.Chemscore.DG>
-23.0897

> <Gold.Chemscore.ZeroCoef>
-5.4800

> <Gold.Chemscore.Hbond>
2.7328

> <Gold.Chemscore.Metal>
0.0000

> <Gold.Chemscore.Lipo>
108.6183

> <Gold.Chemscore.Internal_Hbond>
0.0000

> <Gold.Chemscore.DEClash>
0.1108

> <Gold.Chemscore.DEInternal>
6.3837

> <Gold.Chemscore.Rot>
1.6508

> <Gold.Chemscore.Internal.Correction>
   9.000000E+99

> <Gold.Chemscore.Hbonds>
donor molecule, donor type, donor heavy atom, donor atom, acceptor molecule, acceptor atom, score
      L1  H     3    24       P1  8028  0.91
      L1  H    17    43       P1  8028  0.95
      P1  H 10752 10765       L1    14  0.74

> <Gold.Chemscore.Hbond.Weighted>
-9.1275

> <Gold.Chemscore.Metal.Weighted>
-0.0000

> <Gold.Chemscore.Lipo.Weighted>
-12.7083

> <Gold.Chemscore.Internal_Hbond.Weighted>
0.0000

> <Gold.Chemscore.DEClash.Weighted>
0.1108

> <Gold.Chemscore.DEInternal.Weighted>
6.3837

> <Gold.Chemscore.Rot.Weighted>
4.2262

> <Gold.Chemscore.Internal.Correction.Weighted>
   9.000000E+99

> <Gold.Protein.RotatedTorsions>
[ 6907 6896 6895 6894 ] final  -32.36 input  -60.11 | X-H torsion
[ 7974 7965 7964 7962 ] final  -70.96 input  175.53 | X-H torsion
[ 8008 7997 7996 7995 ] final  151.45 input   59.86 | X-H torsion
[ 10167 10162 10161 10158 ] final  129.42 input  -65.29 | X-H torsion
[ 10718 10713 10712 10709 ] final -120.60 input   66.30 | X-H torsion
[ 10763 10752 10751 10750 ] final -162.87 input  -60.55 | X-H torsion
[ 11005 11000 10999 10996 ] final   98.00 input  -57.11 | X-H torsion

> <Gold.Protein.ActiveResidues>
 VAL166  LYS551  ARG553  GLY616  TRP617  ASP618  TYR619  PRO620  LYS621  CYS622 
 ASP623  PHE694  ASN695  SER759  ASP760  ASP761  ALA762  ILE779  LEU786  VAL792 
 PHE793  MET794  SER795  GLU796  ALA797  LYS798  CYS799  TRP800  GLU811  SER814 

> <Gold.Protein.RotatedAtoms>
  151.0797  134.9851  159.8349 H   0  0  0  0  0  0  0  0  0  0  0  0  # atno 6907 bound_to 6896
  152.5418  134.2196  159.8792 H   0  0  0  0  0  0  0  0  0  0  0  0  # atno 6908 bound_to 6896
  151.2226  133.4450  159.2634 H   0  0  0  0  0  0  0  0  0  0  0  0  # atno 6909 bound_to 6896
  145.6842  140.9177  143.0816 H   0  0  0  0  0  0  0  0  0  0  0  0  # atno 7974 bound_to 7965
  156.2673  140.2047  156.6178 H   0  0  0  0  0  0  0  0  0  0  0  0  # atno 8008 bound_to 7997
  154.6781  140.0543  157.0261 H   0  0  0  0  0  0  0  0  0  0  0  0  # atno 8009 bound_to 7997
  155.1040  140.3209  155.4542 H   0  0  0  0  0  0  0  0  0  0  0  0  # atno 8010 bound_to 7997
  139.5478  144.6788  151.4417 H   0  0  0  0  0  0  0  0  0  0  0  0  # atno 10167 bound_to 10162
  156.1270  130.6367  150.9560 H   0  0  0  0  0  0  0  0  0  0  0  0  # atno 10718 bound_to 10713
  154.7175  135.3018  154.9101 H   0  0  0  0  0  0  0  0  0  0  0  0  # atno 10763 bound_to 10752
  153.9983  135.6710  153.4762 H   0  0  0  0  0  0  0  0  0  0  0  0  # atno 10764 bound_to 10752
  153.0805  135.5011  154.8410 H   0  0  0  0  0  0  0  0  0  0  0  0  # atno 10765 bound_to 10752
  139.8774  134.9028  156.4391 H   0  0  0  0  0  0  0  0  0  0  0  0  # atno 11005 bound_to 11000
  144.7016  139.8736  143.7442 LP  0  0  0  0  0  0  0  0  0  0  0  0  # atno 17320 bound_to 7965
  146.0938  139.3929  143.0389 LP  0  0  0  0  0  0  0  0  0  0  0  0  # atno 17321 bound_to 7965
  140.6732  143.8248  150.7025 LP  0  0  0  0  0  0  0  0  0  0  0  0  # atno 17342 bound_to 10162
  140.1678  143.4220  152.2022 LP  0  0  0  0  0  0  0  0  0  0  0  0  # atno 17343 bound_to 10162
  157.6451  131.0905  150.8170 LP  0  0  0  0  0  0  0  0  0  0  0  0  # atno 17370 bound_to 10713
  156.8259  130.4999  149.5337 LP  0  0  0  0  0  0  0  0  0  0  0  0  # atno 17371 bound_to 10713
  140.9012  133.7778  155.9683 LP  0  0  0  0  0  0  0  0  0  0  0  0  # atno 17394 bound_to 11000
  140.8648  134.2797  157.5218 LP  0  0  0  0  0  0  0  0  0  0  0  0  # atno 17395 bound_to 11000

$$$$
