AV-unprocessed.smi:1471|AV-procd|sdf|5962|dock5
  -GOLD-   22720 6 53D 1   1.00000     0.00000
 Structure written by MMmdl.
 42 43  0  0  0  0  0  0  0  0  1 V2000
  147.6503  139.7538  154.0705 C   0  0  0  0  0  0  0  0  0  0  0  0
  148.5733  138.5868  154.2939 C   0  0  0  0  0  0  0  0  0  0  0  0
  149.8155  138.7615  153.9840 N   0  0  0  0  0  0  0  0  0  0  0  0
  150.7576  137.7683  154.1797 N   0  0  0  0  0  0  0  0  0  0  0  0
  152.1305  138.1579  153.8112 C   0  0  0  0  0  0  0  0  0  0  0  0
  152.7424  139.2389  154.7342 C   0  0  2  0  0  0  0  0  0  0  0  0
  154.1440  139.2815  154.5656 O   0  0  0  0  0  0  0  0  0  0  0  0
  152.4237  139.0824  156.2322 C   0  0  0  0  0  0  0  0  0  0  0  0
  152.6902  140.2914  156.9294 O   0  0  0  0  0  0  0  0  0  0  0  0
  151.7546  140.5730  157.9610 C   0  0  0  0  0  0  0  0  0  0  0  0
  151.8576  141.9995  158.4777 C   0  0  0  0  0  0  0  0  0  0  0  0
  151.2052  143.0496  157.7965 C   0  0  0  0  0  0  0  0  0  0  0  0
  151.2919  144.3705  158.2770 C   0  0  0  0  0  0  0  0  0  0  0  0
  152.0434  144.6509  159.4338 C   0  0  0  0  0  0  0  0  0  0  0  0
  152.7056  143.6090  160.1102 C   0  0  0  0  0  0  0  0  0  0  0  0
  152.6083  142.2850  159.6392 C   0  0  0  0  0  0  0  0  0  0  0  0
  153.2351  141.2899  160.3114 F   0  0  0  0  0  0  0  0  0  0  0  0
  150.4731  136.5188  154.6507 C   0  0  0  0  0  0  0  0  0  0  0  0
  151.3288  135.6438  154.7878 O   0  0  0  0  0  0  0  0  0  0  0  0
  149.0597  136.3213  154.9797 C   0  0  0  0  0  0  0  0  0  0  0  0
  148.7215  135.0272  155.4785 C   0  0  0  0  0  0  0  0  0  0  0  0
  148.4379  133.9726  155.8627 N   0  0  0  0  0  0  0  0  0  0  0  0
  148.1362  137.3026  154.8282 C   0  0  0  0  0  0  0  0  0  0  0  0
  146.6613  137.1527  155.1742 C   0  0  0  0  0  0  0  0  0  0  0  0
  146.8962  139.5125  153.3213 H   0  0  0  0  0  0  0  0  0  0  0  0
  148.1886  140.6377  153.7245 H   0  0  0  0  0  0  0  0  0  0  0  0
  147.1375  140.0241  154.9937 H   0  0  0  0  0  0  0  0  0  0  0  0
  152.8040  137.2998  153.8047 H   0  0  0  0  0  0  0  0  0  0  0  0
  152.1176  138.5221  152.7829 H   0  0  0  0  0  0  0  0  0  0  0  0
  152.3778  140.2170  154.4185 H   0  0  0  0  0  0  0  0  0  0  0  0
  154.5097  138.4818  154.9122 H   0  0  0  0  0  0  0  0  0  0  0  0
  151.3868  138.7752  156.3793 H   0  0  0  0  0  0  0  0  0  0  0  0
  153.0442  138.2827  156.6355 H   0  0  0  0  0  0  0  0  0  0  0  0
  150.7544  140.4233  157.5540 H   0  0  0  0  0  0  0  0  0  0  0  0
  151.8517  139.8604  158.7820 H   0  0  0  0  0  0  0  0  0  0  0  0
  150.6297  142.8430  156.9062 H   0  0  0  0  0  0  0  0  0  0  0  0
  150.7845  145.1694  157.7567 H   0  0  0  0  0  0  0  0  0  0  0  0
  152.1119  145.6638  159.8024 H   0  0  0  0  0  0  0  0  0  0  0  0
  153.2808  143.8236  160.9987 H   0  0  0  0  0  0  0  0  0  0  0  0
  146.4202  136.1520  155.5310 H   0  0  0  0  0  0  0  0  0  0  0  0
  146.0395  137.3472  154.2997 H   0  0  0  0  0  0  0  0  0  0  0  0
  146.3820  137.8558  155.9596 H   0  0  0  0  0  0  0  0  0  0  0  0
  1  2  1  0  0  0  0
  1 25  1  0  0  0  0
  1 26  1  0  0  0  0
  1 27  1  0  0  0  0
  2 23  1  0  0  0  0
  2  3  2  0  0  0  0
  3  4  1  0  0  0  0
  4  5  1  0  0  0  0
  4 18  1  0  0  0  0
  5  6  1  0  0  0  0
  5 28  1  0  0  0  0
  5 29  1  0  0  0  0
  6  7  1  0  0  0  0
  6  8  1  0  0  0  0
  6 30  1  0  0  0  0
  7 31  1  0  0  0  0
  8  9  1  0  0  0  0
  8 32  1  0  0  0  0
  8 33  1  0  0  0  0
  9 10  1  0  0  0  0
 10 11  1  0  0  0  0
 10 34  1  0  0  0  0
 10 35  1  0  0  0  0
 11 16  1  0  0  0  0
 11 12  2  0  0  0  0
 12 13  1  0  0  0  0
 12 36  1  0  0  0  0
 13 14  2  0  0  0  0
 13 37  1  0  0  0  0
 14 15  1  0  0  0  0
 14 38  1  0  0  0  0
 15 16  2  0  0  0  0
 15 39  1  0  0  0  0
 16 17  1  0  0  0  0
 18 19  2  0  0  0  0
 18 20  1  0  0  0  0
 20 21  1  0  0  0  0
 20 23  2  0  0  0  0
 21 22  3  0  0  0  0
 23 24  1  0  0  0  0
 24 40  1  0  0  0  0
 24 41  1  0  0  0  0
 24 42  1  0  0  0  0
M  END
> <s_m_source_file>
AV-unprocessed.smi

> <i_m_source_file_index>
1471

> <i_lp_mmshare_version>
43012

> <i_f3d_flags>
0

> <s_epik_input>
TiNDYyhjMVtDSDNdKWMoPU8pbihuYzFbQ0gzXSlbQ0gyXVtDQEhdKFtPSF0pW0NIMl1PW0NIMl1jMltjSF1bY0hdW2NIXVtjSF1jMkY=

> <s_epik_cmdline>
J2VwaWtfcHl0aG9uJywgJy1waCcsICc3LjAnLCAnLXRuJywgJzgnLCAnLW1hJywgJzIwMCcsICctbWV0YWxfYmluZGluZycsICctaW1hZScsICc8aW5maWxlLm1hZT4nLCAnLW9tYWUnLCAnPG91dGZpbGUubWFlPic=

> <r_lp_tautomer_probability>
1

> <r_epik_Ionization_Penalty>
6.13319e-08

> <r_epik_Ionization_Penalty_Charging>
2.19172e-10

> <r_epik_Ionization_Penalty_Neutral>
6.11128e-08

> <r_epik_State_Penalty>
-0

> <r_epik_Charging_Adjusted_Penalty>
2.19172e-10

> <i_epik_Tot_Q>
0

> <i_epik_Tot_abs_Q>
0

> <r_epik_Metal_State_Penalty>
-0

> <b_epik_Metal_Only>
0

> <s_lp_Force_Field>
OPLS_2005

> <r_lp_Energy>
27.5477

> <b_lp_Chiralities_Consistent>
1

> <s_lp_Variant>
AV-unprocessed.smi:1471-1

> <Gold.Version>
5.8.1

> <Gold.Id.Protein>
6NUR|6NUR_protein|mol2

> <Gold.PLP.Fitness>
49.0949

> <Gold.PLP.PLP>
-44.5515

> <Gold.PLP.part.hbond>
-3.0000

> <Gold.PLP.part.metal>
0.0000

> <Gold.PLP.part.buried>
-4.2205

> <Gold.PLP.part.nonpolar>
-38.4177

> <Gold.PLP.part.repulsive>
0.3490

> <Gold.PLP.ligand.clash>
0.0000

> <Gold.PLP.ligand.torsion>
0.9513

> <Gold.PLP.Chemscore.Hbond>
2.1200

> <Gold.PLP.Chemscore.CHOScore>
0.0000

> <Gold.PLP.Chemscore.Metal>
0.0000

> <Gold.Chemscore.Hbonds>
donor molecule, donor type, donor heavy atom, donor atom, acceptor molecule, acceptor atom, score
      P1  H  7997  8008       L1     7  0.58
      P1  H  7997  8010       L1     9  0.44
      P1  H 10752 10763       L1    19  1.00

> <Gold.PLP.Chemscore.Internal.Correction>
0.0861

> <Gold.Rescore>
     Score         DG    S(hbond)    S(metal)    S(lipo)     H(rot)  DE(clash)    DE(int)     intcor
     16.70     -17.65       1.68        0.00     113.93       2.65       0.06       0.90       ----

> <Gold.Chemscore.Fitness>
16.6964

> <Gold.Chemscore.DG>
-17.6540

> <Gold.Chemscore.ZeroCoef>
-5.4800

> <Gold.Chemscore.Hbond>
1.6827

> <Gold.Chemscore.Metal>
0.0000

> <Gold.Chemscore.Lipo>
113.9317

> <Gold.Chemscore.Internal_Hbond>
0.0000

> <Gold.Chemscore.DEClash>
0.0594

> <Gold.Chemscore.DEInternal>
0.8982

> <Gold.Chemscore.Rot>
2.6470

> <Gold.Chemscore.Internal.Correction>
   9.000000E+99

> <Gold.Chemscore.Hbonds>
donor molecule, donor type, donor heavy atom, donor atom, acceptor molecule, acceptor atom, score
      P1  H  7997  8008       L1     7  0.08
      P1  H  7997  8010       L1     9  0.06
      P1  H 10752 10763       L1    19  0.98

> <Gold.Chemscore.Hbond.Weighted>
-5.6202

> <Gold.Chemscore.Metal.Weighted>
-0.0000

> <Gold.Chemscore.Lipo.Weighted>
-13.3300

> <Gold.Chemscore.Internal_Hbond.Weighted>
0.0000

> <Gold.Chemscore.DEClash.Weighted>
0.0594

> <Gold.Chemscore.DEInternal.Weighted>
0.8982

> <Gold.Chemscore.Rot.Weighted>
6.7762

> <Gold.Chemscore.Internal.Correction.Weighted>
   9.000000E+99

> <Gold.Protein.RotatedTorsions>
[ 6907 6896 6895 6894 ] final  102.91 input  -60.11 | X-H torsion
[ 7974 7965 7964 7962 ] final   -0.05 input  175.53 | X-H torsion
[ 8008 7997 7996 7995 ] final   34.52 input   59.86 | X-H torsion
[ 10167 10162 10161 10158 ] final    3.48 input  -65.29 | X-H torsion
[ 10718 10713 10712 10709 ] final -105.10 input   66.30 | X-H torsion
[ 10763 10752 10751 10750 ] final   64.46 input  -60.55 | X-H torsion
[ 11005 11000 10999 10996 ] final  155.27 input  -57.11 | X-H torsion

> <Gold.Protein.ActiveResidues>
 VAL166  LYS551  ARG553  GLY616  TRP617  ASP618  TYR619  PRO620  LYS621  CYS622 
 ASP623  PHE694  ASN695  SER759  ASP760  ASP761  ALA762  ILE779  LEU786  VAL792 
 PHE793  MET794  SER795  GLU796  ALA797  LYS798  CYS799  TRP800  GLU811  SER814 

> <Gold.Protein.RotatedAtoms>
  152.5310  133.9905  159.7848 H   0  0  0  0  0  0  0  0  0  0  0  0  # atno 6907 bound_to 6896
  151.0142  133.5929  159.2686 H   0  0  0  0  0  0  0  0  0  0  0  0  # atno 6908 bound_to 6896
  151.2993  135.0770  159.9286 H   0  0  0  0  0  0  0  0  0  0  0  0  # atno 6909 bound_to 6896
  146.2430  140.1212  142.8340 H   0  0  0  0  0  0  0  0  0  0  0  0  # atno 7974 bound_to 7965
  155.1562  140.3279  155.4421 H   0  0  0  0  0  0  0  0  0  0  0  0  # atno 8008 bound_to 7997
  156.2558  140.1968  156.6622 H   0  0  0  0  0  0  0  0  0  0  0  0  # atno 8009 bound_to 7997
  154.6437  140.0567  156.9862 H   0  0  0  0  0  0  0  0  0  0  0  0  # atno 8010 bound_to 7997
  140.6583  143.7369  150.7693 H   0  0  0  0  0  0  0  0  0  0  0  0  # atno 10167 bound_to 10162
  156.0332  130.5547  150.7491 H   0  0  0  0  0  0  0  0  0  0  0  0  # atno 10718 bound_to 10713
  153.0057  135.5392  154.6514 H   0  0  0  0  0  0  0  0  0  0  0  0  # atno 10763 bound_to 10752
  154.5745  135.2844  155.0796 H   0  0  0  0  0  0  0  0  0  0  0  0  # atno 10764 bound_to 10752
  154.1949  135.6494  153.5123 H   0  0  0  0  0  0  0  0  0  0  0  0  # atno 10765 bound_to 10752
  140.1566  134.8638  157.2522 H   0  0  0  0  0  0  0  0  0  0  0  0  # atno 11005 bound_to 11000
  145.0405  140.8941  143.5055 LP  0  0  0  0  0  0  0  0  0  0  0  0  # atno 17320 bound_to 7965
  145.1292  139.2643  143.5548 LP  0  0  0  0  0  0  0  0  0  0  0  0  # atno 17321 bound_to 7965
  140.1033  143.4767  152.2412 LP  0  0  0  0  0  0  0  0  0  0  0  0  # atno 17342 bound_to 10162
  139.5811  144.7510  151.3638 LP  0  0  0  0  0  0  0  0  0  0  0  0  # atno 17343 bound_to 10162
  157.5040  131.0921  151.0279 LP  0  0  0  0  0  0  0  0  0  0  0  0  # atno 17370 bound_to 10713
  157.0652  130.5842  149.5393 LP  0  0  0  0  0  0  0  0  0  0  0  0  # atno 17371 bound_to 10713
  140.2540  134.3649  155.7431 LP  0  0  0  0  0  0  0  0  0  0  0  0  # atno 17394 bound_to 11000
  141.2205  133.7332  156.8979 LP  0  0  0  0  0  0  0  0  0  0  0  0  # atno 17395 bound_to 11000

$$$$
