AV-unprocessed.smi:3237|AV-procd|sdf|12368|dock9
  -GOLD-   2272018233D 1   1.00000     0.00000
 Structure written by MMmdl.
 36 38  0  0  0  0  0  0  0  0  3 V2000
  147.1050  134.9090  162.7633 C   0  0  0  0  0  0  0  0  0  0  0  0
  147.1320  135.8615  161.6175 C   0  0  0  0  0  0  0  0  0  0  0  0
  147.8576  135.9025  160.4608 C   0  0  0  0  0  0  0  0  0  0  0  0
  147.3899  137.0855  159.8261 C   0  0  0  0  0  0  0  0  0  0  0  0
  147.7989  137.5582  158.6387 N   0  5  0  0  0  0  0  0  0  0  0  0
  148.9162  138.3154  158.5563 C   0  0  0  0  0  0  0  0  0  0  0  0
  150.0155  138.0578  159.0520 O   0  0  0  0  0  0  0  0  0  0  0  0
  148.7499  139.4433  157.8522 N   0  0  0  0  0  0  0  0  0  0  0  0
  149.7808  140.4427  157.5983 C   0  0  1  0  0  0  0  0  0  0  0  0
  149.9699  140.8004  156.1274 C   0  0  0  0  0  0  0  0  0  0  0  0
  150.6568  142.1682  156.2033 C   0  0  0  0  0  0  0  0  0  0  0  0
  150.2274  142.7927  157.4797 N   0  3  2  0  0  0  0  0  0  0  0  0
  151.3467  143.3485  158.2714 C   0  0  0  0  0  0  0  0  0  0  0  0
  151.1713  144.8058  158.6260 C   0  0  0  0  0  0  0  0  0  0  0  0
  152.1414  144.4018  157.5370 C   0  0  0  0  0  0  0  0  0  0  0  0
  149.4224  141.7930  158.2149 C   0  0  0  0  0  0  0  0  0  0  0  0
  146.4514  137.6987  160.5274 N   0  0  0  0  0  0  0  0  0  0  0  0
  146.2856  136.9243  161.6819 O   0  0  0  0  0  0  0  0  0  0  0  0
  147.3116  133.8929  162.4271 H   0  0  0  0  0  0  0  0  0  0  0  0
  146.1298  134.9106  163.2509 H   0  0  0  0  0  0  0  0  0  0  0  0
  147.8556  135.1795  163.5059 H   0  0  0  0  0  0  0  0  0  0  0  0
  148.6064  135.2016  160.1238 H   0  0  0  0  0  0  0  0  0  0  0  0
  147.8331  139.6162  157.4664 H   0  0  0  0  0  0  0  0  0  0  0  0
  150.7313  140.1057  158.0170 H   0  0  0  0  0  0  0  0  0  0  0  0
  150.5578  140.0623  155.5810 H   0  0  0  0  0  0  0  0  0  0  0  0
  149.0018  140.8953  155.6329 H   0  0  0  0  0  0  0  0  0  0  0  0
  151.7394  142.0302  156.1963 H   0  0  0  0  0  0  0  0  0  0  0  0
  150.4018  142.8011  155.3530 H   0  0  0  0  0  0  0  0  0  0  0  0
  151.8370  142.6660  158.9637 H   0  0  0  0  0  0  0  0  0  0  0  0
  150.2514  145.3023  158.3223 H   0  0  0  0  0  0  0  0  0  0  0  0
  151.5938  145.1463  159.5692 H   0  0  0  0  0  0  0  0  0  0  0  0
  153.2033  144.4772  157.7622 H   0  0  0  0  0  0  0  0  0  0  0  0
  151.8670  144.6304  156.5086 H   0  0  0  0  0  0  0  0  0  0  0  0
  148.3693  142.0216  158.0440 H   0  0  0  0  0  0  0  0  0  0  0  0
  149.5929  141.8173  159.2922 H   0  0  0  0  0  0  0  0  0  0  0  0
  149.6098  143.5600  157.2565 H   0  0  0  0  0  0  0  0  0  0  0  0
  1  2  1  0  0  0  0
  1 19  1  0  0  0  0
  1 20  1  0  0  0  0
  1 21  1  0  0  0  0
  2 18  1  0  0  0  0
  2  3  2  0  0  0  0
  3  4  1  0  0  0  0
  3 22  1  0  0  0  0
  4  5  1  0  0  0  0
  4 17  2  0  0  0  0
  5  6  1  0  0  0  0
  6  7  2  0  0  0  0
  6  8  1  0  0  0  0
  8  9  1  0  0  0  0
  8 23  1  0  0  0  0
  9 16  1  0  0  0  0
  9 10  1  0  0  0  0
  9 24  1  0  0  0  0
 10 11  1  0  0  0  0
 10 25  1  0  0  0  0
 10 26  1  0  0  0  0
 11 12  1  0  0  0  0
 11 27  1  0  0  0  0
 11 28  1  0  0  0  0
 12 13  1  0  0  0  0
 12 16  1  0  0  0  0
 12 36  1  0  0  0  0
 13 15  1  0  0  0  0
 13 14  1  0  0  0  0
 13 29  1  0  0  0  0
 14 15  1  0  0  0  0
 14 30  1  0  0  0  0
 14 31  1  0  0  0  0
 15 32  1  0  0  0  0
 15 33  1  0  0  0  0
 16 34  1  0  0  0  0
 16 35  1  0  0  0  0
 17 18  1  0  0  0  0
M  CHG  1   5  -1
M  CHG  1  12   1
M  END
> <s_m_source_file>
AV-unprocessed.smi

> <i_m_source_file_index>
3237

> <i_lp_mmshare_version>
43012

> <i_f3d_flags>
0

> <s_epik_input>
W0NIM11jMVtjSF1jKG5vMSlbTkhdQyg9TylbTkhdW0NAQEhdMltDSDJdW0NIMl1OKFtDSDJdMilbQ0hdM1tDSDJdW0NIMl0z

> <s_epik_cmdline>
J2VwaWtfcHl0aG9uJywgJy1waCcsICc3LjAnLCAnLXRuJywgJzgnLCAnLW1hJywgJzIwMCcsICctbWV0YWxfYmluZGluZycsICctaW1hZScsICc8aW5maWxlLm1hZT4nLCAnLW9tYWUnLCAnPG91dGZpbGUubWFlPic=

> <r_epik_Ionization_Penalty>
6.08472

> <r_epik_Ionization_Penalty_Charging>
6.08464

> <r_epik_Ionization_Penalty_Neutral>
8.41751e-05

> <r_epik_State_Penalty>
6.08438

> <r_epik_Charging_Adjusted_Penalty>
12.169

> <i_epik_Tot_Q>
0

> <i_epik_Tot_abs_Q>
2

> <r_epik_Metal_State_Penalty>
2.0369

> <b_epik_Metal_Only>
1

> <s_lp_Force_Field>
OPLS_2005

> <r_lp_Energy>
24.4971

> <b_lp_Chiralities_Consistent>
1

> <s_lp_Variant>
AV-unprocessed.smi:3237-6

> <Gold.Version>
5.8.1

> <Gold.Id.Protein>
6NUR|6NUR_protein|mol2

> <Gold.PLP.Fitness>
38.9281

> <Gold.PLP.PLP>
-32.5008

> <Gold.PLP.part.hbond>
-2.7583

> <Gold.PLP.part.metal>
0.0000

> <Gold.PLP.part.buried>
-5.9317

> <Gold.PLP.part.nonpolar>
-23.3903

> <Gold.PLP.part.repulsive>
0.1508

> <Gold.PLP.ligand.clash>
0.0000

> <Gold.PLP.ligand.torsion>
1.9205

> <Gold.PLP.Chemscore.Hbond>
3.0000

> <Gold.PLP.Chemscore.CHOScore>
0.0000

> <Gold.PLP.Chemscore.Metal>
0.0000

> <Gold.Chemscore.Hbonds>
donor molecule, donor type, donor heavy atom, donor atom, acceptor molecule, acceptor atom, score
      L1  H    12    36       P1  8028  1.52
      P1  H  6934  6947       L1    17  1.00

> <Gold.PLP.Chemscore.Internal.Correction>
1.2683

> <Gold.Rescore>
     Score         DG    S(hbond)    S(metal)    S(lipo)     H(rot)  DE(clash)    DE(int)     intcor
     15.95     -17.91       1.86        0.00      80.43       1.25       0.13       1.83       ----

> <Gold.Chemscore.Fitness>
15.9476

> <Gold.Chemscore.DG>
-17.9134

> <Gold.Chemscore.ZeroCoef>
-5.4800

> <Gold.Chemscore.Hbond>
1.8604

> <Gold.Chemscore.Metal>
0.0000

> <Gold.Chemscore.Lipo>
80.4321

> <Gold.Chemscore.Internal_Hbond>
0.0000

> <Gold.Chemscore.DEClash>
0.1317

> <Gold.Chemscore.DEInternal>
1.8341

> <Gold.Chemscore.Rot>
1.2464

> <Gold.Chemscore.Internal.Correction>
   9.000000E+99

> <Gold.Chemscore.Hbonds>
donor molecule, donor type, donor heavy atom, donor atom, acceptor molecule, acceptor atom, score
      L1  H    12    36       P1  8028  0.62
      P1  H  6934  6947       L1    17  0.23

> <Gold.Chemscore.Hbond.Weighted>
-6.2137

> <Gold.Chemscore.Metal.Weighted>
-0.0000

> <Gold.Chemscore.Lipo.Weighted>
-9.4106

> <Gold.Chemscore.Internal_Hbond.Weighted>
0.0000

> <Gold.Chemscore.DEClash.Weighted>
0.1317

> <Gold.Chemscore.DEInternal.Weighted>
1.8341

> <Gold.Chemscore.Rot.Weighted>
3.1909

> <Gold.Chemscore.Internal.Correction.Weighted>
   9.000000E+99

> <Gold.Protein.RotatedTorsions>
[ 6907 6896 6895 6894 ] final  -42.57 input  -60.11 | X-H torsion
[ 7974 7965 7964 7962 ] final  102.72 input  175.53 | X-H torsion
[ 8008 7997 7996 7995 ] final  122.71 input   59.86 | X-H torsion
[ 10167 10162 10161 10158 ] final   44.45 input  -65.29 | X-H torsion
[ 10718 10713 10712 10709 ] final -130.97 input   66.30 | X-H torsion
[ 10763 10752 10751 10750 ] final -103.80 input  -60.55 | X-H torsion
[ 11005 11000 10999 10996 ] final  172.72 input  -57.11 | X-H torsion

> <Gold.Protein.ActiveResidues>
 VAL166  LYS551  ARG553  GLY616  TRP617  ASP618  TYR619  PRO620  LYS621  CYS622 
 ASP623  PHE694  ASN695  SER759  ASP760  ASP761  ALA762  ILE779  LEU786  VAL792 
 PHE793  MET794  SER795  GLU796  ALA797  LYS798  CYS799  TRP800  GLU811  SER814 

> <Gold.Protein.RotatedAtoms>
  150.9538  134.8934  159.7687 H   0  0  0  0  0  0  0  0  0  0  0  0  # atno 6907 bound_to 6896
  152.5130  134.3769  159.9348 H   0  0  0  0  0  0  0  0  0  0  0  0  # atno 6908 bound_to 6896
  151.3784  133.3789  159.2742 H   0  0  0  0  0  0  0  0  0  0  0  0  # atno 6909 bound_to 6896
  145.3554  139.2430  143.3535 H   0  0  0  0  0  0  0  0  0  0  0  0  # atno 7974 bound_to 7965
  156.2738  140.2779  156.1511 H   0  0  0  0  0  0  0  0  0  0  0  0  # atno 8008 bound_to 7997
  155.0852  140.0388  157.2669 H   0  0  0  0  0  0  0  0  0  0  0  0  # atno 8009 bound_to 7997
  154.6932  140.2633  155.6797 H   0  0  0  0  0  0  0  0  0  0  0  0  # atno 8010 bound_to 7997
  140.3342  144.2551  150.6164 H   0  0  0  0  0  0  0  0  0  0  0  0  # atno 10167 bound_to 10162
  156.2198  130.6971  151.0743 H   0  0  0  0  0  0  0  0  0  0  0  0  # atno 10718 bound_to 10713
  154.7833  135.4810  153.9891 H   0  0  0  0  0  0  0  0  0  0  0  0  # atno 10763 bound_to 10752
  153.1524  135.6793  153.8869 H   0  0  0  0  0  0  0  0  0  0  0  0  # atno 10764 bound_to 10752
  153.8510  135.3167  155.3410 H   0  0  0  0  0  0  0  0  0  0  0  0  # atno 10765 bound_to 10752
  140.3328  134.7343  157.4146 H   0  0  0  0  0  0  0  0  0  0  0  0  # atno 11005 bound_to 11000
  146.2950  140.4178  142.8725 LP  0  0  0  0  0  0  0  0  0  0  0  0  # atno 17320 bound_to 7965
  144.8686  140.7241  143.6061 LP  0  0  0  0  0  0  0  0  0  0  0  0  # atno 17321 bound_to 7965
  140.5369  143.2231  151.8148 LP  0  0  0  0  0  0  0  0  0  0  0  0  # atno 17342 bound_to 10162
  139.4851  144.4650  151.9495 LP  0  0  0  0  0  0  0  0  0  0  0  0  # atno 17343 bound_to 10162
  157.7081  131.0747  150.6596 LP  0  0  0  0  0  0  0  0  0  0  0  0  # atno 17370 bound_to 10713
  156.6658  130.4525  149.5673 LP  0  0  0  0  0  0  0  0  0  0  0  0  # atno 17371 bound_to 10713
  140.0846  134.5684  155.8505 LP  0  0  0  0  0  0  0  0  0  0  0  0  # atno 17394 bound_to 11000
  141.2059  133.6651  156.6209 LP  0  0  0  0  0  0  0  0  0  0  0  0  # atno 17395 bound_to 11000

$$$$
