AV-unprocessed.smi:703|AV-procd|sdf|3441|dock10
  -GOLD-   22720 0433D 1   1.00000     0.00000
 Structure written by MMmdl.
 37 38  0  0  0  0  0  0  0  0  3 V2000
  145.4426  132.0940  149.4654 C   0  0  0  0  0  0  0  0  0  0  0  0
  144.0533  132.6837  149.1872 C   0  0  0  0  0  0  0  0  0  0  0  0
  143.6581  133.6940  150.1993 N   0  3  2  0  0  0  0  0  0  0  0  0
  144.4037  134.9733  150.1228 C   0  0  0  0  0  0  0  0  0  0  0  0
  144.5325  135.4595  151.5699 C   0  0  2  0  0  0  0  0  0  0  0  0
  145.6017  136.5502  151.7869 C   0  0  0  0  0  0  0  0  0  0  0  0
  144.6577  134.1507  152.3752 C   0  0  2  0  0  0  0  0  0  0  0  0
  146.0142  133.6179  152.3204 N   0  5  0  0  0  0  0  0  0  0  0  0
  146.8332  133.3413  153.6933 S   0  0  0  0  0  0  0  0  0  0  0  0
  147.1199  134.5730  154.4465 O   0  0  0  0  0  0  0  0  0  0  0  0
  146.2724  132.2084  154.4464 O   0  0  0  0  0  0  0  0  0  0  0  0
  148.4485  132.7539  153.0184 C   0  0  0  0  0  0  0  0  0  0  0  0
  149.3837  132.3824  154.1369 C   0  0  0  0  0  0  0  0  0  0  0  0
  149.9116  131.0998  154.4553 C   0  0  0  0  0  0  0  0  0  0  0  0
  150.6972  131.3392  155.5451 C   0  0  0  0  0  0  0  0  0  0  0  0
  150.6525  132.6522  155.8837 O   0  0  0  0  0  0  0  0  0  0  0  0
  149.8076  133.3093  154.9821 N   0  0  0  0  0  0  0  0  0  0  0  0
  143.7217  133.2075  151.6024 C   0  0  0  0  0  0  0  0  0  0  0  0
  145.7293  131.3977  148.6772 H   0  0  0  0  0  0  0  0  0  0  0  0
  145.4676  131.5475  150.4084 H   0  0  0  0  0  0  0  0  0  0  0  0
  146.2014  132.8758  149.5091 H   0  0  0  0  0  0  0  0  0  0  0  0
  144.0678  133.1597  148.2059 H   0  0  0  0  0  0  0  0  0  0  0  0
  143.3042  131.8915  149.1411 H   0  0  0  0  0  0  0  0  0  0  0  0
  145.3913  134.8167  149.6802 H   0  0  0  0  0  0  0  0  0  0  0  0
  143.8781  135.6930  149.4944 H   0  0  0  0  0  0  0  0  0  0  0  0
  143.5734  135.9020  151.8439 H   0  0  0  0  0  0  0  0  0  0  0  0
  146.6014  136.2192  151.5009 H   0  0  0  0  0  0  0  0  0  0  0  0
  145.6414  136.8756  152.8276 H   0  0  0  0  0  0  0  0  0  0  0  0
  145.3738  137.4303  151.1856 H   0  0  0  0  0  0  0  0  0  0  0  0
  144.3034  134.2833  153.3981 H   0  0  0  0  0  0  0  0  0  0  0  0
  148.2469  131.8940  152.3794 H   0  0  0  0  0  0  0  0  0  0  0  0
  148.8689  133.5372  152.3887 H   0  0  0  0  0  0  0  0  0  0  0  0
  149.7472  130.1578  153.9540 H   0  0  0  0  0  0  0  0  0  0  0  0
  151.3200  130.7097  156.1634 H   0  0  0  0  0  0  0  0  0  0  0  0
  142.7145  133.2766  152.0148 H   0  0  0  0  0  0  0  0  0  0  0  0
  144.0193  132.1598  151.6797 H   0  0  0  0  0  0  0  0  0  0  0  0
  142.6867  133.9124  150.0318 H   0  0  0  0  0  0  0  0  0  0  0  0
  1  2  1  0  0  0  0
  1 19  1  0  0  0  0
  1 20  1  0  0  0  0
  1 21  1  0  0  0  0
  2  3  1  0  0  0  0
  2 22  1  0  0  0  0
  2 23  1  0  0  0  0
  3 18  1  0  0  0  0
  3  4  1  0  0  0  0
  3 37  1  0  0  0  0
  4  5  1  0  0  0  0
  4 24  1  0  0  0  0
  4 25  1  0  0  0  0
  5  6  1  0  0  0  0
  5  7  1  0  0  0  0
  5 26  1  0  0  0  0
  6 27  1  0  0  0  0
  6 28  1  0  0  0  0
  6 29  1  0  0  0  0
  7  8  1  0  0  0  0
  7 18  1  0  0  0  0
  7 30  1  0  0  0  0
  8  9  1  0  0  0  0
  9 10  2  0  0  0  0
  9 11  2  0  0  0  0
  9 12  1  0  0  0  0
 12 13  1  0  0  0  0
 12 31  1  0  0  0  0
 12 32  1  0  0  0  0
 13 17  2  0  0  0  0
 13 14  1  0  0  0  0
 14 15  2  0  0  0  0
 14 33  1  0  0  0  0
 15 16  1  0  0  0  0
 15 34  1  0  0  0  0
 16 17  1  0  0  0  0
 18 35  1  0  0  0  0
 18 36  1  0  0  0  0
M  CHG  1   3   1
M  CHG  1   8  -1
M  END
> <s_m_source_file>
AV-unprocessed.smi

> <i_m_source_file_index>
703

> <i_lp_mmshare_version>
43012

> <i_f3d_flags>
0

> <s_epik_input>
W0NIM11bQ0gyXU4xW0NIMl1bQ0BASF0oW0NIM10pW0NASF0oW0NIMl0xKVtOSF1TKD1PKSg9TylbQ0gyXWMyW2NIXVtjSF1vbjI=

> <s_epik_cmdline>
J2VwaWtfcHl0aG9uJywgJy1waCcsICc3LjAnLCAnLXRuJywgJzgnLCAnLW1hJywgJzIwMCcsICctbWV0YWxfYmluZGluZycsICctaW1hZScsICc8aW5maWxlLm1hZT4nLCAnLW9tYWUnLCAnPG91dGZpbGUubWFlPic=

> <r_epik_Ionization_Penalty>
3.62494

> <r_epik_Ionization_Penalty_Charging>
3.62494

> <r_epik_Ionization_Penalty_Neutral>
2.0321e-10

> <r_epik_State_Penalty>
3.62558

> <r_epik_Charging_Adjusted_Penalty>
7.25052

> <i_epik_Tot_Q>
0

> <i_epik_Tot_abs_Q>
2

> <r_epik_Metal_State_Penalty>
0.530836

> <b_epik_Metal_Only>
1

> <s_lp_Force_Field>
OPLS_2005

> <r_lp_Energy>
19.3254

> <b_lp_Chiralities_Consistent>
1

> <s_lp_Variant>
AV-unprocessed.smi:703-16

> <Gold.Version>
5.8.1

> <Gold.Id.Protein>
6NUR|6NUR_protein|mol2

> <Gold.PLP.Fitness>
37.8920

> <Gold.PLP.PLP>
-32.3023

> <Gold.PLP.part.hbond>
-1.0000

> <Gold.PLP.part.metal>
0.0000

> <Gold.PLP.part.buried>
-4.7611

> <Gold.PLP.part.nonpolar>
-27.1744

> <Gold.PLP.part.repulsive>
0.3855

> <Gold.PLP.ligand.clash>
0.0000

> <Gold.PLP.ligand.torsion>
0.7268

> <Gold.PLP.Chemscore.Hbond>
2.0000

> <Gold.PLP.Chemscore.CHOScore>
0.0000

> <Gold.PLP.Chemscore.Metal>
0.0000

> <Gold.Chemscore.Hbonds>
donor molecule, donor type, donor heavy atom, donor atom, acceptor molecule, acceptor atom, score
      L1  H     3    37       P1 10186  2.00

> <Gold.PLP.Chemscore.Internal.Correction>
1.0432

> <Gold.Rescore>
     Score         DG    S(hbond)    S(metal)    S(lipo)     H(rot)  DE(clash)    DE(int)     intcor
     12.74     -13.59       1.00        0.00      76.59       1.63       0.01       0.84       ----

> <Gold.Chemscore.Fitness>
12.7408

> <Gold.Chemscore.DG>
-13.5944

> <Gold.Chemscore.ZeroCoef>
-5.4800

> <Gold.Chemscore.Hbond>
0.9989

> <Gold.Chemscore.Metal>
0.0000

> <Gold.Chemscore.Lipo>
76.5857

> <Gold.Chemscore.Internal_Hbond>
0.0000

> <Gold.Chemscore.DEClash>
0.0104

> <Gold.Chemscore.DEInternal>
0.8432

> <Gold.Chemscore.Rot>
1.6338

> <Gold.Chemscore.Internal.Correction>
   9.000000E+99

> <Gold.Chemscore.Hbonds>
donor molecule, donor type, donor heavy atom, donor atom, acceptor molecule, acceptor atom, score
      L1  H     3    37       P1 10186  1.00

> <Gold.Chemscore.Hbond.Weighted>
-3.3364

> <Gold.Chemscore.Metal.Weighted>
-0.0000

> <Gold.Chemscore.Lipo.Weighted>
-8.9605

> <Gold.Chemscore.Internal_Hbond.Weighted>
0.0000

> <Gold.Chemscore.DEClash.Weighted>
0.0104

> <Gold.Chemscore.DEInternal.Weighted>
0.8432

> <Gold.Chemscore.Rot.Weighted>
4.1825

> <Gold.Chemscore.Internal.Correction.Weighted>
   9.000000E+99

> <Gold.Protein.RotatedTorsions>
[ 6907 6896 6895 6894 ] final  133.53 input  -60.11 | X-H torsion
[ 7974 7965 7964 7962 ] final   92.74 input  175.53 | X-H torsion
[ 8008 7997 7996 7995 ] final   95.61 input   59.86 | X-H torsion
[ 10167 10162 10161 10158 ] final -153.70 input  -65.29 | X-H torsion
[ 10718 10713 10712 10709 ] final   88.94 input   66.30 | X-H torsion
[ 10763 10752 10751 10750 ] final  -34.15 input  -60.55 | X-H torsion
[ 11005 11000 10999 10996 ] final -142.91 input  -57.11 | X-H torsion

> <Gold.Protein.ActiveResidues>
 VAL166  LYS551  ARG553  GLY616  TRP617  ASP618  TYR619  PRO620  LYS621  CYS622 
 ASP623  PHE694  ASN695  SER759  ASP760  ASP761  ALA762  ILE779  LEU786  VAL792 
 PHE793  MET794  SER795  GLU796  ALA797  LYS798  CYS799  TRP800  GLU811  SER814 

> <Gold.Protein.RotatedAtoms>
  152.3209  133.5853  159.5743 H   0  0  0  0  0  0  0  0  0  0  0  0  # atno 6907 bound_to 6896
  150.7371  134.0012  159.3647 H   0  0  0  0  0  0  0  0  0  0  0  0  # atno 6908 bound_to 6896
  151.7896  135.0740  160.0436 H   0  0  0  0  0  0  0  0  0  0  0  0  # atno 6909 bound_to 6896
  145.4883  139.2277  143.2844 H   0  0  0  0  0  0  0  0  0  0  0  0  # atno 7974 bound_to 7965
  156.0708  140.3284  155.7573 H   0  0  0  0  0  0  0  0  0  0  0  0  # atno 8008 bound_to 7997
  155.5309  140.0593  157.2906 H   0  0  0  0  0  0  0  0  0  0  0  0  # atno 8009 bound_to 7997
  154.4529  140.1927  156.0483 H   0  0  0  0  0  0  0  0  0  0  0  0  # atno 8010 bound_to 7997
  139.7074  143.9163  152.2454 H   0  0  0  0  0  0  0  0  0  0  0  0  # atno 10167 bound_to 10162
  157.6952  131.0314  150.3350 H   0  0  0  0  0  0  0  0  0  0  0  0  # atno 10718 bound_to 10713
  153.8419  135.6857  153.4802 H   0  0  0  0  0  0  0  0  0  0  0  0  # atno 10763 bound_to 10752
  153.1448  135.4642  154.9548 H   0  0  0  0  0  0  0  0  0  0  0  0  # atno 10764 bound_to 10752
  154.7841  135.3279  154.7872 H   0  0  0  0  0  0  0  0  0  0  0  0  # atno 10765 bound_to 10752
  140.8178  134.2667  157.4913 H   0  0  0  0  0  0  0  0  0  0  0  0  # atno 11005 bound_to 11000
  146.2299  140.5675  142.8980 LP  0  0  0  0  0  0  0  0  0  0  0  0  # atno 17320 bound_to 7965
  144.7849  140.5915  143.6581 LP  0  0  0  0  0  0  0  0  0  0  0  0  # atno 17321 bound_to 7965
  139.9023  144.6905  150.8652 LP  0  0  0  0  0  0  0  0  0  0  0  0  # atno 17342 bound_to 10162
  140.7725  143.3505  151.2025 LP  0  0  0  0  0  0  0  0  0  0  0  0  # atno 17343 bound_to 10162
  156.3818  130.3882  149.7096 LP  0  0  0  0  0  0  0  0  0  0  0  0  # atno 17370 bound_to 10713
  156.4475  130.7891  151.2912 LP  0  0  0  0  0  0  0  0  0  0  0  0  # atno 17371 bound_to 10713
  139.8710  134.9518  156.4097 LP  0  0  0  0  0  0  0  0  0  0  0  0  # atno 17394 bound_to 11000
  140.9131  133.7698  155.9815 LP  0  0  0  0  0  0  0  0  0  0  0  0  # atno 17395 bound_to 11000

$$$$
