AV-unprocessed.smi:3112|AV-procd|sdf|11847|dock7
  -GOLD-   2272017223D 1   1.00000     0.00000
 Structure written by MMmdl.
 36 36  0  0  0  0  0  0  0  0  1 V2000
  145.4158  136.0145  151.6550 C   0  0  0  0  0  0  0  0  0  0  0  0
  145.5188  137.2777  152.5251 C   0  0  0  0  0  0  0  0  0  0  0  0
  146.6692  138.2311  152.1451 C   0  0  1  0  0  0  0  0  0  0  0  0
  146.4524  138.7103  150.8334 O   0  0  0  0  0  0  0  0  0  0  0  0
  146.8038  139.4305  153.0990 C   0  0  0  0  0  0  0  0  0  0  0  0
  148.0143  140.1981  152.8082 N   0  0  0  0  0  0  0  0  0  0  0  0
  148.4197  141.1648  153.8354 C   0  0  1  0  0  0  0  0  0  0  0  0
  147.1953  142.0173  154.2100 C   0  0  0  0  0  0  0  0  0  0  0  0
  149.0590  140.5095  155.0979 C   0  0  2  0  0  0  0  0  0  0  0  0
  149.2926  141.4537  156.2924 C   0  0  0  0  0  0  0  0  0  0  0  0
  150.2426  139.7086  154.7954 N   0  0  0  0  0  0  0  0  0  0  0  0
  150.3561  138.6666  153.8971 C   0  0  0  0  0  0  0  0  0  0  0  0
  151.6505  138.2340  153.9291 C   0  0  0  0  0  0  0  0  0  0  0  0
  152.2673  139.0868  154.8856 C   0  0  0  0  0  0  0  0  0  0  0  0
  151.4262  139.9697  155.3975 N   0  0  0  0  0  0  0  0  0  0  0  0
  144.5923  135.3839  151.9900 H   0  0  0  0  0  0  0  0  0  0  0  0
  146.3270  135.4183  151.7060 H   0  0  0  0  0  0  0  0  0  0  0  0
  145.2337  136.2612  150.6090 H   0  0  0  0  0  0  0  0  0  0  0  0
  144.5742  137.8199  152.4698 H   0  0  0  0  0  0  0  0  0  0  0  0
  145.6291  136.9807  153.5689 H   0  0  0  0  0  0  0  0  0  0  0  0
  147.5960  137.6552  152.1465 H   0  0  0  0  0  0  0  0  0  0  0  0
  145.6552  138.3230  150.5039 H   0  0  0  0  0  0  0  0  0  0  0  0
  145.9069  140.0425  153.0571 H   0  0  0  0  0  0  0  0  0  0  0  0
  146.8684  139.0596  154.1226 H   0  0  0  0  0  0  0  0  0  0  0  0
  148.7789  139.5556  152.6280 H   0  0  0  0  0  0  0  0  0  0  0  0
  149.1500  141.8520  153.4060 H   0  0  0  0  0  0  0  0  0  0  0  0
  147.4479  142.7585  154.9686 H   0  0  0  0  0  0  0  0  0  0  0  0
  146.3787  141.4078  154.5985 H   0  0  0  0  0  0  0  0  0  0  0  0
  146.8159  142.5577  153.3424 H   0  0  0  0  0  0  0  0  0  0  0  0
  148.3127  139.8006  155.4601 H   0  0  0  0  0  0  0  0  0  0  0  0
  148.4103  142.0615  156.4939 H   0  0  0  0  0  0  0  0  0  0  0  0
  150.1375  142.1230  156.1357 H   0  0  0  0  0  0  0  0  0  0  0  0
  149.5085  140.8813  157.1948 H   0  0  0  0  0  0  0  0  0  0  0  0
  149.5141  138.3252  153.3132 H   0  0  0  0  0  0  0  0  0  0  0  0
  152.0907  137.4328  153.3545 H   0  0  0  0  0  0  0  0  0  0  0  0
  153.2944  139.0923  155.2192 H   0  0  0  0  0  0  0  0  0  0  0  0
  1  2  1  0  0  0  0
  1 16  1  0  0  0  0
  1 17  1  0  0  0  0
  1 18  1  0  0  0  0
  2  3  1  0  0  0  0
  2 19  1  0  0  0  0
  2 20  1  0  0  0  0
  3  4  1  0  0  0  0
  3  5  1  0  0  0  0
  3 21  1  0  0  0  0
  4 22  1  0  0  0  0
  5  6  1  0  0  0  0
  5 23  1  0  0  0  0
  5 24  1  0  0  0  0
  6  7  1  0  0  0  0
  6 25  1  0  0  0  0
  7  8  1  0  0  0  0
  7  9  1  0  0  0  0
  7 26  1  0  0  0  0
  8 27  1  0  0  0  0
  8 28  1  0  0  0  0
  8 29  1  0  0  0  0
  9 10  1  0  0  0  0
  9 11  1  0  0  0  0
  9 30  1  0  0  0  0
 10 31  1  0  0  0  0
 10 32  1  0  0  0  0
 10 33  1  0  0  0  0
 11 15  1  0  0  0  0
 11 12  1  0  0  0  0
 12 13  2  0  0  0  0
 12 34  1  0  0  0  0
 13 14  1  0  0  0  0
 13 35  1  0  0  0  0
 14 15  2  0  0  0  0
 14 36  1  0  0  0  0
M  END
> <s_m_source_file>
AV-unprocessed.smi

> <i_m_source_file_index>
3112

> <i_lp_mmshare_version>
43012

> <i_f3d_flags>
0

> <s_epik_input>
W0NIM11bQ0gyXVtDQEhdKFtPSF0pW0NIMl1bTkhdW0NASF0oW0NIM10pW0NASF0oW0NIM10pbjFbY0hdW2NIXVtjSF1uMQ==

> <s_epik_cmdline>
J2VwaWtfcHl0aG9uJywgJy1waCcsICc3LjAnLCAnLXRuJywgJzgnLCAnLW1hJywgJzIwMCcsICctbWV0YWxfYmluZGluZycsICctaW1hZScsICc8aW5maWxlLm1hZT4nLCAnLW9tYWUnLCAnPG91dGZpbGUubWFlPic=

> <r_lp_tautomer_probability>
1

> <r_epik_Ionization_Penalty>
2.16876

> <r_epik_Ionization_Penalty_Charging>
0

> <r_epik_Ionization_Penalty_Neutral>
2.16876

> <r_epik_State_Penalty>
2.30854

> <r_epik_Charging_Adjusted_Penalty>
2.30854

> <i_epik_Tot_Q>
0

> <i_epik_Tot_abs_Q>
0

> <r_epik_Metal_State_Penalty>
2.3073

> <b_epik_Metal_Only>
0

> <s_lp_Force_Field>
OPLS_2005

> <r_lp_Energy>
21.8482

> <b_lp_Chiralities_Consistent>
1

> <s_lp_Variant>
AV-unprocessed.smi:3112-12

> <Gold.Version>
5.8.1

> <Gold.Id.Protein>
6NUR|6NUR_protein|mol2

> <Gold.PLP.Fitness>
42.9467

> <Gold.PLP.PLP>
-34.1819

> <Gold.PLP.part.hbond>
-2.5525

> <Gold.PLP.part.metal>
0.0000

> <Gold.PLP.part.buried>
-3.2033

> <Gold.PLP.part.nonpolar>
-29.0380

> <Gold.PLP.part.repulsive>
0.0120

> <Gold.PLP.ligand.clash>
0.0000

> <Gold.PLP.ligand.torsion>
0.3105

> <Gold.PLP.Chemscore.Hbond>
1.9520

> <Gold.PLP.Chemscore.CHOScore>
1.0602

> <Gold.PLP.Chemscore.Metal>
0.0000

> <Gold.Chemscore.Hbonds>
donor molecule, donor type, donor heavy atom, donor atom, acceptor molecule, acceptor atom, score
      L1  H     4    22       P1 10171  0.94
      L1  H     6    25       P1  7957  0.19
      P1  H  7954  7966       L1     4  0.64
      L1  C    12    34       P1  7948  0.90
      L1  C    12    34       P1  7957  0.21

> <Gold.PLP.Chemscore.Internal.Correction>
0.3490

> <Gold.Rescore>
     Score         DG    S(hbond)    S(metal)    S(lipo)     H(rot)  DE(clash)    DE(int)     intcor
     13.02     -14.51       1.68        0.00      79.65       2.31       0.46       1.03       ----

> <Gold.Chemscore.Fitness>
13.0174

> <Gold.Chemscore.DG>
-14.5075

> <Gold.Chemscore.ZeroCoef>
-5.4800

> <Gold.Chemscore.Hbond>
1.6839

> <Gold.Chemscore.Metal>
0.0000

> <Gold.Chemscore.Lipo>
79.6495

> <Gold.Chemscore.Internal_Hbond>
0.0000

> <Gold.Chemscore.DEClash>
0.4563

> <Gold.Chemscore.DEInternal>
1.0338

> <Gold.Chemscore.Rot>
2.3108

> <Gold.Chemscore.Internal.Correction>
   9.000000E+99

> <Gold.Chemscore.Hbonds>
donor molecule, donor type, donor heavy atom, donor atom, acceptor molecule, acceptor atom, score
      L1  H     4    22       P1 10171  0.91
      L1  H     6    25       P1  7957  0.19
      P1  H  7954  7966       L1     4  0.11

> <Gold.Chemscore.Hbond.Weighted>
-5.6242

> <Gold.Chemscore.Metal.Weighted>
-0.0000

> <Gold.Chemscore.Lipo.Weighted>
-9.3190

> <Gold.Chemscore.Internal_Hbond.Weighted>
0.0000

> <Gold.Chemscore.DEClash.Weighted>
0.4563

> <Gold.Chemscore.DEInternal.Weighted>
1.0338

> <Gold.Chemscore.Rot.Weighted>
5.9157

> <Gold.Chemscore.Internal.Correction.Weighted>
   9.000000E+99

> <Gold.Protein.RotatedTorsions>
[ 6907 6896 6895 6894 ] final  103.77 input  -60.11 | X-H torsion
[ 7974 7965 7964 7962 ] final  -49.62 input  175.53 | X-H torsion
[ 8008 7997 7996 7995 ] final  141.83 input   59.86 | X-H torsion
[ 10167 10162 10161 10158 ] final  -13.96 input  -65.29 | X-H torsion
[ 10718 10713 10712 10709 ] final   56.12 input   66.30 | X-H torsion
[ 10763 10752 10751 10750 ] final  162.86 input  -60.55 | X-H torsion
[ 11005 11000 10999 10996 ] final  -30.88 input  -57.11 | X-H torsion

> <Gold.Protein.ActiveResidues>
 VAL166  LYS551  ARG553  GLY616  TRP617  ASP618  TYR619  PRO620  LYS621  CYS622 
 ASP623  PHE694  ASN695  SER759  ASP760  ASP761  ALA762  ILE779  LEU786  VAL792 
 PHE793  MET794  SER795  GLU796  ALA797  LYS798  CYS799  TRP800  GLU811  SER814 

> <Gold.Protein.RotatedAtoms>
  152.5285  133.9776  159.7791 H   0  0  0  0  0  0  0  0  0  0  0  0  # atno 6907 bound_to 6896
  151.0036  133.6024  159.2699 H   0  0  0  0  0  0  0  0  0  0  0  0  # atno 6908 bound_to 6896
  151.3124  135.0804  159.9330 H   0  0  0  0  0  0  0  0  0  0  0  0  # atno 6909 bound_to 6896
  145.9387  140.7683  142.9563 H   0  0  0  0  0  0  0  0  0  0  0  0  # atno 7974 bound_to 7965
  156.2959  140.2305  156.4629 H   0  0  0  0  0  0  0  0  0  0  0  0  # atno 8008 bound_to 7997
  154.8002  140.0449  157.1288 H   0  0  0  0  0  0  0  0  0  0  0  0  # atno 8009 bound_to 7997
  154.9542  140.3046  155.5064 H   0  0  0  0  0  0  0  0  0  0  0  0  # atno 8010 bound_to 7997
  140.7192  143.5371  150.9452 H   0  0  0  0  0  0  0  0  0  0  0  0  # atno 10167 bound_to 10162
  157.5404  130.8693  149.8813 H   0  0  0  0  0  0  0  0  0  0  0  0  # atno 10718 bound_to 10713
  154.2848  135.2762  155.2681 H   0  0  0  0  0  0  0  0  0  0  0  0  # atno 10763 bound_to 10752
  154.5186  135.5762  153.6666 H   0  0  0  0  0  0  0  0  0  0  0  0  # atno 10764 bound_to 10752
  152.9923  135.6199  154.3009 H   0  0  0  0  0  0  0  0  0  0  0  0  # atno 10765 bound_to 10752
  140.9420  133.7273  156.1090 H   0  0  0  0  0  0  0  0  0  0  0  0  # atno 11005 bound_to 11000
  144.6775  140.2244  143.7362 LP  0  0  0  0  0  0  0  0  0  0  0  0  # atno 17320 bound_to 7965
  145.8329  139.2094  143.1872 LP  0  0  0  0  0  0  0  0  0  0  0  0  # atno 17321 bound_to 7965
  139.9093  143.6740  152.3118 LP  0  0  0  0  0  0  0  0  0  0  0  0  # atno 17342 bound_to 10162
  139.7117  144.7619  151.1101 LP  0  0  0  0  0  0  0  0  0  0  0  0  # atno 17343 bound_to 10162
  156.0492  130.3721  150.1243 LP  0  0  0  0  0  0  0  0  0  0  0  0  # atno 17370 bound_to 10713
  156.9423  130.9748  151.3514 LP  0  0  0  0  0  0  0  0  0  0  0  0  # atno 17371 bound_to 10713
  140.7721  134.3821  157.5505 LP  0  0  0  0  0  0  0  0  0  0  0  0  # atno 17394 bound_to 11000
  139.8823  134.9028  156.2841 LP  0  0  0  0  0  0  0  0  0  0  0  0  # atno 17395 bound_to 11000

$$$$
