AV-unprocessed.smi:2385|AV-procd|sdf|9464|dock5
  -GOLD-   2272013 93D 1   1.00000     0.00000
 Structure written by MMmdl.
 50 52  0  0  0  0  0  0  0  0  2 V2000
  150.4736  129.9824  155.7370 C   0  0  0  0  0  0  0  0  0  0  0  0
  150.2512  131.4311  155.3572 C   0  0  0  0  0  0  0  0  0  0  0  0
  149.5139  131.7719  154.2077 C   0  0  0  0  0  0  0  0  0  0  0  0
  149.3378  133.1331  153.8928 C   0  0  0  0  0  0  0  0  0  0  0  0
  149.9026  134.1199  154.7317 C   0  0  0  0  0  0  0  0  0  0  0  0
  149.6734  135.4609  154.3225 N   0  0  0  0  0  0  0  0  0  0  0  0
  149.8319  136.5864  155.0412 C   0  0  0  0  0  0  0  0  0  0  0  0
  150.1829  136.6360  156.2205 O   0  0  0  0  0  0  0  0  0  0  0  0
  149.5575  137.6765  154.3091 N   0  0  0  0  0  0  0  0  0  0  0  0
  149.6640  139.0518  154.7880 C   0  0  2  0  0  0  0  0  0  0  0  0
  151.0590  139.3292  155.3760 C   0  0  0  0  0  0  0  0  0  0  0  0
  151.1431  140.7531  155.9514 C   0  0  0  0  0  0  0  0  0  0  0  0
  150.0884  140.9890  156.9724 N   0  3  1  0  0  0  0  0  0  0  0  0
  150.2201  142.3131  157.6354 C   0  0  0  0  0  0  0  0  0  0  0  0
  151.6037  142.5094  158.2851 C   0  0  1  0  0  0  0  0  0  0  0  0
  151.8013  143.8975  158.8621 C   0  0  0  0  0  0  0  0  0  0  0  0
  152.9821  143.6917  159.8056 C   0  0  0  0  0  0  0  0  0  0  0  0
  152.8849  142.3451  160.2588 O   0  0  0  0  0  0  0  0  0  0  0  0
  151.8833  141.6525  159.5213 C   0  0  0  0  0  0  0  0  0  0  0  0
  148.7299  140.7499  156.4163 C   0  0  0  0  0  0  0  0  0  0  0  0
  148.5975  139.3228  155.8597 C   0  0  0  0  0  0  0  0  0  0  0  0
  150.6111  133.7814  155.8379 N   0  0  0  0  0  0  0  0  0  0  0  0
  150.7792  132.4768  156.1393 C   0  0  0  0  0  0  0  0  0  0  0  0
  149.5782  129.3921  155.5412 H   0  0  0  0  0  0  0  0  0  0  0  0
  150.7169  129.8883  156.7958 H   0  0  0  0  0  0  0  0  0  0  0  0
  151.2963  129.5638  155.1570 H   0  0  0  0  0  0  0  0  0  0  0  0
  149.0905  131.0055  153.5751 H   0  0  0  0  0  0  0  0  0  0  0  0
  148.7755  133.4113  153.0134 H   0  0  0  0  0  0  0  0  0  0  0  0
  149.3716  135.5756  153.3664 H   0  0  0  0  0  0  0  0  0  0  0  0
  149.2737  137.5461  153.3490 H   0  0  0  0  0  0  0  0  0  0  0  0
  149.4879  139.7323  153.9525 H   0  0  0  0  0  0  0  0  0  0  0  0
  151.2827  138.6054  156.1615 H   0  0  0  0  0  0  0  0  0  0  0  0
  151.8250  139.2000  154.6104 H   0  0  0  0  0  0  0  0  0  0  0  0
  152.1275  140.8961  156.3989 H   0  0  0  0  0  0  0  0  0  0  0  0
  151.0469  141.4884  155.1508 H   0  0  0  0  0  0  0  0  0  0  0  0
  150.0989  143.1011  156.8905 H   0  0  0  0  0  0  0  0  0  0  0  0
  149.4163  142.4678  158.3570 H   0  0  0  0  0  0  0  0  0  0  0  0
  152.3856  142.3342  157.5440 H   0  0  0  0  0  0  0  0  0  0  0  0
  151.9944  144.6553  158.1022 H   0  0  0  0  0  0  0  0  0  0  0  0
  150.9211  144.2027  159.4304 H   0  0  0  0  0  0  0  0  0  0  0  0
  153.9244  143.8102  159.2691 H   0  0  0  0  0  0  0  0  0  0  0  0
  152.9756  144.3948  160.6389 H   0  0  0  0  0  0  0  0  0  0  0  0
  150.9932  141.5711  160.1468 H   0  0  0  0  0  0  0  0  0  0  0  0
  152.2139  140.6453  159.2664 H   0  0  0  0  0  0  0  0  0  0  0  0
  147.9738  140.9031  157.1845 H   0  0  0  0  0  0  0  0  0  0  0  0
  148.5255  141.4766  155.6282 H   0  0  0  0  0  0  0  0  0  0  0  0
  147.6007  139.1832  155.4395 H   0  0  0  0  0  0  0  0  0  0  0  0
  148.6943  138.6040  156.6750 H   0  0  0  0  0  0  0  0  0  0  0  0
  151.3526  132.2645  157.0298 H   0  0  0  0  0  0  0  0  0  0  0  0
  150.2402  140.2955  157.6910 H   0  0  0  0  0  0  0  0  0  0  0  0
  1  2  1  0  0  0  0
  1 24  1  0  0  0  0
  1 25  1  0  0  0  0
  1 26  1  0  0  0  0
  2 23  1  0  0  0  0
  2  3  2  0  0  0  0
  3  4  1  0  0  0  0
  3 27  1  0  0  0  0
  4  5  2  0  0  0  0
  4 28  1  0  0  0  0
  5  6  1  0  0  0  0
  5 22  1  0  0  0  0
  6  7  1  0  0  0  0
  6 29  1  0  0  0  0
  7  8  2  0  0  0  0
  7  9  1  0  0  0  0
  9 10  1  0  0  0  0
  9 30  1  0  0  0  0
 10 21  1  0  0  0  0
 10 11  1  0  0  0  0
 10 31  1  0  0  0  0
 11 12  1  0  0  0  0
 11 32  1  0  0  0  0
 11 33  1  0  0  0  0
 12 13  1  0  0  0  0
 12 34  1  0  0  0  0
 12 35  1  0  0  0  0
 13 14  1  0  0  0  0
 13 20  1  0  0  0  0
 13 50  1  0  0  0  0
 14 15  1  0  0  0  0
 14 36  1  0  0  0  0
 14 37  1  0  0  0  0
 15 19  1  0  0  0  0
 15 16  1  0  0  0  0
 15 38  1  0  0  0  0
 16 17  1  0  0  0  0
 16 39  1  0  0  0  0
 16 40  1  0  0  0  0
 17 18  1  0  0  0  0
 17 41  1  0  0  0  0
 17 42  1  0  0  0  0
 18 19  1  0  0  0  0
 19 43  1  0  0  0  0
 19 44  1  0  0  0  0
 20 21  1  0  0  0  0
 20 45  1  0  0  0  0
 20 46  1  0  0  0  0
 21 47  1  0  0  0  0
 21 48  1  0  0  0  0
 22 23  2  0  0  0  0
 23 49  1  0  0  0  0
M  CHG  1  13   1
M  END
> <s_m_source_file>
AV-unprocessed.smi

> <i_m_source_file_index>
2385

> <i_lp_mmshare_version>
43012

> <i_f3d_flags>
0

> <s_epik_input>
W0NIM11jMVtjSF1bY0hdYyhuW2NIXTEpW05IXUMoPU8pW05IXVtDSF0yW0NIMl1bQ0gyXU4oW0NIMl1bQ0gyXTIpW0NIMl1bQ0BASF0zW0NIMl1bQ0gyXU9bQ0gyXTM=

> <s_epik_cmdline>
J2VwaWtfcHl0aG9uJywgJy1waCcsICc3LjAnLCAnLXRuJywgJzgnLCAnLW1hJywgJzIwMCcsICctbWV0YWxfYmluZGluZycsICctaW1hZScsICc8aW5maWxlLm1hZT4nLCAnLW9tYWUnLCAnPG91dGZpbGUubWFlPic=

> <r_epik_Ionization_Penalty>
0.00752367

> <r_epik_Ionization_Penalty_Charging>
0.00747775

> <r_epik_Ionization_Penalty_Neutral>
4.59207e-05

> <r_epik_State_Penalty>
0.00558817

> <r_epik_Charging_Adjusted_Penalty>
0.0130659

> <i_epik_Tot_Q>
1

> <i_epik_Tot_abs_Q>
1

> <r_epik_Metal_State_Penalty>
-0

> <b_epik_Metal_Only>
0

> <s_lp_Force_Field>
OPLS_2005

> <r_lp_Energy>
36.1133

> <b_lp_Chiralities_Consistent>
1

> <s_lp_Variant>
AV-unprocessed.smi:2385-2

> <Gold.Version>
5.8.1

> <Gold.Id.Protein>
6NUR|6NUR_protein|mol2

> <Gold.PLP.Fitness>
44.4447

> <Gold.PLP.PLP>
-38.9037

> <Gold.PLP.part.hbond>
-2.4535

> <Gold.PLP.part.metal>
0.0000

> <Gold.PLP.part.buried>
-4.6054

> <Gold.PLP.part.nonpolar>
-31.9840

> <Gold.PLP.part.repulsive>
0.1137

> <Gold.PLP.ligand.clash>
0.0000

> <Gold.PLP.ligand.torsion>
0.1383

> <Gold.PLP.Chemscore.Hbond>
1.9280

> <Gold.PLP.Chemscore.CHOScore>
0.0000

> <Gold.PLP.Chemscore.Metal>
0.0000

> <Gold.Chemscore.Hbonds>
donor molecule, donor type, donor heavy atom, donor atom, acceptor molecule, acceptor atom, score
      L1  H     6    29       P1  7948  0.95
      L1  H     9    30       P1  7948  0.93

> <Gold.PLP.Chemscore.Internal.Correction>
0.0336

> <Gold.Rescore>
     Score         DG    S(hbond)    S(metal)    S(lipo)     H(rot)  DE(clash)    DE(int)     intcor
     16.76     -19.35       1.68        0.00     101.36       1.41       0.06       2.53       ----

> <Gold.Chemscore.Fitness>
16.7567

> <Gold.Chemscore.DG>
-19.3509

> <Gold.Chemscore.ZeroCoef>
-5.4800

> <Gold.Chemscore.Hbond>
1.6795

> <Gold.Chemscore.Metal>
0.0000

> <Gold.Chemscore.Lipo>
101.3647

> <Gold.Chemscore.Internal_Hbond>
0.0000

> <Gold.Chemscore.DEClash>
0.0622

> <Gold.Chemscore.DEInternal>
2.5320

> <Gold.Chemscore.Rot>
1.4056

> <Gold.Chemscore.Internal.Correction>
   9.000000E+99

> <Gold.Chemscore.Hbonds>
donor molecule, donor type, donor heavy atom, donor atom, acceptor molecule, acceptor atom, score
      L1  H     6    29       P1  7948  0.21
      L1  H     9    30       P1  7948  0.87

> <Gold.Chemscore.Hbond.Weighted>
-5.6095

> <Gold.Chemscore.Metal.Weighted>
-0.0000

> <Gold.Chemscore.Lipo.Weighted>
-11.8597

> <Gold.Chemscore.Internal_Hbond.Weighted>
0.0000

> <Gold.Chemscore.DEClash.Weighted>
0.0622

> <Gold.Chemscore.DEInternal.Weighted>
2.5320

> <Gold.Chemscore.Rot.Weighted>
3.5982

> <Gold.Chemscore.Internal.Correction.Weighted>
   9.000000E+99

> <Gold.Protein.RotatedTorsions>
[ 6907 6896 6895 6894 ] final  102.77 input  -60.11 | X-H torsion
[ 7974 7965 7964 7962 ] final  176.43 input  175.53 | X-H torsion
[ 8008 7997 7996 7995 ] final -159.25 input   59.86 | X-H torsion
[ 10167 10162 10161 10158 ] final  145.22 input  -65.29 | X-H torsion
[ 10718 10713 10712 10709 ] final -139.39 input   66.30 | X-H torsion
[ 10763 10752 10751 10750 ] final   78.52 input  -60.55 | X-H torsion
[ 11005 11000 10999 10996 ] final -138.73 input  -57.11 | X-H torsion

> <Gold.Protein.ActiveResidues>
 VAL166  LYS551  ARG553  GLY616  TRP617  ASP618  TYR619  PRO620  LYS621  CYS622 
 ASP623  PHE694  ASN695  SER759  ASP760  ASP761  ALA762  ILE779  LEU786  VAL792 
 PHE793  MET794  SER795  GLU796  ALA797  LYS798  CYS799  TRP800  GLU811  SER814 

> <Gold.Protein.RotatedAtoms>
  152.5314  133.9925  159.7857 H   0  0  0  0  0  0  0  0  0  0  0  0  # atno 6907 bound_to 6896
  151.0158  133.5914  159.2684 H   0  0  0  0  0  0  0  0  0  0  0  0  # atno 6908 bound_to 6896
  151.2972  135.0765  159.9279 H   0  0  0  0  0  0  0  0  0  0  0  0  # atno 6909 bound_to 6896
  144.7184  140.0095  143.6440 H   0  0  0  0  0  0  0  0  0  0  0  0  # atno 7974 bound_to 7965
  155.7597  140.0837  157.2161 H   0  0  0  0  0  0  0  0  0  0  0  0  # atno 8008 bound_to 7997
  154.4004  140.1545  156.2875 H   0  0  0  0  0  0  0  0  0  0  0  0  # atno 8009 bound_to 7997
  155.8851  140.3418  155.5918 H   0  0  0  0  0  0  0  0  0  0  0  0  # atno 8010 bound_to 7997
  139.4930  144.5917  151.6666 H   0  0  0  0  0  0  0  0  0  0  0  0  # atno 10167 bound_to 10162
  156.3102  130.7477  151.1551 H   0  0  0  0  0  0  0  0  0  0  0  0  # atno 10718 bound_to 10713
  153.0881  135.4874  154.8636 H   0  0  0  0  0  0  0  0  0  0  0  0  # atno 10763 bound_to 10752
  154.7235  135.3044  154.9010 H   0  0  0  0  0  0  0  0  0  0  0  0  # atno 10764 bound_to 10752
  153.9667  135.6806  153.4799 H   0  0  0  0  0  0  0  0  0  0  0  0  # atno 10765 bound_to 10752
  140.8588  134.2195  157.4719 H   0  0  0  0  0  0  0  0  0  0  0  0  # atno 11005 bound_to 11000
  146.0270  139.3301  143.0778 LP  0  0  0  0  0  0  0  0  0  0  0  0  # atno 17320 bound_to 7965
  145.8499  140.9534  143.0755 LP  0  0  0  0  0  0  0  0  0  0  0  0  # atno 17321 bound_to 7965
  140.5546  144.0370  150.6142 LP  0  0  0  0  0  0  0  0  0  0  0  0  # atno 17342 bound_to 10162
  140.3435  143.3005  152.0563 LP  0  0  0  0  0  0  0  0  0  0  0  0  # atno 17343 bound_to 10162
  157.7389  131.0535  150.5265 LP  0  0  0  0  0  0  0  0  0  0  0  0  # atno 17370 bound_to 10713
  156.5404  130.4206  149.6157 LP  0  0  0  0  0  0  0  0  0  0  0  0  # atno 17371 bound_to 10713
  139.8706  134.9719  156.4755 LP  0  0  0  0  0  0  0  0  0  0  0  0  # atno 17394 bound_to 11000
  140.8706  133.7991  155.9361 LP  0  0  0  0  0  0  0  0  0  0  0  0  # atno 17395 bound_to 11000

$$$$
