AV-unprocessed.smi:1889|AV-procd|sdf|7661|dock7
  -GOLD-   22720 9393D 1   1.00000     0.00000
 Structure written by MMmdl.
 35 36  0  0  0  0  0  0  0  0  2 V2000
  144.7431  143.4005  154.1183 C   0  0  0  0  0  0  0  0  0  0  0  0
  146.1503  142.7966  154.0555 C   0  0  0  0  0  0  0  0  0  0  0  0
  146.1576  141.2890  154.3457 C   0  0  0  0  0  0  0  0  0  0  0  0
  147.4958  140.7957  154.7850 C   0  0  0  0  0  0  0  0  0  0  0  0
  147.6680  140.0319  155.8672 N   0  0  0  0  0  0  0  0  0  0  0  0
  149.0035  139.7244  156.0830 N   0  0  0  0  0  0  0  0  0  0  0  0
  149.8219  140.2650  155.1692 C   0  0  0  0  0  0  0  0  0  0  0  0
  151.1538  140.0943  155.2031 N   0  5  0  0  0  0  0  0  0  0  0  0
  151.8118  140.1468  156.3837 C   0  0  0  0  0  0  0  0  0  0  0  0
  152.6082  139.3088  156.8128 O   0  0  0  0  0  0  0  0  0  0  0  0
  151.5349  141.2417  157.1067 N   0  0  0  0  0  0  0  0  0  0  0  0
  152.0975  141.5831  158.4106 C   0  0  0  0  0  0  0  0  0  0  0  0
  151.5342  142.9119  158.9493 C   0  0  2  0  0  0  0  0  0  0  0  0
  151.9320  144.1497  158.1682 C   0  0  0  0  0  0  0  0  0  0  0  0
  151.6642  145.2638  159.1759 C   0  0  0  0  0  0  0  0  0  0  0  0
  151.8555  144.6842  160.4639 O   0  0  0  0  0  0  0  0  0  0  0  0
  152.0445  143.2778  160.3421 C   0  0  0  0  0  0  0  0  0  0  0  0
  148.9813  141.2313  153.9570 S   0  0  0  0  0  0  0  0  0  0  0  0
  144.7702  144.4699  153.9090 H   0  0  0  0  0  0  0  0  0  0  0  0
  144.3008  143.2655  155.1058 H   0  0  0  0  0  0  0  0  0  0  0  0
  144.0819  142.9348  153.3871 H   0  0  0  0  0  0  0  0  0  0  0  0
  146.5751  142.9797  153.0678 H   0  0  0  0  0  0  0  0  0  0  0  0
  146.7949  143.3100  154.7698 H   0  0  0  0  0  0  0  0  0  0  0  0
  145.4254  141.0518  155.1187 H   0  0  0  0  0  0  0  0  0  0  0  0
  145.8610  140.7349  153.4547 H   0  0  0  0  0  0  0  0  0  0  0  0
  150.8760  141.8973  156.7124 H   0  0  0  0  0  0  0  0  0  0  0  0
  151.8419  140.7770  159.0985 H   0  0  0  0  0  0  0  0  0  0  0  0
  153.1878  141.6119  158.3708 H   0  0  0  0  0  0  0  0  0  0  0  0
  150.4446  142.8562  158.9837 H   0  0  0  0  0  0  0  0  0  0  0  0
  152.9945  144.1178  157.9219 H   0  0  0  0  0  0  0  0  0  0  0  0
  151.3711  144.2735  157.2414 H   0  0  0  0  0  0  0  0  0  0  0  0
  152.3170  146.1240  159.0256 H   0  0  0  0  0  0  0  0  0  0  0  0
  150.6310  145.6056  159.1005 H   0  0  0  0  0  0  0  0  0  0  0  0
  151.5258  142.7366  161.1336 H   0  0  0  0  0  0  0  0  0  0  0  0
  153.1110  143.0654  160.4307 H   0  0  0  0  0  0  0  0  0  0  0  0
  1  2  1  0  0  0  0
  1 19  1  0  0  0  0
  1 20  1  0  0  0  0
  1 21  1  0  0  0  0
  2  3  1  0  0  0  0
  2 22  1  0  0  0  0
  2 23  1  0  0  0  0
  3  4  1  0  0  0  0
  3 24  1  0  0  0  0
  3 25  1  0  0  0  0
  4 18  1  0  0  0  0
  4  5  2  0  0  0  0
  5  6  1  0  0  0  0
  6  7  2  0  0  0  0
  7  8  1  0  0  0  0
  7 18  1  0  0  0  0
  8  9  1  0  0  0  0
  9 10  2  0  0  0  0
  9 11  1  0  0  0  0
 11 12  1  0  0  0  0
 11 26  1  0  0  0  0
 12 13  1  0  0  0  0
 12 27  1  0  0  0  0
 12 28  1  0  0  0  0
 13 17  1  0  0  0  0
 13 14  1  0  0  0  0
 13 29  1  0  0  0  0
 14 15  1  0  0  0  0
 14 30  1  0  0  0  0
 14 31  1  0  0  0  0
 15 16  1  0  0  0  0
 15 32  1  0  0  0  0
 15 33  1  0  0  0  0
 16 17  1  0  0  0  0
 17 34  1  0  0  0  0
 17 35  1  0  0  0  0
M  CHG  1   8  -1
M  END
> <s_m_source_file>
AV-unprocessed.smi

> <i_m_source_file_index>
1889

> <i_lp_mmshare_version>
43012

> <i_f3d_flags>
0

> <s_epik_input>
W0NIM11bQ0gyXVtDSDJdYzFubmMoczEpW05IXUMoPU8pW05IXVtDSDJdW0NAQEhdMltDSDJdW0NIMl1PW0NIMl0y

> <s_epik_cmdline>
J2VwaWtfcHl0aG9uJywgJy1waCcsICc3LjAnLCAnLXRuJywgJzgnLCAnLW1hJywgJzIwMCcsICctbWV0YWxfYmluZGluZycsICctaW1hZScsICc8aW5maWxlLm1hZT4nLCAnLW9tYWUnLCAnPG91dGZpbGUubWFlPic=

> <r_lp_tautomer_probability>
1

> <r_epik_Ionization_Penalty>
4.29669

> <r_epik_Ionization_Penalty_Charging>
4.28522

> <r_epik_Ionization_Penalty_Neutral>
0.0114689

> <r_epik_State_Penalty>
4.28479

> <r_epik_Charging_Adjusted_Penalty>
8.57002

> <i_epik_Tot_Q>
-1

> <i_epik_Tot_abs_Q>
1

> <r_epik_Metal_State_Penalty>
0.72177

> <b_epik_Metal_Only>
1

> <s_lp_Force_Field>
OPLS_2005

> <r_lp_Energy>
11.5011

> <b_lp_Chiralities_Consistent>
1

> <s_lp_Variant>
AV-unprocessed.smi:1889-3

> <Gold.Version>
5.8.1

> <Gold.Id.Protein>
6NUR|6NUR_protein|mol2

> <Gold.PLP.Fitness>
40.2201

> <Gold.PLP.PLP>
-36.2143

> <Gold.PLP.part.hbond>
-2.0000

> <Gold.PLP.part.metal>
0.0000

> <Gold.PLP.part.buried>
-2.1049

> <Gold.PLP.part.nonpolar>
-32.5525

> <Gold.PLP.part.repulsive>
0.2715

> <Gold.PLP.ligand.clash>
0.0000

> <Gold.PLP.ligand.torsion>
1.0420

> <Gold.PLP.Chemscore.Hbond>
2.0000

> <Gold.PLP.Chemscore.CHOScore>
0.0000

> <Gold.PLP.Chemscore.Metal>
0.0000

> <Gold.Chemscore.Hbonds>
donor molecule, donor type, donor heavy atom, donor atom, acceptor molecule, acceptor atom, score
      P1  H  7989  7998       L1     8  1.00
      P1  H  7997  8008       L1    10  1.00

> <Gold.PLP.Chemscore.Internal.Correction>
0.0898

> <Gold.Rescore>
     Score         DG    S(hbond)    S(metal)    S(lipo)     H(rot)  DE(clash)    DE(int)     intcor
     15.93     -17.25       1.87        0.00      81.92       1.59       0.35       0.96       ----

> <Gold.Chemscore.Fitness>
15.9335

> <Gold.Chemscore.DG>
-17.2464

> <Gold.Chemscore.ZeroCoef>
-5.4800

> <Gold.Chemscore.Hbond>
1.8736

> <Gold.Chemscore.Metal>
0.0000

> <Gold.Chemscore.Lipo>
81.9191

> <Gold.Chemscore.Internal_Hbond>
0.0000

> <Gold.Chemscore.DEClash>
0.3541

> <Gold.Chemscore.DEInternal>
0.9589

> <Gold.Chemscore.Rot>
1.5922

> <Gold.Chemscore.Internal.Correction>
   9.000000E+99

> <Gold.Chemscore.Hbonds>
donor molecule, donor type, donor heavy atom, donor atom, acceptor molecule, acceptor atom, score
      P1  H  7989  7998       L1     8  0.25
      P1  H  7997  8008       L1    10  0.55

> <Gold.Chemscore.Hbond.Weighted>
-6.2580

> <Gold.Chemscore.Metal.Weighted>
-0.0000

> <Gold.Chemscore.Lipo.Weighted>
-9.5845

> <Gold.Chemscore.Internal_Hbond.Weighted>
0.0000

> <Gold.Chemscore.DEClash.Weighted>
0.3541

> <Gold.Chemscore.DEInternal.Weighted>
0.9589

> <Gold.Chemscore.Rot.Weighted>
4.0761

> <Gold.Chemscore.Internal.Correction.Weighted>
   9.000000E+99

> <Gold.Protein.RotatedTorsions>
[ 6907 6896 6895 6894 ] final  -39.32 input  -60.11 | X-H torsion
[ 7974 7965 7964 7962 ] final  153.46 input  175.53 | X-H torsion
[ 8008 7997 7996 7995 ] final  -56.34 input   59.86 | X-H torsion
[ 10167 10162 10161 10158 ] final -135.79 input  -65.29 | X-H torsion
[ 10718 10713 10712 10709 ] final  127.27 input   66.30 | X-H torsion
[ 10763 10752 10751 10750 ] final    8.77 input  -60.55 | X-H torsion
[ 11005 11000 10999 10996 ] final   31.24 input  -57.11 | X-H torsion

> <Gold.Protein.ActiveResidues>
 VAL166  LYS551  ARG553  GLY616  TRP617  ASP618  TYR619  PRO620  LYS621  CYS622 
 ASP623  PHE694  ASN695  SER759  ASP760  ASP761  ALA762  ILE779  LEU786  VAL792 
 PHE793  MET794  SER795  GLU796  ALA797  LYS798  CYS799  TRP800  GLU811  SER814 

> <Gold.Protein.RotatedAtoms>
  150.9918  134.9251  159.7903 H   0  0  0  0  0  0  0  0  0  0  0  0  # atno 6907 bound_to 6896
  152.5253  134.3271  159.9179 H   0  0  0  0  0  0  0  0  0  0  0  0  # atno 6908 bound_to 6896
  151.3277  133.3972  159.2694 H   0  0  0  0  0  0  0  0  0  0  0  0  # atno 6909 bound_to 6896
  144.8153  139.6804  143.6124 H   0  0  0  0  0  0  0  0  0  0  0  0  # atno 7974 bound_to 7965
  154.4227  140.1132  156.5622 H   0  0  0  0  0  0  0  0  0  0  0  0  # atno 8008 bound_to 7997
  155.6299  140.3495  155.4660 H   0  0  0  0  0  0  0  0  0  0  0  0  # atno 8009 bound_to 7997
  155.9956  140.1188  157.0586 H   0  0  0  0  0  0  0  0  0  0  0  0  # atno 8010 bound_to 7997
  139.8743  143.6918  152.2636 H   0  0  0  0  0  0  0  0  0  0  0  0  # atno 10167 bound_to 10162
  157.5348  131.1098  150.8953 H   0  0  0  0  0  0  0  0  0  0  0  0  # atno 10718 bound_to 10713
  153.2214  135.6881  153.7996 H   0  0  0  0  0  0  0  0  0  0  0  0  # atno 10763 bound_to 10752
  153.7194  135.3270  155.3264 H   0  0  0  0  0  0  0  0  0  0  0  0  # atno 10764 bound_to 10752
  154.8271  135.4609  154.1062 H   0  0  0  0  0  0  0  0  0  0  0  0  # atno 10765 bound_to 10752
  140.2860  134.2919  155.7788 H   0  0  0  0  0  0  0  0  0  0  0  0  # atno 11005 bound_to 11000
  146.2455  139.6090  142.9462 LP  0  0  0  0  0  0  0  0  0  0  0  0  # atno 17320 bound_to 7965
  145.5229  141.0431  143.2425 LP  0  0  0  0  0  0  0  0  0  0  0  0  # atno 17321 bound_to 7965
  139.7255  144.7594  151.0886 LP  0  0  0  0  0  0  0  0  0  0  0  0  # atno 17342 bound_to 10162
  140.7755  143.5154  150.9601 LP  0  0  0  0  0  0  0  0  0  0  0  0  # atno 17343 bound_to 10162
  156.9524  130.5424  149.5283 LP  0  0  0  0  0  0  0  0  0  0  0  0  # atno 17370 bound_to 10713
  156.0450  130.5527  150.8859 LP  0  0  0  0  0  0  0  0  0  0  0  0  # atno 17371 bound_to 10713
  141.2155  133.7555  156.9552 LP  0  0  0  0  0  0  0  0  0  0  0  0  # atno 17394 bound_to 11000
  140.1240  134.9399  157.2243 LP  0  0  0  0  0  0  0  0  0  0  0  0  # atno 17395 bound_to 11000

$$$$
