AV-unprocessed.smi:1645|AV-procd|sdf|6620|dock7
  -GOLD-   22720 7323D 1   1.00000     0.00000
 Structure written by MMmdl.
 55 58  0  0  0  0  0  0  0  0  4 V2000
  152.9522  136.5031  160.5160 O   0  0  0  0  0  0  0  0  0  0  0  0
  153.8886  136.6482  161.3079 C   0  0  0  0  0  0  0  0  0  0  0  0
  154.3449  137.8738  161.6233 N   0  0  0  0  0  0  0  0  0  0  0  0
  153.9342  139.1609  161.1757 C   0  0  0  0  0  0  0  0  0  0  0  0
  153.0963  139.2064  160.0425 C   0  0  0  0  0  0  0  0  0  0  0  0
  152.6482  140.4465  159.5443 C   0  0  0  0  0  0  0  0  0  0  0  0
  153.0414  141.6477  160.1853 C   0  0  0  0  0  0  0  0  0  0  0  0
  152.6470  142.9362  159.7590 N   0  0  0  0  0  0  0  0  0  0  0  0
  152.1188  143.8272  160.7972 C   0  0  0  0  0  0  0  0  0  0  0  0
  152.1174  145.2940  160.3345 C   0  0  0  0  0  0  0  0  0  0  0  0
  151.3925  145.4498  158.9907 C   0  0  0  0  0  0  0  0  0  0  0  0
  152.0234  144.5166  157.9488 C   0  0  0  0  0  0  0  0  0  0  0  0
  152.0272  143.0582  158.4378 C   0  0  0  0  0  0  0  0  0  0  0  0
  153.8511  141.5536  161.2674 N   0  3  0  0  0  0  0  0  0  0  0  0
  154.3044  140.3879  161.7769 C   0  0  0  0  0  0  0  0  0  0  0  0
  154.5854  135.6715  161.9488 N   0  5  0  0  0  0  0  0  0  0  0  0
  155.4621  134.6934  161.2919 C   0  0  2  0  0  0  0  0  0  0  0  0
  154.6745  133.9499  160.2070 C   0  0  0  0  0  0  0  0  0  0  0  0
  153.9738  132.7818  160.9271 C   0  0  0  0  0  0  0  0  0  0  0  0
  154.6700  132.5821  162.2242 N   0  3  2  0  0  0  0  0  0  0  0  0
  153.7467  132.6762  163.3914 C   0  0  0  0  0  0  0  0  0  0  0  0
  154.4968  132.6992  164.7281 C   0  0  0  0  0  0  0  0  0  0  0  0
  155.4452  133.8987  164.7715 C   0  0  0  0  0  0  0  0  0  0  0  0
  156.4597  133.7943  163.6249 C   0  0  0  0  0  0  0  0  0  0  0  0
  155.8259  133.5217  162.2313 C   0  0  2  0  0  0  0  0  0  0  0  0
  155.1161  137.8771  162.2748 H   0  0  0  0  0  0  0  0  0  0  0  0
  152.7916  138.2924  159.5538 H   0  0  0  0  0  0  0  0  0  0  0  0
  151.9991  140.4478  158.6820 H   0  0  0  0  0  0  0  0  0  0  0  0
  151.1027  143.5130  161.0391 H   0  0  0  0  0  0  0  0  0  0  0  0
  152.6952  143.7587  161.7194 H   0  0  0  0  0  0  0  0  0  0  0  0
  151.6446  145.9222  161.0899 H   0  0  0  0  0  0  0  0  0  0  0  0
  153.1451  145.6470  160.2375 H   0  0  0  0  0  0  0  0  0  0  0  0
  150.3348  145.2114  159.1099 H   0  0  0  0  0  0  0  0  0  0  0  0
  151.4450  146.4846  158.6511 H   0  0  0  0  0  0  0  0  0  0  0  0
  151.4848  144.5911  157.0039 H   0  0  0  0  0  0  0  0  0  0  0  0
  153.0471  144.8358  157.7469 H   0  0  0  0  0  0  0  0  0  0  0  0
  152.5686  142.4545  157.7089 H   0  0  0  0  0  0  0  0  0  0  0  0
  151.0068  142.6758  158.4857 H   0  0  0  0  0  0  0  0  0  0  0  0
  154.9419  140.5017  162.6391 H   0  0  0  0  0  0  0  0  0  0  0  0
  156.3582  135.1483  160.8678 H   0  0  0  0  0  0  0  0  0  0  0  0
  153.9768  134.5881  159.6626 H   0  0  0  0  0  0  0  0  0  0  0  0
  155.3745  133.5474  159.4736 H   0  0  0  0  0  0  0  0  0  0  0  0
  152.9158  133.0079  161.0740 H   0  0  0  0  0  0  0  0  0  0  0  0
  154.0224  131.8696  160.3316 H   0  0  0  0  0  0  0  0  0  0  0  0
  153.1361  133.5772  163.3135 H   0  0  0  0  0  0  0  0  0  0  0  0
  153.0587  131.8307  163.3643 H   0  0  0  0  0  0  0  0  0  0  0  0
  153.7842  132.7615  165.5510 H   0  0  0  0  0  0  0  0  0  0  0  0
  155.0536  131.7715  164.8646 H   0  0  0  0  0  0  0  0  0  0  0  0
  154.8779  134.8265  164.6980 H   0  0  0  0  0  0  0  0  0  0  0  0
  155.9672  133.9315  165.7281 H   0  0  0  0  0  0  0  0  0  0  0  0
  157.1077  134.6727  163.6090 H   0  0  0  0  0  0  0  0  0  0  0  0
  157.1216  132.9590  163.8577 H   0  0  0  0  0  0  0  0  0  0  0  0
  156.6021  132.9823  161.6850 H   0  0  0  0  0  0  0  0  0  0  0  0
  155.0554  131.6492  162.2379 H   0  0  0  0  0  0  0  0  0  0  0  0
  154.1406  142.4171  161.7266 H   0  0  0  0  0  0  0  0  0  0  0  0
  1  2  2  0  0  0  0
  2  3  1  0  0  0  0
  2 16  1  0  0  0  0
  3  4  1  0  0  0  0
  3 26  1  0  0  0  0
  4 15  1  0  0  0  0
  4  5  2  0  0  0  0
  5  6  1  0  0  0  0
  5 27  1  0  0  0  0
  6  7  2  0  0  0  0
  6 28  1  0  0  0  0
  7  8  1  0  0  0  0
  7 14  1  0  0  0  0
  8 13  1  0  0  0  0
  8  9  1  0  0  0  0
  9 10  1  0  0  0  0
  9 29  1  0  0  0  0
  9 30  1  0  0  0  0
 10 11  1  0  0  0  0
 10 31  1  0  0  0  0
 10 32  1  0  0  0  0
 11 12  1  0  0  0  0
 11 33  1  0  0  0  0
 11 34  1  0  0  0  0
 12 13  1  0  0  0  0
 12 35  1  0  0  0  0
 12 36  1  0  0  0  0
 13 37  1  0  0  0  0
 13 38  1  0  0  0  0
 14 15  2  0  0  0  0
 14 55  1  0  0  0  0
 15 39  1  0  0  0  0
 16 17  1  0  0  0  0
 17 25  1  0  0  0  0
 17 18  1  0  0  0  0
 17 40  1  0  0  0  0
 18 19  1  0  0  0  0
 18 41  1  0  0  0  0
 18 42  1  0  0  0  0
 19 20  1  0  0  0  0
 19 43  1  0  0  0  0
 19 44  1  0  0  0  0
 20 25  1  0  0  0  0
 20 21  1  0  0  0  0
 20 54  1  0  0  0  0
 21 22  1  0  0  0  0
 21 45  1  0  0  0  0
 21 46  1  0  0  0  0
 22 23  1  0  0  0  0
 22 47  1  0  0  0  0
 22 48  1  0  0  0  0
 23 24  1  0  0  0  0
 23 49  1  0  0  0  0
 23 50  1  0  0  0  0
 24 25  1  0  0  0  0
 24 51  1  0  0  0  0
 24 52  1  0  0  0  0
 25 53  1  0  0  0  0
M  CHG  1  14   1
M  CHG  1  16  -1
M  CHG  1  20   1
M  END
> <s_m_source_file>
AV-unprocessed.smi

> <i_m_source_file_index>
1645

> <i_lp_mmshare_version>
43012

> <i_f3d_flags>
0

> <s_epik_input>
W0NIMl0xW0NIMl1bQ0gyXVtDSDJdW0NASF0oTjEyKVtDQEBIXShbQ0gyXVtDSDJdMilbTkhdQyg9TylbTkhdYzNbY0hdW2NIXWMobltjSF0zKU40W0NIMl1bQ0gyXVtDSDJdW0NIMl1bQ0gyXTQ=

> <s_epik_cmdline>
J2VwaWtfcHl0aG9uJywgJy1waCcsICc3LjAnLCAnLXRuJywgJzgnLCAnLW1hJywgJzIwMCcsICctbWV0YWxfYmluZGluZycsICctaW1hZScsICc8aW5maWxlLm1hZT4nLCAnLW9tYWUnLCAnPG91dGZpbGUubWFlPic=

> <r_lp_tautomer_probability>
0.999994

> <r_epik_Ionization_Penalty>
8.55589

> <r_epik_Ionization_Penalty_Charging>
8.55589

> <r_epik_Ionization_Penalty_Neutral>
3.8092e-06

> <r_epik_State_Penalty>
8.15703

> <r_epik_Charging_Adjusted_Penalty>
16.7129

> <i_epik_Tot_Q>
1

> <i_epik_Tot_abs_Q>
3

> <r_epik_Metal_State_Penalty>
4.13781

> <b_epik_Metal_Only>
1

> <s_lp_Force_Field>
OPLS_2005

> <r_lp_Energy>
58.0783

> <b_lp_Chiralities_Consistent>
1

> <s_lp_Variant>
AV-unprocessed.smi:1645-21

> <Gold.Version>
5.8.1

> <Gold.Id.Protein>
6NUR|6NUR_protein|mol2

> <Gold.PLP.Fitness>
44.4368

> <Gold.PLP.PLP>
-42.9924

> <Gold.PLP.part.hbond>
-1.0000

> <Gold.PLP.part.metal>
0.0000

> <Gold.PLP.part.buried>
-6.7222

> <Gold.PLP.part.nonpolar>
-35.4689

> <Gold.PLP.part.repulsive>
0.0392

> <Gold.PLP.ligand.clash>
0.0632

> <Gold.PLP.ligand.torsion>
1.0256

> <Gold.PLP.Chemscore.Hbond>
1.0000

> <Gold.PLP.Chemscore.CHOScore>
0.0000

> <Gold.PLP.Chemscore.Metal>
0.0000

> <Gold.Chemscore.Hbonds>
donor molecule, donor type, donor heavy atom, donor atom, acceptor molecule, acceptor atom, score
      P1  H  6896  6909       L1     1  1.00

> <Gold.PLP.Chemscore.Internal.Correction>
0.5589

> <Gold.Rescore>
     Score         DG    S(hbond)    S(metal)    S(lipo)     H(rot)  DE(clash)    DE(int)     intcor
     17.95     -20.49       1.00        0.00     125.49       1.17       0.09       2.45       ----

> <Gold.Chemscore.Fitness>
17.9484

> <Gold.Chemscore.DG>
-20.4940

> <Gold.Chemscore.ZeroCoef>
-5.4800

> <Gold.Chemscore.Hbond>
0.9985

> <Gold.Chemscore.Metal>
0.0000

> <Gold.Chemscore.Lipo>
125.4887

> <Gold.Chemscore.Internal_Hbond>
0.0000

> <Gold.Chemscore.DEClash>
0.0945

> <Gold.Chemscore.DEInternal>
2.4511

> <Gold.Chemscore.Rot>
1.1731

> <Gold.Chemscore.Internal.Correction>
   9.000000E+99

> <Gold.Chemscore.Hbonds>
donor molecule, donor type, donor heavy atom, donor atom, acceptor molecule, acceptor atom, score
      P1  H  6896  6909       L1     1  1.00

> <Gold.Chemscore.Hbond.Weighted>
-3.3350

> <Gold.Chemscore.Metal.Weighted>
-0.0000

> <Gold.Chemscore.Lipo.Weighted>
-14.6822

> <Gold.Chemscore.Internal_Hbond.Weighted>
0.0000

> <Gold.Chemscore.DEClash.Weighted>
0.0945

> <Gold.Chemscore.DEInternal.Weighted>
2.4511

> <Gold.Chemscore.Rot.Weighted>
3.0032

> <Gold.Chemscore.Internal.Correction.Weighted>
   9.000000E+99

> <Gold.Protein.RotatedTorsions>
[ 6907 6896 6895 6894 ] final  149.08 input  -60.11 | X-H torsion
[ 7974 7965 7964 7962 ] final  106.88 input  175.53 | X-H torsion
[ 8008 7997 7996 7995 ] final   53.08 input   59.86 | X-H torsion
[ 10167 10162 10161 10158 ] final   88.72 input  -65.29 | X-H torsion
[ 10718 10713 10712 10709 ] final  -54.03 input   66.30 | X-H torsion
[ 10763 10752 10751 10750 ] final -104.94 input  -60.55 | X-H torsion
[ 11005 11000 10999 10996 ] final -144.85 input  -57.11 | X-H torsion

> <Gold.Protein.ActiveResidues>
 VAL166  LYS551  ARG553  GLY616  TRP617  ASP618  TYR619  PRO620  LYS621  CYS622 
 ASP623  PHE694  ASN695  SER759  ASP760  ASP761  ALA762  ILE779  LEU786  VAL792 
 PHE793  MET794  SER795  GLU796  ALA797  LYS798  CYS799  TRP800  GLU811  SER814 

> <Gold.Protein.RotatedAtoms>
  152.1329  133.4418  159.4729 H   0  0  0  0  0  0  0  0  0  0  0  0  # atno 6907 bound_to 6896
  150.6879  134.2399  159.4477 H   0  0  0  0  0  0  0  0  0  0  0  0  # atno 6908 bound_to 6896
  152.0284  134.9782  160.0622 H   0  0  0  0  0  0  0  0  0  0  0  0  # atno 6909 bound_to 6896
  145.3009  139.2570  143.3814 H   0  0  0  0  0  0  0  0  0  0  0  0  # atno 7974 bound_to 7965
  155.4623  140.3462  155.4314 H   0  0  0  0  0  0  0  0  0  0  0  0  # atno 8008 bound_to 7997
  156.1153  140.1472  156.9311 H   0  0  0  0  0  0  0  0  0  0  0  0  # atno 8009 bound_to 7997
  154.4784  140.0877  156.7298 H   0  0  0  0  0  0  0  0  0  0  0  0  # atno 8010 bound_to 7997
  139.8644  144.6526  150.9021 H   0  0  0  0  0  0  0  0  0  0  0  0  # atno 10167 bound_to 10162
  156.1485  130.4152  149.9984 H   0  0  0  0  0  0  0  0  0  0  0  0  # atno 10718 bound_to 10713
  154.7913  135.4767  154.0059 H   0  0  0  0  0  0  0  0  0  0  0  0  # atno 10763 bound_to 10752
  153.1635  135.6813  153.8715 H   0  0  0  0  0  0  0  0  0  0  0  0  # atno 10764 bound_to 10752
  153.8321  135.3190  155.3397 H   0  0  0  0  0  0  0  0  0  0  0  0  # atno 10765 bound_to 10752
  140.7982  134.2888  157.4988 H   0  0  0  0  0  0  0  0  0  0  0  0  # atno 11005 bound_to 11000
  146.3152  140.3523  142.8657 LP  0  0  0  0  0  0  0  0  0  0  0  0  # atno 17320 bound_to 7965
  144.9094  140.7739  143.5817 LP  0  0  0  0  0  0  0  0  0  0  0  0  # atno 17321 bound_to 7965
  140.7770  143.3716  151.1638 LP  0  0  0  0  0  0  0  0  0  0  0  0  # atno 17342 bound_to 10162
  139.7343  143.9024  152.3030 LP  0  0  0  0  0  0  0  0  0  0  0  0  # atno 17343 bound_to 10162
  156.7849  130.9235  151.3646 LP  0  0  0  0  0  0  0  0  0  0  0  0  # atno 17370 bound_to 10713
  157.6637  130.8988  149.9884 LP  0  0  0  0  0  0  0  0  0  0  0  0  # atno 17371 bound_to 10713
  139.8724  134.9414  156.3796 LP  0  0  0  0  0  0  0  0  0  0  0  0  # atno 17394 bound_to 11000
  140.9321  133.7572  156.0038 LP  0  0  0  0  0  0  0  0  0  0  0  0  # atno 17395 bound_to 11000

$$$$
