AV-unprocessed.smi:2032|AV-procd|sdf|8245|dock1
  -GOLD-   2272010513D 1   1.00000     0.00000
 Structure written by MMmdl.
 41 42  0  0  0  0  0  0  0  0  2 V2000
  151.3380  141.4474  157.3274 C   0  0  0  0  0  0  0  0  0  0  0  0
  150.6663  141.1999  155.9657 C   0  0  2  0  0  0  0  0  0  0  0  0
  149.2477  140.6076  156.0830 C   0  0  0  0  0  0  0  0  0  0  0  0
  149.2279  139.1927  156.4720 N   0  0  0  0  0  0  0  0  0  0  0  0
  147.8509  138.6482  156.5504 C   0  0  2  0  0  0  0  0  0  0  0  0
  146.8974  139.5522  157.3733 C   0  0  0  0  0  0  0  0  0  0  0  0
  147.7902  137.2002  157.1210 C   0  0  0  0  0  0  0  0  0  0  0  0
  147.8347  137.1430  158.5805 N   0  0  0  0  0  0  0  0  0  0  0  0
  148.8926  136.7864  159.3230 C   0  0  0  0  0  0  0  0  0  0  0  0
  149.9551  136.4832  158.7750 O   0  0  0  0  0  0  0  0  0  0  0  0
  148.6512  136.7983  160.6538 N   0  5  0  0  0  0  0  0  0  0  0  0
  147.8066  135.9043  161.1930 C   0  0  0  0  0  0  0  0  0  0  0  0
  147.2861  134.8832  160.5024 N   0  0  0  0  0  0  0  0  0  0  0  0
  146.4424  134.0715  161.2629 C   0  0  0  0  0  0  0  0  0  0  0  0
  146.3245  134.4785  162.5653 C   0  0  0  0  0  0  0  0  0  0  0  0
  147.2743  135.9035  162.8769 S   0  0  0  0  0  0  0  0  0  0  0  0
  150.0784  138.4566  155.5322 C   0  0  0  0  0  0  0  0  0  0  0  0
  151.5121  139.0129  155.4603 C   0  0  1  0  0  0  0  0  0  0  0  0
  152.3601  138.2843  154.4123 C   0  0  0  0  0  0  0  0  0  0  0  0
  151.4735  140.3926  155.1122 O   0  0  0  0  0  0  0  0  0  0  0  0
  150.7654  142.1642  157.9163 H   0  0  0  0  0  0  0  0  0  0  0  0
  152.3413  141.8530  157.1983 H   0  0  0  0  0  0  0  0  0  0  0  0
  151.4185  140.5347  157.9174 H   0  0  0  0  0  0  0  0  0  0  0  0
  150.5822  142.1696  155.4744 H   0  0  0  0  0  0  0  0  0  0  0  0
  148.7030  141.2165  156.8019 H   0  0  0  0  0  0  0  0  0  0  0  0
  148.7370  140.7242  155.1258 H   0  0  0  0  0  0  0  0  0  0  0  0
  147.4512  138.6086  155.5361 H   0  0  0  0  0  0  0  0  0  0  0  0
  145.8995  139.1260  157.4710 H   0  0  0  0  0  0  0  0  0  0  0  0
  146.7412  140.5234  156.9065 H   0  0  0  0  0  0  0  0  0  0  0  0
  147.2824  139.7176  158.3798 H   0  0  0  0  0  0  0  0  0  0  0  0
  146.8833  136.6782  156.8187 H   0  0  0  0  0  0  0  0  0  0  0  0
  148.6258  136.6154  156.7357 H   0  0  0  0  0  0  0  0  0  0  0  0
  146.9862  137.3842  159.0712 H   0  0  0  0  0  0  0  0  0  0  0  0
  145.9683  133.2218  160.7950 H   0  0  0  0  0  0  0  0  0  0  0  0
  145.7426  134.0299  163.3561 H   0  0  0  0  0  0  0  0  0  0  0  0
  150.1649  137.4134  155.8280 H   0  0  0  0  0  0  0  0  0  0  0  0
  149.6271  138.4684  154.5388 H   0  0  0  0  0  0  0  0  0  0  0  0
  151.9958  138.8963  156.4304 H   0  0  0  0  0  0  0  0  0  0  0  0
  152.4362  137.2206  154.6397 H   0  0  0  0  0  0  0  0  0  0  0  0
  153.3717  138.6896  154.3789 H   0  0  0  0  0  0  0  0  0  0  0  0
  151.9277  138.3839  153.4163 H   0  0  0  0  0  0  0  0  0  0  0  0
  1  2  1  0  0  0  0
  1 21  1  0  0  0  0
  1 22  1  0  0  0  0
  1 23  1  0  0  0  0
  2 20  1  0  0  0  0
  2  3  1  0  0  0  0
  2 24  1  0  0  0  0
  3  4  1  0  0  0  0
  3 25  1  0  0  0  0
  3 26  1  0  0  0  0
  4  5  1  0  0  0  0
  4 17  1  0  0  0  0
  5  6  1  0  0  0  0
  5  7  1  0  0  0  0
  5 27  1  0  0  0  0
  6 28  1  0  0  0  0
  6 29  1  0  0  0  0
  6 30  1  0  0  0  0
  7  8  1  0  0  0  0
  7 31  1  0  0  0  0
  7 32  1  0  0  0  0
  8  9  1  0  0  0  0
  8 33  1  0  0  0  0
  9 10  2  0  0  0  0
  9 11  1  0  0  0  0
 11 12  1  0  0  0  0
 12 16  1  0  0  0  0
 12 13  2  0  0  0  0
 13 14  1  0  0  0  0
 14 15  2  0  0  0  0
 14 34  1  0  0  0  0
 15 16  1  0  0  0  0
 15 35  1  0  0  0  0
 17 18  1  0  0  0  0
 17 36  1  0  0  0  0
 17 37  1  0  0  0  0
 18 19  1  0  0  0  0
 18 20  1  0  0  0  0
 18 38  1  0  0  0  0
 19 39  1  0  0  0  0
 19 40  1  0  0  0  0
 19 41  1  0  0  0  0
M  CHG  1  11  -1
M  END
> <s_m_source_file>
AV-unprocessed.smi

> <i_m_source_file_index>
2032

> <i_lp_mmshare_version>
43012

> <i_f3d_flags>
0

> <s_epik_input>
W0NIM11bQ0BASF0xW0NIMl1OKFtDSDJdW0NASF0oTzEpW0NIM10pW0NASF0oW0NIM10pW0NIMl1bTkhdQyg9TylbTkhdYzJuW2NIXVtjSF1zMg==

> <s_epik_cmdline>
J2VwaWtfcHl0aG9uJywgJy1waCcsICc3LjAnLCAnLXRuJywgJzgnLCAnLW1hJywgJzIwMCcsICctbWV0YWxfYmluZGluZycsICctaW1hZScsICc8aW5maWxlLm1hZT4nLCAnLW9tYWUnLCAnPG91dGZpbGUubWFlPic=

> <r_lp_tautomer_probability>
0.999

> <r_epik_Ionization_Penalty>
7.22375

> <r_epik_Ionization_Penalty_Charging>
5.82415

> <r_epik_Ionization_Penalty_Neutral>
1.39959

> <r_epik_State_Penalty>
6.03347

> <r_epik_Charging_Adjusted_Penalty>
11.8576

> <i_epik_Tot_Q>
-1

> <i_epik_Tot_abs_Q>
1

> <r_epik_Metal_State_Penalty>
2.01024

> <b_epik_Metal_Only>
1

> <s_lp_Force_Field>
OPLS_2005

> <r_lp_Energy>
26.7208

> <b_lp_Chiralities_Consistent>
1

> <s_lp_Variant>
AV-unprocessed.smi:2032-15

> <Gold.Version>
5.8.1

> <Gold.Id.Protein>
6NUR|6NUR_protein|mol2

> <Gold.PLP.Fitness>
41.9861

> <Gold.PLP.PLP>
-32.8333

> <Gold.PLP.part.hbond>
-3.0000

> <Gold.PLP.part.metal>
0.0000

> <Gold.PLP.part.buried>
-4.9499

> <Gold.PLP.part.nonpolar>
-26.2756

> <Gold.PLP.part.repulsive>
0.1520

> <Gold.PLP.ligand.clash>
0.0000

> <Gold.PLP.ligand.torsion>
0.9905

> <Gold.PLP.Chemscore.Hbond>
3.6720

> <Gold.PLP.Chemscore.CHOScore>
0.0000

> <Gold.PLP.Chemscore.Metal>
0.0000

> <Gold.Chemscore.Hbonds>
donor molecule, donor type, donor heavy atom, donor atom, acceptor molecule, acceptor atom, score
      P1  H  6896  6908       L1    10  0.93
      P1  H  6931  6943       L1    11  1.82
      P1  H  7989  7998       L1    20  0.94

> <Gold.PLP.Chemscore.Internal.Correction>
0.1179

> <Gold.Rescore>
     Score         DG    S(hbond)    S(metal)    S(lipo)     H(rot)  DE(clash)    DE(int)     intcor
     17.52     -18.63       2.84        0.00      65.08       1.54       0.01       1.11       ----

> <Gold.Chemscore.Fitness>
17.5178

> <Gold.Chemscore.DG>
-18.6343

> <Gold.Chemscore.ZeroCoef>
-5.4800

> <Gold.Chemscore.Hbond>
2.8413

> <Gold.Chemscore.Metal>
0.0000

> <Gold.Chemscore.Lipo>
65.0829

> <Gold.Chemscore.Internal_Hbond>
0.0000

> <Gold.Chemscore.DEClash>
0.0053

> <Gold.Chemscore.DEInternal>
1.1113

> <Gold.Chemscore.Rot>
1.5431

> <Gold.Chemscore.Internal.Correction>
   9.000000E+99

> <Gold.Chemscore.Hbonds>
donor molecule, donor type, donor heavy atom, donor atom, acceptor molecule, acceptor atom, score
      P1  H  6896  6908       L1    10  0.75
      P1  H  6931  6943       L1    11  0.73
      P1  H  7989  7998       L1    20  0.86

> <Gold.Chemscore.Hbond.Weighted>
-9.4899

> <Gold.Chemscore.Metal.Weighted>
-0.0000

> <Gold.Chemscore.Lipo.Weighted>
-7.6147

> <Gold.Chemscore.Internal_Hbond.Weighted>
0.0000

> <Gold.Chemscore.DEClash.Weighted>
0.0053

> <Gold.Chemscore.DEInternal.Weighted>
1.1113

> <Gold.Chemscore.Rot.Weighted>
3.9503

> <Gold.Chemscore.Internal.Correction.Weighted>
   9.000000E+99

> <Gold.Protein.RotatedTorsions>
[ 6907 6896 6895 6894 ] final -159.20 input  -60.11 | X-H torsion
[ 7974 7965 7964 7962 ] final  -29.18 input  175.53 | X-H torsion
[ 8008 7997 7996 7995 ] final  163.16 input   59.86 | X-H torsion
[ 10167 10162 10161 10158 ] final -114.23 input  -65.29 | X-H torsion
[ 10718 10713 10712 10709 ] final   -3.36 input   66.30 | X-H torsion
[ 10763 10752 10751 10750 ] final  -40.51 input  -60.55 | X-H torsion
[ 11005 11000 10999 10996 ] final  -96.17 input  -57.11 | X-H torsion

> <Gold.Protein.ActiveResidues>
 VAL166  LYS551  ARG553  GLY616  TRP617  ASP618  TYR619  PRO620  LYS621  CYS622 
 ASP623  PHE694  ASN695  SER759  ASP760  ASP761  ALA762  ILE779  LEU786  VAL792 
 PHE793  MET794  SER795  GLU796  ALA797  LYS798  CYS799  TRP800  GLU811  SER814 

> <Gold.Protein.RotatedAtoms>
  151.3298  133.4005  159.2661 H   0  0  0  0  0  0  0  0  0  0  0  0  # atno 6907 bound_to 6896
  150.9965  134.9288  159.7940 H   0  0  0  0  0  0  0  0  0  0  0  0  # atno 6908 bound_to 6896
  152.5262  134.3263  159.9219 H   0  0  0  0  0  0  0  0  0  0  0  0  # atno 6909 bound_to 6896
  146.1235  140.5379  142.8725 H   0  0  0  0  0  0  0  0  0  0  0  0  # atno 7974 bound_to 7965
  156.1978  140.1731  156.7963 H   0  0  0  0  0  0  0  0  0  0  0  0  # atno 8008 bound_to 7997
  154.5551  140.0710  156.8762 H   0  0  0  0  0  0  0  0  0  0  0  0  # atno 8009 bound_to 7997
  155.2953  140.3358  155.4252 H   0  0  0  0  0  0  0  0  0  0  0  0  # atno 8010 bound_to 7997
  140.1032  143.4594  152.1799 H   0  0  0  0  0  0  0  0  0  0  0  0  # atno 10167 bound_to 10162
  156.7772  130.5319  149.5757 H   0  0  0  0  0  0  0  0  0  0  0  0  # atno 10718 bound_to 10713
  153.9471  135.6755  153.4744 H   0  0  0  0  0  0  0  0  0  0  0  0  # atno 10763 bound_to 10752
  153.0902  135.4878  154.8673 H   0  0  0  0  0  0  0  0  0  0  0  0  # atno 10764 bound_to 10752
  154.7345  135.3146  154.8793 H   0  0  0  0  0  0  0  0  0  0  0  0  # atno 10765 bound_to 10752
  141.1419  133.8079  157.0535 H   0  0  0  0  0  0  0  0  0  0  0  0  # atno 11005 bound_to 11000
  144.7620  140.5443  143.6729 LP  0  0  0  0  0  0  0  0  0  0  0  0  # atno 17320 bound_to 7965
  145.5416  139.1475  143.3444 LP  0  0  0  0  0  0  0  0  0  0  0  0  # atno 17321 bound_to 7965
  139.5660  144.7435  151.4022 LP  0  0  0  0  0  0  0  0  0  0  0  0  # atno 17342 bound_to 10162
  140.6966  143.7733  150.7337 LP  0  0  0  0  0  0  0  0  0  0  0  0  # atno 17343 bound_to 10162
  156.1241  130.6131  151.0237 LP  0  0  0  0  0  0  0  0  0  0  0  0  # atno 17370 bound_to 10713
  157.6663  131.0871  150.7719 LP  0  0  0  0  0  0  0  0  0  0  0  0  # atno 17371 bound_to 10713
  140.0616  134.9751  157.1315 LP  0  0  0  0  0  0  0  0  0  0  0  0  # atno 17394 bound_to 11000
  140.3839  134.2257  155.7169 LP  0  0  0  0  0  0  0  0  0  0  0  0  # atno 17395 bound_to 11000

$$$$
