AV-unprocessed.smi:142|AV-procd|sdf|1190|dock7
  -GOLD-   2262018343D 1   1.00000     0.00000
 Structure written by MMmdl.
 52 55  0  0  0  0  0  0  0  0  1 V2000
  151.6128  139.3434  156.0209 C   0  0  0  0  0  0  0  0  0  0  0  0
  150.4917  140.2487  156.5488 C   0  0  1  0  0  0  0  0  0  0  0  0
  149.3233  139.4322  156.8703 N   0  0  0  0  0  0  0  0  0  0  0  0
  149.3417  138.3221  157.6234 C   0  0  0  0  0  0  0  0  0  0  0  0
  150.3559  137.9013  158.1816 O   0  0  0  0  0  0  0  0  0  0  0  0
  148.0060  137.5783  157.7612 C   0  0  0  0  0  0  0  0  0  0  0  0
  148.1645  136.2353  158.3599 N   0  0  0  0  0  0  0  0  0  0  0  0
  148.5373  135.1500  157.5282 C   0  0  0  0  0  0  0  0  0  0  0  0
  148.7384  135.3068  156.3230 O   0  0  0  0  0  0  0  0  0  0  0  0
  148.6583  133.8587  158.1953 C   0  0  0  0  0  0  0  0  0  0  0  0
  149.0271  132.7767  157.4888 F   0  0  0  0  0  0  0  0  0  0  0  0
  148.4089  133.7318  159.5149 C   0  0  0  0  0  0  0  0  0  0  0  0
  148.0257  134.7962  160.3105 N   0  0  0  0  0  0  0  0  0  0  0  0
  147.7480  134.6194  161.7874 C   0  0  2  0  0  0  0  0  0  0  0  0
  147.8885  133.1445  162.1797 C   0  0  0  0  0  0  0  0  0  0  0  0
  146.4654  132.6499  162.0374 C   0  0  0  0  0  0  0  0  0  0  0  0
  145.6703  133.8711  162.4856 C   0  0  0  0  0  0  0  0  0  0  0  0
  146.4286  134.9994  162.0557 O   0  0  0  0  0  0  0  0  0  0  0  0
  147.9031  136.0829  159.7429 C   0  0  0  0  0  0  0  0  0  0  0  0
  147.5771  137.0491  160.4368 O   0  0  0  0  0  0  0  0  0  0  0  0
  150.9758  141.0869  157.7289 C   0  0  0  0  0  0  0  0  0  0  0  0
  151.6324  140.4915  158.8305 C   0  0  0  0  0  0  0  0  0  0  0  0
  152.0697  141.2801  159.9115 C   0  0  0  0  0  0  0  0  0  0  0  0
  151.8602  142.6736  159.9004 C   0  0  0  0  0  0  0  0  0  0  0  0
  152.2951  143.4685  160.9810 C   0  0  0  0  0  0  0  0  0  0  0  0
  152.0833  144.8609  160.9624 C   0  0  0  0  0  0  0  0  0  0  0  0
  151.4371  145.4625  159.8651 C   0  0  0  0  0  0  0  0  0  0  0  0
  151.0005  144.6733  158.7831 C   0  0  0  0  0  0  0  0  0  0  0  0
  151.2098  143.2785  158.7963 C   0  0  0  0  0  0  0  0  0  0  0  0
  150.7738  142.4835  157.7166 C   0  0  0  0  0  0  0  0  0  0  0  0
  152.4766  139.9318  155.7105 H   0  0  0  0  0  0  0  0  0  0  0  0
  151.2803  138.7673  155.1566 H   0  0  0  0  0  0  0  0  0  0  0  0
  151.9472  138.6390  156.7834 H   0  0  0  0  0  0  0  0  0  0  0  0
  150.2101  140.9294  155.7428 H   0  0  0  0  0  0  0  0  0  0  0  0
  148.4455  139.7096  156.4557 H   0  0  0  0  0  0  0  0  0  0  0  0
  147.3264  138.2066  158.3384 H   0  0  0  0  0  0  0  0  0  0  0  0
  147.5280  137.4989  156.7829 H   0  0  0  0  0  0  0  0  0  0  0  0
  148.5206  132.7520  159.9545 H   0  0  0  0  0  0  0  0  0  0  0  0
  148.4365  135.2870  162.3081 H   0  0  0  0  0  0  0  0  0  0  0  0
  148.6101  132.6131  161.5582 H   0  0  0  0  0  0  0  0  0  0  0  0
  148.2097  133.0903  163.2206 H   0  0  0  0  0  0  0  0  0  0  0  0
  146.2485  132.4174  160.9940 H   0  0  0  0  0  0  0  0  0  0  0  0
  146.2573  131.7627  162.6358 H   0  0  0  0  0  0  0  0  0  0  0  0
  144.6601  133.8883  162.0760 H   0  0  0  0  0  0  0  0  0  0  0  0
  145.5964  133.8954  163.5734 H   0  0  0  0  0  0  0  0  0  0  0  0
  151.8048  139.4255  158.8552 H   0  0  0  0  0  0  0  0  0  0  0  0
  152.5662  140.8094  160.7475 H   0  0  0  0  0  0  0  0  0  0  0  0
  152.7916  143.0154  161.8267 H   0  0  0  0  0  0  0  0  0  0  0  0
  152.4169  145.4679  161.7911 H   0  0  0  0  0  0  0  0  0  0  0  0
  151.2754  146.5304  159.8530 H   0  0  0  0  0  0  0  0  0  0  0  0
  150.5046  145.1429  157.9459 H   0  0  0  0  0  0  0  0  0  0  0  0
  150.2777  142.9458  156.8750 H   0  0  0  0  0  0  0  0  0  0  0  0
  1  2  1  0  0  0  0
  1 31  1  0  0  0  0
  1 32  1  0  0  0  0
  1 33  1  0  0  0  0
  2  3  1  0  0  0  0
  2 21  1  0  0  0  0
  2 34  1  0  0  0  0
  3  4  1  0  0  0  0
  3 35  1  0  0  0  0
  4  5  2  0  0  0  0
  4  6  1  0  0  0  0
  6  7  1  0  0  0  0
  6 36  1  0  0  0  0
  6 37  1  0  0  0  0
  7 19  1  0  0  0  0
  7  8  1  0  0  0  0
  8  9  2  0  0  0  0
  8 10  1  0  0  0  0
 10 11  1  0  0  0  0
 10 12  2  0  0  0  0
 12 13  1  0  0  0  0
 12 38  1  0  0  0  0
 13 14  1  0  0  0  0
 13 19  1  0  0  0  0
 14 18  1  0  0  0  0
 14 15  1  0  0  0  0
 14 39  1  0  0  0  0
 15 16  1  0  0  0  0
 15 40  1  0  0  0  0
 15 41  1  0  0  0  0
 16 17  1  0  0  0  0
 16 42  1  0  0  0  0
 16 43  1  0  0  0  0
 17 18  1  0  0  0  0
 17 44  1  0  0  0  0
 17 45  1  0  0  0  0
 19 20  2  0  0  0  0
 21 30  1  0  0  0  0
 21 22  2  0  0  0  0
 22 23  1  0  0  0  0
 22 46  1  0  0  0  0
 23 24  2  0  0  0  0
 23 47  1  0  0  0  0
 24 29  1  0  0  0  0
 24 25  1  0  0  0  0
 25 26  2  0  0  0  0
 25 48  1  0  0  0  0
 26 27  1  0  0  0  0
 26 49  1  0  0  0  0
 27 28  2  0  0  0  0
 27 50  1  0  0  0  0
 28 29  1  0  0  0  0
 28 51  1  0  0  0  0
 29 30  2  0  0  0  0
 30 52  1  0  0  0  0
M  END
> <s_m_source_file>
AV-unprocessed.smi

> <i_m_source_file_index>
142

> <i_lp_mmshare_version>
43012

> <i_f3d_flags>
0

> <s_epik_input>
W2NIXTFbY0hdW2NIXVtjSF1jKGMxMilbY0hdYyhbY0hdW2NIXTIpW0NASF0oW0NIM10pW05IXUMoPU8pW0NIMl1uM2MoPU8pYyhGKVtjSF1uKGMzPU8pW0NAQEhdNFtDSDJdW0NIMl1bQ0gyXU80

> <s_epik_cmdline>
J2VwaWtfcHl0aG9uJywgJy1waCcsICc3LjAnLCAnLXRuJywgJzgnLCAnLW1hJywgJzIwMCcsICctbWV0YWxfYmluZGluZycsICctaW1hZScsICc8aW5maWxlLm1hZT4nLCAnLW9tYWUnLCAnPG91dGZpbGUubWFlPic=

> <r_lp_tautomer_probability>
1

> <r_epik_Ionization_Penalty>
3.35688e-08

> <r_epik_Ionization_Penalty_Charging>
3.59856e-09

> <r_epik_Ionization_Penalty_Neutral>
2.99702e-08

> <r_epik_State_Penalty>
-0

> <r_epik_Charging_Adjusted_Penalty>
3.59856e-09

> <i_epik_Tot_Q>
0

> <i_epik_Tot_abs_Q>
0

> <r_epik_Metal_State_Penalty>
-0

> <b_epik_Metal_Only>
0

> <s_epik_Chemistry_Notes>
This compound contains an acetal/aminal-like group ( X-CH(R)-Y where X, Y are N, S, or O) that may be acid/base labile, releasing an aldehyde.

> <s_lp_Force_Field>
OPLS_2005

> <r_lp_Energy>
30.4955

> <b_lp_Chiralities_Consistent>
1

> <s_lp_Variant>
AV-unprocessed.smi:142-2

> <Gold.Version>
5.8.1

> <Gold.Id.Protein>
6NUR|6NUR_protein|mol2

> <Gold.PLP.Fitness>
55.7238

> <Gold.PLP.PLP>
-53.4751

> <Gold.PLP.part.hbond>
-1.9693

> <Gold.PLP.part.metal>
0.0000

> <Gold.PLP.part.buried>
-6.8031

> <Gold.PLP.part.nonpolar>
-45.3057

> <Gold.PLP.part.repulsive>
0.0312

> <Gold.PLP.ligand.clash>
0.0000

> <Gold.PLP.ligand.torsion>
0.7900

> <Gold.PLP.Chemscore.Hbond>
1.2501

> <Gold.PLP.Chemscore.CHOScore>
0.0000

> <Gold.PLP.Chemscore.Metal>
0.0000

> <Gold.Chemscore.Hbonds>
donor molecule, donor type, donor heavy atom, donor atom, acceptor molecule, acceptor atom, score
      P1  H  6931  6943       L1    20  0.09
      P1  H  6934  6947       L1    20  0.90

> <Gold.PLP.Chemscore.Internal.Correction>
0.0783

> <Gold.Rescore>
     Score         DG    S(hbond)    S(metal)    S(lipo)     H(rot)  DE(clash)    DE(int)     intcor
     16.61     -20.78       1.30        0.00     137.85       2.02       0.38       3.80       ----

> <Gold.Chemscore.Fitness>
16.6065

> <Gold.Chemscore.DG>
-20.7826

> <Gold.Chemscore.ZeroCoef>
-5.4800

> <Gold.Chemscore.Hbond>
1.2992

> <Gold.Chemscore.Metal>
0.0000

> <Gold.Chemscore.Lipo>
137.8478

> <Gold.Chemscore.Internal_Hbond>
0.0000

> <Gold.Chemscore.DEClash>
0.3773

> <Gold.Chemscore.DEInternal>
3.7987

> <Gold.Chemscore.Rot>
2.0175

> <Gold.Chemscore.Internal.Correction>
   9.000000E+99

> <Gold.Chemscore.Hbonds>
donor molecule, donor type, donor heavy atom, donor atom, acceptor molecule, acceptor atom, score
      P1  H  6931  6943       L1    20  0.11
      P1  H  6934  6947       L1    20  0.82

> <Gold.Chemscore.Hbond.Weighted>
-4.3392

> <Gold.Chemscore.Metal.Weighted>
-0.0000

> <Gold.Chemscore.Lipo.Weighted>
-16.1282

> <Gold.Chemscore.Internal_Hbond.Weighted>
0.0000

> <Gold.Chemscore.DEClash.Weighted>
0.3773

> <Gold.Chemscore.DEInternal.Weighted>
3.7987

> <Gold.Chemscore.Rot.Weighted>
5.1648

> <Gold.Chemscore.Internal.Correction.Weighted>
   9.000000E+99

> <Gold.Protein.RotatedTorsions>
[ 6907 6896 6895 6894 ] final    4.26 input  -60.11 | X-H torsion
[ 7974 7965 7964 7962 ] final  -66.72 input  175.53 | X-H torsion
[ 8008 7997 7996 7995 ] final  -68.30 input   59.86 | X-H torsion
[ 10167 10162 10161 10158 ] final  141.14 input  -65.29 | X-H torsion
[ 10718 10713 10712 10709 ] final   30.77 input   66.30 | X-H torsion
[ 10763 10752 10751 10750 ] final  -26.74 input  -60.55 | X-H torsion
[ 11005 11000 10999 10996 ] final  -48.51 input  -57.11 | X-H torsion

> <Gold.Protein.ActiveResidues>
 VAL166  LYS551  ARG553  GLY616  TRP617  ASP618  TYR619  PRO620  LYS621  CYS622 
 ASP623  PHE694  ASN695  SER759  ASP760  ASP761  ALA762  ILE779  LEU786  VAL792 
 PHE793  MET794  SER795  GLU796  ALA797  LYS798  CYS799  TRP800  GLU811  SER814 

> <Gold.Protein.RotatedAtoms>
  151.6384  135.1015  160.0136 H   0  0  0  0  0  0  0  0  0  0  0  0  # atno 6907 bound_to 6896
  152.4068  133.6896  159.6371 H   0  0  0  0  0  0  0  0  0  0  0  0  # atno 6908 bound_to 6896
  150.7961  133.8612  159.3273 H   0  0  0  0  0  0  0  0  0  0  0  0  # atno 6909 bound_to 6896
  145.7383  140.8965  143.0543 H   0  0  0  0  0  0  0  0  0  0  0  0  # atno 7974 bound_to 7965
  154.4858  140.0875  156.7484 H   0  0  0  0  0  0  0  0  0  0  0  0  # atno 8008 bound_to 7997
  155.4353  140.3451  155.4266 H   0  0  0  0  0  0  0  0  0  0  0  0  # atno 8009 bound_to 7997
  156.1260  140.1487  156.9124 H   0  0  0  0  0  0  0  0  0  0  0  0  # atno 8010 bound_to 7997
  139.5029  144.6190  151.6096 H   0  0  0  0  0  0  0  0  0  0  0  0  # atno 10167 bound_to 10162
  157.2639  130.7175  149.6468 H   0  0  0  0  0  0  0  0  0  0  0  0  # atno 10718 bound_to 10713
  153.7208  135.6945  153.5013 H   0  0  0  0  0  0  0  0  0  0  0  0  # atno 10763 bound_to 10752
  153.2205  135.4371  155.0483 H   0  0  0  0  0  0  0  0  0  0  0  0  # atno 10764 bound_to 10752
  154.8285  135.3459  154.6741 H   0  0  0  0  0  0  0  0  0  0  0  0  # atno 10765 bound_to 10752
  141.0705  133.6680  156.3451 H   0  0  0  0  0  0  0  0  0  0  0  0  # atno 11005 bound_to 11000
  144.6876  139.9425  143.7475 LP  0  0  0  0  0  0  0  0  0  0  0  0  # atno 17320 bound_to 7965
  146.0472  139.3477  143.0661 LP  0  0  0  0  0  0  0  0  0  0  0  0  # atno 17321 bound_to 7965
  140.5886  143.9819  150.6311 LP  0  0  0  0  0  0  0  0  0  0  0  0  # atno 17342 bound_to 10162
  140.2992  143.3272  152.0988 LP  0  0  0  0  0  0  0  0  0  0  0  0  # atno 17343 bound_to 10162
  155.9663  130.4389  150.5235 LP  0  0  0  0  0  0  0  0  0  0  0  0  # atno 17370 bound_to 10713
  157.3145  131.0670  151.1977 LP  0  0  0  0  0  0  0  0  0  0  0  0  # atno 17371 bound_to 10713
  140.5684  134.5865  157.5451 LP  0  0  0  0  0  0  0  0  0  0  0  0  # atno 17394 bound_to 11000
  139.9518  134.7603  156.0430 LP  0  0  0  0  0  0  0  0  0  0  0  0  # atno 17395 bound_to 11000

$$$$
