AV-unprocessed.smi:2004|AV-procd|sdf|8122|dock7
  -GOLD-   2272010353D 1   1.00000     0.00000
 Structure written by MMmdl.
 39 41  0  0  0  0  0  0  0  0  1 V2000
  149.1389  142.4337  157.4719 O   0  0  0  0  0  0  0  0  0  0  0  0
  150.2528  141.7196  156.9717 C   0  0  1  0  0  0  0  0  0  0  0  0
  150.0046  141.4108  155.4875 C   0  0  0  0  0  0  0  0  0  0  0  0
  148.7540  140.7552  155.3587 O   0  0  0  0  0  0  0  0  0  0  0  0
  148.7248  139.8263  154.2873 C   0  0  0  0  0  0  0  0  0  0  0  0
  149.5684  138.6014  154.5838 C   0  0  0  0  0  0  0  0  0  0  0  0
  150.9762  138.6968  154.5923 C   0  0  0  0  0  0  0  0  0  0  0  0
  151.7620  137.5572  154.8533 C   0  0  0  0  0  0  0  0  0  0  0  0
  151.1435  136.3166  155.1019 C   0  0  0  0  0  0  0  0  0  0  0  0
  149.7388  136.2154  155.0859 C   0  0  0  0  0  0  0  0  0  0  0  0
  148.9526  137.3548  154.8247 C   0  0  0  0  0  0  0  0  0  0  0  0
  151.5235  142.5664  157.1798 C   0  0  0  0  0  0  0  0  0  0  0  0
  151.6069  143.1213  158.5189 N   0  0  0  0  0  0  0  0  0  0  0  0
  151.0072  144.2374  158.9772 C   0  0  0  0  0  0  0  0  0  0  0  0
  151.2200  144.5651  160.2486 N   0  0  0  0  0  0  0  0  0  0  0  0
  152.0554  143.5423  160.6644 C   0  0  0  0  0  0  0  0  0  0  0  0
  152.6504  143.2983  161.9230 C   0  0  0  0  0  0  0  0  0  0  0  0
  153.4795  142.1732  162.1151 C   0  0  0  0  0  0  0  0  0  0  0  0
  153.7261  141.2766  161.0549 C   0  0  0  0  0  0  0  0  0  0  0  0
  153.1445  141.4990  159.7920 C   0  0  0  0  0  0  0  0  0  0  0  0
  152.3179  142.6226  159.6044 C   0  0  0  0  0  0  0  0  0  0  0  0
  149.0560  143.2373  156.9810 H   0  0  0  0  0  0  0  0  0  0  0  0
  150.3531  140.7859  157.5268 H   0  0  0  0  0  0  0  0  0  0  0  0
  150.0453  142.3188  154.8827 H   0  0  0  0  0  0  0  0  0  0  0  0
  150.7813  140.7399  155.1167 H   0  0  0  0  0  0  0  0  0  0  0  0
  147.6944  139.5244  154.0921 H   0  0  0  0  0  0  0  0  0  0  0  0
  149.1055  140.2927  153.3775 H   0  0  0  0  0  0  0  0  0  0  0  0
  151.4572  139.6448  154.3993 H   0  0  0  0  0  0  0  0  0  0  0  0
  152.8392  137.6350  154.8619 H   0  0  0  0  0  0  0  0  0  0  0  0
  151.7457  135.4425  155.3018 H   0  0  0  0  0  0  0  0  0  0  0  0
  149.2640  135.2635  155.2730 H   0  0  0  0  0  0  0  0  0  0  0  0
  147.8760  137.2675  154.8118 H   0  0  0  0  0  0  0  0  0  0  0  0
  152.4136  141.9594  157.0104 H   0  0  0  0  0  0  0  0  0  0  0  0
  151.5611  143.3838  156.4577 H   0  0  0  0  0  0  0  0  0  0  0  0
  150.3762  144.8417  158.3418 H   0  0  0  0  0  0  0  0  0  0  0  0
  152.4680  143.9781  162.7421 H   0  0  0  0  0  0  0  0  0  0  0  0
  153.9284  141.9968  163.0816 H   0  0  0  0  0  0  0  0  0  0  0  0
  154.3620  140.4176  161.2123 H   0  0  0  0  0  0  0  0  0  0  0  0
  153.3301  140.8146  158.9775 H   0  0  0  0  0  0  0  0  0  0  0  0
  1  2  1  0  0  0  0
  1 22  1  0  0  0  0
  2  3  1  0  0  0  0
  2 12  1  0  0  0  0
  2 23  1  0  0  0  0
  3  4  1  0  0  0  0
  3 24  1  0  0  0  0
  3 25  1  0  0  0  0
  4  5  1  0  0  0  0
  5  6  1  0  0  0  0
  5 26  1  0  0  0  0
  5 27  1  0  0  0  0
  6 11  1  0  0  0  0
  6  7  2  0  0  0  0
  7  8  1  0  0  0  0
  7 28  1  0  0  0  0
  8  9  2  0  0  0  0
  8 29  1  0  0  0  0
  9 10  1  0  0  0  0
  9 30  1  0  0  0  0
 10 11  2  0  0  0  0
 10 31  1  0  0  0  0
 11 32  1  0  0  0  0
 12 13  1  0  0  0  0
 12 33  1  0  0  0  0
 12 34  1  0  0  0  0
 13 21  1  0  0  0  0
 13 14  1  0  0  0  0
 14 15  2  0  0  0  0
 14 35  1  0  0  0  0
 15 16  1  0  0  0  0
 16 21  2  0  0  0  0
 16 17  1  0  0  0  0
 17 18  2  0  0  0  0
 17 36  1  0  0  0  0
 18 19  1  0  0  0  0
 18 37  1  0  0  0  0
 19 20  2  0  0  0  0
 19 38  1  0  0  0  0
 20 21  1  0  0  0  0
 20 39  1  0  0  0  0
M  END
> <s_m_source_file>
AV-unprocessed.smi

> <i_m_source_file_index>
2004

> <i_lp_mmshare_version>
43012

> <i_f3d_flags>
0

> <s_epik_input>
W2NIXTFbY0hdW2NIXVtjSF1jKGMxMiluKFtjSF1uMilbQ0gyXVtDQEhdKFtPSF0pW0NIMl1PW0NIMl1jM1tjSF1bY0hdW2NIXVtjSF1bY0hdMw==

> <s_epik_cmdline>
J2VwaWtfcHl0aG9uJywgJy1waCcsICc3LjAnLCAnLXRuJywgJzgnLCAnLW1hJywgJzIwMCcsICctbWV0YWxfYmluZGluZycsICctaW1hZScsICc8aW5maWxlLm1hZT4nLCAnLW9tYWUnLCAnPG91dGZpbGUubWFlPic=

> <r_epik_Ionization_Penalty>
0.0713119

> <r_epik_Ionization_Penalty_Charging>
0

> <r_epik_Ionization_Penalty_Neutral>
0.0713119

> <r_epik_State_Penalty>
0.06259

> <r_epik_Charging_Adjusted_Penalty>
0.06259

> <i_epik_Tot_Q>
0

> <i_epik_Tot_abs_Q>
0

> <r_epik_Metal_State_Penalty>
6.60119e-05

> <b_epik_Metal_Only>
0

> <s_lp_Force_Field>
OPLS_2005

> <r_lp_Energy>
14.5219

> <b_lp_Chiralities_Consistent>
1

> <s_lp_Variant>
AV-unprocessed.smi:2004-2

> <Gold.Version>
5.8.1

> <Gold.Id.Protein>
6NUR|6NUR_protein|mol2

> <Gold.PLP.Fitness>
52.5884

> <Gold.PLP.PLP>
-48.4426

> <Gold.PLP.part.hbond>
-1.0000

> <Gold.PLP.part.metal>
0.0000

> <Gold.PLP.part.buried>
-5.7992

> <Gold.PLP.part.nonpolar>
-42.0321

> <Gold.PLP.part.repulsive>
0.2577

> <Gold.PLP.ligand.clash>
0.0000

> <Gold.PLP.ligand.torsion>
0.7715

> <Gold.PLP.Chemscore.Hbond>
1.0000

> <Gold.PLP.Chemscore.CHOScore>
0.8446

> <Gold.PLP.Chemscore.Metal>
0.0000

> <Gold.Chemscore.Hbonds>
donor molecule, donor type, donor heavy atom, donor atom, acceptor molecule, acceptor atom, score
      L1  H     1    22       P1  8028  1.00
      L1  C    14    35       P1  8029  0.07

> <Gold.PLP.Chemscore.Internal.Correction>
0.1550

> <Gold.Rescore>
     Score         DG    S(hbond)    S(metal)    S(lipo)     H(rot)  DE(clash)    DE(int)     intcor
     15.79     -16.91       0.86        0.00     124.00       2.33       0.14       0.98       ----

> <Gold.Chemscore.Fitness>
15.7890

> <Gold.Chemscore.DG>
-16.9113

> <Gold.Chemscore.ZeroCoef>
-5.4800

> <Gold.Chemscore.Hbond>
0.8637

> <Gold.Chemscore.Metal>
0.0000

> <Gold.Chemscore.Lipo>
124.0028

> <Gold.Chemscore.Internal_Hbond>
0.0000

> <Gold.Chemscore.DEClash>
0.1443

> <Gold.Chemscore.DEInternal>
0.9780

> <Gold.Chemscore.Rot>
2.3288

> <Gold.Chemscore.Internal.Correction>
   9.000000E+99

> <Gold.Chemscore.Hbonds>
donor molecule, donor type, donor heavy atom, donor atom, acceptor molecule, acceptor atom, score
      L1  H     1    22       P1  8028  0.83

> <Gold.Chemscore.Hbond.Weighted>
-2.8846

> <Gold.Chemscore.Metal.Weighted>
-0.0000

> <Gold.Chemscore.Lipo.Weighted>
-14.5083

> <Gold.Chemscore.Internal_Hbond.Weighted>
0.0000

> <Gold.Chemscore.DEClash.Weighted>
0.1443

> <Gold.Chemscore.DEInternal.Weighted>
0.9780

> <Gold.Chemscore.Rot.Weighted>
5.9616

> <Gold.Chemscore.Internal.Correction.Weighted>
   9.000000E+99

> <Gold.Protein.RotatedTorsions>
[ 6907 6896 6895 6894 ] final   69.75 input  -60.11 | X-H torsion
[ 7974 7965 7964 7962 ] final  168.45 input  175.53 | X-H torsion
[ 8008 7997 7996 7995 ] final   75.66 input   59.86 | X-H torsion
[ 10167 10162 10161 10158 ] final -113.10 input  -65.29 | X-H torsion
[ 10718 10713 10712 10709 ] final   93.12 input   66.30 | X-H torsion
[ 10763 10752 10751 10750 ] final -125.53 input  -60.55 | X-H torsion
[ 11005 11000 10999 10996 ] final   -7.63 input  -57.11 | X-H torsion

> <Gold.Protein.ActiveResidues>
 VAL166  LYS551  ARG553  GLY616  TRP617  ASP618  TYR619  PRO620  LYS621  CYS622 
 ASP623  PHE694  ASN695  SER759  ASP760  ASP761  ALA762  ILE779  LEU786  VAL792 
 PHE793  MET794  SER795  GLU796  ALA797  LYS798  CYS799  TRP800  GLU811  SER814 

> <Gold.Protein.RotatedAtoms>
  152.4706  134.4970  159.9712 H   0  0  0  0  0  0  0  0  0  0  0  0  # atno 6907 bound_to 6896
  151.4997  133.3501  159.2875 H   0  0  0  0  0  0  0  0  0  0  0  0  # atno 6908 bound_to 6896
  150.8714  134.8116  159.7219 H   0  0  0  0  0  0  0  0  0  0  0  0  # atno 6909 bound_to 6896
  144.7388  139.8909  143.6403 H   0  0  0  0  0  0  0  0  0  0  0  0  # atno 7974 bound_to 7965
  155.8161  140.3471  155.5486 H   0  0  0  0  0  0  0  0  0  0  0  0  # atno 8008 bound_to 7997
  155.8390  140.0938  157.1766 H   0  0  0  0  0  0  0  0  0  0  0  0  # atno 8009 bound_to 7997
  154.4005  140.1398  156.3693 H   0  0  0  0  0  0  0  0  0  0  0  0  # atno 8010 bound_to 7997
  140.1156  143.4489  152.1724 H   0  0  0  0  0  0  0  0  0  0  0  0  # atno 10167 bound_to 10162
  157.6956  131.0467  150.3985 H   0  0  0  0  0  0  0  0  0  0  0  0  # atno 10718 bound_to 10713
  154.8737  135.4026  154.3283 H   0  0  0  0  0  0  0  0  0  0  0  0  # atno 10763 bound_to 10752
  153.4100  135.7020  153.6371 H   0  0  0  0  0  0  0  0  0  0  0  0  # atno 10764 bound_to 10752
  153.5077  135.3714  155.2542 H   0  0  0  0  0  0  0  0  0  0  0  0  # atno 10765 bound_to 10752
  140.7149  133.8878  155.8777 H   0  0  0  0  0  0  0  0  0  0  0  0  # atno 11005 bound_to 11000
  146.1143  139.4151  143.0268 LP  0  0  0  0  0  0  0  0  0  0  0  0  # atno 17320 bound_to 7965
  145.7398  141.0012  143.1307 LP  0  0  0  0  0  0  0  0  0  0  0  0  # atno 17321 bound_to 7965
  139.5596  144.7396  151.4194 LP  0  0  0  0  0  0  0  0  0  0  0  0  # atno 17342 bound_to 10162
  140.6901  143.7881  150.7243 LP  0  0  0  0  0  0  0  0  0  0  0  0  # atno 17343 bound_to 10162
  156.4381  130.3986  149.6715 LP  0  0  0  0  0  0  0  0  0  0  0  0  # atno 17370 bound_to 10713
  156.3909  130.7626  151.2627 LP  0  0  0  0  0  0  0  0  0  0  0  0  # atno 17371 bound_to 10713
  141.0053  134.1094  157.4276 LP  0  0  0  0  0  0  0  0  0  0  0  0  # atno 17394 bound_to 11000
  139.8862  135.0079  156.6486 LP  0  0  0  0  0  0  0  0  0  0  0  0  # atno 17395 bound_to 11000

$$$$
