AV-unprocessed.smi:2726|AV-procd|sdf|10519|dock9
  -GOLD-   2272014563D 1   1.00000     0.00000
 Structure written by MMmdl.
 41 42  0  0  0  0  0  0  0  0  1 V2000
  147.5921  133.1766  152.7670 C   0  0  0  0  0  0  0  0  0  0  0  0
  148.0673  133.4811  154.1990 C   0  0  0  0  0  0  0  0  0  0  0  0
  146.8360  133.5878  155.1231 C   0  0  0  0  0  0  0  0  0  0  0  0
  149.0011  132.3454  154.6677 C   0  0  0  0  0  0  0  0  0  0  0  0
  148.7882  134.7590  154.1473 N   0  0  0  0  0  0  0  0  0  0  0  0
  149.4242  135.4000  155.1424 C   0  0  0  0  0  0  0  0  0  0  0  0
  149.4984  134.9800  156.2968 O   0  0  0  0  0  0  0  0  0  0  0  0
  149.9427  136.5615  154.7087 N   0  0  0  0  0  0  0  0  0  0  0  0
  150.6832  137.5255  155.4437 C   0  0  0  0  0  0  0  0  0  0  0  0
  151.2942  138.6653  154.8694 C   0  0  0  0  0  0  0  0  0  0  0  0
  151.9862  139.5609  155.7070 C   0  0  0  0  0  0  0  0  0  0  0  0
  152.0416  139.2965  157.0909 C   0  0  0  0  0  0  0  0  0  0  0  0
  152.7356  140.1893  157.9217 N   0  0  0  0  0  0  0  0  0  0  0  0
  152.1844  141.5327  157.9872 C   0  0  0  0  0  0  0  0  0  0  0  0
  152.8394  142.1830  159.2082 C   0  0  0  0  0  0  0  0  0  0  0  0
  153.3000  141.0085  160.0803 C   0  0  0  0  0  0  0  0  0  0  0  0
  152.8940  139.7554  159.3000 C   0  0  0  0  0  0  0  0  0  0  0  0
  151.4468  138.2147  157.6482 N   0  0  0  0  0  0  0  0  0  0  0  0
  150.7838  137.3608  156.8403 C   0  0  0  0  0  0  0  0  0  0  0  0
  147.0396  132.2372  152.7235 H   0  0  0  0  0  0  0  0  0  0  0  0
  148.4330  133.0936  152.0773 H   0  0  0  0  0  0  0  0  0  0  0  0
  146.9342  133.9608  152.3900 H   0  0  0  0  0  0  0  0  0  0  0  0
  146.1827  134.4075  154.8217 H   0  0  0  0  0  0  0  0  0  0  0  0
  147.1162  133.7548  156.1631 H   0  0  0  0  0  0  0  0  0  0  0  0
  146.2453  132.6715  155.0960 H   0  0  0  0  0  0  0  0  0  0  0  0
  148.4976  131.3794  154.6188 H   0  0  0  0  0  0  0  0  0  0  0  0
  149.3282  132.4812  155.6985 H   0  0  0  0  0  0  0  0  0  0  0  0
  149.8934  132.2813  154.0439 H   0  0  0  0  0  0  0  0  0  0  0  0
  148.7970  135.2108  153.2446 H   0  0  0  0  0  0  0  0  0  0  0  0
  149.7270  136.8158  153.7558 H   0  0  0  0  0  0  0  0  0  0  0  0
  151.2347  138.8775  153.8134 H   0  0  0  0  0  0  0  0  0  0  0  0
  152.4616  140.4376  155.2917 H   0  0  0  0  0  0  0  0  0  0  0  0
  152.3961  142.0893  157.0737 H   0  0  0  0  0  0  0  0  0  0  0  0
  151.1018  141.4984  158.1176 H   0  0  0  0  0  0  0  0  0  0  0  0
  153.7009  142.7781  158.9031 H   0  0  0  0  0  0  0  0  0  0  0  0
  152.1472  142.8432  159.7316 H   0  0  0  0  0  0  0  0  0  0  0  0
  154.3827  141.0423  160.2074 H   0  0  0  0  0  0  0  0  0  0  0  0
  152.8477  141.0260  161.0725 H   0  0  0  0  0  0  0  0  0  0  0  0
  151.9545  139.3607  159.6895 H   0  0  0  0  0  0  0  0  0  0  0  0
  153.6475  138.9712  159.3802 H   0  0  0  0  0  0  0  0  0  0  0  0
  150.3226  136.5133  157.3267 H   0  0  0  0  0  0  0  0  0  0  0  0
  1  2  1  0  0  0  0
  1 20  1  0  0  0  0
  1 21  1  0  0  0  0
  1 22  1  0  0  0  0
  2  3  1  0  0  0  0
  2  4  1  0  0  0  0
  2  5  1  0  0  0  0
  3 23  1  0  0  0  0
  3 24  1  0  0  0  0
  3 25  1  0  0  0  0
  4 26  1  0  0  0  0
  4 27  1  0  0  0  0
  4 28  1  0  0  0  0
  5  6  1  0  0  0  0
  5 29  1  0  0  0  0
  6  7  2  0  0  0  0
  6  8  1  0  0  0  0
  8  9  1  0  0  0  0
  8 30  1  0  0  0  0
  9 19  1  0  0  0  0
  9 10  2  0  0  0  0
 10 11  1  0  0  0  0
 10 31  1  0  0  0  0
 11 12  2  0  0  0  0
 11 32  1  0  0  0  0
 12 13  1  0  0  0  0
 12 18  1  0  0  0  0
 13 17  1  0  0  0  0
 13 14  1  0  0  0  0
 14 15  1  0  0  0  0
 14 33  1  0  0  0  0
 14 34  1  0  0  0  0
 15 16  1  0  0  0  0
 15 35  1  0  0  0  0
 15 36  1  0  0  0  0
 16 17  1  0  0  0  0
 16 37  1  0  0  0  0
 16 38  1  0  0  0  0
 17 39  1  0  0  0  0
 17 40  1  0  0  0  0
 18 19  2  0  0  0  0
 19 41  1  0  0  0  0
M  END
> <s_m_source_file>
AV-unprocessed.smi

> <i_m_source_file_index>
2726

> <i_lp_mmshare_version>
43012

> <i_f3d_flags>
0

> <s_epik_input>
W0NIM11DKFtDSDNdKShbQ0gzXSlbTkhdQyg9TylbTkhdYzFbY0hdW2NIXWMobltjSF0xKU4yW0NIMl1bQ0gyXVtDSDJdW0NIMl0y

> <s_epik_cmdline>
J2VwaWtfcHl0aG9uJywgJy1waCcsICc3LjAnLCAnLXRuJywgJzgnLCAnLW1hJywgJzIwMCcsICctbWV0YWxfYmluZGluZycsICctaW1hZScsICc8aW5maWxlLm1hZT4nLCAnLW9tYWUnLCAnPG91dGZpbGUubWFlPic=

> <r_lp_tautomer_probability>
1

> <r_epik_Ionization_Penalty>
0.105331

> <r_epik_Ionization_Penalty_Charging>
0

> <r_epik_Ionization_Penalty_Neutral>
0.105331

> <r_epik_State_Penalty>
0.0946433

> <r_epik_Charging_Adjusted_Penalty>
0.0946433

> <i_epik_Tot_Q>
0

> <i_epik_Tot_abs_Q>
0

> <r_epik_Metal_State_Penalty>
0.0802816

> <b_epik_Metal_Only>
0

> <s_lp_Force_Field>
OPLS_2005

> <r_lp_Energy>
34.5725

> <b_lp_Chiralities_Consistent>
1

> <s_lp_Variant>
AV-unprocessed.smi:2726-1

> <Gold.Version>
5.8.1

> <Gold.Id.Protein>
6NUR|6NUR_protein|mol2

> <Gold.PLP.Fitness>
39.8371

> <Gold.PLP.PLP>
-31.6475

> <Gold.PLP.part.hbond>
-3.0439

> <Gold.PLP.part.metal>
0.0000

> <Gold.PLP.part.buried>
-3.0239

> <Gold.PLP.part.nonpolar>
-25.6260

> <Gold.PLP.part.repulsive>
0.0795

> <Gold.PLP.ligand.clash>
0.0000

> <Gold.PLP.ligand.torsion>
0.1001

> <Gold.PLP.Chemscore.Hbond>
2.7896

> <Gold.PLP.Chemscore.CHOScore>
0.0000

> <Gold.PLP.Chemscore.Metal>
0.0000

> <Gold.Chemscore.Hbonds>
donor molecule, donor type, donor heavy atom, donor atom, acceptor molecule, acceptor atom, score
      L1  H     5    29       P1  7948  1.00
      L1  H     8    30       P1  7948  0.81
      P1  H  7997  8010       L1    13  0.74

> <Gold.PLP.Chemscore.Internal.Correction>
0.0209

> <Gold.Rescore>
     Score         DG    S(hbond)    S(metal)    S(lipo)     H(rot)  DE(clash)    DE(int)     intcor
     15.89     -17.38       1.90        0.00      73.04       1.17       0.02       1.47       ----

> <Gold.Chemscore.Fitness>
15.8905

> <Gold.Chemscore.DG>
-17.3764

> <Gold.Chemscore.ZeroCoef>
-5.4800

> <Gold.Chemscore.Hbond>
1.9006

> <Gold.Chemscore.Metal>
0.0000

> <Gold.Chemscore.Lipo>
73.0442

> <Gold.Chemscore.Internal_Hbond>
0.0000

> <Gold.Chemscore.DEClash>
0.0163

> <Gold.Chemscore.DEInternal>
1.4697

> <Gold.Chemscore.Rot>
1.1710

> <Gold.Chemscore.Internal.Correction>
   9.000000E+99

> <Gold.Chemscore.Hbonds>
donor molecule, donor type, donor heavy atom, donor atom, acceptor molecule, acceptor atom, score
      L1  H     5    29       P1  7948  0.65
      L1  H     8    30       P1  7948  0.50
      P1  H  7997  8010       L1    13  0.06

> <Gold.Chemscore.Hbond.Weighted>
-6.3481

> <Gold.Chemscore.Metal.Weighted>
-0.0000

> <Gold.Chemscore.Lipo.Weighted>
-8.5462

> <Gold.Chemscore.Internal_Hbond.Weighted>
0.0000

> <Gold.Chemscore.DEClash.Weighted>
0.0163

> <Gold.Chemscore.DEInternal.Weighted>
1.4697

> <Gold.Chemscore.Rot.Weighted>
2.9978

> <Gold.Chemscore.Internal.Correction.Weighted>
   9.000000E+99

> <Gold.Protein.RotatedTorsions>
[ 6907 6896 6895 6894 ] final  -18.45 input  -60.11 | X-H torsion
[ 7974 7965 7964 7962 ] final -118.83 input  175.53 | X-H torsion
[ 8008 7997 7996 7995 ] final   43.88 input   59.86 | X-H torsion
[ 10167 10162 10161 10158 ] final -125.44 input  -65.29 | X-H torsion
[ 10718 10713 10712 10709 ] final -142.21 input   66.30 | X-H torsion
[ 10763 10752 10751 10750 ] final  -25.43 input  -60.55 | X-H torsion
[ 11005 11000 10999 10996 ] final  139.79 input  -57.11 | X-H torsion

> <Gold.Protein.ActiveResidues>
 VAL166  LYS551  ARG553  GLY616  TRP617  ASP618  TYR619  PRO620  LYS621  CYS622 
 ASP623  PHE694  ASN695  SER759  ASP760  ASP761  ALA762  ILE779  LEU786  VAL792 
 PHE793  MET794  SER795  GLU796  ALA797  LYS798  CYS799  TRP800  GLU811  SER814 

> <Gold.Protein.RotatedAtoms>
  151.2780  135.0705  159.9158 H   0  0  0  0  0  0  0  0  0  0  0  0  # atno 6907 bound_to 6896
  152.5339  134.0061  159.7927 H   0  0  0  0  0  0  0  0  0  0  0  0  # atno 6908 bound_to 6896
  151.0310  133.5740  159.2691 H   0  0  0  0  0  0  0  0  0  0  0  0  # atno 6909 bound_to 6896
  145.0694  140.8348  143.4105 H   0  0  0  0  0  0  0  0  0  0  0  0  # atno 7974 bound_to 7965
  155.3100  140.3390  155.4244 H   0  0  0  0  0  0  0  0  0  0  0  0  # atno 8008 bound_to 7997
  156.1960  140.1715  156.8035 H   0  0  0  0  0  0  0  0  0  0  0  0  # atno 8009 bound_to 7997
  154.5499  140.0707  156.8635 H   0  0  0  0  0  0  0  0  0  0  0  0  # atno 8010 bound_to 7997
  139.9821  143.5731  152.2374 H   0  0  0  0  0  0  0  0  0  0  0  0  # atno 10167 bound_to 10162
  156.3432  130.7648  151.1788 H   0  0  0  0  0  0  0  0  0  0  0  0  # atno 10718 bound_to 10713
  153.6997  135.6957  153.5066 H   0  0  0  0  0  0  0  0  0  0  0  0  # atno 10763 bound_to 10752
  153.2351  135.4324  155.0637 H   0  0  0  0  0  0  0  0  0  0  0  0  # atno 10764 bound_to 10752
  154.8348  135.3494  154.6537 H   0  0  0  0  0  0  0  0  0  0  0  0  # atno 10765 bound_to 10752
  140.0280  134.9365  157.0607 H   0  0  0  0  0  0  0  0  0  0  0  0  # atno 11005 bound_to 11000
  145.1311  139.2631  143.5539 LP  0  0  0  0  0  0  0  0  0  0  0  0  # atno 17320 bound_to 7965
  146.3528  140.0963  142.8610 LP  0  0  0  0  0  0  0  0  0  0  0  0  # atno 17321 bound_to 7965
  139.6402  144.7654  151.2355 LP  0  0  0  0  0  0  0  0  0  0  0  0  # atno 17342 bound_to 10162
  140.7485  143.6330  150.8405 LP  0  0  0  0  0  0  0  0  0  0  0  0  # atno 17343 bound_to 10162
  157.7450  131.0449  150.4814 LP  0  0  0  0  0  0  0  0  0  0  0  0  # atno 17370 bound_to 10713
  156.4998  130.4114  149.6360 LP  0  0  0  0  0  0  0  0  0  0  0  0  # atno 17371 bound_to 10713
  140.4273  134.1817  155.7166 LP  0  0  0  0  0  0  0  0  0  0  0  0  # atno 17394 bound_to 11000
  141.1814  133.8405  157.1243 LP  0  0  0  0  0  0  0  0  0  0  0  0  # atno 17395 bound_to 11000

$$$$
