AV-unprocessed.smi:1381|AV-procd|sdf|5617|dock1
  -GOLD-   22720 5223D 1   1.00000     0.00000
 Structure written by MMmdl.
 42 43  0  0  0  0  0  0  0  0  3 V2000
  153.4878  142.3746  161.1473 C   0  0  0  0  0  0  0  0  0  0  0  0
  153.1345  141.5889  159.9315 C   0  0  0  0  0  0  0  0  0  0  0  0
  152.1565  141.7269  158.9877 C   0  0  0  0  0  0  0  0  0  0  0  0
  152.3987  140.6349  158.1121 C   0  0  0  0  0  0  0  0  0  0  0  0
  151.5765  140.4265  156.9734 N   0  0  0  0  0  0  0  0  0  0  0  0
  151.8852  139.8318  155.8066 C   0  0  0  0  0  0  0  0  0  0  0  0
  153.0166  139.3675  155.6219 O   0  0  0  0  0  0  0  0  0  0  0  0
  150.8353  139.8274  154.9402 N   0  5  0  0  0  0  0  0  0  0  0  0
  150.5111  138.7274  154.0354 C   0  0  0  0  0  0  0  0  0  0  0  0
  150.8956  137.3882  154.6930 C   0  0  0  0  0  0  0  0  0  0  0  0
  149.7948  136.3912  154.6163 N   0  3  1  0  0  0  0  0  0  0  0  0
  150.1051  135.1337  155.3385 C   0  0  0  0  0  0  0  0  0  0  0  0
  148.9771  134.0977  155.1637 C   0  0  2  0  0  0  0  0  0  0  0  0
  148.9430  133.4562  153.7652 C   0  0  0  0  0  0  0  0  0  0  0  0
  147.7196  134.6678  155.5271 O   0  0  0  0  0  0  0  0  0  0  0  0
  147.3785  135.8610  154.8258 C   0  0  1  0  0  0  0  0  0  0  0  0
  146.0128  136.3336  155.3355 C   0  0  0  0  0  0  0  0  0  0  0  0
  148.4751  136.9164  155.0510 C   0  0  0  0  0  0  0  0  0  0  0  0
  153.4322  139.8968  158.4894 N   0  0  0  0  0  0  0  0  0  0  0  0
  153.9091  140.5045  159.6569 O   0  0  0  0  0  0  0  0  0  0  0  0
  152.8259  143.2332  161.2620 H   0  0  0  0  0  0  0  0  0  0  0  0
  154.5119  142.7431  161.0849 H   0  0  0  0  0  0  0  0  0  0  0  0
  153.4020  141.7593  162.0430 H   0  0  0  0  0  0  0  0  0  0  0  0
  151.3918  142.4873  158.9329 H   0  0  0  0  0  0  0  0  0  0  0  0
  150.6326  140.7749  157.0495 H   0  0  0  0  0  0  0  0  0  0  0  0
  149.4496  138.7051  153.7854 H   0  0  0  0  0  0  0  0  0  0  0  0
  151.0397  138.8196  153.0857 H   0  0  0  0  0  0  0  0  0  0  0  0
  151.7750  137.0010  154.1755 H   0  0  0  0  0  0  0  0  0  0  0  0
  151.1979  137.5329  155.7317 H   0  0  0  0  0  0  0  0  0  0  0  0
  151.0480  134.7174  154.9815 H   0  0  0  0  0  0  0  0  0  0  0  0
  150.2393  135.3583  156.3978 H   0  0  0  0  0  0  0  0  0  0  0  0
  149.1573  133.2900  155.8739 H   0  0  0  0  0  0  0  0  0  0  0  0
  149.8682  132.9144  153.5672 H   0  0  0  0  0  0  0  0  0  0  0  0
  148.8260  134.1948  152.9726 H   0  0  0  0  0  0  0  0  0  0  0  0
  148.1214  132.7443  153.6841 H   0  0  0  0  0  0  0  0  0  0  0  0
  147.2852  135.6498  153.7605 H   0  0  0  0  0  0  0  0  0  0  0  0
  145.6925  137.2379  154.8176 H   0  0  0  0  0  0  0  0  0  0  0  0
  146.0428  136.5523  156.4032 H   0  0  0  0  0  0  0  0  0  0  0  0
  145.2514  135.5704  155.1730 H   0  0  0  0  0  0  0  0  0  0  0  0
  148.5229  137.1927  156.1056 H   0  0  0  0  0  0  0  0  0  0  0  0
  148.2275  137.8223  154.4967 H   0  0  0  0  0  0  0  0  0  0  0  0
  149.7128  136.1439  153.6403 H   0  0  0  0  0  0  0  0  0  0  0  0
  1  2  1  0  0  0  0
  1 21  1  0  0  0  0
  1 22  1  0  0  0  0
  1 23  1  0  0  0  0
  2 20  1  0  0  0  0
  2  3  2  0  0  0  0
  3  4  1  0  0  0  0
  3 24  1  0  0  0  0
  4  5  1  0  0  0  0
  4 19  2  0  0  0  0
  5  6  1  0  0  0  0
  5 25  1  0  0  0  0
  6  7  2  0  0  0  0
  6  8  1  0  0  0  0
  8  9  1  0  0  0  0
  9 10  1  0  0  0  0
  9 26  1  0  0  0  0
  9 27  1  0  0  0  0
 10 11  1  0  0  0  0
 10 28  1  0  0  0  0
 10 29  1  0  0  0  0
 11 18  1  0  0  0  0
 11 12  1  0  0  0  0
 11 42  1  0  0  0  0
 12 13  1  0  0  0  0
 12 30  1  0  0  0  0
 12 31  1  0  0  0  0
 13 14  1  0  0  0  0
 13 15  1  0  0  0  0
 13 32  1  0  0  0  0
 14 33  1  0  0  0  0
 14 34  1  0  0  0  0
 14 35  1  0  0  0  0
 15 16  1  0  0  0  0
 16 17  1  0  0  0  0
 16 18  1  0  0  0  0
 16 36  1  0  0  0  0
 17 37  1  0  0  0  0
 17 38  1  0  0  0  0
 17 39  1  0  0  0  0
 18 40  1  0  0  0  0
 18 41  1  0  0  0  0
 19 20  1  0  0  0  0
M  CHG  1   8  -1
M  CHG  1  11   1
M  END
> <s_m_source_file>
AV-unprocessed.smi

> <i_m_source_file_index>
1381

> <i_lp_mmshare_version>
43012

> <i_f3d_flags>
0

> <s_epik_input>
W0NIM11jMVtjSF1jKG5vMSlbTkhdQyg9TylbTkhdW0NIMl1bQ0gyXU4yW0NIMl1bQ0BASF0oW0NIM10pT1tDQEBIXShbQ0gzXSlbQ0gyXTI=

> <s_epik_cmdline>
J2VwaWtfcHl0aG9uJywgJy1waCcsICc3LjAnLCAnLXRuJywgJzgnLCAnLW1hJywgJzIwMCcsICctbWV0YWxfYmluZGluZycsICctaW1hZScsICc8aW5maWxlLm1hZT4nLCAnLW9tYWUnLCAnPG91dGZpbGUubWFlPic=

> <r_epik_Ionization_Penalty>
6.8073

> <r_epik_Ionization_Penalty_Charging>
6.80729

> <r_epik_Ionization_Penalty_Neutral>
5.65391e-06

> <r_epik_State_Penalty>
7.47323

> <r_epik_Charging_Adjusted_Penalty>
14.2805

> <i_epik_Tot_Q>
0

> <i_epik_Tot_abs_Q>
2

> <r_epik_Metal_State_Penalty>
3.40035

> <b_epik_Metal_Only>
1

> <s_lp_Force_Field>
OPLS_2005

> <r_lp_Energy>
15.0618

> <b_lp_Chiralities_Consistent>
1

> <s_lp_Variant>
AV-unprocessed.smi:1381-16

> <Gold.Version>
5.8.1

> <Gold.Id.Protein>
6NUR|6NUR_protein|mol2

> <Gold.PLP.Fitness>
41.9783

> <Gold.PLP.PLP>
-32.8362

> <Gold.PLP.part.hbond>
-4.0000

> <Gold.PLP.part.metal>
0.0000

> <Gold.PLP.part.buried>
-5.9226

> <Gold.PLP.part.nonpolar>
-24.1518

> <Gold.PLP.part.repulsive>
0.2324

> <Gold.PLP.ligand.clash>
0.0000

> <Gold.PLP.ligand.torsion>
0.9994

> <Gold.PLP.Chemscore.Hbond>
3.6767

> <Gold.PLP.Chemscore.CHOScore>
0.0000

> <Gold.PLP.Chemscore.Metal>
0.0000

> <Gold.Chemscore.Hbonds>
donor molecule, donor type, donor heavy atom, donor atom, acceptor molecule, acceptor atom, score
      L1  H    11    42       P1  7948  2.00
      P1  H  7989  7998       L1     8  0.57
      P1  H  7997  8009       L1    19  0.13
      P1  H  7997  8010       L1     7  1.00

> <Gold.PLP.Chemscore.Internal.Correction>
0.1107

> <Gold.Rescore>
     Score         DG    S(hbond)    S(metal)    S(lipo)     H(rot)  DE(clash)    DE(int)     intcor
     12.05     -15.10       1.88        0.00      63.03       1.58       0.12       2.93       ----

> <Gold.Chemscore.Fitness>
12.0499

> <Gold.Chemscore.DG>
-15.1019

> <Gold.Chemscore.ZeroCoef>
-5.4800

> <Gold.Chemscore.Hbond>
1.8834

> <Gold.Chemscore.Metal>
0.0000

> <Gold.Chemscore.Lipo>
63.0270

> <Gold.Chemscore.Internal_Hbond>
0.0000

> <Gold.Chemscore.DEClash>
0.1213

> <Gold.Chemscore.DEInternal>
2.9306

> <Gold.Chemscore.Rot>
1.5792

> <Gold.Chemscore.Internal.Correction>
   9.000000E+99

> <Gold.Chemscore.Hbonds>
donor molecule, donor type, donor heavy atom, donor atom, acceptor molecule, acceptor atom, score
      L1  H    11    42       P1  7948  0.30
      P1  H  7989  7998       L1     8  0.01
      P1  H  7997  8009       L1    19  0.02
      P1  H  7997  8010       L1     7  0.99

> <Gold.Chemscore.Hbond.Weighted>
-6.2905

> <Gold.Chemscore.Metal.Weighted>
-0.0000

> <Gold.Chemscore.Lipo.Weighted>
-7.3742

> <Gold.Chemscore.Internal_Hbond.Weighted>
0.0000

> <Gold.Chemscore.DEClash.Weighted>
0.1213

> <Gold.Chemscore.DEInternal.Weighted>
2.9306

> <Gold.Chemscore.Rot.Weighted>
4.0428

> <Gold.Chemscore.Internal.Correction.Weighted>
   9.000000E+99

> <Gold.Protein.RotatedTorsions>
[ 6907 6896 6895 6894 ] final -168.53 input  -60.11 | X-H torsion
[ 7974 7965 7964 7962 ] final -115.84 input  175.53 | X-H torsion
[ 8008 7997 7996 7995 ] final  104.33 input   59.86 | X-H torsion
[ 10167 10162 10161 10158 ] final  152.94 input  -65.29 | X-H torsion
[ 10718 10713 10712 10709 ] final    7.37 input   66.30 | X-H torsion
[ 10763 10752 10751 10750 ] final  -74.25 input  -60.55 | X-H torsion
[ 11005 11000 10999 10996 ] final -171.86 input  -57.11 | X-H torsion

> <Gold.Protein.ActiveResidues>
 VAL166  LYS551  ARG553  GLY616  TRP617  ASP618  TYR619  PRO620  LYS621  CYS622 
 ASP623  PHE694  ASN695  SER759  ASP760  ASP761  ALA762  ILE779  LEU786  VAL792 
 PHE793  MET794  SER795  GLU796  ALA797  LYS798  CYS799  TRP800  GLU811  SER814 

> <Gold.Protein.RotatedAtoms>
  151.4771  133.3555  159.2832 H   0  0  0  0  0  0  0  0  0  0  0  0  # atno 6907 bound_to 6896
  150.8922  134.8329  159.7312 H   0  0  0  0  0  0  0  0  0  0  0  0  # atno 6908 bound_to 6896
  152.4830  134.4682  159.9679 H   0  0  0  0  0  0  0  0  0  0  0  0  # atno 6909 bound_to 6896
  145.1037  140.8568  143.3911 H   0  0  0  0  0  0  0  0  0  0  0  0  # atno 7974 bound_to 7965
  156.1563  140.3149  155.8732 H   0  0  0  0  0  0  0  0  0  0  0  0  # atno 8008 bound_to 7997
  155.3871  140.0491  157.3059 H   0  0  0  0  0  0  0  0  0  0  0  0  # atno 8009 bound_to 7997
  154.5105  140.2162  155.9177 H   0  0  0  0  0  0  0  0  0  0  0  0  # atno 8010 bound_to 7997
  139.4830  144.5315  151.7715 H   0  0  0  0  0  0  0  0  0  0  0  0  # atno 10167 bound_to 10162
  156.9359  130.5843  149.5651 H   0  0  0  0  0  0  0  0  0  0  0  0  # atno 10718 bound_to 10713
  154.4706  135.5870  153.6319 H   0  0  0  0  0  0  0  0  0  0  0  0  # atno 10763 bound_to 10752
  152.9834  135.6066  154.3372 H   0  0  0  0  0  0  0  0  0  0  0  0  # atno 10764 bound_to 10752
  154.3253  135.2843  155.2478 H   0  0  0  0  0  0  0  0  0  0  0  0  # atno 10765 bound_to 10752
  140.5035  134.5870  157.4996 H   0  0  0  0  0  0  0  0  0  0  0  0  # atno 11005 bound_to 11000
  145.0926  139.2879  143.5727 LP  0  0  0  0  0  0  0  0  0  0  0  0  # atno 17320 bound_to 7965
  146.3529  140.0468  142.8639 LP  0  0  0  0  0  0  0  0  0  0  0  0  # atno 17321 bound_to 7965
  140.4842  144.1405  150.5938 LP  0  0  0  0  0  0  0  0  0  0  0  0  # atno 17342 bound_to 10162
  140.4244  143.2597  151.9675 LP  0  0  0  0  0  0  0  0  0  0  0  0  # atno 17343 bound_to 10162
  156.0426  130.5507  150.8807 LP  0  0  0  0  0  0  0  0  0  0  0  0  # atno 17370 bound_to 10713
  157.5817  131.0946  150.9261 LP  0  0  0  0  0  0  0  0  0  0  0  0  # atno 17371 bound_to 10713
  139.9699  134.7310  156.0062 LP  0  0  0  0  0  0  0  0  0  0  0  0  # atno 17394 bound_to 11000
  141.1423  133.6562  156.3765 LP  0  0  0  0  0  0  0  0  0  0  0  0  # atno 17395 bound_to 11000

$$$$
