AV-unprocessed.smi:203|AV-procd|sdf|1585|dock2
  -GOLD-   2262019473D 1   1.00000     0.00000
 Structure written by MMmdl.
 57 61  0  0  0  0  0  0  0  0  1 V2000
  154.4978  137.8089  156.7136 O   0  0  0  0  0  0  0  0  0  0  0  0
  153.4469  138.1084  157.2752 C   0  0  0  0  0  0  0  0  0  0  0  0
  152.3604  138.9496  156.6280 C   0  0  0  0  0  0  0  0  0  0  0  0
  151.3824  139.2336  157.7864 C   0  0  2  0  0  0  0  0  0  0  0  0
  151.3419  140.7247  158.2518 C   0  0  1  0  0  0  0  0  0  0  0  0
  152.6444  141.1676  158.9689 C   0  0  0  0  0  0  0  0  0  0  0  0
  152.5711  142.6311  159.4242 C   0  0  0  0  0  0  0  0  0  0  0  0
  152.2525  143.5346  158.2280 C   0  0  0  0  0  0  0  0  0  0  0  0
  150.9605  143.0751  157.5394 C   0  0  0  0  0  0  0  0  0  0  0  0
  151.0333  141.6650  157.1588 N   0  0  0  0  0  0  0  0  0  0  0  0
  149.9927  141.3384  156.3607 C   0  0  0  0  0  0  0  0  0  0  0  0
  150.2707  140.6268  155.2409 N   0  0  0  0  0  0  0  0  0  0  0  0
  149.2786  140.2429  154.4320 C   0  0  0  0  0  0  0  0  0  0  0  0
  147.9670  140.4560  154.5597 N   0  0  0  0  0  0  0  0  0  0  0  0
  147.6883  141.1798  155.6817 C   0  0  0  0  0  0  0  0  0  0  0  0
  148.6344  141.6712  156.6234 C   0  0  0  0  0  0  0  0  0  0  0  0
  147.9834  142.3776  157.6278 N   0  0  0  0  0  0  0  0  0  0  0  0
  146.7213  142.2904  157.3092 C   0  0  0  0  0  0  0  0  0  0  0  0
  146.4524  141.5635  156.1712 N   0  0  0  0  0  0  0  0  0  0  0  0
  145.1436  141.2776  155.6110 C   0  0  0  0  0  0  0  0  0  0  0  0
  144.1874  142.4940  155.6306 C   0  0  2  0  0  0  0  0  0  0  0  0
  142.9940  142.1380  154.9637 O   0  0  0  0  0  0  0  0  0  0  0  0
  144.7168  143.8199  155.0314 C   0  0  2  0  0  0  0  0  0  0  0  0
  143.7021  144.9526  154.8595 C   0  0  0  0  0  0  0  0  0  0  0  0
  144.3868  145.8086  153.8171 C   0  0  0  0  0  0  0  0  0  0  0  0
  145.0317  144.7597  152.9138 C   0  0  0  0  0  0  0  0  0  0  0  0
  145.3030  143.6338  153.7450 O   0  0  0  0  0  0  0  0  0  0  0  0
  151.7951  138.2550  158.9067 C   0  0  0  0  0  0  0  0  0  0  0  0
  153.0954  137.7525  158.5091 N   0  0  0  0  0  0  0  0  0  0  0  0
  152.7710  139.8527  156.1762 H   0  0  0  0  0  0  0  0  0  0  0  0
  151.8777  138.3686  155.8414 H   0  0  0  0  0  0  0  0  0  0  0  0
  150.3835  138.9313  157.4717 H   0  0  0  0  0  0  0  0  0  0  0  0
  150.5367  140.8132  158.9816 H   0  0  0  0  0  0  0  0  0  0  0  0
  152.8450  140.5392  159.8359 H   0  0  0  0  0  0  0  0  0  0  0  0
  153.5008  141.0517  158.3046 H   0  0  0  0  0  0  0  0  0  0  0  0
  151.8013  142.7434  160.1887 H   0  0  0  0  0  0  0  0  0  0  0  0
  153.5144  142.9308  159.8815 H   0  0  0  0  0  0  0  0  0  0  0  0
  152.1552  144.5703  158.5542 H   0  0  0  0  0  0  0  0  0  0  0  0
  153.0778  143.5076  157.5153 H   0  0  0  0  0  0  0  0  0  0  0  0
  150.1127  143.2251  158.2094 H   0  0  0  0  0  0  0  0  0  0  0  0
  150.7805  143.6913  156.6570 H   0  0  0  0  0  0  0  0  0  0  0  0
  149.5775  139.6761  153.5626 H   0  0  0  0  0  0  0  0  0  0  0  0
  145.9461  142.7396  157.9129 H   0  0  0  0  0  0  0  0  0  0  0  0
  145.2786  140.9166  154.5905 H   0  0  0  0  0  0  0  0  0  0  0  0
  144.7083  140.4503  156.1730 H   0  0  0  0  0  0  0  0  0  0  0  0
  143.9065  142.6921  156.6654 H   0  0  0  0  0  0  0  0  0  0  0  0
  143.0521  142.4301  154.0669 H   0  0  0  0  0  0  0  0  0  0  0  0
  145.5267  144.1868  155.6647 H   0  0  0  0  0  0  0  0  0  0  0  0
  142.7533  144.5896  154.4669 H   0  0  0  0  0  0  0  0  0  0  0  0
  143.5034  145.4886  155.7880 H   0  0  0  0  0  0  0  0  0  0  0  0
  143.7003  146.4663  153.2832 H   0  0  0  0  0  0  0  0  0  0  0  0
  145.1558  146.4242  154.2856 H   0  0  0  0  0  0  0  0  0  0  0  0
  144.3372  144.4533  152.1314 H   0  0  0  0  0  0  0  0  0  0  0  0
  145.9387  145.1272  152.4329 H   0  0  0  0  0  0  0  0  0  0  0  0
  151.8321  138.7182  159.8928 H   0  0  0  0  0  0  0  0  0  0  0  0
  151.1000  137.4164  158.9650 H   0  0  0  0  0  0  0  0  0  0  0  0
  153.6704  137.1895  159.1192 H   0  0  0  0  0  0  0  0  0  0  0  0
  1  2  2  0  0  0  0
  2 29  1  0  0  0  0
  2  3  1  0  0  0  0
  3  4  1  0  0  0  0
  3 30  1  0  0  0  0
  3 31  1  0  0  0  0
  4  5  1  0  0  0  0
  4 28  1  0  0  0  0
  4 32  1  0  0  0  0
  5 10  1  0  0  0  0
  5  6  1  0  0  0  0
  5 33  1  0  0  0  0
  6  7  1  0  0  0  0
  6 34  1  0  0  0  0
  6 35  1  0  0  0  0
  7  8  1  0  0  0  0
  7 36  1  0  0  0  0
  7 37  1  0  0  0  0
  8  9  1  0  0  0  0
  8 38  1  0  0  0  0
  8 39  1  0  0  0  0
  9 10  1  0  0  0  0
  9 40  1  0  0  0  0
  9 41  1  0  0  0  0
 10 11  1  0  0  0  0
 11 16  1  0  0  0  0
 11 12  2  0  0  0  0
 12 13  1  0  0  0  0
 13 14  2  0  0  0  0
 13 42  1  0  0  0  0
 14 15  1  0  0  0  0
 15 19  1  0  0  0  0
 15 16  2  0  0  0  0
 16 17  1  0  0  0  0
 17 18  2  0  0  0  0
 18 19  1  0  0  0  0
 18 43  1  0  0  0  0
 19 20  1  0  0  0  0
 20 21  1  0  0  0  0
 20 44  1  0  0  0  0
 20 45  1  0  0  0  0
 21 22  1  0  0  0  0
 21 23  1  0  0  0  0
 21 46  1  0  0  0  0
 22 47  1  0  0  0  0
 23 27  1  0  0  0  0
 23 24  1  0  0  0  0
 23 48  1  0  0  0  0
 24 25  1  0  0  0  0
 24 49  1  0  0  0  0
 24 50  1  0  0  0  0
 25 26  1  0  0  0  0
 25 51  1  0  0  0  0
 25 52  1  0  0  0  0
 26 27  1  0  0  0  0
 26 53  1  0  0  0  0
 26 54  1  0  0  0  0
 28 29  1  0  0  0  0
 28 55  1  0  0  0  0
 28 56  1  0  0  0  0
 29 57  1  0  0  0  0
M  END
> <s_m_source_file>
AV-unprocessed.smi

> <i_m_source_file_index>
203

> <i_lp_mmshare_version>
43012

> <i_f3d_flags>
0

> <s_epik_input>
Tz1DMVtDSDJdW0NASF0oW0NIMl1bTkhdMSlbQ0BASF0yW0NIMl1bQ0gyXVtDSDJdW0NIMl1OMmMobltjSF1uMyljKGMzNCluW2NIXW40W0NIMl1bQ0BIXShbT0hdKVtDQEBIXTVbQ0gyXVtDSDJdW0NIMl1PNQ==

> <s_epik_cmdline>
J2VwaWtfcHl0aG9uJywgJy1waCcsICc3LjAnLCAnLXRuJywgJzgnLCAnLW1hJywgJzIwMCcsICctbWV0YWxfYmluZGluZycsICctaW1hZScsICc8aW5maWxlLm1hZT4nLCAnLW9tYWUnLCAnPG91dGZpbGUubWFlPic=

> <r_lp_tautomer_probability>
1

> <r_epik_Ionization_Penalty>
0.00175146

> <r_epik_Ionization_Penalty_Charging>
0

> <r_epik_Ionization_Penalty_Neutral>
0.00175146

> <r_epik_State_Penalty>
0.00109045

> <r_epik_Charging_Adjusted_Penalty>
0.00109045

> <i_epik_Tot_Q>
0

> <i_epik_Tot_abs_Q>
0

> <r_epik_Metal_State_Penalty>
-0

> <b_epik_Metal_Only>
0

> <s_lp_Force_Field>
OPLS_2005

> <r_lp_Energy>
55.4262

> <b_lp_Chiralities_Consistent>
1

> <s_lp_Variant>
AV-unprocessed.smi:203-4

> <Gold.Version>
5.8.1

> <Gold.Id.Protein>
6NUR|6NUR_protein|mol2

> <Gold.PLP.Fitness>
46.2011

> <Gold.PLP.PLP>
-41.1560

> <Gold.PLP.part.hbond>
-3.7577

> <Gold.PLP.part.metal>
0.0000

> <Gold.PLP.part.buried>
-4.8248

> <Gold.PLP.part.nonpolar>
-34.0514

> <Gold.PLP.part.repulsive>
0.6961

> <Gold.PLP.ligand.clash>
0.0000

> <Gold.PLP.ligand.torsion>
0.9676

> <Gold.PLP.Chemscore.Hbond>
1.2190

> <Gold.PLP.Chemscore.CHOScore>
1.0000

> <Gold.PLP.Chemscore.Metal>
0.0000

> <Gold.Chemscore.Hbonds>
donor molecule, donor type, donor heavy atom, donor atom, acceptor molecule, acceptor atom, score
      L1  H    22    47       P1 10174  0.95
      P1  H  7989  7998       L1    12  0.27
      L1  C    13    42       P1  7957  1.00

> <Gold.PLP.Chemscore.Internal.Correction>
0.3234

> <Gold.Rescore>
     Score         DG    S(hbond)    S(metal)    S(lipo)     H(rot)  DE(clash)    DE(int)     intcor
     10.49     -11.40       0.61        0.00      92.63       2.72       0.26       0.65       ----

> <Gold.Chemscore.Fitness>
10.4898

> <Gold.Chemscore.DG>
-11.3991

> <Gold.Chemscore.ZeroCoef>
-5.4800

> <Gold.Chemscore.Hbond>
0.6099

> <Gold.Chemscore.Metal>
0.0000

> <Gold.Chemscore.Lipo>
92.6300

> <Gold.Chemscore.Internal_Hbond>
0.0000

> <Gold.Chemscore.DEClash>
0.2633

> <Gold.Chemscore.DEInternal>
0.6460

> <Gold.Chemscore.Rot>
2.7171

> <Gold.Chemscore.Internal.Correction>
   9.000000E+99

> <Gold.Chemscore.Hbonds>
donor molecule, donor type, donor heavy atom, donor atom, acceptor molecule, acceptor atom, score
      L1  H    22    47       P1 10174  0.21
      P1  H  7989  7998       L1    12  0.01

> <Gold.Chemscore.Hbond.Weighted>
-2.0371

> <Gold.Chemscore.Metal.Weighted>
-0.0000

> <Gold.Chemscore.Lipo.Weighted>
-10.8377

> <Gold.Chemscore.Internal_Hbond.Weighted>
0.0000

> <Gold.Chemscore.DEClash.Weighted>
0.2633

> <Gold.Chemscore.DEInternal.Weighted>
0.6460

> <Gold.Chemscore.Rot.Weighted>
6.9557

> <Gold.Chemscore.Internal.Correction.Weighted>
   9.000000E+99

> <Gold.Protein.RotatedTorsions>
[ 6907 6896 6895 6894 ] final  122.24 input  -60.11 | X-H torsion
[ 7974 7965 7964 7962 ] final   71.86 input  175.53 | X-H torsion
[ 8008 7997 7996 7995 ] final   83.90 input   59.86 | X-H torsion
[ 10167 10162 10161 10158 ] final  -62.64 input  -65.29 | X-H torsion
[ 10718 10713 10712 10709 ] final -145.57 input   66.30 | X-H torsion
[ 10763 10752 10751 10750 ] final -165.37 input  -60.55 | X-H torsion
[ 11005 11000 10999 10996 ] final   97.30 input  -57.11 | X-H torsion

> <Gold.Protein.ActiveResidues>
 VAL166  LYS551  ARG553  GLY616  TRP617  ASP618  TYR619  PRO620  LYS621  CYS622 
 ASP623  PHE694  ASN695  SER759  ASP760  ASP761  ALA762  ILE779  LEU786  VAL792 
 PHE793  MET794  SER795  GLU796  ALA797  LYS798  CYS799  TRP800  GLU811  SER814 

> <Gold.Protein.RotatedAtoms>
  152.4259  133.7193  159.6523 H   0  0  0  0  0  0  0  0  0  0  0  0  # atno 6907 bound_to 6896
  150.8135  133.8368  159.3177 H   0  0  0  0  0  0  0  0  0  0  0  0  # atno 6908 bound_to 6896
  151.6071  135.1045  160.0124 H   0  0  0  0  0  0  0  0  0  0  0  0  # atno 6909 bound_to 6896
  145.7606  139.2799  143.1378 H   0  0  0  0  0  0  0  0  0  0  0  0  # atno 7974 bound_to 7965
  155.9300  140.3415  155.6241 H   0  0  0  0  0  0  0  0  0  0  0  0  # atno 8008 bound_to 7997
  155.7169  140.0778  157.2366 H   0  0  0  0  0  0  0  0  0  0  0  0  # atno 8009 bound_to 7997
  154.4083  140.1612  156.2346 H   0  0  0  0  0  0  0  0  0  0  0  0  # atno 8010 bound_to 7997
  140.5925  143.2344  151.6108 H   0  0  0  0  0  0  0  0  0  0  0  0  # atno 10167 bound_to 10162
  156.3841  130.7852  151.2048 H   0  0  0  0  0  0  0  0  0  0  0  0  # atno 10718 bound_to 10713
  154.6938  135.2975  154.9440 H   0  0  0  0  0  0  0  0  0  0  0  0  # atno 10763 bound_to 10752
  154.0395  135.6659  153.4792 H   0  0  0  0  0  0  0  0  0  0  0  0  # atno 10764 bound_to 10752
  153.0631  135.5104  154.8045 H   0  0  0  0  0  0  0  0  0  0  0  0  # atno 10765 bound_to 10752
  139.8776  134.8994  156.4287 H   0  0  0  0  0  0  0  0  0  0  0  0  # atno 11005 bound_to 11000
  146.0268  140.8296  142.9896 LP  0  0  0  0  0  0  0  0  0  0  0  0  # atno 17320 bound_to 7965
  144.6831  140.2709  143.7306 LP  0  0  0  0  0  0  0  0  0  0  0  0  # atno 17321 bound_to 7965
  139.5237  144.3126  152.0980 LP  0  0  0  0  0  0  0  0  0  0  0  0  # atno 17342 bound_to 10162
  140.2293  144.4385  150.6307 LP  0  0  0  0  0  0  0  0  0  0  0  0  # atno 17343 bound_to 10162
  157.7494  131.0335  150.4275 LP  0  0  0  0  0  0  0  0  0  0  0  0  # atno 17370 bound_to 10713
  156.4524  130.4014  149.6627 LP  0  0  0  0  0  0  0  0  0  0  0  0  # atno 17371 bound_to 10713
  140.9082  133.7730  155.9760 LP  0  0  0  0  0  0  0  0  0  0  0  0  # atno 17394 bound_to 11000
  140.8575  134.2880  157.5249 LP  0  0  0  0  0  0  0  0  0  0  0  0  # atno 17395 bound_to 11000

$$$$
