AV-unprocessed.smi:2044|AV-procd|sdf|8303|dock7
  -GOLD-   2272010573D 1   1.00000     0.00000
 Structure written by MMmdl.
 38 39  0  0  0  0  0  0  0  0  2 V2000
  151.5854  140.5148  158.2149 C   0  0  0  0  0  0  0  0  0  0  0  0
  151.2258  139.1003  158.5166 C   0  0  0  0  0  0  0  0  0  0  0  0
  150.0308  138.4432  158.5962 C   0  0  0  0  0  0  0  0  0  0  0  0
  150.4122  137.1140  158.9269 C   0  0  0  0  0  0  0  0  0  0  0  0
  149.5813  136.0748  159.1019 N   0  5  0  0  0  0  0  0  0  0  0  0
  148.3803  136.2548  159.6984 C   0  0  0  0  0  0  0  0  0  0  0  0
  147.9432  137.3123  160.1586 O   0  0  0  0  0  0  0  0  0  0  0  0
  147.6366  135.1408  159.7601 N   0  0  0  0  0  0  0  0  0  0  0  0
  146.2915  135.0383  160.3217 C   0  0  0  0  0  0  0  0  0  0  0  0
  146.2766  134.8544  161.8678 C   0  0  1  0  0  0  0  0  0  0  0  0
  147.3260  135.8073  162.4953 C   0  0  0  0  0  0  0  0  0  0  0  0
  144.9302  135.0139  162.4662 N   0  0  0  0  0  0  0  0  0  0  0  0
  144.0298  133.9077  162.1206 C   0  0  0  0  0  0  0  0  0  0  0  0
  142.6202  134.0756  162.7132 C   0  0  0  0  0  0  0  0  0  0  0  0
  142.0626  135.3086  162.2806 O   0  0  0  0  0  0  0  0  0  0  0  0
  142.8647  136.4179  162.6613 C   0  0  0  0  0  0  0  0  0  0  0  0
  144.2776  136.2673  162.0705 C   0  0  0  0  0  0  0  0  0  0  0  0
  151.7236  136.9736  159.0235 N   0  0  0  0  0  0  0  0  0  0  0  0
  152.2525  138.2443  158.7677 O   0  0  0  0  0  0  0  0  0  0  0  0
  151.3868  140.7475  157.1688 H   0  0  0  0  0  0  0  0  0  0  0  0
  152.6421  140.7015  158.4083 H   0  0  0  0  0  0  0  0  0  0  0  0
  151.0037  141.2010  158.8307 H   0  0  0  0  0  0  0  0  0  0  0  0
  149.0413  138.8476  158.4460 H   0  0  0  0  0  0  0  0  0  0  0  0
  148.0346  134.2972  159.3744 H   0  0  0  0  0  0  0  0  0  0  0  0
  145.7436  135.9412  160.0506 H   0  0  0  0  0  0  0  0  0  0  0  0
  145.8009  134.2142  159.8056 H   0  0  0  0  0  0  0  0  0  0  0  0
  146.6120  133.8366  162.0725 H   0  0  0  0  0  0  0  0  0  0  0  0
  148.3027  135.7212  162.0206 H   0  0  0  0  0  0  0  0  0  0  0  0
  147.5052  135.5912  163.5473 H   0  0  0  0  0  0  0  0  0  0  0  0
  147.0125  136.8482  162.4115 H   0  0  0  0  0  0  0  0  0  0  0  0
  143.9570  133.8157  161.0358 H   0  0  0  0  0  0  0  0  0  0  0  0
  144.4209  132.9627  162.4928 H   0  0  0  0  0  0  0  0  0  0  0  0
  141.9740  133.2601  162.3885 H   0  0  0  0  0  0  0  0  0  0  0  0
  142.6528  134.0431  163.8033 H   0  0  0  0  0  0  0  0  0  0  0  0
  142.3989  137.3343  162.2990 H   0  0  0  0  0  0  0  0  0  0  0  0
  142.9073  136.4893  163.7494 H   0  0  0  0  0  0  0  0  0  0  0  0
  144.8526  137.1256  162.4115 H   0  0  0  0  0  0  0  0  0  0  0  0
  144.2253  136.3304  160.9824 H   0  0  0  0  0  0  0  0  0  0  0  0
  1  2  1  0  0  0  0
  1 20  1  0  0  0  0
  1 21  1  0  0  0  0
  1 22  1  0  0  0  0
  2 19  1  0  0  0  0
  2  3  2  0  0  0  0
  3  4  1  0  0  0  0
  3 23  1  0  0  0  0
  4  5  1  0  0  0  0
  4 18  2  0  0  0  0
  5  6  1  0  0  0  0
  6  7  2  0  0  0  0
  6  8  1  0  0  0  0
  8  9  1  0  0  0  0
  8 24  1  0  0  0  0
  9 10  1  0  0  0  0
  9 25  1  0  0  0  0
  9 26  1  0  0  0  0
 10 11  1  0  0  0  0
 10 12  1  0  0  0  0
 10 27  1  0  0  0  0
 11 28  1  0  0  0  0
 11 29  1  0  0  0  0
 11 30  1  0  0  0  0
 12 17  1  0  0  0  0
 12 13  1  0  0  0  0
 13 14  1  0  0  0  0
 13 31  1  0  0  0  0
 13 32  1  0  0  0  0
 14 15  1  0  0  0  0
 14 33  1  0  0  0  0
 14 34  1  0  0  0  0
 15 16  1  0  0  0  0
 16 17  1  0  0  0  0
 16 35  1  0  0  0  0
 16 36  1  0  0  0  0
 17 37  1  0  0  0  0
 17 38  1  0  0  0  0
 18 19  1  0  0  0  0
M  CHG  1   5  -1
M  END
> <s_m_source_file>
AV-unprocessed.smi

> <i_m_source_file_index>
2044

> <i_lp_mmshare_version>
43012

> <i_f3d_flags>
0

> <s_epik_input>
W0NIM11jMVtjSF1jKG5vMSlbTkhdQyg9TylbTkhdW0NIMl1bQ0BIXShbQ0gzXSlOMltDSDJdW0NIMl1PW0NIMl1bQ0gyXTI=

> <s_epik_cmdline>
J2VwaWtfcHl0aG9uJywgJy1waCcsICc3LjAnLCAnLXRuJywgJzgnLCAnLW1hJywgJzIwMCcsICctbWV0YWxfYmluZGluZycsICctaW1hZScsICc8aW5maWxlLm1hZT4nLCAnLW9tYWUnLCAnPG91dGZpbGUubWFlPic=

> <r_epik_Ionization_Penalty>
6.88367

> <r_epik_Ionization_Penalty_Charging>
6.57198

> <r_epik_Ionization_Penalty_Neutral>
0.311681

> <r_epik_State_Penalty>
6.77619

> <r_epik_Charging_Adjusted_Penalty>
13.3482

> <i_epik_Tot_Q>
-1

> <i_epik_Tot_abs_Q>
1

> <r_epik_Metal_State_Penalty>
2.70533

> <b_epik_Metal_Only>
1

> <s_lp_Force_Field>
OPLS_2005

> <r_lp_Energy>
21.654

> <b_lp_Chiralities_Consistent>
1

> <s_lp_Variant>
AV-unprocessed.smi:2044-6

> <Gold.Version>
5.8.1

> <Gold.Id.Protein>
6NUR|6NUR_protein|mol2

> <Gold.PLP.Fitness>
39.1923

> <Gold.PLP.PLP>
-30.9184

> <Gold.PLP.part.hbond>
-3.6135

> <Gold.PLP.part.metal>
0.0000

> <Gold.PLP.part.buried>
-5.1116

> <Gold.PLP.part.nonpolar>
-22.5021

> <Gold.PLP.part.repulsive>
0.1605

> <Gold.PLP.ligand.clash>
0.0000

> <Gold.PLP.ligand.torsion>
0.6597

> <Gold.PLP.Chemscore.Hbond>
3.1816

> <Gold.PLP.Chemscore.CHOScore>
0.0000

> <Gold.PLP.Chemscore.Metal>
0.0000

> <Gold.Chemscore.Hbonds>
donor molecule, donor type, donor heavy atom, donor atom, acceptor molecule, acceptor atom, score
      P1  H  6896  6909       L1     5  2.00
      P1  H  6931  6943       L1     7  0.28
      P1  H  6934  6947       L1     7  0.74

> <Gold.PLP.Chemscore.Internal.Correction>
0.0485

> <Gold.Rescore>
     Score         DG    S(hbond)    S(metal)    S(lipo)     H(rot)  DE(clash)    DE(int)     intcor
     12.25     -14.24       1.67        0.00      61.04       1.55       0.00       1.98       ----

> <Gold.Chemscore.Fitness>
12.2532

> <Gold.Chemscore.DG>
-14.2355

> <Gold.Chemscore.ZeroCoef>
-5.4800

> <Gold.Chemscore.Hbond>
1.6689

> <Gold.Chemscore.Metal>
0.0000

> <Gold.Chemscore.Lipo>
61.0404

> <Gold.Chemscore.Internal_Hbond>
0.0000

> <Gold.Chemscore.DEClash>
0.0009

> <Gold.Chemscore.DEInternal>
1.9814

> <Gold.Chemscore.Rot>
1.5470

> <Gold.Chemscore.Internal.Correction>
   9.000000E+99

> <Gold.Chemscore.Hbonds>
donor molecule, donor type, donor heavy atom, donor atom, acceptor molecule, acceptor atom, score
      P1  H  6896  6909       L1     5  0.44
      P1  H  6931  6943       L1     7  0.26
      P1  H  6934  6947       L1     7  0.70

> <Gold.Chemscore.Hbond.Weighted>
-5.5741

> <Gold.Chemscore.Metal.Weighted>
-0.0000

> <Gold.Chemscore.Lipo.Weighted>
-7.1417

> <Gold.Chemscore.Internal_Hbond.Weighted>
0.0000

> <Gold.Chemscore.DEClash.Weighted>
0.0009

> <Gold.Chemscore.DEInternal.Weighted>
1.9814

> <Gold.Chemscore.Rot.Weighted>
3.9603

> <Gold.Chemscore.Internal.Correction.Weighted>
   9.000000E+99

> <Gold.Protein.RotatedTorsions>
[ 6907 6896 6895 6894 ] final   55.86 input  -60.11 | X-H torsion
[ 7974 7965 7964 7962 ] final  -99.48 input  175.53 | X-H torsion
[ 8008 7997 7996 7995 ] final   23.75 input   59.86 | X-H torsion
[ 10167 10162 10161 10158 ] final  105.20 input  -65.29 | X-H torsion
[ 10718 10713 10712 10709 ] final  107.57 input   66.30 | X-H torsion
[ 10763 10752 10751 10750 ] final  110.33 input  -60.55 | X-H torsion
[ 11005 11000 10999 10996 ] final   84.41 input  -57.11 | X-H torsion

> <Gold.Protein.ActiveResidues>
 VAL166  LYS551  ARG553  GLY616  TRP617  ASP618  TYR619  PRO620  LYS621  CYS622 
 ASP623  PHE694  ASN695  SER759  ASP760  ASP761  ALA762  ILE779  LEU786  VAL792 
 PHE793  MET794  SER795  GLU796  ALA797  LYS798  CYS799  TRP800  GLU811  SER814 

> <Gold.Protein.RotatedAtoms>
  152.3580  134.6912  160.0215 H   0  0  0  0  0  0  0  0  0  0  0  0  # atno 6907 bound_to 6896
  151.7245  133.3310  159.3332 H   0  0  0  0  0  0  0  0  0  0  0  0  # atno 6908 bound_to 6896
  150.7585  134.6353  159.6252 H   0  0  0  0  0  0  0  0  0  0  0  0  # atno 6909 bound_to 6896
  145.3069  140.9391  143.2791 H   0  0  0  0  0  0  0  0  0  0  0  0  # atno 7974 bound_to 7965
  154.9857  140.3107  155.4927 H   0  0  0  0  0  0  0  0  0  0  0  0  # atno 8008 bound_to 7997
  156.2947  140.2258  156.4899 H   0  0  0  0  0  0  0  0  0  0  0  0  # atno 8009 bound_to 7997
  154.7749  140.0450  157.1069 H   0  0  0  0  0  0  0  0  0  0  0  0  # atno 8010 bound_to 7997
  139.7112  144.7077  151.1023 H   0  0  0  0  0  0  0  0  0  0  0  0  # atno 10167 bound_to 10162
  157.6623  131.0875  150.6176 H   0  0  0  0  0  0  0  0  0  0  0  0  # atno 10718 bound_to 10713
  153.4474  135.3752  155.2264 H   0  0  0  0  0  0  0  0  0  0  0  0  # atno 10763 bound_to 10752
  154.8755  135.3877  154.4079 H   0  0  0  0  0  0  0  0  0  0  0  0  # atno 10764 bound_to 10752
  153.4633  135.7087  153.6101 H   0  0  0  0  0  0  0  0  0  0  0  0  # atno 10765 bound_to 10752
  139.9001  134.8214  156.2441 H   0  0  0  0  0  0  0  0  0  0  0  0  # atno 11005 bound_to 11000
  144.9047  139.4604  143.6615 LP  0  0  0  0  0  0  0  0  0  0  0  0  # atno 17320 bound_to 7965
  146.3132  139.7821  142.9004 LP  0  0  0  0  0  0  0  0  0  0  0  0  # atno 17321 bound_to 7965
  140.7733  143.5290  150.9446 LP  0  0  0  0  0  0  0  0  0  0  0  0  # atno 17342 bound_to 10162
  139.8975  143.6877  152.3136 LP  0  0  0  0  0  0  0  0  0  0  0  0  # atno 17343 bound_to 10162
  156.6478  130.4476  149.5730 LP  0  0  0  0  0  0  0  0  0  0  0  0  # atno 17370 bound_to 10713
  156.2160  130.6708  151.1319 LP  0  0  0  0  0  0  0  0  0  0  0  0  # atno 17371 bound_to 10713
  141.0266  133.7012  156.1358 LP  0  0  0  0  0  0  0  0  0  0  0  0  # atno 17394 bound_to 11000
  140.7157  134.4413  157.5578 LP  0  0  0  0  0  0  0  0  0  0  0  0  # atno 17395 bound_to 11000

$$$$
