AV-unprocessed.smi:893|AV-procd|sdf|4070|dock2
  -GOLD-   22720 1553D 1   1.00000     0.00000
 Structure written by MMmdl.
 26 27  0  0  0  0  0  0  0  0  2 V2000
  152.0068  138.2985  159.4001 C   0  0  0  0  0  0  0  0  0  0  0  0
  152.2178  139.8144  159.2215 C   0  0  0  0  0  0  0  0  0  0  0  0
  151.2466  140.5386  158.2487 C   0  0  1  0  0  0  0  0  0  0  0  0
  151.4342  142.0454  158.3349 C   0  0  0  0  0  0  0  0  0  0  0  0
  150.6569  143.0603  157.7003 C   0  0  0  0  0  0  0  0  0  0  0  0
  151.0727  144.2861  157.9737 N   0  0  0  0  0  0  0  0  0  0  0  0
  152.1264  144.1042  158.7940 N   0  0  0  0  0  0  0  0  0  0  0  0
  152.8425  145.2540  159.3029 C   0  0  0  0  0  0  0  0  0  0  0  0
  152.3657  142.7686  159.0311 C   0  0  0  0  0  0  0  0  0  0  0  0
  151.4234  140.0442  156.8888 N   0  5  0  0  0  0  0  0  0  0  0  0
  150.2399  139.5584  156.4442 C   0  0  0  0  0  0  0  0  0  0  0  0
  149.9927  139.0730  155.3427 O   0  0  0  0  0  0  0  0  0  0  0  0
  149.3011  139.6625  157.3900 N   0  0  0  0  0  0  0  0  0  0  0  0
  149.7816  140.2059  158.5044 C   0  0  0  0  0  0  0  0  0  0  0  0
  149.1743  140.4048  159.5564 O   0  0  0  0  0  0  0  0  0  0  0  0
  152.7524  137.8863  160.0800 H   0  0  0  0  0  0  0  0  0  0  0  0
  152.1001  137.7670  158.4530 H   0  0  0  0  0  0  0  0  0  0  0  0
  151.0262  138.0720  159.8184 H   0  0  0  0  0  0  0  0  0  0  0  0
  152.1499  140.2769  160.2069 H   0  0  0  0  0  0  0  0  0  0  0  0
  153.2431  139.9845  158.8900 H   0  0  0  0  0  0  0  0  0  0  0  0
  149.8051  142.9384  157.0475 H   0  0  0  0  0  0  0  0  0  0  0  0
  153.6675  144.9294  159.9379 H   0  0  0  0  0  0  0  0  0  0  0  0
  152.1684  145.8789  159.8893 H   0  0  0  0  0  0  0  0  0  0  0  0
  153.2427  145.8371  158.4729 H   0  0  0  0  0  0  0  0  0  0  0  0
  153.1735  142.4418  159.6695 H   0  0  0  0  0  0  0  0  0  0  0  0
  148.3479  139.3517  157.2764 H   0  0  0  0  0  0  0  0  0  0  0  0
  1  2  1  0  0  0  0
  1 16  1  0  0  0  0
  1 17  1  0  0  0  0
  1 18  1  0  0  0  0
  2  3  1  0  0  0  0
  2 19  1  0  0  0  0
  2 20  1  0  0  0  0
  3 14  1  0  0  0  0
  3  4  1  0  0  0  0
  3 10  1  0  0  0  0
  4  9  2  0  0  0  0
  4  5  1  0  0  0  0
  5  6  2  0  0  0  0
  5 21  1  0  0  0  0
  6  7  1  0  0  0  0
  7  8  1  0  0  0  0
  7  9  1  0  0  0  0
  8 22  1  0  0  0  0
  8 23  1  0  0  0  0
  8 24  1  0  0  0  0
  9 25  1  0  0  0  0
 10 11  1  0  0  0  0
 11 12  2  0  0  0  0
 11 13  1  0  0  0  0
 13 14  1  0  0  0  0
 13 26  1  0  0  0  0
 14 15  2  0  0  0  0
M  CHG  1  10  -1
M  END
> <s_m_source_file>
AV-unprocessed.smi

> <i_m_source_file_index>
893

> <i_lp_mmshare_version>
43012

> <i_f3d_flags>
0

> <s_epik_input>
Tz1DMVtOSF1DKD1PKVtOSF1bQ0BAXTEoW0NIMl1bQ0gzXSljMltjSF1ubihbQ0gzXSlbY0hdMg==

> <s_epik_cmdline>
J2VwaWtfcHl0aG9uJywgJy1waCcsICc3LjAnLCAnLXRuJywgJzgnLCAnLW1hJywgJzIwMCcsICctbWV0YWxfYmluZGluZycsICctaW1hZScsICc8aW5maWxlLm1hZT4nLCAnLW9tYWUnLCAnPG91dGZpbGUubWFlPic=

> <r_lp_tautomer_probability>
1

> <r_epik_Ionization_Penalty>
4.97057

> <r_epik_Ionization_Penalty_Charging>
4.97009

> <r_epik_Ionization_Penalty_Neutral>
0.000472554

> <r_epik_State_Penalty>
4.98892

> <r_epik_Charging_Adjusted_Penalty>
9.95901

> <i_epik_Tot_Q>
-1

> <i_epik_Tot_abs_Q>
1

> <r_epik_Metal_State_Penalty>
1.41037

> <b_epik_Metal_Only>
1

> <s_lp_Force_Field>
OPLS_2005

> <r_lp_Energy>
9.72866

> <b_lp_Chiralities_Consistent>
1

> <s_lp_Variant>
AV-unprocessed.smi:893-5

> <Gold.Version>
5.8.1

> <Gold.Id.Protein>
6NUR|6NUR_protein|mol2

> <Gold.PLP.Fitness>
38.4928

> <Gold.PLP.PLP>
-27.3521

> <Gold.PLP.part.hbond>
-2.3893

> <Gold.PLP.part.metal>
0.0000

> <Gold.PLP.part.buried>
-3.0539

> <Gold.PLP.part.nonpolar>
-21.8062

> <Gold.PLP.part.repulsive>
0.2602

> <Gold.PLP.ligand.clash>
0.0000

> <Gold.PLP.ligand.torsion>
0.2052

> <Gold.PLP.Chemscore.Hbond>
3.0000

> <Gold.PLP.Chemscore.CHOScore>
0.8212

> <Gold.PLP.Chemscore.Metal>
0.0000

> <Gold.Chemscore.Hbonds>
donor molecule, donor type, donor heavy atom, donor atom, acceptor molecule, acceptor atom, score
      L1  C     5    21       P1  8028  0.87

> <Gold.PLP.Chemscore.Internal.Correction>
0.0877

> <Gold.Rescore>
     Score         DG    S(hbond)    S(metal)    S(lipo)     H(rot)  DE(clash)    DE(int)     intcor
     13.03     -14.67       1.75        0.00      56.73       1.28       0.51       1.12       ----

> <Gold.Chemscore.Fitness>
13.0324

> <Gold.Chemscore.DG>
-14.6687

> <Gold.Chemscore.ZeroCoef>
-5.4800

> <Gold.Chemscore.Hbond>
1.7454

> <Gold.Chemscore.Metal>
0.0000

> <Gold.Chemscore.Lipo>
56.7281

> <Gold.Chemscore.Internal_Hbond>
0.0000

> <Gold.Chemscore.DEClash>
0.5141

> <Gold.Chemscore.DEInternal>
1.1221

> <Gold.Chemscore.Rot>
1.2805

> <Gold.Chemscore.Internal.Correction>
   9.000000E+99

> <Gold.Chemscore.Hbond.Weighted>
-5.8297

> <Gold.Chemscore.Metal.Weighted>
-0.0000

> <Gold.Chemscore.Lipo.Weighted>
-6.6372

> <Gold.Chemscore.Internal_Hbond.Weighted>
0.0000

> <Gold.Chemscore.DEClash.Weighted>
0.5141

> <Gold.Chemscore.DEInternal.Weighted>
1.1221

> <Gold.Chemscore.Rot.Weighted>
3.2782

> <Gold.Chemscore.Internal.Correction.Weighted>
   9.000000E+99

> <Gold.Protein.RotatedTorsions>
[ 6907 6896 6895 6894 ] final  153.07 input  -60.11 | X-H torsion
[ 7974 7965 7964 7962 ] final  110.35 input  175.53 | X-H torsion
[ 8008 7997 7996 7995 ] final  179.97 input   59.86 | X-H torsion
[ 10167 10162 10161 10158 ] final -124.28 input  -65.29 | X-H torsion
[ 10718 10713 10712 10709 ] final   99.71 input   66.30 | X-H torsion
[ 10763 10752 10751 10750 ] final -154.71 input  -60.55 | X-H torsion
[ 11005 11000 10999 10996 ] final -130.66 input  -57.11 | X-H torsion

> <Gold.Protein.ActiveResidues>
 VAL166  LYS551  ARG553  GLY616  TRP617  ASP618  TYR619  PRO620  LYS621  CYS622 
 ASP623  PHE694  ASN695  SER759  ASP760  ASP761  ALA762  ILE779  LEU786  VAL792 
 PHE793  MET794  SER795  GLU796  ALA797  LYS798  CYS799  TRP800  GLU811  SER814 

> <Gold.Protein.RotatedAtoms>
  152.0779  133.4138  159.4487 H   0  0  0  0  0  0  0  0  0  0  0  0  # atno 6907 bound_to 6896
  150.6862  134.3016  159.4718 H   0  0  0  0  0  0  0  0  0  0  0  0  # atno 6908 bound_to 6896
  152.0855  134.9442  160.0623 H   0  0  0  0  0  0  0  0  0  0  0  0  # atno 6909 bound_to 6896
  145.2560  139.2721  143.4042 H   0  0  0  0  0  0  0  0  0  0  0  0  # atno 7974 bound_to 7965
  156.0373  140.1295  157.0194 H   0  0  0  0  0  0  0  0  0  0  0  0  # atno 8008 bound_to 7997
  154.4375  140.1037  156.6256 H   0  0  0  0  0  0  0  0  0  0  0  0  # atno 8009 bound_to 7997
  155.5719  140.3466  155.4519 H   0  0  0  0  0  0  0  0  0  0  0  0  # atno 8010 bound_to 7997
  139.9945  143.5605  152.2328 H   0  0  0  0  0  0  0  0  0  0  0  0  # atno 10167 bound_to 10162
  157.6870  131.0677  150.4989 H   0  0  0  0  0  0  0  0  0  0  0  0  # atno 10718 bound_to 10713
  154.7839  135.3184  154.7929 H   0  0  0  0  0  0  0  0  0  0  0  0  # atno 10763 bound_to 10752
  153.8634  135.6851  153.4785 H   0  0  0  0  0  0  0  0  0  0  0  0  # atno 10764 bound_to 10752
  153.1484  135.4709  154.9539 H   0  0  0  0  0  0  0  0  0  0  0  0  # atno 10765 bound_to 10752
  140.9326  134.1299  157.4221 H   0  0  0  0  0  0  0  0  0  0  0  0  # atno 11005 bound_to 11000
  146.3289  140.2964  142.8618 LP  0  0  0  0  0  0  0  0  0  0  0  0  # atno 17320 bound_to 7965
  144.9460  140.8129  143.5601 LP  0  0  0  0  0  0  0  0  0  0  0  0  # atno 17321 bound_to 7965
  139.6316  144.7645  151.2525 LP  0  0  0  0  0  0  0  0  0  0  0  0  # atno 17342 bound_to 10162
  140.7442  143.6470  150.8283 LP  0  0  0  0  0  0  0  0  0  0  0  0  # atno 17343 bound_to 10162
  156.5312  130.4185  149.6201 LP  0  0  0  0  0  0  0  0  0  0  0  0  # atno 17370 bound_to 10713
  156.3068  130.7207  151.2091 LP  0  0  0  0  0  0  0  0  0  0  0  0  # atno 17371 bound_to 10713
  139.8800  135.0010  156.6043 LP  0  0  0  0  0  0  0  0  0  0  0  0  # atno 17394 bound_to 11000
  140.7842  133.8635  155.8592 LP  0  0  0  0  0  0  0  0  0  0  0  0  # atno 17395 bound_to 11000

$$$$
