AV-unprocessed.smi:1251|AV-procd|sdf|5257|dock10
  -GOLD-   22720 4363D 1   1.00000     0.00000
 Structure written by MMmdl.
 39 40  0  0  0  0  0  0  0  0  1 V2000
  152.0991  145.0874  158.7231 C   0  0  0  0  0  0  0  0  0  0  0  0
  152.3052  143.6568  158.2132 C   0  0  0  0  0  0  0  0  0  0  0  0
  151.3996  143.3200  157.0205 C   0  0  0  0  0  0  0  0  0  0  0  0
  151.1047  141.8605  156.9188 C   0  0  0  0  0  0  0  0  0  0  0  0
  151.3449  141.1493  155.8103 N   0  0  0  0  0  0  0  0  0  0  0  0
  150.9646  139.8214  155.9443 N   0  0  0  0  0  0  0  0  0  0  0  0
  150.4316  139.5728  157.1484 C   0  0  0  0  0  0  0  0  0  0  0  0
  149.9554  138.2975  157.5528 N   0  0  0  0  0  0  0  0  0  0  0  0
  148.8339  138.0042  158.2341 C   0  0  0  0  0  0  0  0  0  0  0  0
  148.0109  138.8267  158.6369 O   0  0  0  0  0  0  0  0  0  0  0  0
  148.7177  136.6817  158.4277 N   0  0  0  0  0  0  0  0  0  0  0  0
  147.6295  136.0189  159.1438 C   0  0  1  0  0  0  0  0  0  0  0  0
  147.3413  134.6740  158.4590 C   0  0  0  0  0  0  0  0  0  0  0  0
  148.0040  135.8518  160.6317 C   0  0  2  0  0  0  0  0  0  0  0  0
  147.1431  134.8400  161.3929 C   0  0  0  0  0  0  0  0  0  0  0  0
  147.2372  135.3518  162.8114 C   0  0  0  0  0  0  0  0  0  0  0  0
  147.1928  136.8584  162.5905 C   0  0  0  0  0  0  0  0  0  0  0  0
  147.8333  137.0811  161.3382 O   0  0  0  0  0  0  0  0  0  0  0  0
  150.3501  140.9557  158.2263 S   0  0  0  0  0  0  0  0  0  0  0  0
  152.7535  145.2958  159.5699 H   0  0  0  0  0  0  0  0  0  0  0  0
  151.0709  145.2451  159.0500 H   0  0  0  0  0  0  0  0  0  0  0  0
  152.3198  145.8184  157.9447 H   0  0  0  0  0  0  0  0  0  0  0  0
  153.3495  143.5256  157.9273 H   0  0  0  0  0  0  0  0  0  0  0  0
  152.1171  142.9540  159.0259 H   0  0  0  0  0  0  0  0  0  0  0  0
  150.4572  143.8641  157.0999 H   0  0  0  0  0  0  0  0  0  0  0  0
  151.8681  143.6440  156.0906 H   0  0  0  0  0  0  0  0  0  0  0  0
  150.5364  137.5155  157.2899 H   0  0  0  0  0  0  0  0  0  0  0  0
  149.4455  136.0849  158.0632 H   0  0  0  0  0  0  0  0  0  0  0  0
  146.7229  136.6233  159.0768 H   0  0  0  0  0  0  0  0  0  0  0  0
  146.4928  134.1671  158.9188 H   0  0  0  0  0  0  0  0  0  0  0  0
  148.2006  134.0051  158.5181 H   0  0  0  0  0  0  0  0  0  0  0  0
  147.1007  134.8154  157.4049 H   0  0  0  0  0  0  0  0  0  0  0  0
  149.0531  135.5658  160.7256 H   0  0  0  0  0  0  0  0  0  0  0  0
  146.1072  134.8812  161.0532 H   0  0  0  0  0  0  0  0  0  0  0  0
  147.4973  133.8143  161.2864 H   0  0  0  0  0  0  0  0  0  0  0  0
  146.4344  134.9902  163.4546 H   0  0  0  0  0  0  0  0  0  0  0  0
  148.1913  135.0621  163.2539 H   0  0  0  0  0  0  0  0  0  0  0  0
  146.1601  137.2015  162.5161 H   0  0  0  0  0  0  0  0  0  0  0  0
  147.6783  137.4136  163.3934 H   0  0  0  0  0  0  0  0  0  0  0  0
  1  2  1  0  0  0  0
  1 20  1  0  0  0  0
  1 21  1  0  0  0  0
  1 22  1  0  0  0  0
  2  3  1  0  0  0  0
  2 23  1  0  0  0  0
  2 24  1  0  0  0  0
  3  4  1  0  0  0  0
  3 25  1  0  0  0  0
  3 26  1  0  0  0  0
  4 19  1  0  0  0  0
  4  5  2  0  0  0  0
  5  6  1  0  0  0  0
  6  7  2  0  0  0  0
  7  8  1  0  0  0  0
  7 19  1  0  0  0  0
  8  9  1  0  0  0  0
  8 27  1  0  0  0  0
  9 10  2  0  0  0  0
  9 11  1  0  0  0  0
 11 12  1  0  0  0  0
 11 28  1  0  0  0  0
 12 13  1  0  0  0  0
 12 14  1  0  0  0  0
 12 29  1  0  0  0  0
 13 30  1  0  0  0  0
 13 31  1  0  0  0  0
 13 32  1  0  0  0  0
 14 18  1  0  0  0  0
 14 15  1  0  0  0  0
 14 33  1  0  0  0  0
 15 16  1  0  0  0  0
 15 34  1  0  0  0  0
 15 35  1  0  0  0  0
 16 17  1  0  0  0  0
 16 36  1  0  0  0  0
 16 37  1  0  0  0  0
 17 18  1  0  0  0  0
 17 38  1  0  0  0  0
 17 39  1  0  0  0  0
M  END
> <s_m_source_file>
AV-unprocessed.smi

> <i_m_source_file_index>
1251

> <i_lp_mmshare_version>
43012

> <i_f3d_flags>
0

> <s_epik_input>
W0NIM11bQ0gyXVtDSDJdYzFubmMoczEpW05IXUMoPU8pW05IXVtDQEhdKFtDSDNdKVtDQEBIXTJbQ0gyXVtDSDJdW0NIMl1PMg==

> <s_epik_cmdline>
J2VwaWtfcHl0aG9uJywgJy1waCcsICc3LjAnLCAnLXRuJywgJzgnLCAnLW1hJywgJzIwMCcsICctbWV0YWxfYmluZGluZycsICctaW1hZScsICc8aW5maWxlLm1hZT4nLCAnLW9tYWUnLCAnPG91dGZpbGUubWFlPic=

> <r_lp_tautomer_probability>
1

> <r_epik_Ionization_Penalty>
0.000503621

> <r_epik_Ionization_Penalty_Charging>
0

> <r_epik_Ionization_Penalty_Neutral>
0.000503621

> <r_epik_State_Penalty>
-0

> <r_epik_Charging_Adjusted_Penalty>
0

> <i_epik_Tot_Q>
0

> <i_epik_Tot_abs_Q>
0

> <r_epik_Metal_State_Penalty>
0.219912

> <b_epik_Metal_Only>
0

> <s_lp_Force_Field>
OPLS_2005

> <r_lp_Energy>
12.879

> <b_lp_Chiralities_Consistent>
1

> <s_lp_Variant>
AV-unprocessed.smi:1251-2

> <Gold.Version>
5.8.1

> <Gold.Id.Protein>
6NUR|6NUR_protein|mol2

> <Gold.PLP.Fitness>
37.3103

> <Gold.PLP.PLP>
-34.1763

> <Gold.PLP.part.hbond>
-3.6502

> <Gold.PLP.part.metal>
0.0000

> <Gold.PLP.part.buried>
-2.7048

> <Gold.PLP.part.nonpolar>
-27.5450

> <Gold.PLP.part.repulsive>
0.2019

> <Gold.PLP.ligand.clash>
0.0000

> <Gold.PLP.ligand.torsion>
1.1710

> <Gold.PLP.Chemscore.Hbond>
1.8195

> <Gold.PLP.Chemscore.CHOScore>
0.0000

> <Gold.PLP.Chemscore.Metal>
0.0000

> <Gold.Chemscore.Hbonds>
donor molecule, donor type, donor heavy atom, donor atom, acceptor molecule, acceptor atom, score
      P1  H  6931  6943       L1    18  0.85
      P1  H  6934  6947       L1    18  0.67
      P1  H  7989  7998       L1     5  0.09

> <Gold.PLP.Chemscore.Internal.Correction>
0.0176

> <Gold.Rescore>
     Score         DG    S(hbond)    S(metal)    S(lipo)     H(rot)  DE(clash)    DE(int)     intcor
     14.97     -16.29       1.34        0.00      88.72       1.58       0.10       1.23       ----

> <Gold.Chemscore.Fitness>
14.9650

> <Gold.Chemscore.DG>
-16.2919

> <Gold.Chemscore.ZeroCoef>
-5.4800

> <Gold.Chemscore.Hbond>
1.3434

> <Gold.Chemscore.Metal>
0.0000

> <Gold.Chemscore.Lipo>
88.7239

> <Gold.Chemscore.Internal_Hbond>
0.0000

> <Gold.Chemscore.DEClash>
0.0985

> <Gold.Chemscore.DEInternal>
1.2284

> <Gold.Chemscore.Rot>
1.5843

> <Gold.Chemscore.Internal.Correction>
   9.000000E+99

> <Gold.Chemscore.Hbonds>
donor molecule, donor type, donor heavy atom, donor atom, acceptor molecule, acceptor atom, score
      P1  H  6931  6943       L1    18  0.14
      P1  H  6934  6947       L1    18  0.17
      P1  H  7989  7998       L1     5  0.01

> <Gold.Chemscore.Hbond.Weighted>
-4.4870

> <Gold.Chemscore.Metal.Weighted>
-0.0000

> <Gold.Chemscore.Lipo.Weighted>
-10.3807

> <Gold.Chemscore.Internal_Hbond.Weighted>
0.0000

> <Gold.Chemscore.DEClash.Weighted>
0.0985

> <Gold.Chemscore.DEInternal.Weighted>
1.2284

> <Gold.Chemscore.Rot.Weighted>
4.0558

> <Gold.Chemscore.Internal.Correction.Weighted>
   9.000000E+99

> <Gold.Protein.RotatedTorsions>
[ 6907 6896 6895 6894 ] final -154.06 input  -60.11 | X-H torsion
[ 7974 7965 7964 7962 ] final  173.43 input  175.53 | X-H torsion
[ 8008 7997 7996 7995 ] final -102.64 input   59.86 | X-H torsion
[ 10167 10162 10161 10158 ] final -161.77 input  -65.29 | X-H torsion
[ 10718 10713 10712 10709 ] final  157.10 input   66.30 | X-H torsion
[ 10763 10752 10751 10750 ] final  112.86 input  -60.55 | X-H torsion
[ 11005 11000 10999 10996 ] final  -27.04 input  -57.11 | X-H torsion

> <Gold.Protein.ActiveResidues>
 VAL166  LYS551  ARG553  GLY616  TRP617  ASP618  TYR619  PRO620  LYS621  CYS622 
 ASP623  PHE694  ASN695  SER759  ASP760  ASP761  ALA762  ILE779  LEU786  VAL792 
 PHE793  MET794  SER795  GLU796  ALA797  LYS798  CYS799  TRP800  GLU811  SER814 

> <Gold.Protein.RotatedAtoms>
  151.2518  133.4346  159.2611 H   0  0  0  0  0  0  0  0  0  0  0  0  # atno 6907 bound_to 6896
  151.0611  134.9737  159.8271 H   0  0  0  0  0  0  0  0  0  0  0  0  # atno 6908 bound_to 6896
  152.5398  134.2468  159.8936 H   0  0  0  0  0  0  0  0  0  0  0  0  # atno 6909 bound_to 6896
  144.7244  139.9646  143.6435 H   0  0  0  0  0  0  0  0  0  0  0  0  # atno 7974 bound_to 7965
  154.8596  140.0427  157.1656 H   0  0  0  0  0  0  0  0  0  0  0  0  # atno 8008 bound_to 7997
  154.8854  140.2979  155.5380 H   0  0  0  0  0  0  0  0  0  0  0  0  # atno 8009 bound_to 7997
  156.2998  140.2403  156.3863 H   0  0  0  0  0  0  0  0  0  0  0  0  # atno 8010 bound_to 7997
  139.6441  144.0205  152.2114 H   0  0  0  0  0  0  0  0  0  0  0  0  # atno 10167 bound_to 10162
  157.1960  131.0665  151.2052 H   0  0  0  0  0  0  0  0  0  0  0  0  # atno 10718 bound_to 10713
  153.4840  135.3673  155.2457 H   0  0  0  0  0  0  0  0  0  0  0  0  # atno 10763 bound_to 10752
  154.8754  135.3961  154.3667 H   0  0  0  0  0  0  0  0  0  0  0  0  # atno 10764 bound_to 10752
  153.4275  135.7081  153.6318 H   0  0  0  0  0  0  0  0  0  0  0  0  # atno 10765 bound_to 10752
  140.9083  133.7478  156.0636 H   0  0  0  0  0  0  0  0  0  0  0  0  # atno 11005 bound_to 11000
  146.0610  139.3604  143.0581 LP  0  0  0  0  0  0  0  0  0  0  0  0  # atno 17320 bound_to 7965
  145.8092  140.9734  143.0958 LP  0  0  0  0  0  0  0  0  0  0  0  0  # atno 17321 bound_to 7965
  139.9902  144.6366  150.7821 LP  0  0  0  0  0  0  0  0  0  0  0  0  # atno 17342 bound_to 10162
  140.7505  143.2957  151.3211 LP  0  0  0  0  0  0  0  0  0  0  0  0  # atno 17343 bound_to 10162
  157.3814  130.7233  149.6632 LP  0  0  0  0  0  0  0  0  0  0  0  0  # atno 17370 bound_to 10713
  155.9706  130.4171  150.4265 LP  0  0  0  0  0  0  0  0  0  0  0  0  # atno 17371 bound_to 10713
  140.8142  134.3364  157.5402 LP  0  0  0  0  0  0  0  0  0  0  0  0  # atno 17394 bound_to 11000
  139.8753  134.9272  156.3419 LP  0  0  0  0  0  0  0  0  0  0  0  0  # atno 17395 bound_to 11000

$$$$
