AV-unprocessed.smi:265|AV-procd|sdf|2027|dock10
  -GOLD-   2262021233D 1   1.00000     0.00000
 Structure written by MMmdl.
 52 56  0  0  0  0  0  0  0  0  1 V2000
  139.7424  142.1078  156.1602 C   0  0  0  0  0  0  0  0  0  0  0  0
  139.4160  141.5183  154.7798 C   0  0  2  0  0  0  0  0  0  0  0  0
  138.2029  140.7716  154.8212 O   0  0  0  0  0  0  0  0  0  0  0  0
  138.2720  139.6709  153.9183 C   0  0  0  0  0  0  0  0  0  0  0  0
  139.5839  139.8403  153.1570 C   0  0  0  0  0  0  0  0  0  0  0  0
  140.4627  140.5685  154.1672 C   0  0  1  0  0  0  0  0  0  0  0  0
  141.4494  141.3080  153.4719 O   0  0  0  0  0  0  0  0  0  0  0  0
  141.1472  139.6297  155.1978 C   0  0  0  0  0  0  0  0  0  0  0  0
  141.8712  138.5225  154.5938 N   0  0  0  0  0  0  0  0  0  0  0  0
  142.2034  138.3812  153.2655 C   0  0  0  0  0  0  0  0  0  0  0  0
  142.8577  137.2920  152.9683 N   0  0  0  0  0  0  0  0  0  0  0  0
  142.9988  136.6366  154.1860 C   0  0  0  0  0  0  0  0  0  0  0  0
  143.5970  135.4089  154.5880 C   0  0  0  0  0  0  0  0  0  0  0  0
  144.2317  134.5824  153.7184 N   0  0  0  0  0  0  0  0  0  0  0  0
  145.6872  134.4480  153.8460 C   0  0  0  0  0  0  0  0  0  0  0  0
  146.2118  133.2413  153.0445 C   0  0  0  0  0  0  0  0  0  0  0  0
  145.7343  133.3320  151.5894 C   0  0  1  0  0  0  0  0  0  0  0  0
  146.1065  132.1893  150.8338 O   0  0  0  0  0  0  0  0  0  0  0  0
  145.8159  132.3130  149.4371 C   0  0  0  0  0  0  0  0  0  0  0  0
  144.3913  132.8426  149.1663 C   0  0  0  0  0  0  0  0  0  0  0  0
  143.9195  132.7776  148.0336 O   0  0  0  0  0  0  0  0  0  0  0  0
  143.7184  133.4038  150.1844 N   0  0  0  0  0  0  0  0  0  0  0  0
  144.1995  133.3982  151.5595 C   0  0  2  0  0  0  0  0  0  0  0  0
  143.7129  134.6231  152.3489 C   0  0  0  0  0  0  0  0  0  0  0  0
  143.5169  135.0770  155.9047 N   0  0  0  0  0  0  0  0  0  0  0  0
  142.9072  135.8914  156.7712 C   0  0  0  0  0  0  0  0  0  0  0  0
  142.3164  137.0647  156.5393 N   0  0  0  0  0  0  0  0  0  0  0  0
  142.3826  137.3986  155.2188 C   0  0  0  0  0  0  0  0  0  0  0  0
  146.1678  134.2244  151.1326 H   0  0  0  0  0  0  0  0  0  0  0  0
  143.7941  132.5002  152.0294 H   0  0  0  0  0  0  0  0  0  0  0  0
  140.6867  142.6521  156.1405 H   0  0  0  0  0  0  0  0  0  0  0  0
  139.8128  141.3344  156.9250 H   0  0  0  0  0  0  0  0  0  0  0  0
  138.9654  142.8053  156.4736 H   0  0  0  0  0  0  0  0  0  0  0  0
  139.2396  142.3422  154.0852 H   0  0  0  0  0  0  0  0  0  0  0  0
  138.2785  138.7456  154.4952 H   0  0  0  0  0  0  0  0  0  0  0  0
  137.4084  139.6481  153.2534 H   0  0  0  0  0  0  0  0  0  0  0  0
  139.9912  138.8998  152.7878 H   0  0  0  0  0  0  0  0  0  0  0  0
  139.4046  140.4751  152.2872 H   0  0  0  0  0  0  0  0  0  0  0  0
  141.4516  141.0297  152.5690 H   0  0  0  0  0  0  0  0  0  0  0  0
  141.8517  140.1900  155.8137 H   0  0  0  0  0  0  0  0  0  0  0  0
  140.4077  139.2169  155.8850 H   0  0  0  0  0  0  0  0  0  0  0  0
  141.9386  139.1146  152.5177 H   0  0  0  0  0  0  0  0  0  0  0  0
  146.1633  135.3627  153.4901 H   0  0  0  0  0  0  0  0  0  0  0  0
  145.9602  134.3298  154.8956 H   0  0  0  0  0  0  0  0  0  0  0  0
  147.3008  133.2081  153.0834 H   0  0  0  0  0  0  0  0  0  0  0  0
  145.8530  132.3152  153.4954 H   0  0  0  0  0  0  0  0  0  0  0  0
  146.5342  132.9949  148.9800 H   0  0  0  0  0  0  0  0  0  0  0  0
  145.9450  131.3413  148.9600 H   0  0  0  0  0  0  0  0  0  0  0  0
  142.7980  133.7803  150.0097 H   0  0  0  0  0  0  0  0  0  0  0  0
  142.6241  134.6529  152.3353 H   0  0  0  0  0  0  0  0  0  0  0  0
  144.0572  135.5411  151.8702 H   0  0  0  0  0  0  0  0  0  0  0  0
  142.8919  135.5556  157.7977 H   0  0  0  0  0  0  0  0  0  0  0  0
  1  2  1  0  0  0  0
  1 31  1  0  0  0  0
  1 32  1  0  0  0  0
  1 33  1  0  0  0  0
  2  6  1  0  0  0  0
  2  3  1  0  0  0  0
  2 34  1  0  0  0  0
  3  4  1  0  0  0  0
  4  5  1  0  0  0  0
  4 35  1  0  0  0  0
  4 36  1  0  0  0  0
  5  6  1  0  0  0  0
  5 37  1  0  0  0  0
  5 38  1  0  0  0  0
  6  7  1  0  0  0  0
  6  8  1  0  0  0  0
  7 39  1  0  0  0  0
  8  9  1  0  0  0  0
  8 40  1  0  0  0  0
  8 41  1  0  0  0  0
  9 28  1  0  0  0  0
  9 10  1  0  0  0  0
 10 11  2  0  0  0  0
 10 42  1  0  0  0  0
 11 12  1  0  0  0  0
 12 28  2  0  0  0  0
 12 13  1  0  0  0  0
 13 14  1  0  0  0  0
 13 25  2  0  0  0  0
 14 24  1  0  0  0  0
 14 15  1  0  0  0  0
 15 16  1  0  0  0  0
 15 43  1  0  0  0  0
 15 44  1  0  0  0  0
 16 17  1  0  0  0  0
 16 45  1  0  0  0  0
 16 46  1  0  0  0  0
 17 29  1  0  0  0  0
 17 23  1  0  0  0  0
 17 18  1  0  0  0  0
 18 19  1  0  0  0  0
 19 20  1  0  0  0  0
 19 47  1  0  0  0  0
 19 48  1  0  0  0  0
 20 21  2  0  0  0  0
 20 22  1  0  0  0  0
 22 23  1  0  0  0  0
 22 49  1  0  0  0  0
 23 30  1  0  0  0  0
 23 24  1  0  0  0  0
 24 50  1  0  0  0  0
 24 51  1  0  0  0  0
 25 26  1  0  0  0  0
 26 27  2  0  0  0  0
 26 52  1  0  0  0  0
 27 28  1  0  0  0  0
M  END
> <s_m_source_file>
AV-unprocessed.smi

> <i_m_source_file_index>
265

> <i_lp_mmshare_version>
43012

> <i_f3d_flags>
0

> <s_epik_input>
W0NIMl0xW0NIMl1PW0NAQEhdKFtDSDNdKVtDQEBdMShbT0hdKVtDSDJdbihbY0hdbjIpYyhjMjMpbltjSF1uYzNOKFtDSDJdW0NIMl00KVtDSDJdW0NAQEhdKFtDQEhdNDUpW05IXUMoPU8pW0NIMl1PNQ==

> <s_epik_cmdline>
J2VwaWtfcHl0aG9uJywgJy1waCcsICc3LjAnLCAnLXRuJywgJzgnLCAnLW1hJywgJzIwMCcsICctbWV0YWxfYmluZGluZycsICctaW1hZScsICc8aW5maWxlLm1hZT4nLCAnLW9tYWUnLCAnPG91dGZpbGUubWFlPic=

> <r_lp_tautomer_probability>
1

> <r_epik_Ionization_Penalty>
0.00221504

> <r_epik_Ionization_Penalty_Charging>
0

> <r_epik_Ionization_Penalty_Neutral>
0.00221504

> <r_epik_State_Penalty>
-0

> <r_epik_Charging_Adjusted_Penalty>
0

> <i_epik_Tot_Q>
0

> <i_epik_Tot_abs_Q>
0

> <r_epik_Metal_State_Penalty>
-0

> <b_epik_Metal_Only>
0

> <s_lp_Force_Field>
OPLS_2005

> <r_lp_Energy>
44.3077

> <b_lp_Chiralities_Consistent>
1

> <s_lp_Variant>
AV-unprocessed.smi:265-13

> <Gold.Version>
5.8.1

> <Gold.Id.Protein>
6NUR|6NUR_protein|mol2

> <Gold.PLP.Fitness>
42.7989

> <Gold.PLP.PLP>
-33.5936

> <Gold.PLP.part.hbond>
-4.1101

> <Gold.PLP.part.metal>
0.0000

> <Gold.PLP.part.buried>
-6.5878

> <Gold.PLP.part.nonpolar>
-23.7931

> <Gold.PLP.part.repulsive>
0.8643

> <Gold.PLP.ligand.clash>
0.0000

> <Gold.PLP.ligand.torsion>
0.6867

> <Gold.PLP.Chemscore.Hbond>
2.3830

> <Gold.PLP.Chemscore.CHOScore>
0.9991

> <Gold.PLP.Chemscore.Metal>
0.0000

> <Gold.Chemscore.Hbonds>
donor molecule, donor type, donor heavy atom, donor atom, acceptor molecule, acceptor atom, score
      L1  H     7    39       P1 10160  1.00
      L1  H    22    49       P1 10186  1.00
      P1  H  7918  7932       L1    21  0.07
      L1  C    10    42       P1 10160  0.83
      L1  C    10    42       P1 10175  0.51

> <Gold.PLP.Chemscore.Internal.Correction>
0.4324

> <Gold.Rescore>
     Score         DG    S(hbond)    S(metal)    S(lipo)     H(rot)  DE(clash)    DE(int)     intcor
     10.85     -14.19       2.06        0.00      64.68       2.25       0.01       3.32       ----

> <Gold.Chemscore.Fitness>
10.8510

> <Gold.Chemscore.DG>
-14.1881

> <Gold.Chemscore.ZeroCoef>
-5.4800

> <Gold.Chemscore.Hbond>
2.0623

> <Gold.Chemscore.Metal>
0.0000

> <Gold.Chemscore.Lipo>
64.6817

> <Gold.Chemscore.Internal_Hbond>
0.0000

> <Gold.Chemscore.DEClash>
0.0150

> <Gold.Chemscore.DEInternal>
3.3221

> <Gold.Chemscore.Rot>
2.2453

> <Gold.Chemscore.Internal.Correction>
   9.000000E+99

> <Gold.Chemscore.Hbonds>
donor molecule, donor type, donor heavy atom, donor atom, acceptor molecule, acceptor atom, score
      L1  H     7    39       P1 10160  0.88
      L1  H    22    49       P1 10186  0.99
      P1  H  7918  7932       L1    21  0.08

> <Gold.Chemscore.Hbond.Weighted>
-6.8882

> <Gold.Chemscore.Metal.Weighted>
-0.0000

> <Gold.Chemscore.Lipo.Weighted>
-7.5678

> <Gold.Chemscore.Internal_Hbond.Weighted>
0.0000

> <Gold.Chemscore.DEClash.Weighted>
0.0150

> <Gold.Chemscore.DEInternal.Weighted>
3.3221

> <Gold.Chemscore.Rot.Weighted>
5.7479

> <Gold.Chemscore.Internal.Correction.Weighted>
   9.000000E+99

> <Gold.Protein.RotatedTorsions>
[ 6907 6896 6895 6894 ] final   16.51 input  -60.11 | X-H torsion
[ 7974 7965 7964 7962 ] final -118.59 input  175.53 | X-H torsion
[ 8008 7997 7996 7995 ] final  -35.58 input   59.86 | X-H torsion
[ 10167 10162 10161 10158 ] final -120.31 input  -65.29 | X-H torsion
[ 10718 10713 10712 10709 ] final   50.25 input   66.30 | X-H torsion
[ 10763 10752 10751 10750 ] final   21.57 input  -60.55 | X-H torsion
[ 11005 11000 10999 10996 ] final -141.89 input  -57.11 | X-H torsion

> <Gold.Protein.ActiveResidues>
 VAL166  LYS551  ARG553  GLY616  TRP617  ASP618  TYR619  PRO620  LYS621  CYS622 
 ASP623  PHE694  ASN695  SER759  ASP760  ASP761  ALA762  ILE779  LEU786  VAL792 
 PHE793  MET794  SER795  GLU796  ALA797  LYS798  CYS799  TRP800  GLU811  SER814 

> <Gold.Protein.RotatedAtoms>
  151.8351  135.0609  160.0441 H   0  0  0  0  0  0  0  0  0  0  0  0  # atno 6907 bound_to 6896
  152.2851  133.5503  159.5530 H   0  0  0  0  0  0  0  0  0  0  0  0  # atno 6908 bound_to 6896
  150.7206  134.0424  159.3812 H   0  0  0  0  0  0  0  0  0  0  0  0  # atno 6909 bound_to 6896
  145.0721  140.8367  143.4089 H   0  0  0  0  0  0  0  0  0  0  0  0  # atno 7974 bound_to 7965
  154.4092  140.1653  156.2235 H   0  0  0  0  0  0  0  0  0  0  0  0  # atno 8008 bound_to 7997
  155.9344  140.3412  155.6252 H   0  0  0  0  0  0  0  0  0  0  0  0  # atno 8009 bound_to 7997
  155.7067  140.0751  157.2379 H   0  0  0  0  0  0  0  0  0  0  0  0  # atno 8010 bound_to 7997
  140.0372  143.5189  152.2148 H   0  0  0  0  0  0  0  0  0  0  0  0  # atno 10167 bound_to 10162
  157.4866  130.8349  149.8154 H   0  0  0  0  0  0  0  0  0  0  0  0  # atno 10718 bound_to 10713
  153.0984  135.6666  153.9719 H   0  0  0  0  0  0  0  0  0  0  0  0  # atno 10763 bound_to 10752
  153.9296  135.3005  155.3447 H   0  0  0  0  0  0  0  0  0  0  0  0  # atno 10764 bound_to 10752
  154.7404  135.5082  153.9188 H   0  0  0  0  0  0  0  0  0  0  0  0  # atno 10765 bound_to 10752
  140.8279  134.2552  157.4870 H   0  0  0  0  0  0  0  0  0  0  0  0  # atno 11005 bound_to 11000
  145.1279  139.2651  143.5554 LP  0  0  0  0  0  0  0  0  0  0  0  0  # atno 17320 bound_to 7965
  146.3529  140.0922  142.8612 LP  0  0  0  0  0  0  0  0  0  0  0  0  # atno 17321 bound_to 7965
  139.6037  144.7590  151.3111 LP  0  0  0  0  0  0  0  0  0  0  0  0  # atno 17342 bound_to 10162
  140.7276  143.6958  150.7885 LP  0  0  0  0  0  0  0  0  0  0  0  0  # atno 17343 bound_to 10162
  156.0150  130.3817  150.2139 LP  0  0  0  0  0  0  0  0  0  0  0  0  # atno 17370 bound_to 10713
  157.0327  131.0012  151.3307 LP  0  0  0  0  0  0  0  0  0  0  0  0  # atno 17371 bound_to 10713
  139.8706  134.9570  156.4257 LP  0  0  0  0  0  0  0  0  0  0  0  0  # atno 17394 bound_to 11000
  140.9029  133.7766  155.9701 LP  0  0  0  0  0  0  0  0  0  0  0  0  # atno 17395 bound_to 11000

$$$$
