AV-unprocessed.smi:48|AV-procd|sdf|455|dock2
  -GOLD-   2262016323D 1   1.00000     0.00000
 Structure written by MMmdl.
 30 32  0  0  0  0  0  0  0  0  1 V2000
  147.4290  137.6501  153.5572 O   0  0  0  0  0  0  0  0  0  0  0  0
  148.0747  138.0650  154.7418 C   0  0  0  0  0  0  0  0  0  0  0  0
  148.0144  139.5977  154.8679 C   0  0  1  0  0  0  0  0  0  0  0  0
  148.3645  140.0156  156.1792 O   0  0  0  0  0  0  0  0  0  0  0  0
  148.7044  141.3650  156.1477 C   0  0  1  0  0  0  0  0  0  0  0  0
  149.7935  141.5945  157.1434 N   0  0  0  0  0  0  0  0  0  0  0  0
  149.9477  142.6638  157.9502 C   0  0  0  0  0  0  0  0  0  0  0  0
  151.0013  142.6713  158.7656 N   0  0  0  0  0  0  0  0  0  0  0  0
  151.6010  141.4626  158.4524 C   0  0  0  0  0  0  0  0  0  0  0  0
  152.7652  140.8163  158.9344 C   0  0  0  0  0  0  0  0  0  0  0  0
  153.7449  141.5445  160.1541 Cl  0  0  0  0  0  0  0  0  0  0  0  0
  153.0955  139.6098  158.4154 N   0  0  0  0  0  0  0  0  0  0  0  0
  152.3174  139.0677  157.4708 C   0  0  0  0  0  0  0  0  0  0  0  0
  151.1986  139.5544  156.9226 N   0  0  0  0  0  0  0  0  0  0  0  0
  150.8673  140.7721  157.4456 C   0  0  0  0  0  0  0  0  0  0  0  0
  149.1808  141.6989  154.7232 C   0  0  2  0  0  0  0  0  0  0  0  0
  148.3634  142.6911  154.1358 O   0  0  0  0  0  0  0  0  0  0  0  0
  148.9941  140.3788  153.9784 C   0  0  1  0  0  0  0  0  0  0  0  0
  150.2330  139.7069  153.8485 O   0  0  0  0  0  0  0  0  0  0  0  0
  147.0052  139.9538  154.6519 H   0  0  0  0  0  0  0  0  0  0  0  0
  147.8697  141.9795  156.4894 H   0  0  0  0  0  0  0  0  0  0  0  0
  150.2175  142.0404  154.7181 H   0  0  0  0  0  0  0  0  0  0  0  0
  148.5922  140.5164  152.9735 H   0  0  0  0  0  0  0  0  0  0  0  0
  148.0881  137.4331  152.9155 H   0  0  0  0  0  0  0  0  0  0  0  0
  147.6262  137.5767  155.6078 H   0  0  0  0  0  0  0  0  0  0  0  0
  149.1114  137.7330  154.6794 H   0  0  0  0  0  0  0  0  0  0  0  0
  149.2477  143.4867  157.9351 H   0  0  0  0  0  0  0  0  0  0  0  0
  152.6369  138.1051  157.0998 H   0  0  0  0  0  0  0  0  0  0  0  0
  148.4676  143.4927  154.6256 H   0  0  0  0  0  0  0  0  0  0  0  0
  150.2826  139.3311  152.9830 H   0  0  0  0  0  0  0  0  0  0  0  0
  1  2  1  0  0  0  0
  1 24  1  0  0  0  0
  2  3  1  0  0  0  0
  2 25  1  0  0  0  0
  2 26  1  0  0  0  0
  3 20  1  0  0  0  0
  3 18  1  0  0  0  0
  3  4  1  0  0  0  0
  4  5  1  0  0  0  0
  5 21  1  0  0  0  0
  5  6  1  0  0  0  0
  5 16  1  0  0  0  0
  6 15  1  0  0  0  0
  6  7  1  0  0  0  0
  7  8  2  0  0  0  0
  7 27  1  0  0  0  0
  8  9  1  0  0  0  0
  9 15  2  0  0  0  0
  9 10  1  0  0  0  0
 10 11  1  0  0  0  0
 10 12  2  0  0  0  0
 12 13  1  0  0  0  0
 13 14  2  0  0  0  0
 13 28  1  0  0  0  0
 14 15  1  0  0  0  0
 16 22  1  0  0  0  0
 16 17  1  0  0  0  0
 16 18  1  0  0  0  0
 17 29  1  0  0  0  0
 18 23  1  0  0  0  0
 18 19  1  0  0  0  0
 19 30  1  0  0  0  0
M  END
> <s_m_source_file>
AV-unprocessed.smi

> <i_m_source_file_index>
48

> <i_lp_mmshare_version>
43012

> <i_f3d_flags>
0

> <s_epik_input>
W09IXVtDSDJdW0NASF0xT1tDQEhdKFtDQEhdKFtPSF0pW0NAQEhdMVtPSF0pbihbY0hdbjIpYyhjMjMpbltjSF1uYzNDbA==

> <s_epik_cmdline>
J2VwaWtfcHl0aG9uJywgJy1waCcsICc3LjAnLCAnLXRuJywgJzgnLCAnLW1hJywgJzIwMCcsICctbWV0YWxfYmluZGluZycsICctaW1hZScsICc8aW5maWxlLm1hZT4nLCAnLW9tYWUnLCAnPG91dGZpbGUubWFlPic=

> <r_lp_tautomer_probability>
1

> <r_epik_Ionization_Penalty>
3.45505e-06

> <r_epik_Ionization_Penalty_Charging>
0

> <r_epik_Ionization_Penalty_Neutral>
3.45505e-06

> <r_epik_State_Penalty>
-0

> <r_epik_Charging_Adjusted_Penalty>
0

> <i_epik_Tot_Q>
0

> <i_epik_Tot_abs_Q>
0

> <r_epik_Metal_State_Penalty>
-0

> <b_epik_Metal_Only>
0

> <s_epik_Chemistry_Notes>
This compound contains an acetal/aminal-like group ( X-CH(R)-Y where X, Y are N, S, or O) that may be acid/base labile, releasing an aldehyde.

> <s_lp_Force_Field>
OPLS_2005

> <r_lp_Energy>
33.2991

> <b_lp_Chiralities_Consistent>
1

> <s_lp_Variant>
AV-unprocessed.smi:48-9

> <Gold.Version>
5.8.1

> <Gold.Id.Protein>
6NUR|6NUR_protein|mol2

> <Gold.PLP.Fitness>
41.0446

> <Gold.PLP.PLP>
-27.0765

> <Gold.PLP.part.hbond>
-6.8585

> <Gold.PLP.part.metal>
0.0000

> <Gold.PLP.part.buried>
1.0650

> <Gold.PLP.part.nonpolar>
-19.3154

> <Gold.PLP.part.repulsive>
0.0606

> <Gold.PLP.ligand.clash>
0.0000

> <Gold.PLP.ligand.torsion>
0.7019

> <Gold.PLP.Chemscore.Hbond>
4.2838

> <Gold.PLP.Chemscore.CHOScore>
0.8383

> <Gold.PLP.Chemscore.Metal>
0.0000

> <Gold.Chemscore.Hbonds>
donor molecule, donor type, donor heavy atom, donor atom, acceptor molecule, acceptor atom, score
      L1  H     1    24       P1  7948  1.00
      L1  H    17    29       P1  8028  1.00
      L1  H    19    30       P1  7957  0.60
      P1  H  7989  7998       L1    19  0.54
      P1  H  7997  8008       L1    12  0.66
      L1  C     7    27       P1  8028  0.64
      L1  C     7    27       P1  8029  0.05

> <Gold.PLP.Chemscore.Internal.Correction>
0.0057

> <Gold.Rescore>
     Score         DG    S(hbond)    S(metal)    S(lipo)     H(rot)  DE(clash)    DE(int)     intcor
      9.84     -11.52       3.12        0.00      45.71       3.80       0.02       1.65       ----

> <Gold.Chemscore.Fitness>
9.8398

> <Gold.Chemscore.DG>
-11.5185

> <Gold.Chemscore.ZeroCoef>
-5.4800

> <Gold.Chemscore.Hbond>
3.1207

> <Gold.Chemscore.Metal>
0.0000

> <Gold.Chemscore.Lipo>
45.7079

> <Gold.Chemscore.Internal_Hbond>
0.0000

> <Gold.Chemscore.DEClash>
0.0239

> <Gold.Chemscore.DEInternal>
1.6548

> <Gold.Chemscore.Rot>
3.8017

> <Gold.Chemscore.Internal.Correction>
   9.000000E+99

> <Gold.Chemscore.Hbonds>
donor molecule, donor type, donor heavy atom, donor atom, acceptor molecule, acceptor atom, score
      L1  H     1    24       P1  7948  0.96
      L1  H    17    29       P1  8028  0.99
      L1  H    19    30       P1  7957  0.51
      P1  H  7989  7998       L1    19  0.02
      P1  H  7997  8008       L1    12  0.05

> <Gold.Chemscore.Hbond.Weighted>
-10.4231

> <Gold.Chemscore.Metal.Weighted>
-0.0000

> <Gold.Chemscore.Lipo.Weighted>
-5.3478

> <Gold.Chemscore.Internal_Hbond.Weighted>
0.0000

> <Gold.Chemscore.DEClash.Weighted>
0.0239

> <Gold.Chemscore.DEInternal.Weighted>
1.6548

> <Gold.Chemscore.Rot.Weighted>
9.7324

> <Gold.Chemscore.Internal.Correction.Weighted>
   9.000000E+99

> <Gold.Protein.RotatedTorsions>
[ 6907 6896 6895 6894 ] final   13.72 input  -60.11 | X-H torsion
[ 7974 7965 7964 7962 ] final -161.93 input  175.53 | X-H torsion
[ 8008 7997 7996 7995 ] final -100.06 input   59.86 | X-H torsion
[ 10167 10162 10161 10158 ] final  -59.20 input  -65.29 | X-H torsion
[ 10718 10713 10712 10709 ] final  -19.44 input   66.30 | X-H torsion
[ 10763 10752 10751 10750 ] final -125.28 input  -60.55 | X-H torsion
[ 11005 11000 10999 10996 ] final   73.93 input  -57.11 | X-H torsion

> <Gold.Protein.ActiveResidues>
 VAL166  LYS551  ARG553  GLY616  TRP617  ASP618  TYR619  PRO620  LYS621  CYS622 
 ASP623  PHE694  ASN695  SER759  ASP760  ASP761  ALA762  ILE779  LEU786  VAL792 
 PHE793  MET794  SER795  GLU796  ALA797  LYS798  CYS799  TRP800  GLU811  SER814 

> <Gold.Protein.RotatedAtoms>
  151.7907  135.0736  160.0386 H   0  0  0  0  0  0  0  0  0  0  0  0  # atno 6907 bound_to 6896
  152.3158  133.5796  159.5720 H   0  0  0  0  0  0  0  0  0  0  0  0  # atno 6908 bound_to 6896
  150.7343  134.0000  159.3677 H   0  0  0  0  0  0  0  0  0  0  0  0  # atno 6909 bound_to 6896
  144.7374  140.3327  143.6150 H   0  0  0  0  0  0  0  0  0  0  0  0  # atno 7974 bound_to 7965
  154.8234  140.0443  157.1426 H   0  0  0  0  0  0  0  0  0  0  0  0  # atno 8008 bound_to 7997
  154.9234  140.3030  155.5184 H   0  0  0  0  0  0  0  0  0  0  0  0  # atno 8009 bound_to 7997
  156.2982  140.2336  156.4286 H   0  0  0  0  0  0  0  0  0  0  0  0  # atno 8010 bound_to 7997
  140.6150  143.2399  151.5620 H   0  0  0  0  0  0  0  0  0  0  0  0  # atno 10167 bound_to 10162
  156.5456  130.4689  149.6477 H   0  0  0  0  0  0  0  0  0  0  0  0  # atno 10718 bound_to 10713
  154.8734  135.4035  154.3243 H   0  0  0  0  0  0  0  0  0  0  0  0  # atno 10763 bound_to 10752
  153.4066  135.7019  153.6394 H   0  0  0  0  0  0  0  0  0  0  0  0  # atno 10764 bound_to 10752
  153.5114  135.3706  155.2559 H   0  0  0  0  0  0  0  0  0  0  0  0  # atno 10765 bound_to 10752
  139.9416  134.7389  156.1086 H   0  0  0  0  0  0  0  0  0  0  0  0  # atno 11005 bound_to 11000
  145.7456  139.1777  143.2351 LP  0  0  0  0  0  0  0  0  0  0  0  0  # atno 17320 bound_to 7965
  146.1101  140.7439  142.9507 LP  0  0  0  0  0  0  0  0  0  0  0  0  # atno 17321 bound_to 7965
  139.5391  144.2698  152.1313 LP  0  0  0  0  0  0  0  0  0  0  0  0  # atno 17342 bound_to 10162
  140.1905  144.4756  150.6481 LP  0  0  0  0  0  0  0  0  0  0  0  0  # atno 17343 bound_to 10162
  156.2931  130.7135  151.1989 LP  0  0  0  0  0  0  0  0  0  0  0  0  # atno 17370 bound_to 10713
  157.7397  131.0526  150.5214 LP  0  0  0  0  0  0  0  0  0  0  0  0  # atno 17371 bound_to 10713
  141.1052  133.6662  156.2847 LP  0  0  0  0  0  0  0  0  0  0  0  0  # atno 17394 bound_to 11000
  140.5938  134.5623  157.5505 LP  0  0  0  0  0  0  0  0  0  0  0  0  # atno 17395 bound_to 11000

$$$$
