AV-unprocessed.smi:249|AV-procd|sdf|1899|dock6
  -GOLD-   2262020573D 1   1.00000     0.00000
 Structure written by MMmdl.
 64 67  0  0  0  0  0  0  0  0  2 V2000
  146.0960  132.6706  150.3224 C   0  0  0  0  0  0  0  0  0  0  0  0
  146.0548  132.0202  151.7134 C   0  0  0  0  0  0  0  0  0  0  0  0
  147.4096  131.8131  152.3068 N   0  3  1  0  0  0  0  0  0  0  0  0
  148.1530  133.0733  152.5880 C   0  0  0  0  0  0  0  0  0  0  0  0
  147.5612  133.8298  153.7921 C   0  0  0  0  0  0  0  0  0  0  0  0
  147.5279  132.9367  155.0529 C   0  0  1  0  0  0  0  0  0  0  0  0
  146.9881  133.6137  156.2411 N   0  0  0  0  0  0  0  0  0  0  0  0
  145.6383  134.1579  156.1528 C   0  0  0  0  0  0  0  0  0  0  0  0
  147.8455  134.3822  156.9538 C   0  0  0  0  0  0  0  0  0  0  0  0
  147.5366  134.6234  158.2525 N   0  0  0  0  0  0  0  0  0  0  0  0
  148.3664  135.3393  159.0169 C   0  0  0  0  0  0  0  0  0  0  0  0
  149.5391  135.8853  158.6901 N   0  0  0  0  0  0  0  0  0  0  0  0
  149.8468  135.6553  157.3815 C   0  0  0  0  0  0  0  0  0  0  0  0
  149.0538  134.9370  156.4435 C   0  0  0  0  0  0  0  0  0  0  0  0
  149.6841  134.9225  155.2043 N   0  0  0  0  0  0  0  0  0  0  0  0
  150.7943  135.5782  155.4027 C   0  0  0  0  0  0  0  0  0  0  0  0
  150.9899  136.0198  156.6918 N   0  0  0  0  0  0  0  0  0  0  0  0
  152.1457  136.7398  157.1932 C   0  0  0  0  0  0  0  0  0  0  0  0
  151.8788  138.2255  157.5695 C   0  0  2  0  0  0  0  0  0  0  0  0
  151.6368  139.0344  156.2713 C   0  0  0  0  0  0  0  0  0  0  0  0
  152.8344  139.2118  155.5428 O   0  0  0  0  0  0  0  0  0  0  0  0
  153.0051  138.8670  158.4392 C   0  0  2  0  0  0  0  0  0  0  0  0
  153.2862  138.1980  159.7802 C   0  0  0  0  0  0  0  0  0  0  0  0
  154.0080  139.2832  160.5723 C   0  0  0  0  0  0  0  0  0  0  0  0
  153.5538  140.5215  160.0457 O   0  0  0  0  0  0  0  0  0  0  0  0
  152.6990  140.2869  158.9347 C   0  0  0  0  0  0  0  0  0  0  0  0
  146.8210  131.5992  154.7333 C   0  0  0  0  0  0  0  0  0  0  0  0
  147.4479  130.9157  153.5011 C   0  0  1  0  0  0  0  0  0  0  0  0
  146.8587  129.5177  153.2399 C   0  0  0  0  0  0  0  0  0  0  0  0
  145.1045  132.6623  149.8692 H   0  0  0  0  0  0  0  0  0  0  0  0
  146.7672  132.1321  149.6529 H   0  0  0  0  0  0  0  0  0  0  0  0
  146.4158  133.7113  150.3631 H   0  0  0  0  0  0  0  0  0  0  0  0
  145.4190  132.6040  152.3786 H   0  0  0  0  0  0  0  0  0  0  0  0
  145.5582  131.0600  151.5876 H   0  0  0  0  0  0  0  0  0  0  0  0
  149.1929  132.8204  152.7993 H   0  0  0  0  0  0  0  0  0  0  0  0
  148.1871  133.7181  151.7114 H   0  0  0  0  0  0  0  0  0  0  0  0
  148.1561  134.7223  153.9894 H   0  0  0  0  0  0  0  0  0  0  0  0
  146.5631  134.1817  153.5336 H   0  0  0  0  0  0  0  0  0  0  0  0
  148.5648  132.7003  155.2960 H   0  0  0  0  0  0  0  0  0  0  0  0
  145.3226  134.5775  157.1091 H   0  0  0  0  0  0  0  0  0  0  0  0
  144.9339  133.3688  155.8886 H   0  0  0  0  0  0  0  0  0  0  0  0
  145.5681  134.9394  155.3965 H   0  0  0  0  0  0  0  0  0  0  0  0
  148.0511  135.4867  160.0394 H   0  0  0  0  0  0  0  0  0  0  0  0
  151.5178  135.7345  154.6155 H   0  0  0  0  0  0  0  0  0  0  0  0
  152.5344  136.2051  158.0608 H   0  0  0  0  0  0  0  0  0  0  0  0
  152.9158  136.6712  156.4243 H   0  0  0  0  0  0  0  0  0  0  0  0
  150.9548  138.2744  158.1467 H   0  0  0  0  0  0  0  0  0  0  0  0
  150.9460  138.5240  155.6020 H   0  0  0  0  0  0  0  0  0  0  0  0
  151.2034  140.0091  156.4969 H   0  0  0  0  0  0  0  0  0  0  0  0
  152.6223  139.5882  154.7024 H   0  0  0  0  0  0  0  0  0  0  0  0
  153.9308  138.8999  157.8625 H   0  0  0  0  0  0  0  0  0  0  0  0
  152.3521  137.9336  160.2781 H   0  0  0  0  0  0  0  0  0  0  0  0
  153.8992  137.3022  159.7089 H   0  0  0  0  0  0  0  0  0  0  0  0
  153.8123  139.2123  161.6421 H   0  0  0  0  0  0  0  0  0  0  0  0
  155.0858  139.2161  160.4203 H   0  0  0  0  0  0  0  0  0  0  0  0
  152.8577  141.0446  158.1671 H   0  0  0  0  0  0  0  0  0  0  0  0
  151.6655  140.3615  159.2760 H   0  0  0  0  0  0  0  0  0  0  0  0
  146.8891  130.9283  155.5899 H   0  0  0  0  0  0  0  0  0  0  0  0
  145.7585  131.7591  154.5535 H   0  0  0  0  0  0  0  0  0  0  0  0
  148.5042  130.7530  153.7220 H   0  0  0  0  0  0  0  0  0  0  0  0
  147.0980  128.8425  154.0618 H   0  0  0  0  0  0  0  0  0  0  0  0
  147.2665  129.0791  152.3287 H   0  0  0  0  0  0  0  0  0  0  0  0
  145.7722  129.5360  153.1545 H   0  0  0  0  0  0  0  0  0  0  0  0
  147.9386  131.3345  151.5916 H   0  0  0  0  0  0  0  0  0  0  0  0
  1  2  1  0  0  0  0
  1 30  1  0  0  0  0
  1 31  1  0  0  0  0
  1 32  1  0  0  0  0
  2  3  1  0  0  0  0
  2 33  1  0  0  0  0
  2 34  1  0  0  0  0
  3 28  1  0  0  0  0
  3  4  1  0  0  0  0
  3 64  1  0  0  0  0
  4  5  1  0  0  0  0
  4 35  1  0  0  0  0
  4 36  1  0  0  0  0
  5  6  1  0  0  0  0
  5 37  1  0  0  0  0
  5 38  1  0  0  0  0
  6  7  1  0  0  0  0
  6 27  1  0  0  0  0
  6 39  1  0  0  0  0
  7  8  1  0  0  0  0
  7  9  1  0  0  0  0
  8 40  1  0  0  0  0
  8 41  1  0  0  0  0
  8 42  1  0  0  0  0
  9 14  1  0  0  0  0
  9 10  2  0  0  0  0
 10 11  1  0  0  0  0
 11 12  2  0  0  0  0
 11 43  1  0  0  0  0
 12 13  1  0  0  0  0
 13 17  1  0  0  0  0
 13 14  2  0  0  0  0
 14 15  1  0  0  0  0
 15 16  2  0  0  0  0
 16 17  1  0  0  0  0
 16 44  1  0  0  0  0
 17 18  1  0  0  0  0
 18 19  1  0  0  0  0
 18 45  1  0  0  0  0
 18 46  1  0  0  0  0
 19 20  1  0  0  0  0
 19 22  1  0  0  0  0
 19 47  1  0  0  0  0
 20 21  1  0  0  0  0
 20 48  1  0  0  0  0
 20 49  1  0  0  0  0
 21 50  1  0  0  0  0
 22 26  1  0  0  0  0
 22 23  1  0  0  0  0
 22 51  1  0  0  0  0
 23 24  1  0  0  0  0
 23 52  1  0  0  0  0
 23 53  1  0  0  0  0
 24 25  1  0  0  0  0
 24 54  1  0  0  0  0
 24 55  1  0  0  0  0
 25 26  1  0  0  0  0
 26 56  1  0  0  0  0
 26 57  1  0  0  0  0
 27 28  1  0  0  0  0
 27 58  1  0  0  0  0
 27 59  1  0  0  0  0
 28 29  1  0  0  0  0
 28 60  1  0  0  0  0
 29 61  1  0  0  0  0
 29 62  1  0  0  0  0
 29 63  1  0  0  0  0
M  CHG  1   3   1
M  END
> <s_m_source_file>
AV-unprocessed.smi

> <i_m_source_file_index>
249

> <i_lp_mmshare_version>
43012

> <i_f3d_flags>
0

> <s_epik_input>
W0NIM11bQ0gyXU4xW0NIMl1bQ0gyXVtDQEhdKFtDSDJdW0NASF0xW0NIM10pTihbQ0gzXSljKG5bY0hdbjIpYyhjMjMpbltjSF1uM1tDSDJdW0NASF0oW0NIMl1bT0hdKVtDQEBIXTRbQ0gyXVtDSDJdT1tDSDJdNA==

> <s_epik_cmdline>
J2VwaWtfcHl0aG9uJywgJy1waCcsICc3LjAnLCAnLXRuJywgJzgnLCAnLW1hJywgJzIwMCcsICctbWV0YWxfYmluZGluZycsICctaW1hZScsICc8aW5maWxlLm1hZT4nLCAnLW9tYWUnLCAnPG91dGZpbGUubWFlPic=

> <r_lp_tautomer_probability>
1

> <r_epik_Ionization_Penalty>
0.00294688

> <r_epik_Ionization_Penalty_Charging>
0.00169971

> <r_epik_Ionization_Penalty_Neutral>
0.00124717

> <r_epik_State_Penalty>
-0

> <r_epik_Charging_Adjusted_Penalty>
0.00169971

> <i_epik_Tot_Q>
1

> <i_epik_Tot_abs_Q>
1

> <r_epik_Metal_State_Penalty>
-0

> <b_epik_Metal_Only>
0

> <s_lp_Force_Field>
OPLS_2005

> <r_lp_Energy>
54.564

> <b_lp_Chiralities_Consistent>
1

> <s_lp_Variant>
AV-unprocessed.smi:249-2

> <Gold.Version>
5.8.1

> <Gold.Id.Protein>
6NUR|6NUR_protein|mol2

> <Gold.PLP.Fitness>
39.7211

> <Gold.PLP.PLP>
-31.5983

> <Gold.PLP.part.hbond>
-3.0000

> <Gold.PLP.part.metal>
0.0000

> <Gold.PLP.part.buried>
-6.1146

> <Gold.PLP.part.nonpolar>
-23.0023

> <Gold.PLP.part.repulsive>
0.1275

> <Gold.PLP.ligand.clash>
0.0000

> <Gold.PLP.ligand.torsion>
0.9028

> <Gold.PLP.Chemscore.Hbond>
3.0000

> <Gold.PLP.Chemscore.CHOScore>
0.0000

> <Gold.PLP.Chemscore.Metal>
0.0000

> <Gold.Chemscore.Hbonds>
donor molecule, donor type, donor heavy atom, donor atom, acceptor molecule, acceptor atom, score
      L1  H     3    64       P1 10747  1.00
      P1  H  6896  6907       L1    12  1.00
      P1  H  7997  8010       L1    21  1.00

> <Gold.PLP.Chemscore.Internal.Correction>
0.9284

> <Gold.Rescore>
     Score         DG    S(hbond)    S(metal)    S(lipo)     H(rot)  DE(clash)    DE(int)     intcor
     13.16     -16.96       2.61        0.00      86.97       2.90       0.03       3.78       ----

> <Gold.Chemscore.Fitness>
13.1552

> <Gold.Chemscore.DG>
-16.9632

> <Gold.Chemscore.ZeroCoef>
-5.4800

> <Gold.Chemscore.Hbond>
2.6147

> <Gold.Chemscore.Metal>
0.0000

> <Gold.Chemscore.Lipo>
86.9708

> <Gold.Chemscore.Internal_Hbond>
0.0000

> <Gold.Chemscore.DEClash>
0.0274

> <Gold.Chemscore.DEInternal>
3.7806

> <Gold.Chemscore.Rot>
2.9006

> <Gold.Chemscore.Internal.Correction>
   9.000000E+99

> <Gold.Chemscore.Hbonds>
donor molecule, donor type, donor heavy atom, donor atom, acceptor molecule, acceptor atom, score
      L1  H     3    64       P1 10747  1.00
      P1  H  6896  6907       L1    12  0.18
      P1  H  7997  8010       L1    21  0.50

> <Gold.Chemscore.Hbond.Weighted>
-8.7332

> <Gold.Chemscore.Metal.Weighted>
-0.0000

> <Gold.Chemscore.Lipo.Weighted>
-10.1756

> <Gold.Chemscore.Internal_Hbond.Weighted>
0.0000

> <Gold.Chemscore.DEClash.Weighted>
0.0274

> <Gold.Chemscore.DEInternal.Weighted>
3.7806

> <Gold.Chemscore.Rot.Weighted>
7.4256

> <Gold.Chemscore.Internal.Correction.Weighted>
   9.000000E+99

> <Gold.Protein.RotatedTorsions>
[ 6907 6896 6895 6894 ] final  -53.48 input  -60.11 | X-H torsion
[ 7974 7965 7964 7962 ] final  171.57 input  175.53 | X-H torsion
[ 8008 7997 7996 7995 ] final   90.70 input   59.86 | X-H torsion
[ 10167 10162 10161 10158 ] final  -44.05 input  -65.29 | X-H torsion
[ 10718 10713 10712 10709 ] final  -53.12 input   66.30 | X-H torsion
[ 10763 10752 10751 10750 ] final  112.39 input  -60.55 | X-H torsion
[ 11005 11000 10999 10996 ] final  169.49 input  -57.11 | X-H torsion

> <Gold.Protein.ActiveResidues>
 VAL166  LYS551  ARG553  GLY616  TRP617  ASP618  TYR619  PRO620  LYS621  CYS622 
 ASP623  PHE694  ASN695  SER759  ASP760  ASP761  ALA762  ILE779  LEU786  VAL792 
 PHE793  MET794  SER795  GLU796  ALA797  LYS798  CYS799  TRP800  GLU811  SER814 

> <Gold.Protein.RotatedAtoms>
  150.8423  134.7720  159.6942 H   0  0  0  0  0  0  0  0  0  0  0  0  # atno 6907 bound_to 6896
  152.4508  134.5395  159.9844 H   0  0  0  0  0  0  0  0  0  0  0  0  # atno 6908 bound_to 6896
  151.5532  133.3376  159.2993 H   0  0  0  0  0  0  0  0  0  0  0  0  # atno 6909 bound_to 6896
  144.7291  139.9369  143.6427 H   0  0  0  0  0  0  0  0  0  0  0  0  # atno 7974 bound_to 7965
  156.0151  140.3346  155.6980 H   0  0  0  0  0  0  0  0  0  0  0  0  # atno 8008 bound_to 7997
  155.6103  140.0664  157.2726 H   0  0  0  0  0  0  0  0  0  0  0  0  # atno 8009 bound_to 7997
  154.4295  140.1795  156.1253 H   0  0  0  0  0  0  0  0  0  0  0  0  # atno 8010 bound_to 7997
  140.6911  143.2950  151.3439 H   0  0  0  0  0  0  0  0  0  0  0  0  # atno 10167 bound_to 10162
  156.1563  130.4150  149.9864 H   0  0  0  0  0  0  0  0  0  0  0  0  # atno 10718 bound_to 10713
  153.4772  135.3687  155.2422 H   0  0  0  0  0  0  0  0  0  0  0  0  # atno 10763 bound_to 10752
  154.8756  135.3945  154.3743 H   0  0  0  0  0  0  0  0  0  0  0  0  # atno 10764 bound_to 10752
  153.4341  135.7083  153.6277 H   0  0  0  0  0  0  0  0  0  0  0  0  # atno 10765 bound_to 10752
  140.2983  134.7616  157.3895 H   0  0  0  0  0  0  0  0  0  0  0  0  # atno 11005 bound_to 11000
  146.0815  139.3802  143.0462 LP  0  0  0  0  0  0  0  0  0  0  0  0  # atno 17320 bound_to 7965
  145.7835  140.9846  143.1087 LP  0  0  0  0  0  0  0  0  0  0  0  0  # atno 17321 bound_to 7965
  139.6316  144.0710  152.2481 LP  0  0  0  0  0  0  0  0  0  0  0  0  # atno 17342 bound_to 10162
  140.0187  144.6169  150.7585 LP  0  0  0  0  0  0  0  0  0  0  0  0  # atno 17343 bound_to 10162
  156.7707  130.9185  151.3644 LP  0  0  0  0  0  0  0  0  0  0  0  0  # atno 17370 bound_to 10713
  157.6697  130.9040  150.0012 LP  0  0  0  0  0  0  0  0  0  0  0  0  # atno 17371 bound_to 10713
  140.1132  134.5318  155.8248 LP  0  0  0  0  0  0  0  0  0  0  0  0  # atno 17394 bound_to 11000
  141.2133  133.6731  156.6728 LP  0  0  0  0  0  0  0  0  0  0  0  0  # atno 17395 bound_to 11000

$$$$
