AV-unprocessed.smi:1697|AV-procd|sdf|6809|dock4
  -GOLD-   22720 7583D 1   1.00000     0.00000
 Structure written by MMmdl.
 55 57  0  0  0  0  0  0  0  0  3 V2000
  148.5217  132.2755  158.4714 C   0  0  0  0  0  0  0  0  0  0  0  0
  148.2021  132.3762  156.9737 C   0  0  0  0  0  0  0  0  0  0  0  0
  147.7641  133.6791  156.6091 O   0  0  0  0  0  0  0  0  0  0  0  0
  147.5694  133.8905  155.2141 C   0  0  2  0  0  0  0  0  0  0  0  0
  148.8758  133.5524  154.4794 C   0  0  0  0  0  0  0  0  0  0  0  0
  149.9997  134.5432  154.8286 C   0  0  0  0  0  0  0  0  0  0  0  0
  149.5874  135.9431  154.5519 N   0  3  2  0  0  0  0  0  0  0  0  0
  150.7023  136.9082  154.7359 C   0  0  0  0  0  0  0  0  0  0  0  0
  150.2175  138.3712  154.7728 C   0  0  2  0  0  0  0  0  0  0  0  0
  149.6729  138.7020  153.5096 O   0  0  0  0  0  0  0  0  0  0  0  0
  151.3604  139.3475  155.1150 C   0  0  0  0  0  0  0  0  0  0  0  0
  150.8767  140.6018  155.7106 N   0  0  0  0  0  0  0  0  0  0  0  0
  149.9453  141.4783  155.2451 C   0  0  0  0  0  0  0  0  0  0  0  0
  149.8467  142.4924  156.1482 N   0  3  0  0  0  0  0  0  0  0  0  0
  150.7272  142.2610  157.2068 C   0  0  0  0  0  0  0  0  0  0  0  0
  150.9865  143.0048  158.3518 C   0  0  0  0  0  0  0  0  0  0  0  0
  151.9547  142.4956  159.2461 C   0  0  0  0  0  0  0  0  0  0  0  0
  152.2654  143.2865  160.5055 C   0  0  0  0  0  0  0  0  0  0  0  0
  152.6254  141.2744  158.9774 C   0  0  0  0  0  0  0  0  0  0  0  0
  153.6657  140.7368  159.9456 C   0  0  0  0  0  0  0  0  0  0  0  0
  152.3459  140.5316  157.8079 C   0  0  0  0  0  0  0  0  0  0  0  0
  151.3904  141.0482  156.9350 C   0  0  0  0  0  0  0  0  0  0  0  0
  148.3599  136.3076  155.3082 C   0  0  0  0  0  0  0  0  0  0  0  0
  147.1961  135.3615  154.9663 C   0  0  0  0  0  0  0  0  0  0  0  0
  148.9290  131.2937  158.7134 H   0  0  0  0  0  0  0  0  0  0  0  0
  147.6325  132.4204  159.0845 H   0  0  0  0  0  0  0  0  0  0  0  0
  149.2589  133.0232  158.7646 H   0  0  0  0  0  0  0  0  0  0  0  0
  149.1072  132.1626  156.4049 H   0  0  0  0  0  0  0  0  0  0  0  0
  147.4674  131.6263  156.6765 H   0  0  0  0  0  0  0  0  0  0  0  0
  146.7780  133.2467  154.8256 H   0  0  0  0  0  0  0  0  0  0  0  0
  149.1860  132.5347  154.7184 H   0  0  0  0  0  0  0  0  0  0  0  0
  148.7006  133.5740  153.4030 H   0  0  0  0  0  0  0  0  0  0  0  0
  150.2801  134.4450  155.8787 H   0  0  0  0  0  0  0  0  0  0  0  0
  150.8843  134.2955  154.2406 H   0  0  0  0  0  0  0  0  0  0  0  0
  151.2450  136.6590  155.6492 H   0  0  0  0  0  0  0  0  0  0  0  0
  151.4203  136.8050  153.9206 H   0  0  0  0  0  0  0  0  0  0  0  0
  149.4321  138.4904  155.5185 H   0  0  0  0  0  0  0  0  0  0  0  0
  149.3764  137.9091  153.0891 H   0  0  0  0  0  0  0  0  0  0  0  0
  152.0316  138.8895  155.8429 H   0  0  0  0  0  0  0  0  0  0  0  0
  151.9704  139.5725  154.2398 H   0  0  0  0  0  0  0  0  0  0  0  0
  149.3868  141.3877  154.3246 H   0  0  0  0  0  0  0  0  0  0  0  0
  150.4718  143.9338  158.5494 H   0  0  0  0  0  0  0  0  0  0  0  0
  152.0454  142.6944  161.3943 H   0  0  0  0  0  0  0  0  0  0  0  0
  151.6736  144.2009  160.5590 H   0  0  0  0  0  0  0  0  0  0  0  0
  153.3180  143.5698  160.5294 H   0  0  0  0  0  0  0  0  0  0  0  0
  154.0803  139.7890  159.6013 H   0  0  0  0  0  0  0  0  0  0  0  0
  153.2237  140.5685  160.9277 H   0  0  0  0  0  0  0  0  0  0  0  0
  154.4904  141.4419  160.0525 H   0  0  0  0  0  0  0  0  0  0  0  0
  152.8606  139.6044  157.6062 H   0  0  0  0  0  0  0  0  0  0  0  0
  148.5674  136.2758  156.3790 H   0  0  0  0  0  0  0  0  0  0  0  0
  148.0594  137.3292  155.0794 H   0  0  0  0  0  0  0  0  0  0  0  0
  146.9227  135.4924  153.9187 H   0  0  0  0  0  0  0  0  0  0  0  0
  146.3142  135.6320  155.5474 H   0  0  0  0  0  0  0  0  0  0  0  0
  149.3501  135.9753  153.5703 H   0  0  0  0  0  0  0  0  0  0  0  0
  149.2241  143.2838  156.0468 H   0  0  0  0  0  0  0  0  0  0  0  0
  1  2  1  0  0  0  0
  1 25  1  0  0  0  0
  1 26  1  0  0  0  0
  1 27  1  0  0  0  0
  2  3  1  0  0  0  0
  2 28  1  0  0  0  0
  2 29  1  0  0  0  0
  3  4  1  0  0  0  0
  4 24  1  0  0  0  0
  4  5  1  0  0  0  0
  4 30  1  0  0  0  0
  5  6  1  0  0  0  0
  5 31  1  0  0  0  0
  5 32  1  0  0  0  0
  6  7  1  0  0  0  0
  6 33  1  0  0  0  0
  6 34  1  0  0  0  0
  7  8  1  0  0  0  0
  7 23  1  0  0  0  0
  7 54  1  0  0  0  0
  8  9  1  0  0  0  0
  8 35  1  0  0  0  0
  8 36  1  0  0  0  0
  9 10  1  0  0  0  0
  9 11  1  0  0  0  0
  9 37  1  0  0  0  0
 10 38  1  0  0  0  0
 11 12  1  0  0  0  0
 11 39  1  0  0  0  0
 11 40  1  0  0  0  0
 12 22  1  0  0  0  0
 12 13  1  0  0  0  0
 13 14  2  0  0  0  0
 13 41  1  0  0  0  0
 14 15  1  0  0  0  0
 14 55  1  0  0  0  0
 15 22  2  0  0  0  0
 15 16  1  0  0  0  0
 16 17  2  0  0  0  0
 16 42  1  0  0  0  0
 17 18  1  0  0  0  0
 17 19  1  0  0  0  0
 18 43  1  0  0  0  0
 18 44  1  0  0  0  0
 18 45  1  0  0  0  0
 19 20  1  0  0  0  0
 19 21  2  0  0  0  0
 20 46  1  0  0  0  0
 20 47  1  0  0  0  0
 20 48  1  0  0  0  0
 21 22  1  0  0  0  0
 21 49  1  0  0  0  0
 23 24  1  0  0  0  0
 23 50  1  0  0  0  0
 23 51  1  0  0  0  0
 24 52  1  0  0  0  0
 24 53  1  0  0  0  0
M  CHG  1   7   1
M  CHG  1  14   1
M  END
> <s_m_source_file>
AV-unprocessed.smi

> <i_m_source_file_index>
1697

> <i_lp_mmshare_version>
43012

> <i_f3d_flags>
0

> <s_epik_input>
W0NIM11bQ0gyXU9bQ0hdMVtDSDJdW0NIMl1OKFtDSDJdW0NIMl0xKVtDSDJdW0NASF0oW09IXSlbQ0gyXW4oW2NIXW4yKWMoYzIzKVtjSF1jKFtDSDNdKWMoW2NIXTMpW0NIM10=

> <s_epik_cmdline>
J2VwaWtfcHl0aG9uJywgJy1waCcsICc3LjAnLCAnLXRuJywgJzgnLCAnLW1hJywgJzIwMCcsICctbWV0YWxfYmluZGluZycsICctaW1hZScsICc8aW5maWxlLm1hZT4nLCAnLW9tYWUnLCAnPG91dGZpbGUubWFlPic=

> <r_epik_Ionization_Penalty>
1.20016

> <r_epik_Ionization_Penalty_Charging>
1.20016

> <r_epik_Ionization_Penalty_Neutral>
1.70998e-06

> <r_epik_State_Penalty>
1.27959

> <r_epik_Charging_Adjusted_Penalty>
2.47975

> <i_epik_Tot_Q>
2

> <i_epik_Tot_abs_Q>
2

> <r_epik_Metal_State_Penalty>
5.29682

> <b_epik_Metal_Only>
0

> <s_lp_Force_Field>
OPLS_2005

> <r_lp_Energy>
33.4822

> <b_lp_Chiralities_Consistent>
1

> <s_lp_Variant>
AV-unprocessed.smi:1697-7

> <Gold.Version>
5.8.1

> <Gold.Id.Protein>
6NUR|6NUR_protein|mol2

> <Gold.PLP.Fitness>
56.6434

> <Gold.PLP.PLP>
-42.5703

> <Gold.PLP.part.hbond>
-4.0000

> <Gold.PLP.part.metal>
0.0000

> <Gold.PLP.part.buried>
-3.5100

> <Gold.PLP.part.nonpolar>
-34.4322

> <Gold.PLP.part.repulsive>
0.1457

> <Gold.PLP.ligand.clash>
0.0000

> <Gold.PLP.ligand.torsion>
0.4759

> <Gold.PLP.Chemscore.Hbond>
4.9750

> <Gold.PLP.Chemscore.CHOScore>
0.0000

> <Gold.PLP.Chemscore.Metal>
0.0000

> <Gold.Chemscore.Hbonds>
donor molecule, donor type, donor heavy atom, donor atom, acceptor molecule, acceptor atom, score
      L1  H     7    54       P1  7948  2.00
      L1  H    10    38       P1  7948  0.86
      L1  H    14    55       P1  8028  1.98

> <Gold.PLP.Chemscore.Internal.Correction>
0.1000

> <Gold.Rescore>
     Score         DG    S(hbond)    S(metal)    S(lipo)     H(rot)  DE(clash)    DE(int)     intcor
     21.32     -21.89       2.81        0.00     111.38       2.35       0.24       0.34       ----

> <Gold.Chemscore.Fitness>
21.3186

> <Gold.Chemscore.DG>
-21.8920

> <Gold.Chemscore.ZeroCoef>
-5.4800

> <Gold.Chemscore.Hbond>
2.8107

> <Gold.Chemscore.Metal>
0.0000

> <Gold.Chemscore.Lipo>
111.3844

> <Gold.Chemscore.Internal_Hbond>
0.0000

> <Gold.Chemscore.DEClash>
0.2366

> <Gold.Chemscore.DEInternal>
0.3368

> <Gold.Chemscore.Rot>
2.3468

> <Gold.Chemscore.Internal.Correction>
   9.000000E+99

> <Gold.Chemscore.Hbonds>
donor molecule, donor type, donor heavy atom, donor atom, acceptor molecule, acceptor atom, score
      L1  H     7    54       P1  7948  0.65
      L1  H    10    38       P1  7948  0.79
      L1  H    14    55       P1  8028  0.90

> <Gold.Chemscore.Hbond.Weighted>
-9.3878

> <Gold.Chemscore.Metal.Weighted>
-0.0000

> <Gold.Chemscore.Lipo.Weighted>
-13.0320

> <Gold.Chemscore.Internal_Hbond.Weighted>
0.0000

> <Gold.Chemscore.DEClash.Weighted>
0.2366

> <Gold.Chemscore.DEInternal.Weighted>
0.3368

> <Gold.Chemscore.Rot.Weighted>
6.0077

> <Gold.Chemscore.Internal.Correction.Weighted>
   9.000000E+99

> <Gold.Protein.RotatedTorsions>
[ 6907 6896 6895 6894 ] final  111.09 input  -60.11 | X-H torsion
[ 7974 7965 7964 7962 ] final  143.05 input  175.53 | X-H torsion
[ 8008 7997 7996 7995 ] final  -97.35 input   59.86 | X-H torsion
[ 10167 10162 10161 10158 ] final  -98.41 input  -65.29 | X-H torsion
[ 10718 10713 10712 10709 ] final  171.63 input   66.30 | X-H torsion
[ 10763 10752 10751 10750 ] final  -27.12 input  -60.55 | X-H torsion
[ 11005 11000 10999 10996 ] final   86.08 input  -57.11 | X-H torsion

> <Gold.Protein.ActiveResidues>
 VAL166  LYS551  ARG553  GLY616  TRP617  ASP618  TYR619  PRO620  LYS621  CYS622 
 ASP623  PHE694  ASN695  SER759  ASP760  ASP761  ALA762  ILE779  LEU786  VAL792 
 PHE793  MET794  SER795  GLU796  ALA797  LYS798  CYS799  TRP800  GLU811  SER814 

> <Gold.Protein.RotatedAtoms>
  152.4987  133.8707  159.7296 H   0  0  0  0  0  0  0  0  0  0  0  0  # atno 6907 bound_to 6896
  150.9194  133.6890  159.2842 H   0  0  0  0  0  0  0  0  0  0  0  0  # atno 6908 bound_to 6896
  151.4272  135.1009  159.9684 H   0  0  0  0  0  0  0  0  0  0  0  0  # atno 6909 bound_to 6896
  144.8955  139.5497  143.5778 H   0  0  0  0  0  0  0  0  0  0  0  0  # atno 7974 bound_to 7965
  154.7866  140.0464  157.1168 H   0  0  0  0  0  0  0  0  0  0  0  0  # atno 8008 bound_to 7997
  154.9641  140.3081  155.4998 H   0  0  0  0  0  0  0  0  0  0  0  0  # atno 8009 bound_to 7997
  156.2944  140.2265  156.4728 H   0  0  0  0  0  0  0  0  0  0  0  0  # atno 8010 bound_to 7997
  140.2732  143.3330  152.0514 H   0  0  0  0  0  0  0  0  0  0  0  0  # atno 10167 bound_to 10162
  156.9907  131.0147  151.2857 H   0  0  0  0  0  0  0  0  0  0  0  0  # atno 10718 bound_to 10713
  153.7269  135.6941  153.4999 H   0  0  0  0  0  0  0  0  0  0  0  0  # atno 10763 bound_to 10752
  153.2164  135.4385  155.0437 H   0  0  0  0  0  0  0  0  0  0  0  0  # atno 10764 bound_to 10752
  154.8266  135.3449  154.6800 H   0  0  0  0  0  0  0  0  0  0  0  0  # atno 10765 bound_to 10752
  139.8954  134.8331  156.2671 H   0  0  0  0  0  0  0  0  0  0  0  0  # atno 11005 bound_to 11000
  146.3078  139.7641  142.9042 LP  0  0  0  0  0  0  0  0  0  0  0  0  # atno 17320 bound_to 7965
  145.3708  141.0342  143.3232 LP  0  0  0  0  0  0  0  0  0  0  0  0  # atno 17321 bound_to 7965
  139.4983  144.6642  151.6394 LP  0  0  0  0  0  0  0  0  0  0  0  0  # atno 17342 bound_to 10162
  140.5873  143.9842  150.6303 LP  0  0  0  0  0  0  0  0  0  0  0  0  # atno 17343 bound_to 10162
  157.5461  130.8151  149.8087 LP  0  0  0  0  0  0  0  0  0  0  0  0  # atno 17370 bound_to 10713
  156.0208  130.3796  150.1967 LP  0  0  0  0  0  0  0  0  0  0  0  0  # atno 17371 bound_to 10713
  141.0125  133.7087  156.1134 LP  0  0  0  0  0  0  0  0  0  0  0  0  # atno 17394 bound_to 11000
  140.7348  134.4215  157.5562 LP  0  0  0  0  0  0  0  0  0  0  0  0  # atno 17395 bound_to 11000

$$$$
