AV-unprocessed.smi:966|AV-procd|sdf|4284|dock8
  -GOLD-   22720 2193D 1   1.00000     0.00000
 Structure written by MMmdl.
 30 31  0  0  0  0  0  0  0  0  2 V2000
  151.4340  144.0530  160.6096 C   0  0  0  0  0  0  0  0  0  0  0  0
  152.4156  142.9045  160.7578 C   0  0  0  0  0  0  0  0  0  0  0  0
  153.1565  142.7579  161.9903 C   0  0  0  0  0  0  0  0  0  0  0  0
  154.0384  141.7020  162.1154 C   0  0  0  0  0  0  0  0  0  0  0  0
  154.7829  141.4005  163.0778 O   0  5  0  0  0  0  0  0  0  0  0  0
  154.2149  140.7621  161.0450 N   0  0  0  0  0  0  0  0  0  0  0  0
  155.1490  139.6044  161.1664 C   0  0  0  0  0  0  0  0  0  0  0  0
  154.7889  138.6949  162.3584 C   0  0  1  0  0  0  0  0  0  0  0  0
  153.7230  137.6511  162.0278 C   0  0  0  0  0  0  0  0  0  0  0  0
  154.0126  136.5810  163.0548 C   0  0  0  0  0  0  0  0  0  0  0  0
  155.5369  136.5984  163.0906 C   0  0  0  0  0  0  0  0  0  0  0  0
  155.9180  137.9389  162.7939 O   0  0  0  0  0  0  0  0  0  0  0  0
  153.5472  140.8992  159.8552 C   0  0  0  0  0  0  0  0  0  0  0  0
  153.7171  140.1214  158.9127 O   0  0  0  0  0  0  0  0  0  0  0  0
  152.6113  142.0231  159.7555 C   0  0  0  0  0  0  0  0  0  0  0  0
  151.9072  142.1319  158.5168 C   0  0  0  0  0  0  0  0  0  0  0  0
  151.3160  142.2164  157.5244 N   0  0  0  0  0  0  0  0  0  0  0  0
  151.3939  144.6572  161.5164 H   0  0  0  0  0  0  0  0  0  0  0  0
  150.4306  143.6749  160.4117 H   0  0  0  0  0  0  0  0  0  0  0  0
  151.7290  144.7023  159.7847 H   0  0  0  0  0  0  0  0  0  0  0  0
  153.0303  143.4670  162.7956 H   0  0  0  0  0  0  0  0  0  0  0  0
  155.1718  139.0179  160.2469 H   0  0  0  0  0  0  0  0  0  0  0  0
  156.1884  139.9224  161.2606 H   0  0  0  0  0  0  0  0  0  0  0  0
  154.4440  139.2898  163.2054 H   0  0  0  0  0  0  0  0  0  0  0  0
  152.7087  138.0457  162.0928 H   0  0  0  0  0  0  0  0  0  0  0  0
  153.8725  137.2520  161.0234 H   0  0  0  0  0  0  0  0  0  0  0  0
  153.6090  136.8731  164.0252 H   0  0  0  0  0  0  0  0  0  0  0  0
  153.6014  135.6064  162.7906 H   0  0  0  0  0  0  0  0  0  0  0  0
  155.9348  136.2725  164.0518 H   0  0  0  0  0  0  0  0  0  0  0  0
  155.9432  135.9459  162.3171 H   0  0  0  0  0  0  0  0  0  0  0  0
  1  2  1  0  0  0  0
  1 18  1  0  0  0  0
  1 19  1  0  0  0  0
  1 20  1  0  0  0  0
  2 15  2  0  0  0  0
  2  3  1  0  0  0  0
  3  4  2  0  0  0  0
  3 21  1  0  0  0  0
  4  5  1  0  0  0  0
  4  6  1  0  0  0  0
  6  7  1  0  0  0  0
  6 13  1  0  0  0  0
  7  8  1  0  0  0  0
  7 22  1  0  0  0  0
  7 23  1  0  0  0  0
  8 12  1  0  0  0  0
  8  9  1  0  0  0  0
  8 24  1  0  0  0  0
  9 10  1  0  0  0  0
  9 25  1  0  0  0  0
  9 26  1  0  0  0  0
 10 11  1  0  0  0  0
 10 27  1  0  0  0  0
 10 28  1  0  0  0  0
 11 12  1  0  0  0  0
 11 29  1  0  0  0  0
 11 30  1  0  0  0  0
 13 14  2  0  0  0  0
 13 15  1  0  0  0  0
 15 16  1  0  0  0  0
 16 17  3  0  0  0  0
M  CHG  1   5  -1
M  END
> <s_m_source_file>
AV-unprocessed.smi

> <i_m_source_file_index>
966

> <i_lp_mmshare_version>
43012

> <i_f3d_flags>
0

> <s_epik_input>
W0NIM11jMVtjSF1jKFtPSF0pbihjKD1PKWMxQyNOKVtDSDJdW0NAQEhdMltDSDJdW0NIMl1bQ0gyXU8y

> <s_epik_cmdline>
J2VwaWtfcHl0aG9uJywgJy1waCcsICc3LjAnLCAnLXRuJywgJzgnLCAnLW1hJywgJzIwMCcsICctbWV0YWxfYmluZGluZycsICctaW1hZScsICc8aW5maWxlLm1hZT4nLCAnLW9tYWUnLCAnPG91dGZpbGUubWFlPic=

> <r_lp_tautomer_probability>
1

> <r_epik_Ionization_Penalty>
3.48555e-06

> <r_epik_Ionization_Penalty_Charging>
3.48554e-06

> <r_epik_Ionization_Penalty_Neutral>
1.71861e-11

> <r_epik_State_Penalty>
-0

> <r_epik_Charging_Adjusted_Penalty>
3.48554e-06

> <i_epik_Tot_Q>
-1

> <i_epik_Tot_abs_Q>
1

> <r_epik_Metal_State_Penalty>
-0

> <b_epik_Metal_Only>
0

> <s_lp_Force_Field>
OPLS_2005

> <r_lp_Energy>
36.155

> <b_lp_Chiralities_Consistent>
1

> <s_lp_Variant>
AV-unprocessed.smi:966-2

> <Gold.Version>
5.8.1

> <Gold.Id.Protein>
6NUR|6NUR_protein|mol2

> <Gold.PLP.Fitness>
38.7689

> <Gold.PLP.PLP>
-36.3693

> <Gold.PLP.part.hbond>
-2.0000

> <Gold.PLP.part.metal>
0.0000

> <Gold.PLP.part.buried>
-2.9845

> <Gold.PLP.part.nonpolar>
-30.7758

> <Gold.PLP.part.repulsive>
0.0550

> <Gold.PLP.ligand.clash>
0.0000

> <Gold.PLP.ligand.torsion>
0.2652

> <Gold.PLP.Chemscore.Hbond>
0.9760

> <Gold.PLP.Chemscore.CHOScore>
0.0000

> <Gold.PLP.Chemscore.Metal>
0.0000

> <Gold.Chemscore.Hbonds>
donor molecule, donor type, donor heavy atom, donor atom, acceptor molecule, acceptor atom, score
      P1  H  7997  8009       L1    14  0.98

> <Gold.PLP.Chemscore.Internal.Correction>
0.0019

> <Gold.Rescore>
     Score         DG    S(hbond)    S(metal)    S(lipo)     H(rot)  DE(clash)    DE(int)     intcor
     11.96     -14.17       0.99        0.00      73.44       1.25       0.95       1.26       ----

> <Gold.Chemscore.Fitness>
11.9635

> <Gold.Chemscore.DG>
-14.1738

> <Gold.Chemscore.ZeroCoef>
-5.4800

> <Gold.Chemscore.Hbond>
0.9895

> <Gold.Chemscore.Metal>
0.0000

> <Gold.Chemscore.Lipo>
73.4382

> <Gold.Chemscore.Internal_Hbond>
0.0000

> <Gold.Chemscore.DEClash>
0.9472

> <Gold.Chemscore.DEInternal>
1.2630

> <Gold.Chemscore.Rot>
1.2514

> <Gold.Chemscore.Internal.Correction>
   9.000000E+99

> <Gold.Chemscore.Hbonds>
donor molecule, donor type, donor heavy atom, donor atom, acceptor molecule, acceptor atom, score
      P1  H  7997  8009       L1    14  0.87

> <Gold.Chemscore.Hbond.Weighted>
-3.3051

> <Gold.Chemscore.Metal.Weighted>
-0.0000

> <Gold.Chemscore.Lipo.Weighted>
-8.5923

> <Gold.Chemscore.Internal_Hbond.Weighted>
0.0000

> <Gold.Chemscore.DEClash.Weighted>
0.9472

> <Gold.Chemscore.DEInternal.Weighted>
1.2630

> <Gold.Chemscore.Rot.Weighted>
3.2036

> <Gold.Chemscore.Internal.Correction.Weighted>
   9.000000E+99

> <Gold.Protein.RotatedTorsions>
[ 6907 6896 6895 6894 ] final  -76.86 input  -60.11 | X-H torsion
[ 7974 7965 7964 7962 ] final   13.74 input  175.53 | X-H torsion
[ 8008 7997 7996 7995 ] final  134.03 input   59.86 | X-H torsion
[ 10167 10162 10161 10158 ] final   88.76 input  -65.29 | X-H torsion
[ 10718 10713 10712 10709 ] final  -42.22 input   66.30 | X-H torsion
[ 10763 10752 10751 10750 ] final -120.43 input  -60.55 | X-H torsion
[ 11005 11000 10999 10996 ] final  -66.54 input  -57.11 | X-H torsion

> <Gold.Protein.ActiveResidues>
 VAL166  LYS551  ARG553  GLY616  TRP617  ASP618  TYR619  PRO620  LYS621  CYS622 
 ASP623  PHE694  ASN695  SER759  ASP760  ASP761  ALA762  ILE779  LEU786  VAL792 
 PHE793  MET794  SER795  GLU796  ALA797  LYS798  CYS799  TRP800  GLU811  SER814 

> <Gold.Protein.RotatedAtoms>
  150.7015  134.4509  159.5335 H   0  0  0  0  0  0  0  0  0  0  0  0  # atno 6907 bound_to 6896
  152.2201  134.8418  160.0496 H   0  0  0  0  0  0  0  0  0  0  0  0  # atno 6908 bound_to 6896
  151.9271  133.3566  159.3954 H   0  0  0  0  0  0  0  0  0  0  0  0  # atno 6909 bound_to 6896
  146.2322  139.9144  142.8519 H   0  0  0  0  0  0  0  0  0  0  0  0  # atno 7974 bound_to 7965
  156.2996  140.2506  156.3350 H   0  0  0  0  0  0  0  0  0  0  0  0  # atno 8008 bound_to 7997
  154.9109  140.0403  157.1965 H   0  0  0  0  0  0  0  0  0  0  0  0  # atno 8009 bound_to 7997
  154.8406  140.2890  155.5666 H   0  0  0  0  0  0  0  0  0  0  0  0  # atno 8010 bound_to 7997
  139.8640  144.6529  150.9026 H   0  0  0  0  0  0  0  0  0  0  0  0  # atno 10167 bound_to 10162
  156.2619  130.4198  149.8533 H   0  0  0  0  0  0  0  0  0  0  0  0  # atno 10718 bound_to 10713
  154.8644  135.4203  154.2458 H   0  0  0  0  0  0  0  0  0  0  0  0  # atno 10763 bound_to 10752
  153.3414  135.6994  153.6869 H   0  0  0  0  0  0  0  0  0  0  0  0  # atno 10764 bound_to 10752
  153.5846  135.3566  155.2861 H   0  0  0  0  0  0  0  0  0  0  0  0  # atno 10765 bound_to 10752
  141.1485  133.6701  156.6156 H   0  0  0  0  0  0  0  0  0  0  0  0  # atno 11005 bound_to 11000
  145.2198  140.9930  143.4052 LP  0  0  0  0  0  0  0  0  0  0  0  0  # atno 17320 bound_to 7965
  144.9620  139.3970  143.6351 LP  0  0  0  0  0  0  0  0  0  0  0  0  # atno 17321 bound_to 7965
  140.7771  143.3720  151.1632 LP  0  0  0  0  0  0  0  0  0  0  0  0  # atno 17342 bound_to 10162
  139.7347  143.9018  152.3031 LP  0  0  0  0  0  0  0  0  0  0  0  0  # atno 17343 bound_to 10162
  156.6045  130.8560  151.3440 LP  0  0  0  0  0  0  0  0  0  0  0  0  # atno 17370 bound_to 10713
  157.7253  130.9615  150.1611 LP  0  0  0  0  0  0  0  0  0  0  0  0  # atno 17371 bound_to 10713
  140.3581  134.7711  157.4514 LP  0  0  0  0  0  0  0  0  0  0  0  0  # atno 17394 bound_to 11000
  140.0807  134.5735  155.8543 LP  0  0  0  0  0  0  0  0  0  0  0  0  # atno 17395 bound_to 11000

$$$$
