AV-unprocessed.smi:740|AV-procd|sdf|3551|dock4
  -GOLD-   22720 0543D 1   1.00000     0.00000
 Structure written by MMmdl.
 45 47  0  0  0  0  0  0  0  0  2 V2000
  152.3012  143.7945  160.2608 C   0  0  0  0  0  0  0  0  0  0  0  0
  152.0180  142.8178  159.1321 C   0  0  0  0  0  0  0  0  0  0  0  0
  151.0851  143.1886  158.1379 C   0  0  0  0  0  0  0  0  0  0  0  0
  150.8487  142.2753  157.1177 C   0  0  0  0  0  0  0  0  0  0  0  0
  150.0040  142.3448  156.0082 N   0  3  0  0  0  0  0  0  0  0  0  0
  150.1139  141.1988  155.2813 C   0  0  0  0  0  0  0  0  0  0  0  0
  151.0141  140.3967  155.9118 N   0  0  0  0  0  0  0  0  0  0  0  0
  151.4891  139.0560  155.5411 C   0  0  0  0  0  0  0  0  0  0  0  0
  150.3582  138.1439  155.0269 C   0  0  1  0  0  0  0  0  0  0  0  0
  150.7252  137.6310  153.7611 O   0  0  0  0  0  0  0  0  0  0  0  0
  150.1000  136.9643  155.9874 C   0  0  0  0  0  0  0  0  0  0  0  0
  149.2230  135.9493  155.3925 N   0  0  0  0  0  0  0  0  0  0  0  0
  147.9892  136.1990  154.9332 C   0  0  0  0  0  0  0  0  0  0  0  0
  147.4143  137.2870  154.9452 O   0  0  0  0  0  0  0  0  0  0  0  0
  147.3530  134.9386  154.3642 C   0  0  0  0  0  0  0  0  0  0  0  0
  148.4446  133.8746  154.5542 C   0  0  1  0  0  0  0  0  0  0  0  0
  148.9012  133.2150  153.2425 C   0  0  0  0  0  0  0  0  0  0  0  0
  149.5720  134.6674  155.2129 C   0  0  0  0  0  0  0  0  0  0  0  0
  150.6505  134.1597  155.5207 O   0  0  0  0  0  0  0  0  0  0  0  0
  151.5004  141.0276  157.0634 C   0  0  0  0  0  0  0  0  0  0  0  0
  152.4220  140.6466  158.0363 C   0  0  0  0  0  0  0  0  0  0  0  0
  152.6793  141.5634  159.0808 C   0  0  0  0  0  0  0  0  0  0  0  0
  153.6840  141.1762  160.1527 C   0  0  0  0  0  0  0  0  0  0  0  0
  151.6824  144.6886  160.1791 H   0  0  0  0  0  0  0  0  0  0  0  0
  153.3451  144.1084  160.2407 H   0  0  0  0  0  0  0  0  0  0  0  0
  152.0954  143.3353  161.2279 H   0  0  0  0  0  0  0  0  0  0  0  0
  150.5792  144.1425  158.1688 H   0  0  0  0  0  0  0  0  0  0  0  0
  149.5828  140.9675  154.3693 H   0  0  0  0  0  0  0  0  0  0  0  0
  152.2970  139.1424  154.8141 H   0  0  0  0  0  0  0  0  0  0  0  0
  151.9323  138.6222  156.4384 H   0  0  0  0  0  0  0  0  0  0  0  0
  149.4524  138.7408  154.9112 H   0  0  0  0  0  0  0  0  0  0  0  0
  149.9504  137.2965  153.3358 H   0  0  0  0  0  0  0  0  0  0  0  0
  151.0422  136.5284  156.3252 H   0  0  0  0  0  0  0  0  0  0  0  0
  149.6176  137.3331  156.8944 H   0  0  0  0  0  0  0  0  0  0  0  0
  146.4445  134.6893  154.9136 H   0  0  0  0  0  0  0  0  0  0  0  0
  147.0940  135.0899  153.3155 H   0  0  0  0  0  0  0  0  0  0  0  0
  148.1002  133.1095  155.2514 H   0  0  0  0  0  0  0  0  0  0  0  0
  149.6487  132.4432  153.4290 H   0  0  0  0  0  0  0  0  0  0  0  0
  149.3368  133.9428  152.5565 H   0  0  0  0  0  0  0  0  0  0  0  0
  148.0616  132.7414  152.7332 H   0  0  0  0  0  0  0  0  0  0  0  0
  152.9284  139.6939  157.9974 H   0  0  0  0  0  0  0  0  0  0  0  0
  154.1416  140.2094  159.9411 H   0  0  0  0  0  0  0  0  0  0  0  0
  153.1969  141.1091  161.1258 H   0  0  0  0  0  0  0  0  0  0  0  0
  154.4838  141.9145  160.2151 H   0  0  0  0  0  0  0  0  0  0  0  0
  149.3967  143.1162  155.7624 H   0  0  0  0  0  0  0  0  0  0  0  0
  1  2  1  0  0  0  0
  1 24  1  0  0  0  0
  1 25  1  0  0  0  0
  1 26  1  0  0  0  0
  2 22  1  0  0  0  0
  2  3  2  0  0  0  0
  3  4  1  0  0  0  0
  3 27  1  0  0  0  0
  4 20  2  0  0  0  0
  4  5  1  0  0  0  0
  5  6  2  0  0  0  0
  5 45  1  0  0  0  0
  6  7  1  0  0  0  0
  6 28  1  0  0  0  0
  7  8  1  0  0  0  0
  7 20  1  0  0  0  0
  8  9  1  0  0  0  0
  8 29  1  0  0  0  0
  8 30  1  0  0  0  0
  9 10  1  0  0  0  0
  9 11  1  0  0  0  0
  9 31  1  0  0  0  0
 10 32  1  0  0  0  0
 11 12  1  0  0  0  0
 11 33  1  0  0  0  0
 11 34  1  0  0  0  0
 12 18  1  0  0  0  0
 12 13  1  0  0  0  0
 13 14  2  0  0  0  0
 13 15  1  0  0  0  0
 15 16  1  0  0  0  0
 15 35  1  0  0  0  0
 15 36  1  0  0  0  0
 16 17  1  0  0  0  0
 16 18  1  0  0  0  0
 16 37  1  0  0  0  0
 17 38  1  0  0  0  0
 17 39  1  0  0  0  0
 17 40  1  0  0  0  0
 18 19  2  0  0  0  0
 20 21  1  0  0  0  0
 21 22  2  0  0  0  0
 21 41  1  0  0  0  0
 22 23  1  0  0  0  0
 23 42  1  0  0  0  0
 23 43  1  0  0  0  0
 23 44  1  0  0  0  0
M  CHG  1   5   1
M  END
> <s_m_source_file>
AV-unprocessed.smi

> <i_m_source_file_index>
740

> <i_lp_mmshare_version>
43012

> <i_f3d_flags>
0

> <s_epik_input>
W0NIM11jKFtjSF0xKWMoW0NIM10pW2NIXWMoYzEyKW4oW2NIXW4yKVtDSDJdW0NASF0oW09IXSlbQ0gyXU4zQyg9TylbQ0gyXVtDQEBIXShbQ0gzXSlDMz1P

> <s_epik_cmdline>
J2VwaWtfcHl0aG9uJywgJy1waCcsICc3LjAnLCAnLXRuJywgJzgnLCAnLW1hJywgJzIwMCcsICctbWV0YWxfYmluZGluZycsICctaW1hZScsICc8aW5maWxlLm1hZT4nLCAnLW9tYWUnLCAnPG91dGZpbGUubWFlPic=

> <r_lp_tautomer_probability>
1

> <r_epik_Ionization_Penalty>
1.08202

> <r_epik_Ionization_Penalty_Charging>
1.08202

> <r_epik_Ionization_Penalty_Neutral>
1.16605e-06

> <r_epik_State_Penalty>
1.13754

> <r_epik_Charging_Adjusted_Penalty>
2.21956

> <i_epik_Tot_Q>
1

> <i_epik_Tot_abs_Q>
1

> <r_epik_Metal_State_Penalty>
5.13645

> <b_epik_Metal_Only>
0

> <s_lp_Force_Field>
OPLS_2005

> <r_lp_Energy>
22.2654

> <b_lp_Chiralities_Consistent>
1

> <s_lp_Variant>
AV-unprocessed.smi:740-6

> <Gold.Version>
5.8.1

> <Gold.Id.Protein>
6NUR|6NUR_protein|mol2

> <Gold.PLP.Fitness>
49.5475

> <Gold.PLP.PLP>
-42.6663

> <Gold.PLP.part.hbond>
-3.0000

> <Gold.PLP.part.metal>
0.0000

> <Gold.PLP.part.buried>
-3.7075

> <Gold.PLP.part.nonpolar>
-35.4191

> <Gold.PLP.part.repulsive>
0.2447

> <Gold.PLP.ligand.clash>
0.0000

> <Gold.PLP.ligand.torsion>
1.0607

> <Gold.PLP.Chemscore.Hbond>
2.9913

> <Gold.PLP.Chemscore.CHOScore>
0.0000

> <Gold.PLP.Chemscore.Metal>
0.0000

> <Gold.Chemscore.Hbonds>
donor molecule, donor type, donor heavy atom, donor atom, acceptor molecule, acceptor atom, score
      L1  H     5    45       P1  8028  2.00
      L1  H    10    32       P1  7948  1.00

> <Gold.PLP.Chemscore.Internal.Correction>
0.0288

> <Gold.Rescore>
     Score         DG    S(hbond)    S(metal)    S(lipo)     H(rot)  DE(clash)    DE(int)     intcor
     15.42     -16.70       1.61        0.00     101.89       2.37       0.13       1.15       ----

> <Gold.Chemscore.Fitness>
15.4168

> <Gold.Chemscore.DG>
-16.6971

> <Gold.Chemscore.ZeroCoef>
-5.4800

> <Gold.Chemscore.Hbond>
1.6076

> <Gold.Chemscore.Metal>
0.0000

> <Gold.Chemscore.Lipo>
101.8900

> <Gold.Chemscore.Internal_Hbond>
0.0000

> <Gold.Chemscore.DEClash>
0.1335

> <Gold.Chemscore.DEInternal>
1.1468

> <Gold.Chemscore.Rot>
2.3724

> <Gold.Chemscore.Internal.Correction>
   9.000000E+99

> <Gold.Chemscore.Hbonds>
donor molecule, donor type, donor heavy atom, donor atom, acceptor molecule, acceptor atom, score
      L1  H     5    45       P1  8028  0.99
      L1  H    10    32       P1  7948  0.31

> <Gold.Chemscore.Hbond.Weighted>
-5.3693

> <Gold.Chemscore.Metal.Weighted>
-0.0000

> <Gold.Chemscore.Lipo.Weighted>
-11.9211

> <Gold.Chemscore.Internal_Hbond.Weighted>
0.0000

> <Gold.Chemscore.DEClash.Weighted>
0.1335

> <Gold.Chemscore.DEInternal.Weighted>
1.1468

> <Gold.Chemscore.Rot.Weighted>
6.0734

> <Gold.Chemscore.Internal.Correction.Weighted>
   9.000000E+99

> <Gold.Protein.RotatedTorsions>
[ 6907 6896 6895 6894 ] final -130.16 input  -60.11 | X-H torsion
[ 7974 7965 7964 7962 ] final  -37.60 input  175.53 | X-H torsion
[ 8008 7997 7996 7995 ] final   51.71 input   59.86 | X-H torsion
[ 10167 10162 10161 10158 ] final -150.80 input  -65.29 | X-H torsion
[ 10718 10713 10712 10709 ] final  -30.07 input   66.30 | X-H torsion
[ 10763 10752 10751 10750 ] final  140.17 input  -60.55 | X-H torsion
[ 11005 11000 10999 10996 ] final  -43.17 input  -57.11 | X-H torsion

> <Gold.Protein.ActiveResidues>
 VAL166  LYS551  ARG553  GLY616  TRP617  ASP618  TYR619  PRO620  LYS621  CYS622 
 ASP623  PHE694  ASN695  SER759  ASP760  ASP761  ALA762  ILE779  LEU786  VAL792 
 PHE793  MET794  SER795  GLU796  ALA797  LYS798  CYS799  TRP800  GLU811  SER814 

> <Gold.Protein.RotatedAtoms>
  150.9367  133.6704  159.2799 H   0  0  0  0  0  0  0  0  0  0  0  0  # atno 6907 bound_to 6896
  151.4107  135.0983  159.9594 H   0  0  0  0  0  0  0  0  0  0  0  0  # atno 6908 bound_to 6896
  152.5051  133.8840  159.7415 H   0  0  0  0  0  0  0  0  0  0  0  0  # atno 6909 bound_to 6896
  146.0560  140.6415  142.9019 H   0  0  0  0  0  0  0  0  0  0  0  0  # atno 7974 bound_to 7965
  155.4398  140.3454  155.4288 H   0  0  0  0  0  0  0  0  0  0  0  0  # atno 8008 bound_to 7997
  156.1286  140.1507  156.9130 H   0  0  0  0  0  0  0  0  0  0  0  0  # atno 8009 bound_to 7997
  154.4877  140.0850  156.7504 H   0  0  0  0  0  0  0  0  0  0  0  0  # atno 8010 bound_to 7997
  139.7322  143.8790  152.2538 H   0  0  0  0  0  0  0  0  0  0  0  0  # atno 10167 bound_to 10162
  156.4044  130.4396  149.7298 H   0  0  0  0  0  0  0  0  0  0  0  0  # atno 10718 bound_to 10713
  153.9183  135.3003  155.3448 H   0  0  0  0  0  0  0  0  0  0  0  0  # atno 10763 bound_to 10752
  154.7588  135.4944  153.9429 H   0  0  0  0  0  0  0  0  0  0  0  0  # atno 10764 bound_to 10752
  153.1155  135.6770  153.9527 H   0  0  0  0  0  0  0  0  0  0  0  0  # atno 10765 bound_to 10752
  141.0366  133.6797  156.2696 H   0  0  0  0  0  0  0  0  0  0  0  0  # atno 11005 bound_to 11000
  144.7148  140.4171  143.7052 LP  0  0  0  0  0  0  0  0  0  0  0  0  # atno 17320 bound_to 7965
  145.6642  139.1587  143.2791 LP  0  0  0  0  0  0  0  0  0  0  0  0  # atno 17321 bound_to 7965
  139.8717  144.7065  150.8980 LP  0  0  0  0  0  0  0  0  0  0  0  0  # atno 17342 bound_to 10162
  140.7773  143.3733  151.1609 LP  0  0  0  0  0  0  0  0  0  0  0  0  # atno 17343 bound_to 10162
  156.4302  130.7811  151.2831 LP  0  0  0  0  0  0  0  0  0  0  0  0  # atno 17370 bound_to 10713
  157.7505  131.0156  150.3512 LP  0  0  0  0  0  0  0  0  0  0  0  0  # atno 17371 bound_to 10713
  140.6311  134.5263  157.5559 LP  0  0  0  0  0  0  0  0  0  0  0  0  # atno 17394 bound_to 11000
  139.9245  134.8083  156.1111 LP  0  0  0  0  0  0  0  0  0  0  0  0  # atno 17395 bound_to 11000

$$$$
