AV-unprocessed.smi:2363|AV-procd|sdf|9416|dock7
  -GOLD-   2272013 53D 1   1.00000     0.00000
 Structure written by MMmdl.
 44 45  0  0  0  0  0  0  0  0  1 V2000
  146.2677  130.9928  152.3194 C   0  0  0  0  0  0  0  0  0  0  0  0
  146.9756  132.2687  152.7977 C   0  0  0  0  0  0  0  0  0  0  0  0
  147.2657  133.2836  151.6775 C   0  0  0  0  0  0  0  0  0  0  0  0
  146.0553  133.8557  151.1094 N   0  0  0  0  0  0  0  0  0  0  0  0
  145.1530  133.0481  150.5096 N   0  0  0  0  0  0  0  0  0  0  0  0
  144.1808  133.8562  150.1073 C   0  0  0  0  0  0  0  0  0  0  0  0
  144.4188  135.2213  150.4343 C   0  0  0  0  0  0  0  0  0  0  0  0
  145.6262  135.1663  151.0759 C   0  0  0  0  0  0  0  0  0  0  0  0
  146.3501  136.1814  151.6181 N   0  0  0  0  0  0  0  0  0  0  0  0
  145.9197  137.2254  152.3467 C   0  0  0  0  0  0  0  0  0  0  0  0
  144.7477  137.4466  152.6512 O   0  0  0  0  0  0  0  0  0  0  0  0
  146.9432  138.0144  152.7074 N   0  0  0  0  0  0  0  0  0  0  0  0
  146.8471  139.2347  153.5098 C   0  0  1  0  0  0  0  0  0  0  0  0
  146.0743  138.8956  154.7959 C   0  0  0  0  0  0  0  0  0  0  0  0
  148.2567  139.8273  153.7783 C   0  0  0  0  0  0  0  0  0  0  0  0
  149.2236  138.7932  154.3907 C   0  0  0  0  0  0  0  0  0  0  0  0
  150.5858  139.4243  154.7214 C   0  0  0  0  0  0  0  0  0  0  0  0
  150.4120  140.5290  155.5996 O   0  0  0  0  0  0  0  0  0  0  0  0
  149.6345  141.5695  155.0215 C   0  0  0  0  0  0  0  0  0  0  0  0
  148.2190  141.0576  154.7109 C   0  0  0  0  0  0  0  0  0  0  0  0
  146.0366  130.3405  153.1616 H   0  0  0  0  0  0  0  0  0  0  0  0
  146.8892  130.4247  151.6269 H   0  0  0  0  0  0  0  0  0  0  0  0
  145.3308  131.2291  151.8147 H   0  0  0  0  0  0  0  0  0  0  0  0
  146.3628  132.7506  153.5600 H   0  0  0  0  0  0  0  0  0  0  0  0
  147.9098  131.9957  153.2901 H   0  0  0  0  0  0  0  0  0  0  0  0
  147.8953  134.0900  152.0546 H   0  0  0  0  0  0  0  0  0  0  0  0
  147.8307  132.8031  150.8774 H   0  0  0  0  0  0  0  0  0  0  0  0
  143.3339  133.4295  149.5905 H   0  0  0  0  0  0  0  0  0  0  0  0
  143.7963  136.0781  150.2250 H   0  0  0  0  0  0  0  0  0  0  0  0
  147.3463  136.1272  151.4654 H   0  0  0  0  0  0  0  0  0  0  0  0
  147.8692  137.7493  152.4056 H   0  0  0  0  0  0  0  0  0  0  0  0
  146.2634  139.9831  152.9710 H   0  0  0  0  0  0  0  0  0  0  0  0
  145.8404  139.7884  155.3748 H   0  0  0  0  0  0  0  0  0  0  0  0
  146.6425  138.2195  155.4356 H   0  0  0  0  0  0  0  0  0  0  0  0
  145.1241  138.4126  154.5643 H   0  0  0  0  0  0  0  0  0  0  0  0
  148.6744  140.1501  152.8232 H   0  0  0  0  0  0  0  0  0  0  0  0
  148.7898  138.3749  155.3000 H   0  0  0  0  0  0  0  0  0  0  0  0
  149.3821  137.9596  153.7074 H   0  0  0  0  0  0  0  0  0  0  0  0
  151.2298  138.6897  155.2052 H   0  0  0  0  0  0  0  0  0  0  0  0
  151.0977  139.7450  153.8126 H   0  0  0  0  0  0  0  0  0  0  0  0
  149.5852  142.4024  155.7232 H   0  0  0  0  0  0  0  0  0  0  0  0
  150.1196  141.9434  154.1185 H   0  0  0  0  0  0  0  0  0  0  0  0
  147.6441  141.8676  154.2618 H   0  0  0  0  0  0  0  0  0  0  0  0
  147.7149  140.7987  155.6430 H   0  0  0  0  0  0  0  0  0  0  0  0
  1  2  1  0  0  0  0
  1 21  1  0  0  0  0
  1 22  1  0  0  0  0
  1 23  1  0  0  0  0
  2  3  1  0  0  0  0
  2 24  1  0  0  0  0
  2 25  1  0  0  0  0
  3  4  1  0  0  0  0
  3 26  1  0  0  0  0
  3 27  1  0  0  0  0
  4  8  1  0  0  0  0
  4  5  1  0  0  0  0
  5  6  2  0  0  0  0
  6  7  1  0  0  0  0
  6 28  1  0  0  0  0
  7  8  2  0  0  0  0
  7 29  1  0  0  0  0
  8  9  1  0  0  0  0
  9 10  1  0  0  0  0
  9 30  1  0  0  0  0
 10 11  2  0  0  0  0
 10 12  1  0  0  0  0
 12 13  1  0  0  0  0
 12 31  1  0  0  0  0
 13 14  1  0  0  0  0
 13 15  1  0  0  0  0
 13 32  1  0  0  0  0
 14 33  1  0  0  0  0
 14 34  1  0  0  0  0
 14 35  1  0  0  0  0
 15 20  1  0  0  0  0
 15 16  1  0  0  0  0
 15 36  1  0  0  0  0
 16 17  1  0  0  0  0
 16 37  1  0  0  0  0
 16 38  1  0  0  0  0
 17 18  1  0  0  0  0
 17 39  1  0  0  0  0
 17 40  1  0  0  0  0
 18 19  1  0  0  0  0
 19 20  1  0  0  0  0
 19 41  1  0  0  0  0
 19 42  1  0  0  0  0
 20 43  1  0  0  0  0
 20 44  1  0  0  0  0
M  END
> <s_m_source_file>
AV-unprocessed.smi

> <i_m_source_file_index>
2363

> <i_lp_mmshare_version>
43012

> <i_f3d_flags>
0

> <s_epik_input>
W0NIM11bQ0gyXVtDSDJdbjFuW2NIXVtjSF1jMVtOSF1DKD1PKVtOSF1bQ0BIXShbQ0gzXSlbQ0hdMltDSDJdW0NIMl1PW0NIMl1bQ0gyXTI=

> <s_epik_cmdline>
J2VwaWtfcHl0aG9uJywgJy1waCcsICc3LjAnLCAnLXRuJywgJzgnLCAnLW1hJywgJzIwMCcsICctbWV0YWxfYmluZGluZycsICctaW1hZScsICc8aW5maWxlLm1hZT4nLCAnLW9tYWUnLCAnPG91dGZpbGUubWFlPic=

> <r_lp_tautomer_probability>
1

> <r_epik_Ionization_Penalty>
3.26671e-05

> <r_epik_Ionization_Penalty_Charging>
0

> <r_epik_Ionization_Penalty_Neutral>
3.26671e-05

> <r_epik_State_Penalty>
-0

> <r_epik_Charging_Adjusted_Penalty>
0

> <i_epik_Tot_Q>
0

> <i_epik_Tot_abs_Q>
0

> <r_epik_Metal_State_Penalty>
-0

> <b_epik_Metal_Only>
0

> <s_lp_Force_Field>
OPLS_2005

> <r_lp_Energy>
15.2221

> <b_lp_Chiralities_Consistent>
1

> <s_lp_Variant>
AV-unprocessed.smi:2363-2

> <Gold.Version>
5.8.1

> <Gold.Id.Protein>
6NUR|6NUR_protein|mol2

> <Gold.PLP.Fitness>
41.3440

> <Gold.PLP.PLP>
-33.6253

> <Gold.PLP.part.hbond>
-2.0000

> <Gold.PLP.part.metal>
0.0000

> <Gold.PLP.part.buried>
-2.0560

> <Gold.PLP.part.nonpolar>
-30.6097

> <Gold.PLP.part.repulsive>
0.6582

> <Gold.PLP.ligand.clash>
0.0000

> <Gold.PLP.ligand.torsion>
0.4228

> <Gold.PLP.Chemscore.Hbond>
1.9120

> <Gold.PLP.Chemscore.CHOScore>
0.9219

> <Gold.PLP.Chemscore.Metal>
0.0000

> <Gold.Chemscore.Hbonds>
donor molecule, donor type, donor heavy atom, donor atom, acceptor molecule, acceptor atom, score
      L1  H     9    30       P1  7948  1.00
      L1  H    12    31       P1  7948  0.88
      L1  C     6    28       P1 10186  0.90

> <Gold.PLP.Chemscore.Internal.Correction>
0.0628

> <Gold.Rescore>
     Score         DG    S(hbond)    S(metal)    S(lipo)     H(rot)  DE(clash)    DE(int)     intcor
     14.92     -16.68       1.95        0.00      73.32       1.52       0.13       1.63       ----

> <Gold.Chemscore.Fitness>
14.9204

> <Gold.Chemscore.DG>
-16.6842

> <Gold.Chemscore.ZeroCoef>
-5.4800

> <Gold.Chemscore.Hbond>
1.9494

> <Gold.Chemscore.Metal>
0.0000

> <Gold.Chemscore.Lipo>
73.3179

> <Gold.Chemscore.Internal_Hbond>
0.0000

> <Gold.Chemscore.DEClash>
0.1326

> <Gold.Chemscore.DEInternal>
1.6312

> <Gold.Chemscore.Rot>
1.5176

> <Gold.Chemscore.Internal.Correction>
   9.000000E+99

> <Gold.Chemscore.Hbonds>
donor molecule, donor type, donor heavy atom, donor atom, acceptor molecule, acceptor atom, score
      L1  H     9    30       P1  7948  0.99
      L1  H    12    31       P1  7948  0.86

> <Gold.Chemscore.Hbond.Weighted>
-6.5111

> <Gold.Chemscore.Metal.Weighted>
-0.0000

> <Gold.Chemscore.Lipo.Weighted>
-8.5782

> <Gold.Chemscore.Internal_Hbond.Weighted>
0.0000

> <Gold.Chemscore.DEClash.Weighted>
0.1326

> <Gold.Chemscore.DEInternal.Weighted>
1.6312

> <Gold.Chemscore.Rot.Weighted>
3.8851

> <Gold.Chemscore.Internal.Correction.Weighted>
   9.000000E+99

> <Gold.Protein.RotatedTorsions>
[ 6907 6896 6895 6894 ] final -101.31 input  -60.11 | X-H torsion
[ 7974 7965 7964 7962 ] final  -36.60 input  175.53 | X-H torsion
[ 8008 7997 7996 7995 ] final   78.53 input   59.86 | X-H torsion
[ 10167 10162 10161 10158 ] final  141.70 input  -65.29 | X-H torsion
[ 10718 10713 10712 10709 ] final  148.43 input   66.30 | X-H torsion
[ 10763 10752 10751 10750 ] final   22.05 input  -60.55 | X-H torsion
[ 11005 11000 10999 10996 ] final  -31.21 input  -57.11 | X-H torsion

> <Gold.Protein.ActiveResidues>
 VAL166  LYS551  ARG553  GLY616  TRP617  ASP618  TYR619  PRO620  LYS621  CYS622 
 ASP623  PHE694  ASN695  SER759  ASP760  ASP761  ALA762  ILE779  LEU786  VAL792 
 PHE793  MET794  SER795  GLU796  ALA797  LYS798  CYS799  TRP800  GLU811  SER814 

> <Gold.Protein.RotatedAtoms>
  150.7150  134.0753  159.3878 H   0  0  0  0  0  0  0  0  0  0  0  0  # atno 6907 bound_to 6896
  151.8736  135.0478  160.0491 H   0  0  0  0  0  0  0  0  0  0  0  0  # atno 6908 bound_to 6896
  152.2623  133.5273  159.5426 H   0  0  0  0  0  0  0  0  0  0  0  0  # atno 6909 bound_to 6896
  146.0648  140.6297  142.8980 H   0  0  0  0  0  0  0  0  0  0  0  0  # atno 7974 bound_to 7965
  155.8569  140.3455  155.5730 H   0  0  0  0  0  0  0  0  0  0  0  0  # atno 8008 bound_to 7997
  155.7976  140.0880  157.1994 H   0  0  0  0  0  0  0  0  0  0  0  0  # atno 8009 bound_to 7997
  154.4010  140.1471  156.3223 H   0  0  0  0  0  0  0  0  0  0  0  0  # atno 8010 bound_to 7997
  139.5013  144.6155  151.6174 H   0  0  0  0  0  0  0  0  0  0  0  0  # atno 10167 bound_to 10162
  157.3086  131.0884  151.1334 H   0  0  0  0  0  0  0  0  0  0  0  0  # atno 10718 bound_to 10713
  153.0946  135.6656  153.9787 H   0  0  0  0  0  0  0  0  0  0  0  0  # atno 10763 bound_to 10752
  153.9374  135.2997  155.3445 H   0  0  0  0  0  0  0  0  0  0  0  0  # atno 10764 bound_to 10752
  154.7364  135.5099  153.9123 H   0  0  0  0  0  0  0  0  0  0  0  0  # atno 10765 bound_to 10752
  140.9449  133.7256  156.1131 H   0  0  0  0  0  0  0  0  0  0  0  0  # atno 11005 bound_to 11000
  144.7196  140.4327  143.7018 LP  0  0  0  0  0  0  0  0  0  0  0  0  # atno 17320 bound_to 7965
  145.6497  139.1563  143.2869 LP  0  0  0  0  0  0  0  0  0  0  0  0  # atno 17321 bound_to 7965
  140.5841  143.9894  150.6285 LP  0  0  0  0  0  0  0  0  0  0  0  0  # atno 17342 bound_to 10162
  140.3053  143.3234  152.0932 LP  0  0  0  0  0  0  0  0  0  0  0  0  # atno 17343 bound_to 10162
  157.2664  130.6683  149.5999 LP  0  0  0  0  0  0  0  0  0  0  0  0  # atno 17370 bound_to 10713
  155.9676  130.4492  150.5651 LP  0  0  0  0  0  0  0  0  0  0  0  0  # atno 17371 bound_to 10713
  140.7684  134.3861  157.5512 LP  0  0  0  0  0  0  0  0  0  0  0  0  # atno 17394 bound_to 11000
  139.8830  134.9006  156.2792 LP  0  0  0  0  0  0  0  0  0  0  0  0  # atno 17395 bound_to 11000

$$$$
