AV-unprocessed.smi:260|AV-procd|sdf|1975|dock3
  -GOLD-   2262021143D 1   1.00000     0.00000
 Structure written by MMmdl.
 53 56  0  0  0  0  0  0  0  0  1 V2000
  148.6345  135.2488  159.0333 C   0  0  0  0  0  0  0  0  0  0  0  0
  149.0419  134.9068  157.6792 N   0  0  0  0  0  0  0  0  0  0  0  0
  149.4887  133.6979  157.3020 C   0  0  0  0  0  0  0  0  0  0  0  0
  149.5857  132.7645  158.1007 O   0  0  0  0  0  0  0  0  0  0  0  0
  149.8904  133.4975  155.8139 C   0  0  1  0  0  0  0  0  0  0  0  0
  150.3988  132.0641  155.5325 C   0  0  0  0  0  0  0  0  0  0  0  0
  148.7090  133.8677  154.8931 C   0  0  0  0  0  0  0  0  0  0  0  0
  148.8131  135.3819  154.6967 C   0  0  0  0  0  0  0  0  0  0  0  0
  150.2268  135.6800  154.8443 N   0  0  0  0  0  0  0  0  0  0  0  0
  150.7298  136.9419  154.8474 C   0  0  0  0  0  0  0  0  0  0  0  0
  151.9230  137.1584  154.2334 N   0  0  0  0  0  0  0  0  0  0  0  0
  152.4632  138.3793  154.2052 C   0  0  0  0  0  0  0  0  0  0  0  0
  151.9874  139.5129  154.7207 N   0  0  0  0  0  0  0  0  0  0  0  0
  150.7876  139.3096  155.3355 C   0  0  0  0  0  0  0  0  0  0  0  0
  150.0898  138.0712  155.4414 C   0  0  0  0  0  0  0  0  0  0  0  0
  148.8974  138.2703  156.1299 N   0  0  0  0  0  0  0  0  0  0  0  0
  148.8940  139.5423  156.4170 C   0  0  0  0  0  0  0  0  0  0  0  0
  150.0020  140.2396  155.9944 N   0  0  0  0  0  0  0  0  0  0  0  0
  150.2561  141.6586  156.1754 C   0  0  0  0  0  0  0  0  0  0  0  0
  150.0434  142.1497  157.6261 C   0  0  2  0  0  0  0  0  0  0  0  0
  148.6520  142.3602  157.7573 O   0  0  0  0  0  0  0  0  0  0  0  0
  150.7415  143.4817  157.9866 C   0  0  2  0  0  0  0  0  0  0  0  0
  152.2513  143.4091  158.2320 C   0  0  0  0  0  0  0  0  0  0  0  0
  152.5318  144.5843  159.1538 C   0  0  0  0  0  0  0  0  0  0  0  0
  151.1534  144.9606  159.6977 C   0  0  0  0  0  0  0  0  0  0  0  0
  150.2925  143.9189  159.2617 O   0  0  0  0  0  0  0  0  0  0  0  0
  150.9527  134.5415  155.3987 C   0  0  0  0  0  0  0  0  0  0  0  0
  148.2850  136.2806  159.0661 H   0  0  0  0  0  0  0  0  0  0  0  0
  149.4707  135.1493  159.7263 H   0  0  0  0  0  0  0  0  0  0  0  0
  147.8225  134.6037  159.3712 H   0  0  0  0  0  0  0  0  0  0  0  0
  148.9832  135.6341  156.9813 H   0  0  0  0  0  0  0  0  0  0  0  0
  150.7215  131.9573  154.4963 H   0  0  0  0  0  0  0  0  0  0  0  0
  149.6201  131.3189  155.7001 H   0  0  0  0  0  0  0  0  0  0  0  0
  151.2529  131.8101  156.1617 H   0  0  0  0  0  0  0  0  0  0  0  0
  148.8208  133.3746  153.9265 H   0  0  0  0  0  0  0  0  0  0  0  0
  147.7374  133.5728  155.2920 H   0  0  0  0  0  0  0  0  0  0  0  0
  148.4387  135.6820  153.7177 H   0  0  0  0  0  0  0  0  0  0  0  0
  148.2446  135.9104  155.4627 H   0  0  0  0  0  0  0  0  0  0  0  0
  153.4134  138.4583  153.6977 H   0  0  0  0  0  0  0  0  0  0  0  0
  148.0810  140.0071  156.9554 H   0  0  0  0  0  0  0  0  0  0  0  0
  151.2683  141.8903  155.8413 H   0  0  0  0  0  0  0  0  0  0  0  0
  149.5812  142.1875  155.5008 H   0  0  0  0  0  0  0  0  0  0  0  0
  150.3357  141.3704  158.3308 H   0  0  0  0  0  0  0  0  0  0  0  0
  148.4016  143.0721  157.1886 H   0  0  0  0  0  0  0  0  0  0  0  0
  150.5284  144.2486  157.2388 H   0  0  0  0  0  0  0  0  0  0  0  0
  152.5069  142.4811  158.7450 H   0  0  0  0  0  0  0  0  0  0  0  0
  152.8321  143.4610  157.3115 H   0  0  0  0  0  0  0  0  0  0  0  0
  153.2207  144.3007  159.9502 H   0  0  0  0  0  0  0  0  0  0  0  0
  152.9713  145.4219  158.6107 H   0  0  0  0  0  0  0  0  0  0  0  0
  151.1409  145.0505  160.7840 H   0  0  0  0  0  0  0  0  0  0  0  0
  150.8177  145.9077  159.2729 H   0  0  0  0  0  0  0  0  0  0  0  0
  151.5768  134.8321  156.2455 H   0  0  0  0  0  0  0  0  0  0  0  0
  151.6162  134.1477  154.6282 H   0  0  0  0  0  0  0  0  0  0  0  0
  1  2  1  0  0  0  0
  1 28  1  0  0  0  0
  1 29  1  0  0  0  0
  1 30  1  0  0  0  0
  2  3  1  0  0  0  0
  2 31  1  0  0  0  0
  3  4  2  0  0  0  0
  3  5  1  0  0  0  0
  5 27  1  0  0  0  0
  5  6  1  0  0  0  0
  5  7  1  0  0  0  0
  6 32  1  0  0  0  0
  6 33  1  0  0  0  0
  6 34  1  0  0  0  0
  7  8  1  0  0  0  0
  7 35  1  0  0  0  0
  7 36  1  0  0  0  0
  8  9  1  0  0  0  0
  8 37  1  0  0  0  0
  8 38  1  0  0  0  0
  9 10  1  0  0  0  0
  9 27  1  0  0  0  0
 10 15  1  0  0  0  0
 10 11  2  0  0  0  0
 11 12  1  0  0  0  0
 12 13  2  0  0  0  0
 12 39  1  0  0  0  0
 13 14  1  0  0  0  0
 14 18  1  0  0  0  0
 14 15  2  0  0  0  0
 15 16  1  0  0  0  0
 16 17  2  0  0  0  0
 17 18  1  0  0  0  0
 17 40  1  0  0  0  0
 18 19  1  0  0  0  0
 19 20  1  0  0  0  0
 19 41  1  0  0  0  0
 19 42  1  0  0  0  0
 20 21  1  0  0  0  0
 20 22  1  0  0  0  0
 20 43  1  0  0  0  0
 21 44  1  0  0  0  0
 22 26  1  0  0  0  0
 22 23  1  0  0  0  0
 22 45  1  0  0  0  0
 23 24  1  0  0  0  0
 23 46  1  0  0  0  0
 23 47  1  0  0  0  0
 24 25  1  0  0  0  0
 24 48  1  0  0  0  0
 24 49  1  0  0  0  0
 25 26  1  0  0  0  0
 25 50  1  0  0  0  0
 25 51  1  0  0  0  0
 27 52  1  0  0  0  0
 27 53  1  0  0  0  0
M  END
> <s_m_source_file>
AV-unprocessed.smi

> <i_m_source_file_index>
260

> <i_lp_mmshare_version>
43012

> <i_f3d_flags>
0

> <s_epik_input>
W0NIM11bTkhdQyg9TylbQ0BAXTEoW0NIM10pW0NIMl1bQ0gyXU4oW0NIMl0xKWMobltjSF1uMiljKGMyMyluW2NIXW4zW0NIMl1bQ0BIXShbT0hdKVtDQEBIXTRbQ0gyXVtDSDJdW0NIMl1PNA==

> <s_epik_cmdline>
J2VwaWtfcHl0aG9uJywgJy1waCcsICc3LjAnLCAnLXRuJywgJzgnLCAnLW1hJywgJzIwMCcsICctbWV0YWxfYmluZGluZycsICctaW1hZScsICc8aW5maWxlLm1hZT4nLCAnLW9tYWUnLCAnPG91dGZpbGUubWFlPic=

> <r_lp_tautomer_probability>
1

> <r_epik_Ionization_Penalty>
0.00115068

> <r_epik_Ionization_Penalty_Charging>
0

> <r_epik_Ionization_Penalty_Neutral>
0.00115068

> <r_epik_State_Penalty>
0.000668876

> <r_epik_Charging_Adjusted_Penalty>
0.000668876

> <i_epik_Tot_Q>
0

> <i_epik_Tot_abs_Q>
0

> <r_epik_Metal_State_Penalty>
-0

> <b_epik_Metal_Only>
0

> <s_lp_Force_Field>
OPLS_2005

> <r_lp_Energy>
51.9197

> <b_lp_Chiralities_Consistent>
1

> <s_lp_Variant>
AV-unprocessed.smi:260-1

> <Gold.Version>
5.8.1

> <Gold.Id.Protein>
6NUR|6NUR_protein|mol2

> <Gold.PLP.Fitness>
49.0434

> <Gold.PLP.PLP>
-40.7640

> <Gold.PLP.part.hbond>
-4.0000

> <Gold.PLP.part.metal>
0.0000

> <Gold.PLP.part.buried>
-4.3633

> <Gold.PLP.part.nonpolar>
-33.6660

> <Gold.PLP.part.repulsive>
0.4096

> <Gold.PLP.ligand.clash>
0.0000

> <Gold.PLP.ligand.torsion>
1.3282

> <Gold.PLP.Chemscore.Hbond>
3.5560

> <Gold.PLP.Chemscore.CHOScore>
0.0000

> <Gold.PLP.Chemscore.Metal>
0.0000

> <Gold.Chemscore.Hbonds>
donor molecule, donor type, donor heavy atom, donor atom, acceptor molecule, acceptor atom, score
      L1  H    21    44       P1  8028  0.37
      P1  H  6896  6909       L1     4  0.70
      P1  H  7989  7998       L1    13  0.93
      P1  H 10752 10765       L1    11  0.99

> <Gold.PLP.Chemscore.Internal.Correction>
0.2678

> <Gold.Rescore>
     Score         DG    S(hbond)    S(metal)    S(lipo)     H(rot)  DE(clash)    DE(int)     intcor
     12.16     -15.19       1.64        0.00      91.48       2.53       1.37       1.66       ----

> <Gold.Chemscore.Fitness>
12.1589

> <Gold.Chemscore.DG>
-15.1902

> <Gold.Chemscore.ZeroCoef>
-5.4800

> <Gold.Chemscore.Hbond>
1.6388

> <Gold.Chemscore.Metal>
0.0000

> <Gold.Chemscore.Lipo>
91.4777

> <Gold.Chemscore.Internal_Hbond>
0.0000

> <Gold.Chemscore.DEClash>
1.3701

> <Gold.Chemscore.DEInternal>
1.6612

> <Gold.Chemscore.Rot>
2.5259

> <Gold.Chemscore.Internal.Correction>
   9.000000E+99

> <Gold.Chemscore.Hbonds>
donor molecule, donor type, donor heavy atom, donor atom, acceptor molecule, acceptor atom, score
      L1  H    21    44       P1  8028  0.09
      P1  H  6896  6909       L1     4  0.07
      P1  H  7989  7998       L1    13  0.41
      P1  H 10752 10765       L1    11  0.65

> <Gold.Chemscore.Hbond.Weighted>
-5.4736

> <Gold.Chemscore.Metal.Weighted>
-0.0000

> <Gold.Chemscore.Lipo.Weighted>
-10.7029

> <Gold.Chemscore.Internal_Hbond.Weighted>
0.0000

> <Gold.Chemscore.DEClash.Weighted>
1.3701

> <Gold.Chemscore.DEInternal.Weighted>
1.6612

> <Gold.Chemscore.Rot.Weighted>
6.4663

> <Gold.Chemscore.Internal.Correction.Weighted>
   9.000000E+99

> <Gold.Protein.RotatedTorsions>
[ 6907 6896 6895 6894 ] final   -3.60 input  -60.11 | X-H torsion
[ 7974 7965 7964 7962 ] final  143.29 input  175.53 | X-H torsion
[ 8008 7997 7996 7995 ] final  -94.87 input   59.86 | X-H torsion
[ 10167 10162 10161 10158 ] final -167.95 input  -65.29 | X-H torsion
[ 10718 10713 10712 10709 ] final  141.24 input   66.30 | X-H torsion
[ 10763 10752 10751 10750 ] final  168.03 input  -60.55 | X-H torsion
[ 11005 11000 10999 10996 ] final  109.90 input  -57.11 | X-H torsion

> <Gold.Protein.ActiveResidues>
 VAL166  LYS551  ARG553  GLY616  TRP617  ASP618  TYR619  PRO620  LYS621  CYS622 
 ASP623  PHE694  ASN695  SER759  ASP760  ASP761  ALA762  ILE779  LEU786  VAL792 
 PHE793  MET794  SER795  GLU796  ALA797  LYS798  CYS799  TRP800  GLU811  SER814 

> <Gold.Protein.RotatedAtoms>
  151.5111  135.1065  159.9853 H   0  0  0  0  0  0  0  0  0  0  0  0  # atno 6907 bound_to 6896
  152.4661  133.7922  159.6919 H   0  0  0  0  0  0  0  0  0  0  0  0  # atno 6908 bound_to 6896
  150.8646  133.7530  159.3006 H   0  0  0  0  0  0  0  0  0  0  0  0  # atno 6909 bound_to 6896
  144.8933  139.5526  143.5788 H   0  0  0  0  0  0  0  0  0  0  0  0  # atno 7974 bound_to 7965
  154.7540  140.0485  157.0917 H   0  0  0  0  0  0  0  0  0  0  0  0  # atno 8008 bound_to 7997
  155.0021  140.3126  155.4844 H   0  0  0  0  0  0  0  0  0  0  0  0  # atno 8009 bound_to 7997
  156.2891  140.2199  156.5131 H   0  0  0  0  0  0  0  0  0  0  0  0  # atno 8010 bound_to 7997
  139.6017  144.0998  152.1749 H   0  0  0  0  0  0  0  0  0  0  0  0  # atno 10167 bound_to 10162
  157.3942  131.1008  151.0616 H   0  0  0  0  0  0  0  0  0  0  0  0  # atno 10718 bound_to 10713
  154.3626  135.2753  155.2311 H   0  0  0  0  0  0  0  0  0  0  0  0  # atno 10763 bound_to 10752
  154.4493  135.5935  153.6184 H   0  0  0  0  0  0  0  0  0  0  0  0  # atno 10764 bound_to 10752
  152.9842  135.6038  154.3848 H   0  0  0  0  0  0  0  0  0  0  0  0  # atno 10765 bound_to 10752
  139.8871  134.9470  156.6196 H   0  0  0  0  0  0  0  0  0  0  0  0  # atno 11005 bound_to 11000
  146.3067  139.7603  142.9051 LP  0  0  0  0  0  0  0  0  0  0  0  0  # atno 17320 bound_to 7965
  145.3744  141.0348  143.3213 LP  0  0  0  0  0  0  0  0  0  0  0  0  # atno 17321 bound_to 7965
  140.0595  144.5868  150.7273 LP  0  0  0  0  0  0  0  0  0  0  0  0  # atno 17342 bound_to 10162
  140.7254  143.2631  151.4137 LP  0  0  0  0  0  0  0  0  0  0  0  0  # atno 17343 bound_to 10162
  157.1639  130.6237  149.5619 LP  0  0  0  0  0  0  0  0  0  0  0  0  # atno 17370 bound_to 10713
  155.9806  130.4808  150.6781 LP  0  0  0  0  0  0  0  0  0  0  0  0  # atno 17371 bound_to 10713
  140.7749  133.8708  155.8521 LP  0  0  0  0  0  0  0  0  0  0  0  0  # atno 17394 bound_to 11000
  140.9810  134.1405  157.4494 LP  0  0  0  0  0  0  0  0  0  0  0  0  # atno 17395 bound_to 11000

$$$$
