AV-unprocessed.smi:1452|AV-procd|sdf|5909|dock7
  -GOLD-   22720 5593D 1   1.00000     0.00000
 Structure written by MMmdl.
 40 42  0  0  0  0  0  0  0  0  2 V2000
  144.9874  136.7888  153.0117 O   0  0  0  0  0  0  0  0  0  0  0  0
  146.1463  136.6293  152.6329 C   0  0  0  0  0  0  0  0  0  0  0  0
  146.5025  135.5482  151.9077 N   0  0  0  0  0  0  0  0  0  0  0  0
  145.7370  134.4391  151.4410 C   0  0  0  0  0  0  0  0  0  0  0  0
  146.5061  133.3445  150.9852 C   0  0  0  0  0  0  0  0  0  0  0  0
  145.8580  132.1983  150.4858 C   0  0  0  0  0  0  0  0  0  0  0  0
  144.4527  132.1760  150.4501 C   0  0  0  0  0  0  0  0  0  0  0  0
  143.7603  133.3076  150.9171 C   0  0  0  0  0  0  0  0  0  0  0  0
  144.3799  134.4072  151.3964 N   0  0  0  0  0  0  0  0  0  0  0  0
  147.1282  137.5039  152.9082 N   0  0  0  0  0  0  0  0  0  0  0  0
  146.9964  138.7138  153.7161 C   0  0  2  0  0  0  0  0  0  0  0  0
  146.7627  139.9766  152.8640 C   0  0  0  0  0  0  0  0  0  0  0  0
  147.6546  141.0473  153.5004 C   0  0  0  0  0  0  0  0  0  0  0  0
  148.7968  140.2712  153.9965 N   0  3  1  0  0  0  0  0  0  0  0  0
  149.7623  140.9342  154.8960 C   0  0  0  0  0  0  0  0  0  0  0  0
  150.9513  139.9769  155.1271 C   0  0  0  0  0  0  0  0  0  0  0  0
  150.4935  138.5792  155.6026 C   0  0  0  0  0  0  0  0  0  0  0  0
  149.3915  137.9971  154.6917 C   0  0  0  0  0  0  0  0  0  0  0  0
  148.2524  139.0252  154.5628 C   0  0  2  0  0  0  0  0  0  0  0  0
  147.4557  135.5640  151.5744 H   0  0  0  0  0  0  0  0  0  0  0  0
  147.5856  133.3779  151.0163 H   0  0  0  0  0  0  0  0  0  0  0  0
  146.4303  131.3523  150.1350 H   0  0  0  0  0  0  0  0  0  0  0  0
  143.9197  131.3156  150.0731 H   0  0  0  0  0  0  0  0  0  0  0  0
  142.6807  133.3324  150.9050 H   0  0  0  0  0  0  0  0  0  0  0  0
  148.0494  137.2921  152.5509 H   0  0  0  0  0  0  0  0  0  0  0  0
  146.1458  138.6040  154.3917 H   0  0  0  0  0  0  0  0  0  0  0  0
  147.0862  139.8055  151.8359 H   0  0  0  0  0  0  0  0  0  0  0  0
  145.7140  140.2743  152.8325 H   0  0  0  0  0  0  0  0  0  0  0  0
  147.9599  141.8173  152.7915 H   0  0  0  0  0  0  0  0  0  0  0  0
  147.1432  141.5263  154.3369 H   0  0  0  0  0  0  0  0  0  0  0  0
  150.1096  141.8636  154.4434 H   0  0  0  0  0  0  0  0  0  0  0  0
  149.2807  141.1930  155.8404 H   0  0  0  0  0  0  0  0  0  0  0  0
  151.5080  139.8691  154.1952 H   0  0  0  0  0  0  0  0  0  0  0  0
  151.6450  140.4093  155.8488 H   0  0  0  0  0  0  0  0  0  0  0  0
  151.3450  137.8989  155.6417 H   0  0  0  0  0  0  0  0  0  0  0  0
  150.1142  138.6538  156.6226 H   0  0  0  0  0  0  0  0  0  0  0  0
  149.8054  137.7607  153.7103 H   0  0  0  0  0  0  0  0  0  0  0  0
  149.0190  137.0632  155.1137 H   0  0  0  0  0  0  0  0  0  0  0  0
  147.8932  139.2532  155.5689 H   0  0  0  0  0  0  0  0  0  0  0  0
  149.3133  139.9983  153.1725 H   0  0  0  0  0  0  0  0  0  0  0  0
  1  2  2  0  0  0  0
  2  3  1  0  0  0  0
  2 10  1  0  0  0  0
  3  4  1  0  0  0  0
  3 20  1  0  0  0  0
  4  9  1  0  0  0  0
  4  5  2  0  0  0  0
  5  6  1  0  0  0  0
  5 21  1  0  0  0  0
  6  7  2  0  0  0  0
  6 22  1  0  0  0  0
  7  8  1  0  0  0  0
  7 23  1  0  0  0  0
  8  9  2  0  0  0  0
  8 24  1  0  0  0  0
 10 11  1  0  0  0  0
 10 25  1  0  0  0  0
 11 19  1  0  0  0  0
 11 12  1  0  0  0  0
 11 26  1  0  0  0  0
 12 13  1  0  0  0  0
 12 27  1  0  0  0  0
 12 28  1  0  0  0  0
 13 14  1  0  0  0  0
 13 29  1  0  0  0  0
 13 30  1  0  0  0  0
 14 19  1  0  0  0  0
 14 15  1  0  0  0  0
 14 40  1  0  0  0  0
 15 16  1  0  0  0  0
 15 31  1  0  0  0  0
 15 32  1  0  0  0  0
 16 17  1  0  0  0  0
 16 33  1  0  0  0  0
 16 34  1  0  0  0  0
 17 18  1  0  0  0  0
 17 35  1  0  0  0  0
 17 36  1  0  0  0  0
 18 19  1  0  0  0  0
 18 37  1  0  0  0  0
 18 38  1  0  0  0  0
 19 39  1  0  0  0  0
M  CHG  1  14   1
M  END
> <s_m_source_file>
AV-unprocessed.smi

> <i_m_source_file_index>
1452

> <i_lp_mmshare_version>
43012

> <i_f3d_flags>
0

> <s_epik_input>
W0NIMl0xW0NIMl1bQ0gyXVtDSDJdW0NASF0oTjEyKVtDQEBIXShbQ0gyXVtDSDJdMilbTkhdQyg9TylbTkhdYzNbY0hdW2NIXVtjSF1bY0hdbjM=

> <s_epik_cmdline>
J2VwaWtfcHl0aG9uJywgJy1waCcsICc3LjAnLCAnLXRuJywgJzgnLCAnLW1hJywgJzIwMCcsICctbWV0YWxfYmluZGluZycsICctaW1hZScsICc8aW5maWxlLm1hZT4nLCAnLW9tYWUnLCAnPG91dGZpbGUubWFlPic=

> <r_epik_Ionization_Penalty>
0.00100813

> <r_epik_Ionization_Penalty_Charging>
0.000974069

> <r_epik_Ionization_Penalty_Neutral>
3.40643e-05

> <r_epik_State_Penalty>
0.000633842

> <r_epik_Charging_Adjusted_Penalty>
0.00160791

> <i_epik_Tot_Q>
1

> <i_epik_Tot_abs_Q>
1

> <r_epik_Metal_State_Penalty>
-0

> <b_epik_Metal_Only>
0

> <s_lp_Force_Field>
OPLS_2005

> <r_lp_Energy>
45.6992

> <b_lp_Chiralities_Consistent>
1

> <s_lp_Variant>
AV-unprocessed.smi:1452-7

> <Gold.Version>
5.8.1

> <Gold.Id.Protein>
6NUR|6NUR_protein|mol2

> <Gold.PLP.Fitness>
40.5813

> <Gold.PLP.PLP>
-29.8187

> <Gold.PLP.part.hbond>
-2.6794

> <Gold.PLP.part.metal>
0.0000

> <Gold.PLP.part.buried>
0.2959

> <Gold.PLP.part.nonpolar>
-27.7247

> <Gold.PLP.part.repulsive>
0.5357

> <Gold.PLP.ligand.clash>
0.0000

> <Gold.PLP.ligand.torsion>
0.3899

> <Gold.PLP.Chemscore.Hbond>
2.8473

> <Gold.PLP.Chemscore.CHOScore>
1.0000

> <Gold.PLP.Chemscore.Metal>
0.0000

> <Gold.Chemscore.Hbonds>
donor molecule, donor type, donor heavy atom, donor atom, acceptor molecule, acceptor atom, score
      L1  H     3    20       P1  7948  0.90
      L1  H    10    25       P1  7948  0.94
      L1  H    14    40       P1  7957  0.99
      L1  C     8    24       P1 10186  1.00

> <Gold.PLP.Chemscore.Internal.Correction>
0.0006

> <Gold.Rescore>
     Score         DG    S(hbond)    S(metal)    S(lipo)     H(rot)  DE(clash)    DE(int)     intcor
     18.52     -21.56       2.75        0.00      80.92       1.00       1.49       1.56       ----

> <Gold.Chemscore.Fitness>
18.5187

> <Gold.Chemscore.DG>
-21.5647

> <Gold.Chemscore.ZeroCoef>
-5.4800

> <Gold.Chemscore.Hbond>
2.7476

> <Gold.Chemscore.Metal>
0.0000

> <Gold.Chemscore.Lipo>
80.9212

> <Gold.Chemscore.Internal_Hbond>
0.0000

> <Gold.Chemscore.DEClash>
1.4866

> <Gold.Chemscore.DEInternal>
1.5594

> <Gold.Chemscore.Rot>
1.0000

> <Gold.Chemscore.Internal.Correction>
   9.000000E+99

> <Gold.Chemscore.Hbonds>
donor molecule, donor type, donor heavy atom, donor atom, acceptor molecule, acceptor atom, score
      L1  H     3    20       P1  7948  0.85
      L1  H    10    25       P1  7948  0.86
      L1  H    14    40       P1  7957  0.88

> <Gold.Chemscore.Hbond.Weighted>
-9.1769

> <Gold.Chemscore.Metal.Weighted>
-0.0000

> <Gold.Chemscore.Lipo.Weighted>
-9.4678

> <Gold.Chemscore.Internal_Hbond.Weighted>
0.0000

> <Gold.Chemscore.DEClash.Weighted>
1.4866

> <Gold.Chemscore.DEInternal.Weighted>
1.5594

> <Gold.Chemscore.Rot.Weighted>
2.5600

> <Gold.Chemscore.Internal.Correction.Weighted>
   9.000000E+99

> <Gold.Protein.RotatedTorsions>
[ 6907 6896 6895 6894 ] final   12.78 input  -60.11 | X-H torsion
[ 7974 7965 7964 7962 ] final -117.00 input  175.53 | X-H torsion
[ 8008 7997 7996 7995 ] final   63.50 input   59.86 | X-H torsion
[ 10167 10162 10161 10158 ] final  135.46 input  -65.29 | X-H torsion
[ 10718 10713 10712 10709 ] final -104.28 input   66.30 | X-H torsion
[ 10763 10752 10751 10750 ] final -106.38 input  -60.55 | X-H torsion
[ 11005 11000 10999 10996 ] final   61.08 input  -57.11 | X-H torsion

> <Gold.Protein.ActiveResidues>
 VAL166  LYS551  ARG553  GLY616  TRP617  ASP618  TYR619  PRO620  LYS621  CYS622 
 ASP623  PHE694  ASN695  SER759  ASP760  ASP761  ALA762  ILE779  LEU786  VAL792 
 PHE793  MET794  SER795  GLU796  ALA797  LYS798  CYS799  TRP800  GLU811  SER814 

> <Gold.Protein.RotatedAtoms>
  151.7758  135.0774  160.0366 H   0  0  0  0  0  0  0  0  0  0  0  0  # atno 6907 bound_to 6896
  152.3257  133.5898  159.5783 H   0  0  0  0  0  0  0  0  0  0  0  0  # atno 6908 bound_to 6896
  150.7394  133.9860  159.3633 H   0  0  0  0  0  0  0  0  0  0  0  0  # atno 6909 bound_to 6896
  145.0903  140.8485  143.3986 H   0  0  0  0  0  0  0  0  0  0  0  0  # atno 7974 bound_to 7965
  155.6312  140.3496  155.4683 H   0  0  0  0  0  0  0  0  0  0  0  0  # atno 8008 bound_to 7997
  156.0001  140.1211  157.0579 H   0  0  0  0  0  0  0  0  0  0  0  0  # atno 8009 bound_to 7997
  154.4246  140.1102  156.5671 H   0  0  0  0  0  0  0  0  0  0  0  0  # atno 8010 bound_to 7997
  139.5216  144.6516  151.5286 H   0  0  0  0  0  0  0  0  0  0  0  0  # atno 10167 bound_to 10162
  156.0298  130.5507  150.7373 H   0  0  0  0  0  0  0  0  0  0  0  0  # atno 10718 bound_to 10713
  154.8008  135.4714  154.0272 H   0  0  0  0  0  0  0  0  0  0  0  0  # atno 10763 bound_to 10752
  153.1779  135.6836  153.8525 H   0  0  0  0  0  0  0  0  0  0  0  0  # atno 10764 bound_to 10752
  153.8085  135.3220  155.3376 H   0  0  0  0  0  0  0  0  0  0  0  0  # atno 10765 bound_to 10752
  140.0186  134.6186  155.9672 H   0  0  0  0  0  0  0  0  0  0  0  0  # atno 11005 bound_to 11000
  145.1074  139.2780  143.5655 LP  0  0  0  0  0  0  0  0  0  0  0  0  # atno 17320 bound_to 7965
  146.3531  140.0659  142.8626 LP  0  0  0  0  0  0  0  0  0  0  0  0  # atno 17321 bound_to 7965
  140.6323  143.9053  150.6616 LP  0  0  0  0  0  0  0  0  0  0  0  0  # atno 17342 bound_to 10162
  140.2360  143.3699  152.1526 LP  0  0  0  0  0  0  0  0  0  0  0  0  # atno 17343 bound_to 10162
  157.4951  131.0914  151.0381 LP  0  0  0  0  0  0  0  0  0  0  0  0  # atno 17370 bound_to 10713
  157.0777  130.5890  149.5414 LP  0  0  0  0  0  0  0  0  0  0  0  0  # atno 17371 bound_to 10713
  141.1759  133.6540  156.4828 LP  0  0  0  0  0  0  0  0  0  0  0  0  # atno 17394 bound_to 11000
  140.4426  134.7001  157.4999 LP  0  0  0  0  0  0  0  0  0  0  0  0  # atno 17395 bound_to 11000

$$$$
