AV-unprocessed.smi:281|AV-procd|sdf|2106|dock6
  -GOLD-   2262021403D 1   1.00000     0.00000
 Structure written by MMmdl.
 55 59  0  0  0  0  0  0  0  0  1 V2000
  151.9102  138.9756  154.7971 C   0  0  0  0  0  0  0  0  0  0  0  0
  150.4169  139.1487  154.5019 C   0  0  1  0  0  0  0  0  0  0  0  0
  149.6383  137.8331  154.6777 C   0  0  0  0  0  0  0  0  0  0  0  0
  148.2146  138.0732  154.4922 N   0  0  0  0  0  0  0  0  0  0  0  0
  147.4668  136.9512  154.4569 C   0  0  0  0  0  0  0  0  0  0  0  0
  147.6410  136.0626  155.4650 N   0  0  0  0  0  0  0  0  0  0  0  0
  146.9317  134.9299  155.4852 C   0  0  0  0  0  0  0  0  0  0  0  0
  146.0168  134.5015  154.6127 N   0  0  0  0  0  0  0  0  0  0  0  0
  145.8442  135.3929  153.5945 C   0  0  0  0  0  0  0  0  0  0  0  0
  146.5205  136.6356  153.4414 C   0  0  0  0  0  0  0  0  0  0  0  0
  146.0804  137.2768  152.2898 N   0  0  0  0  0  0  0  0  0  0  0  0
  145.1933  136.4598  151.7911 C   0  0  0  0  0  0  0  0  0  0  0  0
  144.9959  135.2985  152.5046 N   0  0  0  0  0  0  0  0  0  0  0  0
  144.0742  134.2195  152.1809 C   0  0  0  0  0  0  0  0  0  0  0  0
  144.3162  133.5865  150.7887 C   0  0  1  0  0  0  0  0  0  0  0  0
  144.0359  134.5486  149.7883 O   0  0  0  0  0  0  0  0  0  0  0  0
  145.7548  133.0935  150.6162 C   0  0  0  0  0  0  0  0  0  0  0  0
  145.6200  131.5758  150.6376 C   0  0  0  0  0  0  0  0  0  0  0  0
  144.3746  131.3666  149.9969 O   0  0  0  0  0  0  0  0  0  0  0  0
  143.4697  132.3246  150.5262 C   0  0  0  0  0  0  0  0  0  0  0  0
  147.6977  139.0922  155.3951 C   0  0  0  0  0  0  0  0  0  0  0  0
  148.5037  140.4071  155.2473 C   0  0  1  0  0  0  0  0  0  0  0  0
  148.2178  141.1330  153.9363 C   0  0  0  0  0  0  0  0  0  0  0  0
  146.9595  141.9338  154.2521 C   0  0  0  0  0  0  0  0  0  0  0  0
  147.0369  142.2395  155.6394 O   0  0  0  0  0  0  0  0  0  0  0  0
  148.0996  141.5090  156.2461 C   0  0  1  0  0  0  0  0  0  0  0  0
  147.7153  141.0560  157.6624 C   0  0  0  0  0  0  0  0  0  0  0  0
  149.9002  140.1324  155.3994 O   0  0  0  0  0  0  0  0  0  0  0  0
  152.3601  138.2412  154.1287 H   0  0  0  0  0  0  0  0  0  0  0  0
  152.0735  138.6408  155.8218 H   0  0  0  0  0  0  0  0  0  0  0  0
  152.4447  139.9166  154.6650 H   0  0  0  0  0  0  0  0  0  0  0  0
  150.3104  139.5007  153.4749 H   0  0  0  0  0  0  0  0  0  0  0  0
  149.9857  137.0919  153.9564 H   0  0  0  0  0  0  0  0  0  0  0  0
  149.8184  137.4256  155.6732 H   0  0  0  0  0  0  0  0  0  0  0  0
  147.1262  134.2713  156.3187 H   0  0  0  0  0  0  0  0  0  0  0  0
  144.6570  136.6852  150.8809 H   0  0  0  0  0  0  0  0  0  0  0  0
  144.1512  133.4594  152.9596 H   0  0  0  0  0  0  0  0  0  0  0  0
  143.0587  134.6134  152.2402 H   0  0  0  0  0  0  0  0  0  0  0  0
  144.7944  134.6297  149.2302 H   0  0  0  0  0  0  0  0  0  0  0  0
  146.1615  133.3991  149.6506 H   0  0  0  0  0  0  0  0  0  0  0  0
  146.4353  133.4586  151.3864 H   0  0  0  0  0  0  0  0  0  0  0  0
  146.4342  131.0719  150.1164 H   0  0  0  0  0  0  0  0  0  0  0  0
  145.5766  131.1998  151.6610 H   0  0  0  0  0  0  0  0  0  0  0  0
  143.0720  131.9172  151.4560 H   0  0  0  0  0  0  0  0  0  0  0  0
  142.6275  132.4935  149.8536 H   0  0  0  0  0  0  0  0  0  0  0  0
  146.6376  139.2620  155.2025 H   0  0  0  0  0  0  0  0  0  0  0  0
  147.7797  138.7180  156.4155 H   0  0  0  0  0  0  0  0  0  0  0  0
  149.0338  141.8201  153.7075 H   0  0  0  0  0  0  0  0  0  0  0  0
  148.0913  140.4708  153.0791 H   0  0  0  0  0  0  0  0  0  0  0  0
  146.8814  142.8384  153.6487 H   0  0  0  0  0  0  0  0  0  0  0  0
  146.0672  141.3321  154.0758 H   0  0  0  0  0  0  0  0  0  0  0  0
  148.9320  142.2101  156.3277 H   0  0  0  0  0  0  0  0  0  0  0  0
  148.5147  140.4702  158.1167 H   0  0  0  0  0  0  0  0  0  0  0  0
  146.8085  140.4510  157.6605 H   0  0  0  0  0  0  0  0  0  0  0  0
  147.5299  141.9171  158.3045 H   0  0  0  0  0  0  0  0  0  0  0  0
  1  2  1  0  0  0  0
  1 29  1  0  0  0  0
  1 30  1  0  0  0  0
  1 31  1  0  0  0  0
  2 28  1  0  0  0  0
  2  3  1  0  0  0  0
  2 32  1  0  0  0  0
  3  4  1  0  0  0  0
  3 33  1  0  0  0  0
  3 34  1  0  0  0  0
  4  5  1  0  0  0  0
  4 21  1  0  0  0  0
  5 10  1  0  0  0  0
  5  6  2  0  0  0  0
  6  7  1  0  0  0  0
  7  8  2  0  0  0  0
  7 35  1  0  0  0  0
  8  9  1  0  0  0  0
  9 13  1  0  0  0  0
  9 10  2  0  0  0  0
 10 11  1  0  0  0  0
 11 12  2  0  0  0  0
 12 13  1  0  0  0  0
 12 36  1  0  0  0  0
 13 14  1  0  0  0  0
 14 15  1  0  0  0  0
 14 37  1  0  0  0  0
 14 38  1  0  0  0  0
 15 20  1  0  0  0  0
 15 16  1  0  0  0  0
 15 17  1  0  0  0  0
 16 39  1  0  0  0  0
 17 18  1  0  0  0  0
 17 40  1  0  0  0  0
 17 41  1  0  0  0  0
 18 19  1  0  0  0  0
 18 42  1  0  0  0  0
 18 43  1  0  0  0  0
 19 20  1  0  0  0  0
 20 44  1  0  0  0  0
 20 45  1  0  0  0  0
 21 22  1  0  0  0  0
 21 46  1  0  0  0  0
 21 47  1  0  0  0  0
 22 26  1  0  0  0  0
 22 23  1  0  0  0  0
 22 28  1  0  0  0  0
 23 24  1  0  0  0  0
 23 48  1  0  0  0  0
 23 49  1  0  0  0  0
 24 25  1  0  0  0  0
 24 50  1  0  0  0  0
 24 51  1  0  0  0  0
 25 26  1  0  0  0  0
 26 27  1  0  0  0  0
 26 52  1  0  0  0  0
 27 53  1  0  0  0  0
 27 54  1  0  0  0  0
 27 55  1  0  0  0  0
M  END
> <s_m_source_file>
AV-unprocessed.smi

> <i_m_source_file_index>
281

> <i_lp_mmshare_version>
43012

> <i_f3d_flags>
0

> <s_epik_input>
W0NIM11bQ0BASF0xT1tDSDJdW0NIMl1bQ0BAXTEyW0NIMl1OKFtDSDJdW0NASF0oTzIpW0NIM10pYyhuW2NIXW4zKWMoYzM0KW5bY0hdbjRbQ0gyXVtDQEBdNShbT0hdKVtDSDJdW0NIMl1PW0NIMl01

> <s_epik_cmdline>
J2VwaWtfcHl0aG9uJywgJy1waCcsICc3LjAnLCAnLXRuJywgJzgnLCAnLW1hJywgJzIwMCcsICctbWV0YWxfYmluZGluZycsICctaW1hZScsICc8aW5maWxlLm1hZT4nLCAnLW9tYWUnLCAnPG91dGZpbGUubWFlPic=

> <r_lp_tautomer_probability>
1

> <r_epik_Ionization_Penalty>
0.00571331

> <r_epik_Ionization_Penalty_Charging>
0

> <r_epik_Ionization_Penalty_Neutral>
0.00571331

> <r_epik_State_Penalty>
0.00399586

> <r_epik_Charging_Adjusted_Penalty>
0.00399586

> <i_epik_Tot_Q>
0

> <i_epik_Tot_abs_Q>
0

> <r_epik_Metal_State_Penalty>
-0

> <b_epik_Metal_Only>
0

> <s_lp_Force_Field>
OPLS_2005

> <r_lp_Energy>
56.3854

> <b_lp_Chiralities_Consistent>
1

> <s_lp_Variant>
AV-unprocessed.smi:281-6

> <Gold.Version>
5.8.1

> <Gold.Id.Protein>
6NUR|6NUR_protein|mol2

> <Gold.PLP.Fitness>
41.2383

> <Gold.PLP.PLP>
-34.5527

> <Gold.PLP.part.hbond>
-2.8035

> <Gold.PLP.part.metal>
0.0000

> <Gold.PLP.part.buried>
-1.7743

> <Gold.PLP.part.nonpolar>
-32.0871

> <Gold.PLP.part.repulsive>
2.0461

> <Gold.PLP.ligand.clash>
0.0000

> <Gold.PLP.ligand.torsion>
0.3957

> <Gold.PLP.Chemscore.Hbond>
1.4514

> <Gold.PLP.Chemscore.CHOScore>
1.0000

> <Gold.PLP.Chemscore.Metal>
0.0000

> <Gold.Chemscore.Hbonds>
donor molecule, donor type, donor heavy atom, donor atom, acceptor molecule, acceptor atom, score
      L1  H    16    39       P1  7921  0.84
      P1  H 10785 10796       L1    19  0.40
      L1  C    12    36       P1 10171  1.00

> <Gold.PLP.Chemscore.Internal.Correction>
0.1228

> <Gold.Rescore>
     Score         DG    S(hbond)    S(metal)    S(lipo)     H(rot)  DE(clash)    DE(int)     intcor
     12.81     -15.36       1.59        0.00      84.74       2.09       1.17       1.38       ----

> <Gold.Chemscore.Fitness>
12.8087

> <Gold.Chemscore.DG>
-15.3574

> <Gold.Chemscore.ZeroCoef>
-5.4800

> <Gold.Chemscore.Hbond>
1.5929

> <Gold.Chemscore.Metal>
0.0000

> <Gold.Chemscore.Lipo>
84.7401

> <Gold.Chemscore.Internal_Hbond>
0.0000

> <Gold.Chemscore.DEClash>
1.1685

> <Gold.Chemscore.DEInternal>
1.3802

> <Gold.Chemscore.Rot>
2.0927

> <Gold.Chemscore.Internal.Correction>
   9.000000E+99

> <Gold.Chemscore.Hbonds>
donor molecule, donor type, donor heavy atom, donor atom, acceptor molecule, acceptor atom, score
      L1  H    16    39       P1  7921  0.82
      P1  H 10785 10796       L1    19  0.22

> <Gold.Chemscore.Hbond.Weighted>
-5.3202

> <Gold.Chemscore.Metal.Weighted>
-0.0000

> <Gold.Chemscore.Lipo.Weighted>
-9.9146

> <Gold.Chemscore.Internal_Hbond.Weighted>
0.0000

> <Gold.Chemscore.DEClash.Weighted>
1.1685

> <Gold.Chemscore.DEInternal.Weighted>
1.3802

> <Gold.Chemscore.Rot.Weighted>
5.3573

> <Gold.Chemscore.Internal.Correction.Weighted>
   9.000000E+99

> <Gold.Protein.RotatedTorsions>
[ 6907 6896 6895 6894 ] final  134.52 input  -60.11 | X-H torsion
[ 7974 7965 7964 7962 ] final  -52.14 input  175.53 | X-H torsion
[ 8008 7997 7996 7995 ] final   71.41 input   59.86 | X-H torsion
[ 10167 10162 10161 10158 ] final   62.22 input  -65.29 | X-H torsion
[ 10718 10713 10712 10709 ] final    9.89 input   66.30 | X-H torsion
[ 10763 10752 10751 10750 ] final  125.51 input  -60.55 | X-H torsion
[ 11005 11000 10999 10996 ] final  -86.52 input  -57.11 | X-H torsion

> <Gold.Protein.ActiveResidues>
 VAL166  LYS551  ARG553  GLY616  TRP617  ASP618  TYR619  PRO620  LYS621  CYS622 
 ASP623  PHE694  ASN695  SER759  ASP760  ASP761  ALA762  ILE779  LEU786  VAL792 
 PHE793  MET794  SER795  GLU796  ALA797  LYS798  CYS799  TRP800  GLU811  SER814 

> <Gold.Protein.RotatedAtoms>
  152.3104  133.5747  159.5676 H   0  0  0  0  0  0  0  0  0  0  0  0  # atno 6907 bound_to 6896
  150.7320  134.0160  159.3694 H   0  0  0  0  0  0  0  0  0  0  0  0  # atno 6908 bound_to 6896
  151.8054  135.0697  160.0457 H   0  0  0  0  0  0  0  0  0  0  0  0  # atno 6909 bound_to 6896
  145.9113  140.7913  142.9694 H   0  0  0  0  0  0  0  0  0  0  0  0  # atno 7974 bound_to 7965
  155.7534  140.3488  155.5162 H   0  0  0  0  0  0  0  0  0  0  0  0  # atno 8008 bound_to 7997
  155.8983  140.1029  157.1390 H   0  0  0  0  0  0  0  0  0  0  0  0  # atno 8009 bound_to 7997
  154.4041  140.1291  156.4390 H   0  0  0  0  0  0  0  0  0  0  0  0  # atno 8010 bound_to 7997
  140.1463  144.4506  150.6783 H   0  0  0  0  0  0  0  0  0  0  0  0  # atno 10167 bound_to 10162
  156.9729  130.5976  149.5670 H   0  0  0  0  0  0  0  0  0  0  0  0  # atno 10718 bound_to 10713
  153.6784  135.3318  155.3172 H   0  0  0  0  0  0  0  0  0  0  0  0  # atno 10763 bound_to 10752
  154.8472  135.4403  154.1632 H   0  0  0  0  0  0  0  0  0  0  0  0  # atno 10764 bound_to 10752
  153.2642  135.6994  153.7624 H   0  0  0  0  0  0  0  0  0  0  0  0  # atno 10765 bound_to 10752
  141.1629  133.7459  156.9174 H   0  0  0  0  0  0  0  0  0  0  0  0  # atno 11005 bound_to 11000
  144.6743  140.1830  143.7404 LP  0  0  0  0  0  0  0  0  0  0  0  0  # atno 17320 bound_to 7965
  145.8668  139.2251  143.1684 LP  0  0  0  0  0  0  0  0  0  0  0  0  # atno 17321 bound_to 7965
  140.6730  143.2293  151.5578 LP  0  0  0  0  0  0  0  0  0  0  0  0  # atno 17342 bound_to 10162
  139.5447  144.2552  152.1420 LP  0  0  0  0  0  0  0  0  0  0  0  0  # atno 17343 bound_to 10162
  156.0275  130.5368  150.8447 LP  0  0  0  0  0  0  0  0  0  0  0  0  # atno 17370 bound_to 10713
  157.5580  131.0945  150.9600 LP  0  0  0  0  0  0  0  0  0  0  0  0  # atno 17371 bound_to 10713
  140.1475  134.9252  157.2549 LP  0  0  0  0  0  0  0  0  0  0  0  0  # atno 17394 bound_to 11000
  140.2762  134.3402  155.7357 LP  0  0  0  0  0  0  0  0  0  0  0  0  # atno 17395 bound_to 11000

$$$$
