AV-unprocessed.smi:198|AV-procd|sdf|1558|dock1
  -GOLD-   2262019433D 1   1.00000     0.00000
 Structure written by MMmdl.
 59 63  0  0  0  0  0  0  0  0  2 V2000
  149.4592  141.2089  155.4952 C   0  0  0  0  0  0  0  0  0  0  0  0
  148.2609  142.0798  155.5147 N   0  3  1  0  0  0  0  0  0  0  0  0
  147.4584  142.0220  154.2670 C   0  0  0  0  0  0  0  0  0  0  0  0
  146.6444  140.7208  154.1678 C   0  0  0  0  0  0  0  0  0  0  0  0
  145.7491  140.5302  155.4127 C   0  0  2  0  0  0  0  0  0  0  0  0
  146.5894  140.6194  156.7086 C   0  0  2  0  0  0  0  0  0  0  0  0
  145.6643  140.5280  157.9376 C   0  0  0  0  0  0  0  0  0  0  0  0
  144.8029  139.2568  157.8859 C   0  0  0  0  0  0  0  0  0  0  0  0
  144.0418  139.1479  156.5488 C   0  0  0  0  0  0  0  0  0  0  0  0
  144.9249  139.3134  155.3931 N   0  0  0  0  0  0  0  0  0  0  0  0
  145.4747  138.1765  154.9009 C   0  0  0  0  0  0  0  0  0  0  0  0
  146.7743  137.8771  155.1573 N   0  0  0  0  0  0  0  0  0  0  0  0
  147.3168  136.7640  154.6545 C   0  0  0  0  0  0  0  0  0  0  0  0
  146.7509  135.8359  153.8795 N   0  0  0  0  0  0  0  0  0  0  0  0
  145.4458  136.1360  153.6193 C   0  0  0  0  0  0  0  0  0  0  0  0
  144.7352  137.2741  154.0908 C   0  0  0  0  0  0  0  0  0  0  0  0
  143.4269  137.2445  153.6271 N   0  0  0  0  0  0  0  0  0  0  0  0
  143.3674  136.1506  152.9169 C   0  0  0  0  0  0  0  0  0  0  0  0
  144.5391  135.4268  152.8517 N   0  0  0  0  0  0  0  0  0  0  0  0
  144.7772  134.1930  152.1586 C   0  0  0  0  0  0  0  0  0  0  0  0
  145.4596  134.1275  150.7890 C   0  0  0  0  0  0  0  0  0  0  0  0
  144.6037  132.8874  150.4389 C   0  0  0  0  0  0  0  0  0  0  0  0
  144.0304  132.8368  149.0119 C   0  0  0  0  0  0  0  0  0  0  0  0
  142.7932  132.1559  148.9618 O   0  0  0  0  0  0  0  0  0  0  0  0
  145.2061  131.5108  150.7915 C   0  0  0  0  0  0  0  0  0  0  0  0
  146.3382  131.2102  150.0019 O   0  0  0  0  0  0  0  0  0  0  0  0
  143.6237  133.4345  151.5028 C   0  0  0  0  0  0  0  0  0  0  0  0
  147.4235  141.9190  156.7312 C   0  0  0  0  0  0  0  0  0  0  0  0
  149.1969  140.1516  155.4581 H   0  0  0  0  0  0  0  0  0  0  0  0
  150.0655  141.3752  156.3861 H   0  0  0  0  0  0  0  0  0  0  0  0
  150.0803  141.4337  154.6277 H   0  0  0  0  0  0  0  0  0  0  0  0
  146.7812  142.8769  154.2529 H   0  0  0  0  0  0  0  0  0  0  0  0
  148.1094  142.1322  153.3988 H   0  0  0  0  0  0  0  0  0  0  0  0
  146.0291  140.7484  153.2683 H   0  0  0  0  0  0  0  0  0  0  0  0
  147.3289  139.8806  154.0477 H   0  0  0  0  0  0  0  0  0  0  0  0
  145.0429  141.3621  155.4209 H   0  0  0  0  0  0  0  0  0  0  0  0
  147.2746  139.7717  156.7422 H   0  0  0  0  0  0  0  0  0  0  0  0
  146.2529  140.5386  158.8555 H   0  0  0  0  0  0  0  0  0  0  0  0
  145.0133  141.4025  157.9763 H   0  0  0  0  0  0  0  0  0  0  0  0
  145.4376  138.3831  158.0319 H   0  0  0  0  0  0  0  0  0  0  0  0
  144.0940  139.2535  158.7142 H   0  0  0  0  0  0  0  0  0  0  0  0
  143.5175  138.1928  156.4906 H   0  0  0  0  0  0  0  0  0  0  0  0
  143.2746  139.9211  156.5001 H   0  0  0  0  0  0  0  0  0  0  0  0
  148.3534  136.5943  154.9063 H   0  0  0  0  0  0  0  0  0  0  0  0
  142.4570  135.8504  152.4198 H   0  0  0  0  0  0  0  0  0  0  0  0
  145.3054  133.5509  152.8662 H   0  0  0  0  0  0  0  0  0  0  0  0
  145.2299  134.9781  150.1458 H   0  0  0  0  0  0  0  0  0  0  0  0
  146.5349  133.9518  150.8304 H   0  0  0  0  0  0  0  0  0  0  0  0
  143.8998  133.8386  148.6017 H   0  0  0  0  0  0  0  0  0  0  0  0
  144.7143  132.3181  148.3396 H   0  0  0  0  0  0  0  0  0  0  0  0
  142.0984  132.7853  149.0831 H   0  0  0  0  0  0  0  0  0  0  0  0
  145.5155  131.4692  151.8359 H   0  0  0  0  0  0  0  0  0  0  0  0
  144.4709  130.7157  150.6642 H   0  0  0  0  0  0  0  0  0  0  0  0
  147.1003  131.2155  150.5614 H   0  0  0  0  0  0  0  0  0  0  0  0
  143.1624  132.6785  152.1393 H   0  0  0  0  0  0  0  0  0  0  0  0
  142.8695  134.1075  151.0906 H   0  0  0  0  0  0  0  0  0  0  0  0
  148.0552  141.9536  157.6198 H   0  0  0  0  0  0  0  0  0  0  0  0
  146.7569  142.7801  156.7970 H   0  0  0  0  0  0  0  0  0  0  0  0
  148.6273  143.0200  155.5586 H   0  0  0  0  0  0  0  0  0  0  0  0
  1  2  1  0  0  0  0
  1 29  1  0  0  0  0
  1 30  1  0  0  0  0
  1 31  1  0  0  0  0
  2 28  1  0  0  0  0
  2  3  1  0  0  0  0
  2 59  1  0  0  0  0
  3  4  1  0  0  0  0
  3 32  1  0  0  0  0
  3 33  1  0  0  0  0
  4  5  1  0  0  0  0
  4 34  1  0  0  0  0
  4 35  1  0  0  0  0
  5 10  1  0  0  0  0
  5  6  1  0  0  0  0
  5 36  1  0  0  0  0
  6  7  1  0  0  0  0
  6 28  1  0  0  0  0
  6 37  1  0  0  0  0
  7  8  1  0  0  0  0
  7 38  1  0  0  0  0
  7 39  1  0  0  0  0
  8  9  1  0  0  0  0
  8 40  1  0  0  0  0
  8 41  1  0  0  0  0
  9 10  1  0  0  0  0
  9 42  1  0  0  0  0
  9 43  1  0  0  0  0
 10 11  1  0  0  0  0
 11 16  1  0  0  0  0
 11 12  2  0  0  0  0
 12 13  1  0  0  0  0
 13 14  2  0  0  0  0
 13 44  1  0  0  0  0
 14 15  1  0  0  0  0
 15 19  1  0  0  0  0
 15 16  2  0  0  0  0
 16 17  1  0  0  0  0
 17 18  2  0  0  0  0
 18 19  1  0  0  0  0
 18 45  1  0  0  0  0
 19 20  1  0  0  0  0
 20 27  1  0  0  0  0
 20 21  1  0  0  0  0
 20 46  1  0  0  0  0
 21 22  1  0  0  0  0
 21 47  1  0  0  0  0
 21 48  1  0  0  0  0
 22 23  1  0  0  0  0
 22 25  1  0  0  0  0
 22 27  1  0  0  0  0
 23 24  1  0  0  0  0
 23 49  1  0  0  0  0
 23 50  1  0  0  0  0
 24 51  1  0  0  0  0
 25 26  1  0  0  0  0
 25 52  1  0  0  0  0
 25 53  1  0  0  0  0
 26 54  1  0  0  0  0
 27 55  1  0  0  0  0
 27 56  1  0  0  0  0
 28 57  1  0  0  0  0
 28 58  1  0  0  0  0
M  CHG  1   2   1
M  END
> <s_m_source_file>
AV-unprocessed.smi

> <i_m_source_file_index>
198

> <i_lp_mmshare_version>
43012

> <i_f3d_flags>
0

> <s_epik_input>
W0NIMl0xW0NIMl1OKFtDSDNdKVtDSDJdW0NAQEhdKFtDQEhdMTIpW0NIMl1bQ0gyXVtDSDJdTjJjKG5bY0hdbjMpYyhjMzQpbltjSF1uNFtDSF0oW0NIMl01KVtDSDJdQzUoW0NIMl1bT0hdKVtDSDJdW09IXQ==

> <s_epik_cmdline>
J2VwaWtfcHl0aG9uJywgJy1waCcsICc3LjAnLCAnLXRuJywgJzgnLCAnLW1hJywgJzIwMCcsICctbWV0YWxfYmluZGluZycsICctaW1hZScsICc8aW5maWxlLm1hZT4nLCAnLW9tYWUnLCAnPG91dGZpbGUubWFlPic=

> <r_lp_tautomer_probability>
1

> <r_epik_Ionization_Penalty>
0.00239938

> <r_epik_Ionization_Penalty_Charging>
0.00138697

> <r_epik_Ionization_Penalty_Neutral>
0.00101241

> <r_epik_State_Penalty>
-0

> <r_epik_Charging_Adjusted_Penalty>
0.00138697

> <i_epik_Tot_Q>
1

> <i_epik_Tot_abs_Q>
1

> <r_epik_Metal_State_Penalty>
-0

> <b_epik_Metal_Only>
0

> <s_lp_Force_Field>
OPLS_2005

> <r_lp_Energy>
58.8774

> <b_lp_Chiralities_Consistent>
1

> <s_lp_Variant>
AV-unprocessed.smi:198-7

> <Gold.Version>
5.8.1

> <Gold.Id.Protein>
6NUR|6NUR_protein|mol2

> <Gold.PLP.Fitness>
47.8901

> <Gold.PLP.PLP>
-35.4342

> <Gold.PLP.part.hbond>
-5.0000

> <Gold.PLP.part.metal>
0.0000

> <Gold.PLP.part.buried>
-7.6346

> <Gold.PLP.part.nonpolar>
-24.4026

> <Gold.PLP.part.repulsive>
1.4275

> <Gold.PLP.ligand.clash>
0.0000

> <Gold.PLP.ligand.torsion>
1.2379

> <Gold.PLP.Chemscore.Hbond>
4.6720

> <Gold.PLP.Chemscore.CHOScore>
0.0000

> <Gold.PLP.Chemscore.Metal>
0.0000

> <Gold.Chemscore.Hbonds>
donor molecule, donor type, donor heavy atom, donor atom, acceptor molecule, acceptor atom, score
      L1  H     2    59       P1  8028  2.00
      L1  H    24    51       P1 10186  1.00
      L1  H    26    54       P1 10747  0.66
      P1  H 10785 10796       L1    24  0.93

> <Gold.PLP.Chemscore.Internal.Correction>
0.9156

> <Gold.Rescore>
     Score         DG    S(hbond)    S(metal)    S(lipo)     H(rot)  DE(clash)    DE(int)     intcor
     14.81     -17.72       3.37        0.00      75.91       3.08       0.61       2.30       ----

> <Gold.Chemscore.Fitness>
14.8146

> <Gold.Chemscore.DG>
-17.7250

> <Gold.Chemscore.ZeroCoef>
-5.4800

> <Gold.Chemscore.Hbond>
3.3664

> <Gold.Chemscore.Metal>
0.0000

> <Gold.Chemscore.Lipo>
75.9068

> <Gold.Chemscore.Internal_Hbond>
0.0000

> <Gold.Chemscore.DEClash>
0.6103

> <Gold.Chemscore.DEInternal>
2.3002

> <Gold.Chemscore.Rot>
3.0781

> <Gold.Chemscore.Internal.Correction>
   9.000000E+99

> <Gold.Chemscore.Hbonds>
donor molecule, donor type, donor heavy atom, donor atom, acceptor molecule, acceptor atom, score
      L1  H     2    59       P1  8028  1.00
      L1  H    24    51       P1 10186  0.95
      L1  H    26    54       P1 10747  0.66
      P1  H 10785 10796       L1    24  0.57

> <Gold.Chemscore.Hbond.Weighted>
-11.2439

> <Gold.Chemscore.Metal.Weighted>
-0.0000

> <Gold.Chemscore.Lipo.Weighted>
-8.8811

> <Gold.Chemscore.Internal_Hbond.Weighted>
0.0000

> <Gold.Chemscore.DEClash.Weighted>
0.6103

> <Gold.Chemscore.DEInternal.Weighted>
2.3002

> <Gold.Chemscore.Rot.Weighted>
7.8800

> <Gold.Chemscore.Internal.Correction.Weighted>
   9.000000E+99

> <Gold.Protein.RotatedTorsions>
[ 6907 6896 6895 6894 ] final  121.70 input  -60.11 | X-H torsion
[ 7974 7965 7964 7962 ] final    7.60 input  175.53 | X-H torsion
[ 8008 7997 7996 7995 ] final  152.80 input   59.86 | X-H torsion
[ 10167 10162 10161 10158 ] final -132.37 input  -65.29 | X-H torsion
[ 10718 10713 10712 10709 ] final  -15.83 input   66.30 | X-H torsion
[ 10763 10752 10751 10750 ] final   34.72 input  -60.55 | X-H torsion
[ 11005 11000 10999 10996 ] final  -52.05 input  -57.11 | X-H torsion

> <Gold.Protein.ActiveResidues>
 VAL166  LYS551  ARG553  GLY616  TRP617  ASP618  TYR619  PRO620  LYS621  CYS622 
 ASP623  PHE694  ASN695  SER759  ASP760  ASP761  ALA762  ILE779  LEU786  VAL792 
 PHE793  MET794  SER795  GLU796  ALA797  LYS798  CYS799  TRP800  GLU811  SER814 

> <Gold.Protein.RotatedAtoms>
  152.4301  133.7263  159.6561 H   0  0  0  0  0  0  0  0  0  0  0  0  # atno 6907 bound_to 6896
  150.8180  133.8292  159.3158 H   0  0  0  0  0  0  0  0  0  0  0  0  # atno 6908 bound_to 6896
  151.5983  135.1051  160.0106 H   0  0  0  0  0  0  0  0  0  0  0  0  # atno 6909 bound_to 6896
  146.2425  140.0059  142.8411 H   0  0  0  0  0  0  0  0  0  0  0  0  # atno 7974 bound_to 7965
  156.2612  140.2011  156.6390 H   0  0  0  0  0  0  0  0  0  0  0  0  # atno 8008 bound_to 7997
  154.6624  140.0559  157.0101 H   0  0  0  0  0  0  0  0  0  0  0  0  # atno 8009 bound_to 7997
  155.1257  140.3229  155.4489 H   0  0  0  0  0  0  0  0  0  0  0  0  # atno 8010 bound_to 7997
  139.9092  143.6514  152.2579 H   0  0  0  0  0  0  0  0  0  0  0  0  # atno 10167 bound_to 10162
  156.5962  130.4812  149.6258 H   0  0  0  0  0  0  0  0  0  0  0  0  # atno 10718 bound_to 10713
  153.0151  135.6353  154.1713 H   0  0  0  0  0  0  0  0  0  0  0  0  # atno 10763 bound_to 10752
  154.1452  135.2832  155.3152 H   0  0  0  0  0  0  0  0  0  0  0  0  # atno 10764 bound_to 10752
  154.6094  135.5561  153.7519 H   0  0  0  0  0  0  0  0  0  0  0  0  # atno 10765 bound_to 10752
  141.0903  133.6634  156.3966 H   0  0  0  0  0  0  0  0  0  0  0  0  # atno 11005 bound_to 11000
  145.1372  140.9551  143.4509 LP  0  0  0  0  0  0  0  0  0  0  0  0  # atno 17320 bound_to 7965
  145.0330  139.3324  143.6015 LP  0  0  0  0  0  0  0  0  0  0  0  0  # atno 17321 bound_to 7965
  139.6957  144.7641  151.1360 LP  0  0  0  0  0  0  0  0  0  0  0  0  # atno 17342 bound_to 10162
  140.7689  143.5527  150.9186 LP  0  0  0  0  0  0  0  0  0  0  0  0  # atno 17343 bound_to 10162
  156.2507  130.6906  151.1642 LP  0  0  0  0  0  0  0  0  0  0  0  0  # atno 17370 bound_to 10713
  157.7291  131.0627  150.5789 LP  0  0  0  0  0  0  0  0  0  0  0  0  # atno 17371 bound_to 10713
  140.5266  134.6252  157.5336 LP  0  0  0  0  0  0  0  0  0  0  0  0  # atno 17394 bound_to 11000
  139.9728  134.7264  156.0007 LP  0  0  0  0  0  0  0  0  0  0  0  0  # atno 17395 bound_to 11000

$$$$
