AV-unprocessed.smi:2768|AV-procd|sdf|10653|dock2
  -GOLD-   2272015103D 1   1.00000     0.00000
 Structure written by MMmdl.
 34 35  0  0  0  0  0  0  0  0  2 V2000
  151.5224  139.2947  158.9278 O   0  0  0  0  0  0  0  0  0  0  0  0
  151.4912  140.0115  157.9209 C   0  0  0  0  0  0  0  0  0  0  0  0
  151.7675  141.3410  157.7871 N   0  5  0  0  0  0  0  0  0  0  0  0
  151.4739  142.3545  158.8045 C   0  0  1  0  0  0  0  0  0  0  0  0
  152.7853  142.9054  159.4204 C   0  0  0  0  0  0  0  0  0  0  0  0
  152.5482  144.0660  160.4200 C   0  0  0  0  0  0  0  0  0  0  0  0
  151.7523  145.2342  159.8003 C   0  0  0  0  0  0  0  0  0  0  0  0
  150.4380  144.7047  159.1840 C   0  0  0  0  0  0  0  0  0  0  0  0
  150.6522  143.5270  158.1948 C   0  0  1  0  0  0  0  0  0  0  0  0
  151.2767  144.0244  157.0251 O   0  0  0  0  0  0  0  0  0  0  0  0
  151.1024  139.3667  156.5732 C   0  0  0  0  0  0  0  0  0  0  0  0
  152.1228  139.4925  155.7201 F   0  0  0  0  0  0  0  0  0  0  0  0
  150.8872  138.0575  156.7421 F   0  0  0  0  0  0  0  0  0  0  0  0
  149.8591  140.0394  155.9931 C   0  0  0  0  0  0  0  0  0  0  0  0
  148.6872  140.1938  156.7688 C   0  0  0  0  0  0  0  0  0  0  0  0
  147.5728  140.8321  156.1922 C   0  0  0  0  0  0  0  0  0  0  0  0
  147.6653  141.2908  154.8646 C   0  0  0  0  0  0  0  0  0  0  0  0
  148.8759  141.0931  154.1722 C   0  0  0  0  0  0  0  0  0  0  0  0
  149.9507  140.4845  154.7163 N   0  0  0  0  0  0  0  0  0  0  0  0
  150.8795  141.9429  159.6220 H   0  0  0  0  0  0  0  0  0  0  0  0
  149.6764  143.1462  157.8902 H   0  0  0  0  0  0  0  0  0  0  0  0
  153.3206  142.1003  159.9248 H   0  0  0  0  0  0  0  0  0  0  0  0
  153.4467  143.2548  158.6261 H   0  0  0  0  0  0  0  0  0  0  0  0
  152.0230  143.6979  161.3038 H   0  0  0  0  0  0  0  0  0  0  0  0
  153.5090  144.4352  160.7794 H   0  0  0  0  0  0  0  0  0  0  0  0
  151.5400  145.9928  160.5539 H   0  0  0  0  0  0  0  0  0  0  0  0
  152.3520  145.7184  159.0288 H   0  0  0  0  0  0  0  0  0  0  0  0
  149.7737  144.3882  159.9904 H   0  0  0  0  0  0  0  0  0  0  0  0
  149.9165  145.5198  158.6806 H   0  0  0  0  0  0  0  0  0  0  0  0
  150.6381  144.5535  156.5700 H   0  0  0  0  0  0  0  0  0  0  0  0
  148.6470  139.8414  157.7890 H   0  0  0  0  0  0  0  0  0  0  0  0
  146.6637  140.9692  156.7589 H   0  0  0  0  0  0  0  0  0  0  0  0
  146.8306  141.7843  154.3894 H   0  0  0  0  0  0  0  0  0  0  0  0
  148.9833  141.4327  153.1526 H   0  0  0  0  0  0  0  0  0  0  0  0
  1  2  2  0  0  0  0
  2  3  1  0  0  0  0
  2 11  1  0  0  0  0
  3  4  1  0  0  0  0
  4 20  1  0  0  0  0
  4  9  1  0  0  0  0
  4  5  1  0  0  0  0
  5  6  1  0  0  0  0
  5 22  1  0  0  0  0
  5 23  1  0  0  0  0
  6  7  1  0  0  0  0
  6 24  1  0  0  0  0
  6 25  1  0  0  0  0
  7  8  1  0  0  0  0
  7 26  1  0  0  0  0
  7 27  1  0  0  0  0
  8  9  1  0  0  0  0
  8 28  1  0  0  0  0
  8 29  1  0  0  0  0
  9 21  1  0  0  0  0
  9 10  1  0  0  0  0
 10 30  1  0  0  0  0
 11 12  1  0  0  0  0
 11 13  1  0  0  0  0
 11 14  1  0  0  0  0
 14 19  1  0  0  0  0
 14 15  2  0  0  0  0
 15 16  1  0  0  0  0
 15 31  1  0  0  0  0
 16 17  2  0  0  0  0
 16 32  1  0  0  0  0
 17 18  1  0  0  0  0
 17 33  1  0  0  0  0
 18 19  2  0  0  0  0
 18 34  1  0  0  0  0
M  CHG  1   3  -1
M  END
> <s_m_source_file>
AV-unprocessed.smi

> <i_m_source_file_index>
2768

> <i_lp_mmshare_version>
43012

> <i_f3d_flags>
0

> <s_epik_input>
bjFbY0hdW2NIXVtjSF1bY0hdYzFDKEYpKEYpQyg9TylbTkhdW0NAQEhdMltDSDJdW0NIMl1bQ0gyXVtDSDJdW0NASF0yW09IXQ==

> <s_epik_cmdline>
J2VwaWtfcHl0aG9uJywgJy1waCcsICc3LjAnLCAnLXRuJywgJzgnLCAnLW1hJywgJzIwMCcsICctbWV0YWxfYmluZGluZycsICctaW1hZScsICc8aW5maWxlLm1hZT4nLCAnLW9tYWUnLCAnPG91dGZpbGUubWFlPic=

> <r_lp_tautomer_probability>
1

> <r_epik_Ionization_Penalty>
5.70553

> <r_epik_Ionization_Penalty_Charging>
5.70553

> <r_epik_Ionization_Penalty_Neutral>
5.5493e-06

> <r_epik_State_Penalty>
5.70549

> <r_epik_Charging_Adjusted_Penalty>
11.411

> <i_epik_Tot_Q>
-1

> <i_epik_Tot_abs_Q>
1

> <r_epik_Metal_State_Penalty>
1.6859

> <b_epik_Metal_Only>
1

> <s_lp_Force_Field>
OPLS_2005

> <r_lp_Energy>
27.4562

> <b_lp_Chiralities_Consistent>
1

> <s_lp_Variant>
AV-unprocessed.smi:2768-6

> <Gold.Version>
5.8.1

> <Gold.Id.Protein>
6NUR|6NUR_protein|mol2

> <Gold.PLP.Fitness>
42.1649

> <Gold.PLP.PLP>
-34.8659

> <Gold.PLP.part.hbond>
-2.0000

> <Gold.PLP.part.metal>
0.0000

> <Gold.PLP.part.buried>
-5.0131

> <Gold.PLP.part.nonpolar>
-27.5563

> <Gold.PLP.part.repulsive>
0.1059

> <Gold.PLP.ligand.clash>
0.0000

> <Gold.PLP.ligand.torsion>
0.5115

> <Gold.PLP.Chemscore.Hbond>
1.8800

> <Gold.PLP.Chemscore.CHOScore>
0.8809

> <Gold.PLP.Chemscore.Metal>
0.0000

> <Gold.Chemscore.Hbonds>
donor molecule, donor type, donor heavy atom, donor atom, acceptor molecule, acceptor atom, score
      L1  H    10    30       P1  8028  1.00
      P1  H  7989  7998       L1    19  0.73
      L1  C    18    34       P1  7957  0.95

> <Gold.PLP.Chemscore.Internal.Correction>
0.0392

> <Gold.Rescore>
     Score         DG    S(hbond)    S(metal)    S(lipo)     H(rot)  DE(clash)    DE(int)     intcor
     16.98     -17.41       1.76        0.00      94.41       1.95       0.13       0.30       ----

> <Gold.Chemscore.Fitness>
16.9790

> <Gold.Chemscore.DG>
-17.4055

> <Gold.Chemscore.ZeroCoef>
-5.4800

> <Gold.Chemscore.Hbond>
1.7583

> <Gold.Chemscore.Metal>
0.0000

> <Gold.Chemscore.Lipo>
94.4065

> <Gold.Chemscore.Internal_Hbond>
0.0000

> <Gold.Chemscore.DEClash>
0.1271

> <Gold.Chemscore.DEInternal>
0.2994

> <Gold.Chemscore.Rot>
1.9503

> <Gold.Chemscore.Internal.Correction>
   9.000000E+99

> <Gold.Chemscore.Hbonds>
donor molecule, donor type, donor heavy atom, donor atom, acceptor molecule, acceptor atom, score
      L1  H    10    30       P1  8028  0.93
      P1  H  7989  7998       L1    19  0.46

> <Gold.Chemscore.Hbond.Weighted>
-5.8727

> <Gold.Chemscore.Metal.Weighted>
-0.0000

> <Gold.Chemscore.Lipo.Weighted>
-11.0456

> <Gold.Chemscore.Internal_Hbond.Weighted>
0.0000

> <Gold.Chemscore.DEClash.Weighted>
0.1271

> <Gold.Chemscore.DEInternal.Weighted>
0.2994

> <Gold.Chemscore.Rot.Weighted>
4.9928

> <Gold.Chemscore.Internal.Correction.Weighted>
   9.000000E+99

> <Gold.Protein.RotatedTorsions>
[ 6907 6896 6895 6894 ] final  176.25 input  -60.11 | X-H torsion
[ 7974 7965 7964 7962 ] final   63.76 input  175.53 | X-H torsion
[ 8008 7997 7996 7995 ] final  -84.66 input   59.86 | X-H torsion
[ 10167 10162 10161 10158 ] final   60.86 input  -65.29 | X-H torsion
[ 10718 10713 10712 10709 ] final -134.95 input   66.30 | X-H torsion
[ 10763 10752 10751 10750 ] final -153.89 input  -60.55 | X-H torsion
[ 11005 11000 10999 10996 ] final  125.61 input  -57.11 | X-H torsion

> <Gold.Protein.ActiveResidues>
 VAL166  LYS551  ARG553  GLY616  TRP617  ASP618  TYR619  PRO620  LYS621  CYS622 
 ASP623  PHE694  ASN695  SER759  ASP760  ASP761  ALA762  ILE779  LEU786  VAL792 
 PHE793  MET794  SER795  GLU796  ALA797  LYS798  CYS799  TRP800  GLU811  SER814 

> <Gold.Protein.RotatedAtoms>
  151.7232  133.3315  159.3320 H   0  0  0  0  0  0  0  0  0  0  0  0  # atno 6907 bound_to 6896
  150.7644  134.6429  159.6256 H   0  0  0  0  0  0  0  0  0  0  0  0  # atno 6908 bound_to 6896
  152.3639  134.6835  160.0250 H   0  0  0  0  0  0  0  0  0  0  0  0  # atno 6909 bound_to 6896
  145.8581  139.3297  143.0835 H   0  0  0  0  0  0  0  0  0  0  0  0  # atno 7974 bound_to 7965
  154.6322  140.0602  156.9746 H   0  0  0  0  0  0  0  0  0  0  0  0  # atno 8008 bound_to 7997
  155.1648  140.3286  155.4386 H   0  0  0  0  0  0  0  0  0  0  0  0  # atno 8009 bound_to 7997
  156.2489  140.1924  156.6753 H   0  0  0  0  0  0  0  0  0  0  0  0  # atno 8010 bound_to 7997
  140.1611  144.4370  150.6709 H   0  0  0  0  0  0  0  0  0  0  0  0  # atno 10167 bound_to 10162
  156.2609  130.7209  151.1143 H   0  0  0  0  0  0  0  0  0  0  0  0  # atno 10718 bound_to 10713
  154.7896  135.3202  154.7806 H   0  0  0  0  0  0  0  0  0  0  0  0  # atno 10763 bound_to 10752
  153.8498  135.6863  153.4798 H   0  0  0  0  0  0  0  0  0  0  0  0  # atno 10764 bound_to 10752
  153.1561  135.4679  154.9647 H   0  0  0  0  0  0  0  0  0  0  0  0  # atno 10765 bound_to 10752
  139.9415  134.9635  156.8584 H   0  0  0  0  0  0  0  0  0  0  0  0  # atno 11005 bound_to 11000
  145.9280  140.9069  143.0371 LP  0  0  0  0  0  0  0  0  0  0  0  0  # atno 17320 bound_to 7965
  144.6727  140.1379  143.7439 LP  0  0  0  0  0  0  0  0  0  0  0  0  # atno 17321 bound_to 7965
  140.6642  143.2262  151.5782 LP  0  0  0  0  0  0  0  0  0  0  0  0  # atno 17342 bound_to 10162
  139.5381  144.2724  152.1293 LP  0  0  0  0  0  0  0  0  0  0  0  0  # atno 17343 bound_to 10162
  157.7250  131.0656  150.5971 LP  0  0  0  0  0  0  0  0  0  0  0  0  # atno 17370 bound_to 10713
  156.6059  130.4367  149.5878 LP  0  0  0  0  0  0  0  0  0  0  0  0  # atno 17371 bound_to 10713
  140.5940  134.0234  155.7511 LP  0  0  0  0  0  0  0  0  0  0  0  0  # atno 17394 bound_to 11000
  141.1051  133.9707  157.3011 LP  0  0  0  0  0  0  0  0  0  0  0  0  # atno 17395 bound_to 11000

$$$$
