AV-unprocessed.smi:550|AV-procd|sdf|2895|dock2
  -GOLD-   2262023393D 1   1.00000     0.00000
 Structure written by MMmdl.
 45 47  0  0  0  0  0  0  0  0  1 V2000
  148.2384  141.3600  153.3355 O   0  0  0  0  0  0  0  0  0  0  0  0
  148.7969  140.2866  153.1088 C   0  0  0  0  0  0  0  0  0  0  0  0
  148.4771  139.4926  152.0783 N   0  0  0  0  0  0  0  0  0  0  0  0
  147.4292  139.7853  151.1072 C   0  0  0  0  0  0  0  0  0  0  0  0
  146.3330  138.7063  151.1240 C   0  0  1  0  0  0  0  0  0  0  0  0
  146.5684  137.6167  150.0595 C   0  0  0  0  0  0  0  0  0  0  0  0
  145.5997  136.4603  150.3226 C   0  0  0  0  0  0  0  0  0  0  0  0
  145.4370  136.3645  152.1434 S   0  0  0  0  0  0  0  0  0  0  0  0
  144.0102  136.3794  152.4998 O   0  0  0  0  0  0  0  0  0  0  0  0
  146.3361  135.3221  152.6608 O   0  0  0  0  0  0  0  0  0  0  0  0
  146.1755  138.0085  152.4871 C   0  0  0  0  0  0  0  0  0  0  0  0
  149.8065  139.7708  153.8309 N   0  0  0  0  0  0  0  0  0  0  0  0
  150.3744  140.2802  155.0298 C   0  0  0  0  0  0  0  0  0  0  0  0
  149.9928  141.5036  155.6272 C   0  0  0  0  0  0  0  0  0  0  0  0
  150.6066  141.8954  156.8320 C   0  0  0  0  0  0  0  0  0  0  0  0
  151.5802  141.0517  157.4171 C   0  0  0  0  0  0  0  0  0  0  0  0
  152.2204  141.4122  158.6194 N   0  0  0  0  0  0  0  0  0  0  0  0
  152.4205  140.4587  159.6994 C   0  0  0  0  0  0  0  0  0  0  0  0
  153.0128  141.2864  160.8391 C   0  0  0  0  0  0  0  0  0  0  0  0
  152.3613  142.6559  160.6474 C   0  0  0  0  0  0  0  0  0  0  0  0
  152.1777  142.7756  159.1298 C   0  0  0  0  0  0  0  0  0  0  0  0
  151.9395  139.8771  156.8463 N   0  0  0  0  0  0  0  0  0  0  0  0
  151.3460  139.5043  155.6930 C   0  0  0  0  0  0  0  0  0  0  0  0
  148.9887  138.6309  151.9576 H   0  0  0  0  0  0  0  0  0  0  0  0
  146.9840  140.7575  151.3260 H   0  0  0  0  0  0  0  0  0  0  0  0
  147.8777  139.8574  150.1154 H   0  0  0  0  0  0  0  0  0  0  0  0
  145.3795  139.1816  150.8878 H   0  0  0  0  0  0  0  0  0  0  0  0
  146.4550  138.0079  149.0481 H   0  0  0  0  0  0  0  0  0  0  0  0
  147.5907  137.2456  150.1449 H   0  0  0  0  0  0  0  0  0  0  0  0
  144.6161  136.6781  149.9059 H   0  0  0  0  0  0  0  0  0  0  0  0
  145.9478  135.5083  149.9219 H   0  0  0  0  0  0  0  0  0  0  0  0
  147.1444  137.8442  152.9595 H   0  0  0  0  0  0  0  0  0  0  0  0
  145.5428  138.5646  153.1789 H   0  0  0  0  0  0  0  0  0  0  0  0
  150.2429  138.9384  153.4623 H   0  0  0  0  0  0  0  0  0  0  0  0
  149.2354  142.1392  155.1951 H   0  0  0  0  0  0  0  0  0  0  0  0
  150.3244  142.8333  157.2863 H   0  0  0  0  0  0  0  0  0  0  0  0
  151.4599  140.0322  159.9916 H   0  0  0  0  0  0  0  0  0  0  0  0
  153.0850  139.6467  159.4024 H   0  0  0  0  0  0  0  0  0  0  0  0
  152.8212  140.8544  161.8217 H   0  0  0  0  0  0  0  0  0  0  0  0
  154.0929  141.3716  160.7118 H   0  0  0  0  0  0  0  0  0  0  0  0
  151.3856  142.6648  161.1351 H   0  0  0  0  0  0  0  0  0  0  0  0
  152.9518  143.4708  161.0668 H   0  0  0  0  0  0  0  0  0  0  0  0
  152.9943  143.3444  158.6843 H   0  0  0  0  0  0  0  0  0  0  0  0
  151.2384  143.2756  158.8901 H   0  0  0  0  0  0  0  0  0  0  0  0
  151.6636  138.5561  155.2844 H   0  0  0  0  0  0  0  0  0  0  0  0
  1  2  2  0  0  0  0
  2  3  1  0  0  0  0
  2 12  1  0  0  0  0
  3  4  1  0  0  0  0
  3 24  1  0  0  0  0
  4  5  1  0  0  0  0
  4 25  1  0  0  0  0
  4 26  1  0  0  0  0
  5 11  1  0  0  0  0
  5  6  1  0  0  0  0
  5 27  1  0  0  0  0
  6  7  1  0  0  0  0
  6 28  1  0  0  0  0
  6 29  1  0  0  0  0
  7  8  1  0  0  0  0
  7 30  1  0  0  0  0
  7 31  1  0  0  0  0
  8  9  2  0  0  0  0
  8 10  2  0  0  0  0
  8 11  1  0  0  0  0
 11 32  1  0  0  0  0
 11 33  1  0  0  0  0
 12 13  1  0  0  0  0
 12 34  1  0  0  0  0
 13 23  1  0  0  0  0
 13 14  2  0  0  0  0
 14 15  1  0  0  0  0
 14 35  1  0  0  0  0
 15 16  2  0  0  0  0
 15 36  1  0  0  0  0
 16 17  1  0  0  0  0
 16 22  1  0  0  0  0
 17 21  1  0  0  0  0
 17 18  1  0  0  0  0
 18 19  1  0  0  0  0
 18 37  1  0  0  0  0
 18 38  1  0  0  0  0
 19 20  1  0  0  0  0
 19 39  1  0  0  0  0
 19 40  1  0  0  0  0
 20 21  1  0  0  0  0
 20 41  1  0  0  0  0
 20 42  1  0  0  0  0
 21 43  1  0  0  0  0
 21 44  1  0  0  0  0
 22 23  2  0  0  0  0
 23 45  1  0  0  0  0
M  END
> <s_m_source_file>
AV-unprocessed.smi

> <i_m_source_file_index>
550

> <i_lp_mmshare_version>
43012

> <i_f3d_flags>
0

> <s_epik_input>
Tz1TMSg9TylbQ0gyXVtDSDJdW0NASF0oW0NIMl0xKVtDSDJdW05IXUMoPU8pW05IXWMyW2NIXVtjSF1jKG5bY0hdMilOM1tDSDJdW0NIMl1bQ0gyXVtDSDJdMw==

> <s_epik_cmdline>
J2VwaWtfcHl0aG9uJywgJy1waCcsICc3LjAnLCAnLXRuJywgJzgnLCAnLW1hJywgJzIwMCcsICctbWV0YWxfYmluZGluZycsICctaW1hZScsICc8aW5maWxlLm1hZT4nLCAnLW9tYWUnLCAnPG91dGZpbGUubWFlPic=

> <r_lp_tautomer_probability>
1

> <r_epik_Ionization_Penalty>
0.0965651

> <r_epik_Ionization_Penalty_Charging>
0

> <r_epik_Ionization_Penalty_Neutral>
0.0965651

> <r_epik_State_Penalty>
0.0861592

> <r_epik_Charging_Adjusted_Penalty>
0.0861592

> <i_epik_Tot_Q>
0

> <i_epik_Tot_abs_Q>
0

> <r_epik_Metal_State_Penalty>
0.0740405

> <b_epik_Metal_Only>
0

> <s_lp_Force_Field>
OPLS_2005

> <r_lp_Energy>
33.1318

> <b_lp_Chiralities_Consistent>
1

> <s_lp_Variant>
AV-unprocessed.smi:550-2

> <Gold.Version>
5.8.1

> <Gold.Id.Protein>
6NUR|6NUR_protein|mol2

> <Gold.PLP.Fitness>
44.8349

> <Gold.PLP.PLP>
-41.1096

> <Gold.PLP.part.hbond>
-3.3985

> <Gold.PLP.part.metal>
0.0000

> <Gold.PLP.part.buried>
1.5832

> <Gold.PLP.part.nonpolar>
-39.1216

> <Gold.PLP.part.repulsive>
0.4968

> <Gold.PLP.ligand.clash>
0.0000

> <Gold.PLP.ligand.torsion>
0.8735

> <Gold.PLP.Chemscore.Hbond>
1.7558

> <Gold.PLP.Chemscore.CHOScore>
0.0000

> <Gold.PLP.Chemscore.Metal>
0.0000

> <Gold.Chemscore.Hbonds>
donor molecule, donor type, donor heavy atom, donor atom, acceptor molecule, acceptor atom, score
      L1  H     3    24       P1  7948  0.19
      P1  H  8011  8017       L1     1  0.32

> <Gold.PLP.Chemscore.Internal.Correction>
0.2052

> <Gold.Rescore>
     Score         DG    S(hbond)    S(metal)    S(lipo)     H(rot)  DE(clash)    DE(int)     intcor
     15.01     -18.77       1.42        0.00     100.24       1.25       1.82       1.93       ----

> <Gold.Chemscore.Fitness>
15.0117

> <Gold.Chemscore.DG>
-18.7657

> <Gold.Chemscore.ZeroCoef>
-5.4800

> <Gold.Chemscore.Hbond>
1.4249

> <Gold.Chemscore.Metal>
0.0000

> <Gold.Chemscore.Lipo>
100.2415

> <Gold.Chemscore.Internal_Hbond>
0.0000

> <Gold.Chemscore.DEClash>
1.8194

> <Gold.Chemscore.DEInternal>
1.9346

> <Gold.Chemscore.Rot>
1.2506

> <Gold.Chemscore.Internal.Correction>
   9.000000E+99

> <Gold.Chemscore.Hbonds>
donor molecule, donor type, donor heavy atom, donor atom, acceptor molecule, acceptor atom, score
      L1  H     3    24       P1  7948  0.17
      P1  H  7997  8010       L1    22  0.02
      P1  H  8011  8017       L1     1  0.02

> <Gold.Chemscore.Hbond.Weighted>
-4.7591

> <Gold.Chemscore.Metal.Weighted>
-0.0000

> <Gold.Chemscore.Lipo.Weighted>
-11.7283

> <Gold.Chemscore.Internal_Hbond.Weighted>
0.0000

> <Gold.Chemscore.DEClash.Weighted>
1.8194

> <Gold.Chemscore.DEInternal.Weighted>
1.9346

> <Gold.Chemscore.Rot.Weighted>
3.2016

> <Gold.Chemscore.Internal.Correction.Weighted>
   9.000000E+99

> <Gold.Protein.RotatedTorsions>
[ 6907 6896 6895 6894 ] final   11.46 input  -60.11 | X-H torsion
[ 7974 7965 7964 7962 ] final  145.03 input  175.53 | X-H torsion
[ 8008 7997 7996 7995 ] final   67.82 input   59.86 | X-H torsion
[ 10167 10162 10161 10158 ] final   43.00 input  -65.29 | X-H torsion
[ 10718 10713 10712 10709 ] final  133.51 input   66.30 | X-H torsion
[ 10763 10752 10751 10750 ] final  114.12 input  -60.55 | X-H torsion
[ 11005 11000 10999 10996 ] final  108.96 input  -57.11 | X-H torsion

> <Gold.Protein.ActiveResidues>
 VAL166  LYS551  ARG553  GLY616  TRP617  ASP618  TYR619  PRO620  LYS621  CYS622 
 ASP623  PHE694  ASN695  SER759  ASP760  ASP761  ALA762  ILE779  LEU786  VAL792 
 PHE793  MET794  SER795  GLU796  ALA797  LYS798  CYS799  TRP800  GLU811  SER814 

> <Gold.Protein.RotatedAtoms>
  151.7547  135.0824  160.0335 H   0  0  0  0  0  0  0  0  0  0  0  0  # atno 6907 bound_to 6896
  152.3393  133.6044  159.5874 H   0  0  0  0  0  0  0  0  0  0  0  0  # atno 6908 bound_to 6896
  150.7470  133.9662  159.3573 H   0  0  0  0  0  0  0  0  0  0  0  0  # atno 6909 bound_to 6896
  144.8786  139.5734  143.5853 H   0  0  0  0  0  0  0  0  0  0  0  0  # atno 7974 bound_to 7965
  155.6989  140.3495  155.4924 H   0  0  0  0  0  0  0  0  0  0  0  0  # atno 8008 bound_to 7997
  155.9458  140.1110  157.1040 H   0  0  0  0  0  0  0  0  0  0  0  0  # atno 8009 bound_to 7997
  154.4112  140.1204  156.4974 H   0  0  0  0  0  0  0  0  0  0  0  0  # atno 8010 bound_to 7997
  140.3488  144.2377  150.6148 H   0  0  0  0  0  0  0  0  0  0  0  0  # atno 10167 bound_to 10162
  157.4765  131.1083  150.9736 H   0  0  0  0  0  0  0  0  0  0  0  0  # atno 10718 bound_to 10713
  153.5025  135.3635  155.2547 H   0  0  0  0  0  0  0  0  0  0  0  0  # atno 10763 bound_to 10752
  154.8747  135.4003  154.3462 H   0  0  0  0  0  0  0  0  0  0  0  0  # atno 10764 bound_to 10752
  153.4100  135.7077  153.6432 H   0  0  0  0  0  0  0  0  0  0  0  0  # atno 10765 bound_to 10752
  139.8853  134.9445  156.6053 H   0  0  0  0  0  0  0  0  0  0  0  0  # atno 11005 bound_to 11000
  146.2979  139.7335  142.9113 LP  0  0  0  0  0  0  0  0  0  0  0  0  # atno 17320 bound_to 7965
  145.3996  141.0383  143.3078 LP  0  0  0  0  0  0  0  0  0  0  0  0  # atno 17321 bound_to 7965
  140.5239  143.2259  151.8346 LP  0  0  0  0  0  0  0  0  0  0  0  0  # atno 17342 bound_to 10162
  139.4829  144.4803  151.9314 LP  0  0  0  0  0  0  0  0  0  0  0  0  # atno 17343 bound_to 10162
  157.0483  130.5777  149.5366 LP  0  0  0  0  0  0  0  0  0  0  0  0  # atno 17370 bound_to 10713
  156.0100  130.5190  150.7956 LP  0  0  0  0  0  0  0  0  0  0  0  0  # atno 17371 bound_to 10713
  140.7852  133.8627  155.8601 LP  0  0  0  0  0  0  0  0  0  0  0  0  # atno 17394 bound_to 11000
  140.9725  134.1512  157.4564 LP  0  0  0  0  0  0  0  0  0  0  0  0  # atno 17395 bound_to 11000

$$$$
