AV-unprocessed.smi:2895|AV-procd|sdf|11131|dock3
  -GOLD-   2272016 03D 1   1.00000     0.00000
 Structure written by MMmdl.
 53 56  0  0  0  0  0  0  0  0  2 V2000
  148.6453  138.9348  154.5962 O   0  0  0  0  0  0  0  0  0  0  0  0
  149.6871  138.8096  155.2410 C   0  0  0  0  0  0  0  0  0  0  0  0
  150.2353  137.6065  155.4822 N   0  0  0  0  0  0  0  0  0  0  0  0
  149.6825  136.3277  155.0503 C   0  0  0  0  0  0  0  0  0  0  0  0
  150.5854  135.1515  155.4584 C   0  0  0  0  0  0  0  0  0  0  0  0
  150.0027  133.8124  155.0505 C   0  0  0  0  0  0  0  0  0  0  0  0
  149.9421  132.7457  155.9707 C   0  0  0  0  0  0  0  0  0  0  0  0
  149.3909  131.5208  155.5444 C   0  0  0  0  0  0  0  0  0  0  0  0
  148.9165  131.3153  154.2967 N   0  0  0  0  0  0  0  0  0  0  0  0
  148.9781  132.3418  153.4212 C   0  0  0  0  0  0  0  0  0  0  0  0
  149.5093  133.6062  153.7457 C   0  0  0  0  0  0  0  0  0  0  0  0
  150.3851  139.8640  155.7347 N   0  0  0  0  0  0  0  0  0  0  0  0
  151.5337  139.7946  156.6518 C   0  0  0  0  0  0  0  0  0  0  0  0
  151.0953  140.3011  158.0403 C   0  0  0  0  0  0  0  0  0  0  0  0
  150.5337  141.6816  157.9804 N   0  3  0  0  0  0  0  0  0  0  0  0
  151.5582  142.7649  157.8778 C   0  0  1  0  0  0  0  0  0  0  0  0
  150.9996  144.1854  158.1390 C   0  0  0  0  0  0  0  0  0  0  0  0
  151.9866  144.7692  159.1672 C   0  0  1  0  0  0  0  0  0  0  0  0
  151.7013  144.1391  160.5410 C   0  0  0  0  0  0  0  0  0  0  0  0
  152.1984  142.6945  160.3552 C   0  0  0  0  0  0  0  0  0  0  0  0
  152.7199  142.6910  158.9015 C   0  0  2  0  0  0  0  0  0  0  0  0
  153.2991  144.0970  158.7840 C   0  0  0  0  0  0  0  0  0  0  0  0
  149.4596  141.7866  156.9504 C   0  0  0  0  0  0  0  0  0  0  0  0
  149.9143  141.2447  155.5793 C   0  0  0  0  0  0  0  0  0  0  0  0
  151.1009  137.5747  156.0008 H   0  0  0  0  0  0  0  0  0  0  0  0
  148.6774  136.2015  155.4564 H   0  0  0  0  0  0  0  0  0  0  0  0
  149.5781  136.3550  153.9653 H   0  0  0  0  0  0  0  0  0  0  0  0
  151.5734  135.2669  155.0100 H   0  0  0  0  0  0  0  0  0  0  0  0
  150.7373  135.1450  156.5385 H   0  0  0  0  0  0  0  0  0  0  0  0
  150.3075  132.8613  156.9808 H   0  0  0  0  0  0  0  0  0  0  0  0
  149.3288  130.6840  156.2243 H   0  0  0  0  0  0  0  0  0  0  0  0
  148.5924  132.1502  152.4309 H   0  0  0  0  0  0  0  0  0  0  0  0
  149.5359  134.3943  153.0075 H   0  0  0  0  0  0  0  0  0  0  0  0
  151.9621  138.7976  156.7520 H   0  0  0  0  0  0  0  0  0  0  0  0
  152.3409  140.4142  156.2598 H   0  0  0  0  0  0  0  0  0  0  0  0
  150.3159  139.6423  158.4256 H   0  0  0  0  0  0  0  0  0  0  0  0
  151.9128  140.2245  158.7551 H   0  0  0  0  0  0  0  0  0  0  0  0
  151.9930  142.7390  156.8779 H   0  0  0  0  0  0  0  0  0  0  0  0
  150.9997  144.7695  157.2181 H   0  0  0  0  0  0  0  0  0  0  0  0
  149.9820  144.1873  158.5319 H   0  0  0  0  0  0  0  0  0  0  0  0
  152.0104  145.8593  159.1834 H   0  0  0  0  0  0  0  0  0  0  0  0
  152.2699  144.6423  161.3243 H   0  0  0  0  0  0  0  0  0  0  0  0
  150.6460  144.1869  160.8118 H   0  0  0  0  0  0  0  0  0  0  0  0
  153.0083  142.4805  161.0539 H   0  0  0  0  0  0  0  0  0  0  0  0
  151.4128  141.9591  160.5286 H   0  0  0  0  0  0  0  0  0  0  0  0
  153.4438  141.9025  158.6947 H   0  0  0  0  0  0  0  0  0  0  0  0
  153.6358  144.3474  157.7764 H   0  0  0  0  0  0  0  0  0  0  0  0
  154.1084  144.2932  159.4899 H   0  0  0  0  0  0  0  0  0  0  0  0
  148.6053  141.2032  157.2967 H   0  0  0  0  0  0  0  0  0  0  0  0
  149.0977  142.8092  156.8501 H   0  0  0  0  0  0  0  0  0  0  0  0
  150.7213  141.8545  155.1719 H   0  0  0  0  0  0  0  0  0  0  0  0
  149.0974  141.3346  154.8621 H   0  0  0  0  0  0  0  0  0  0  0  0
  150.0857  141.8360  158.8725 H   0  0  0  0  0  0  0  0  0  0  0  0
  1  2  2  0  0  0  0
  2  3  1  0  0  0  0
  2 12  1  0  0  0  0
  3  4  1  0  0  0  0
  3 25  1  0  0  0  0
  4  5  1  0  0  0  0
  4 26  1  0  0  0  0
  4 27  1  0  0  0  0
  5  6  1  0  0  0  0
  5 28  1  0  0  0  0
  5 29  1  0  0  0  0
  6 11  1  0  0  0  0
  6  7  2  0  0  0  0
  7  8  1  0  0  0  0
  7 30  1  0  0  0  0
  8  9  2  0  0  0  0
  8 31  1  0  0  0  0
  9 10  1  0  0  0  0
 10 11  2  0  0  0  0
 10 32  1  0  0  0  0
 11 33  1  0  0  0  0
 12 24  1  0  0  0  0
 12 13  1  0  0  0  0
 13 14  1  0  0  0  0
 13 34  1  0  0  0  0
 13 35  1  0  0  0  0
 14 15  1  0  0  0  0
 14 36  1  0  0  0  0
 14 37  1  0  0  0  0
 15 16  1  0  0  0  0
 15 23  1  0  0  0  0
 15 53  1  0  0  0  0
 16 21  1  0  0  0  0
 16 17  1  0  0  0  0
 16 38  1  0  0  0  0
 17 18  1  0  0  0  0
 17 39  1  0  0  0  0
 17 40  1  0  0  0  0
 18 22  1  0  0  0  0
 18 19  1  0  0  0  0
 18 41  1  0  0  0  0
 19 20  1  0  0  0  0
 19 42  1  0  0  0  0
 19 43  1  0  0  0  0
 20 21  1  0  0  0  0
 20 44  1  0  0  0  0
 20 45  1  0  0  0  0
 21 22  1  0  0  0  0
 21 46  1  0  0  0  0
 22 47  1  0  0  0  0
 22 48  1  0  0  0  0
 23 24  1  0  0  0  0
 23 49  1  0  0  0  0
 23 50  1  0  0  0  0
 24 51  1  0  0  0  0
 24 52  1  0  0  0  0
M  CHG  1  15   1
M  END
> <s_m_source_file>
AV-unprocessed.smi

> <i_m_source_file_index>
2895

> <i_lp_mmshare_version>
43012

> <i_f3d_flags>
0

> <s_epik_input>
W0NIMl0xW0NIMl1bQ0BASF0oW0NIMl0yKVtDQEBIXShbQ0gyXVtDQEhdMTIpTihbQ0gyXVtDSDJdMylbQ0gyXVtDSDJdTjNDKD1PKVtOSF1bQ0gyXVtDSDJdYzRbY0hdW2NIXW5bY0hdW2NIXTQ=

> <s_epik_cmdline>
J2VwaWtfcHl0aG9uJywgJy1waCcsICc3LjAnLCAnLXRuJywgJzgnLCAnLW1hJywgJzIwMCcsICctbWV0YWxfYmluZGluZycsICctaW1hZScsICc8aW5maWxlLm1hZT4nLCAnLW9tYWUnLCAnPG91dGZpbGUubWFlPic=

> <r_epik_Ionization_Penalty>
0.0566172

> <r_epik_Ionization_Penalty_Charging>
0.00262064

> <r_epik_Ionization_Penalty_Neutral>
0.0539965

> <r_epik_State_Penalty>
0.0463959

> <r_epik_Charging_Adjusted_Penalty>
0.0490165

> <i_epik_Tot_Q>
1

> <i_epik_Tot_abs_Q>
1

> <r_epik_Metal_State_Penalty>
0.0424856

> <b_epik_Metal_Only>
0

> <s_lp_Force_Field>
OPLS_2005

> <r_lp_Energy>
99.8283

> <b_lp_Chiralities_Consistent>
1

> <s_lp_Variant>
AV-unprocessed.smi:2895-4

> <Gold.Version>
5.8.1

> <Gold.Id.Protein>
6NUR|6NUR_protein|mol2

> <Gold.PLP.Fitness>
47.6269

> <Gold.PLP.PLP>
-45.0034

> <Gold.PLP.part.hbond>
0.0000

> <Gold.PLP.part.metal>
0.0000

> <Gold.PLP.part.buried>
-5.2845

> <Gold.PLP.part.nonpolar>
-40.3186

> <Gold.PLP.part.repulsive>
0.2832

> <Gold.PLP.ligand.clash>
0.0000

> <Gold.PLP.ligand.torsion>
0.2288

> <Gold.PLP.Chemscore.Hbond>
0.0000

> <Gold.PLP.Chemscore.CHOScore>
1.0000

> <Gold.PLP.Chemscore.Metal>
0.0000

> <Gold.Chemscore.Hbonds>
donor molecule, donor type, donor heavy atom, donor atom, acceptor molecule, acceptor atom, score
      L1  C    10    32       P1 10747  1.00

> <Gold.PLP.Chemscore.Internal.Correction>
0.0811

> <Gold.Rescore>
     Score         DG    S(hbond)    S(metal)    S(lipo)     H(rot)  DE(clash)    DE(int)     intcor
     18.24     -18.45       0.00        0.00     140.87       1.37       0.04       0.16       ----

> <Gold.Chemscore.Fitness>
18.2390

> <Gold.Chemscore.DG>
-18.4463

> <Gold.Chemscore.ZeroCoef>
-5.4800

> <Gold.Chemscore.Hbond>
0.0000

> <Gold.Chemscore.Metal>
0.0000

> <Gold.Chemscore.Lipo>
140.8671

> <Gold.Chemscore.Internal_Hbond>
0.0000

> <Gold.Chemscore.DEClash>
0.0434

> <Gold.Chemscore.DEInternal>
0.1639

> <Gold.Chemscore.Rot>
1.3731

> <Gold.Chemscore.Internal.Correction>
   9.000000E+99

> <Gold.Chemscore.Hbond.Weighted>
-0.0000

> <Gold.Chemscore.Metal.Weighted>
-0.0000

> <Gold.Chemscore.Lipo.Weighted>
-16.4814

> <Gold.Chemscore.Internal_Hbond.Weighted>
0.0000

> <Gold.Chemscore.DEClash.Weighted>
0.0434

> <Gold.Chemscore.DEInternal.Weighted>
0.1639

> <Gold.Chemscore.Rot.Weighted>
3.5152

> <Gold.Chemscore.Internal.Correction.Weighted>
   9.000000E+99

> <Gold.Protein.RotatedTorsions>
[ 6907 6896 6895 6894 ] final -174.67 input  -60.11 | X-H torsion
[ 7974 7965 7964 7962 ] final  -55.86 input  175.53 | X-H torsion
[ 8008 7997 7996 7995 ] final   84.21 input   59.86 | X-H torsion
[ 10167 10162 10161 10158 ] final  -13.47 input  -65.29 | X-H torsion
[ 10718 10713 10712 10709 ] final   54.95 input   66.30 | X-H torsion
[ 10763 10752 10751 10750 ] final  -76.38 input  -60.55 | X-H torsion
[ 11005 11000 10999 10996 ] final -134.77 input  -57.11 | X-H torsion

> <Gold.Protein.ActiveResidues>
 VAL166  LYS551  ARG553  GLY616  TRP617  ASP618  TYR619  PRO620  LYS621  CYS622 
 ASP623  PHE694  ASN695  SER759  ASP760  ASP761  ALA762  ILE779  LEU786  VAL792 
 PHE793  MET794  SER795  GLU796  ALA797  LYS798  CYS799  TRP800  GLU811  SER814 

> <Gold.Protein.RotatedAtoms>
  151.5762  133.3383  159.2999 H   0  0  0  0  0  0  0  0  0  0  0  0  # atno 6907 bound_to 6896
  150.8339  134.7607  159.6888 H   0  0  0  0  0  0  0  0  0  0  0  0  # atno 6908 bound_to 6896
  152.4419  134.5581  159.9938 H   0  0  0  0  0  0  0  0  0  0  0  0  # atno 6909 bound_to 6896
  145.8694  140.8227  142.9896 H   0  0  0  0  0  0  0  0  0  0  0  0  # atno 7974 bound_to 7965
  155.9341  140.3413  155.6273 H   0  0  0  0  0  0  0  0  0  0  0  0  # atno 8008 bound_to 7997
  155.7121  140.0773  157.2385 H   0  0  0  0  0  0  0  0  0  0  0  0  # atno 8009 bound_to 7997
  154.4090  140.1621  156.2295 H   0  0  0  0  0  0  0  0  0  0  0  0  # atno 8010 bound_to 7997
  140.7183  143.5423  150.9395 H   0  0  0  0  0  0  0  0  0  0  0  0  # atno 10167 bound_to 10162
  157.5302  130.8625  149.8677 H   0  0  0  0  0  0  0  0  0  0  0  0  # atno 10718 bound_to 10713
  154.4990  135.5800  153.6516 H   0  0  0  0  0  0  0  0  0  0  0  0  # atno 10763 bound_to 10752
  152.9875  135.6131  154.3027 H   0  0  0  0  0  0  0  0  0  0  0  0  # atno 10764 bound_to 10752
  154.2933  135.2848  155.2624 H   0  0  0  0  0  0  0  0  0  0  0  0  # atno 10765 bound_to 10752
  140.8960  134.1751  157.4494 H   0  0  0  0  0  0  0  0  0  0  0  0  # atno 11005 bound_to 11000
  144.6726  140.1215  143.7449 LP  0  0  0  0  0  0  0  0  0  0  0  0  # atno 17320 bound_to 7965
  145.9155  139.2513  143.1412 LP  0  0  0  0  0  0  0  0  0  0  0  0  # atno 17321 bound_to 7965
  139.9145  143.6679  152.3109 LP  0  0  0  0  0  0  0  0  0  0  0  0  # atno 17342 bound_to 10162
  139.7075  144.7626  151.1169 LP  0  0  0  0  0  0  0  0  0  0  0  0  # atno 17343 bound_to 10162
  156.0417  130.3737  150.1419 LP  0  0  0  0  0  0  0  0  0  0  0  0  # atno 17370 bound_to 10713
  156.9604  130.9803  151.3480 LP  0  0  0  0  0  0  0  0  0  0  0  0  # atno 17371 bound_to 10713
  139.8735  134.9878  156.5385 LP  0  0  0  0  0  0  0  0  0  0  0  0  # atno 17394 bound_to 11000
  140.8289  133.8295  155.8965 LP  0  0  0  0  0  0  0  0  0  0  0  0  # atno 17395 bound_to 11000

$$$$
