AV-unprocessed.smi:1430|AV-procd|sdf|5822|dock1
  -GOLD-   22720 5473D 1   1.00000     0.00000
 Structure written by MMmdl.
 46 47  0  0  0  0  0  0  0  0  1 V2000
  144.9479  132.2074  150.4983 C   0  0  0  0  0  0  0  0  0  0  0  0
  143.9136  133.0075  151.0608 O   0  0  0  0  0  0  0  0  0  0  0  0
  144.2385  134.2647  151.5276 C   0  0  0  0  0  0  0  0  0  0  0  0
  143.2045  135.0960  152.0010 C   0  0  0  0  0  0  0  0  0  0  0  0
  143.5307  136.3809  152.4741 C   0  0  0  0  0  0  0  0  0  0  0  0
  144.8757  136.8017  152.4545 C   0  0  0  0  0  0  0  0  0  0  0  0
  145.1714  138.1002  152.9516 N   0  0  0  0  0  0  0  0  0  0  0  0
  146.2264  138.5027  153.6811 C   0  0  0  0  0  0  0  0  0  0  0  0
  147.1562  137.7854  154.0490 O   0  0  0  0  0  0  0  0  0  0  0  0
  146.1531  139.8132  153.9528 N   0  0  0  0  0  0  0  0  0  0  0  0
  147.1435  140.5694  154.7094 C   0  0  0  0  0  0  0  0  0  0  0  0
  148.2713  141.0837  153.7955 C   0  0  0  0  0  0  0  0  0  0  0  0
  149.6261  140.8058  154.2698 N   0  0  0  0  0  0  0  0  0  0  0  0
  149.8790  141.3508  155.6016 C   0  0  0  0  0  0  0  0  0  0  0  0
  151.3007  141.0251  156.0994 C   0  0  1  0  0  0  0  0  0  0  0  0
  151.5398  141.5176  157.5304 C   0  0  0  0  0  0  0  0  0  0  0  0
  151.4942  139.6135  156.0734 O   0  0  0  0  0  0  0  0  0  0  0  0
  151.3078  139.0446  154.7804 C   0  0  1  0  0  0  0  0  0  0  0  0
  151.5571  137.5357  154.8764 C   0  0  0  0  0  0  0  0  0  0  0  0
  149.8839  139.3704  154.2909 C   0  0  0  0  0  0  0  0  0  0  0  0
  145.8441  135.8874  151.9716 C   0  0  0  0  0  0  0  0  0  0  0  0
  145.5374  134.6533  151.5172 N   0  0  0  0  0  0  0  0  0  0  0  0
  144.5308  131.2531  150.1773 H   0  0  0  0  0  0  0  0  0  0  0  0
  145.7309  131.9970  151.2282 H   0  0  0  0  0  0  0  0  0  0  0  0
  145.3922  132.6851  149.6238 H   0  0  0  0  0  0  0  0  0  0  0  0
  142.1800  134.7541  152.0015 H   0  0  0  0  0  0  0  0  0  0  0  0
  142.7540  137.0349  152.8433 H   0  0  0  0  0  0  0  0  0  0  0  0
  144.5276  138.8251  152.6706 H   0  0  0  0  0  0  0  0  0  0  0  0
  145.3552  140.3270  153.6087 H   0  0  0  0  0  0  0  0  0  0  0  0
  146.6656  141.3998  155.2320 H   0  0  0  0  0  0  0  0  0  0  0  0
  147.5385  139.9035  155.4759 H   0  0  0  0  0  0  0  0  0  0  0  0
  148.1421  140.6765  152.7915 H   0  0  0  0  0  0  0  0  0  0  0  0
  148.1535  142.1638  153.6968 H   0  0  0  0  0  0  0  0  0  0  0  0
  149.7539  142.4330  155.5963 H   0  0  0  0  0  0  0  0  0  0  0  0
  149.1470  140.9539  156.3068 H   0  0  0  0  0  0  0  0  0  0  0  0
  152.0340  141.4938  155.4410 H   0  0  0  0  0  0  0  0  0  0  0  0
  151.4151  142.5986  157.5989 H   0  0  0  0  0  0  0  0  0  0  0  0
  152.5507  141.2782  157.8615 H   0  0  0  0  0  0  0  0  0  0  0  0
  150.8419  141.0547  158.2287 H   0  0  0  0  0  0  0  0  0  0  0  0
  152.0383  139.4774  154.0947 H   0  0  0  0  0  0  0  0  0  0  0  0
  151.4362  137.0557  153.9050 H   0  0  0  0  0  0  0  0  0  0  0  0
  150.8621  137.0640  155.5718 H   0  0  0  0  0  0  0  0  0  0  0  0
  152.5694  137.3297  155.2254 H   0  0  0  0  0  0  0  0  0  0  0  0
  149.1564  138.8756  154.9366 H   0  0  0  0  0  0  0  0  0  0  0  0
  149.7441  138.9569  153.2913 H   0  0  0  0  0  0  0  0  0  0  0  0
  146.8971  136.1195  151.9572 H   0  0  0  0  0  0  0  0  0  0  0  0
  1  2  1  0  0  0  0
  1 23  1  0  0  0  0
  1 24  1  0  0  0  0
  1 25  1  0  0  0  0
  2  3  1  0  0  0  0
  3 22  1  0  0  0  0
  3  4  2  0  0  0  0
  4  5  1  0  0  0  0
  4 26  1  0  0  0  0
  5  6  2  0  0  0  0
  5 27  1  0  0  0  0
  6  7  1  0  0  0  0
  6 21  1  0  0  0  0
  7  8  1  0  0  0  0
  7 28  1  0  0  0  0
  8  9  2  0  0  0  0
  8 10  1  0  0  0  0
 10 11  1  0  0  0  0
 10 29  1  0  0  0  0
 11 12  1  0  0  0  0
 11 30  1  0  0  0  0
 11 31  1  0  0  0  0
 12 13  1  0  0  0  0
 12 32  1  0  0  0  0
 12 33  1  0  0  0  0
 13 20  1  0  0  0  0
 13 14  1  0  0  0  0
 14 15  1  0  0  0  0
 14 34  1  0  0  0  0
 14 35  1  0  0  0  0
 15 16  1  0  0  0  0
 15 17  1  0  0  0  0
 15 36  1  0  0  0  0
 16 37  1  0  0  0  0
 16 38  1  0  0  0  0
 16 39  1  0  0  0  0
 17 18  1  0  0  0  0
 18 19  1  0  0  0  0
 18 20  1  0  0  0  0
 18 40  1  0  0  0  0
 19 41  1  0  0  0  0
 19 42  1  0  0  0  0
 19 43  1  0  0  0  0
 20 44  1  0  0  0  0
 20 45  1  0  0  0  0
 21 22  2  0  0  0  0
 21 46  1  0  0  0  0
M  END
> <s_m_source_file>
AV-unprocessed.smi

> <i_m_source_file_index>
1430

> <i_lp_mmshare_version>
43012

> <i_f3d_flags>
0

> <s_epik_input>
W0NIM11PYzFbY0hdW2NIXWMoW2NIXW4xKVtOSF1DKD1PKVtOSF1bQ0gyXVtDSDJdTjJbQ0gyXVtDQEBIXShbQ0gzXSlPW0NAQEhdKFtDSDNdKVtDSDJdMg==

> <s_epik_cmdline>
J2VwaWtfcHl0aG9uJywgJy1waCcsICc3LjAnLCAnLXRuJywgJzgnLCAnLW1hJywgJzIwMCcsICctbWV0YWxfYmluZGluZycsICctaW1hZScsICc8aW5maWxlLm1hZT4nLCAnLW9tYWUnLCAnPG91dGZpbGUubWFlPic=

> <r_lp_tautomer_probability>
1

> <r_epik_Ionization_Penalty>
0.266083

> <r_epik_Ionization_Penalty_Charging>
0

> <r_epik_Ionization_Penalty_Neutral>
0.266083

> <r_epik_State_Penalty>
0.257924

> <r_epik_Charging_Adjusted_Penalty>
0.257924

> <i_epik_Tot_Q>
0

> <i_epik_Tot_abs_Q>
0

> <r_epik_Metal_State_Penalty>
0.257922

> <b_epik_Metal_Only>
0

> <s_lp_Force_Field>
OPLS_2005

> <r_lp_Energy>
23.3408

> <b_lp_Chiralities_Consistent>
1

> <s_lp_Variant>
AV-unprocessed.smi:1430-1

> <Gold.Version>
5.8.1

> <Gold.Id.Protein>
6NUR|6NUR_protein|mol2

> <Gold.PLP.Fitness>
43.7729

> <Gold.PLP.PLP>
-36.1241

> <Gold.PLP.part.hbond>
-3.0000

> <Gold.PLP.part.metal>
0.0000

> <Gold.PLP.part.buried>
-5.1104

> <Gold.PLP.part.nonpolar>
-28.7795

> <Gold.PLP.part.repulsive>
0.5976

> <Gold.PLP.ligand.clash>
0.0000

> <Gold.PLP.ligand.torsion>
0.8386

> <Gold.PLP.Chemscore.Hbond>
2.0909

> <Gold.PLP.Chemscore.CHOScore>
1.0000

> <Gold.PLP.Chemscore.Metal>
0.0000

> <Gold.Chemscore.Hbonds>
donor molecule, donor type, donor heavy atom, donor atom, acceptor molecule, acceptor atom, score
      L1  H     7    28       P1 10175  1.00
      L1  H    10    29       P1 10175  1.00
      P1  H  7989  7998       L1    13  0.06
      L1  C    21    46       P1  7948  1.00

> <Gold.PLP.Chemscore.Internal.Correction>
0.0534

> <Gold.Rescore>
     Score         DG    S(hbond)    S(metal)    S(lipo)     H(rot)  DE(clash)    DE(int)     intcor
     16.45     -17.51       1.97        0.00      84.17       1.71       0.23       0.83       ----

> <Gold.Chemscore.Fitness>
16.4548

> <Gold.Chemscore.DG>
-17.5146

> <Gold.Chemscore.ZeroCoef>
-5.4800

> <Gold.Chemscore.Hbond>
1.9659

> <Gold.Chemscore.Metal>
0.0000

> <Gold.Chemscore.Lipo>
84.1687

> <Gold.Chemscore.Internal_Hbond>
0.0000

> <Gold.Chemscore.DEClash>
0.2341

> <Gold.Chemscore.DEInternal>
0.8256

> <Gold.Chemscore.Rot>
1.7107

> <Gold.Chemscore.Internal.Correction>
   9.000000E+99

> <Gold.Chemscore.Hbonds>
donor molecule, donor type, donor heavy atom, donor atom, acceptor molecule, acceptor atom, score
      L1  H     7    28       P1 10175  1.00
      L1  H    10    29       P1 10175  0.90

> <Gold.Chemscore.Hbond.Weighted>
-6.5663

> <Gold.Chemscore.Metal.Weighted>
-0.0000

> <Gold.Chemscore.Lipo.Weighted>
-9.8477

> <Gold.Chemscore.Internal_Hbond.Weighted>
0.0000

> <Gold.Chemscore.DEClash.Weighted>
0.2341

> <Gold.Chemscore.DEInternal.Weighted>
0.8256

> <Gold.Chemscore.Rot.Weighted>
4.3794

> <Gold.Chemscore.Internal.Correction.Weighted>
   9.000000E+99

> <Gold.Protein.RotatedTorsions>
[ 6907 6896 6895 6894 ] final -102.44 input  -60.11 | X-H torsion
[ 7974 7965 7964 7962 ] final  -33.29 input  175.53 | X-H torsion
[ 8008 7997 7996 7995 ] final -156.56 input   59.86 | X-H torsion
[ 10167 10162 10161 10158 ] final -151.40 input  -65.29 | X-H torsion
[ 10718 10713 10712 10709 ] final   50.23 input   66.30 | X-H torsion
[ 10763 10752 10751 10750 ] final -174.99 input  -60.55 | X-H torsion
[ 11005 11000 10999 10996 ] final   53.73 input  -57.11 | X-H torsion

> <Gold.Protein.ActiveResidues>
 VAL166  LYS551  ARG553  GLY616  TRP617  ASP618  TYR619  PRO620  LYS621  CYS622 
 ASP623  PHE694  ASN695  SER759  ASP760  ASP761  ALA762  ILE779  LEU786  VAL792 
 PHE793  MET794  SER795  GLU796  ALA797  LYS798  CYS799  TRP800  GLU811  SER814 

> <Gold.Protein.RotatedAtoms>
  150.7196  134.0580  159.3821 H   0  0  0  0  0  0  0  0  0  0  0  0  # atno 6907 bound_to 6896
  151.8559  135.0539  160.0473 H   0  0  0  0  0  0  0  0  0  0  0  0  # atno 6908 bound_to 6896
  152.2754  133.5385  159.5501 H   0  0  0  0  0  0  0  0  0  0  0  0  # atno 6909 bound_to 6896
  146.0922  140.5898  142.8859 H   0  0  0  0  0  0  0  0  0  0  0  0  # atno 7974 bound_to 7965
  155.7190  140.0787  157.2339 H   0  0  0  0  0  0  0  0  0  0  0  0  # atno 8008 bound_to 7997
  154.4048  140.1616  156.2435 H   0  0  0  0  0  0  0  0  0  0  0  0  # atno 8009 bound_to 7997
  155.9214  140.3397  155.6178 H   0  0  0  0  0  0  0  0  0  0  0  0  # atno 8010 bound_to 7997
  139.7271  143.8866  152.2523 H   0  0  0  0  0  0  0  0  0  0  0  0  # atno 10167 bound_to 10162
  157.4864  130.8348  149.8152 H   0  0  0  0  0  0  0  0  0  0  0  0  # atno 10718 bound_to 10713
  154.5898  135.2844  155.0648 H   0  0  0  0  0  0  0  0  0  0  0  0  # atno 10763 bound_to 10752
  154.1952  135.6434  153.5075 H   0  0  0  0  0  0  0  0  0  0  0  0  # atno 10764 bound_to 10752
  153.0117  135.5456  154.6579 H   0  0  0  0  0  0  0  0  0  0  0  0  # atno 10765 bound_to 10752
  140.0744  134.5425  155.9012 H   0  0  0  0  0  0  0  0  0  0  0  0  # atno 11005 bound_to 11000
  144.7369  140.4832  143.6897 LP  0  0  0  0  0  0  0  0  0  0  0  0  # atno 17320 bound_to 7965
  145.6017  139.1504  143.3125 LP  0  0  0  0  0  0  0  0  0  0  0  0  # atno 17321 bound_to 7965
  139.8779  144.7034  150.8912 LP  0  0  0  0  0  0  0  0  0  0  0  0  # atno 17342 bound_to 10162
  140.7764  143.3685  151.1693 LP  0  0  0  0  0  0  0  0  0  0  0  0  # atno 17343 bound_to 10162
  156.0149  130.3818  150.2143 LP  0  0  0  0  0  0  0  0  0  0  0  0  # atno 17370 bound_to 10713
  157.0330  131.0013  151.3306 LP  0  0  0  0  0  0  0  0  0  0  0  0  # atno 17371 bound_to 10713
  141.2024  133.6624  156.6003 LP  0  0  0  0  0  0  0  0  0  0  0  0  # atno 17394 bound_to 11000
  140.3580  134.7712  157.4514 LP  0  0  0  0  0  0  0  0  0  0  0  0  # atno 17395 bound_to 11000

$$$$
