AV-unprocessed.smi:2137|AV-procd|sdf|8708|dock3
  -GOLD-   2272011473D 1   1.00000     0.00000
 Structure written by MMmdl.
 50 51  0  0  0  0  0  0  0  0  2 V2000
  145.9689  132.0960  149.3143 C   0  0  0  0  0  0  0  0  0  0  0  0
  145.8181  132.1439  150.8452 C   0  0  2  0  0  0  0  0  0  0  0  0
  144.4946  131.5276  151.3353 C   0  0  0  0  0  0  0  0  0  0  0  0
  143.3065  132.4556  151.0457 C   0  0  0  0  0  0  0  0  0  0  0  0
  143.5557  133.8631  151.6101 C   0  0  0  0  0  0  0  0  0  0  0  0
  144.8199  134.4358  151.0795 N   0  3  1  0  0  0  0  0  0  0  0  0
  145.0114  135.8518  151.4832 C   0  0  0  0  0  0  0  0  0  0  0  0
  145.1380  136.0132  153.0079 C   0  0  0  0  0  0  0  0  0  0  0  0
  144.5190  137.3253  153.5077 C   0  0  0  0  0  0  0  0  0  0  0  0
  145.4546  138.4291  153.3365 N   0  0  0  0  0  0  0  0  0  0  0  0
  146.5884  138.5860  154.0347 C   0  0  0  0  0  0  0  0  0  0  0  0
  146.9461  137.8134  154.9246 O   0  0  0  0  0  0  0  0  0  0  0  0
  147.4334  139.8184  153.6863 C   0  0  0  0  0  0  0  0  0  0  0  0
  148.7567  139.7937  154.3225 N   0  0  0  0  0  0  0  0  0  0  0  0
  149.6060  138.7254  154.0994 C   0  0  0  0  0  0  0  0  0  0  0  0
  150.8382  138.6274  154.6444 C   0  0  0  0  0  0  0  0  0  0  0  0
  151.3555  139.6735  155.5182 C   0  0  0  0  0  0  0  0  0  0  0  0
  152.4619  139.6142  156.0562 O   0  0  0  0  0  0  0  0  0  0  0  0
  150.4748  140.7636  155.7144 N   0  0  0  0  0  0  0  0  0  0  0  0
  150.9055  141.8386  156.5845 C   0  0  0  0  0  0  0  0  0  0  0  0
  149.1791  140.8513  155.1569 C   0  0  0  0  0  0  0  0  0  0  0  0
  148.4309  141.8054  155.3851 O   0  0  0  0  0  0  0  0  0  0  0  0
  145.9887  133.5722  151.4028 C   0  0  0  0  0  0  0  0  0  0  0  0
  145.2230  132.7113  148.8113 H   0  0  0  0  0  0  0  0  0  0  0  0
  145.8639  131.0765  148.9419 H   0  0  0  0  0  0  0  0  0  0  0  0
  146.9517  132.4554  149.0073 H   0  0  0  0  0  0  0  0  0  0  0  0
  146.6275  131.5356  151.2513 H   0  0  0  0  0  0  0  0  0  0  0  0
  144.3333  130.5505  150.8785 H   0  0  0  0  0  0  0  0  0  0  0  0
  144.5562  131.3551  152.4107 H   0  0  0  0  0  0  0  0  0  0  0  0
  143.1322  132.5150  149.9709 H   0  0  0  0  0  0  0  0  0  0  0  0
  142.3972  132.0379  151.4791 H   0  0  0  0  0  0  0  0  0  0  0  0
  142.7159  134.5054  151.3420 H   0  0  0  0  0  0  0  0  0  0  0  0
  143.5970  133.8326  152.7001 H   0  0  0  0  0  0  0  0  0  0  0  0
  145.9269  136.2350  151.0305 H   0  0  0  0  0  0  0  0  0  0  0  0
  144.1964  136.4630  151.0921 H   0  0  0  0  0  0  0  0  0  0  0  0
  144.6535  135.1819  153.5197 H   0  0  0  0  0  0  0  0  0  0  0  0
  146.1915  135.9775  153.2896 H   0  0  0  0  0  0  0  0  0  0  0  0
  143.6047  137.5499  152.9571 H   0  0  0  0  0  0  0  0  0  0  0  0
  144.2446  137.2212  154.5591 H   0  0  0  0  0  0  0  0  0  0  0  0
  145.2322  139.1167  152.6312 H   0  0  0  0  0  0  0  0  0  0  0  0
  147.5413  139.9079  152.6037 H   0  0  0  0  0  0  0  0  0  0  0  0
  146.8834  140.7060  154.0015 H   0  0  0  0  0  0  0  0  0  0  0  0
  149.2697  137.9249  153.4565 H   0  0  0  0  0  0  0  0  0  0  0  0
  151.4492  137.7624  154.4320 H   0  0  0  0  0  0  0  0  0  0  0  0
  150.4905  142.7818  156.2254 H   0  0  0  0  0  0  0  0  0  0  0  0
  151.9930  141.9211  156.5607 H   0  0  0  0  0  0  0  0  0  0  0  0
  150.5459  141.5985  157.5859 H   0  0  0  0  0  0  0  0  0  0  0  0
  146.1097  133.5311  152.4865 H   0  0  0  0  0  0  0  0  0  0  0  0
  146.9079  134.0036  151.0079 H   0  0  0  0  0  0  0  0  0  0  0  0
  144.7238  134.4374  150.0740 H   0  0  0  0  0  0  0  0  0  0  0  0
  1  2  1  0  0  0  0
  1 24  1  0  0  0  0
  1 25  1  0  0  0  0
  1 26  1  0  0  0  0
  2 23  1  0  0  0  0
  2  3  1  0  0  0  0
  2 27  1  0  0  0  0
  3  4  1  0  0  0  0
  3 28  1  0  0  0  0
  3 29  1  0  0  0  0
  4  5  1  0  0  0  0
  4 30  1  0  0  0  0
  4 31  1  0  0  0  0
  5  6  1  0  0  0  0
  5 32  1  0  0  0  0
  5 33  1  0  0  0  0
  6  7  1  0  0  0  0
  6 23  1  0  0  0  0
  6 50  1  0  0  0  0
  7  8  1  0  0  0  0
  7 34  1  0  0  0  0
  7 35  1  0  0  0  0
  8  9  1  0  0  0  0
  8 36  1  0  0  0  0
  8 37  1  0  0  0  0
  9 10  1  0  0  0  0
  9 38  1  0  0  0  0
  9 39  1  0  0  0  0
 10 11  1  0  0  0  0
 10 40  1  0  0  0  0
 11 12  2  0  0  0  0
 11 13  1  0  0  0  0
 13 14  1  0  0  0  0
 13 41  1  0  0  0  0
 13 42  1  0  0  0  0
 14 21  1  0  0  0  0
 14 15  1  0  0  0  0
 15 16  2  0  0  0  0
 15 43  1  0  0  0  0
 16 17  1  0  0  0  0
 16 44  1  0  0  0  0
 17 18  2  0  0  0  0
 17 19  1  0  0  0  0
 19 20  1  0  0  0  0
 19 21  1  0  0  0  0
 20 45  1  0  0  0  0
 20 46  1  0  0  0  0
 20 47  1  0  0  0  0
 21 22  2  0  0  0  0
 23 48  1  0  0  0  0
 23 49  1  0  0  0  0
M  CHG  1   6   1
M  END
> <s_m_source_file>
AV-unprocessed.smi

> <i_m_source_file_index>
2137

> <i_lp_mmshare_version>
43012

> <i_f3d_flags>
0

> <s_epik_input>
W0NIM11bQ0BASF0xW0NIMl1bQ0gyXVtDSDJdTihbQ0gyXTEpW0NIMl1bQ0gyXVtDSDJdW05IXUMoPU8pW0NIMl1uMltjSF1bY0hdYyg9TyluKFtDSDNdKWMyPU8=

> <s_epik_cmdline>
J2VwaWtfcHl0aG9uJywgJy1waCcsICc3LjAnLCAnLXRuJywgJzgnLCAnLW1hJywgJzIwMCcsICctbWV0YWxfYmluZGluZycsICctaW1hZScsICc8aW5maWxlLm1hZT4nLCAnLW9tYWUnLCAnPG91dGZpbGUubWFlPic=

> <r_lp_tautomer_probability>
1

> <r_epik_Ionization_Penalty>
0.000384839

> <r_epik_Ionization_Penalty_Charging>
0.000384812

> <r_epik_Ionization_Penalty_Neutral>
2.6907e-08

> <r_epik_State_Penalty>
0.000235226

> <r_epik_Charging_Adjusted_Penalty>
0.000620038

> <i_epik_Tot_Q>
1

> <i_epik_Tot_abs_Q>
1

> <r_epik_Metal_State_Penalty>
-0

> <b_epik_Metal_Only>
0

> <s_lp_Force_Field>
OPLS_2005

> <r_lp_Energy>
28.7219

> <b_lp_Chiralities_Consistent>
1

> <s_lp_Variant>
AV-unprocessed.smi:2137-3

> <Gold.Version>
5.8.1

> <Gold.Id.Protein>
6NUR|6NUR_protein|mol2

> <Gold.PLP.Fitness>
49.7185

> <Gold.PLP.PLP>
-42.9015

> <Gold.PLP.part.hbond>
-2.0000

> <Gold.PLP.part.metal>
0.0000

> <Gold.PLP.part.buried>
-5.6608

> <Gold.PLP.part.nonpolar>
-37.1650

> <Gold.PLP.part.repulsive>
1.1655

> <Gold.PLP.ligand.clash>
0.0000

> <Gold.PLP.ligand.torsion>
0.5020

> <Gold.PLP.Chemscore.Hbond>
1.5925

> <Gold.PLP.Chemscore.CHOScore>
1.0000

> <Gold.PLP.Chemscore.Metal>
0.0000

> <Gold.Chemscore.Hbonds>
donor molecule, donor type, donor heavy atom, donor atom, acceptor molecule, acceptor atom, score
      L1  H    10    40       P1 10175  0.59
      P1  H  7997  8009       L1    18  1.00
      L1  C    15    43       P1  7948  1.00

> <Gold.PLP.Chemscore.Internal.Correction>
0.0435

> <Gold.Rescore>
     Score         DG    S(hbond)    S(metal)    S(lipo)     H(rot)  DE(clash)    DE(int)     intcor
     14.29     -16.22       1.84        0.00      89.09       2.27       0.28       1.65       ----

> <Gold.Chemscore.Fitness>
14.2859

> <Gold.Chemscore.DG>
-16.2155

> <Gold.Chemscore.ZeroCoef>
-5.4800

> <Gold.Chemscore.Hbond>
1.8369

> <Gold.Chemscore.Metal>
0.0000

> <Gold.Chemscore.Lipo>
89.0919

> <Gold.Chemscore.Internal_Hbond>
0.0000

> <Gold.Chemscore.DEClash>
0.2807

> <Gold.Chemscore.DEInternal>
1.6489

> <Gold.Chemscore.Rot>
2.2748

> <Gold.Chemscore.Internal.Correction>
   9.000000E+99

> <Gold.Chemscore.Hbonds>
donor molecule, donor type, donor heavy atom, donor atom, acceptor molecule, acceptor atom, score
      L1  H    10    40       P1 10175  0.57
      P1  H  7997  8009       L1    18  0.99

> <Gold.Chemscore.Hbond.Weighted>
-6.1351

> <Gold.Chemscore.Metal.Weighted>
-0.0000

> <Gold.Chemscore.Lipo.Weighted>
-10.4237

> <Gold.Chemscore.Internal_Hbond.Weighted>
0.0000

> <Gold.Chemscore.DEClash.Weighted>
0.2807

> <Gold.Chemscore.DEInternal.Weighted>
1.6489

> <Gold.Chemscore.Rot.Weighted>
5.8234

> <Gold.Chemscore.Internal.Correction.Weighted>
   9.000000E+99

> <Gold.Protein.RotatedTorsions>
[ 6907 6896 6895 6894 ] final  176.01 input  -60.11 | X-H torsion
[ 7974 7965 7964 7962 ] final  165.15 input  175.53 | X-H torsion
[ 8008 7997 7996 7995 ] final -156.96 input   59.86 | X-H torsion
[ 10167 10162 10161 10158 ] final   15.26 input  -65.29 | X-H torsion
[ 10718 10713 10712 10709 ] final -108.12 input   66.30 | X-H torsion
[ 10763 10752 10751 10750 ] final  -95.98 input  -60.55 | X-H torsion
[ 11005 11000 10999 10996 ] final -173.08 input  -57.11 | X-H torsion

> <Gold.Protein.ActiveResidues>
 VAL166  LYS551  ARG553  GLY616  TRP617  ASP618  TYR619  PRO620  LYS621  CYS622 
 ASP623  PHE694  ASN695  SER759  ASP760  ASP761  ALA762  ILE779  LEU786  VAL792 
 PHE793  MET794  SER795  GLU796  ALA797  LYS798  CYS799  TRP800  GLU811  SER814 

> <Gold.Protein.RotatedAtoms>
  151.7271  133.3316  159.3330 H   0  0  0  0  0  0  0  0  0  0  0  0  # atno 6907 bound_to 6896
  150.7628  134.6397  159.6240 H   0  0  0  0  0  0  0  0  0  0  0  0  # atno 6908 bound_to 6896
  152.3616  134.6867  160.0257 H   0  0  0  0  0  0  0  0  0  0  0  0  # atno 6909 bound_to 6896
  144.7514  139.8429  143.6365 H   0  0  0  0  0  0  0  0  0  0  0  0  # atno 7974 bound_to 7965
  155.7251  140.0795  157.2314 H   0  0  0  0  0  0  0  0  0  0  0  0  # atno 8008 bound_to 7997
  154.4040  140.1605  156.2500 H   0  0  0  0  0  0  0  0  0  0  0  0  # atno 8009 bound_to 7997
  155.9161  140.3401  155.6139 H   0  0  0  0  0  0  0  0  0  0  0  0  # atno 8010 bound_to 7997
  140.5879  143.8853  150.6847 H   0  0  0  0  0  0  0  0  0  0  0  0  # atno 10167 bound_to 10162
  156.0470  130.5697  150.7916 H   0  0  0  0  0  0  0  0  0  0  0  0  # atno 10718 bound_to 10713
  154.7198  135.5100  153.8794 H   0  0  0  0  0  0  0  0  0  0  0  0  # atno 10763 bound_to 10752
  153.0852  135.6643  153.9972 H   0  0  0  0  0  0  0  0  0  0  0  0  # atno 10764 bound_to 10752
  153.9797  135.3030  155.3400 H   0  0  0  0  0  0  0  0  0  0  0  0  # atno 10765 bound_to 10752
  140.4898  134.5996  157.4950 H   0  0  0  0  0  0  0  0  0  0  0  0  # atno 11005 bound_to 11000
  146.1470  139.4542  143.0073 LP  0  0  0  0  0  0  0  0  0  0  0  0  # atno 17320 bound_to 7965
  145.6930  141.0159  143.1545 LP  0  0  0  0  0  0  0  0  0  0  0  0  # atno 17321 bound_to 7965
  140.2369  143.3693  152.1519 LP  0  0  0  0  0  0  0  0  0  0  0  0  # atno 17342 bound_to 10162
  139.5209  144.7039  151.5412 LP  0  0  0  0  0  0  0  0  0  0  0  0  # atno 17343 bound_to 10162
  157.5355  131.0938  150.9898 LP  0  0  0  0  0  0  0  0  0  0  0  0  # atno 17370 bound_to 10713
  157.0193  130.5667  149.5329 LP  0  0  0  0  0  0  0  0  0  0  0  0  # atno 17371 bound_to 10713
  139.9776  134.7189  155.9920 LP  0  0  0  0  0  0  0  0  0  0  0  0  # atno 17394 bound_to 11000
  141.1490  133.6551  156.3955 LP  0  0  0  0  0  0  0  0  0  0  0  0  # atno 17395 bound_to 11000

$$$$
