AV-unprocessed.smi:3157|AV-procd|sdf|12039|dock6
  -GOLD-   2272017463D 1   1.00000     0.00000
 Structure written by MMmdl.
 40 41  0  0  0  0  0  0  0  0  2 V2000
  148.7610  139.5809  155.5221 C   0  0  0  0  0  0  0  0  0  0  0  0
  149.0455  141.0308  155.0760 C   0  0  2  0  0  0  0  0  0  0  0  0
  149.3493  141.8741  156.2548 N   0  3  0  0  0  0  0  0  0  0  0  0
  150.7070  141.7128  156.8165 C   0  0  0  0  0  0  0  0  0  0  0  0
  150.8584  142.4982  158.1290 C   0  0  0  0  0  0  0  0  0  0  0  0
  151.2590  143.9599  157.9213 C   0  0  0  0  0  0  0  0  0  0  0  0
  151.7875  144.4070  159.2857 C   0  0  0  0  0  0  0  0  0  0  0  0
  152.3702  143.1475  159.9428 C   0  0  0  0  0  0  0  0  0  0  0  0
  151.9574  141.9638  159.0564 C   0  0  0  0  0  0  0  0  0  0  0  0
  147.8732  141.6576  154.2742 C   0  0  1  0  0  0  0  0  0  0  0  0
  147.3944  140.7498  153.1245 C   0  0  0  0  0  0  0  0  0  0  0  0
  146.7474  142.0171  155.1277 N   0  0  0  0  0  0  0  0  0  0  0  0
  145.5869  142.6763  154.7777 C   0  0  0  0  0  0  0  0  0  0  0  0
  144.8277  142.7946  155.9063 C   0  0  0  0  0  0  0  0  0  0  0  0
  145.6145  142.1655  156.9107 C   0  0  0  0  0  0  0  0  0  0  0  0
  146.7620  141.7020  156.4429 N   0  0  0  0  0  0  0  0  0  0  0  0
  148.6163  138.9158  154.6707 H   0  0  0  0  0  0  0  0  0  0  0  0
  147.8638  139.5277  156.1395 H   0  0  0  0  0  0  0  0  0  0  0  0
  149.5852  139.1648  156.1007 H   0  0  0  0  0  0  0  0  0  0  0  0
  149.9245  141.0208  154.4289 H   0  0  0  0  0  0  0  0  0  0  0  0
  149.2597  142.8393  155.9710 H   0  0  0  0  0  0  0  0  0  0  0  0
  150.9285  140.6588  156.9844 H   0  0  0  0  0  0  0  0  0  0  0  0
  151.4307  142.0775  156.0864 H   0  0  0  0  0  0  0  0  0  0  0  0
  149.9098  142.4853  158.6687 H   0  0  0  0  0  0  0  0  0  0  0  0
  152.0571  144.0287  157.1802 H   0  0  0  0  0  0  0  0  0  0  0  0
  150.4300  144.5773  157.5740 H   0  0  0  0  0  0  0  0  0  0  0  0
  152.5220  145.2081  159.1981 H   0  0  0  0  0  0  0  0  0  0  0  0
  150.9629  144.7847  159.8916 H   0  0  0  0  0  0  0  0  0  0  0  0
  153.4565  143.2074  160.0209 H   0  0  0  0  0  0  0  0  0  0  0  0
  151.9782  143.0339  160.9543 H   0  0  0  0  0  0  0  0  0  0  0  0
  151.6240  141.1069  159.6428 H   0  0  0  0  0  0  0  0  0  0  0  0
  152.8180  141.6409  158.4687 H   0  0  0  0  0  0  0  0  0  0  0  0
  148.2319  142.5876  153.8298 H   0  0  0  0  0  0  0  0  0  0  0  0
  148.1876  140.5654  152.4000 H   0  0  0  0  0  0  0  0  0  0  0  0
  146.5651  141.2085  152.5849 H   0  0  0  0  0  0  0  0  0  0  0  0
  147.0529  139.7822  153.4940 H   0  0  0  0  0  0  0  0  0  0  0  0
  145.3997  143.0054  153.7662 H   0  0  0  0  0  0  0  0  0  0  0  0
  143.8572  143.2589  156.0003 H   0  0  0  0  0  0  0  0  0  0  0  0
  145.3879  142.0339  157.9585 H   0  0  0  0  0  0  0  0  0  0  0  0
  148.6648  141.6878  156.9736 H   0  0  0  0  0  0  0  0  0  0  0  0
  1  2  1  0  0  0  0
  1 17  1  0  0  0  0
  1 18  1  0  0  0  0
  1 19  1  0  0  0  0
  2  3  1  0  0  0  0
  2 10  1  0  0  0  0
  2 20  1  0  0  0  0
  3  4  1  0  0  0  0
  3 21  1  0  0  0  0
  3 40  1  0  0  0  0
  4  5  1  0  0  0  0
  4 22  1  0  0  0  0
  4 23  1  0  0  0  0
  5  9  1  0  0  0  0
  5  6  1  0  0  0  0
  5 24  1  0  0  0  0
  6  7  1  0  0  0  0
  6 25  1  0  0  0  0
  6 26  1  0  0  0  0
  7  8  1  0  0  0  0
  7 27  1  0  0  0  0
  7 28  1  0  0  0  0
  8  9  1  0  0  0  0
  8 29  1  0  0  0  0
  8 30  1  0  0  0  0
  9 31  1  0  0  0  0
  9 32  1  0  0  0  0
 10 11  1  0  0  0  0
 10 12  1  0  0  0  0
 10 33  1  0  0  0  0
 11 34  1  0  0  0  0
 11 35  1  0  0  0  0
 11 36  1  0  0  0  0
 12 16  1  0  0  0  0
 12 13  1  0  0  0  0
 13 14  2  0  0  0  0
 13 37  1  0  0  0  0
 14 15  1  0  0  0  0
 14 38  1  0  0  0  0
 15 16  2  0  0  0  0
 15 39  1  0  0  0  0
M  CHG  1   3   1
M  END
> <s_m_source_file>
AV-unprocessed.smi

> <i_m_source_file_index>
3157

> <i_lp_mmshare_version>
43012

> <i_f3d_flags>
0

> <s_epik_input>
bjFbY0hdW2NIXVtjSF1uMVtDQEBIXShbQ0gzXSlbQ0BIXShbQ0gzXSlbTkhdW0NIMl1bQ0hdMltDSDJdW0NIMl1bQ0gyXVtDSDJdMg==

> <s_epik_cmdline>
J2VwaWtfcHl0aG9uJywgJy1waCcsICc3LjAnLCAnLXRuJywgJzgnLCAnLW1hJywgJzIwMCcsICctbWV0YWxfYmluZGluZycsICctaW1hZScsICc8aW5maWxlLm1hZT4nLCAnLW9tYWUnLCAnPG91dGZpbGUubWFlPic=

> <r_lp_tautomer_probability>
1

> <r_epik_Ionization_Penalty>
0.00132192

> <r_epik_Ionization_Penalty_Charging>
0.0013111

> <r_epik_Ionization_Penalty_Neutral>
1.08112e-05

> <r_epik_State_Penalty>
-0

> <r_epik_Charging_Adjusted_Penalty>
0.0013111

> <i_epik_Tot_Q>
1

> <i_epik_Tot_abs_Q>
1

> <r_epik_Metal_State_Penalty>
-0

> <b_epik_Metal_Only>
0

> <s_lp_Force_Field>
OPLS_2005

> <r_lp_Energy>
31.1874

> <b_lp_Chiralities_Consistent>
1

> <s_lp_Variant>
AV-unprocessed.smi:3157-3

> <Gold.Version>
5.8.1

> <Gold.Id.Protein>
6NUR|6NUR_protein|mol2

> <Gold.PLP.Fitness>
43.1953

> <Gold.PLP.PLP>
-38.3334

> <Gold.PLP.part.hbond>
-1.0000

> <Gold.PLP.part.metal>
0.0000

> <Gold.PLP.part.buried>
-2.3759

> <Gold.PLP.part.nonpolar>
-35.5866

> <Gold.PLP.part.repulsive>
0.2506

> <Gold.PLP.ligand.clash>
0.0000

> <Gold.PLP.ligand.torsion>
0.6141

> <Gold.PLP.Chemscore.Hbond>
2.0000

> <Gold.PLP.Chemscore.CHOScore>
0.0000

> <Gold.PLP.Chemscore.Metal>
0.0000

> <Gold.Chemscore.Hbonds>
donor molecule, donor type, donor heavy atom, donor atom, acceptor molecule, acceptor atom, score
      L1  H     3    21       P1  8028  2.00

> <Gold.PLP.Chemscore.Internal.Correction>
0.0901

> <Gold.Rescore>
     Score         DG    S(hbond)    S(metal)    S(lipo)     H(rot)  DE(clash)    DE(int)     intcor
     14.75     -16.98       0.98        0.00     103.09       1.50       0.03       2.19       ----

> <Gold.Chemscore.Fitness>
14.7536

> <Gold.Chemscore.DG>
-16.9769

> <Gold.Chemscore.ZeroCoef>
-5.4800

> <Gold.Chemscore.Hbond>
0.9843

> <Gold.Chemscore.Metal>
0.0000

> <Gold.Chemscore.Lipo>
103.0887

> <Gold.Chemscore.Internal_Hbond>
0.0000

> <Gold.Chemscore.DEClash>
0.0310

> <Gold.Chemscore.DEInternal>
2.1924

> <Gold.Chemscore.Rot>
1.5047

> <Gold.Chemscore.Internal.Correction>
   9.000000E+99

> <Gold.Chemscore.Hbonds>
donor molecule, donor type, donor heavy atom, donor atom, acceptor molecule, acceptor atom, score
      L1  H     3    21       P1  8028  0.99

> <Gold.Chemscore.Hbond.Weighted>
-3.2875

> <Gold.Chemscore.Metal.Weighted>
-0.0000

> <Gold.Chemscore.Lipo.Weighted>
-12.0614

> <Gold.Chemscore.Internal_Hbond.Weighted>
0.0000

> <Gold.Chemscore.DEClash.Weighted>
0.0310

> <Gold.Chemscore.DEInternal.Weighted>
2.1924

> <Gold.Chemscore.Rot.Weighted>
3.8520

> <Gold.Chemscore.Internal.Correction.Weighted>
   9.000000E+99

> <Gold.Protein.RotatedTorsions>
[ 6907 6896 6895 6894 ] final -152.56 input  -60.11 | X-H torsion
[ 7974 7965 7964 7962 ] final   94.32 input  175.53 | X-H torsion
[ 8008 7997 7996 7995 ] final   43.34 input   59.86 | X-H torsion
[ 10167 10162 10161 10158 ] final  -10.63 input  -65.29 | X-H torsion
[ 10718 10713 10712 10709 ] final   37.66 input   66.30 | X-H torsion
[ 10763 10752 10751 10750 ] final -153.77 input  -60.55 | X-H torsion
[ 11005 11000 10999 10996 ] final  113.08 input  -57.11 | X-H torsion

> <Gold.Protein.ActiveResidues>
 VAL166  LYS551  ARG553  GLY616  TRP617  ASP618  TYR619  PRO620  LYS621  CYS622 
 ASP623  PHE694  ASN695  SER759  ASP760  ASP761  ALA762  ILE779  LEU786  VAL792 
 PHE793  MET794  SER795  GLU796  ALA797  LYS798  CYS799  TRP800  GLU811  SER814 

> <Gold.Protein.RotatedAtoms>
  151.2296  133.4457  159.2603 H   0  0  0  0  0  0  0  0  0  0  0  0  # atno 6907 bound_to 6896
  151.0807  134.9856  159.8364 H   0  0  0  0  0  0  0  0  0  0  0  0  # atno 6908 bound_to 6896
  152.5424  134.2236  159.8850 H   0  0  0  0  0  0  0  0  0  0  0  0  # atno 6909 bound_to 6896
  145.4672  139.2284  143.2955 H   0  0  0  0  0  0  0  0  0  0  0  0  # atno 7974 bound_to 7965
  155.3011  140.3385  155.4247 H   0  0  0  0  0  0  0  0  0  0  0  0  # atno 8008 bound_to 7997
  156.2001  140.1729  156.7957 H   0  0  0  0  0  0  0  0  0  0  0  0  # atno 8009 bound_to 7997
  154.5548  140.0698  156.8709 H   0  0  0  0  0  0  0  0  0  0  0  0  # atno 8010 bound_to 7997
  140.7118  143.5728  150.9075 H   0  0  0  0  0  0  0  0  0  0  0  0  # atno 10167 bound_to 10162
  157.3496  130.7591  149.6969 H   0  0  0  0  0  0  0  0  0  0  0  0  # atno 10718 bound_to 10713
  154.7905  135.3205  154.7789 H   0  0  0  0  0  0  0  0  0  0  0  0  # atno 10763 bound_to 10752
  153.8479  135.6865  153.4800 H   0  0  0  0  0  0  0  0  0  0  0  0  # atno 10764 bound_to 10752
  153.1573  135.4675  154.9662 H   0  0  0  0  0  0  0  0  0  0  0  0  # atno 10765 bound_to 10752
  139.8944  134.9543  156.6685 H   0  0  0  0  0  0  0  0  0  0  0  0  # atno 11005 bound_to 11000
  146.2417  140.5446  142.8931 LP  0  0  0  0  0  0  0  0  0  0  0  0  # atno 17320 bound_to 7965
  144.7967  140.6136  143.6505 LP  0  0  0  0  0  0  0  0  0  0  0  0  # atno 17321 bound_to 7965
  139.9454  143.6334  152.3043 LP  0  0  0  0  0  0  0  0  0  0  0  0  # atno 17342 bound_to 10162
  139.6833  144.7654  151.1569 LP  0  0  0  0  0  0  0  0  0  0  0  0  # atno 17343 bound_to 10162
  155.9719  130.4144  150.4131 LP  0  0  0  0  0  0  0  0  0  0  0  0  # atno 17370 bound_to 10713
  157.2192  131.0478  151.2556 LP  0  0  0  0  0  0  0  0  0  0  0  0  # atno 17371 bound_to 10713
  140.7392  133.8992  155.8266 LP  0  0  0  0  0  0  0  0  0  0  0  0  # atno 17394 bound_to 11000
  141.0091  134.1045  157.4239 LP  0  0  0  0  0  0  0  0  0  0  0  0  # atno 17395 bound_to 11000

$$$$
