AV-unprocessed.smi:104|AV-procd|sdf|1002|dock9
  -GOLD-   2262017593D 1   1.00000     0.00000
 Structure written by MMmdl.
 47 49  0  0  0  0  0  0  0  0  1 V2000
  144.8400  135.5369  160.5874 C   0  0  0  0  0  0  0  0  0  0  0  0
  146.2501  136.0538  160.3363 C   0  0  0  0  0  0  0  0  0  0  0  0
  146.7139  136.9983  160.9754 O   0  0  0  0  0  0  0  0  0  0  0  0
  146.8796  135.3686  159.3726 O   0  0  0  0  0  0  0  0  0  0  0  0
  148.2468  135.6299  159.0998 C   0  0  0  0  0  0  0  0  0  0  0  0
  148.3779  136.7426  158.0505 C   0  0  1  0  0  0  0  0  0  0  0  0
  148.7897  137.9602  158.6489 O   0  0  0  0  0  0  0  0  0  0  0  0
  149.3346  138.7839  157.6665 C   0  0  1  0  0  0  0  0  0  0  0  0
  150.5056  139.4981  158.2718 N   0  0  0  0  0  0  0  0  0  0  0  0
  151.6605  138.9756  158.8082 C   0  0  0  0  0  0  0  0  0  0  0  0
  151.9898  137.1018  158.8946 Br  0  0  0  0  0  0  0  0  0  0  0  0
  152.5335  139.8210  159.2806 N   0  0  0  0  0  0  0  0  0  0  0  0
  151.9234  141.0487  159.0557 C   0  0  0  0  0  0  0  0  0  0  0  0
  152.2880  142.3933  159.3191 C   0  0  0  0  0  0  0  0  0  0  0  0
  153.4441  142.7362  159.9038 N   0  0  0  0  0  0  0  0  0  0  0  0
  151.4284  143.3780  158.9675 N   0  0  0  0  0  0  0  0  0  0  0  0
  150.2670  143.0624  158.3854 C   0  0  0  0  0  0  0  0  0  0  0  0
  149.7898  141.8548  158.0736 N   0  0  0  0  0  0  0  0  0  0  0  0
  150.6581  140.8620  158.4266 C   0  0  0  0  0  0  0  0  0  0  0  0
  149.7271  137.8993  156.4598 C   0  0  1  0  0  0  0  0  0  0  0  0
  151.1036  138.0271  156.1150 O   0  0  0  0  0  0  0  0  0  0  0  0
  151.4940  138.9088  155.1820 C   0  0  0  0  0  0  0  0  0  0  0  0
  152.9287  138.6730  154.7309 C   0  0  0  0  0  0  0  0  0  0  0  0
  150.8110  139.8184  154.7114 O   0  0  0  0  0  0  0  0  0  0  0  0
  149.4086  136.4919  156.9480 C   0  0  2  0  0  0  0  0  0  0  0  0
  148.8569  135.7310  155.8817 O   0  0  0  0  0  0  0  0  0  0  0  0
  149.6136  135.4050  154.8203 C   0  0  0  0  0  0  0  0  0  0  0  0
  148.9358  134.3820  153.9191 C   0  0  0  0  0  0  0  0  0  0  0  0
  150.7325  135.8487  154.5617 O   0  0  0  0  0  0  0  0  0  0  0  0
  144.2555  135.5683  159.6678 H   0  0  0  0  0  0  0  0  0  0  0  0
  144.3363  136.1452  161.3387 H   0  0  0  0  0  0  0  0  0  0  0  0
  144.8740  134.5072  160.9428 H   0  0  0  0  0  0  0  0  0  0  0  0
  148.7496  135.9355  160.0184 H   0  0  0  0  0  0  0  0  0  0  0  0
  148.7349  134.7200  158.7485 H   0  0  0  0  0  0  0  0  0  0  0  0
  147.4012  136.9251  157.5986 H   0  0  0  0  0  0  0  0  0  0  0  0
  148.6226  139.5638  157.3997 H   0  0  0  0  0  0  0  0  0  0  0  0
  154.1013  142.0199  160.1780 H   0  0  0  0  0  0  0  0  0  0  0  0
  153.6574  143.7095  160.0677 H   0  0  0  0  0  0  0  0  0  0  0  0
  149.6277  143.8963  158.1359 H   0  0  0  0  0  0  0  0  0  0  0  0
  149.0771  138.1831  155.6305 H   0  0  0  0  0  0  0  0  0  0  0  0
  153.6215  138.8978  155.5419 H   0  0  0  0  0  0  0  0  0  0  0  0
  153.1730  139.3094  153.8801 H   0  0  0  0  0  0  0  0  0  0  0  0
  153.0668  137.6328  154.4350 H   0  0  0  0  0  0  0  0  0  0  0  0
  150.3148  136.0444  157.3592 H   0  0  0  0  0  0  0  0  0  0  0  0
  148.8453  133.4256  154.4340 H   0  0  0  0  0  0  0  0  0  0  0  0
  149.5149  134.2308  153.0079 H   0  0  0  0  0  0  0  0  0  0  0  0
  147.9381  134.7228  153.6417 H   0  0  0  0  0  0  0  0  0  0  0  0
  1  2  1  0  0  0  0
  1 30  1  0  0  0  0
  1 31  1  0  0  0  0
  1 32  1  0  0  0  0
  2  3  2  0  0  0  0
  2  4  1  0  0  0  0
  4  5  1  0  0  0  0
  5  6  1  0  0  0  0
  5 33  1  0  0  0  0
  5 34  1  0  0  0  0
  6 25  1  0  0  0  0
  6  7  1  0  0  0  0
  6 35  1  0  0  0  0
  7  8  1  0  0  0  0
  8  9  1  0  0  0  0
  8 20  1  0  0  0  0
  8 36  1  0  0  0  0
  9 19  1  0  0  0  0
  9 10  1  0  0  0  0
 10 11  1  0  0  0  0
 10 12  2  0  0  0  0
 12 13  1  0  0  0  0
 13 19  2  0  0  0  0
 13 14  1  0  0  0  0
 14 15  1  0  0  0  0
 14 16  2  0  0  0  0
 15 37  1  0  0  0  0
 15 38  1  0  0  0  0
 16 17  1  0  0  0  0
 17 18  2  0  0  0  0
 17 39  1  0  0  0  0
 18 19  1  0  0  0  0
 20 21  1  0  0  0  0
 20 25  1  0  0  0  0
 20 40  1  0  0  0  0
 21 22  1  0  0  0  0
 22 23  1  0  0  0  0
 22 24  2  0  0  0  0
 23 41  1  0  0  0  0
 23 42  1  0  0  0  0
 23 43  1  0  0  0  0
 25 26  1  0  0  0  0
 25 44  1  0  0  0  0
 26 27  1  0  0  0  0
 27 28  1  0  0  0  0
 27 29  2  0  0  0  0
 28 45  1  0  0  0  0
 28 46  1  0  0  0  0
 28 47  1  0  0  0  0
M  END
> <s_m_source_file>
AV-unprocessed.smi

> <i_m_source_file_index>
104

> <i_lp_mmshare_version>
43012

> <i_f3d_flags>
0

> <s_epik_input>
W0NIM11DKD1PKU9bQ0gyXVtDQEBIXTFPW0NASF0oW0NAQEhdKE9DKD1PKVtDSDNdKVtDQEhdMU9DKD1PKVtDSDNdKW4oYyhCciluMiljKGMyMyluW2NIXW5jM1tOSDJd

> <s_epik_cmdline>
J2VwaWtfcHl0aG9uJywgJy1waCcsICc3LjAnLCAnLXRuJywgJzgnLCAnLW1hJywgJzIwMCcsICctbWV0YWxfYmluZGluZycsICctaW1hZScsICc8aW5maWxlLm1hZT4nLCAnLW9tYWUnLCAnPG91dGZpbGUubWFlPic=

> <r_lp_tautomer_probability>
1

> <r_epik_Ionization_Penalty>
7.36622e-05

> <r_epik_Ionization_Penalty_Charging>
0

> <r_epik_Ionization_Penalty_Neutral>
7.36622e-05

> <r_epik_State_Penalty>
-0

> <r_epik_Charging_Adjusted_Penalty>
0

> <i_epik_Tot_Q>
0

> <i_epik_Tot_abs_Q>
0

> <r_epik_Metal_State_Penalty>
-0

> <b_epik_Metal_Only>
0

> <s_epik_Chemistry_Notes>
This compound has an ester and may undergo hydrolysis at high or low pH. This compound contains an acetal/aminal-like group ( X-CH(R)-Y where X, Y are N, S, or O) that may be acid/base labile, releasing an aldehyde.

> <s_lp_Force_Field>
OPLS_2005

> <r_lp_Energy>
14.3188

> <b_lp_Chiralities_Consistent>
1

> <s_lp_Variant>
AV-unprocessed.smi:104-10

> <Gold.Version>
5.8.1

> <Gold.Id.Protein>
6NUR|6NUR_protein|mol2

> <Gold.PLP.Fitness>
48.5040

> <Gold.PLP.PLP>
-36.6481

> <Gold.PLP.part.hbond>
-4.5282

> <Gold.PLP.part.metal>
0.0000

> <Gold.PLP.part.buried>
-5.0366

> <Gold.PLP.part.nonpolar>
-26.8183

> <Gold.PLP.part.repulsive>
0.4303

> <Gold.PLP.ligand.clash>
0.0000

> <Gold.PLP.ligand.torsion>
1.5172

> <Gold.PLP.Chemscore.Hbond>
3.8080

> <Gold.PLP.Chemscore.CHOScore>
1.1184

> <Gold.PLP.Chemscore.Metal>
0.0000

> <Gold.Chemscore.Hbonds>
donor molecule, donor type, donor heavy atom, donor atom, acceptor molecule, acceptor atom, score
      P1  H  6934  6947       L1     3  0.89
      P1  H  7989  7998       L1    24  1.00
      P1  H 10752 10764       L1    29  0.57
      L1  C    17    39       P1  8028  0.51
      L1  C    17    39       P1  8029  0.17

> <Gold.PLP.Chemscore.Internal.Correction>
0.1112

> <Gold.Rescore>
     Score         DG    S(hbond)    S(metal)    S(lipo)     H(rot)  DE(clash)    DE(int)     intcor
      8.03     -11.08       3.42        0.00      44.40       4.31       0.06       3.00       ----

> <Gold.Chemscore.Fitness>
8.0265

> <Gold.Chemscore.DG>
-11.0847

> <Gold.Chemscore.ZeroCoef>
-5.4800

> <Gold.Chemscore.Hbond>
3.4240

> <Gold.Chemscore.Metal>
0.0000

> <Gold.Chemscore.Lipo>
44.3959

> <Gold.Chemscore.Internal_Hbond>
0.0000

> <Gold.Chemscore.DEClash>
0.0555

> <Gold.Chemscore.DEInternal>
3.0026

> <Gold.Chemscore.Rot>
4.3070

> <Gold.Chemscore.Internal.Correction>
   9.000000E+99

> <Gold.Chemscore.Hbonds>
donor molecule, donor type, donor heavy atom, donor atom, acceptor molecule, acceptor atom, score
      P1  H  6934  6947       L1     3  0.86
      P1  H  7989  7998       L1    24  0.93
      P1  H 10752 10764       L1    29  0.56

> <Gold.Chemscore.Hbond.Weighted>
-11.4362

> <Gold.Chemscore.Metal.Weighted>
-0.0000

> <Gold.Chemscore.Lipo.Weighted>
-5.1943

> <Gold.Chemscore.Internal_Hbond.Weighted>
0.0000

> <Gold.Chemscore.DEClash.Weighted>
0.0555

> <Gold.Chemscore.DEInternal.Weighted>
3.0026

> <Gold.Chemscore.Rot.Weighted>
11.0259

> <Gold.Chemscore.Internal.Correction.Weighted>
   9.000000E+99

> <Gold.Protein.RotatedTorsions>
[ 6907 6896 6895 6894 ] final   46.41 input  -60.11 | X-H torsion
[ 7974 7965 7964 7962 ] final  139.80 input  175.53 | X-H torsion
[ 8008 7997 7996 7995 ] final  152.09 input   59.86 | X-H torsion
[ 10167 10162 10161 10158 ] final  -98.34 input  -65.29 | X-H torsion
[ 10718 10713 10712 10709 ] final   57.41 input   66.30 | X-H torsion
[ 10763 10752 10751 10750 ] final  -60.76 input  -60.55 | X-H torsion
[ 11005 11000 10999 10996 ] final -146.11 input  -57.11 | X-H torsion

> <Gold.Protein.ActiveResidues>
 VAL166  LYS551  ARG553  GLY616  TRP617  ASP618  TYR619  PRO620  LYS621  CYS622 
 ASP623  PHE694  ASN695  SER759  ASP760  ASP761  ALA762  ILE779  LEU786  VAL792 
 PHE793  MET794  SER795  GLU796  ALA797  LYS798  CYS799  TRP800  GLU811  SER814 

> <Gold.Protein.RotatedAtoms>
  152.2561  134.8083  160.0438 H   0  0  0  0  0  0  0  0  0  0  0  0  # atno 6907 bound_to 6896
  151.8746  133.3477  159.3754 H   0  0  0  0  0  0  0  0  0  0  0  0  # atno 6908 bound_to 6896
  150.7100  134.5006  159.5603 H   0  0  0  0  0  0  0  0  0  0  0  0  # atno 6909 bound_to 6896
  144.9245  139.5125  143.5647 H   0  0  0  0  0  0  0  0  0  0  0  0  # atno 7974 bound_to 7965
  156.2645  140.2030  156.6279 H   0  0  0  0  0  0  0  0  0  0  0  0  # atno 8008 bound_to 7997
  154.6706  140.0550  157.0185 H   0  0  0  0  0  0  0  0  0  0  0  0  # atno 8009 bound_to 7997
  155.1143  140.3218  155.4516 H   0  0  0  0  0  0  0  0  0  0  0  0  # atno 8010 bound_to 7997
  140.2739  143.3325  152.0507 H   0  0  0  0  0  0  0  0  0  0  0  0  # atno 10167 bound_to 10162
  157.5512  130.8767  149.8967 H   0  0  0  0  0  0  0  0  0  0  0  0  # atno 10718 bound_to 10713
  154.2741  135.6284  153.5321 H   0  0  0  0  0  0  0  0  0  0  0  0  # atno 10763 bound_to 10752
  152.9875  135.5617  154.5567 H   0  0  0  0  0  0  0  0  0  0  0  0  # atno 10764 bound_to 10752
  154.5144  135.2879  155.1291 H   0  0  0  0  0  0  0  0  0  0  0  0  # atno 10765 bound_to 10752
  140.7853  134.3031  157.5032 H   0  0  0  0  0  0  0  0  0  0  0  0  # atno 11005 bound_to 11000
  146.3220  139.8149  142.8938 LP  0  0  0  0  0  0  0  0  0  0  0  0  # atno 17320 bound_to 7965
  145.3242  141.0251  143.3483 LP  0  0  0  0  0  0  0  0  0  0  0  0  # atno 17321 bound_to 7965
  139.4981  144.6637  151.6405 LP  0  0  0  0  0  0  0  0  0  0  0  0  # atno 17342 bound_to 10162
  140.5867  143.9852  150.6300 LP  0  0  0  0  0  0  0  0  0  0  0  0  # atno 17343 bound_to 10162
  156.0579  130.3705  150.1050 LP  0  0  0  0  0  0  0  0  0  0  0  0  # atno 17370 bound_to 10713
  156.9222  130.9686  151.3546 LP  0  0  0  0  0  0  0  0  0  0  0  0  # atno 17371 bound_to 10713
  139.8737  134.9343  156.3603 LP  0  0  0  0  0  0  0  0  0  0  0  0  # atno 17394 bound_to 11000
  140.9442  133.7494  156.0186 LP  0  0  0  0  0  0  0  0  0  0  0  0  # atno 17395 bound_to 11000

$$$$
