AV-unprocessed.smi:2510|AV-procd|sdf|9877|dock8
  -GOLD-   2272013513D 1   1.00000     0.00000
 Structure written by MMmdl.
 48 49  0  0  0  0  0  0  0  0  1 V2000
  150.8459  142.8203  158.3603 C   0  0  0  0  0  0  0  0  0  0  0  0
  150.9397  142.2365  156.9406 C   0  0  0  0  0  0  0  0  0  0  0  0
  150.9529  140.6903  156.8625 C   0  0  0  0  0  0  0  0  0  0  0  0
  152.2688  140.1770  157.5062 C   0  0  0  0  0  0  0  0  0  0  0  0
  152.3234  140.2590  159.0400 C   0  0  0  0  0  0  0  0  0  0  0  0
  149.6102  140.0315  157.3054 C   0  0  2  0  0  0  0  0  0  0  0  0
  149.7630  138.6764  157.8321 N   0  0  0  0  0  0  0  0  0  0  0  0
  148.7668  137.9187  158.3141 C   0  0  0  0  0  0  0  0  0  0  0  0
  147.5812  138.2458  158.2684 O   0  0  0  0  0  0  0  0  0  0  0  0
  149.1794  136.6037  158.9774 C   0  0  0  0  0  0  0  0  0  0  0  0
  148.2884  136.3322  160.1614 C   0  0  0  0  0  0  0  0  0  0  0  0
  147.9974  135.0752  160.7698 C   0  0  0  0  0  0  0  0  0  0  0  0
  147.1061  135.3770  161.7601 C   0  0  0  0  0  0  0  0  0  0  0  0
  146.3999  134.5101  162.7464 C   0  0  0  0  0  0  0  0  0  0  0  0
  146.9213  136.7394  161.7092 N   0  0  0  0  0  0  0  0  0  0  0  0
  147.6416  137.3348  160.7410 N   0  0  0  0  0  0  0  0  0  0  0  0
  149.1519  140.0238  155.8367 C   0  0  2  0  0  0  0  0  0  0  0  0
  148.2704  138.9040  155.2868 C   0  0  0  0  0  0  0  0  0  0  0  0
  150.6369  140.1366  155.4461 C   0  0  2  0  0  0  0  0  0  0  0  0
  151.2395  138.8653  155.2261 O   0  0  0  0  0  0  0  0  0  0  0  0
  152.5810  138.9520  154.7787 C   0  0  0  0  0  0  0  0  0  0  0  0
  146.3149  137.2684  162.3197 H   0  0  0  0  0  0  0  0  0  0  0  0
  150.7132  143.9015  158.3189 H   0  0  0  0  0  0  0  0  0  0  0  0
  151.7503  142.6324  158.9380 H   0  0  0  0  0  0  0  0  0  0  0  0
  150.0015  142.4076  158.9118 H   0  0  0  0  0  0  0  0  0  0  0  0
  150.0908  142.6258  156.3792 H   0  0  0  0  0  0  0  0  0  0  0  0
  151.8077  142.6581  156.4352 H   0  0  0  0  0  0  0  0  0  0  0  0
  152.4880  139.1585  157.1872 H   0  0  0  0  0  0  0  0  0  0  0  0
  153.1162  140.7579  157.1449 H   0  0  0  0  0  0  0  0  0  0  0  0
  153.3237  140.0138  159.3977 H   0  0  0  0  0  0  0  0  0  0  0  0
  151.6341  139.5591  159.5112 H   0  0  0  0  0  0  0  0  0  0  0  0
  152.0853  141.2623  159.3934 H   0  0  0  0  0  0  0  0  0  0  0  0
  148.9809  140.6713  157.9257 H   0  0  0  0  0  0  0  0  0  0  0  0
  150.7068  138.3266  157.9179 H   0  0  0  0  0  0  0  0  0  0  0  0
  149.1066  135.7908  158.2541 H   0  0  0  0  0  0  0  0  0  0  0  0
  150.2269  136.6644  159.2765 H   0  0  0  0  0  0  0  0  0  0  0  0
  148.3728  134.0980  160.5042 H   0  0  0  0  0  0  0  0  0  0  0  0
  147.0024  133.6367  162.9963 H   0  0  0  0  0  0  0  0  0  0  0  0
  145.4507  134.1601  162.3398 H   0  0  0  0  0  0  0  0  0  0  0  0
  146.1942  135.0518  163.6701 H   0  0  0  0  0  0  0  0  0  0  0  0
  148.6739  140.9826  155.6304 H   0  0  0  0  0  0  0  0  0  0  0  0
  148.7354  137.9241  155.3956 H   0  0  0  0  0  0  0  0  0  0  0  0
  148.0647  139.0517  154.2269 H   0  0  0  0  0  0  0  0  0  0  0  0
  147.3115  138.8710  155.8039 H   0  0  0  0  0  0  0  0  0  0  0  0
  150.8416  140.8573  154.6522 H   0  0  0  0  0  0  0  0  0  0  0  0
  152.9682  137.9507  154.5909 H   0  0  0  0  0  0  0  0  0  0  0  0
  153.2131  139.4206  155.5338 H   0  0  0  0  0  0  0  0  0  0  0  0
  152.6613  139.5238  153.8543 H   0  0  0  0  0  0  0  0  0  0  0  0
  1  2  1  0  0  0  0
  1 23  1  0  0  0  0
  1 24  1  0  0  0  0
  1 25  1  0  0  0  0
  2  3  1  0  0  0  0
  2 26  1  0  0  0  0
  2 27  1  0  0  0  0
  3 19  1  0  0  0  0
  3  4  1  0  0  0  0
  3  6  1  0  0  0  0
  4  5  1  0  0  0  0
  4 28  1  0  0  0  0
  4 29  1  0  0  0  0
  5 30  1  0  0  0  0
  5 31  1  0  0  0  0
  5 32  1  0  0  0  0
  6  7  1  0  0  0  0
  6 17  1  0  0  0  0
  6 33  1  0  0  0  0
  7  8  1  0  0  0  0
  7 34  1  0  0  0  0
  8  9  2  0  0  0  0
  8 10  1  0  0  0  0
 10 11  1  0  0  0  0
 10 35  1  0  0  0  0
 10 36  1  0  0  0  0
 11 16  2  0  0  0  0
 11 12  1  0  0  0  0
 12 13  2  0  0  0  0
 12 37  1  0  0  0  0
 13 14  1  0  0  0  0
 13 15  1  0  0  0  0
 14 38  1  0  0  0  0
 14 39  1  0  0  0  0
 14 40  1  0  0  0  0
 15 22  1  0  0  0  0
 15 16  1  0  0  0  0
 17 18  1  0  0  0  0
 17 19  1  0  0  0  0
 17 41  1  0  0  0  0
 18 42  1  0  0  0  0
 18 43  1  0  0  0  0
 18 44  1  0  0  0  0
 19 20  1  0  0  0  0
 19 45  1  0  0  0  0
 20 21  1  0  0  0  0
 21 46  1  0  0  0  0
 21 47  1  0  0  0  0
 21 48  1  0  0  0  0
M  END
> <s_m_source_file>
AV-unprocessed.smi

> <i_m_source_file_index>
2510

> <i_lp_mmshare_version>
43012

> <i_f3d_flags>
0

> <s_epik_input>
W0NIM11PW0NAQEhdMVtDQEhdKFtDSDNdKVtDQEBIXShDMShbQ0gyXVtDSDNdKVtDSDJdW0NIM10pW05IXUMoPU8pW0NIMl1jMltjSF1jKFtDSDNdKVtuSF1uMg==

> <s_epik_cmdline>
J2VwaWtfcHl0aG9uJywgJy1waCcsICc3LjAnLCAnLXRuJywgJzgnLCAnLW1hJywgJzIwMCcsICctbWV0YWxfYmluZGluZycsICctaW1hZScsICc8aW5maWxlLm1hZT4nLCAnLW9tYWUnLCAnPG91dGZpbGUubWFlPic=

> <r_lp_tautomer_probability>
0.5

> <r_epik_Ionization_Penalty>
9.73156e-05

> <r_epik_Ionization_Penalty_Charging>
0

> <r_epik_Ionization_Penalty_Neutral>
9.73156e-05

> <r_epik_State_Penalty>
0.41068

> <r_epik_Charging_Adjusted_Penalty>
0.41068

> <i_epik_Tot_Q>
0

> <i_epik_Tot_abs_Q>
0

> <r_epik_Metal_State_Penalty>
0.410699

> <b_epik_Metal_Only>
0

> <s_lp_Force_Field>
OPLS_2005

> <r_lp_Energy>
26.3407

> <b_lp_Chiralities_Consistent>
1

> <s_lp_Variant>
AV-unprocessed.smi:2510-8

> <Gold.Version>
5.8.1

> <Gold.Id.Protein>
6NUR|6NUR_protein|mol2

> <Gold.PLP.Fitness>
35.8653

> <Gold.PLP.PLP>
-32.5714

> <Gold.PLP.part.hbond>
-2.3179

> <Gold.PLP.part.metal>
0.0000

> <Gold.PLP.part.buried>
-3.5888

> <Gold.PLP.part.nonpolar>
-27.2626

> <Gold.PLP.part.repulsive>
0.3069

> <Gold.PLP.ligand.clash>
0.0000

> <Gold.PLP.ligand.torsion>
1.2263

> <Gold.PLP.Chemscore.Hbond>
1.6800

> <Gold.PLP.Chemscore.CHOScore>
0.0000

> <Gold.PLP.Chemscore.Metal>
0.0000

> <Gold.Chemscore.Hbonds>
donor molecule, donor type, donor heavy atom, donor atom, acceptor molecule, acceptor atom, score
      P1  H  6931  6943       L1    16  0.71
      P1  H  6934  6947       L1    16  0.93

> <Gold.PLP.Chemscore.Internal.Correction>
0.7065

> <Gold.Rescore>
     Score         DG    S(hbond)    S(metal)    S(lipo)     H(rot)  DE(clash)    DE(int)     intcor
     10.97     -14.23       0.85        0.00      90.18       1.81       0.01       3.25       ----

> <Gold.Chemscore.Fitness>
10.9687

> <Gold.Chemscore.DG>
-14.2273

> <Gold.Chemscore.ZeroCoef>
-5.4800

> <Gold.Chemscore.Hbond>
0.8474

> <Gold.Chemscore.Metal>
0.0000

> <Gold.Chemscore.Lipo>
90.1794

> <Gold.Chemscore.Internal_Hbond>
0.0000

> <Gold.Chemscore.DEClash>
0.0060

> <Gold.Chemscore.DEInternal>
3.2526

> <Gold.Chemscore.Rot>
1.8102

> <Gold.Chemscore.Internal.Correction>
   9.000000E+99

> <Gold.Chemscore.Hbonds>
donor molecule, donor type, donor heavy atom, donor atom, acceptor molecule, acceptor atom, score
      P1  H  6931  6943       L1    16  0.07
      P1  H  6934  6947       L1    16  0.31

> <Gold.Chemscore.Hbond.Weighted>
-2.8304

> <Gold.Chemscore.Metal.Weighted>
-0.0000

> <Gold.Chemscore.Lipo.Weighted>
-10.5510

> <Gold.Chemscore.Internal_Hbond.Weighted>
0.0000

> <Gold.Chemscore.DEClash.Weighted>
0.0060

> <Gold.Chemscore.DEInternal.Weighted>
3.2526

> <Gold.Chemscore.Rot.Weighted>
4.6341

> <Gold.Chemscore.Internal.Correction.Weighted>
   9.000000E+99

> <Gold.Protein.RotatedTorsions>
[ 6907 6896 6895 6894 ] final   20.36 input  -60.11 | X-H torsion
[ 7974 7965 7964 7962 ] final -120.24 input  175.53 | X-H torsion
[ 8008 7997 7996 7995 ] final    8.23 input   59.86 | X-H torsion
[ 10167 10162 10161 10158 ] final   99.67 input  -65.29 | X-H torsion
[ 10718 10713 10712 10709 ] final  108.98 input   66.30 | X-H torsion
[ 10763 10752 10751 10750 ] final  137.62 input  -60.55 | X-H torsion
[ 11005 11000 10999 10996 ] final  155.52 input  -57.11 | X-H torsion

> <Gold.Protein.ActiveResidues>
 VAL166  LYS551  ARG553  GLY616  TRP617  ASP618  TYR619  PRO620  LYS621  CYS622 
 ASP623  PHE694  ASN695  SER759  ASP760  ASP761  ALA762  ILE779  LEU786  VAL792 
 PHE793  MET794  SER795  GLU796  ALA797  LYS798  CYS799  TRP800  GLU811  SER814 

> <Gold.Protein.RotatedAtoms>
  151.8951  135.0401  160.0501 H   0  0  0  0  0  0  0  0  0  0  0  0  # atno 6907 bound_to 6896
  152.2404  133.5126  159.5275 H   0  0  0  0  0  0  0  0  0  0  0  0  # atno 6908 bound_to 6896
  150.7052  134.1013  159.4009 H   0  0  0  0  0  0  0  0  0  0  0  0  # atno 6909 bound_to 6896
  145.0535  140.8237  143.4195 H   0  0  0  0  0  0  0  0  0  0  0  0  # atno 7974 bound_to 7965
  154.7642  140.2790  155.6190 H   0  0  0  0  0  0  0  0  0  0  0  0  # atno 8008 bound_to 7997
  156.2921  140.2654  156.2355 H   0  0  0  0  0  0  0  0  0  0  0  0  # atno 8009 bound_to 7997
  154.9980  140.0373  157.2338 H   0  0  0  0  0  0  0  0  0  0  0  0  # atno 8010 bound_to 7997
  139.7596  144.6958  151.0311 H   0  0  0  0  0  0  0  0  0  0  0  0  # atno 10167 bound_to 10162
  157.6562  131.0904  150.6386 H   0  0  0  0  0  0  0  0  0  0  0  0  # atno 10718 bound_to 10713
  153.8760  135.3050  155.3444 H   0  0  0  0  0  0  0  0  0  0  0  0  # atno 10763 bound_to 10752
  154.7783  135.4849  153.9794 H   0  0  0  0  0  0  0  0  0  0  0  0  # atno 10764 bound_to 10752
  153.1378  135.6818  153.9171 H   0  0  0  0  0  0  0  0  0  0  0  0  # atno 10765 bound_to 10752
  140.1589  134.8623  157.2550 H   0  0  0  0  0  0  0  0  0  0  0  0  # atno 11005 bound_to 11000
  145.1497  139.2522  143.5447 LP  0  0  0  0  0  0  0  0  0  0  0  0  # atno 17320 bound_to 7965
  146.3519  140.1196  142.8601 LP  0  0  0  0  0  0  0  0  0  0  0  0  # atno 17321 bound_to 7965
  140.7806  143.4712  151.0143 LP  0  0  0  0  0  0  0  0  0  0  0  0  # atno 17342 bound_to 10162
  139.8399  143.7578  152.3180 LP  0  0  0  0  0  0  0  0  0  0  0  0  # atno 17343 bound_to 10162
  156.6692  130.4534  149.5662 LP  0  0  0  0  0  0  0  0  0  0  0  0  # atno 17370 bound_to 10713
  156.2010  130.6620  151.1167 LP  0  0  0  0  0  0  0  0  0  0  0  0  # atno 17371 bound_to 10713
  140.2513  134.3679  155.7441 LP  0  0  0  0  0  0  0  0  0  0  0  0  # atno 17394 bound_to 11000
  141.2207  133.7318  156.8940 LP  0  0  0  0  0  0  0  0  0  0  0  0  # atno 17395 bound_to 11000

$$$$
