AV-unprocessed.smi:782|AV-procd|sdf|3715|dock3
  -GOLD-   22720 1143D 1   1.00000     0.00000
 Structure written by MMmdl.
 41 41  0  0  0  0  0  0  0  0  1 V2000
  151.4942  145.2155  159.7784 C   0  0  0  0  0  0  0  0  0  0  0  0
  150.7038  144.3853  158.7574 C   0  0  0  0  0  0  0  0  0  0  0  0
  151.5930  143.6534  157.7360 C   0  0  0  0  0  0  0  0  0  0  0  0
  150.8115  142.9462  156.7267 N   0  0  0  0  0  0  0  0  0  0  0  0
  150.8646  141.6261  156.4928 C   0  0  0  0  0  0  0  0  0  0  0  0
  151.6073  140.8627  157.1123 O   0  0  0  0  0  0  0  0  0  0  0  0
  149.9253  141.1075  155.3966 C   0  0  0  0  0  0  0  0  0  0  0  0
  150.1844  139.7229  155.0373 N   0  0  0  0  0  0  0  0  0  0  0  0
  149.3787  138.6216  155.2513 C   0  0  0  0  0  0  0  0  0  0  0  0
  150.0616  137.5572  154.7344 C   0  0  0  0  0  0  0  0  0  0  0  0
  149.6951  136.1883  154.6855 N   0  0  0  0  0  0  0  0  0  0  0  0
  149.8413  135.2588  155.6495 C   0  0  0  0  0  0  0  0  0  0  0  0
  150.3406  135.5012  156.7491 O   0  0  0  0  0  0  0  0  0  0  0  0
  149.3616  133.8180  155.3423 C   0  0  0  0  0  0  0  0  0  0  0  0
  148.8518  133.6549  153.8903 C   0  0  0  0  0  0  0  0  0  0  0  0
  148.2181  133.4560  156.3130 C   0  0  0  0  0  0  0  0  0  0  0  0
  150.5396  132.8492  155.5709 C   0  0  0  0  0  0  0  0  0  0  0  0
  151.2722  138.0883  154.2181 C   0  0  0  0  0  0  0  0  0  0  0  0
  151.3418  139.3969  154.4090 N   0  0  0  0  0  0  0  0  0  0  0  0
  150.8237  145.6755  160.5044 H   0  0  0  0  0  0  0  0  0  0  0  0
  152.0541  146.0163  159.2949 H   0  0  0  0  0  0  0  0  0  0  0  0
  152.2020  144.5939  160.3273 H   0  0  0  0  0  0  0  0  0  0  0  0
  150.1023  143.6492  159.2913 H   0  0  0  0  0  0  0  0  0  0  0  0
  149.9956  145.0308  158.2363 H   0  0  0  0  0  0  0  0  0  0  0  0
  152.2369  144.3705  157.2264 H   0  0  0  0  0  0  0  0  0  0  0  0
  152.2581  142.9563  158.2484 H   0  0  0  0  0  0  0  0  0  0  0  0
  150.1737  143.5007  156.1743 H   0  0  0  0  0  0  0  0  0  0  0  0
  148.8910  141.2056  155.7298 H   0  0  0  0  0  0  0  0  0  0  0  0
  150.0345  141.7212  154.5015 H   0  0  0  0  0  0  0  0  0  0  0  0
  148.4184  138.7012  155.7387 H   0  0  0  0  0  0  0  0  0  0  0  0
  149.2852  135.8743  153.8177 H   0  0  0  0  0  0  0  0  0  0  0  0
  148.5101  132.6353  153.7084 H   0  0  0  0  0  0  0  0  0  0  0  0
  149.6340  133.8630  153.1588 H   0  0  0  0  0  0  0  0  0  0  0  0
  148.0097  134.3161  153.6801 H   0  0  0  0  0  0  0  0  0  0  0  0
  147.3680  134.1298  156.1967 H   0  0  0  0  0  0  0  0  0  0  0  0
  148.5365  133.5042  157.3554 H   0  0  0  0  0  0  0  0  0  0  0  0
  147.8564  132.4426  156.1355 H   0  0  0  0  0  0  0  0  0  0  0  0
  150.2454  131.8173  155.3767 H   0  0  0  0  0  0  0  0  0  0  0  0
  150.9081  132.8913  156.5970 H   0  0  0  0  0  0  0  0  0  0  0  0
  151.3774  133.0780  154.9108 H   0  0  0  0  0  0  0  0  0  0  0  0
  152.0871  137.5793  153.7250 H   0  0  0  0  0  0  0  0  0  0  0  0
  1  2  1  0  0  0  0
  1 20  1  0  0  0  0
  1 21  1  0  0  0  0
  1 22  1  0  0  0  0
  2  3  1  0  0  0  0
  2 23  1  0  0  0  0
  2 24  1  0  0  0  0
  3  4  1  0  0  0  0
  3 25  1  0  0  0  0
  3 26  1  0  0  0  0
  4  5  1  0  0  0  0
  4 27  1  0  0  0  0
  5  6  2  0  0  0  0
  5  7  1  0  0  0  0
  7  8  1  0  0  0  0
  7 28  1  0  0  0  0
  7 29  1  0  0  0  0
  8 19  1  0  0  0  0
  8  9  1  0  0  0  0
  9 10  2  0  0  0  0
  9 30  1  0  0  0  0
 10 11  1  0  0  0  0
 10 18  1  0  0  0  0
 11 12  1  0  0  0  0
 11 31  1  0  0  0  0
 12 13  2  0  0  0  0
 12 14  1  0  0  0  0
 14 15  1  0  0  0  0
 14 16  1  0  0  0  0
 14 17  1  0  0  0  0
 15 32  1  0  0  0  0
 15 33  1  0  0  0  0
 15 34  1  0  0  0  0
 16 35  1  0  0  0  0
 16 36  1  0  0  0  0
 16 37  1  0  0  0  0
 17 38  1  0  0  0  0
 17 39  1  0  0  0  0
 17 40  1  0  0  0  0
 18 19  2  0  0  0  0
 18 41  1  0  0  0  0
M  END
> <s_m_source_file>
AV-unprocessed.smi

> <i_m_source_file_index>
782

> <i_lp_mmshare_version>
43012

> <i_f3d_flags>
0

> <s_epik_input>
W0NIM11bQ0gyXVtDSDJdW05IXUMoPU8pW0NIMl1uMVtjSF1jKFtjSF1uMSlbTkhdQyg9TylDKFtDSDNdKShbQ0gzXSlbQ0gzXQ==

> <s_epik_cmdline>
J2VwaWtfcHl0aG9uJywgJy1waCcsICc3LjAnLCAnLXRuJywgJzgnLCAnLW1hJywgJzIwMCcsICctbWV0YWxfYmluZGluZycsICctaW1hZScsICc8aW5maWxlLm1hZT4nLCAnLW9tYWUnLCAnPG91dGZpbGUubWFlPic=

> <r_lp_tautomer_probability>
1

> <r_epik_Ionization_Penalty>
2.67567e-05

> <r_epik_Ionization_Penalty_Charging>
0

> <r_epik_Ionization_Penalty_Neutral>
2.67567e-05

> <r_epik_State_Penalty>
-0

> <r_epik_Charging_Adjusted_Penalty>
0

> <i_epik_Tot_Q>
0

> <i_epik_Tot_abs_Q>
0

> <r_epik_Metal_State_Penalty>
-0

> <b_epik_Metal_Only>
0

> <s_lp_Force_Field>
OPLS_2005

> <r_lp_Energy>
17.0583

> <b_lp_Chiralities_Consistent>
1

> <s_lp_Variant>
AV-unprocessed.smi:782-1

> <Gold.Version>
5.8.1

> <Gold.Id.Protein>
6NUR|6NUR_protein|mol2

> <Gold.PLP.Fitness>
43.7528

> <Gold.PLP.PLP>
-36.4996

> <Gold.PLP.part.hbond>
-3.0000

> <Gold.PLP.part.metal>
0.0000

> <Gold.PLP.part.buried>
-4.5167

> <Gold.PLP.part.nonpolar>
-28.8852

> <Gold.PLP.part.repulsive>
0.2268

> <Gold.PLP.ligand.clash>
0.0000

> <Gold.PLP.ligand.torsion>
0.9338

> <Gold.PLP.Chemscore.Hbond>
2.9760

> <Gold.PLP.Chemscore.CHOScore>
0.0232

> <Gold.PLP.Chemscore.Metal>
0.0000

> <Gold.Chemscore.Hbonds>
donor molecule, donor type, donor heavy atom, donor atom, acceptor molecule, acceptor atom, score
      L1  H     4    27       P1  8028  1.00
      L1  H    11    31       P1  7948  0.94
      P1  H  7989  7998       L1    19  1.00
      L1  C    18    41       P1  7949  0.07

> <Gold.PLP.Chemscore.Internal.Correction>
0.1233

> <Gold.Rescore>
     Score         DG    S(hbond)    S(metal)    S(lipo)     H(rot)  DE(clash)    DE(int)     intcor
     18.09     -19.22       2.84        0.00      75.59       1.79       0.21       0.92       ----

> <Gold.Chemscore.Fitness>
18.0919

> <Gold.Chemscore.DG>
-19.2227

> <Gold.Chemscore.ZeroCoef>
-5.4800

> <Gold.Chemscore.Hbond>
2.8363

> <Gold.Chemscore.Metal>
0.0000

> <Gold.Chemscore.Lipo>
75.5874

> <Gold.Chemscore.Internal_Hbond>
0.0000

> <Gold.Chemscore.DEClash>
0.2076

> <Gold.Chemscore.DEInternal>
0.9231

> <Gold.Chemscore.Rot>
1.7868

> <Gold.Chemscore.Internal.Correction>
   9.000000E+99

> <Gold.Chemscore.Hbonds>
donor molecule, donor type, donor heavy atom, donor atom, acceptor molecule, acceptor atom, score
      L1  H     4    27       P1  8028  1.00
      L1  H    11    31       P1  7948  0.67
      P1  H  7989  7998       L1    19  0.30

> <Gold.Chemscore.Hbond.Weighted>
-9.4732

> <Gold.Chemscore.Metal.Weighted>
-0.0000

> <Gold.Chemscore.Lipo.Weighted>
-8.8437

> <Gold.Chemscore.Internal_Hbond.Weighted>
0.0000

> <Gold.Chemscore.DEClash.Weighted>
0.2076

> <Gold.Chemscore.DEInternal.Weighted>
0.9231

> <Gold.Chemscore.Rot.Weighted>
4.5743

> <Gold.Chemscore.Internal.Correction.Weighted>
   9.000000E+99

> <Gold.Protein.RotatedTorsions>
[ 6907 6896 6895 6894 ] final  -71.10 input  -60.11 | X-H torsion
[ 7974 7965 7964 7962 ] final -147.09 input  175.53 | X-H torsion
[ 8008 7997 7996 7995 ] final  150.07 input   59.86 | X-H torsion
[ 10167 10162 10161 10158 ] final -165.26 input  -65.29 | X-H torsion
[ 10718 10713 10712 10709 ] final  -97.05 input   66.30 | X-H torsion
[ 10763 10752 10751 10750 ] final -140.77 input  -60.55 | X-H torsion
[ 11005 11000 10999 10996 ] final   -6.76 input  -57.11 | X-H torsion

> <Gold.Protein.ActiveResidues>
 VAL166  LYS551  ARG553  GLY616  TRP617  ASP618  TYR619  PRO620  LYS621  CYS622 
 ASP623  PHE694  ASN695  SER759  ASP760  ASP761  ALA762  ILE779  LEU786  VAL792 
 PHE793  MET794  SER795  GLU796  ALA797  LYS798  CYS799  TRP800  GLU811  SER814 

> <Gold.Protein.RotatedAtoms>
  150.7227  134.5357  159.5722 H   0  0  0  0  0  0  0  0  0  0  0  0  # atno 6907 bound_to 6896
  152.2880  134.7751  160.0392 H   0  0  0  0  0  0  0  0  0  0  0  0  # atno 6908 bound_to 6896
  151.8374  133.3383  159.3669 H   0  0  0  0  0  0  0  0  0  0  0  0  # atno 6909 bound_to 6896
  144.8116  140.5372  143.5638 H   0  0  0  0  0  0  0  0  0  0  0  0  # atno 7974 bound_to 7965
  156.2730  140.2085  156.5959 H   0  0  0  0  0  0  0  0  0  0  0  0  # atno 8008 bound_to 7997
  154.6945  140.0527  157.0420 H   0  0  0  0  0  0  0  0  0  0  0  0  # atno 8009 bound_to 7997
  155.0820  140.3187  155.4602 H   0  0  0  0  0  0  0  0  0  0  0  0  # atno 8010 bound_to 7997
  139.6194  144.0655  152.1918 H   0  0  0  0  0  0  0  0  0  0  0  0  # atno 10167 bound_to 10162
  156.0075  130.5178  150.6317 H   0  0  0  0  0  0  0  0  0  0  0  0  # atno 10718 bound_to 10713
  154.8568  135.3543  154.5760 H   0  0  0  0  0  0  0  0  0  0  0  0  # atno 10763 bound_to 10752
  153.6372  135.7000  153.5259 H   0  0  0  0  0  0  0  0  0  0  0  0  # atno 10764 bound_to 10752
  153.3001  135.4209  155.1203 H   0  0  0  0  0  0  0  0  0  0  0  0  # atno 10765 bound_to 10752
  140.7055  133.8953  155.8713 H   0  0  0  0  0  0  0  0  0  0  0  0  # atno 11005 bound_to 11000
  145.5310  139.1475  143.3499 LP  0  0  0  0  0  0  0  0  0  0  0  0  # atno 17320 bound_to 7965
  146.2415  140.5451  142.8932 LP  0  0  0  0  0  0  0  0  0  0  0  0  # atno 17321 bound_to 7965
  140.0293  144.6093  150.7501 LP  0  0  0  0  0  0  0  0  0  0  0  0  # atno 17342 bound_to 10162
  140.7372  143.2763  151.3733 LP  0  0  0  0  0  0  0  0  0  0  0  0  # atno 17343 bound_to 10162
  157.4114  131.0824  151.1217 LP  0  0  0  0  0  0  0  0  0  0  0  0  # atno 17370 bound_to 10713
  157.1848  130.6325  149.5684 LP  0  0  0  0  0  0  0  0  0  0  0  0  # atno 17371 bound_to 10713
  141.0128  134.0996  157.4203 LP  0  0  0  0  0  0  0  0  0  0  0  0  # atno 17394 bound_to 11000
  139.8885  135.0098  156.6626 LP  0  0  0  0  0  0  0  0  0  0  0  0  # atno 17395 bound_to 11000

$$$$
