AV-unprocessed.smi:1022|AV-procd|sdf|4461|dock6
  -GOLD-   22720 2433D 1   1.00000     0.00000
 Structure written by MMmdl.
 32 33  0  0  0  0  0  0  0  0  2 V2000
  144.1537  134.0257  162.2968 C   0  0  0  0  0  0  0  0  0  0  0  0
  145.2790  133.5713  163.0269 O   0  0  0  0  0  0  0  0  0  0  0  0
  146.4662  133.5646  162.2487 C   0  0  0  0  0  0  0  0  0  0  0  0
  146.8585  135.0040  161.8678 C   0  0  1  0  0  0  0  0  0  0  0  0
  147.3792  135.8042  163.0703 C   0  0  0  0  0  0  0  0  0  0  0  0
  147.8554  135.0078  160.7991 N   0  0  0  0  0  0  0  0  0  0  0  0
  148.3441  136.0900  160.1757 C   0  0  0  0  0  0  0  0  0  0  0  0
  147.9543  137.2151  160.4973 O   0  0  0  0  0  0  0  0  0  0  0  0
  149.2513  135.8016  159.2149 N   0  5  0  0  0  0  0  0  0  0  0  0
  149.9299  136.7926  158.6137 C   0  0  0  0  0  0  0  0  0  0  0  0
  149.7436  138.0831  158.9247 N   0  0  0  0  0  0  0  0  0  0  0  0
  150.5457  138.9420  158.1874 N   0  0  0  0  0  0  0  0  0  0  0  0
  151.3339  138.2858  157.3326 C   0  0  0  0  0  0  0  0  0  0  0  0
  152.2860  138.9882  156.4234 C   0  0  0  0  0  0  0  0  0  0  0  0
  151.8264  140.1504  155.5732 C   0  0  0  0  0  0  0  0  0  0  0  0
  152.1989  138.8439  154.9195 C   0  0  0  0  0  0  0  0  0  0  0  0
  151.1571  136.5387  157.3733 S   0  0  0  0  0  0  0  0  0  0  0  0
  143.2727  134.0156  162.9385 H   0  0  0  0  0  0  0  0  0  0  0  0
  143.9534  133.3805  161.4404 H   0  0  0  0  0  0  0  0  0  0  0  0
  144.3000  135.0462  161.9408 H   0  0  0  0  0  0  0  0  0  0  0  0
  147.2749  133.0895  162.8066 H   0  0  0  0  0  0  0  0  0  0  0  0
  146.3113  132.9719  161.3457 H   0  0  0  0  0  0  0  0  0  0  0  0
  145.9638  135.5143  161.5070 H   0  0  0  0  0  0  0  0  0  0  0  0
  146.6380  135.8371  163.8689 H   0  0  0  0  0  0  0  0  0  0  0  0
  147.6045  136.8331  162.7874 H   0  0  0  0  0  0  0  0  0  0  0  0
  148.2900  135.3651  163.4787 H   0  0  0  0  0  0  0  0  0  0  0  0
  148.2002  134.1082  160.4980 H   0  0  0  0  0  0  0  0  0  0  0  0
  153.2759  139.0438  156.8726 H   0  0  0  0  0  0  0  0  0  0  0  0
  150.7707  140.4128  155.6046 H   0  0  0  0  0  0  0  0  0  0  0  0
  152.5119  140.9870  155.4542 H   0  0  0  0  0  0  0  0  0  0  0  0
  153.1342  138.8082  154.3651 H   0  0  0  0  0  0  0  0  0  0  0  0
  151.3887  138.2474  154.5050 H   0  0  0  0  0  0  0  0  0  0  0  0
  1  2  1  0  0  0  0
  1 18  1  0  0  0  0
  1 19  1  0  0  0  0
  1 20  1  0  0  0  0
  2  3  1  0  0  0  0
  3  4  1  0  0  0  0
  3 21  1  0  0  0  0
  3 22  1  0  0  0  0
  4  5  1  0  0  0  0
  4  6  1  0  0  0  0
  4 23  1  0  0  0  0
  5 24  1  0  0  0  0
  5 25  1  0  0  0  0
  5 26  1  0  0  0  0
  6  7  1  0  0  0  0
  6 27  1  0  0  0  0
  7  8  2  0  0  0  0
  7  9  1  0  0  0  0
  9 10  1  0  0  0  0
 10 17  1  0  0  0  0
 10 11  2  0  0  0  0
 11 12  1  0  0  0  0
 12 13  2  0  0  0  0
 13 14  1  0  0  0  0
 13 17  1  0  0  0  0
 14 16  1  0  0  0  0
 14 15  1  0  0  0  0
 14 28  1  0  0  0  0
 15 16  1  0  0  0  0
 15 29  1  0  0  0  0
 15 30  1  0  0  0  0
 16 31  1  0  0  0  0
 16 32  1  0  0  0  0
M  CHG  1   9  -1
M  END
> <s_m_source_file>
AV-unprocessed.smi

> <i_m_source_file_index>
1022

> <i_lp_mmshare_version>
43012

> <i_f3d_flags>
0

> <s_epik_input>
W0NIM11PW0NIMl1bQ0BIXShbQ0gzXSlbTkhdQyg9TylbTkhdYzFubmMoczEpW0NIXTJbQ0gyXVtDSDJdMg==

> <s_epik_cmdline>
J2VwaWtfcHl0aG9uJywgJy1waCcsICc3LjAnLCAnLXRuJywgJzgnLCAnLW1hJywgJzIwMCcsICctbWV0YWxfYmluZGluZycsICctaW1hZScsICc8aW5maWxlLm1hZT4nLCAnLW9tYWUnLCAnPG91dGZpbGUubWFlPic=

> <r_lp_tautomer_probability>
1

> <r_epik_Ionization_Penalty>
3.79487

> <r_epik_Ionization_Penalty_Charging>
3.64217

> <r_epik_Ionization_Penalty_Neutral>
0.152695

> <r_epik_State_Penalty>
3.6409

> <r_epik_Charging_Adjusted_Penalty>
7.28307

> <i_epik_Tot_Q>
-1

> <i_epik_Tot_abs_Q>
1

> <r_epik_Metal_State_Penalty>
0.534129

> <b_epik_Metal_Only>
1

> <s_lp_Force_Field>
OPLS_2005

> <r_lp_Energy>
0.506403

> <b_lp_Chiralities_Consistent>
1

> <s_lp_Variant>
AV-unprocessed.smi:1022-4

> <Gold.Version>
5.8.1

> <Gold.Id.Protein>
6NUR|6NUR_protein|mol2

> <Gold.PLP.Fitness>
41.5108

> <Gold.PLP.PLP>
-31.1661

> <Gold.PLP.part.hbond>
-4.1042

> <Gold.PLP.part.metal>
0.0000

> <Gold.PLP.part.buried>
-2.2345

> <Gold.PLP.part.nonpolar>
-24.5981

> <Gold.PLP.part.repulsive>
0.1514

> <Gold.PLP.ligand.clash>
0.0000

> <Gold.PLP.ligand.torsion>
0.2179

> <Gold.PLP.Chemscore.Hbond>
3.5200

> <Gold.PLP.Chemscore.CHOScore>
0.0000

> <Gold.PLP.Chemscore.Metal>
0.0000

> <Gold.Chemscore.Hbonds>
donor molecule, donor type, donor heavy atom, donor atom, acceptor molecule, acceptor atom, score
      P1  H  6896  6908       L1     9  2.00
      P1  H  6931  6943       L1     8  0.72
      P1  H  6934  6947       L1     8  0.78

> <Gold.PLP.Chemscore.Internal.Correction>
0.2204

> <Gold.Rescore>
     Score         DG    S(hbond)    S(metal)    S(lipo)     H(rot)  DE(clash)    DE(int)     intcor
     11.58     -13.68       1.61        0.00      61.10       1.69       0.04       2.05       ----

> <Gold.Chemscore.Fitness>
11.5819

> <Gold.Chemscore.DG>
-13.6785

> <Gold.Chemscore.ZeroCoef>
-5.4800

> <Gold.Chemscore.Hbond>
1.6114

> <Gold.Chemscore.Metal>
0.0000

> <Gold.Chemscore.Lipo>
61.0965

> <Gold.Chemscore.Internal_Hbond>
0.0000

> <Gold.Chemscore.DEClash>
0.0431

> <Gold.Chemscore.DEInternal>
2.0535

> <Gold.Chemscore.Rot>
1.6921

> <Gold.Chemscore.Internal.Correction>
   9.000000E+99

> <Gold.Chemscore.Hbonds>
donor molecule, donor type, donor heavy atom, donor atom, acceptor molecule, acceptor atom, score
      P1  H  6896  6908       L1     9  0.25
      P1  H  6931  6943       L1     8  0.65
      P1  H  6934  6947       L1     8  0.74

> <Gold.Chemscore.Hbond.Weighted>
-5.3819

> <Gold.Chemscore.Metal.Weighted>
-0.0000

> <Gold.Chemscore.Lipo.Weighted>
-7.1483

> <Gold.Chemscore.Internal_Hbond.Weighted>
0.0000

> <Gold.Chemscore.DEClash.Weighted>
0.0431

> <Gold.Chemscore.DEInternal.Weighted>
2.0535

> <Gold.Chemscore.Rot.Weighted>
4.3317

> <Gold.Chemscore.Internal.Correction.Weighted>
   9.000000E+99

> <Gold.Protein.RotatedTorsions>
[ 6907 6896 6895 6894 ] final  168.68 input  -60.11 | X-H torsion
[ 7974 7965 7964 7962 ] final   48.23 input  175.53 | X-H torsion
[ 8008 7997 7996 7995 ] final   51.36 input   59.86 | X-H torsion
[ 10167 10162 10161 10158 ] final -110.31 input  -65.29 | X-H torsion
[ 10718 10713 10712 10709 ] final   54.59 input   66.30 | X-H torsion
[ 10763 10752 10751 10750 ] final  -56.24 input  -60.55 | X-H torsion
[ 11005 11000 10999 10996 ] final  152.53 input  -57.11 | X-H torsion

> <Gold.Protein.ActiveResidues>
 VAL166  LYS551  ARG553  GLY616  TRP617  ASP618  TYR619  PRO620  LYS621  CYS622 
 ASP623  PHE694  ASN695  SER759  ASP760  ASP761  ALA762  ILE779  LEU786  VAL792 
 PHE793  MET794  SER795  GLU796  ALA797  LYS798  CYS799  TRP800  GLU811  SER814 

> <Gold.Protein.RotatedAtoms>
  151.8438  133.3428  159.3651 H   0  0  0  0  0  0  0  0  0  0  0  0  # atno 6907 bound_to 6896
  150.7227  134.5366  159.5736 H   0  0  0  0  0  0  0  0  0  0  0  0  # atno 6908 bound_to 6896
  152.2845  134.7792  160.0441 H   0  0  0  0  0  0  0  0  0  0  0  0  # atno 6909 bound_to 6896
  146.0223  139.4666  142.9889 H   0  0  0  0  0  0  0  0  0  0  0  0  # atno 7974 bound_to 7965
  155.4340  140.3452  155.4283 H   0  0  0  0  0  0  0  0  0  0  0  0  # atno 8008 bound_to 7997
  156.1319  140.1516  156.9083 H   0  0  0  0  0  0  0  0  0  0  0  0  # atno 8009 bound_to 7997
  154.4901  140.0843  156.7555 H   0  0  0  0  0  0  0  0  0  0  0  0  # atno 8010 bound_to 7997
  140.1459  143.4240  152.1529 H   0  0  0  0  0  0  0  0  0  0  0  0  # atno 10167 bound_to 10162
  157.5271  130.8604  149.8636 H   0  0  0  0  0  0  0  0  0  0  0  0  # atno 10718 bound_to 10713
  154.2035  135.6407  153.5094 H   0  0  0  0  0  0  0  0  0  0  0  0  # atno 10763 bound_to 10752
  153.0006  135.5457  154.6291 H   0  0  0  0  0  0  0  0  0  0  0  0  # atno 10764 bound_to 10752
  154.5710  135.2917  155.0801 H   0  0  0  0  0  0  0  0  0  0  0  0  # atno 10765 bound_to 10752
  140.1316  134.8798  157.2211 H   0  0  0  0  0  0  0  0  0  0  0  0  # atno 11005 bound_to 11000
  145.7173  141.0087  143.1421 LP  0  0  0  0  0  0  0  0  0  0  0  0  # atno 17320 bound_to 7965
  144.6995  139.8828  143.7448 LP  0  0  0  0  0  0  0  0  0  0  0  0  # atno 17321 bound_to 7965
  139.5449  144.7290  151.4614 LP  0  0  0  0  0  0  0  0  0  0  0  0  # atno 17342 bound_to 10162
  140.6732  143.8247  150.7026 LP  0  0  0  0  0  0  0  0  0  0  0  0  # atno 17343 bound_to 10162
  156.0395  130.3742  150.1473 LP  0  0  0  0  0  0  0  0  0  0  0  0  # atno 17370 bound_to 10713
  156.9659  130.9819  151.3469 LP  0  0  0  0  0  0  0  0  0  0  0  0  # atno 17371 bound_to 10713
  140.2835  134.3322  155.7336 LP  0  0  0  0  0  0  0  0  0  0  0  0  # atno 17394 bound_to 11000
  141.2171  133.7492  156.9399 LP  0  0  0  0  0  0  0  0  0  0  0  0  # atno 17395 bound_to 11000

$$$$
