AV-unprocessed.smi:2267|AV-procd|sdf|9148|dock1
  -GOLD-   2272012353D 1   1.00000     0.00000
 Structure written by MMmdl.
 41 42  0  0  0  0  0  0  0  0  1 V2000
  152.4861  143.4442  161.8909 C   0  0  0  0  0  0  0  0  0  0  0  0
  152.1026  143.4868  160.4261 C   0  0  0  0  0  0  0  0  0  0  0  0
  151.7947  144.7147  159.8069 C   0  0  0  0  0  0  0  0  0  0  0  0
  151.4411  144.7452  158.4456 C   0  0  0  0  0  0  0  0  0  0  0  0
  151.3948  143.5503  157.7027 C   0  0  0  0  0  0  0  0  0  0  0  0
  151.7002  142.3131  158.3060 C   0  0  0  0  0  0  0  0  0  0  0  0
  151.6290  141.1934  157.5049 O   0  0  0  0  0  0  0  0  0  0  0  0
  150.7534  141.2189  156.3853 C   0  0  0  0  0  0  0  0  0  0  0  0
  150.6409  139.7971  155.8089 C   0  0  2  0  0  0  0  0  0  0  0  0
  150.9307  139.8832  154.4273 O   0  0  0  0  0  0  0  0  0  0  0  0
  149.2127  139.2253  155.9590 C   0  0  0  0  0  0  0  0  0  0  0  0
  148.1780  140.2203  155.6289 N   0  0  0  0  0  0  0  0  0  0  0  0
  147.9981  140.5022  154.2647 C   0  0  0  0  0  0  0  0  0  0  0  0
  147.1200  141.3595  153.8579 N   0  0  0  0  0  0  0  0  0  0  0  0
  146.3172  142.0290  154.7860 C   0  0  0  0  0  0  0  0  0  0  0  0
  145.3193  143.0128  154.2010 C   0  0  0  0  0  0  0  0  0  0  0  0
  146.4365  141.7964  156.1217 C   0  0  0  0  0  0  0  0  0  0  0  0
  145.5877  142.4932  157.1780 C   0  0  0  0  0  0  0  0  0  0  0  0
  147.4307  140.8218  156.5995 C   0  0  0  0  0  0  0  0  0  0  0  0
  147.5872  140.5566  157.7930 O   0  0  0  0  0  0  0  0  0  0  0  0
  152.0568  142.2918  159.6785 C   0  0  0  0  0  0  0  0  0  0  0  0
  152.2714  144.3922  162.3850 H   0  0  0  0  0  0  0  0  0  0  0  0
  153.5512  143.2370  161.9949 H   0  0  0  0  0  0  0  0  0  0  0  0
  151.9310  142.6605  162.4072 H   0  0  0  0  0  0  0  0  0  0  0  0
  151.8285  145.6350  160.3716 H   0  0  0  0  0  0  0  0  0  0  0  0
  151.2049  145.6856  157.9700 H   0  0  0  0  0  0  0  0  0  0  0  0
  151.1219  143.5834  156.6580 H   0  0  0  0  0  0  0  0  0  0  0  0
  149.7730  141.5503  156.7318 H   0  0  0  0  0  0  0  0  0  0  0  0
  151.0922  141.9216  155.6217 H   0  0  0  0  0  0  0  0  0  0  0  0
  151.3658  139.1476  156.3014 H   0  0  0  0  0  0  0  0  0  0  0  0
  150.7726  139.0392  154.0331 H   0  0  0  0  0  0  0  0  0  0  0  0
  149.0875  138.3734  155.2882 H   0  0  0  0  0  0  0  0  0  0  0  0
  149.0723  138.7997  156.9550 H   0  0  0  0  0  0  0  0  0  0  0  0
  148.6441  139.9484  153.5813 H   0  0  0  0  0  0  0  0  0  0  0  0
  145.5014  144.0172  154.5845 H   0  0  0  0  0  0  0  0  0  0  0  0
  144.3005  142.7200  154.4564 H   0  0  0  0  0  0  0  0  0  0  0  0
  145.3923  143.0526  153.1133 H   0  0  0  0  0  0  0  0  0  0  0  0
  145.0152  141.7580  157.7441 H   0  0  0  0  0  0  0  0  0  0  0  0
  144.8805  143.2070  156.7590 H   0  0  0  0  0  0  0  0  0  0  0  0
  146.2265  143.0358  157.8756 H   0  0  0  0  0  0  0  0  0  0  0  0
  152.3006  141.3682  160.1809 H   0  0  0  0  0  0  0  0  0  0  0  0
  1  2  1  0  0  0  0
  1 22  1  0  0  0  0
  1 23  1  0  0  0  0
  1 24  1  0  0  0  0
  2 21  1  0  0  0  0
  2  3  2  0  0  0  0
  3  4  1  0  0  0  0
  3 25  1  0  0  0  0
  4  5  2  0  0  0  0
  4 26  1  0  0  0  0
  5  6  1  0  0  0  0
  5 27  1  0  0  0  0
  6  7  1  0  0  0  0
  6 21  2  0  0  0  0
  7  8  1  0  0  0  0
  8  9  1  0  0  0  0
  8 28  1  0  0  0  0
  8 29  1  0  0  0  0
  9 10  1  0  0  0  0
  9 11  1  0  0  0  0
  9 30  1  0  0  0  0
 10 31  1  0  0  0  0
 11 12  1  0  0  0  0
 11 32  1  0  0  0  0
 11 33  1  0  0  0  0
 12 19  1  0  0  0  0
 12 13  1  0  0  0  0
 13 14  2  0  0  0  0
 13 34  1  0  0  0  0
 14 15  1  0  0  0  0
 15 16  1  0  0  0  0
 15 17  2  0  0  0  0
 16 35  1  0  0  0  0
 16 36  1  0  0  0  0
 16 37  1  0  0  0  0
 17 18  1  0  0  0  0
 17 19  1  0  0  0  0
 18 38  1  0  0  0  0
 18 39  1  0  0  0  0
 18 40  1  0  0  0  0
 19 20  2  0  0  0  0
 21 41  1  0  0  0  0
M  END
> <s_m_source_file>
AV-unprocessed.smi

> <i_m_source_file_index>
2267

> <i_lp_mmshare_version>
43012

> <i_f3d_flags>
0

> <s_epik_input>
W0NIM11jMVtjSF1bY0hdW2NIXWMoW2NIXTEpT1tDSDJdW0NASF0oW09IXSlbQ0gyXW4yW2NIXW5jKFtDSDNdKWMoW0NIM10pYzI9Tw==

> <s_epik_cmdline>
J2VwaWtfcHl0aG9uJywgJy1waCcsICc3LjAnLCAnLXRuJywgJzgnLCAnLW1hJywgJzIwMCcsICctbWV0YWxfYmluZGluZycsICctaW1hZScsICc8aW5maWxlLm1hZT4nLCAnLW9tYWUnLCAnPG91dGZpbGUubWFlPic=

> <r_lp_tautomer_probability>
1

> <r_epik_Ionization_Penalty>
3.72236e-05

> <r_epik_Ionization_Penalty_Charging>
8.38864e-08

> <r_epik_Ionization_Penalty_Neutral>
3.71397e-05

> <r_epik_State_Penalty>
-0

> <r_epik_Charging_Adjusted_Penalty>
8.38864e-08

> <i_epik_Tot_Q>
0

> <i_epik_Tot_abs_Q>
0

> <r_epik_Metal_State_Penalty>
-0

> <b_epik_Metal_Only>
0

> <s_lp_Force_Field>
OPLS_2005

> <r_lp_Energy>
23.9214

> <b_lp_Chiralities_Consistent>
1

> <s_lp_Variant>
AV-unprocessed.smi:2267-1

> <Gold.Version>
5.8.1

> <Gold.Id.Protein>
6NUR|6NUR_protein|mol2

> <Gold.PLP.Fitness>
47.7153

> <Gold.PLP.PLP>
-44.4433

> <Gold.PLP.part.hbond>
-1.0000

> <Gold.PLP.part.metal>
0.0000

> <Gold.PLP.part.buried>
-6.7015

> <Gold.PLP.part.nonpolar>
-37.7592

> <Gold.PLP.part.repulsive>
0.2091

> <Gold.PLP.ligand.clash>
0.0000

> <Gold.PLP.ligand.torsion>
1.4214

> <Gold.PLP.Chemscore.Hbond>
0.9913

> <Gold.PLP.Chemscore.CHOScore>
1.0000

> <Gold.PLP.Chemscore.Metal>
0.0000

> <Gold.Chemscore.Hbonds>
donor molecule, donor type, donor heavy atom, donor atom, acceptor molecule, acceptor atom, score
      P1  H  7989  7998       L1    10  0.99
      L1  C    13    34       P1  7957  0.81

> <Gold.PLP.Chemscore.Internal.Correction>
0.1411

> <Gold.Rescore>
     Score         DG    S(hbond)    S(metal)    S(lipo)     H(rot)  DE(clash)    DE(int)     intcor
     14.42     -15.95       0.99        0.00     112.53       2.35       0.01       1.53       ----

> <Gold.Chemscore.Fitness>
14.4214

> <Gold.Chemscore.DG>
-15.9524

> <Gold.Chemscore.ZeroCoef>
-5.4800

> <Gold.Chemscore.Hbond>
0.9942

> <Gold.Chemscore.Metal>
0.0000

> <Gold.Chemscore.Lipo>
112.5254

> <Gold.Chemscore.Internal_Hbond>
0.0000

> <Gold.Chemscore.DEClash>
0.0059

> <Gold.Chemscore.DEInternal>
1.5251

> <Gold.Chemscore.Rot>
2.3490

> <Gold.Chemscore.Internal.Correction>
   9.000000E+99

> <Gold.Chemscore.Hbonds>
donor molecule, donor type, donor heavy atom, donor atom, acceptor molecule, acceptor atom, score
      P1  H  7989  7998       L1    10  0.79

> <Gold.Chemscore.Hbond.Weighted>
-3.3205

> <Gold.Chemscore.Metal.Weighted>
-0.0000

> <Gold.Chemscore.Lipo.Weighted>
-13.1655

> <Gold.Chemscore.Internal_Hbond.Weighted>
0.0000

> <Gold.Chemscore.DEClash.Weighted>
0.0059

> <Gold.Chemscore.DEInternal.Weighted>
1.5251

> <Gold.Chemscore.Rot.Weighted>
6.0136

> <Gold.Chemscore.Internal.Correction.Weighted>
   9.000000E+99

> <Gold.Protein.RotatedTorsions>
[ 6907 6896 6895 6894 ] final  135.79 input  -60.11 | X-H torsion
[ 7974 7965 7964 7962 ] final   -9.35 input  175.53 | X-H torsion
[ 8008 7997 7996 7995 ] final   -4.69 input   59.86 | X-H torsion
[ 10167 10162 10161 10158 ] final -161.06 input  -65.29 | X-H torsion
[ 10718 10713 10712 10709 ] final  120.26 input   66.30 | X-H torsion
[ 10763 10752 10751 10750 ] final  -55.86 input  -60.55 | X-H torsion
[ 11005 11000 10999 10996 ] final  154.41 input  -57.11 | X-H torsion

> <Gold.Protein.ActiveResidues>
 VAL166  LYS551  ARG553  GLY616  TRP617  ASP618  TYR619  PRO620  LYS621  CYS622 
 ASP623  PHE694  ASN695  SER759  ASP760  ASP761  ALA762  ILE779  LEU786  VAL792 
 PHE793  MET794  SER795  GLU796  ALA797  LYS798  CYS799  TRP800  GLU811  SER814 

> <Gold.Protein.RotatedAtoms>
  152.2965  133.5612  159.5590 H   0  0  0  0  0  0  0  0  0  0  0  0  # atno 6907 bound_to 6896
  150.7258  134.0353  159.3756 H   0  0  0  0  0  0  0  0  0  0  0  0  # atno 6908 bound_to 6896
  151.8256  135.0638  160.0481 H   0  0  0  0  0  0  0  0  0  0  0  0  # atno 6909 bound_to 6896
  146.2254  140.2603  142.8351 H   0  0  0  0  0  0  0  0  0  0  0  0  # atno 7974 bound_to 7965
  154.6117  140.2477  155.7660 H   0  0  0  0  0  0  0  0  0  0  0  0  # atno 8008 bound_to 7997
  156.2374  140.2945  156.0301 H   0  0  0  0  0  0  0  0  0  0  0  0  # atno 8009 bound_to 7997
  155.2041  140.0395  157.2913 H   0  0  0  0  0  0  0  0  0  0  0  0  # atno 8010 bound_to 7997
  139.6493  144.0114  152.2150 H   0  0  0  0  0  0  0  0  0  0  0  0  # atno 10167 bound_to 10162
  157.5903  131.1065  150.8011 H   0  0  0  0  0  0  0  0  0  0  0  0  # atno 10718 bound_to 10713
  154.1976  135.6416  153.5077 H   0  0  0  0  0  0  0  0  0  0  0  0  # atno 10763 bound_to 10752
  153.0020  135.5443  154.6350 H   0  0  0  0  0  0  0  0  0  0  0  0  # atno 10764 bound_to 10752
  154.5754  135.2920  155.0759 H   0  0  0  0  0  0  0  0  0  0  0  0  # atno 10765 bound_to 10752
  140.1486  134.8690  157.2426 H   0  0  0  0  0  0  0  0  0  0  0  0  # atno 11005 bound_to 11000
  144.9345  140.8011  143.5669 LP  0  0  0  0  0  0  0  0  0  0  0  0  # atno 17320 bound_to 7965
  145.2549  139.2016  143.4923 LP  0  0  0  0  0  0  0  0  0  0  0  0  # atno 17321 bound_to 7965
  139.9823  144.6419  150.7889 LP  0  0  0  0  0  0  0  0  0  0  0  0  # atno 17342 bound_to 10162
  140.7530  143.3000  151.3105 LP  0  0  0  0  0  0  0  0  0  0  0  0  # atno 17343 bound_to 10162
  156.8435  130.5056  149.5319 LP  0  0  0  0  0  0  0  0  0  0  0  0  # atno 17370 bound_to 10713
  156.0957  130.5930  150.9809 LP  0  0  0  0  0  0  0  0  0  0  0  0  # atno 17371 bound_to 10713
  140.2632  134.3547  155.7399 LP  0  0  0  0  0  0  0  0  0  0  0  0  # atno 17394 bound_to 11000
  141.2196  133.7381  156.9111 LP  0  0  0  0  0  0  0  0  0  0  0  0  # atno 17395 bound_to 11000

$$$$
