AV-unprocessed.smi:1426|AV-procd|sdf|5807|dock10
  -GOLD-   22720 5463D 1   1.00000     0.00000
 Structure written by MMmdl.
 44 46  0  0  0  0  0  0  0  0  2 V2000
  150.6453  140.7399  156.5258 O   0  0  0  0  0  0  0  0  0  0  0  0
  150.1181  141.8385  156.3521 C   0  0  0  0  0  0  0  0  0  0  0  0
  150.5165  142.9587  156.9705 N   0  0  0  0  0  0  0  0  0  0  0  0
  151.6112  143.0410  157.9322 C   0  0  0  0  0  0  0  0  0  0  0  0
  151.6762  144.4169  158.6308 C   0  0  2  0  0  0  0  0  0  0  0  0
  152.5560  144.4319  159.8733 C   0  0  0  0  0  0  0  0  0  0  0  0
  151.5982  144.0671  161.0118 C   0  0  0  0  0  0  0  0  0  0  0  0
  150.2833  144.1404  160.4699 O   0  0  0  0  0  0  0  0  0  0  0  0
  150.3302  144.8227  159.2261 C   0  0  0  0  0  0  0  0  0  0  0  0
  149.0675  142.0737  155.5484 N   0  0  0  0  0  0  0  0  0  0  0  0
  148.3417  141.1408  154.7541 C   0  0  0  0  0  0  0  0  0  0  0  0
  148.8965  139.8833  154.4019 C   0  0  0  0  0  0  0  0  0  0  0  0
  148.1463  138.9740  153.6329 C   0  0  0  0  0  0  0  0  0  0  0  0
  146.8523  139.3365  153.2223 C   0  0  0  0  0  0  0  0  0  0  0  0
  146.3602  140.5473  153.5556 N   0  3  0  0  0  0  0  0  0  0  0  0
  147.0384  141.4718  154.2807 C   0  0  0  0  0  0  0  0  0  0  0  0
  146.3979  142.7049  154.5404 N   0  0  0  0  0  0  0  0  0  0  0  0
  145.4577  142.8288  155.6482 C   0  0  0  0  0  0  0  0  0  0  0  0
  144.7329  144.1494  155.4049 C   0  0  0  0  0  0  0  0  0  0  0  0
  144.6414  144.1968  153.8824 C   0  0  0  0  0  0  0  0  0  0  0  0
  145.9301  143.5100  153.4163 C   0  0  0  0  0  0  0  0  0  0  0  0
  150.0256  143.8177  156.7694 H   0  0  0  0  0  0  0  0  0  0  0  0
  151.5073  142.2462  158.6728 H   0  0  0  0  0  0  0  0  0  0  0  0
  152.5429  142.8423  157.4014 H   0  0  0  0  0  0  0  0  0  0  0  0
  152.0091  145.1670  157.9122 H   0  0  0  0  0  0  0  0  0  0  0  0
  153.4143  143.7621  159.8146 H   0  0  0  0  0  0  0  0  0  0  0  0
  152.9407  145.4401  160.0331 H   0  0  0  0  0  0  0  0  0  0  0  0
  151.7783  143.0558  161.3771 H   0  0  0  0  0  0  0  0  0  0  0  0
  151.7038  144.7544  161.8517 H   0  0  0  0  0  0  0  0  0  0  0  0
  150.3007  145.8979  159.4093 H   0  0  0  0  0  0  0  0  0  0  0  0
  149.4816  144.5646  158.5917 H   0  0  0  0  0  0  0  0  0  0  0  0
  148.6820  143.0057  155.5866 H   0  0  0  0  0  0  0  0  0  0  0  0
  149.8934  139.6018  154.7054 H   0  0  0  0  0  0  0  0  0  0  0  0
  148.5587  138.0124  153.3641 H   0  0  0  0  0  0  0  0  0  0  0  0
  146.2032  138.7039  152.6340 H   0  0  0  0  0  0  0  0  0  0  0  0
  144.7385  142.0089  155.6319 H   0  0  0  0  0  0  0  0  0  0  0  0
  145.9709  142.8194  156.6101 H   0  0  0  0  0  0  0  0  0  0  0  0
  143.7596  144.1972  155.8940 H   0  0  0  0  0  0  0  0  0  0  0  0
  145.3383  144.9810  155.7688 H   0  0  0  0  0  0  0  0  0  0  0  0
  143.7771  143.6194  153.5512 H   0  0  0  0  0  0  0  0  0  0  0  0
  144.5368  145.2100  153.4935 H   0  0  0  0  0  0  0  0  0  0  0  0
  146.6865  144.2596  153.1809 H   0  0  0  0  0  0  0  0  0  0  0  0
  145.7569  142.9070  152.5233 H   0  0  0  0  0  0  0  0  0  0  0  0
  145.4218  140.7850  153.2340 H   0  0  0  0  0  0  0  0  0  0  0  0
  1  2  2  0  0  0  0
  2  3  1  0  0  0  0
  2 10  1  0  0  0  0
  3  4  1  0  0  0  0
  3 22  1  0  0  0  0
  4  5  1  0  0  0  0
  4 23  1  0  0  0  0
  4 24  1  0  0  0  0
  5  9  1  0  0  0  0
  5  6  1  0  0  0  0
  5 25  1  0  0  0  0
  6  7  1  0  0  0  0
  6 26  1  0  0  0  0
  6 27  1  0  0  0  0
  7  8  1  0  0  0  0
  7 28  1  0  0  0  0
  7 29  1  0  0  0  0
  8  9  1  0  0  0  0
  9 30  1  0  0  0  0
  9 31  1  0  0  0  0
 10 11  1  0  0  0  0
 10 32  1  0  0  0  0
 11 16  1  0  0  0  0
 11 12  2  0  0  0  0
 12 13  1  0  0  0  0
 12 33  1  0  0  0  0
 13 14  2  0  0  0  0
 13 34  1  0  0  0  0
 14 15  1  0  0  0  0
 14 35  1  0  0  0  0
 15 16  2  0  0  0  0
 15 44  1  0  0  0  0
 16 17  1  0  0  0  0
 17 21  1  0  0  0  0
 17 18  1  0  0  0  0
 18 19  1  0  0  0  0
 18 36  1  0  0  0  0
 18 37  1  0  0  0  0
 19 20  1  0  0  0  0
 19 38  1  0  0  0  0
 19 39  1  0  0  0  0
 20 21  1  0  0  0  0
 20 40  1  0  0  0  0
 20 41  1  0  0  0  0
 21 42  1  0  0  0  0
 21 43  1  0  0  0  0
M  CHG  1  15   1
M  END
> <s_m_source_file>
AV-unprocessed.smi

> <i_m_source_file_index>
1426

> <i_lp_mmshare_version>
43012

> <i_f3d_flags>
0

> <s_epik_input>
W0NIMl0xT1tDSDJdW0NIMl1bQ0BIXTFbQ0gyXVtOSF1DKD1PKVtOSF1jMltjSF1bY0hdW2NIXW5jMk4zW0NIMl1bQ0gyXVtDSDJdW0NIMl0z

> <s_epik_cmdline>
J2VwaWtfcHl0aG9uJywgJy1waCcsICc3LjAnLCAnLXRuJywgJzgnLCAnLW1hJywgJzIwMCcsICctbWV0YWxfYmluZGluZycsICctaW1hZScsICc8aW5maWxlLm1hZT4nLCAnLW9tYWUnLCAnPG91dGZpbGUubWFlPic=

> <r_lp_tautomer_probability>
0.999994

> <r_epik_Ionization_Penalty>
1.10677

> <r_epik_Ionization_Penalty_Charging>
1.10675

> <r_epik_Ionization_Penalty_Neutral>
2.02663e-05

> <r_epik_State_Penalty>
1.16438

> <r_epik_Charging_Adjusted_Penalty>
2.27113

> <i_epik_Tot_Q>
1

> <i_epik_Tot_abs_Q>
1

> <r_epik_Metal_State_Penalty>
1.25078

> <b_epik_Metal_Only>
0

> <s_lp_Force_Field>
OPLS_2005

> <r_lp_Energy>
54.6113

> <b_lp_Chiralities_Consistent>
1

> <s_lp_Variant>
AV-unprocessed.smi:1426-3

> <Gold.Version>
5.8.1

> <Gold.Id.Protein>
6NUR|6NUR_protein|mol2

> <Gold.PLP.Fitness>
52.9360

> <Gold.PLP.PLP>
-41.7425

> <Gold.PLP.part.hbond>
-3.8708

> <Gold.PLP.part.metal>
0.0000

> <Gold.PLP.part.buried>
-6.2138

> <Gold.PLP.part.nonpolar>
-32.4994

> <Gold.PLP.part.repulsive>
0.5395

> <Gold.PLP.ligand.clash>
0.0000

> <Gold.PLP.ligand.torsion>
0.5354

> <Gold.PLP.Chemscore.Hbond>
3.9600

> <Gold.PLP.Chemscore.CHOScore>
0.0000

> <Gold.PLP.Chemscore.Metal>
0.0000

> <Gold.Chemscore.Hbonds>
donor molecule, donor type, donor heavy atom, donor atom, acceptor molecule, acceptor atom, score
      L1  H     3    22       P1  8028  0.98
      L1  H    10    32       P1  8028  1.00
      L1  H    15    44       P1 10175  2.00

> <Gold.PLP.Chemscore.Internal.Correction>
0.3844

> <Gold.Rescore>
     Score         DG    S(hbond)    S(metal)    S(lipo)     H(rot)  DE(clash)    DE(int)     intcor
     21.56     -23.31       2.83        0.00     102.35       1.40       0.06       1.68       ----

> <Gold.Chemscore.Fitness>
21.5636

> <Gold.Chemscore.DG>
-23.3088

> <Gold.Chemscore.ZeroCoef>
-5.4800

> <Gold.Chemscore.Hbond>
2.8276

> <Gold.Chemscore.Metal>
0.0000

> <Gold.Chemscore.Lipo>
102.3461

> <Gold.Chemscore.Internal_Hbond>
0.0000

> <Gold.Chemscore.DEClash>
0.0618

> <Gold.Chemscore.DEInternal>
1.6834

> <Gold.Chemscore.Rot>
1.4023

> <Gold.Chemscore.Internal.Correction>
   9.000000E+99

> <Gold.Chemscore.Hbonds>
donor molecule, donor type, donor heavy atom, donor atom, acceptor molecule, acceptor atom, score
      L1  H     3    22       P1  8028  0.93
      L1  H    10    32       P1  8028  0.96
      L1  H    15    44       P1 10175  0.74

> <Gold.Chemscore.Hbond.Weighted>
-9.4441

> <Gold.Chemscore.Metal.Weighted>
-0.0000

> <Gold.Chemscore.Lipo.Weighted>
-11.9745

> <Gold.Chemscore.Internal_Hbond.Weighted>
0.0000

> <Gold.Chemscore.DEClash.Weighted>
0.0618

> <Gold.Chemscore.DEInternal.Weighted>
1.6834

> <Gold.Chemscore.Rot.Weighted>
3.5898

> <Gold.Chemscore.Internal.Correction.Weighted>
   9.000000E+99

> <Gold.Protein.RotatedTorsions>
[ 6907 6896 6895 6894 ] final   60.74 input  -60.11 | X-H torsion
[ 7974 7965 7964 7962 ] final  -80.42 input  175.53 | X-H torsion
[ 8008 7997 7996 7995 ] final  -87.65 input   59.86 | X-H torsion
[ 10167 10162 10161 10158 ] final -177.25 input  -65.29 | X-H torsion
[ 10718 10713 10712 10709 ] final    7.89 input   66.30 | X-H torsion
[ 10763 10752 10751 10750 ] final -142.91 input  -60.55 | X-H torsion
[ 11005 11000 10999 10996 ] final -131.71 input  -57.11 | X-H torsion

> <Gold.Protein.ActiveResidues>
 VAL166  LYS551  ARG553  GLY616  TRP617  ASP618  TYR619  PRO620  LYS621  CYS622 
 ASP623  PHE694  ASN695  SER759  ASP760  ASP761  ALA762  ILE779  LEU786  VAL792 
 PHE793  MET794  SER795  GLU796  ALA797  LYS798  CYS799  TRP800  GLU811  SER814 

> <Gold.Protein.RotatedAtoms>
  152.4029  134.6256  160.0062 H   0  0  0  0  0  0  0  0  0  0  0  0  # atno 6907 bound_to 6896
  151.6456  133.3318  159.3148 H   0  0  0  0  0  0  0  0  0  0  0  0  # atno 6908 bound_to 6896
  150.7927  134.7005  159.6592 H   0  0  0  0  0  0  0  0  0  0  0  0  # atno 6909 bound_to 6896
  145.5601  140.9483  143.1452 H   0  0  0  0  0  0  0  0  0  0  0  0  # atno 7974 bound_to 7965
  154.6657  140.0563  157.0111 H   0  0  0  0  0  0  0  0  0  0  0  0  # atno 8008 bound_to 7997
  155.1163  140.3243  155.4490 H   0  0  0  0  0  0  0  0  0  0  0  0  # atno 8009 bound_to 7997
  156.2637  140.2005  156.6286 H   0  0  0  0  0  0  0  0  0  0  0  0  # atno 8010 bound_to 7997
  139.5489  144.2161  152.1040 H   0  0  0  0  0  0  0  0  0  0  0  0  # atno 10167 bound_to 10162
  156.9436  130.5870  149.5653 H   0  0  0  0  0  0  0  0  0  0  0  0  # atno 10718 bound_to 10713
  154.8491  135.3483  154.6103 H   0  0  0  0  0  0  0  0  0  0  0  0  # atno 10763 bound_to 10752
  153.6711  135.6985  153.5151 H   0  0  0  0  0  0  0  0  0  0  0  0  # atno 10764 bound_to 10752
  153.2741  135.4283  155.0973 H   0  0  0  0  0  0  0  0  0  0  0  0  # atno 10765 bound_to 10752
  140.9235  134.1414  157.4295 H   0  0  0  0  0  0  0  0  0  0  0  0  # atno 11005 bound_to 11000
  144.7487  139.7251  143.7282 LP  0  0  0  0  0  0  0  0  0  0  0  0  # atno 17320 bound_to 7965
  146.1857  139.5071  142.9838 LP  0  0  0  0  0  0  0  0  0  0  0  0  # atno 17321 bound_to 7965
  140.1653  144.4987  150.6610 LP  0  0  0  0  0  0  0  0  0  0  0  0  # atno 17342 bound_to 10162
  140.6746  143.2300  151.5539 LP  0  0  0  0  0  0  0  0  0  0  0  0  # atno 17343 bound_to 10162
  156.0393  130.5477  150.8732 LP  0  0  0  0  0  0  0  0  0  0  0  0  # atno 17370 bound_to 10713
  157.5768  131.0946  150.9333 LP  0  0  0  0  0  0  0  0  0  0  0  0  # atno 17371 bound_to 10713
  139.8780  134.9980  156.5875 LP  0  0  0  0  0  0  0  0  0  0  0  0  # atno 17394 bound_to 11000
  140.7957  133.8546  155.8684 LP  0  0  0  0  0  0  0  0  0  0  0  0  # atno 17395 bound_to 11000

$$$$
