AV-unprocessed.smi:113|AV-procd|sdf|1093|dock4
  -GOLD-   2262018193D 1   1.00000     0.00000
 Structure written by MMmdl.
 52 55  0  0  0  0  0  0  0  0  1 V2000
  153.5047  138.5942  159.7233 C   0  0  0  0  0  0  0  0  0  0  0  0
  152.9270  139.9151  159.2593 C   0  0  0  0  0  0  0  0  0  0  0  0
  152.3052  140.0231  158.0030 C   0  0  0  0  0  0  0  0  0  0  0  0
  151.7737  141.2710  157.6050 C   0  0  0  0  0  0  0  0  0  0  0  0
  151.0883  141.4429  156.2445 C   0  0  0  0  0  0  0  0  0  0  0  0
  149.7723  140.8384  156.0897 N   0  0  0  0  0  0  0  0  0  0  0  0
  148.7710  141.1870  157.0285 C   0  0  0  0  0  0  0  0  0  0  0  0
  148.9998  141.9629  157.9591 O   0  0  0  0  0  0  0  0  0  0  0  0
  147.4601  140.5773  156.7942 C   0  0  0  0  0  0  0  0  0  0  0  0
  146.3322  140.9097  157.7584 C   0  0  0  0  0  0  0  0  0  0  0  0
  147.2826  139.7494  155.7367 C   0  0  0  0  0  0  0  0  0  0  0  0
  148.2799  139.4176  154.8362 N   0  0  0  0  0  0  0  0  0  0  0  0
  147.9464  138.5250  153.6578 C   0  0  2  0  0  0  0  0  0  0  0  0
  146.8470  139.0872  152.7499 C   0  0  0  0  0  0  0  0  0  0  0  0
  146.1548  137.8127  152.3135 C   0  0  2  0  0  0  0  0  0  0  0  0
  144.8166  138.0667  151.9386 O   0  0  0  0  0  0  0  0  0  0  0  0
  146.2544  136.9340  153.5648 C   0  0  1  0  0  0  0  0  0  0  0  0
  146.2184  135.4292  153.2572 C   0  0  0  0  0  0  0  0  0  0  0  0
  147.3001  135.0783  152.4209 O   0  0  0  0  0  0  0  0  0  0  0  0
  147.5182  137.2821  154.1326 O   0  0  0  0  0  0  0  0  0  0  0  0
  149.5644  139.9891  154.9794 C   0  0  0  0  0  0  0  0  0  0  0  0
  150.4587  139.7694  154.1604 O   0  0  0  0  0  0  0  0  0  0  0  0
  151.8939  142.3629  158.5068 C   0  0  0  0  0  0  0  0  0  0  0  0
  151.3850  143.6451  158.1879 C   0  0  0  0  0  0  0  0  0  0  0  0
  151.5180  144.7136  159.0922 C   0  0  0  0  0  0  0  0  0  0  0  0
  152.1597  144.5118  160.3252 C   0  0  0  0  0  0  0  0  0  0  0  0
  152.6654  143.2405  160.6510 C   0  0  0  0  0  0  0  0  0  0  0  0
  152.5432  142.1535  159.7592 C   0  0  0  0  0  0  0  0  0  0  0  0
  153.0426  140.9494  160.1147 N   0  0  0  0  0  0  0  0  0  0  0  0
  153.8347  137.9965  158.8730 H   0  0  0  0  0  0  0  0  0  0  0  0
  152.7514  138.0264  160.2698 H   0  0  0  0  0  0  0  0  0  0  0  0
  154.3623  138.7485  160.3792 H   0  0  0  0  0  0  0  0  0  0  0  0
  152.2443  139.1530  157.3672 H   0  0  0  0  0  0  0  0  0  0  0  0
  150.9905  142.5025  156.0037 H   0  0  0  0  0  0  0  0  0  0  0  0
  151.7222  141.0450  155.4510 H   0  0  0  0  0  0  0  0  0  0  0  0
  145.4055  140.4014  157.4904 H   0  0  0  0  0  0  0  0  0  0  0  0
  146.1351  141.9825  157.7595 H   0  0  0  0  0  0  0  0  0  0  0  0
  146.5960  140.6083  158.7728 H   0  0  0  0  0  0  0  0  0  0  0  0
  146.3004  139.3224  155.5927 H   0  0  0  0  0  0  0  0  0  0  0  0
  148.8786  138.3705  153.1135 H   0  0  0  0  0  0  0  0  0  0  0  0
  146.1687  139.7355  153.3037 H   0  0  0  0  0  0  0  0  0  0  0  0
  147.2746  139.6566  151.9243 H   0  0  0  0  0  0  0  0  0  0  0  0
  146.6991  137.3615  151.4824 H   0  0  0  0  0  0  0  0  0  0  0  0
  144.6071  138.9612  152.1612 H   0  0  0  0  0  0  0  0  0  0  0  0
  145.4626  137.2076  154.2642 H   0  0  0  0  0  0  0  0  0  0  0  0
  146.3207  134.8558  154.1790 H   0  0  0  0  0  0  0  0  0  0  0  0
  145.2725  135.1396  152.7989 H   0  0  0  0  0  0  0  0  0  0  0  0
  147.8112  135.8544  152.2488 H   0  0  0  0  0  0  0  0  0  0  0  0
  150.8852  143.8335  157.2503 H   0  0  0  0  0  0  0  0  0  0  0  0
  151.1269  145.6880  158.8390 H   0  0  0  0  0  0  0  0  0  0  0  0
  152.2638  145.3306  161.0217 H   0  0  0  0  0  0  0  0  0  0  0  0
  153.1559  143.0976  161.6028 H   0  0  0  0  0  0  0  0  0  0  0  0
  1  2  1  0  0  0  0
  1 30  1  0  0  0  0
  1 31  1  0  0  0  0
  1 32  1  0  0  0  0
  2 29  1  0  0  0  0
  2  3  2  0  0  0  0
  3  4  1  0  0  0  0
  3 33  1  0  0  0  0
  4  5  1  0  0  0  0
  4 23  2  0  0  0  0
  5  6  1  0  0  0  0
  5 34  1  0  0  0  0
  5 35  1  0  0  0  0
  6 21  1  0  0  0  0
  6  7  1  0  0  0  0
  7  8  2  0  0  0  0
  7  9  1  0  0  0  0
  9 10  1  0  0  0  0
  9 11  2  0  0  0  0
 10 36  1  0  0  0  0
 10 37  1  0  0  0  0
 10 38  1  0  0  0  0
 11 12  1  0  0  0  0
 11 39  1  0  0  0  0
 12 13  1  0  0  0  0
 12 21  1  0  0  0  0
 13 20  1  0  0  0  0
 13 14  1  0  0  0  0
 13 40  1  0  0  0  0
 14 15  1  0  0  0  0
 14 41  1  0  0  0  0
 14 42  1  0  0  0  0
 15 16  1  0  0  0  0
 15 17  1  0  0  0  0
 15 43  1  0  0  0  0
 16 44  1  0  0  0  0
 17 18  1  0  0  0  0
 17 20  1  0  0  0  0
 17 45  1  0  0  0  0
 18 19  1  0  0  0  0
 18 46  1  0  0  0  0
 18 47  1  0  0  0  0
 19 48  1  0  0  0  0
 21 22  2  0  0  0  0
 23 28  1  0  0  0  0
 23 24  1  0  0  0  0
 24 25  2  0  0  0  0
 24 49  1  0  0  0  0
 25 26  1  0  0  0  0
 25 50  1  0  0  0  0
 26 27  2  0  0  0  0
 26 51  1  0  0  0  0
 27 28  1  0  0  0  0
 27 52  1  0  0  0  0
 28 29  2  0  0  0  0
M  END
> <s_m_source_file>
AV-unprocessed.smi

> <i_m_source_file_index>
113

> <i_lp_mmshare_version>
43012

> <i_f3d_flags>
0

> <s_epik_input>
W2NIXTFbY0hdW2NIXVtjSF1jKGMxMiluYyhbQ0gzXSlbY0hdYzJbQ0gyXW4zYyg9TyljKFtDSDNdKVtjSF1uKGMzPU8pW0NAQEhdNFtDSDJdW0NAQEhdKFtPSF0pW0NASF0oTzQpW0NIMl1bT0hd

> <s_epik_cmdline>
J2VwaWtfcHl0aG9uJywgJy1waCcsICc3LjAnLCAnLXRuJywgJzgnLCAnLW1hJywgJzIwMCcsICctbWV0YWxfYmluZGluZycsICctaW1hZScsICc8aW5maWxlLm1hZT4nLCAnLW9tYWUnLCAnPG91dGZpbGUubWFlPic=

> <r_lp_tautomer_probability>
1

> <r_epik_Ionization_Penalty>
0.214728

> <r_epik_Ionization_Penalty_Charging>
3.04883e-08

> <r_epik_Ionization_Penalty_Neutral>
0.214728

> <r_epik_State_Penalty>
0.204913

> <r_epik_Charging_Adjusted_Penalty>
0.204913

> <i_epik_Tot_Q>
0

> <i_epik_Tot_abs_Q>
0

> <r_epik_Metal_State_Penalty>
0.000244761

> <b_epik_Metal_Only>
0

> <s_epik_Chemistry_Notes>
This compound contains an acetal/aminal-like group ( X-CH(R)-Y where X, Y are N, S, or O) that may be acid/base labile, releasing an aldehyde.

> <s_lp_Force_Field>
OPLS_2005

> <r_lp_Energy>
34.9534

> <b_lp_Chiralities_Consistent>
1

> <s_lp_Variant>
AV-unprocessed.smi:113-3

> <Gold.Version>
5.8.1

> <Gold.Id.Protein>
6NUR|6NUR_protein|mol2

> <Gold.PLP.Fitness>
56.4818

> <Gold.PLP.PLP>
-48.0652

> <Gold.PLP.part.hbond>
-3.3468

> <Gold.PLP.part.metal>
0.0000

> <Gold.PLP.part.buried>
-8.8486

> <Gold.PLP.part.nonpolar>
-37.3990

> <Gold.PLP.part.repulsive>
0.4142

> <Gold.PLP.ligand.clash>
0.0000

> <Gold.PLP.ligand.torsion>
0.1988

> <Gold.PLP.Chemscore.Hbond>
2.9280

> <Gold.PLP.Chemscore.CHOScore>
0.0000

> <Gold.PLP.Chemscore.Metal>
0.0000

> <Gold.Chemscore.Hbonds>
donor molecule, donor type, donor heavy atom, donor atom, acceptor molecule, acceptor atom, score
      L1  H    16    44       P1 10175  1.00
      L1  H    19    48       P1  7948  0.24
      P1  H  7989  7998       L1    22  1.00

> <Gold.PLP.Chemscore.Internal.Correction>
0.0302

> <Gold.Rescore>
     Score         DG    S(hbond)    S(metal)    S(lipo)     H(rot)  DE(clash)    DE(int)     intcor
     18.19     -21.71       2.85        0.00     121.88       2.95       0.06       3.45       ----

> <Gold.Chemscore.Fitness>
18.1945

> <Gold.Chemscore.DG>
-21.7078

> <Gold.Chemscore.ZeroCoef>
-5.4800

> <Gold.Chemscore.Hbond>
2.8477

> <Gold.Chemscore.Metal>
0.0000

> <Gold.Chemscore.Lipo>
121.8827

> <Gold.Chemscore.Internal_Hbond>
0.0000

> <Gold.Chemscore.DEClash>
0.0647

> <Gold.Chemscore.DEInternal>
3.4486

> <Gold.Chemscore.Rot>
2.9469

> <Gold.Chemscore.Internal.Correction>
   9.000000E+99

> <Gold.Chemscore.Hbonds>
donor molecule, donor type, donor heavy atom, donor atom, acceptor molecule, acceptor atom, score
      L1  H    16    44       P1 10175  1.00
      L1  H    19    48       P1  7948  0.24
      P1  H  7989  7998       L1    22  1.00

> <Gold.Chemscore.Hbond.Weighted>
-9.5115

> <Gold.Chemscore.Metal.Weighted>
-0.0000

> <Gold.Chemscore.Lipo.Weighted>
-14.2603

> <Gold.Chemscore.Internal_Hbond.Weighted>
0.0000

> <Gold.Chemscore.DEClash.Weighted>
0.0647

> <Gold.Chemscore.DEInternal.Weighted>
3.4486

> <Gold.Chemscore.Rot.Weighted>
7.5439

> <Gold.Chemscore.Internal.Correction.Weighted>
   9.000000E+99

> <Gold.Protein.RotatedTorsions>
[ 6907 6896 6895 6894 ] final  155.35 input  -60.11 | X-H torsion
[ 7974 7965 7964 7962 ] final   58.58 input  175.53 | X-H torsion
[ 8008 7997 7996 7995 ] final  -13.34 input   59.86 | X-H torsion
[ 10167 10162 10161 10158 ] final    4.10 input  -65.29 | X-H torsion
[ 10718 10713 10712 10709 ] final  -41.38 input   66.30 | X-H torsion
[ 10763 10752 10751 10750 ] final   37.15 input  -60.55 | X-H torsion
[ 11005 11000 10999 10996 ] final  -62.49 input  -57.11 | X-H torsion

> <Gold.Protein.ActiveResidues>
 VAL166  LYS551  ARG553  GLY616  TRP617  ASP618  TYR619  PRO620  LYS621  CYS622 
 ASP623  PHE694  ASN695  SER759  ASP760  ASP761  ALA762  ILE779  LEU786  VAL792 
 PHE793  MET794  SER795  GLU796  ALA797  LYS798  CYS799  TRP800  GLU811  SER814 

> <Gold.Protein.RotatedAtoms>
  152.0454  133.3995  159.4354 H   0  0  0  0  0  0  0  0  0  0  0  0  # atno 6907 bound_to 6896
  150.6873  134.3367  159.4860 H   0  0  0  0  0  0  0  0  0  0  0  0  # atno 6908 bound_to 6896
  152.1171  134.9232  160.0615 H   0  0  0  0  0  0  0  0  0  0  0  0  # atno 6909 bound_to 6896
  145.9166  139.3695  143.0504 H   0  0  0  0  0  0  0  0  0  0  0  0  # atno 7974 bound_to 7965
  154.5300  140.2252  155.8821 H   0  0  0  0  0  0  0  0  0  0  0  0  # atno 8008 bound_to 7997
  156.1754  140.3112  155.9013 H   0  0  0  0  0  0  0  0  0  0  0  0  # atno 8009 bound_to 7997
  155.3471  140.0453  157.3036 H   0  0  0  0  0  0  0  0  0  0  0  0  # atno 8010 bound_to 7997
  140.6552  143.7445  150.7641 H   0  0  0  0  0  0  0  0  0  0  0  0  # atno 10167 bound_to 10162
  156.2711  130.4207  149.8437 H   0  0  0  0  0  0  0  0  0  0  0  0  # atno 10718 bound_to 10713
  153.0049  135.6286  154.2098 H   0  0  0  0  0  0  0  0  0  0  0  0  # atno 10763 bound_to 10752
  154.1842  135.2812  155.3044 H   0  0  0  0  0  0  0  0  0  0  0  0  # atno 10764 bound_to 10752
  154.5811  135.5647  153.7246 H   0  0  0  0  0  0  0  0  0  0  0  0  # atno 10765 bound_to 10752
  141.1361  133.6641  156.5536 H   0  0  0  0  0  0  0  0  0  0  0  0  # atno 11005 bound_to 11000
  145.8604  140.9478  143.0703 LP  0  0  0  0  0  0  0  0  0  0  0  0  # atno 17320 bound_to 7965
  144.6748  140.0523  143.7478 LP  0  0  0  0  0  0  0  0  0  0  0  0  # atno 17321 bound_to 7965
  140.1104  143.4705  152.2373 LP  0  0  0  0  0  0  0  0  0  0  0  0  # atno 17342 bound_to 10162
  139.5773  144.7494  151.3731 LP  0  0  0  0  0  0  0  0  0  0  0  0  # atno 17343 bound_to 10162
  156.5919  130.8510  151.3410 LP  0  0  0  0  0  0  0  0  0  0  0  0  # atno 17370 bound_to 10713
  157.7284  130.9656  150.1740 LP  0  0  0  0  0  0  0  0  0  0  0  0  # atno 17371 bound_to 10713
  140.4044  134.7328  157.4799 LP  0  0  0  0  0  0  0  0  0  0  0  0  # atno 17394 bound_to 11000
  140.0472  134.6182  155.8906 LP  0  0  0  0  0  0  0  0  0  0  0  0  # atno 17395 bound_to 11000

$$$$
