AV-unprocessed.smi:1207|AV-procd|sdf|5059|dock7
  -GOLD-   22720 4 93D 1   1.00000     0.00000
 Structure written by MMmdl.
 53 55  0  0  0  0  0  0  0  0  3 V2000
  151.7020  142.2586  159.7197 C   0  0  0  0  0  0  0  0  0  0  0  0
  151.3861  141.5543  158.4111 C   0  0  0  0  0  0  0  0  0  0  0  0
  150.5012  142.1812  157.5048 C   0  0  0  0  0  0  0  0  0  0  0  0
  150.2320  141.5128  156.3166 C   0  0  0  0  0  0  0  0  0  0  0  0
  149.4218  141.8613  155.2336 N   0  3  0  0  0  0  0  0  0  0  0  0
  149.4768  140.8806  154.2903 C   0  0  0  0  0  0  0  0  0  0  0  0
  150.3004  139.9043  154.7614 N   0  0  0  0  0  0  0  0  0  0  0  0
  150.7100  138.6349  154.1473 C   0  0  0  0  0  0  0  0  0  0  0  0
  150.5964  137.4279  155.1013 C   0  0  2  0  0  0  0  0  0  0  0  0
  151.1279  136.3014  154.4349 O   0  0  0  0  0  0  0  0  0  0  0  0
  149.1504  137.1107  155.5422 C   0  0  0  0  0  0  0  0  0  0  0  0
  148.2859  136.7635  154.3859 N   0  3  2  0  0  0  0  0  0  0  0  0
  147.4462  137.9035  153.9501 C   0  0  0  0  0  0  0  0  0  0  0  0
  147.4992  135.5208  154.5976 C   0  0  0  0  0  0  0  0  0  0  0  0
  148.3199  134.2990  154.2784 C   0  0  0  0  0  0  0  0  0  0  0  0
  149.4076  133.7368  155.0091 C   0  0  0  0  0  0  0  0  0  0  0  0
  150.0315  134.2063  156.2922 C   0  0  0  0  0  0  0  0  0  0  0  0
  149.8882  132.6550  154.4207 N   0  0  0  0  0  0  0  0  0  0  0  0
  149.1241  132.4733  153.2642 O   0  0  0  0  0  0  0  0  0  0  0  0
  148.2005  133.4647  153.2012 C   0  0  0  0  0  0  0  0  0  0  0  0
  147.2796  133.4525  152.0277 C   0  0  0  0  0  0  0  0  0  0  0  0
  150.8068  140.2630  156.0155 C   0  0  0  0  0  0  0  0  0  0  0  0
  151.6860  139.6345  156.8938 C   0  0  0  0  0  0  0  0  0  0  0  0
  151.9717  140.2976  158.1088 C   0  0  0  0  0  0  0  0  0  0  0  0
  152.9233  139.6342  159.0898 C   0  0  0  0  0  0  0  0  0  0  0  0
  151.1783  143.2118  159.7966 H   0  0  0  0  0  0  0  0  0  0  0  0
  152.7708  142.4594  159.7976 H   0  0  0  0  0  0  0  0  0  0  0  0
  151.4015  141.6438  160.5686 H   0  0  0  0  0  0  0  0  0  0  0  0
  150.0554  143.1399  157.7268 H   0  0  0  0  0  0  0  0  0  0  0  0
  148.9589  140.8784  153.3418 H   0  0  0  0  0  0  0  0  0  0  0  0
  150.0804  138.4826  153.2694 H   0  0  0  0  0  0  0  0  0  0  0  0
  151.7317  138.7501  153.7816 H   0  0  0  0  0  0  0  0  0  0  0  0
  151.2216  137.6102  155.9741 H   0  0  0  0  0  0  0  0  0  0  0  0
  151.1454  136.4759  153.5058 H   0  0  0  0  0  0  0  0  0  0  0  0
  149.1233  136.2872  156.2568 H   0  0  0  0  0  0  0  0  0  0  0  0
  148.7506  137.9791  156.0685 H   0  0  0  0  0  0  0  0  0  0  0  0
  146.7277  138.1783  154.7233 H   0  0  0  0  0  0  0  0  0  0  0  0
  146.8955  137.6612  153.0414 H   0  0  0  0  0  0  0  0  0  0  0  0
  148.0623  138.7759  153.7298 H   0  0  0  0  0  0  0  0  0  0  0  0
  147.1631  135.4659  155.6327 H   0  0  0  0  0  0  0  0  0  0  0  0
  146.5842  135.5634  154.0055 H   0  0  0  0  0  0  0  0  0  0  0  0
  149.4302  134.9764  156.7744 H   0  0  0  0  0  0  0  0  0  0  0  0
  151.0225  134.6240  156.1139 H   0  0  0  0  0  0  0  0  0  0  0  0
  150.1395  133.3846  157.0008 H   0  0  0  0  0  0  0  0  0  0  0  0
  146.2423  133.5445  152.3493 H   0  0  0  0  0  0  0  0  0  0  0  0
  147.3747  132.5254  151.4616 H   0  0  0  0  0  0  0  0  0  0  0  0
  147.5003  134.2821  151.3562 H   0  0  0  0  0  0  0  0  0  0  0  0
  152.1366  138.6807  156.6622 H   0  0  0  0  0  0  0  0  0  0  0  0
  153.2997  138.6869  158.7027 H   0  0  0  0  0  0  0  0  0  0  0  0
  152.4182  139.4310  160.0345 H   0  0  0  0  0  0  0  0  0  0  0  0
  153.7815  140.2770  159.2866 H   0  0  0  0  0  0  0  0  0  0  0  0
  148.9216  136.5777  153.6228 H   0  0  0  0  0  0  0  0  0  0  0  0
  148.8781  142.7098  155.1386 H   0  0  0  0  0  0  0  0  0  0  0  0
  1  2  1  0  0  0  0
  1 26  1  0  0  0  0
  1 27  1  0  0  0  0
  1 28  1  0  0  0  0
  2 24  1  0  0  0  0
  2  3  2  0  0  0  0
  3  4  1  0  0  0  0
  3 29  1  0  0  0  0
  4 22  2  0  0  0  0
  4  5  1  0  0  0  0
  5  6  2  0  0  0  0
  5 53  1  0  0  0  0
  6  7  1  0  0  0  0
  6 30  1  0  0  0  0
  7  8  1  0  0  0  0
  7 22  1  0  0  0  0
  8  9  1  0  0  0  0
  8 31  1  0  0  0  0
  8 32  1  0  0  0  0
  9 10  1  0  0  0  0
  9 11  1  0  0  0  0
  9 33  1  0  0  0  0
 10 34  1  0  0  0  0
 11 12  1  0  0  0  0
 11 35  1  0  0  0  0
 11 36  1  0  0  0  0
 12 13  1  0  0  0  0
 12 14  1  0  0  0  0
 12 52  1  0  0  0  0
 13 37  1  0  0  0  0
 13 38  1  0  0  0  0
 13 39  1  0  0  0  0
 14 15  1  0  0  0  0
 14 40  1  0  0  0  0
 14 41  1  0  0  0  0
 15 20  2  0  0  0  0
 15 16  1  0  0  0  0
 16 17  1  0  0  0  0
 16 18  2  0  0  0  0
 17 42  1  0  0  0  0
 17 43  1  0  0  0  0
 17 44  1  0  0  0  0
 18 19  1  0  0  0  0
 19 20  1  0  0  0  0
 20 21  1  0  0  0  0
 21 45  1  0  0  0  0
 21 46  1  0  0  0  0
 21 47  1  0  0  0  0
 22 23  1  0  0  0  0
 23 24  2  0  0  0  0
 23 48  1  0  0  0  0
 24 25  1  0  0  0  0
 25 49  1  0  0  0  0
 25 50  1  0  0  0  0
 25 51  1  0  0  0  0
M  CHG  1   5   1
M  CHG  1  12   1
M  END
> <s_m_source_file>
AV-unprocessed.smi

> <i_m_source_file_index>
1207

> <i_lp_mmshare_version>
43012

> <i_f3d_flags>
0

> <s_epik_input>
W0NIM11jKFtjSF0xKWMoW0NIM10pW2NIXWMoYzEyKW4oW2NIXW4yKVtDSDJdW0NASF0oW09IXSlbQ0gyXU4oW0NIM10pW0NIMl1jM2MoW0NIM10pbm9jM1tDSDNd

> <s_epik_cmdline>
J2VwaWtfcHl0aG9uJywgJy1waCcsICc3LjAnLCAnLXRuJywgJzgnLCAnLW1hJywgJzIwMCcsICctbWV0YWxfYmluZGluZycsICctaW1hZScsICc8aW5maWxlLm1hZT4nLCAnLW9tYWUnLCAnPG91dGZpbGUubWFlPic=

> <r_epik_Ionization_Penalty>
1.77463

> <r_epik_Ionization_Penalty_Charging>
1.77463

> <r_epik_Ionization_Penalty_Neutral>
3.70885e-06

> <r_epik_State_Penalty>
1.85225

> <r_epik_Charging_Adjusted_Penalty>
3.62688

> <i_epik_Tot_Q>
2

> <i_epik_Tot_abs_Q>
2

> <r_epik_Metal_State_Penalty>
1.92674

> <b_epik_Metal_Only>
0

> <s_lp_Force_Field>
OPLS_2005

> <r_lp_Energy>
20.2471

> <b_lp_Chiralities_Consistent>
1

> <s_lp_Variant>
AV-unprocessed.smi:1207-11

> <Gold.Version>
5.8.1

> <Gold.Id.Protein>
6NUR|6NUR_protein|mol2

> <Gold.PLP.Fitness>
59.8141

> <Gold.PLP.PLP>
-41.5531

> <Gold.PLP.part.hbond>
-4.2681

> <Gold.PLP.part.metal>
0.0000

> <Gold.PLP.part.buried>
-1.8064

> <Gold.PLP.part.nonpolar>
-35.3387

> <Gold.PLP.part.repulsive>
0.4066

> <Gold.PLP.ligand.clash>
0.0000

> <Gold.PLP.ligand.torsion>
1.2213

> <Gold.PLP.Chemscore.Hbond>
6.0000

> <Gold.PLP.Chemscore.CHOScore>
0.8602

> <Gold.PLP.Chemscore.Metal>
0.0000

> <Gold.Chemscore.Hbonds>
donor molecule, donor type, donor heavy atom, donor atom, acceptor molecule, acceptor atom, score
      L1  H     5    53       P1  8028  1.54
      L1  H    10    34       P1  7949  0.89
      L1  H    12    52       P1  7948  1.73
      P1  H 10752 10764       L1    10  0.70
      L1  C     6    30       P1  7957  1.00

> <Gold.PLP.Chemscore.Internal.Correction>
0.1231

> <Gold.Rescore>
     Score         DG    S(hbond)    S(metal)    S(lipo)     H(rot)  DE(clash)    DE(int)     intcor
     18.16     -19.99       2.75        0.00     101.01       2.54       0.07       1.76       ----

> <Gold.Chemscore.Fitness>
18.1568

> <Gold.Chemscore.DG>
-19.9870

> <Gold.Chemscore.ZeroCoef>
-5.4800

> <Gold.Chemscore.Hbond>
2.7481

> <Gold.Chemscore.Metal>
0.0000

> <Gold.Chemscore.Lipo>
101.0106

> <Gold.Chemscore.Internal_Hbond>
0.0000

> <Gold.Chemscore.DEClash>
0.0729

> <Gold.Chemscore.DEInternal>
1.7574

> <Gold.Chemscore.Rot>
2.5351

> <Gold.Chemscore.Internal.Correction>
   9.000000E+99

> <Gold.Chemscore.Hbonds>
donor molecule, donor type, donor heavy atom, donor atom, acceptor molecule, acceptor atom, score
      L1  H     5    53       P1  8028  0.75
      L1  H    10    34       P1  7949  0.38
      L1  H    12    52       P1  7948  0.85
      P1  H 10752 10764       L1    10  0.07

> <Gold.Chemscore.Hbond.Weighted>
-9.1788

> <Gold.Chemscore.Metal.Weighted>
-0.0000

> <Gold.Chemscore.Lipo.Weighted>
-11.8182

> <Gold.Chemscore.Internal_Hbond.Weighted>
0.0000

> <Gold.Chemscore.DEClash.Weighted>
0.0729

> <Gold.Chemscore.DEInternal.Weighted>
1.7574

> <Gold.Chemscore.Rot.Weighted>
6.4900

> <Gold.Chemscore.Internal.Correction.Weighted>
   9.000000E+99

> <Gold.Protein.RotatedTorsions>
[ 6907 6896 6895 6894 ] final  145.66 input  -60.11 | X-H torsion
[ 7974 7965 7964 7962 ] final  106.27 input  175.53 | X-H torsion
[ 8008 7997 7996 7995 ] final  -64.43 input   59.86 | X-H torsion
[ 10167 10162 10161 10158 ] final  126.46 input  -65.29 | X-H torsion
[ 10718 10713 10712 10709 ] final  107.55 input   66.30 | X-H torsion
[ 10763 10752 10751 10750 ] final  -64.78 input  -60.55 | X-H torsion
[ 11005 11000 10999 10996 ] final -136.22 input  -57.11 | X-H torsion

> <Gold.Protein.ActiveResidues>
 VAL166  LYS551  ARG553  GLY616  TRP617  ASP618  TYR619  PRO620  LYS621  CYS622 
 ASP623  PHE694  ASN695  SER759  ASP760  ASP761  ALA762  ILE779  LEU786  VAL792 
 PHE793  MET794  SER795  GLU796  ALA797  LYS798  CYS799  TRP800  GLU811  SER814 

> <Gold.Protein.RotatedAtoms>
  152.1780  133.4688  159.4943 H   0  0  0  0  0  0  0  0  0  0  0  0  # atno 6907 bound_to 6896
  150.6930  134.1869  159.4279 H   0  0  0  0  0  0  0  0  0  0  0  0  # atno 6908 bound_to 6896
  151.9779  135.0043  160.0606 H   0  0  0  0  0  0  0  0  0  0  0  0  # atno 6909 bound_to 6896
  145.3088  139.2547  143.3774 H   0  0  0  0  0  0  0  0  0  0  0  0  # atno 7974 bound_to 7965
  154.4611  140.0954  156.6896 H   0  0  0  0  0  0  0  0  0  0  0  0  # atno 8008 bound_to 7997
  155.4991  140.3473  155.4349 H   0  0  0  0  0  0  0  0  0  0  0  0  # atno 8009 bound_to 7997
  156.0872  140.1388  156.9626 H   0  0  0  0  0  0  0  0  0  0  0  0  # atno 8010 bound_to 7997
  139.5630  144.6893  151.3990 H   0  0  0  0  0  0  0  0  0  0  0  0  # atno 10167 bound_to 10162
  157.6623  131.0875  150.6173 H   0  0  0  0  0  0  0  0  0  0  0  0  # atno 10718 bound_to 10713
  154.3352  135.6168  153.5570 H   0  0  0  0  0  0  0  0  0  0  0  0  # atno 10763 bound_to 10752
  152.9808  135.5756  154.4916 H   0  0  0  0  0  0  0  0  0  0  0  0  # atno 10764 bound_to 10752
  154.4610  135.2856  155.1689 H   0  0  0  0  0  0  0  0  0  0  0  0  # atno 10765 bound_to 10752
  140.8825  134.1913  157.4581 H   0  0  0  0  0  0  0  0  0  0  0  0  # atno 11005 bound_to 11000
  146.3125  140.3619  142.8665 LP  0  0  0  0  0  0  0  0  0  0  0  0  # atno 17320 bound_to 7965
  144.9033  140.7669  143.5853 LP  0  0  0  0  0  0  0  0  0  0  0  0  # atno 17321 bound_to 7965
  140.6911  143.7859  150.7257 LP  0  0  0  0  0  0  0  0  0  0  0  0  # atno 17342 bound_to 10162
  140.1341  143.4499  152.2235 LP  0  0  0  0  0  0  0  0  0  0  0  0  # atno 17343 bound_to 10162
  156.6475  130.4476  149.5731 LP  0  0  0  0  0  0  0  0  0  0  0  0  # atno 17370 bound_to 10713
  156.2162  130.6709  151.1321 LP  0  0  0  0  0  0  0  0  0  0  0  0  # atno 17371 bound_to 10713
  139.8721  134.9823  156.5153 LP  0  0  0  0  0  0  0  0  0  0  0  0  # atno 17394 bound_to 11000
  140.8444  133.8180  155.9106 LP  0  0  0  0  0  0  0  0  0  0  0  0  # atno 17395 bound_to 11000

$$$$
