AV-unprocessed.smi:244|AV-procd|sdf|1871|dock3
  -GOLD-   2262020513D 1   1.00000     0.00000
 Structure written by MMmdl.
 57 61  0  0  0  0  0  0  0  0  2 V2000
  146.3949  137.4433  153.7540 C   0  0  0  0  0  0  0  0  0  0  0  0
  146.5661  136.1770  153.0098 N   0  3  2  0  0  0  0  0  0  0  0  0
  145.6504  136.0793  151.8455 C   0  0  0  0  0  0  0  0  0  0  0  0
  145.9272  134.8067  151.0285 C   0  0  0  0  0  0  0  0  0  0  0  0
  145.8224  133.5645  151.9213 C   0  0  1  0  0  0  0  0  0  0  0  0
  146.1392  132.4016  151.1647 O   0  0  0  0  0  0  0  0  0  0  0  0
  145.9925  131.2147  151.9377 C   0  0  0  0  0  0  0  0  0  0  0  0
  146.9506  131.2639  153.1391 C   0  0  0  0  0  0  0  0  0  0  0  0
  146.7252  132.4752  153.9233 N   0  0  0  0  0  0  0  0  0  0  0  0
  147.4687  132.5016  155.0520 C   0  0  0  0  0  0  0  0  0  0  0  0
  148.8257  132.4965  154.9762 N   0  0  0  0  0  0  0  0  0  0  0  0
  149.5546  132.5454  156.0956 C   0  0  0  0  0  0  0  0  0  0  0  0
  149.1367  132.6149  157.3618 N   0  0  0  0  0  0  0  0  0  0  0  0
  147.7744  132.6298  157.4356 C   0  0  0  0  0  0  0  0  0  0  0  0
  146.8730  132.5726  156.3372 C   0  0  0  0  0  0  0  0  0  0  0  0
  145.5612  132.6105  156.7900 N   0  0  0  0  0  0  0  0  0  0  0  0
  145.6799  132.6801  158.0884 C   0  0  0  0  0  0  0  0  0  0  0  0
  146.9734  132.7157  158.5609 N   0  0  0  0  0  0  0  0  0  0  0  0
  147.3912  132.8016  159.9517 C   0  0  0  0  0  0  0  0  0  0  0  0
  147.0724  134.1556  160.6359 C   0  0  0  0  0  0  0  0  0  0  0  0
  145.6588  134.2425  160.6502 O   0  0  0  0  0  0  0  0  0  0  0  0
  147.5802  134.2308  162.0921 C   0  0  0  0  0  0  0  0  0  0  0  0
  147.3318  135.6164  162.7155 C   0  0  0  0  0  0  0  0  0  0  0  0
  147.9299  136.6261  161.9108 O   0  0  0  0  0  0  0  0  0  0  0  0
  147.3749  136.6923  160.6022 C   0  0  0  0  0  0  0  0  0  0  0  0
  147.6254  135.3689  159.8567 C   0  0  0  0  0  0  0  0  0  0  0  0
  146.8008  133.6904  153.1086 C   0  0  2  0  0  0  0  0  0  0  0  0
  146.4853  134.9866  153.8940 C   0  0  0  0  0  0  0  0  0  0  0  0
  145.3997  137.5066  154.1960 H   0  0  0  0  0  0  0  0  0  0  0  0
  146.5308  138.2995  153.0925 H   0  0  0  0  0  0  0  0  0  0  0  0
  147.1309  137.5232  154.5546 H   0  0  0  0  0  0  0  0  0  0  0  0
  144.6160  136.0844  152.1931 H   0  0  0  0  0  0  0  0  0  0  0  0
  145.7752  136.9553  151.2077 H   0  0  0  0  0  0  0  0  0  0  0  0
  145.2208  134.7335  150.2010 H   0  0  0  0  0  0  0  0  0  0  0  0
  146.9223  134.8619  150.5849 H   0  0  0  0  0  0  0  0  0  0  0  0
  144.7970  133.4818  152.2880 H   0  0  0  0  0  0  0  0  0  0  0  0
  144.9584  131.1055  152.2682 H   0  0  0  0  0  0  0  0  0  0  0  0
  146.2193  130.3520  151.3111 H   0  0  0  0  0  0  0  0  0  0  0  0
  146.8050  130.3834  153.7666 H   0  0  0  0  0  0  0  0  0  0  0  0
  147.9814  131.2387  152.7824 H   0  0  0  0  0  0  0  0  0  0  0  0
  150.6257  132.5301  155.9572 H   0  0  0  0  0  0  0  0  0  0  0  0
  144.8206  132.7194  158.7422 H   0  0  0  0  0  0  0  0  0  0  0  0
  146.9114  131.9862  160.4954 H   0  0  0  0  0  0  0  0  0  0  0  0
  148.4632  132.6024  159.9952 H   0  0  0  0  0  0  0  0  0  0  0  0
  145.4131  135.1050  160.9481 H   0  0  0  0  0  0  0  0  0  0  0  0
  147.1157  133.4548  162.7017 H   0  0  0  0  0  0  0  0  0  0  0  0
  148.6533  134.0427  162.1200 H   0  0  0  0  0  0  0  0  0  0  0  0
  146.2648  135.8119  162.8322 H   0  0  0  0  0  0  0  0  0  0  0  0
  147.7700  135.6598  163.7126 H   0  0  0  0  0  0  0  0  0  0  0  0
  146.3093  136.9205  160.6566 H   0  0  0  0  0  0  0  0  0  0  0  0
  147.8455  137.5160  160.0651 H   0  0  0  0  0  0  0  0  0  0  0  0
  148.7016  135.2641  159.7225 H   0  0  0  0  0  0  0  0  0  0  0  0
  147.1932  135.4127  158.8562 H   0  0  0  0  0  0  0  0  0  0  0  0
  147.8158  133.7649  152.7139 H   0  0  0  0  0  0  0  0  0  0  0  0
  147.1964  135.1202  154.7102 H   0  0  0  0  0  0  0  0  0  0  0  0
  145.4925  134.9279  154.3435 H   0  0  0  0  0  0  0  0  0  0  0  0
  147.5044  136.1909  152.6356 H   0  0  0  0  0  0  0  0  0  0  0  0
  1  2  1  0  0  0  0
  1 29  1  0  0  0  0
  1 30  1  0  0  0  0
  1 31  1  0  0  0  0
  2 28  1  0  0  0  0
  2  3  1  0  0  0  0
  2 57  1  0  0  0  0
  3  4  1  0  0  0  0
  3 32  1  0  0  0  0
  3 33  1  0  0  0  0
  4  5  1  0  0  0  0
  4 34  1  0  0  0  0
  4 35  1  0  0  0  0
  5 27  1  0  0  0  0
  5  6  1  0  0  0  0
  5 36  1  0  0  0  0
  6  7  1  0  0  0  0
  7  8  1  0  0  0  0
  7 37  1  0  0  0  0
  7 38  1  0  0  0  0
  8  9  1  0  0  0  0
  8 39  1  0  0  0  0
  8 40  1  0  0  0  0
  9 10  1  0  0  0  0
  9 27  1  0  0  0  0
 10 15  1  0  0  0  0
 10 11  2  0  0  0  0
 11 12  1  0  0  0  0
 12 13  2  0  0  0  0
 12 41  1  0  0  0  0
 13 14  1  0  0  0  0
 14 18  1  0  0  0  0
 14 15  2  0  0  0  0
 15 16  1  0  0  0  0
 16 17  2  0  0  0  0
 17 18  1  0  0  0  0
 17 42  1  0  0  0  0
 18 19  1  0  0  0  0
 19 20  1  0  0  0  0
 19 43  1  0  0  0  0
 19 44  1  0  0  0  0
 20 26  1  0  0  0  0
 20 21  1  0  0  0  0
 20 22  1  0  0  0  0
 21 45  1  0  0  0  0
 22 23  1  0  0  0  0
 22 46  1  0  0  0  0
 22 47  1  0  0  0  0
 23 24  1  0  0  0  0
 23 48  1  0  0  0  0
 23 49  1  0  0  0  0
 24 25  1  0  0  0  0
 25 26  1  0  0  0  0
 25 50  1  0  0  0  0
 25 51  1  0  0  0  0
 26 52  1  0  0  0  0
 26 53  1  0  0  0  0
 27 28  1  0  0  0  0
 27 54  1  0  0  0  0
 28 55  1  0  0  0  0
 28 56  1  0  0  0  0
M  CHG  1   2   1
M  END
> <s_m_source_file>
AV-unprocessed.smi

> <i_m_source_file_index>
244

> <i_lp_mmshare_version>
43012

> <i_f3d_flags>
0

> <s_epik_input>
W0NIMl0xW0NIMl1OKFtDSDNdKVtDSDJdW0NAQEhdKFtDQEhdMTIpTihbQ0gyXVtDSDJdTzIpYyhuW2NIXW4zKWMoYzM0KW5bY0hdbjRbQ0gyXUM1KFtPSF0pW0NIMl1bQ0gyXU9bQ0gyXVtDSDJdNQ==

> <s_epik_cmdline>
J2VwaWtfcHl0aG9uJywgJy1waCcsICc3LjAnLCAnLXRuJywgJzgnLCAnLW1hJywgJzIwMCcsICctbWV0YWxfYmluZGluZycsICctaW1hZScsICc8aW5maWxlLm1hZT4nLCAnLW9tYWUnLCAnPG91dGZpbGUubWFlPic=

> <r_lp_tautomer_probability>
1

> <r_epik_Ionization_Penalty>
0.0136215

> <r_epik_Ionization_Penalty_Charging>
0.0131385

> <r_epik_Ionization_Penalty_Neutral>
0.000483022

> <r_epik_State_Penalty>
0.0104001

> <r_epik_Charging_Adjusted_Penalty>
0.0235387

> <i_epik_Tot_Q>
1

> <i_epik_Tot_abs_Q>
1

> <r_epik_Metal_State_Penalty>
0.0104469

> <b_epik_Metal_Only>
0

> <s_lp_Force_Field>
OPLS_2005

> <r_lp_Energy>
42.2984

> <b_lp_Chiralities_Consistent>
1

> <s_lp_Variant>
AV-unprocessed.smi:244-8

> <Gold.Version>
5.8.1

> <Gold.Id.Protein>
6NUR|6NUR_protein|mol2

> <Gold.PLP.Fitness>
40.6166

> <Gold.PLP.PLP>
-31.7881

> <Gold.PLP.part.hbond>
-2.0000

> <Gold.PLP.part.metal>
0.0000

> <Gold.PLP.part.buried>
-6.9874

> <Gold.PLP.part.nonpolar>
-23.7526

> <Gold.PLP.part.repulsive>
0.3390

> <Gold.PLP.ligand.clash>
0.0000

> <Gold.PLP.ligand.torsion>
0.1581

> <Gold.PLP.Chemscore.Hbond>
3.0000

> <Gold.PLP.Chemscore.CHOScore>
0.0000

> <Gold.PLP.Chemscore.Metal>
0.0000

> <Gold.Chemscore.Hbonds>
donor molecule, donor type, donor heavy atom, donor atom, acceptor molecule, acceptor atom, score
      L1  H     2    57       P1  7948  2.00
      P1  H  6931  6943       L1    24  1.00

> <Gold.PLP.Chemscore.Internal.Correction>
0.1446

> <Gold.Rescore>
     Score         DG    S(hbond)    S(metal)    S(lipo)     H(rot)  DE(clash)    DE(int)     intcor
     15.27     -15.53       1.98        0.00      75.06       2.09       0.01       0.25       ----

> <Gold.Chemscore.Fitness>
15.2741

> <Gold.Chemscore.DG>
-15.5326

> <Gold.Chemscore.ZeroCoef>
-5.4800

> <Gold.Chemscore.Hbond>
1.9830

> <Gold.Chemscore.Metal>
0.0000

> <Gold.Chemscore.Lipo>
75.0633

> <Gold.Chemscore.Internal_Hbond>
0.0000

> <Gold.Chemscore.DEClash>
0.0135

> <Gold.Chemscore.DEInternal>
0.2451

> <Gold.Chemscore.Rot>
2.0911

> <Gold.Chemscore.Internal.Correction>
   9.000000E+99

> <Gold.Chemscore.Hbonds>
donor molecule, donor type, donor heavy atom, donor atom, acceptor molecule, acceptor atom, score
      L1  H     2    57       P1  7948  1.00
      P1  H  6931  6943       L1    24  0.30

> <Gold.Chemscore.Hbond.Weighted>
-6.6233

> <Gold.Chemscore.Metal.Weighted>
-0.0000

> <Gold.Chemscore.Lipo.Weighted>
-8.7824

> <Gold.Chemscore.Internal_Hbond.Weighted>
0.0000

> <Gold.Chemscore.DEClash.Weighted>
0.0135

> <Gold.Chemscore.DEInternal.Weighted>
0.2451

> <Gold.Chemscore.Rot.Weighted>
5.3531

> <Gold.Chemscore.Internal.Correction.Weighted>
   9.000000E+99

> <Gold.Protein.RotatedTorsions>
[ 6907 6896 6895 6894 ] final  149.70 input  -60.11 | X-H torsion
[ 7974 7965 7964 7962 ] final  127.93 input  175.53 | X-H torsion
[ 8008 7997 7996 7995 ] final  -25.30 input   59.86 | X-H torsion
[ 10167 10162 10161 10158 ] final  140.29 input  -65.29 | X-H torsion
[ 10718 10713 10712 10709 ] final   62.66 input   66.30 | X-H torsion
[ 10763 10752 10751 10750 ] final  147.19 input  -60.55 | X-H torsion
[ 11005 11000 10999 10996 ] final  -61.65 input  -57.11 | X-H torsion

> <Gold.Protein.ActiveResidues>
 VAL166  LYS551  ARG553  GLY616  TRP617  ASP618  TYR619  PRO620  LYS621  CYS622 
 ASP623  PHE694  ASN695  SER759  ASP760  ASP761  ALA762  ILE779  LEU786  VAL792 
 PHE793  MET794  SER795  GLU796  ALA797  LYS798  CYS799  TRP800  GLU811  SER814 

> <Gold.Protein.RotatedAtoms>
  152.1244  133.4372  159.4690 H   0  0  0  0  0  0  0  0  0  0  0  0  # atno 6907 bound_to 6896
  150.6874  134.2496  159.4514 H   0  0  0  0  0  0  0  0  0  0  0  0  # atno 6908 bound_to 6896
  152.0375  134.9731  160.0624 H   0  0  0  0  0  0  0  0  0  0  0  0  # atno 6909 bound_to 6896
  145.0451  139.3930  143.5082 H   0  0  0  0  0  0  0  0  0  0  0  0  # atno 7974 bound_to 7965
  154.4483  140.1930  156.0599 H   0  0  0  0  0  0  0  0  0  0  0  0  # atno 8008 bound_to 7997
  156.0591  140.3299  155.7413 H   0  0  0  0  0  0  0  0  0  0  0  0  # atno 8009 bound_to 7997
  155.5440  140.0589  157.2855 H   0  0  0  0  0  0  0  0  0  0  0  0  # atno 8010 bound_to 7997
  139.5053  144.6243  151.5975 H   0  0  0  0  0  0  0  0  0  0  0  0  # atno 10167 bound_to 10162
  157.5916  130.9062  149.9616 H   0  0  0  0  0  0  0  0  0  0  0  0  # atno 10718 bound_to 10713
  154.0342  135.2895  155.3364 H   0  0  0  0  0  0  0  0  0  0  0  0  # atno 10763 bound_to 10752
  154.6969  135.5204  153.8474 H   0  0  0  0  0  0  0  0  0  0  0  0  # atno 10764 bound_to 10752
  153.0627  135.6619  154.0552 H   0  0  0  0  0  0  0  0  0  0  0  0  # atno 10765 bound_to 10752
  141.1332  133.6632  156.5408 H   0  0  0  0  0  0  0  0  0  0  0  0  # atno 11005 bound_to 11000
  146.3513  140.0072  142.8670 LP  0  0  0  0  0  0  0  0  0  0  0  0  # atno 17320 bound_to 7965
  145.1598  140.9667  143.4384 LP  0  0  0  0  0  0  0  0  0  0  0  0  # atno 17321 bound_to 7965
  140.5955  143.9703  150.6352 LP  0  0  0  0  0  0  0  0  0  0  0  0  # atno 17342 bound_to 10162
  140.2898  143.3332  152.1073 LP  0  0  0  0  0  0  0  0  0  0  0  0  # atno 17343 bound_to 10162
  156.0972  130.3658  150.0284 LP  0  0  0  0  0  0  0  0  0  0  0  0  # atno 17370 bound_to 10713
  156.8406  130.9424  151.3632 LP  0  0  0  0  0  0  0  0  0  0  0  0  # atno 17371 bound_to 10713
  140.4141  134.7246  157.4853 LP  0  0  0  0  0  0  0  0  0  0  0  0  # atno 17394 bound_to 11000
  140.0406  134.6273  155.8986 LP  0  0  0  0  0  0  0  0  0  0  0  0  # atno 17395 bound_to 11000

$$$$
