AV-unprocessed.smi:1307|AV-procd|sdf|5436|dock10
  -GOLD-   22720 5 03D 1   1.00000     0.00000
 Structure written by MMmdl.
 41 41  0  0  0  0  0  0  0  0  1 V2000
  147.2774  139.9088  153.4777 C   0  0  0  0  0  0  0  0  0  0  0  0
  148.4586  140.6343  154.1479 C   0  0  0  0  0  0  0  0  0  0  0  0
  149.6317  139.6493  154.3218 C   0  0  0  0  0  0  0  0  0  0  0  0
  148.0488  141.3146  155.4827 C   0  0  2  0  0  0  0  0  0  0  0  0
  146.8368  142.2517  155.3425 C   0  0  0  0  0  0  0  0  0  0  0  0
  149.1594  142.0959  156.0276 N   0  0  0  0  0  0  0  0  0  0  0  0
  149.9642  141.7295  157.0372 C   0  0  0  0  0  0  0  0  0  0  0  0
  149.8582  140.6579  157.6354 O   0  0  0  0  0  0  0  0  0  0  0  0
  151.0719  142.7320  157.4015 C   0  0  0  0  0  0  0  0  0  0  0  0
  151.9678  142.2679  158.4909 N   0  0  0  0  0  0  0  0  0  0  0  0
  152.1995  143.1015  159.6299 C   0  0  0  0  0  0  0  0  0  0  0  0
  151.5571  144.4953  159.6898 C   0  0  0  0  0  0  0  0  0  0  0  0
  151.8867  145.1296  160.8159 F   0  0  0  0  0  0  0  0  0  0  0  0
  151.9564  145.2754  158.6856 F   0  0  0  0  0  0  0  0  0  0  0  0
  150.2269  144.4046  159.6725 F   0  0  0  0  0  0  0  0  0  0  0  0
  153.0041  142.6726  160.6196 C   0  0  0  0  0  0  0  0  0  0  0  0
  153.6228  141.3784  160.5396 C   0  0  0  0  0  0  0  0  0  0  0  0
  153.4191  140.5806  159.4668 C   0  0  0  0  0  0  0  0  0  0  0  0
  154.0344  139.2399  159.3393 C   0  0  0  0  0  0  0  0  0  0  0  0
  154.3867  138.6836  160.5053 N   0  0  0  0  0  0  0  0  0  0  0  0
  154.2458  138.6174  158.2984 O   0  0  0  0  0  0  0  0  0  0  0  0
  152.5447  141.0248  158.3509 C   0  0  0  0  0  0  0  0  0  0  0  0
  152.3255  140.3516  157.3390 O   0  0  0  0  0  0  0  0  0  0  0  0
  146.8494  139.1546  154.1388 H   0  0  0  0  0  0  0  0  0  0  0  0
  147.5933  139.4057  152.5634 H   0  0  0  0  0  0  0  0  0  0  0  0
  146.4826  140.5990  153.1972 H   0  0  0  0  0  0  0  0  0  0  0  0
  148.7937  141.4123  153.4606 H   0  0  0  0  0  0  0  0  0  0  0  0
  149.3921  138.8735  155.0496 H   0  0  0  0  0  0  0  0  0  0  0  0
  150.5389  140.1520  154.6575 H   0  0  0  0  0  0  0  0  0  0  0  0
  149.8751  139.1567  153.3800 H   0  0  0  0  0  0  0  0  0  0  0  0
  147.7710  140.5299  156.1885 H   0  0  0  0  0  0  0  0  0  0  0  0
  145.9352  141.7092  155.0602 H   0  0  0  0  0  0  0  0  0  0  0  0
  147.0144  143.0226  154.5921 H   0  0  0  0  0  0  0  0  0  0  0  0
  146.6202  142.7525  156.2870 H   0  0  0  0  0  0  0  0  0  0  0  0
  149.3312  142.9927  155.5968 H   0  0  0  0  0  0  0  0  0  0  0  0
  151.6099  142.9920  156.4948 H   0  0  0  0  0  0  0  0  0  0  0  0
  150.5991  143.6773  157.6752 H   0  0  0  0  0  0  0  0  0  0  0  0
  153.2019  143.2898  161.4833 H   0  0  0  0  0  0  0  0  0  0  0  0
  154.2485  141.0798  161.3676 H   0  0  0  0  0  0  0  0  0  0  0  0
  154.8093  137.7669  160.5216 H   0  0  0  0  0  0  0  0  0  0  0  0
  154.2218  139.1840  161.3666 H   0  0  0  0  0  0  0  0  0  0  0  0
  1  2  1  0  0  0  0
  1 24  1  0  0  0  0
  1 25  1  0  0  0  0
  1 26  1  0  0  0  0
  2  3  1  0  0  0  0
  2  4  1  0  0  0  0
  2 27  1  0  0  0  0
  3 28  1  0  0  0  0
  3 29  1  0  0  0  0
  3 30  1  0  0  0  0
  4  5  1  0  0  0  0
  4  6  1  0  0  0  0
  4 31  1  0  0  0  0
  5 32  1  0  0  0  0
  5 33  1  0  0  0  0
  5 34  1  0  0  0  0
  6  7  1  0  0  0  0
  6 35  1  0  0  0  0
  7  8  2  0  0  0  0
  7  9  1  0  0  0  0
  9 10  1  0  0  0  0
  9 36  1  0  0  0  0
  9 37  1  0  0  0  0
 10 22  1  0  0  0  0
 10 11  1  0  0  0  0
 11 12  1  0  0  0  0
 11 16  2  0  0  0  0
 12 13  1  0  0  0  0
 12 14  1  0  0  0  0
 12 15  1  0  0  0  0
 16 17  1  0  0  0  0
 16 38  1  0  0  0  0
 17 18  2  0  0  0  0
 17 39  1  0  0  0  0
 18 19  1  0  0  0  0
 18 22  1  0  0  0  0
 19 20  1  0  0  0  0
 19 21  2  0  0  0  0
 20 40  1  0  0  0  0
 20 41  1  0  0  0  0
 22 23  2  0  0  0  0
M  END
> <s_m_source_file>
AV-unprocessed.smi

> <i_m_source_file_index>
1307

> <i_lp_mmshare_version>
43012

> <i_f3d_flags>
0

> <s_epik_input>
W0NIM11bQ0hdKFtDSDNdKVtDQEhdKFtDSDNdKVtOSF1DKD1PKVtDSDJdbjFjKEMoRikoRilGKVtjSF1bY0hdYyhjMT1PKUMoPU8pW05IMl0=

> <s_epik_cmdline>
J2VwaWtfcHl0aG9uJywgJy1waCcsICc3LjAnLCAnLXRuJywgJzgnLCAnLW1hJywgJzIwMCcsICctbWV0YWxfYmluZGluZycsICctaW1hZScsICc8aW5maWxlLm1hZT4nLCAnLW9tYWUnLCAnPG91dGZpbGUubWFlPic=

> <r_lp_tautomer_probability>
1

> <r_epik_Ionization_Penalty>
2.05992e-06

> <r_epik_Ionization_Penalty_Charging>
8.21357e-10

> <r_epik_Ionization_Penalty_Neutral>
2.0591e-06

> <r_epik_State_Penalty>
-0

> <r_epik_Charging_Adjusted_Penalty>
8.21357e-10

> <i_epik_Tot_Q>
0

> <i_epik_Tot_abs_Q>
0

> <r_epik_Metal_State_Penalty>
-0

> <b_epik_Metal_Only>
0

> <s_lp_Force_Field>
OPLS_2005

> <r_lp_Energy>
26.4012

> <b_lp_Chiralities_Consistent>
1

> <s_lp_Variant>
AV-unprocessed.smi:1307-1

> <Gold.Version>
5.8.1

> <Gold.Id.Protein>
6NUR|6NUR_protein|mol2

> <Gold.PLP.Fitness>
53.6652

> <Gold.PLP.PLP>
-48.9935

> <Gold.PLP.part.hbond>
-2.7327

> <Gold.PLP.part.metal>
0.0000

> <Gold.PLP.part.buried>
-4.5566

> <Gold.PLP.part.nonpolar>
-42.2146

> <Gold.PLP.part.repulsive>
0.1290

> <Gold.PLP.ligand.clash>
3.9733

> <Gold.PLP.ligand.torsion>
0.5168

> <Gold.PLP.Chemscore.Hbond>
1.8800

> <Gold.PLP.Chemscore.CHOScore>
0.0000

> <Gold.PLP.Chemscore.Metal>
0.0000

> <Gold.Chemscore.Hbonds>
donor molecule, donor type, donor heavy atom, donor atom, acceptor molecule, acceptor atom, score
      L1  H     6    35       P1  8028  0.88
      P1  H  7997  8010       L1    21  1.00

> <Gold.PLP.Chemscore.Internal.Correction>
4.0386

> <Gold.Rescore>
     Score         DG    S(hbond)    S(metal)    S(lipo)     H(rot)  DE(clash)    DE(int)     intcor
      8.00     -17.00       1.77        0.00      91.24       1.97       0.17       8.83       ----

> <Gold.Chemscore.Fitness>
8.0015

> <Gold.Chemscore.DG>
-17.0015

> <Gold.Chemscore.ZeroCoef>
-5.4800

> <Gold.Chemscore.Hbond>
1.7651

> <Gold.Chemscore.Metal>
0.0000

> <Gold.Chemscore.Lipo>
91.2398

> <Gold.Chemscore.Internal_Hbond>
0.0000

> <Gold.Chemscore.DEClash>
0.1734

> <Gold.Chemscore.DEInternal>
8.8265

> <Gold.Chemscore.Rot>
1.9723

> <Gold.Chemscore.Internal.Correction>
   9.000000E+99

> <Gold.Chemscore.Hbonds>
donor molecule, donor type, donor heavy atom, donor atom, acceptor molecule, acceptor atom, score
      L1  H     6    35       P1  8028  0.87
      P1  H  7997  8010       L1    21  0.30

> <Gold.Chemscore.Hbond.Weighted>
-5.8954

> <Gold.Chemscore.Metal.Weighted>
-0.0000

> <Gold.Chemscore.Lipo.Weighted>
-10.6751

> <Gold.Chemscore.Internal_Hbond.Weighted>
0.0000

> <Gold.Chemscore.DEClash.Weighted>
0.1734

> <Gold.Chemscore.DEInternal.Weighted>
8.8265

> <Gold.Chemscore.Rot.Weighted>
5.0490

> <Gold.Chemscore.Internal.Correction.Weighted>
   9.000000E+99

> <Gold.Protein.RotatedTorsions>
[ 6907 6896 6895 6894 ] final -175.04 input  -60.11 | X-H torsion
[ 7974 7965 7964 7962 ] final  -68.47 input  175.53 | X-H torsion
[ 8008 7997 7996 7995 ] final   23.69 input   59.86 | X-H torsion
[ 10167 10162 10161 10158 ] final -147.15 input  -65.29 | X-H torsion
[ 10718 10713 10712 10709 ] final  -11.87 input   66.30 | X-H torsion
[ 10763 10752 10751 10750 ] final  122.49 input  -60.55 | X-H torsion
[ 11005 11000 10999 10996 ] final   -2.47 input  -57.11 | X-H torsion

> <Gold.Protein.ActiveResidues>
 VAL166  LYS551  ARG553  GLY616  TRP617  ASP618  TYR619  PRO620  LYS621  CYS622 
 ASP623  PHE694  ASN695  SER759  ASP760  ASP761  ALA762  ILE779  LEU786  VAL792 
 PHE793  MET794  SER795  GLU796  ALA797  LYS798  CYS799  TRP800  GLU811  SER814 

> <Gold.Protein.RotatedAtoms>
  151.5821  133.3376  159.3010 H   0  0  0  0  0  0  0  0  0  0  0  0  # atno 6907 bound_to 6896
  150.8307  134.7562  159.6863 H   0  0  0  0  0  0  0  0  0  0  0  0  # atno 6908 bound_to 6896
  152.4391  134.5633  159.9952 H   0  0  0  0  0  0  0  0  0  0  0  0  # atno 6909 bound_to 6896
  145.7161  140.9058  143.0655 H   0  0  0  0  0  0  0  0  0  0  0  0  # atno 7974 bound_to 7965
  154.9849  140.3106  155.4931 H   0  0  0  0  0  0  0  0  0  0  0  0  # atno 8008 bound_to 7997
  156.2948  140.2260  156.4890 H   0  0  0  0  0  0  0  0  0  0  0  0  # atno 8009 bound_to 7997
  154.7756  140.0449  157.1074 H   0  0  0  0  0  0  0  0  0  0  0  0  # atno 8010 bound_to 7997
  139.7648  143.8324  152.2614 H   0  0  0  0  0  0  0  0  0  0  0  0  # atno 10167 bound_to 10162
  156.6528  130.4960  149.6056 H   0  0  0  0  0  0  0  0  0  0  0  0  # atno 10718 bound_to 10713
  153.6305  135.3397  155.3040 H   0  0  0  0  0  0  0  0  0  0  0  0  # atno 10763 bound_to 10752
  154.8581  135.4294  154.2110 H   0  0  0  0  0  0  0  0  0  0  0  0  # atno 10764 bound_to 10752
  153.3005  135.7024  153.7281 H   0  0  0  0  0  0  0  0  0  0  0  0  # atno 10765 bound_to 10752
  140.6587  133.9340  155.8423 H   0  0  0  0  0  0  0  0  0  0  0  0  # atno 11005 bound_to 11000
  144.6929  139.9139  143.7465 LP  0  0  0  0  0  0  0  0  0  0  0  0  # atno 17320 bound_to 7965
  146.0668  139.3659  143.0547 LP  0  0  0  0  0  0  0  0  0  0  0  0  # atno 17321 bound_to 7965
  139.8341  144.7240  150.9413 LP  0  0  0  0  0  0  0  0  0  0  0  0  # atno 17342 bound_to 10162
  140.7810  143.4043  151.1097 LP  0  0  0  0  0  0  0  0  0  0  0  0  # atno 17343 bound_to 10162
  156.2071  130.6656  151.1230 LP  0  0  0  0  0  0  0  0  0  0  0  0  # atno 17370 bound_to 10713
  157.7135  131.0722  150.6413 LP  0  0  0  0  0  0  0  0  0  0  0  0  # atno 17371 bound_to 10713
  141.0482  134.0524  157.3817 LP  0  0  0  0  0  0  0  0  0  0  0  0  # atno 17394 bound_to 11000
  139.9020  135.0168  156.7314 LP  0  0  0  0  0  0  0  0  0  0  0  0  # atno 17395 bound_to 11000

$$$$
