AV-unprocessed.smi:1381|AV-procd|sdf|5606|dock5
  -GOLD-   22720 5213D 1   1.00000     0.00000
 Structure written by MMmdl.
 43 44  0  0  0  0  0  0  0  0  2 V2000
  153.6441  137.7348  156.8698 C   0  0  0  0  0  0  0  0  0  0  0  0
  152.5882  138.2011  155.9273 C   0  0  0  0  0  0  0  0  0  0  0  0
  151.6566  137.5434  155.1740 C   0  0  0  0  0  0  0  0  0  0  0  0
  150.9762  138.6003  154.5129 C   0  0  0  0  0  0  0  0  0  0  0  0
  149.9094  138.3321  153.6176 N   0  0  0  0  0  0  0  0  0  0  0  0
  148.6948  138.9067  153.5976 C   0  0  0  0  0  0  0  0  0  0  0  0
  148.3068  139.7770  154.3776 O   0  0  0  0  0  0  0  0  0  0  0  0
  147.9344  138.4102  152.6109 N   0  0  0  0  0  0  0  0  0  0  0  0
  146.5683  138.8324  152.3242 C   0  0  0  0  0  0  0  0  0  0  0  0
  145.7062  137.6570  151.8250 C   0  0  0  0  0  0  0  0  0  0  0  0
  146.2269  136.3444  152.2803 N   0  3  1  0  0  0  0  0  0  0  0  0
  145.8024  136.0157  153.6618 C   0  0  0  0  0  0  0  0  0  0  0  0
  146.4105  134.6786  154.1294 C   0  0  2  0  0  0  0  0  0  0  0  0
  147.9116  134.7669  154.4572 C   0  0  0  0  0  0  0  0  0  0  0  0
  146.1223  133.6481  153.1844 O   0  0  0  0  0  0  0  0  0  0  0  0
  146.5474  133.9208  151.8515 C   0  0  1  0  0  0  0  0  0  0  0  0
  146.1588  132.7224  150.9784 C   0  0  0  0  0  0  0  0  0  0  0  0
  145.8962  135.2272  151.3631 C   0  0  0  0  0  0  0  0  0  0  0  0
  151.4501  139.7948  154.8323 N   0  0  0  0  0  0  0  0  0  0  0  0
  152.4863  139.5449  155.7397 O   0  0  0  0  0  0  0  0  0  0  0  0
  153.5111  136.6804  157.1125 H   0  0  0  0  0  0  0  0  0  0  0  0
  153.6106  138.3018  157.8001 H   0  0  0  0  0  0  0  0  0  0  0  0
  154.6344  137.8598  156.4322 H   0  0  0  0  0  0  0  0  0  0  0  0
  151.4913  136.4781  155.1101 H   0  0  0  0  0  0  0  0  0  0  0  0
  150.0924  137.6280  152.9181 H   0  0  0  0  0  0  0  0  0  0  0  0
  148.3298  137.6987  152.0136 H   0  0  0  0  0  0  0  0  0  0  0  0
  146.1424  139.2910  153.2172 H   0  0  0  0  0  0  0  0  0  0  0  0
  146.6071  139.6128  151.5637 H   0  0  0  0  0  0  0  0  0  0  0  0
  144.6945  137.7945  152.2094 H   0  0  0  0  0  0  0  0  0  0  0  0
  145.6239  137.6595  150.7369 H   0  0  0  0  0  0  0  0  0  0  0  0
  146.0925  136.8140  154.3461 H   0  0  0  0  0  0  0  0  0  0  0  0
  144.7132  135.9542  153.6928 H   0  0  0  0  0  0  0  0  0  0  0  0
  145.9053  134.3904  155.0517 H   0  0  0  0  0  0  0  0  0  0  0  0
  148.0876  135.4657  155.2753 H   0  0  0  0  0  0  0  0  0  0  0  0
  148.5027  135.1088  153.6080 H   0  0  0  0  0  0  0  0  0  0  0  0
  148.2994  133.7959  154.7660 H   0  0  0  0  0  0  0  0  0  0  0  0
  147.6327  134.0199  151.8232 H   0  0  0  0  0  0  0  0  0  0  0  0
  146.4666  132.8736  149.9436 H   0  0  0  0  0  0  0  0  0  0  0  0
  145.0807  132.5598  150.9866 H   0  0  0  0  0  0  0  0  0  0  0  0
  146.6353  131.8094  151.3359 H   0  0  0  0  0  0  0  0  0  0  0  0
  144.8124  135.1111  151.3062 H   0  0  0  0  0  0  0  0  0  0  0  0
  146.2451  135.4465  150.3546 H   0  0  0  0  0  0  0  0  0  0  0  0
  147.2335  136.4241  152.3037 H   0  0  0  0  0  0  0  0  0  0  0  0
  1  2  1  0  0  0  0
  1 21  1  0  0  0  0
  1 22  1  0  0  0  0
  1 23  1  0  0  0  0
  2 20  1  0  0  0  0
  2  3  2  0  0  0  0
  3  4  1  0  0  0  0
  3 24  1  0  0  0  0
  4  5  1  0  0  0  0
  4 19  2  0  0  0  0
  5  6  1  0  0  0  0
  5 25  1  0  0  0  0
  6  7  2  0  0  0  0
  6  8  1  0  0  0  0
  8  9  1  0  0  0  0
  8 26  1  0  0  0  0
  9 10  1  0  0  0  0
  9 27  1  0  0  0  0
  9 28  1  0  0  0  0
 10 11  1  0  0  0  0
 10 29  1  0  0  0  0
 10 30  1  0  0  0  0
 11 18  1  0  0  0  0
 11 12  1  0  0  0  0
 11 43  1  0  0  0  0
 12 13  1  0  0  0  0
 12 31  1  0  0  0  0
 12 32  1  0  0  0  0
 13 14  1  0  0  0  0
 13 15  1  0  0  0  0
 13 33  1  0  0  0  0
 14 34  1  0  0  0  0
 14 35  1  0  0  0  0
 14 36  1  0  0  0  0
 15 16  1  0  0  0  0
 16 17  1  0  0  0  0
 16 18  1  0  0  0  0
 16 37  1  0  0  0  0
 17 38  1  0  0  0  0
 17 39  1  0  0  0  0
 17 40  1  0  0  0  0
 18 41  1  0  0  0  0
 18 42  1  0  0  0  0
 19 20  1  0  0  0  0
M  CHG  1  11   1
M  END
> <s_m_source_file>
AV-unprocessed.smi

> <i_m_source_file_index>
1381

> <i_lp_mmshare_version>
43012

> <i_f3d_flags>
0

> <s_epik_input>
W0NIM11jMVtjSF1jKG5vMSlbTkhdQyg9TylbTkhdW0NIMl1bQ0gyXU4yW0NIMl1bQ0BASF0oW0NIM10pT1tDQEBIXShbQ0gzXSlbQ0gyXTI=

> <s_epik_cmdline>
J2VwaWtfcHl0aG9uJywgJy1waCcsICc3LjAnLCAnLXRuJywgJzgnLCAnLW1hJywgJzIwMCcsICctbWV0YWxfYmluZGluZycsICctaW1hZScsICc8aW5maWxlLm1hZT4nLCAnLW9tYWUnLCAnPG91dGZpbGUubWFlPic=

> <r_epik_Ionization_Penalty>
0.707076

> <r_epik_Ionization_Penalty_Charging>
0.707039

> <r_epik_Ionization_Penalty_Neutral>
3.6548e-05

> <r_epik_State_Penalty>
0.730276

> <r_epik_Charging_Adjusted_Penalty>
1.43732

> <i_epik_Tot_Q>
1

> <i_epik_Tot_abs_Q>
1

> <r_epik_Metal_State_Penalty>
0.743132

> <b_epik_Metal_Only>
0

> <s_lp_Force_Field>
OPLS_2005

> <r_lp_Energy>
14.5355

> <b_lp_Chiralities_Consistent>
1

> <s_lp_Variant>
AV-unprocessed.smi:1381-5

> <Gold.Version>
5.8.1

> <Gold.Id.Protein>
6NUR|6NUR_protein|mol2

> <Gold.PLP.Fitness>
42.9278

> <Gold.PLP.PLP>
-28.2014

> <Gold.PLP.part.hbond>
-6.9055

> <Gold.PLP.part.metal>
0.0000

> <Gold.PLP.part.buried>
1.4713

> <Gold.PLP.part.nonpolar>
-23.6745

> <Gold.PLP.part.repulsive>
0.4404

> <Gold.PLP.ligand.clash>
0.0000

> <Gold.PLP.ligand.torsion>
1.1262

> <Gold.PLP.Chemscore.Hbond>
5.6528

> <Gold.PLP.Chemscore.CHOScore>
0.0000

> <Gold.PLP.Chemscore.Metal>
0.0000

> <Gold.Chemscore.Hbonds>
donor molecule, donor type, donor heavy atom, donor atom, acceptor molecule, acceptor atom, score
      L1  H     5    25       P1  7948  0.63
      L1  H     8    26       P1  7948  1.00
      L1  H    11    43       P1  7948  2.00
      P1  H  7989  7998       L1    19  1.00
      P1  H  7997  8009       L1    20  1.00

> <Gold.PLP.Chemscore.Internal.Correction>
0.0205

> <Gold.Rescore>
     Score         DG    S(hbond)    S(metal)    S(lipo)     H(rot)  DE(clash)    DE(int)     intcor
     17.73     -21.62       3.96        0.00      59.97       1.61       2.61       1.28       ----

> <Gold.Chemscore.Fitness>
17.7338

> <Gold.Chemscore.DG>
-21.6218

> <Gold.Chemscore.ZeroCoef>
-5.4800

> <Gold.Chemscore.Hbond>
3.9647

> <Gold.Chemscore.Metal>
0.0000

> <Gold.Chemscore.Lipo>
59.9676

> <Gold.Chemscore.Internal_Hbond>
0.0000

> <Gold.Chemscore.DEClash>
2.6071

> <Gold.Chemscore.DEInternal>
1.2809

> <Gold.Chemscore.Rot>
1.6081

> <Gold.Chemscore.Internal.Correction>
   9.000000E+99

> <Gold.Chemscore.Hbonds>
donor molecule, donor type, donor heavy atom, donor atom, acceptor molecule, acceptor atom, score
      L1  H     5    25       P1  7948  0.10
      L1  H     8    26       P1  7948  0.92
      L1  H    11    43       P1  7948  1.00
      P1  H  7989  7998       L1    19  0.89
      P1  H  7997  8009       L1    20  0.33

> <Gold.Chemscore.Hbond.Weighted>
-13.2422

> <Gold.Chemscore.Metal.Weighted>
-0.0000

> <Gold.Chemscore.Lipo.Weighted>
-7.0162

> <Gold.Chemscore.Internal_Hbond.Weighted>
0.0000

> <Gold.Chemscore.DEClash.Weighted>
2.6071

> <Gold.Chemscore.DEInternal.Weighted>
1.2809

> <Gold.Chemscore.Rot.Weighted>
4.1167

> <Gold.Chemscore.Internal.Correction.Weighted>
   9.000000E+99

> <Gold.Protein.RotatedTorsions>
[ 6907 6896 6895 6894 ] final  140.25 input  -60.11 | X-H torsion
[ 7974 7965 7964 7962 ] final -158.10 input  175.53 | X-H torsion
[ 8008 7997 7996 7995 ] final -144.25 input   59.86 | X-H torsion
[ 10167 10162 10161 10158 ] final  128.46 input  -65.29 | X-H torsion
[ 10718 10713 10712 10709 ] final   10.32 input   66.30 | X-H torsion
[ 10763 10752 10751 10750 ] final   93.21 input  -60.55 | X-H torsion
[ 11005 11000 10999 10996 ] final   61.71 input  -57.11 | X-H torsion

> <Gold.Protein.ActiveResidues>
 VAL166  LYS551  ARG553  GLY616  TRP617  ASP618  TYR619  PRO620  LYS621  CYS622 
 ASP623  PHE694  ASN695  SER759  ASP760  ASP761  ALA762  ILE779  LEU786  VAL792 
 PHE793  MET794  SER795  GLU796  ALA797  LYS798  CYS799  TRP800  GLU811  SER814 

> <Gold.Protein.RotatedAtoms>
  152.2453  133.5169  159.5293 H   0  0  0  0  0  0  0  0  0  0  0  0  # atno 6907 bound_to 6896
  150.7076  134.1034  159.3983 H   0  0  0  0  0  0  0  0  0  0  0  0  # atno 6908 bound_to 6896
  151.8954  135.0399  160.0552 H   0  0  0  0  0  0  0  0  0  0  0  0  # atno 6909 bound_to 6896
  144.7520  140.3875  143.6041 H   0  0  0  0  0  0  0  0  0  0  0  0  # atno 7974 bound_to 7965
  155.5239  140.0594  157.2901 H   0  0  0  0  0  0  0  0  0  0  0  0  # atno 8008 bound_to 7997
  154.4508  140.1947  156.0471 H   0  0  0  0  0  0  0  0  0  0  0  0  # atno 8009 bound_to 7997
  156.0699  140.3261  155.7568 H   0  0  0  0  0  0  0  0  0  0  0  0  # atno 8010 bound_to 7997
  139.5526  144.6824  151.4279 H   0  0  0  0  0  0  0  0  0  0  0  0  # atno 10167 bound_to 10162
  156.9793  130.5999  149.5675 H   0  0  0  0  0  0  0  0  0  0  0  0  # atno 10718 bound_to 10713
  153.2277  135.4333  155.0561 H   0  0  0  0  0  0  0  0  0  0  0  0  # atno 10763 bound_to 10752
  154.8282  135.3372  154.6833 H   0  0  0  0  0  0  0  0  0  0  0  0  # atno 10764 bound_to 10752
  153.7261  135.7014  153.5057 H   0  0  0  0  0  0  0  0  0  0  0  0  # atno 10765 bound_to 10752
  140.0142  134.6250  155.9735 H   0  0  0  0  0  0  0  0  0  0  0  0  # atno 11005 bound_to 11000
  145.6912  139.1639  143.2646 LP  0  0  0  0  0  0  0  0  0  0  0  0  # atno 17320 bound_to 7965
  146.1482  140.6963  142.9335 LP  0  0  0  0  0  0  0  0  0  0  0  0  # atno 17321 bound_to 7965
  140.6792  143.8121  150.7098 LP  0  0  0  0  0  0  0  0  0  0  0  0  # atno 17342 bound_to 10162
  140.1569  143.4309  152.2093 LP  0  0  0  0  0  0  0  0  0  0  0  0  # atno 17343 bound_to 10162
  156.0251  130.5345  150.8384 LP  0  0  0  0  0  0  0  0  0  0  0  0  # atno 17370 bound_to 10713
  157.5538  131.0944  150.9658 LP  0  0  0  0  0  0  0  0  0  0  0  0  # atno 17371 bound_to 10713
  141.1731  133.6538  156.4728 LP  0  0  0  0  0  0  0  0  0  0  0  0  # atno 17394 bound_to 11000
  140.4500  134.6937  157.5035 LP  0  0  0  0  0  0  0  0  0  0  0  0  # atno 17395 bound_to 11000

$$$$
