AV-unprocessed.smi:2445|AV-procd|sdf|9639|dock9
  -GOLD-   2272013273D 1   1.00000     0.00000
 Structure written by MMmdl.
 40 41  0  0  0  0  0  0  0  0  1 V2000
  145.4743  136.3400  152.1754 C   0  0  0  0  0  0  0  0  0  0  0  0
  146.0805  137.6725  152.4592 C   0  0  0  0  0  0  0  0  0  0  0  0
  146.5020  138.6143  151.5537 C   0  0  0  0  0  0  0  0  0  0  0  0
  147.0261  139.7673  152.1415 N   0  0  0  0  0  0  0  0  0  0  0  0
  147.0099  139.7137  153.4762 C   0  0  0  0  0  0  0  0  0  0  0  0
  147.5269  140.8089  154.3596 C   0  0  2  0  0  0  0  0  0  0  0  0
  146.7345  142.1122  154.1846 C   0  0  0  0  0  0  0  0  0  0  0  0
  149.0502  141.0080  154.2374 C   0  0  0  0  0  0  0  0  0  0  0  0
  149.5189  142.0801  155.1109 N   0  0  0  0  0  0  0  0  0  0  0  0
  150.4990  141.9663  156.0163 C   0  0  0  0  0  0  0  0  0  0  0  0
  151.1557  140.9419  156.2029 O   0  0  0  0  0  0  0  0  0  0  0  0
  150.6762  143.1053  156.6984 N   0  0  0  0  0  0  0  0  0  0  0  0
  151.6587  143.2926  157.7603 C   0  0  1  0  0  0  0  0  0  0  0  0
  151.6171  144.6843  158.3613 C   0  0  0  0  0  0  0  0  0  0  0  0
  152.2116  144.4542  159.7480 C   0  0  0  0  0  0  0  0  0  0  0  0
  151.9204  143.1018  160.0895 O   0  0  0  0  0  0  0  0  0  0  0  0
  151.3354  142.4269  158.9805 C   0  0  2  0  0  0  0  0  0  0  0  0
  151.8645  140.9911  158.8864 C   0  0  0  0  0  0  0  0  0  0  0  0
  146.3353  138.2116  154.0981 S   0  0  0  0  0  0  0  0  0  0  0  0
  145.3780  136.1723  151.1023 H   0  0  0  0  0  0  0  0  0  0  0  0
  144.4809  136.2658  152.6180 H   0  0  0  0  0  0  0  0  0  0  0  0
  146.0891  135.5398  152.5876 H   0  0  0  0  0  0  0  0  0  0  0  0
  146.4659  138.5479  150.4762 H   0  0  0  0  0  0  0  0  0  0  0  0
  147.3430  140.4810  155.3837 H   0  0  0  0  0  0  0  0  0  0  0  0
  145.6722  141.9529  154.3724 H   0  0  0  0  0  0  0  0  0  0  0  0
  146.8385  142.5074  153.1737 H   0  0  0  0  0  0  0  0  0  0  0  0
  147.0809  142.8789  154.8780 H   0  0  0  0  0  0  0  0  0  0  0  0
  149.5538  140.0712  154.4827 H   0  0  0  0  0  0  0  0  0  0  0  0
  149.3202  141.2492  153.2088 H   0  0  0  0  0  0  0  0  0  0  0  0
  149.0434  142.9674  155.0358 H   0  0  0  0  0  0  0  0  0  0  0  0
  150.0871  143.8942  156.4762 H   0  0  0  0  0  0  0  0  0  0  0  0
  152.6672  143.0735  157.4031 H   0  0  0  0  0  0  0  0  0  0  0  0
  152.1706  145.4213  157.7785 H   0  0  0  0  0  0  0  0  0  0  0  0
  150.5861  145.0292  158.4552 H   0  0  0  0  0  0  0  0  0  0  0  0
  153.2951  144.5751  159.7213 H   0  0  0  0  0  0  0  0  0  0  0  0
  151.8128  145.1469  160.4894 H   0  0  0  0  0  0  0  0  0  0  0  0
  150.2567  142.4122  159.1467 H   0  0  0  0  0  0  0  0  0  0  0  0
  151.4318  140.4691  158.0326 H   0  0  0  0  0  0  0  0  0  0  0  0
  151.6155  140.4252  159.7840 H   0  0  0  0  0  0  0  0  0  0  0  0
  152.9489  140.9775  158.7734 H   0  0  0  0  0  0  0  0  0  0  0  0
  1  2  1  0  0  0  0
  1 20  1  0  0  0  0
  1 21  1  0  0  0  0
  1 22  1  0  0  0  0
  2 19  1  0  0  0  0
  2  3  2  0  0  0  0
  3  4  1  0  0  0  0
  3 23  1  0  0  0  0
  4  5  2  0  0  0  0
  5  6  1  0  0  0  0
  5 19  1  0  0  0  0
  6  7  1  0  0  0  0
  6  8  1  0  0  0  0
  6 24  1  0  0  0  0
  7 25  1  0  0  0  0
  7 26  1  0  0  0  0
  7 27  1  0  0  0  0
  8  9  1  0  0  0  0
  8 28  1  0  0  0  0
  8 29  1  0  0  0  0
  9 10  1  0  0  0  0
  9 30  1  0  0  0  0
 10 11  2  0  0  0  0
 10 12  1  0  0  0  0
 12 13  1  0  0  0  0
 12 31  1  0  0  0  0
 13 17  1  0  0  0  0
 13 14  1  0  0  0  0
 13 32  1  0  0  0  0
 14 15  1  0  0  0  0
 14 33  1  0  0  0  0
 14 34  1  0  0  0  0
 15 16  1  0  0  0  0
 15 35  1  0  0  0  0
 15 36  1  0  0  0  0
 16 17  1  0  0  0  0
 17 18  1  0  0  0  0
 17 37  1  0  0  0  0
 18 38  1  0  0  0  0
 18 39  1  0  0  0  0
 18 40  1  0  0  0  0
M  END
> <s_m_source_file>
AV-unprocessed.smi

> <i_m_source_file_index>
2445

> <i_lp_mmshare_version>
43012

> <i_f3d_flags>
0

> <s_epik_input>
W0NIM11jMVtjSF1uYyhzMSlbQ0BIXShbQ0gzXSlbQ0gyXVtOSF1DKD1PKVtOSF1bQ0BASF0yW0NIMl1bQ0gyXU9bQ0BIXTJbQ0gzXQ==

> <s_epik_cmdline>
J2VwaWtfcHl0aG9uJywgJy1waCcsICc3LjAnLCAnLXRuJywgJzgnLCAnLW1hJywgJzIwMCcsICctbWV0YWxfYmluZGluZycsICctaW1hZScsICc8aW5maWxlLm1hZT4nLCAnLW9tYWUnLCAnPG91dGZpbGUubWFlPic=

> <r_epik_Ionization_Penalty>
0.000649483

> <r_epik_Ionization_Penalty_Charging>
0

> <r_epik_Ionization_Penalty_Neutral>
0.000649483

> <r_epik_State_Penalty>
0.000379895

> <r_epik_Charging_Adjusted_Penalty>
0.000379895

> <i_epik_Tot_Q>
0

> <i_epik_Tot_abs_Q>
0

> <r_epik_Metal_State_Penalty>
-0

> <b_epik_Metal_Only>
0

> <s_lp_Force_Field>
OPLS_2005

> <r_lp_Energy>
6.75485

> <b_lp_Chiralities_Consistent>
1

> <s_lp_Variant>
AV-unprocessed.smi:2445-7

> <Gold.Version>
5.8.1

> <Gold.Id.Protein>
6NUR|6NUR_protein|mol2

> <Gold.PLP.Fitness>
46.1400

> <Gold.PLP.PLP>
-39.2447

> <Gold.PLP.part.hbond>
-2.0000

> <Gold.PLP.part.metal>
0.0000

> <Gold.PLP.part.buried>
-5.1783

> <Gold.PLP.part.nonpolar>
-35.0786

> <Gold.PLP.part.repulsive>
3.2805

> <Gold.PLP.ligand.clash>
0.0000

> <Gold.PLP.ligand.torsion>
0.1020

> <Gold.PLP.Chemscore.Hbond>
1.9600

> <Gold.PLP.Chemscore.CHOScore>
0.3637

> <Gold.PLP.Chemscore.Metal>
0.0000

> <Gold.Chemscore.Hbonds>
donor molecule, donor type, donor heavy atom, donor atom, acceptor molecule, acceptor atom, score
      L1  H     9    30       P1  8028  0.96
      L1  H    12    31       P1  8028  1.00
      L1  C     3    23       P1 10171  0.37

> <Gold.PLP.Chemscore.Internal.Correction>
0.1281

> <Gold.Rescore>
     Score         DG    S(hbond)    S(metal)    S(lipo)     H(rot)  DE(clash)    DE(int)     intcor
     17.99     -19.93       1.92        0.00     102.24       1.53       0.44       1.50       ----

> <Gold.Chemscore.Fitness>
17.9908

> <Gold.Chemscore.DG>
-19.9278

> <Gold.Chemscore.ZeroCoef>
-5.4800

> <Gold.Chemscore.Hbond>
1.9190

> <Gold.Chemscore.Metal>
0.0000

> <Gold.Chemscore.Lipo>
102.2353

> <Gold.Chemscore.Internal_Hbond>
0.0000

> <Gold.Chemscore.DEClash>
0.4362

> <Gold.Chemscore.DEInternal>
1.5008

> <Gold.Chemscore.Rot>
1.5325

> <Gold.Chemscore.Internal.Correction>
   9.000000E+99

> <Gold.Chemscore.Hbonds>
donor molecule, donor type, donor heavy atom, donor atom, acceptor molecule, acceptor atom, score
      L1  H     9    30       P1  8028  0.92
      L1  H    12    31       P1  8028  0.99

> <Gold.Chemscore.Hbond.Weighted>
-6.4096

> <Gold.Chemscore.Metal.Weighted>
-0.0000

> <Gold.Chemscore.Lipo.Weighted>
-11.9615

> <Gold.Chemscore.Internal_Hbond.Weighted>
0.0000

> <Gold.Chemscore.DEClash.Weighted>
0.4362

> <Gold.Chemscore.DEInternal.Weighted>
1.5008

> <Gold.Chemscore.Rot.Weighted>
3.9233

> <Gold.Chemscore.Internal.Correction.Weighted>
   9.000000E+99

> <Gold.Protein.RotatedTorsions>
[ 6907 6896 6895 6894 ] final   73.76 input  -60.11 | X-H torsion
[ 7974 7965 7964 7962 ] final   98.04 input  175.53 | X-H torsion
[ 8008 7997 7996 7995 ] final  125.36 input   59.86 | X-H torsion
[ 10167 10162 10161 10158 ] final -154.98 input  -65.29 | X-H torsion
[ 10718 10713 10712 10709 ] final  -58.54 input   66.30 | X-H torsion
[ 10763 10752 10751 10750 ] final  -39.61 input  -60.55 | X-H torsion
[ 11005 11000 10999 10996 ] final   89.18 input  -57.11 | X-H torsion

> <Gold.Protein.ActiveResidues>
 VAL166  LYS551  ARG553  GLY616  TRP617  ASP618  TYR619  PRO620  LYS621  CYS622 
 ASP623  PHE694  ASN695  SER759  ASP760  ASP761  ALA762  ILE779  LEU786  VAL792 
 PHE793  MET794  SER795  GLU796  ALA797  LYS798  CYS799  TRP800  GLU811  SER814 

> <Gold.Protein.RotatedAtoms>
  152.4940  134.4374  159.9531 H   0  0  0  0  0  0  0  0  0  0  0  0  # atno 6907 bound_to 6896
  151.4356  133.3652  159.2782 H   0  0  0  0  0  0  0  0  0  0  0  0  # atno 6908 bound_to 6896
  150.9124  134.8564  159.7494 H   0  0  0  0  0  0  0  0  0  0  0  0  # atno 6909 bound_to 6896
  145.4174  139.2326  143.3215 H   0  0  0  0  0  0  0  0  0  0  0  0  # atno 7974 bound_to 7965
  156.2831  140.2718  156.1937 H   0  0  0  0  0  0  0  0  0  0  0  0  # atno 8008 bound_to 7997
  155.0432  140.0386  157.2535 H   0  0  0  0  0  0  0  0  0  0  0  0  # atno 8009 bound_to 7997
  154.7256  140.2696  155.6507 H   0  0  0  0  0  0  0  0  0  0  0  0  # atno 8010 bound_to 7997
  139.6968  143.9328  152.2411 H   0  0  0  0  0  0  0  0  0  0  0  0  # atno 10167 bound_to 10162
  156.1128  130.4173  150.0591 H   0  0  0  0  0  0  0  0  0  0  0  0  # atno 10718 bound_to 10713
  153.9322  135.6770  153.4745 H   0  0  0  0  0  0  0  0  0  0  0  0  # atno 10763 bound_to 10752
  153.0974  135.4845  154.8800 H   0  0  0  0  0  0  0  0  0  0  0  0  # atno 10764 bound_to 10752
  154.7422  135.3163  154.8666 H   0  0  0  0  0  0  0  0  0  0  0  0  # atno 10765 bound_to 10752
  139.8881  134.8535  156.3105 H   0  0  0  0  0  0  0  0  0  0  0  0  # atno 11005 bound_to 11000
  146.2674  140.4894  142.8828 LP  0  0  0  0  0  0  0  0  0  0  0  0  # atno 17320 bound_to 7965
  144.8268  140.6641  143.6317 LP  0  0  0  0  0  0  0  0  0  0  0  0  # atno 17321 bound_to 7965
  139.9160  144.6828  150.8512 LP  0  0  0  0  0  0  0  0  0  0  0  0  # atno 17342 bound_to 10162
  140.7699  143.3409  151.2210 LP  0  0  0  0  0  0  0  0  0  0  0  0  # atno 17343 bound_to 10162
  156.8550  130.9472  151.3622 LP  0  0  0  0  0  0  0  0  0  0  0  0  # atno 17370 bound_to 10713
  157.6310  130.8729  149.9273 LP  0  0  0  0  0  0  0  0  0  0  0  0  # atno 17371 bound_to 10713
  140.9853  133.7242  156.0733 LP  0  0  0  0  0  0  0  0  0  0  0  0  # atno 17394 bound_to 11000
  140.7696  134.3848  157.5510 LP  0  0  0  0  0  0  0  0  0  0  0  0  # atno 17395 bound_to 11000

$$$$
