AV-unprocessed.smi:1434|AV-procd|sdf|5851|dock10
  -GOLD-   22720 5523D 1   1.00000     0.00000
 Structure written by MMmdl.
 45 46  0  0  0  0  0  0  0  0  2 V2000
  144.5172  147.2312  156.2829 C   0  0  0  0  0  0  0  0  0  0  0  0
  143.5578  146.3179  155.0094 S   0  0  0  0  0  0  0  0  0  0  0  0
  142.1385  146.6776  155.1482 O   0  0  0  0  0  0  0  0  0  0  0  0
  144.2315  146.4553  153.7095 O   0  0  0  0  0  0  0  0  0  0  0  0
  143.7383  144.6783  155.5126 N   0  0  0  0  0  0  0  0  0  0  0  0
  145.0307  144.0229  155.3068 C   0  0  2  0  0  0  0  0  0  0  0  0
  145.3586  143.9463  153.8004 C   0  0  0  0  0  0  0  0  0  0  0  0
  146.6100  143.0884  153.5331 C   0  0  0  0  0  0  0  0  0  0  0  0
  146.5123  141.7294  154.2501 C   0  0  0  0  0  0  0  0  0  0  0  0
  146.3023  141.9678  155.6887 N   0  0  0  0  0  0  0  0  0  0  0  0
  147.2361  141.8453  156.6655 C   0  0  0  0  0  0  0  0  0  0  0  0
  146.9768  141.9509  157.8651 O   0  0  0  0  0  0  0  0  0  0  0  0
  148.4757  141.5643  156.2285 N   0  0  0  0  0  0  0  0  0  0  0  0
  149.6430  141.3765  157.0820 C   0  0  0  0  0  0  0  0  0  0  0  0
  150.8153  142.2681  156.6392 C   0  0  0  0  0  0  0  0  0  0  0  0
  151.2649  143.2124  157.7372 C   0  0  0  0  0  0  0  0  0  0  0  0
  152.1485  142.8050  158.7603 C   0  0  0  0  0  0  0  0  0  0  0  0
  152.5329  143.7341  159.7493 C   0  0  0  0  0  0  0  0  0  0  0  0
  152.0279  145.0497  159.6940 C   0  0  0  0  0  0  0  0  0  0  0  0
  151.1501  145.4034  158.6491 C   0  0  0  0  0  0  0  0  0  0  0  0
  150.8048  144.4845  157.7203 N   0  3  0  0  0  0  0  0  0  0  0  0
  145.0077  142.6156  155.9345 C   0  0  0  0  0  0  0  0  0  0  0  0
  144.4842  148.2983  156.0641 H   0  0  0  0  0  0  0  0  0  0  0  0
  145.5527  146.8920  156.2743 H   0  0  0  0  0  0  0  0  0  0  0  0
  144.0823  147.0500  157.2657 H   0  0  0  0  0  0  0  0  0  0  0  0
  143.4137  144.5524  156.4709 H   0  0  0  0  0  0  0  0  0  0  0  0
  145.8014  144.6087  155.8111 H   0  0  0  0  0  0  0  0  0  0  0  0
  144.5130  143.5079  153.2685 H   0  0  0  0  0  0  0  0  0  0  0  0
  145.4969  144.9455  153.3869 H   0  0  0  0  0  0  0  0  0  0  0  0
  146.7371  142.9400  152.4604 H   0  0  0  0  0  0  0  0  0  0  0  0
  147.4972  143.6199  153.8798 H   0  0  0  0  0  0  0  0  0  0  0  0
  145.6689  141.1613  153.8550 H   0  0  0  0  0  0  0  0  0  0  0  0
  147.3932  141.1285  154.0243 H   0  0  0  0  0  0  0  0  0  0  0  0
  148.6162  141.4763  155.2324 H   0  0  0  0  0  0  0  0  0  0  0  0
  149.3799  141.5797  158.1216 H   0  0  0  0  0  0  0  0  0  0  0  0
  149.9324  140.3265  157.0352 H   0  0  0  0  0  0  0  0  0  0  0  0
  151.6610  141.6505  156.3331 H   0  0  0  0  0  0  0  0  0  0  0  0
  150.5338  142.8565  155.7648 H   0  0  0  0  0  0  0  0  0  0  0  0
  152.5293  141.7942  158.7877 H   0  0  0  0  0  0  0  0  0  0  0  0
  153.2078  143.4408  160.5403 H   0  0  0  0  0  0  0  0  0  0  0  0
  152.3104  145.7766  160.4418 H   0  0  0  0  0  0  0  0  0  0  0  0
  150.7170  146.3858  158.5287 H   0  0  0  0  0  0  0  0  0  0  0  0
  144.7680  142.6790  156.9973 H   0  0  0  0  0  0  0  0  0  0  0  0
  144.2138  142.0132  155.4899 H   0  0  0  0  0  0  0  0  0  0  0  0
  150.1687  144.7630  156.9729 H   0  0  0  0  0  0  0  0  0  0  0  0
  1  2  1  0  0  0  0
  1 23  1  0  0  0  0
  1 24  1  0  0  0  0
  1 25  1  0  0  0  0
  2  3  2  0  0  0  0
  2  4  2  0  0  0  0
  2  5  1  0  0  0  0
  5  6  1  0  0  0  0
  5 26  1  0  0  0  0
  6 22  1  0  0  0  0
  6  7  1  0  0  0  0
  6 27  1  0  0  0  0
  7  8  1  0  0  0  0
  7 28  1  0  0  0  0
  7 29  1  0  0  0  0
  8  9  1  0  0  0  0
  8 30  1  0  0  0  0
  8 31  1  0  0  0  0
  9 10  1  0  0  0  0
  9 32  1  0  0  0  0
  9 33  1  0  0  0  0
 10 11  1  0  0  0  0
 10 22  1  0  0  0  0
 11 12  2  0  0  0  0
 11 13  1  0  0  0  0
 13 14  1  0  0  0  0
 13 34  1  0  0  0  0
 14 15  1  0  0  0  0
 14 35  1  0  0  0  0
 14 36  1  0  0  0  0
 15 16  1  0  0  0  0
 15 37  1  0  0  0  0
 15 38  1  0  0  0  0
 16 21  1  0  0  0  0
 16 17  2  0  0  0  0
 17 18  1  0  0  0  0
 17 39  1  0  0  0  0
 18 19  2  0  0  0  0
 18 40  1  0  0  0  0
 19 20  1  0  0  0  0
 19 41  1  0  0  0  0
 20 21  2  0  0  0  0
 20 42  1  0  0  0  0
 21 45  1  0  0  0  0
 22 43  1  0  0  0  0
 22 44  1  0  0  0  0
M  CHG  1  21   1
M  END
> <s_m_source_file>
AV-unprocessed.smi

> <i_m_source_file_index>
1434

> <i_lp_mmshare_version>
43012

> <i_f3d_flags>
0

> <s_epik_input>
W0NIM11TKD1PKSg9TylbTkhdW0NAQEhdMVtDSDJdW0NIMl1bQ0gyXU4oW0NIMl0xKUMoPU8pW05IXVtDSDJdW0NIMl1jMltjSF1bY0hdW2NIXVtjSF1uMg==

> <s_epik_cmdline>
J2VwaWtfcHl0aG9uJywgJy1waCcsICc3LjAnLCAnLXRuJywgJzgnLCAnLW1hJywgJzIwMCcsICctbWV0YWxfYmluZGluZycsICctaW1hZScsICc8aW5maWxlLm1hZT4nLCAnLW9tYWUnLCAnPG91dGZpbGUubWFlPic=

> <r_epik_Ionization_Penalty>
1.55113

> <r_epik_Ionization_Penalty_Charging>
1.55107

> <r_epik_Ionization_Penalty_Neutral>
6.01346e-05

> <r_epik_State_Penalty>
1.64529

> <r_epik_Charging_Adjusted_Penalty>
3.19637

> <i_epik_Tot_Q>
1

> <i_epik_Tot_abs_Q>
1

> <r_epik_Metal_State_Penalty>
1.69621

> <b_epik_Metal_Only>
0

> <s_lp_Force_Field>
OPLS_2005

> <r_lp_Energy>
27.1225

> <b_lp_Chiralities_Consistent>
1

> <s_lp_Variant>
AV-unprocessed.smi:1434-3

> <Gold.Version>
5.8.1

> <Gold.Id.Protein>
6NUR|6NUR_protein|mol2

> <Gold.PLP.Fitness>
47.3566

> <Gold.PLP.PLP>
-43.2745

> <Gold.PLP.part.hbond>
-2.0757

> <Gold.PLP.part.metal>
0.0000

> <Gold.PLP.part.buried>
-7.7023

> <Gold.PLP.part.nonpolar>
-33.5665

> <Gold.PLP.part.repulsive>
0.1621

> <Gold.PLP.ligand.clash>
0.0000

> <Gold.PLP.ligand.torsion>
1.0407

> <Gold.PLP.Chemscore.Hbond>
2.0000

> <Gold.PLP.Chemscore.CHOScore>
0.0000

> <Gold.PLP.Chemscore.Metal>
0.0000

> <Gold.Chemscore.Hbonds>
donor molecule, donor type, donor heavy atom, donor atom, acceptor molecule, acceptor atom, score
      L1  H    21    45       P1  8028  2.00

> <Gold.PLP.Chemscore.Internal.Correction>
0.1635

> <Gold.Rescore>
     Score         DG    S(hbond)    S(metal)    S(lipo)     H(rot)  DE(clash)    DE(int)     intcor
     12.95     -15.29       1.47        0.00      88.44       2.13       0.01       2.33       ----

> <Gold.Chemscore.Fitness>
12.9527

> <Gold.Chemscore.DG>
-15.2931

> <Gold.Chemscore.ZeroCoef>
-5.4800

> <Gold.Chemscore.Hbond>
1.4747

> <Gold.Chemscore.Metal>
0.0000

> <Gold.Chemscore.Lipo>
88.4368

> <Gold.Chemscore.Internal_Hbond>
0.0000

> <Gold.Chemscore.DEClash>
0.0060

> <Gold.Chemscore.DEInternal>
2.3345

> <Gold.Chemscore.Rot>
2.1326

> <Gold.Chemscore.Internal.Correction>
   9.000000E+99

> <Gold.Chemscore.Hbonds>
donor molecule, donor type, donor heavy atom, donor atom, acceptor molecule, acceptor atom, score
      L1  H    21    45       P1  8028  0.45

> <Gold.Chemscore.Hbond.Weighted>
-4.9256

> <Gold.Chemscore.Metal.Weighted>
-0.0000

> <Gold.Chemscore.Lipo.Weighted>
-10.3471

> <Gold.Chemscore.Internal_Hbond.Weighted>
0.0000

> <Gold.Chemscore.DEClash.Weighted>
0.0060

> <Gold.Chemscore.DEInternal.Weighted>
2.3345

> <Gold.Chemscore.Rot.Weighted>
5.4595

> <Gold.Chemscore.Internal.Correction.Weighted>
   9.000000E+99

> <Gold.Protein.RotatedTorsions>
[ 6907 6896 6895 6894 ] final  173.57 input  -60.11 | X-H torsion
[ 7974 7965 7964 7962 ] final  -97.89 input  175.53 | X-H torsion
[ 8008 7997 7996 7995 ] final   66.19 input   59.86 | X-H torsion
[ 10167 10162 10161 10158 ] final  -71.84 input  -65.29 | X-H torsion
[ 10718 10713 10712 10709 ] final   21.49 input   66.30 | X-H torsion
[ 10763 10752 10751 10750 ] final  158.13 input  -60.55 | X-H torsion
[ 11005 11000 10999 10996 ] final   10.84 input  -57.11 | X-H torsion

> <Gold.Protein.ActiveResidues>
 VAL166  LYS551  ARG553  GLY616  TRP617  ASP618  TYR619  PRO620  LYS621  CYS622 
 ASP623  PHE694  ASN695  SER759  ASP760  ASP761  ALA762  ILE779  LEU786  VAL792 
 PHE793  MET794  SER795  GLU796  ALA797  LYS798  CYS799  TRP800  GLU811  SER814 

> <Gold.Protein.RotatedAtoms>
  151.7662  133.3337  159.3431 H   0  0  0  0  0  0  0  0  0  0  0  0  # atno 6907 bound_to 6896
  150.7479  134.6061  159.6071 H   0  0  0  0  0  0  0  0  0  0  0  0  # atno 6908 bound_to 6896
  152.3372  134.7184  160.0325 H   0  0  0  0  0  0  0  0  0  0  0  0  # atno 6909 bound_to 6896
  145.3277  140.9435  143.2679 H   0  0  0  0  0  0  0  0  0  0  0  0  # atno 7974 bound_to 7965
  155.6735  140.3497  155.4827 H   0  0  0  0  0  0  0  0  0  0  0  0  # atno 8008 bound_to 7997
  155.9668  140.1148  157.0870 H   0  0  0  0  0  0  0  0  0  0  0  0  # atno 8009 bound_to 7997
  154.4156  140.1165  156.5238 H   0  0  0  0  0  0  0  0  0  0  0  0  # atno 8010 bound_to 7997
  140.5241  143.2328  151.7379 H   0  0  0  0  0  0  0  0  0  0  0  0  # atno 10167 bound_to 10162
  157.1392  130.6625  149.5975 H   0  0  0  0  0  0  0  0  0  0  0  0  # atno 10718 bound_to 10713
  154.2112  135.2786  155.2958 H   0  0  0  0  0  0  0  0  0  0  0  0  # atno 10763 bound_to 10752
  154.5777  135.5599  153.7159 H   0  0  0  0  0  0  0  0  0  0  0  0  # atno 10764 bound_to 10752
  153.0064  135.6337  154.2251 H   0  0  0  0  0  0  0  0  0  0  0  0  # atno 10765 bound_to 10752
  140.5099  134.0662  155.7815 H   0  0  0  0  0  0  0  0  0  0  0  0  # atno 11005 bound_to 11000
  144.8888  139.4802  143.6687 LP  0  0  0  0  0  0  0  0  0  0  0  0  # atno 17320 bound_to 7965
  146.3057  139.7574  142.9057 LP  0  0  0  0  0  0  0  0  0  0  0  0  # atno 17321 bound_to 7965
  139.4932  144.4212  151.9975 LP  0  0  0  0  0  0  0  0  0  0  0  0  # atno 17342 bound_to 10162
  140.3310  144.3316  150.5987 LP  0  0  0  0  0  0  0  0  0  0  0  0  # atno 17343 bound_to 10162
  155.9792  130.4784  150.6701 LP  0  0  0  0  0  0  0  0  0  0  0  0  # atno 17370 bound_to 10713
  157.4323  131.0851  151.1027 LP  0  0  0  0  0  0  0  0  0  0  0  0  # atno 17371 bound_to 10713
  141.1391  133.9170  157.2367 LP  0  0  0  0  0  0  0  0  0  0  0  0  # atno 17394 bound_to 11000
  139.9665  135.0140  156.9400 LP  0  0  0  0  0  0  0  0  0  0  0  0  # atno 17395 bound_to 11000

$$$$
