AV-unprocessed.smi:1754|AV-procd|sdf|7065|dock10
  -GOLD-   22720 8283D 1   1.00000     0.00000
 Structure written by MMmdl.
 45 46  0  0  0  0  0  0  0  0  2 V2000
  146.3423  130.8409  152.1694 C   0  0  0  0  0  0  0  0  0  0  0  0
  144.9345  131.3986  151.9210 C   0  0  0  0  0  0  0  0  0  0  0  0
  144.9312  132.4669  150.9225 N   0  0  0  0  0  0  0  0  0  0  0  0
  145.3152  132.1532  149.5485 C   0  0  0  0  0  0  0  0  0  0  0  0
  144.2394  132.5704  148.5371 C   0  0  0  0  0  0  0  0  0  0  0  0
  144.5133  133.7727  151.2702 C   0  0  0  0  0  0  0  0  0  0  0  0
  145.2956  134.9301  151.0334 C   0  0  0  0  0  0  0  0  0  0  0  0
  144.8100  136.2003  151.4063 C   0  0  0  0  0  0  0  0  0  0  0  0
  143.5338  136.3114  152.0093 C   0  0  0  0  0  0  0  0  0  0  0  0
  142.9606  137.5381  152.4394 N   0  0  0  0  0  0  0  0  0  0  0  0
  141.7930  137.7399  153.0818 C   0  0  0  0  0  0  0  0  0  0  0  0
  141.0411  136.8444  153.4598 O   0  0  0  0  0  0  0  0  0  0  0  0
  141.5102  139.0325  153.3242 N   0  0  0  0  0  0  0  0  0  0  0  0
  140.3368  139.5950  153.9949 C   0  0  1  0  0  0  0  0  0  0  0  0
  140.4416  141.1284  154.0940 C   0  0  0  0  0  0  0  0  0  0  0  0
  139.0655  141.6947  154.4674 C   0  0  0  0  0  0  0  0  0  0  0  0
  137.8294  140.5405  153.7591 S   0  0  0  0  0  0  0  0  0  0  0  0
  136.9965  140.0093  154.8487 O   0  0  0  0  0  0  0  0  0  0  0  0
  137.2205  141.1392  152.5618 O   0  0  0  0  0  0  0  0  0  0  0  0
  139.0372  139.2632  153.2439 C   0  0  0  0  0  0  0  0  0  0  0  0
  142.8016  135.1299  152.2385 C   0  0  0  0  0  0  0  0  0  0  0  0
  143.3059  133.9342  151.8655 N   0  3  0  0  0  0  0  0  0  0  0  0
  146.3193  130.0606  152.9303 H   0  0  0  0  0  0  0  0  0  0  0  0
  147.0222  131.6198  152.5155 H   0  0  0  0  0  0  0  0  0  0  0  0
  146.7641  130.4068  151.2625 H   0  0  0  0  0  0  0  0  0  0  0  0
  144.2521  130.5980  151.6346 H   0  0  0  0  0  0  0  0  0  0  0  0
  144.5397  131.7979  152.8558 H   0  0  0  0  0  0  0  0  0  0  0  0
  146.2404  132.6826  149.3184 H   0  0  0  0  0  0  0  0  0  0  0  0
  145.5551  131.0952  149.4439 H   0  0  0  0  0  0  0  0  0  0  0  0
  144.5552  132.3367  147.5203 H   0  0  0  0  0  0  0  0  0  0  0  0
  144.0455  133.6423  148.5852 H   0  0  0  0  0  0  0  0  0  0  0  0
  143.2977  132.0521  148.7185 H   0  0  0  0  0  0  0  0  0  0  0  0
  146.2737  134.8684  150.5813 H   0  0  0  0  0  0  0  0  0  0  0  0
  145.4360  137.0622  151.2351 H   0  0  0  0  0  0  0  0  0  0  0  0
  143.5244  138.3603  152.2799 H   0  0  0  0  0  0  0  0  0  0  0  0
  142.2125  139.7018  153.0431 H   0  0  0  0  0  0  0  0  0  0  0  0
  140.2648  139.2088  155.0135 H   0  0  0  0  0  0  0  0  0  0  0  0
  141.2071  141.4383  154.8062 H   0  0  0  0  0  0  0  0  0  0  0  0
  140.7305  141.5319  153.1222 H   0  0  0  0  0  0  0  0  0  0  0  0
  138.9322  141.7068  155.5494 H   0  0  0  0  0  0  0  0  0  0  0  0
  138.9031  142.7028  154.0856 H   0  0  0  0  0  0  0  0  0  0  0  0
  139.1719  139.3501  152.1649 H   0  0  0  0  0  0  0  0  0  0  0  0
  138.6485  138.2697  153.4673 H   0  0  0  0  0  0  0  0  0  0  0  0
  141.8263  135.1026  152.7027 H   0  0  0  0  0  0  0  0  0  0  0  0
  142.7429  133.1016  152.0410 H   0  0  0  0  0  0  0  0  0  0  0  0
  1  2  1  0  0  0  0
  1 23  1  0  0  0  0
  1 24  1  0  0  0  0
  1 25  1  0  0  0  0
  2  3  1  0  0  0  0
  2 26  1  0  0  0  0
  2 27  1  0  0  0  0
  3  4  1  0  0  0  0
  3  6  1  0  0  0  0
  4  5  1  0  0  0  0
  4 28  1  0  0  0  0
  4 29  1  0  0  0  0
  5 30  1  0  0  0  0
  5 31  1  0  0  0  0
  5 32  1  0  0  0  0
  6 22  1  0  0  0  0
  6  7  2  0  0  0  0
  7  8  1  0  0  0  0
  7 33  1  0  0  0  0
  8  9  2  0  0  0  0
  8 34  1  0  0  0  0
  9 10  1  0  0  0  0
  9 21  1  0  0  0  0
 10 11  1  0  0  0  0
 10 35  1  0  0  0  0
 11 12  2  0  0  0  0
 11 13  1  0  0  0  0
 13 14  1  0  0  0  0
 13 36  1  0  0  0  0
 14 20  1  0  0  0  0
 14 15  1  0  0  0  0
 14 37  1  0  0  0  0
 15 16  1  0  0  0  0
 15 38  1  0  0  0  0
 15 39  1  0  0  0  0
 16 17  1  0  0  0  0
 16 40  1  0  0  0  0
 16 41  1  0  0  0  0
 17 18  2  0  0  0  0
 17 19  2  0  0  0  0
 17 20  1  0  0  0  0
 20 42  1  0  0  0  0
 20 43  1  0  0  0  0
 21 22  2  0  0  0  0
 21 44  1  0  0  0  0
 22 45  1  0  0  0  0
M  CHG  1  22   1
M  END
> <s_m_source_file>
AV-unprocessed.smi

> <i_m_source_file_index>
1754

> <i_lp_mmshare_version>
43012

> <i_f3d_flags>
0

> <s_epik_input>
W0NIM11bQ0gyXU4oW0NIMl1bQ0gzXSljMVtjSF1bY0hdYyhbY0hdbjEpW05IXUMoPU8pW05IXVtDQEBIXShbQ0gyXTIpW0NIMl1bQ0gyXVMyKD1PKT1P

> <s_epik_cmdline>
J2VwaWtfcHl0aG9uJywgJy1waCcsICc3LjAnLCAnLXRuJywgJzgnLCAnLW1hJywgJzIwMCcsICctbWV0YWxfYmluZGluZycsICctaW1hZScsICc8aW5maWxlLm1hZT4nLCAnLW9tYWUnLCAnPG91dGZpbGUubWFlPic=

> <r_lp_tautomer_probability>
0.999994

> <r_epik_Ionization_Penalty>
0.271106

> <r_epik_Ionization_Penalty_Charging>
0.271085

> <r_epik_Ionization_Penalty_Neutral>
2.10634e-05

> <r_epik_State_Penalty>
0.017795

> <r_epik_Charging_Adjusted_Penalty>
0.28888

> <i_epik_Tot_Q>
1

> <i_epik_Tot_abs_Q>
1

> <r_epik_Metal_State_Penalty>
0.0544868

> <b_epik_Metal_Only>
0

> <s_lp_Force_Field>
OPLS_2005

> <r_lp_Energy>
29.9971

> <b_lp_Chiralities_Consistent>
1

> <s_lp_Variant>
AV-unprocessed.smi:1754-2

> <Gold.Version>
5.8.1

> <Gold.Id.Protein>
6NUR|6NUR_protein|mol2

> <Gold.PLP.Fitness>
40.6220

> <Gold.PLP.PLP>
-37.1068

> <Gold.PLP.part.hbond>
-3.5716

> <Gold.PLP.part.metal>
0.0000

> <Gold.PLP.part.buried>
-2.0614

> <Gold.PLP.part.nonpolar>
-31.0864

> <Gold.PLP.part.repulsive>
0.2288

> <Gold.PLP.ligand.clash>
0.2107

> <Gold.PLP.ligand.torsion>
1.0453

> <Gold.PLP.Chemscore.Hbond>
1.9280

> <Gold.PLP.Chemscore.CHOScore>
0.0000

> <Gold.PLP.Chemscore.Metal>
0.0000

> <Gold.Chemscore.Hbonds>
donor molecule, donor type, donor heavy atom, donor atom, acceptor molecule, acceptor atom, score
      L1  H    10    35       P1 10175  0.80
      L1  H    13    36       P1 10175  1.00

> <Gold.PLP.Chemscore.Internal.Correction>
0.0324

> <Gold.Rescore>
     Score         DG    S(hbond)    S(metal)    S(lipo)     H(rot)  DE(clash)    DE(int)     intcor
     14.35     -17.08       1.82        0.00      78.09       1.41       0.12       2.61       ----

> <Gold.Chemscore.Fitness>
14.3539

> <Gold.Chemscore.DG>
-17.0830

> <Gold.Chemscore.ZeroCoef>
-5.4800

> <Gold.Chemscore.Hbond>
1.8169

> <Gold.Chemscore.Metal>
0.0000

> <Gold.Chemscore.Lipo>
78.0910

> <Gold.Chemscore.Internal_Hbond>
0.0000

> <Gold.Chemscore.DEClash>
0.1151

> <Gold.Chemscore.DEInternal>
2.6139

> <Gold.Chemscore.Rot>
1.4070

> <Gold.Chemscore.Internal.Correction>
   9.000000E+99

> <Gold.Chemscore.Hbonds>
donor molecule, donor type, donor heavy atom, donor atom, acceptor molecule, acceptor atom, score
      L1  H    10    35       P1 10175  0.77
      L1  H    13    36       P1 10175  0.78

> <Gold.Chemscore.Hbond.Weighted>
-6.0683

> <Gold.Chemscore.Metal.Weighted>
-0.0000

> <Gold.Chemscore.Lipo.Weighted>
-9.1367

> <Gold.Chemscore.Internal_Hbond.Weighted>
0.0000

> <Gold.Chemscore.DEClash.Weighted>
0.1151

> <Gold.Chemscore.DEInternal.Weighted>
2.6139

> <Gold.Chemscore.Rot.Weighted>
3.6020

> <Gold.Chemscore.Internal.Correction.Weighted>
   9.000000E+99

> <Gold.Protein.RotatedTorsions>
[ 6907 6896 6895 6894 ] final -175.64 input  -60.11 | X-H torsion
[ 7974 7965 7964 7962 ] final  -98.67 input  175.53 | X-H torsion
[ 8008 7997 7996 7995 ] final  -80.93 input   59.86 | X-H torsion
[ 10167 10162 10161 10158 ] final -155.41 input  -65.29 | X-H torsion
[ 10718 10713 10712 10709 ] final  -27.87 input   66.30 | X-H torsion
[ 10763 10752 10751 10750 ] final   34.04 input  -60.55 | X-H torsion
[ 11005 11000 10999 10996 ] final   55.80 input  -57.11 | X-H torsion

> <Gold.Protein.ActiveResidues>
 VAL166  LYS551  ARG553  GLY616  TRP617  ASP618  TYR619  PRO620  LYS621  CYS622 
 ASP623  PHE694  ASN695  SER759  ASP760  ASP761  ALA762  ILE779  LEU786  VAL792 
 PHE793  MET794  SER795  GLU796  ALA797  LYS798  CYS799  TRP800  GLU811  SER814 

> <Gold.Protein.RotatedAtoms>
  151.5918  133.3365  159.3029 H   0  0  0  0  0  0  0  0  0  0  0  0  # atno 6907 bound_to 6896
  150.8256  134.7488  159.6821 H   0  0  0  0  0  0  0  0  0  0  0  0  # atno 6908 bound_to 6896
  152.4345  134.5719  159.9975 H   0  0  0  0  0  0  0  0  0  0  0  0  # atno 6909 bound_to 6896
  145.3175  140.9414  143.2734 H   0  0  0  0  0  0  0  0  0  0  0  0  # atno 7974 bound_to 7965
  154.5932  140.0655  156.9267 H   0  0  0  0  0  0  0  0  0  0  0  0  # atno 8008 bound_to 7997
  155.2259  140.3334  155.4291 H   0  0  0  0  0  0  0  0  0  0  0  0  # atno 8009 bound_to 7997
  156.2270  140.1823  156.7323 H   0  0  0  0  0  0  0  0  0  0  0  0  # atno 8010 bound_to 7997
  139.6933  143.9383  152.2395 H   0  0  0  0  0  0  0  0  0  0  0  0  # atno 10167 bound_to 10162
  156.4326  130.4448  149.7107 H   0  0  0  0  0  0  0  0  0  0  0  0  # atno 10718 bound_to 10713
  153.0183  135.6371  154.1607 H   0  0  0  0  0  0  0  0  0  0  0  0  # atno 10763 bound_to 10752
  154.1344  135.2838  155.3178 H   0  0  0  0  0  0  0  0  0  0  0  0  # atno 10764 bound_to 10752
  154.6171  135.5537  153.7596 H   0  0  0  0  0  0  0  0  0  0  0  0  # atno 10765 bound_to 10752
  140.0579  134.5644  155.9186 H   0  0  0  0  0  0  0  0  0  0  0  0  # atno 11005 bound_to 11000
  144.8965  139.4705  143.6653 LP  0  0  0  0  0  0  0  0  0  0  0  0  # atno 17320 bound_to 7965
  146.3095  139.7695  142.9031 LP  0  0  0  0  0  0  0  0  0  0  0  0  # atno 17321 bound_to 7965
  139.9206  144.6802  150.8466 LP  0  0  0  0  0  0  0  0  0  0  0  0  # atno 17342 bound_to 10162
  140.7689  143.3378  151.2272 LP  0  0  0  0  0  0  0  0  0  0  0  0  # atno 17343 bound_to 10162
  156.4004  130.7672  151.2679 LP  0  0  0  0  0  0  0  0  0  0  0  0  # atno 17370 bound_to 10713
  157.7508  131.0241  150.3864 LP  0  0  0  0  0  0  0  0  0  0  0  0  # atno 17371 bound_to 10713
  141.1960  133.6589  156.5670 LP  0  0  0  0  0  0  0  0  0  0  0  0  # atno 17394 bound_to 11000
  140.3816  134.7518  157.4665 LP  0  0  0  0  0  0  0  0  0  0  0  0  # atno 17395 bound_to 11000

$$$$
