AV-unprocessed.smi:1248|AV-procd|sdf|5250|dock2
  -GOLD-   22720 4363D 1   1.00000     0.00000
 Structure written by MMmdl.
 44 46  0  0  0  0  0  0  0  0  2 V2000
  152.7828  143.7322  159.5646 C   0  0  0  0  0  0  0  0  0  0  0  0
  152.0985  144.1266  158.2505 C   0  0  0  0  0  0  0  0  0  0  0  0
  151.5667  142.9719  157.5538 N   0  0  0  0  0  0  0  0  0  0  0  0
  150.8766  142.9389  156.3585 C   0  0  0  0  0  0  0  0  0  0  0  0
  150.5937  141.6262  156.1292 C   0  0  0  0  0  0  0  0  0  0  0  0
  149.8882  141.1360  155.0023 N   0  0  0  0  0  0  0  0  0  0  0  0
  148.8052  140.3426  155.0053 C   0  0  0  0  0  0  0  0  0  0  0  0
  148.2551  139.8975  156.0125 O   0  0  0  0  0  0  0  0  0  0  0  0
  148.3822  140.0898  153.7584 N   0  0  0  0  0  0  0  0  0  0  0  0
  147.2267  139.2666  153.4144 C   0  0  2  0  0  0  0  0  0  0  0  0
  147.2876  137.9363  154.1837 C   0  0  0  0  0  0  0  0  0  0  0  0
  146.1374  137.0022  153.7719 C   0  0  0  0  0  0  0  0  0  0  0  0
  146.1459  136.7619  152.3076 N   0  3  1  0  0  0  0  0  0  0  0  0
  145.1271  135.7707  151.8988 C   0  0  0  0  0  0  0  0  0  0  0  0
  145.7052  134.5554  151.2122 C   0  0  0  0  0  0  0  0  0  0  0  0
  144.9954  135.6169  150.4015 C   0  0  0  0  0  0  0  0  0  0  0  0
  146.0347  138.0286  151.5434 C   0  0  0  0  0  0  0  0  0  0  0  0
  147.1818  138.9886  151.8994 C   0  0  0  0  0  0  0  0  0  0  0  0
  151.1457  140.9114  157.2299 C   0  0  0  0  0  0  0  0  0  0  0  0
  151.7309  141.7356  158.0857 N   0  0  0  0  0  0  0  0  0  0  0  0
  153.1788  144.6109  160.0736 H   0  0  0  0  0  0  0  0  0  0  0  0
  153.6124  143.0479  159.3856 H   0  0  0  0  0  0  0  0  0  0  0  0
  152.0837  143.2425  160.2431 H   0  0  0  0  0  0  0  0  0  0  0  0
  151.2845  144.8272  158.4408 H   0  0  0  0  0  0  0  0  0  0  0  0
  152.8069  144.6342  157.5951 H   0  0  0  0  0  0  0  0  0  0  0  0
  150.6534  143.8306  155.7915 H   0  0  0  0  0  0  0  0  0  0  0  0
  150.2389  141.4283  154.1021 H   0  0  0  0  0  0  0  0  0  0  0  0
  148.8973  140.4975  152.9915 H   0  0  0  0  0  0  0  0  0  0  0  0
  146.3149  139.7911  153.7081 H   0  0  0  0  0  0  0  0  0  0  0  0
  148.2407  137.4397  153.9949 H   0  0  0  0  0  0  0  0  0  0  0  0
  147.2434  138.1227  155.2574 H   0  0  0  0  0  0  0  0  0  0  0  0
  146.2339  136.0525  154.2994 H   0  0  0  0  0  0  0  0  0  0  0  0
  145.1786  137.4320  154.0666 H   0  0  0  0  0  0  0  0  0  0  0  0
  144.2536  135.6806  152.5423 H   0  0  0  0  0  0  0  0  0  0  0  0
  146.7868  134.4858  151.1093 H   0  0  0  0  0  0  0  0  0  0  0  0
  145.1899  133.6070  151.3502 H   0  0  0  0  0  0  0  0  0  0  0  0
  144.0121  135.3684  150.0072 H   0  0  0  0  0  0  0  0  0  0  0  0
  145.6056  136.2522  149.7619 H   0  0  0  0  0  0  0  0  0  0  0  0
  146.0579  137.8151  150.4741 H   0  0  0  0  0  0  0  0  0  0  0  0
  145.0721  138.4986  151.7512 H   0  0  0  0  0  0  0  0  0  0  0  0
  147.0619  139.9212  151.3465 H   0  0  0  0  0  0  0  0  0  0  0  0
  148.1293  138.5565  151.5737 H   0  0  0  0  0  0  0  0  0  0  0  0
  151.1471  139.8526  157.4408 H   0  0  0  0  0  0  0  0  0  0  0  0
  147.0453  136.3622  152.0809 H   0  0  0  0  0  0  0  0  0  0  0  0
  1  2  1  0  0  0  0
  1 21  1  0  0  0  0
  1 22  1  0  0  0  0
  1 23  1  0  0  0  0
  2  3  1  0  0  0  0
  2 24  1  0  0  0  0
  2 25  1  0  0  0  0
  3 20  1  0  0  0  0
  3  4  1  0  0  0  0
  4  5  2  0  0  0  0
  4 26  1  0  0  0  0
  5  6  1  0  0  0  0
  5 19  1  0  0  0  0
  6  7  1  0  0  0  0
  6 27  1  0  0  0  0
  7  8  2  0  0  0  0
  7  9  1  0  0  0  0
  9 10  1  0  0  0  0
  9 28  1  0  0  0  0
 10 18  1  0  0  0  0
 10 11  1  0  0  0  0
 10 29  1  0  0  0  0
 11 12  1  0  0  0  0
 11 30  1  0  0  0  0
 11 31  1  0  0  0  0
 12 13  1  0  0  0  0
 12 32  1  0  0  0  0
 12 33  1  0  0  0  0
 13 14  1  0  0  0  0
 13 17  1  0  0  0  0
 13 44  1  0  0  0  0
 14 16  1  0  0  0  0
 14 15  1  0  0  0  0
 14 34  1  0  0  0  0
 15 16  1  0  0  0  0
 15 35  1  0  0  0  0
 15 36  1  0  0  0  0
 16 37  1  0  0  0  0
 16 38  1  0  0  0  0
 17 18  1  0  0  0  0
 17 39  1  0  0  0  0
 17 40  1  0  0  0  0
 18 41  1  0  0  0  0
 18 42  1  0  0  0  0
 19 20  2  0  0  0  0
 19 43  1  0  0  0  0
M  CHG  1  13   1
M  END
> <s_m_source_file>
AV-unprocessed.smi

> <i_m_source_file_index>
1248

> <i_lp_mmshare_version>
43012

> <i_f3d_flags>
0

> <s_epik_input>
W0NIM11bQ0gyXW4xW2NIXWMoW2NIXW4xKVtOSF1DKD1PKVtOSF1bQ0hdMltDSDJdW0NIMl1OKFtDSDJdW0NIMl0yKVtDSF0zW0NIMl1bQ0gyXTM=

> <s_epik_cmdline>
J2VwaWtfcHl0aG9uJywgJy1waCcsICc3LjAnLCAnLXRuJywgJzgnLCAnLW1hJywgJzIwMCcsICctbWV0YWxfYmluZGluZycsICctaW1hZScsICc8aW5maWxlLm1hZT4nLCAnLW9tYWUnLCAnPG91dGZpbGUubWFlPic=

> <r_lp_tautomer_probability>
1

> <r_epik_Ionization_Penalty>
0.115699

> <r_epik_Ionization_Penalty_Charging>
0.115549

> <r_epik_Ionization_Penalty_Neutral>
0.00014958

> <r_epik_State_Penalty>
0.105184

> <r_epik_Charging_Adjusted_Penalty>
0.220733

> <i_epik_Tot_Q>
1

> <i_epik_Tot_abs_Q>
1

> <r_epik_Metal_State_Penalty>
0.105189

> <b_epik_Metal_Only>
0

> <s_lp_Force_Field>
OPLS_2005

> <r_lp_Energy>
30.1422

> <b_lp_Chiralities_Consistent>
1

> <s_lp_Variant>
AV-unprocessed.smi:1248-1

> <Gold.Version>
5.8.1

> <Gold.Id.Protein>
6NUR|6NUR_protein|mol2

> <Gold.PLP.Fitness>
42.0244

> <Gold.PLP.PLP>
-32.0965

> <Gold.PLP.part.hbond>
-2.0000

> <Gold.PLP.part.metal>
0.0000

> <Gold.PLP.part.buried>
4.3882

> <Gold.PLP.part.nonpolar>
-35.5302

> <Gold.PLP.part.repulsive>
0.4848

> <Gold.PLP.ligand.clash>
0.0000

> <Gold.PLP.ligand.torsion>
1.3837

> <Gold.PLP.Chemscore.Hbond>
2.8130

> <Gold.PLP.Chemscore.CHOScore>
0.9969

> <Gold.PLP.Chemscore.Metal>
0.0000

> <Gold.Chemscore.Hbonds>
donor molecule, donor type, donor heavy atom, donor atom, acceptor molecule, acceptor atom, score
      L1  H     9    28       P1  7957  0.83
      L1  H    13    44       P1  7948  2.00
      L1  C     4    26       P1  8028  0.79

> <Gold.PLP.Chemscore.Internal.Correction>
1.2658

> <Gold.Rescore>
     Score         DG    S(hbond)    S(metal)    S(lipo)     H(rot)  DE(clash)    DE(int)     intcor
     13.13     -19.56       1.85        0.00      97.07       1.34       4.06       2.38       ----

> <Gold.Chemscore.Fitness>
13.1254

> <Gold.Chemscore.DG>
-19.5614

> <Gold.Chemscore.ZeroCoef>
-5.4800

> <Gold.Chemscore.Hbond>
1.8456

> <Gold.Chemscore.Metal>
0.0000

> <Gold.Chemscore.Lipo>
97.0703

> <Gold.Chemscore.Internal_Hbond>
0.0000

> <Gold.Chemscore.DEClash>
4.0574

> <Gold.Chemscore.DEInternal>
2.3786

> <Gold.Chemscore.Rot>
1.3438

> <Gold.Chemscore.Internal.Correction>
   9.000000E+99

> <Gold.Chemscore.Hbonds>
donor molecule, donor type, donor heavy atom, donor atom, acceptor molecule, acceptor atom, score
      L1  H     9    28       P1  7957  0.77
      L1  H    13    44       P1  7948  0.99

> <Gold.Chemscore.Hbond.Weighted>
-6.1643

> <Gold.Chemscore.Metal.Weighted>
-0.0000

> <Gold.Chemscore.Lipo.Weighted>
-11.3572

> <Gold.Chemscore.Internal_Hbond.Weighted>
0.0000

> <Gold.Chemscore.DEClash.Weighted>
4.0574

> <Gold.Chemscore.DEInternal.Weighted>
2.3786

> <Gold.Chemscore.Rot.Weighted>
3.4401

> <Gold.Chemscore.Internal.Correction.Weighted>
   9.000000E+99

> <Gold.Protein.RotatedTorsions>
[ 6907 6896 6895 6894 ] final   12.94 input  -60.11 | X-H torsion
[ 7974 7965 7964 7962 ] final   15.53 input  175.53 | X-H torsion
[ 8008 7997 7996 7995 ] final -124.02 input   59.86 | X-H torsion
[ 10167 10162 10161 10158 ] final  139.85 input  -65.29 | X-H torsion
[ 10718 10713 10712 10709 ] final -135.94 input   66.30 | X-H torsion
[ 10763 10752 10751 10750 ] final -140.91 input  -60.55 | X-H torsion
[ 11005 11000 10999 10996 ] final  142.35 input  -57.11 | X-H torsion

> <Gold.Protein.ActiveResidues>
 VAL166  LYS551  ARG553  GLY616  TRP617  ASP618  TYR619  PRO620  LYS621  CYS622 
 ASP623  PHE694  ASN695  SER759  ASP760  ASP761  ALA762  ILE779  LEU786  VAL792 
 PHE793  MET794  SER795  GLU796  ALA797  LYS798  CYS799  TRP800  GLU811  SER814 

> <Gold.Protein.RotatedAtoms>
  151.7784  135.0768  160.0369 H   0  0  0  0  0  0  0  0  0  0  0  0  # atno 6907 bound_to 6896
  152.3240  133.5880  159.5772 H   0  0  0  0  0  0  0  0  0  0  0  0  # atno 6908 bound_to 6896
  150.7385  133.9884  159.3641 H   0  0  0  0  0  0  0  0  0  0  0  0  # atno 6909 bound_to 6896
  146.2276  139.8880  142.8559 H   0  0  0  0  0  0  0  0  0  0  0  0  # atno 7974 bound_to 7965
  155.1900  140.0413  157.2898 H   0  0  0  0  0  0  0  0  0  0  0  0  # atno 8008 bound_to 7997
  154.6145  140.2485  155.7599 H   0  0  0  0  0  0  0  0  0  0  0  0  # atno 8009 bound_to 7997
  156.2398  140.2908  156.0423 H   0  0  0  0  0  0  0  0  0  0  0  0  # atno 8010 bound_to 7997
  139.5066  144.6270  151.5913 H   0  0  0  0  0  0  0  0  0  0  0  0  # atno 10167 bound_to 10162
  156.2716  130.7269  151.1237 H   0  0  0  0  0  0  0  0  0  0  0  0  # atno 10718 bound_to 10713
  154.8563  135.3539  154.5783 H   0  0  0  0  0  0  0  0  0  0  0  0  # atno 10763 bound_to 10752
  153.6394  135.6999  153.5251 H   0  0  0  0  0  0  0  0  0  0  0  0  # atno 10764 bound_to 10752
  153.2984  135.4214  155.1189 H   0  0  0  0  0  0  0  0  0  0  0  0  # atno 10765 bound_to 10752
  140.0470  134.9275  157.0948 H   0  0  0  0  0  0  0  0  0  0  0  0  # atno 11005 bound_to 11000
  145.2446  141.0022  143.3916 LP  0  0  0  0  0  0  0  0  0  0  0  0  # atno 17320 bound_to 7965
  144.9424  139.4174  143.6442 LP  0  0  0  0  0  0  0  0  0  0  0  0  # atno 17321 bound_to 7965
  140.5990  143.9645  150.6373 LP  0  0  0  0  0  0  0  0  0  0  0  0  # atno 17342 bound_to 10162
  140.2850  143.3363  152.1116 LP  0  0  0  0  0  0  0  0  0  0  0  0  # atno 17343 bound_to 10162
  157.7285  131.0631  150.5815 LP  0  0  0  0  0  0  0  0  0  0  0  0  # atno 17370 bound_to 10713
  156.5912  130.4329  149.5936 LP  0  0  0  0  0  0  0  0  0  0  0  0  # atno 17371 bound_to 10713
  140.3978  134.2115  155.7164 LP  0  0  0  0  0  0  0  0  0  0  0  0  # atno 17394 bound_to 11000
  141.1912  133.8201  157.0890 LP  0  0  0  0  0  0  0  0  0  0  0  0  # atno 17395 bound_to 11000

$$$$
