AV-unprocessed.smi:1220|AV-procd|sdf|5117|dock9
  -GOLD-   22720 4173D 1   1.00000     0.00000
 Structure written by MMmdl.
 35 36  0  0  0  0  0  0  0  0  1 V2000
  146.2351  133.2122  153.7597 C   0  0  0  0  0  0  0  0  0  0  0  0
  147.5117  133.1148  152.9137 C   0  0  1  0  0  0  0  0  0  0  0  0
  147.2403  133.4924  151.4412 C   0  0  0  0  0  0  0  0  0  0  0  0
  145.9588  133.0046  150.9620 N   0  0  0  0  0  0  0  0  0  0  0  0
  145.7010  131.8988  150.1790 C   0  0  0  0  0  0  0  0  0  0  0  0
  144.3488  131.8312  150.0043 C   0  0  0  0  0  0  0  0  0  0  0  0
  143.8588  132.9571  150.7233 C   0  0  0  0  0  0  0  0  0  0  0  0
  144.8252  133.6599  151.2921 N   0  0  0  0  0  0  0  0  0  0  0  0
  148.5330  133.9876  153.4924 N   0  0  0  0  0  0  0  0  0  0  0  0
  149.2166  133.7515  154.6238 C   0  0  0  0  0  0  0  0  0  0  0  0
  149.0268  132.7667  155.3380 O   0  0  0  0  0  0  0  0  0  0  0  0
  150.2971  134.7749  154.9912 C   0  0  1  0  0  0  0  0  0  0  0  0
  149.7620  136.2233  154.9842 C   0  0  0  0  0  0  0  0  0  0  0  0
  150.7928  137.1238  155.6721 C   0  0  0  0  0  0  0  0  0  0  0  0
  151.5428  136.0977  156.9904 S   0  0  0  0  0  0  0  0  0  0  0  0
  153.0057  136.1206  156.8415 O   0  0  0  0  0  0  0  0  0  0  0  0
  150.9078  136.4141  158.2786 O   0  0  0  0  0  0  0  0  0  0  0  0
  150.8897  134.4962  156.3846 C   0  0  0  0  0  0  0  0  0  0  0  0
  145.4593  132.5493  153.3756 H   0  0  0  0  0  0  0  0  0  0  0  0
  145.8348  134.2268  153.7615 H   0  0  0  0  0  0  0  0  0  0  0  0
  146.4267  132.9269  154.7948 H   0  0  0  0  0  0  0  0  0  0  0  0
  147.8444  132.0759  152.9541 H   0  0  0  0  0  0  0  0  0  0  0  0
  147.2534  134.5769  151.3227 H   0  0  0  0  0  0  0  0  0  0  0  0
  148.0268  133.1008  150.7946 H   0  0  0  0  0  0  0  0  0  0  0  0
  146.4918  131.2552  149.8230 H   0  0  0  0  0  0  0  0  0  0  0  0
  143.7936  131.0897  149.4494 H   0  0  0  0  0  0  0  0  0  0  0  0
  142.8367  133.2825  150.8481 H   0  0  0  0  0  0  0  0  0  0  0  0
  148.7578  134.8246  152.9742 H   0  0  0  0  0  0  0  0  0  0  0  0
  151.1090  134.7198  154.2638 H   0  0  0  0  0  0  0  0  0  0  0  0
  149.5516  136.5700  153.9719 H   0  0  0  0  0  0  0  0  0  0  0  0
  148.8247  136.2796  155.5402 H   0  0  0  0  0  0  0  0  0  0  0  0
  151.5827  137.4094  154.9771 H   0  0  0  0  0  0  0  0  0  0  0  0
  150.3568  138.0279  156.0975 H   0  0  0  0  0  0  0  0  0  0  0  0
  150.1342  134.1533  157.0930 H   0  0  0  0  0  0  0  0  0  0  0  0
  151.6935  133.7604  156.3572 H   0  0  0  0  0  0  0  0  0  0  0  0
  1  2  1  0  0  0  0
  1 19  1  0  0  0  0
  1 20  1  0  0  0  0
  1 21  1  0  0  0  0
  2  3  1  0  0  0  0
  2  9  1  0  0  0  0
  2 22  1  0  0  0  0
  3  4  1  0  0  0  0
  3 23  1  0  0  0  0
  3 24  1  0  0  0  0
  4  8  1  0  0  0  0
  4  5  1  0  0  0  0
  5  6  2  0  0  0  0
  5 25  1  0  0  0  0
  6  7  1  0  0  0  0
  6 26  1  0  0  0  0
  7  8  2  0  0  0  0
  7 27  1  0  0  0  0
  9 10  1  0  0  0  0
  9 28  1  0  0  0  0
 10 11  2  0  0  0  0
 10 12  1  0  0  0  0
 12 18  1  0  0  0  0
 12 13  1  0  0  0  0
 12 29  1  0  0  0  0
 13 14  1  0  0  0  0
 13 30  1  0  0  0  0
 13 31  1  0  0  0  0
 14 15  1  0  0  0  0
 14 32  1  0  0  0  0
 14 33  1  0  0  0  0
 15 16  2  0  0  0  0
 15 17  2  0  0  0  0
 15 18  1  0  0  0  0
 18 34  1  0  0  0  0
 18 35  1  0  0  0  0
M  END
> <s_m_source_file>
AV-unprocessed.smi

> <i_m_source_file_index>
1220

> <i_lp_mmshare_version>
43012

> <i_f3d_flags>
0

> <s_epik_input>
bjFbY0hdW2NIXVtjSF1uMVtDSDJdW0NAQEhdKFtDSDNdKVtOSF1DKD1PKVtDQEBIXShbQ0gyXTIpW0NIMl1bQ0gyXVMyKD1PKT1P

> <s_epik_cmdline>
J2VwaWtfcHl0aG9uJywgJy1waCcsICc3LjAnLCAnLXRuJywgJzgnLCAnLW1hJywgJzIwMCcsICctbWV0YWxfYmluZGluZycsICctaW1hZScsICc8aW5maWxlLm1hZT4nLCAnLW9tYWUnLCAnPG91dGZpbGUubWFlPic=

> <r_lp_tautomer_probability>
1

> <r_epik_Ionization_Penalty>
0.000293905

> <r_epik_Ionization_Penalty_Charging>
0

> <r_epik_Ionization_Penalty_Neutral>
0.000293905

> <r_epik_State_Penalty>
-0

> <r_epik_Charging_Adjusted_Penalty>
0

> <i_epik_Tot_Q>
0

> <i_epik_Tot_abs_Q>
0

> <r_epik_Metal_State_Penalty>
-0

> <b_epik_Metal_Only>
0

> <s_lp_Force_Field>
OPLS_2005

> <r_lp_Energy>
3.0384

> <b_lp_Chiralities_Consistent>
1

> <s_lp_Variant>
AV-unprocessed.smi:1220-4

> <Gold.Version>
5.8.1

> <Gold.Id.Protein>
6NUR|6NUR_protein|mol2

> <Gold.PLP.Fitness>
41.7131

> <Gold.PLP.PLP>
-29.6176

> <Gold.PLP.part.hbond>
-3.0000

> <Gold.PLP.part.metal>
0.0000

> <Gold.PLP.part.buried>
-3.2732

> <Gold.PLP.part.nonpolar>
-22.8544

> <Gold.PLP.part.repulsive>
0.1153

> <Gold.PLP.ligand.clash>
0.0000

> <Gold.PLP.ligand.torsion>
0.7753

> <Gold.PLP.Chemscore.Hbond>
2.7040

> <Gold.PLP.Chemscore.CHOScore>
1.8400

> <Gold.PLP.Chemscore.Metal>
0.0000

> <Gold.Chemscore.Hbonds>
donor molecule, donor type, donor heavy atom, donor atom, acceptor molecule, acceptor atom, score
      L1  H     9    28       P1  7948  0.95
      P1  H  6896  6907       L1    17  0.69
      P1  H 10752 10765       L1    16  1.00
      L1  C     5    25       P1 10747  0.98
      L1  C     7    27       P1 10186  1.00

> <Gold.PLP.Chemscore.Internal.Correction>
0.0141

> <Gold.Rescore>
     Score         DG    S(hbond)    S(metal)    S(lipo)     H(rot)  DE(clash)    DE(int)     intcor
     14.58     -16.65       2.54        0.00      61.31       1.75       0.01       2.06       ----

> <Gold.Chemscore.Fitness>
14.5817

> <Gold.Chemscore.DG>
-16.6507

> <Gold.Chemscore.ZeroCoef>
-5.4800

> <Gold.Chemscore.Hbond>
2.5351

> <Gold.Chemscore.Metal>
0.0000

> <Gold.Chemscore.Lipo>
61.3092

> <Gold.Chemscore.Internal_Hbond>
0.0000

> <Gold.Chemscore.DEClash>
0.0058

> <Gold.Chemscore.DEInternal>
2.0632

> <Gold.Chemscore.Rot>
1.7460

> <Gold.Chemscore.Internal.Correction>
   9.000000E+99

> <Gold.Chemscore.Hbonds>
donor molecule, donor type, donor heavy atom, donor atom, acceptor molecule, acceptor atom, score
      L1  H     9    28       P1  7948  0.22
      P1  H  6896  6907       L1    17  0.61
      P1  H 10752 10765       L1    16  0.65

> <Gold.Chemscore.Hbond.Weighted>
-8.4672

> <Gold.Chemscore.Metal.Weighted>
-0.0000

> <Gold.Chemscore.Lipo.Weighted>
-7.1732

> <Gold.Chemscore.Internal_Hbond.Weighted>
0.0000

> <Gold.Chemscore.DEClash.Weighted>
0.0058

> <Gold.Chemscore.DEInternal.Weighted>
2.0632

> <Gold.Chemscore.Rot.Weighted>
4.4697

> <Gold.Chemscore.Internal.Correction.Weighted>
   9.000000E+99

> <Gold.Protein.RotatedTorsions>
[ 6907 6896 6895 6894 ] final  -36.08 input  -60.11 | X-H torsion
[ 7974 7965 7964 7962 ] final -178.47 input  175.53 | X-H torsion
[ 8008 7997 7996 7995 ] final  -97.46 input   59.86 | X-H torsion
[ 10167 10162 10161 10158 ] final  -76.30 input  -65.29 | X-H torsion
[ 10718 10713 10712 10709 ] final   28.26 input   66.30 | X-H torsion
[ 10763 10752 10751 10750 ] final -132.39 input  -60.55 | X-H torsion
[ 11005 11000 10999 10996 ] final  -30.05 input  -57.11 | X-H torsion

> <Gold.Protein.ActiveResidues>
 VAL166  LYS551  ARG553  GLY616  TRP617  ASP618  TYR619  PRO620  LYS621  CYS622 
 ASP623  PHE694  ASN695  SER759  ASP760  ASP761  ALA762  ILE779  LEU786  VAL792 
 PHE793  MET794  SER795  GLU796  ALA797  LYS798  CYS799  TRP800  GLU811  SER814 

> <Gold.Protein.RotatedAtoms>
  151.0317  134.9544  159.8114 H   0  0  0  0  0  0  0  0  0  0  0  0  # atno 6907 bound_to 6896
  152.5347  134.2772  159.9004 H   0  0  0  0  0  0  0  0  0  0  0  0  # atno 6908 bound_to 6896
  151.2782  133.4180  159.2659 H   0  0  0  0  0  0  0  0  0  0  0  0  # atno 6909 bound_to 6896
  144.7131  140.0864  143.6423 H   0  0  0  0  0  0  0  0  0  0  0  0  # atno 7974 bound_to 7965
  154.7880  140.0463  157.1179 H   0  0  0  0  0  0  0  0  0  0  0  0  # atno 8008 bound_to 7997
  154.9624  140.3079  155.5005 H   0  0  0  0  0  0  0  0  0  0  0  0  # atno 8009 bound_to 7997
  156.2946  140.2268  156.4711 H   0  0  0  0  0  0  0  0  0  0  0  0  # atno 8010 bound_to 7997
  140.4869  143.2389  151.7969 H   0  0  0  0  0  0  0  0  0  0  0  0  # atno 10167 bound_to 10162
  157.2310  130.7024  149.6313 H   0  0  0  0  0  0  0  0  0  0  0  0  # atno 10718 bound_to 10713
  154.8743  135.3799  154.4401 H   0  0  0  0  0  0  0  0  0  0  0  0  # atno 10763 bound_to 10752
  153.5087  135.7030  153.5797 H   0  0  0  0  0  0  0  0  0  0  0  0  # atno 10764 bound_to 10752
  153.4097  135.3928  155.2008 H   0  0  0  0  0  0  0  0  0  0  0  0  # atno 10765 bound_to 10752
  140.9349  133.7315  156.0990 H   0  0  0  0  0  0  0  0  0  0  0  0  # atno 11005 bound_to 11000
  145.9658  139.2833  143.1128 LP  0  0  0  0  0  0  0  0  0  0  0  0  # atno 17320 bound_to 7965
  145.9171  140.9141  143.0424 LP  0  0  0  0  0  0  0  0  0  0  0  0  # atno 17321 bound_to 7965
  139.4843  144.4700  151.9437 LP  0  0  0  0  0  0  0  0  0  0  0  0  # atno 17342 bound_to 10162
  140.3786  144.2765  150.5911 LP  0  0  0  0  0  0  0  0  0  0  0  0  # atno 17343 bound_to 10162
  155.9675  130.4489  150.5636 LP  0  0  0  0  0  0  0  0  0  0  0  0  # atno 17370 bound_to 10713
  157.3478  131.0728  151.1738 LP  0  0  0  0  0  0  0  0  0  0  0  0  # atno 17371 bound_to 10713
  140.7813  134.3722  157.5486 LP  0  0  0  0  0  0  0  0  0  0  0  0  # atno 17394 bound_to 11000
  139.8805  134.9083  156.2965 LP  0  0  0  0  0  0  0  0  0  0  0  0  # atno 17395 bound_to 11000

$$$$
