AV-unprocessed.smi:1586|AV-procd|sdf|6376|dock1
  -GOLD-   22720 7 03D 1   1.00000     0.00000
 Structure written by MMmdl.
 47 48  0  0  0  0  0  0  0  0  2 V2000
  153.3916  143.0293  159.7743 C   0  0  0  0  0  0  0  0  0  0  0  0
  151.8656  142.8587  159.7934 C   0  0  0  0  0  0  0  0  0  0  0  0
  151.1923  143.8430  158.9426 N   0  0  0  0  0  0  0  0  0  0  0  0
  151.6111  143.8461  157.5402 C   0  0  0  0  0  0  0  0  0  0  0  0
  151.1710  142.5717  156.7905 C   0  0  0  0  0  0  0  0  0  0  0  0
  149.6939  142.3787  156.8495 N   0  3  0  0  0  0  0  0  0  0  0  0
  149.2048  141.1634  156.1147 C   0  0  1  0  0  0  0  0  0  0  0  0
  149.2350  141.3782  154.5808 C   0  0  0  0  0  0  0  0  0  0  0  0
  150.0005  139.8841  156.4899 C   0  0  0  0  0  0  0  0  0  0  0  0
  149.1475  138.8498  157.0675 N   0  0  0  0  0  0  0  0  0  0  0  0
  149.2347  138.4006  158.3271 C   0  0  0  0  0  0  0  0  0  0  0  0
  150.0479  138.8296  159.1460 O   0  0  0  0  0  0  0  0  0  0  0  0
  148.3292  137.4364  158.5644 N   0  0  0  0  0  0  0  0  0  0  0  0
  148.1391  136.7045  159.7641 C   0  0  0  0  0  0  0  0  0  0  0  0
  147.9400  135.2986  159.7352 C   0  0  0  0  0  0  0  0  0  0  0  0
  147.8066  134.9797  161.0572 C   0  0  0  0  0  0  0  0  0  0  0  0
  147.5783  133.6917  161.7716 C   0  0  0  0  0  0  0  0  0  0  0  0
  147.9154  136.0965  161.8274 O   0  0  0  0  0  0  0  0  0  0  0  0
  148.1276  137.1998  160.9921 N   0  0  0  0  0  0  0  0  0  0  0  0
  149.2471  142.4326  158.2710 C   0  0  0  0  0  0  0  0  0  0  0  0
  149.7370  143.7136  158.9779 C   0  0  0  0  0  0  0  0  0  0  0  0
  153.8563  142.3745  160.5116 H   0  0  0  0  0  0  0  0  0  0  0  0
  153.6791  144.0531  160.0161 H   0  0  0  0  0  0  0  0  0  0  0  0
  153.8199  142.7753  158.8051 H   0  0  0  0  0  0  0  0  0  0  0  0
  151.5990  141.8384  159.5205 H   0  0  0  0  0  0  0  0  0  0  0  0
  151.5239  143.0026  160.8193 H   0  0  0  0  0  0  0  0  0  0  0  0
  151.1749  144.7194  157.0532 H   0  0  0  0  0  0  0  0  0  0  0  0
  152.6903  143.9752  157.4655 H   0  0  0  0  0  0  0  0  0  0  0  0
  151.4976  142.7009  155.7606 H   0  0  0  0  0  0  0  0  0  0  0  0
  151.6827  141.6891  157.1757 H   0  0  0  0  0  0  0  0  0  0  0  0
  148.1659  141.0013  156.4076 H   0  0  0  0  0  0  0  0  0  0  0  0
  148.9575  140.4796  154.0310 H   0  0  0  0  0  0  0  0  0  0  0  0
  150.2297  141.6711  154.2428 H   0  0  0  0  0  0  0  0  0  0  0  0
  148.5274  142.1385  154.2536 H   0  0  0  0  0  0  0  0  0  0  0  0
  150.5194  139.5037  155.6080 H   0  0  0  0  0  0  0  0  0  0  0  0
  150.7556  140.0891  157.2475 H   0  0  0  0  0  0  0  0  0  0  0  0
  148.4467  138.4442  156.4643 H   0  0  0  0  0  0  0  0  0  0  0  0
  147.7165  137.1899  157.8014 H   0  0  0  0  0  0  0  0  0  0  0  0
  147.9022  134.6309  158.8873 H   0  0  0  0  0  0  0  0  0  0  0  0
  147.2222  132.9237  161.0848 H   0  0  0  0  0  0  0  0  0  0  0  0
  146.8345  133.8111  162.5596 H   0  0  0  0  0  0  0  0  0  0  0  0
  148.5017  133.3351  162.2281 H   0  0  0  0  0  0  0  0  0  0  0  0
  148.1608  142.4461  158.3307 H   0  0  0  0  0  0  0  0  0  0  0  0
  149.5786  141.5396  158.8023 H   0  0  0  0  0  0  0  0  0  0  0  0
  149.3935  143.7289  160.0130 H   0  0  0  0  0  0  0  0  0  0  0  0
  149.2951  144.5881  158.4980 H   0  0  0  0  0  0  0  0  0  0  0  0
  149.2853  143.1799  156.3898 H   0  0  0  0  0  0  0  0  0  0  0  0
  1  2  1  0  0  0  0
  1 22  1  0  0  0  0
  1 23  1  0  0  0  0
  1 24  1  0  0  0  0
  2  3  1  0  0  0  0
  2 25  1  0  0  0  0
  2 26  1  0  0  0  0
  3 21  1  0  0  0  0
  3  4  1  0  0  0  0
  4  5  1  0  0  0  0
  4 27  1  0  0  0  0
  4 28  1  0  0  0  0
  5  6  1  0  0  0  0
  5 29  1  0  0  0  0
  5 30  1  0  0  0  0
  6  7  1  0  0  0  0
  6 20  1  0  0  0  0
  6 47  1  0  0  0  0
  7  8  1  0  0  0  0
  7  9  1  0  0  0  0
  7 31  1  0  0  0  0
  8 32  1  0  0  0  0
  8 33  1  0  0  0  0
  8 34  1  0  0  0  0
  9 10  1  0  0  0  0
  9 35  1  0  0  0  0
  9 36  1  0  0  0  0
 10 11  1  0  0  0  0
 10 37  1  0  0  0  0
 11 12  2  0  0  0  0
 11 13  1  0  0  0  0
 13 14  1  0  0  0  0
 13 38  1  0  0  0  0
 14 19  2  0  0  0  0
 14 15  1  0  0  0  0
 15 16  2  0  0  0  0
 15 39  1  0  0  0  0
 16 17  1  0  0  0  0
 16 18  1  0  0  0  0
 17 40  1  0  0  0  0
 17 41  1  0  0  0  0
 17 42  1  0  0  0  0
 18 19  1  0  0  0  0
 20 21  1  0  0  0  0
 20 43  1  0  0  0  0
 20 44  1  0  0  0  0
 21 45  1  0  0  0  0
 21 46  1  0  0  0  0
M  CHG  1   6   1
M  END
> <s_m_source_file>
AV-unprocessed.smi

> <i_m_source_file_index>
1586

> <i_lp_mmshare_version>
43012

> <i_f3d_flags>
0

> <s_epik_input>
W0NIM11bQ0gyXU4xW0NIMl1bQ0gyXU4oW0NIMl1bQ0gyXTEpW0NASF0oW0NIM10pW0NIMl1bTkhdQyg9TylbTkhdYzJbY0hdYyhbQ0gzXSlvbjI=

> <s_epik_cmdline>
J2VwaWtfcHl0aG9uJywgJy1waCcsICc3LjAnLCAnLXRuJywgJzgnLCAnLW1hJywgJzIwMCcsICctbWV0YWxfYmluZGluZycsICctaW1hZScsICc8aW5maWxlLm1hZT4nLCAnLW9tYWUnLCAnPG91dGZpbGUubWFlPic=

> <r_epik_Ionization_Penalty>
0.153363

> <r_epik_Ionization_Penalty_Charging>
0.151842

> <r_epik_Ionization_Penalty_Neutral>
0.00152029

> <r_epik_State_Penalty>
0.985235

> <r_epik_Charging_Adjusted_Penalty>
1.13708

> <i_epik_Tot_Q>
1

> <i_epik_Tot_abs_Q>
1

> <r_epik_Metal_State_Penalty>
0.996168

> <b_epik_Metal_Only>
0

> <s_lp_Force_Field>
OPLS_2005

> <r_lp_Energy>
21.483

> <b_lp_Chiralities_Consistent>
1

> <s_lp_Variant>
AV-unprocessed.smi:1586-4

> <Gold.Version>
5.8.1

> <Gold.Id.Protein>
6NUR|6NUR_protein|mol2

> <Gold.PLP.Fitness>
41.4960

> <Gold.PLP.PLP>
-33.1648

> <Gold.PLP.part.hbond>
-4.0000

> <Gold.PLP.part.metal>
0.0000

> <Gold.PLP.part.buried>
-4.1470

> <Gold.PLP.part.nonpolar>
-25.2658

> <Gold.PLP.part.repulsive>
0.2607

> <Gold.PLP.ligand.clash>
0.0000

> <Gold.PLP.ligand.torsion>
1.3629

> <Gold.PLP.Chemscore.Hbond>
3.6480

> <Gold.PLP.Chemscore.CHOScore>
0.0000

> <Gold.PLP.Chemscore.Metal>
0.0000

> <Gold.Chemscore.Hbonds>
donor molecule, donor type, donor heavy atom, donor atom, acceptor molecule, acceptor atom, score
      L1  H     6    47       P1  8028  2.00
      P1  H  6931  6943       L1    19  0.96
      P1  H  6934  6947       L1    19  0.64

> <Gold.PLP.Chemscore.Internal.Correction>
0.1131

> <Gold.Rescore>
     Score         DG    S(hbond)    S(metal)    S(lipo)     H(rot)  DE(clash)    DE(int)     intcor
     17.04     -18.55       2.18        0.00      88.10       1.76       0.20       1.31       ----

> <Gold.Chemscore.Fitness>
17.0379

> <Gold.Chemscore.DG>
-18.5543

> <Gold.Chemscore.ZeroCoef>
-5.4800

> <Gold.Chemscore.Hbond>
2.1800

> <Gold.Chemscore.Metal>
0.0000

> <Gold.Chemscore.Lipo>
88.1029

> <Gold.Chemscore.Internal_Hbond>
0.0000

> <Gold.Chemscore.DEClash>
0.2039

> <Gold.Chemscore.DEInternal>
1.3125

> <Gold.Chemscore.Rot>
1.7637

> <Gold.Chemscore.Internal.Correction>
   9.000000E+99

> <Gold.Chemscore.Hbonds>
donor molecule, donor type, donor heavy atom, donor atom, acceptor molecule, acceptor atom, score
      L1  H     6    47       P1  8028  1.00
      P1  H  6931  6943       L1    19  0.46
      P1  H  6934  6947       L1    19  0.40

> <Gold.Chemscore.Hbond.Weighted>
-7.2812

> <Gold.Chemscore.Metal.Weighted>
-0.0000

> <Gold.Chemscore.Lipo.Weighted>
-10.3080

> <Gold.Chemscore.Internal_Hbond.Weighted>
0.0000

> <Gold.Chemscore.DEClash.Weighted>
0.2039

> <Gold.Chemscore.DEInternal.Weighted>
1.3125

> <Gold.Chemscore.Rot.Weighted>
4.5150

> <Gold.Chemscore.Internal.Correction.Weighted>
   9.000000E+99

> <Gold.Protein.RotatedTorsions>
[ 6907 6896 6895 6894 ] final  117.30 input  -60.11 | X-H torsion
[ 7974 7965 7964 7962 ] final -135.82 input  175.53 | X-H torsion
[ 8008 7997 7996 7995 ] final -103.06 input   59.86 | X-H torsion
[ 10167 10162 10161 10158 ] final -176.96 input  -65.29 | X-H torsion
[ 10718 10713 10712 10709 ] final -119.63 input   66.30 | X-H torsion
[ 10763 10752 10751 10750 ] final   97.11 input  -60.55 | X-H torsion
[ 11005 11000 10999 10996 ] final   90.86 input  -57.11 | X-H torsion

> <Gold.Protein.ActiveResidues>
 VAL166  LYS551  ARG553  GLY616  TRP617  ASP618  TYR619  PRO620  LYS621  CYS622 
 ASP623  PHE694  ASN695  SER759  ASP760  ASP761  ALA762  ILE779  LEU786  VAL792 
 PHE793  MET794  SER795  GLU796  ALA797  LYS798  CYS799  TRP800  GLU811  SER814 

> <Gold.Protein.RotatedAtoms>
  152.4621  133.7844  159.6867 H   0  0  0  0  0  0  0  0  0  0  0  0  # atno 6907 bound_to 6896
  150.8569  133.7692  159.3012 H   0  0  0  0  0  0  0  0  0  0  0  0  # atno 6908 bound_to 6896
  151.5269  135.1071  159.9945 H   0  0  0  0  0  0  0  0  0  0  0  0  # atno 6909 bound_to 6896
  144.8980  140.6733  143.5103 H   0  0  0  0  0  0  0  0  0  0  0  0  # atno 7974 bound_to 7965
  154.8655  140.0425  157.1692 H   0  0  0  0  0  0  0  0  0  0  0  0  # atno 8008 bound_to 7997
  154.8794  140.2970  155.5413 H   0  0  0  0  0  0  0  0  0  0  0  0  # atno 8009 bound_to 7997
  156.2999  140.2414  156.3794 H   0  0  0  0  0  0  0  0  0  0  0  0  # atno 8010 bound_to 7997
  139.5504  144.2125  152.1066 H   0  0  0  0  0  0  0  0  0  0  0  0  # atno 10167 bound_to 10162
  156.1196  130.6312  150.9440 H   0  0  0  0  0  0  0  0  0  0  0  0  # atno 10718 bound_to 10713
  153.2730  135.4195  155.1006 H   0  0  0  0  0  0  0  0  0  0  0  0  # atno 10763 bound_to 10752
  154.8463  135.3477  154.6218 H   0  0  0  0  0  0  0  0  0  0  0  0  # atno 10764 bound_to 10752
  153.6638  135.7047  153.5226 H   0  0  0  0  0  0  0  0  0  0  0  0  # atno 10765 bound_to 10752
  139.8848  134.8639  156.3345 H   0  0  0  0  0  0  0  0  0  0  0  0  # atno 11005 bound_to 11000
  145.3666  139.1669  143.4355 LP  0  0  0  0  0  0  0  0  0  0  0  0  # atno 17320 bound_to 7965
  146.3092  140.3733  142.8676 LP  0  0  0  0  0  0  0  0  0  0  0  0  # atno 17321 bound_to 7965
  140.1619  144.5017  150.6627 LP  0  0  0  0  0  0  0  0  0  0  0  0  # atno 17342 bound_to 10162
  140.6764  143.2307  151.5495 LP  0  0  0  0  0  0  0  0  0  0  0  0  # atno 17343 bound_to 10162
  157.6379  131.0914  150.8311 LP  0  0  0  0  0  0  0  0  0  0  0  0  # atno 17370 bound_to 10713
  156.8409  130.5048  149.5321 LP  0  0  0  0  0  0  0  0  0  0  0  0  # atno 17371 bound_to 10713
  140.9700  133.7333  156.0522 LP  0  0  0  0  0  0  0  0  0  0  0  0  # atno 17394 bound_to 11000
  140.7882  134.3648  157.5471 LP  0  0  0  0  0  0  0  0  0  0  0  0  # atno 17395 bound_to 11000

$$$$
