AV-unprocessed.smi:1419|AV-procd|sdf|5780|dock9
  -GOLD-   22720 5423D 1   1.00000     0.00000
 Structure written by MMmdl.
 41 42  0  0  0  0  0  0  0  0  1 V2000
  150.7219  139.3475  156.4470 C   0  0  0  0  0  0  0  0  0  0  0  0
  150.3960  140.8220  156.7194 C   0  0  2  0  0  0  0  0  0  0  0  0
  150.1640  141.6000  155.4065 C   0  0  0  0  0  0  0  0  0  0  0  0
  148.9345  141.2151  154.7365 N   0  0  0  0  0  0  0  0  0  0  0  0
  148.0599  142.0480  154.0508 C   0  0  0  0  0  0  0  0  0  0  0  0
  147.0303  141.2527  153.6013 C   0  0  0  0  0  0  0  0  0  0  0  0
  147.2538  139.9338  153.9889 N   0  0  0  0  0  0  0  0  0  0  0  0
  148.4010  139.9885  154.6535 C   0  0  0  0  0  0  0  0  0  0  0  0
  151.4899  141.4220  157.4827 N   0  0  0  0  0  0  0  0  0  0  0  0
  151.9570  140.9853  158.6659 C   0  0  0  0  0  0  0  0  0  0  0  0
  151.5672  139.9366  159.1811 O   0  0  0  0  0  0  0  0  0  0  0  0
  152.8877  141.7889  159.2366 N   0  0  0  0  0  0  0  0  0  0  0  0
  153.2461  143.1487  158.8116 C   0  0  0  0  0  0  0  0  0  0  0  0
  152.5929  144.1412  159.7951 C   0  0  2  0  0  0  0  0  0  0  0  0
  152.9442  145.5966  159.4704 C   0  0  0  0  0  0  0  0  0  0  0  0
  153.0499  143.8564  161.1174 O   0  0  0  0  0  0  0  0  0  0  0  0
  152.7720  142.5248  161.5517 C   0  0  2  0  0  0  0  0  0  0  0  0
  153.2989  142.3658  162.9816 C   0  0  0  0  0  0  0  0  0  0  0  0
  153.4279  141.5297  160.5726 C   0  0  0  0  0  0  0  0  0  0  0  0
  149.9112  138.8616  155.9034 H   0  0  0  0  0  0  0  0  0  0  0  0
  150.8684  138.7987  157.3780 H   0  0  0  0  0  0  0  0  0  0  0  0
  151.6301  139.2437  155.8521 H   0  0  0  0  0  0  0  0  0  0  0  0
  149.4746  140.8450  157.3039 H   0  0  0  0  0  0  0  0  0  0  0  0
  150.1339  142.6734  155.5996 H   0  0  0  0  0  0  0  0  0  0  0  0
  150.9919  141.4294  154.7170 H   0  0  0  0  0  0  0  0  0  0  0  0
  148.2330  143.1092  153.9490 H   0  0  0  0  0  0  0  0  0  0  0  0
  146.1537  141.5259  153.0329 H   0  0  0  0  0  0  0  0  0  0  0  0
  148.8586  139.1178  155.0998 H   0  0  0  0  0  0  0  0  0  0  0  0
  151.8779  142.2791  157.1169 H   0  0  0  0  0  0  0  0  0  0  0  0
  154.3318  143.2565  158.8329 H   0  0  0  0  0  0  0  0  0  0  0  0
  152.9504  143.3836  157.7892 H   0  0  0  0  0  0  0  0  0  0  0  0
  151.5078  144.0296  159.7641 H   0  0  0  0  0  0  0  0  0  0  0  0
  152.6025  145.8699  158.4719 H   0  0  0  0  0  0  0  0  0  0  0  0
  154.0214  145.7608  159.5132 H   0  0  0  0  0  0  0  0  0  0  0  0
  152.4747  146.2779  160.1804 H   0  0  0  0  0  0  0  0  0  0  0  0
  151.6907  142.3736  161.5599 H   0  0  0  0  0  0  0  0  0  0  0  0
  153.0981  141.3646  163.3636 H   0  0  0  0  0  0  0  0  0  0  0  0
  152.8220  143.0795  163.6535 H   0  0  0  0  0  0  0  0  0  0  0  0
  154.3754  142.5327  163.0269 H   0  0  0  0  0  0  0  0  0  0  0  0
  153.2566  140.5040  160.9027 H   0  0  0  0  0  0  0  0  0  0  0  0
  154.5109  141.6624  160.5606 H   0  0  0  0  0  0  0  0  0  0  0  0
  1  2  1  0  0  0  0
  1 20  1  0  0  0  0
  1 21  1  0  0  0  0
  1 22  1  0  0  0  0
  2  3  1  0  0  0  0
  2  9  1  0  0  0  0
  2 23  1  0  0  0  0
  3  4  1  0  0  0  0
  3 24  1  0  0  0  0
  3 25  1  0  0  0  0
  4  8  1  0  0  0  0
  4  5  1  0  0  0  0
  5  6  2  0  0  0  0
  5 26  1  0  0  0  0
  6  7  1  0  0  0  0
  6 27  1  0  0  0  0
  7  8  2  0  0  0  0
  8 28  1  0  0  0  0
  9 10  1  0  0  0  0
  9 29  1  0  0  0  0
 10 11  2  0  0  0  0
 10 12  1  0  0  0  0
 12 19  1  0  0  0  0
 12 13  1  0  0  0  0
 13 14  1  0  0  0  0
 13 30  1  0  0  0  0
 13 31  1  0  0  0  0
 14 15  1  0  0  0  0
 14 16  1  0  0  0  0
 14 32  1  0  0  0  0
 15 33  1  0  0  0  0
 15 34  1  0  0  0  0
 15 35  1  0  0  0  0
 16 17  1  0  0  0  0
 17 18  1  0  0  0  0
 17 19  1  0  0  0  0
 17 36  1  0  0  0  0
 18 37  1  0  0  0  0
 18 38  1  0  0  0  0
 18 39  1  0  0  0  0
 19 40  1  0  0  0  0
 19 41  1  0  0  0  0
M  END
> <s_m_source_file>
AV-unprocessed.smi

> <i_m_source_file_index>
1419

> <i_lp_mmshare_version>
43012

> <i_f3d_flags>
0

> <s_epik_input>
W2NIXTFuW2NIXVtjSF1uMVtDSDJdW0NAQEhdKFtDSDNdKVtOSF1DKD1PKU4yW0NIMl1bQ0BASF0oW0NIM10pT1tDQEBIXShbQ0gzXSlbQ0gyXTI=

> <s_epik_cmdline>
J2VwaWtfcHl0aG9uJywgJy1waCcsICc3LjAnLCAnLXRuJywgJzgnLCAnLW1hJywgJzIwMCcsICctbWV0YWxfYmluZGluZycsICctaW1hZScsICc8aW5maWxlLm1hZT4nLCAnLW9tYWUnLCAnPG91dGZpbGUubWFlPic=

> <r_lp_tautomer_probability>
1

> <r_epik_Ionization_Penalty>
0.625124

> <r_epik_Ionization_Penalty_Charging>
0.625093

> <r_epik_Ionization_Penalty_Neutral>
3.17415e-05

> <r_epik_State_Penalty>
0.641455

> <r_epik_Charging_Adjusted_Penalty>
1.26655

> <i_epik_Tot_Q>
0

> <i_epik_Tot_abs_Q>
0

> <r_epik_Metal_State_Penalty>
0.307717

> <b_epik_Metal_Only>
0

> <s_lp_Force_Field>
OPLS_2005

> <r_lp_Energy>
27.7679

> <b_lp_Chiralities_Consistent>
1

> <s_lp_Variant>
AV-unprocessed.smi:1419-7

> <Gold.Version>
5.8.1

> <Gold.Id.Protein>
6NUR|6NUR_protein|mol2

> <Gold.PLP.Fitness>
51.2998

> <Gold.PLP.PLP>
-46.0592

> <Gold.PLP.part.hbond>
0.0000

> <Gold.PLP.part.metal>
0.0000

> <Gold.PLP.part.buried>
-1.6294

> <Gold.PLP.part.nonpolar>
-44.8446

> <Gold.PLP.part.repulsive>
0.3730

> <Gold.PLP.ligand.clash>
0.0000

> <Gold.PLP.ligand.torsion>
0.4145

> <Gold.PLP.Chemscore.Hbond>
0.0000

> <Gold.PLP.Chemscore.CHOScore>
1.9968

> <Gold.PLP.Chemscore.Metal>
0.0000

> <Gold.Chemscore.Hbonds>
donor molecule, donor type, donor heavy atom, donor atom, acceptor molecule, acceptor atom, score
      L1  C     5    26       P1  8028  1.00
      L1  C     6    27       P1 10175  0.34

> <Gold.PLP.Chemscore.Internal.Correction>
0.0792

> <Gold.Rescore>
     Score         DG    S(hbond)    S(metal)    S(lipo)     H(rot)  DE(clash)    DE(int)     intcor
     13.27     -13.91       0.00        0.00     106.57       1.58       0.34       0.31       ----

> <Gold.Chemscore.Fitness>
13.2700

> <Gold.Chemscore.DG>
-13.9115

> <Gold.Chemscore.ZeroCoef>
-5.4800

> <Gold.Chemscore.Hbond>
0.0000

> <Gold.Chemscore.Metal>
0.0000

> <Gold.Chemscore.Lipo>
106.5674

> <Gold.Chemscore.Internal_Hbond>
0.0000

> <Gold.Chemscore.DEClash>
0.3362

> <Gold.Chemscore.DEInternal>
0.3053

> <Gold.Chemscore.Rot>
1.5769

> <Gold.Chemscore.Internal.Correction>
   9.000000E+99

> <Gold.Chemscore.Hbond.Weighted>
-0.0000

> <Gold.Chemscore.Metal.Weighted>
-0.0000

> <Gold.Chemscore.Lipo.Weighted>
-12.4684

> <Gold.Chemscore.Internal_Hbond.Weighted>
0.0000

> <Gold.Chemscore.DEClash.Weighted>
0.3362

> <Gold.Chemscore.DEInternal.Weighted>
0.3053

> <Gold.Chemscore.Rot.Weighted>
4.0369

> <Gold.Chemscore.Internal.Correction.Weighted>
   9.000000E+99

> <Gold.Protein.RotatedTorsions>
[ 6907 6896 6895 6894 ] final -144.39 input  -60.11 | X-H torsion
[ 7974 7965 7964 7962 ] final  -55.37 input  175.53 | X-H torsion
[ 8008 7997 7996 7995 ] final   92.82 input   59.86 | X-H torsion
[ 10167 10162 10161 10158 ] final -117.39 input  -65.29 | X-H torsion
[ 10718 10713 10712 10709 ] final  -97.47 input   66.30 | X-H torsion
[ 10763 10752 10751 10750 ] final -110.70 input  -60.55 | X-H torsion
[ 11005 11000 10999 10996 ] final   80.19 input  -57.11 | X-H torsion

> <Gold.Protein.ActiveResidues>
 VAL166  LYS551  ARG553  GLY616  TRP617  ASP618  TYR619  PRO620  LYS621  CYS622 
 ASP623  PHE694  ASN695  SER759  ASP760  ASP761  ALA762  ILE779  LEU786  VAL792 
 PHE793  MET794  SER795  GLU796  ALA797  LYS798  CYS799  TRP800  GLU811  SER814 

> <Gold.Protein.RotatedAtoms>
  151.1134  133.5156  159.2604 H   0  0  0  0  0  0  0  0  0  0  0  0  # atno 6907 bound_to 6896
  151.1942  135.0415  159.8855 H   0  0  0  0  0  0  0  0  0  0  0  0  # atno 6908 bound_to 6896
  152.5451  134.0971  159.8355 H   0  0  0  0  0  0  0  0  0  0  0  0  # atno 6909 bound_to 6896
  145.8749  140.8188  142.9869 H   0  0  0  0  0  0  0  0  0  0  0  0  # atno 7974 bound_to 7965
  156.0398  140.3320  155.7231 H   0  0  0  0  0  0  0  0  0  0  0  0  # atno 8008 bound_to 7997
  155.5762  140.0632  157.2812 H   0  0  0  0  0  0  0  0  0  0  0  0  # atno 8009 bound_to 7997
  154.4388  140.1852  156.0918 H   0  0  0  0  0  0  0  0  0  0  0  0  # atno 8010 bound_to 7997
  140.0689  143.4896  152.1991 H   0  0  0  0  0  0  0  0  0  0  0  0  # atno 10167 bound_to 10162
  156.0084  130.5196  150.6379 H   0  0  0  0  0  0  0  0  0  0  0  0  # atno 10718 bound_to 10713
  154.8262  135.4554  154.0925 H   0  0  0  0  0  0  0  0  0  0  0  0  # atno 10763 bound_to 10752
  153.2237  135.6897  153.7976 H   0  0  0  0  0  0  0  0  0  0  0  0  # atno 10764 bound_to 10752
  153.7384  135.3316  155.3276 H   0  0  0  0  0  0  0  0  0  0  0  0  # atno 10765 bound_to 10752
  139.9144  134.7901  156.1877 H   0  0  0  0  0  0  0  0  0  0  0  0  # atno 11005 bound_to 11000
  144.6726  140.1295  143.7444 LP  0  0  0  0  0  0  0  0  0  0  0  0  # atno 17320 bound_to 7965
  145.9093  139.2477  143.1447 LP  0  0  0  0  0  0  0  0  0  0  0  0  # atno 17321 bound_to 7965
  139.5848  144.7526  151.3548 LP  0  0  0  0  0  0  0  0  0  0  0  0  # atno 17342 bound_to 10162
  140.7135  143.7327  150.7611 LP  0  0  0  0  0  0  0  0  0  0  0  0  # atno 17343 bound_to 10162
  157.4165  131.0831  151.1172 LP  0  0  0  0  0  0  0  0  0  0  0  0  # atno 17370 bound_to 10713
  157.1787  130.6299  149.5664 LP  0  0  0  0  0  0  0  0  0  0  0  0  # atno 17371 bound_to 10713
  141.0603  133.6845  156.1939 LP  0  0  0  0  0  0  0  0  0  0  0  0  # atno 17394 bound_to 11000
  140.6672  134.4906  157.5586 LP  0  0  0  0  0  0  0  0  0  0  0  0  # atno 17395 bound_to 11000

$$$$
