AV-unprocessed.smi:10|AV-procd|sdf|54|dock1
  -GOLD-   2262015173D 1   1.00000     0.00000
 Structure written by MMmdl.
 34 36  0  0  0  0  0  0  0  0  1 V2000
  152.1370  144.6800  160.6929 C   0  0  0  0  0  0  0  0  0  0  0  0
  152.4594  143.3939  160.1102 N   0  0  0  0  0  0  0  0  0  0  0  0
  153.3823  142.5112  160.5364 C   0  0  0  0  0  0  0  0  0  0  0  0
  153.4762  141.3975  159.8119 N   0  0  0  0  0  0  0  0  0  0  0  0
  152.5146  141.6010  158.8285 C   0  0  0  0  0  0  0  0  0  0  0  0
  152.1009  140.7456  157.6926 C   0  0  0  0  0  0  0  0  0  0  0  0
  152.6080  139.6444  157.4772 O   0  0  0  0  0  0  0  0  0  0  0  0
  151.1149  141.3069  156.9307 N   0  0  0  0  0  0  0  0  0  0  0  0
  150.5836  140.6083  155.7500 C   0  0  0  0  0  0  0  0  0  0  0  0
  149.5236  141.4455  155.0015 C   0  0  1  0  0  0  0  0  0  0  0  0
  149.5576  141.0869  153.6336 O   0  0  0  0  0  0  0  0  0  0  0  0
  148.1125  141.1935  155.5419 C   0  0  0  0  0  0  0  0  0  0  0  0
  146.9018  141.9702  154.9993 C   0  0  0  0  0  0  0  0  0  0  0  0
  146.2849  141.8883  156.3998 C   0  0  0  0  0  0  0  0  0  0  0  0
  147.6985  141.6616  156.9468 C   0  0  0  0  0  0  0  0  0  0  0  0
  150.5408  142.5794  157.2288 C   0  0  0  0  0  0  0  0  0  0  0  0
  150.8840  143.3554  158.2239 N   0  0  0  0  0  0  0  0  0  0  0  0
  151.8858  142.8038  158.9907 C   0  0  0  0  0  0  0  0  0  0  0  0
  152.7218  144.8419  161.5989 H   0  0  0  0  0  0  0  0  0  0  0  0
  151.0766  144.7142  160.9439 H   0  0  0  0  0  0  0  0  0  0  0  0
  152.3619  145.4723  159.9787 H   0  0  0  0  0  0  0  0  0  0  0  0
  154.0038  142.6900  161.4016 H   0  0  0  0  0  0  0  0  0  0  0  0
  151.3765  140.2941  155.0677 H   0  0  0  0  0  0  0  0  0  0  0  0
  150.1325  139.6717  156.0835 H   0  0  0  0  0  0  0  0  0  0  0  0
  149.7505  142.5093  155.0823 H   0  0  0  0  0  0  0  0  0  0  0  0
  149.0160  140.3221  153.5117 H   0  0  0  0  0  0  0  0  0  0  0  0
  147.8819  140.1281  155.4701 H   0  0  0  0  0  0  0  0  0  0  0  0
  147.1414  142.9935  154.7062 H   0  0  0  0  0  0  0  0  0  0  0  0
  146.3404  141.4519  154.2213 H   0  0  0  0  0  0  0  0  0  0  0  0
  145.8045  142.8055  156.7413 H   0  0  0  0  0  0  0  0  0  0  0  0
  145.6373  141.0193  156.5265 H   0  0  0  0  0  0  0  0  0  0  0  0
  147.7703  140.8967  157.7205 H   0  0  0  0  0  0  0  0  0  0  0  0
  148.1782  142.5909  157.2574 H   0  0  0  0  0  0  0  0  0  0  0  0
  149.7519  142.8766  156.5356 H   0  0  0  0  0  0  0  0  0  0  0  0
  1  2  1  0  0  0  0
  1 19  1  0  0  0  0
  1 20  1  0  0  0  0
  1 21  1  0  0  0  0
  2 18  1  0  0  0  0
  2  3  1  0  0  0  0
  3  4  2  0  0  0  0
  3 22  1  0  0  0  0
  4  5  1  0  0  0  0
  5 18  2  0  0  0  0
  5  6  1  0  0  0  0
  6  7  2  0  0  0  0
  6  8  1  0  0  0  0
  8  9  1  0  0  0  0
  8 16  1  0  0  0  0
  9 10  1  0  0  0  0
  9 23  1  0  0  0  0
  9 24  1  0  0  0  0
 10 11  1  0  0  0  0
 10 12  1  0  0  0  0
 10 25  1  0  0  0  0
 11 26  1  0  0  0  0
 12 15  1  0  0  0  0
 12 13  1  0  0  0  0
 12 27  1  0  0  0  0
 13 14  1  0  0  0  0
 13 28  1  0  0  0  0
 13 29  1  0  0  0  0
 14 15  1  0  0  0  0
 14 30  1  0  0  0  0
 14 31  1  0  0  0  0
 15 32  1  0  0  0  0
 15 33  1  0  0  0  0
 16 17  2  0  0  0  0
 16 34  1  0  0  0  0
 17 18  1  0  0  0  0
M  END
> <s_m_source_file>
AV-unprocessed.smi

> <i_m_source_file_index>
10

> <i_lp_mmshare_version>
43012

> <i_f3d_flags>
0

> <s_epik_input>
bjFbY0hdbihbQ0gzXSljKGMxMiluW2NIXW4oYzI9TylbQ0gyXVtDQEhdKFtPSF0pW0NIXTNbQ0gyXVtDSDJdW0NIMl0z

> <s_epik_cmdline>
J2VwaWtfcHl0aG9uJywgJy1waCcsICc3LjAnLCAnLXRuJywgJzgnLCAnLW1hJywgJzIwMCcsICctbWV0YWxfYmluZGluZycsICctaW1hZScsICc8aW5maWxlLm1hZT4nLCAnLW9tYWUnLCAnPG91dGZpbGUubWFlPic=

> <r_lp_tautomer_probability>
1

> <r_epik_Ionization_Penalty>
0.0003743

> <r_epik_Ionization_Penalty_Charging>
2.98177e-12

> <r_epik_Ionization_Penalty_Neutral>
0.000374299

> <r_epik_State_Penalty>
0.000224514

> <r_epik_Charging_Adjusted_Penalty>
0.000224514

> <i_epik_Tot_Q>
0

> <i_epik_Tot_abs_Q>
0

> <r_epik_Metal_State_Penalty>
-0

> <b_epik_Metal_Only>
0

> <s_lp_Force_Field>
OPLS_2005

> <r_lp_Energy>
33.6231

> <b_lp_Chiralities_Consistent>
1

> <s_lp_Variant>
AV-unprocessed.smi:10-2

> <Gold.Version>
5.8.1

> <Gold.Id.Protein>
6NUR|6NUR_protein|mol2

> <Gold.PLP.Fitness>
44.9270

> <Gold.PLP.PLP>
-37.7963

> <Gold.PLP.part.hbond>
-4.0000

> <Gold.PLP.part.metal>
0.0000

> <Gold.PLP.part.buried>
-4.2390

> <Gold.PLP.part.nonpolar>
-29.4840

> <Gold.PLP.part.repulsive>
0.1285

> <Gold.PLP.ligand.clash>
1.8600

> <Gold.PLP.ligand.torsion>
0.4068

> <Gold.PLP.Chemscore.Hbond>
2.2368

> <Gold.PLP.Chemscore.CHOScore>
1.0000

> <Gold.PLP.Chemscore.Metal>
0.0000

> <Gold.Chemscore.Hbonds>
donor molecule, donor type, donor heavy atom, donor atom, acceptor molecule, acceptor atom, score
      P1  H  7989  7998       L1    11  0.23
      P1  H  7997  8010       L1     7  1.00
      P1  H  8011  8017       L1    11  0.99
      L1  C    16    34       P1  8028  1.00

> <Gold.PLP.Chemscore.Internal.Correction>
0.0939

> <Gold.Rescore>
     Score         DG    S(hbond)    S(metal)    S(lipo)     H(rot)  DE(clash)    DE(int)     intcor
     10.67     -11.30       1.77        0.00      49.12       2.28       0.11       0.52       ----

> <Gold.Chemscore.Fitness>
10.6705

> <Gold.Chemscore.DG>
-11.3044

> <Gold.Chemscore.ZeroCoef>
-5.4800

> <Gold.Chemscore.Hbond>
1.7725

> <Gold.Chemscore.Metal>
0.0000

> <Gold.Chemscore.Lipo>
49.1218

> <Gold.Chemscore.Internal_Hbond>
0.0000

> <Gold.Chemscore.DEClash>
0.1125

> <Gold.Chemscore.DEInternal>
0.5214

> <Gold.Chemscore.Rot>
2.2824

> <Gold.Chemscore.Internal.Correction>
   9.000000E+99

> <Gold.Chemscore.Hbonds>
donor molecule, donor type, donor heavy atom, donor atom, acceptor molecule, acceptor atom, score
      P1  H  7989  7998       L1    11  0.04
      P1  H  7997  8010       L1     7  0.43
      P1  H  8011  8017       L1    11  0.91

> <Gold.Chemscore.Hbond.Weighted>
-5.9202

> <Gold.Chemscore.Metal.Weighted>
-0.0000

> <Gold.Chemscore.Lipo.Weighted>
-5.7472

> <Gold.Chemscore.Internal_Hbond.Weighted>
0.0000

> <Gold.Chemscore.DEClash.Weighted>
0.1125

> <Gold.Chemscore.DEInternal.Weighted>
0.5214

> <Gold.Chemscore.Rot.Weighted>
5.8431

> <Gold.Chemscore.Internal.Correction.Weighted>
   9.000000E+99

> <Gold.Protein.RotatedTorsions>
[ 6907 6896 6895 6894 ] final -122.49 input  -60.11 | X-H torsion
[ 7974 7965 7964 7962 ] final  -37.91 input  175.53 | X-H torsion
[ 8008 7997 7996 7995 ] final   54.10 input   59.86 | X-H torsion
[ 10167 10162 10161 10158 ] final   41.13 input  -65.29 | X-H torsion
[ 10718 10713 10712 10709 ] final   35.43 input   66.30 | X-H torsion
[ 10763 10752 10751 10750 ] final  145.63 input  -60.55 | X-H torsion
[ 11005 11000 10999 10996 ] final   16.26 input  -57.11 | X-H torsion

> <Gold.Protein.ActiveResidues>
 VAL166  LYS551  ARG553  GLY616  TRP617  ASP618  TYR619  PRO620  LYS621  CYS622 
 ASP623  PHE694  ASN695  SER759  ASP760  ASP761  ALA762  ILE779  LEU786  VAL792 
 PHE793  MET794  SER795  GLU796  ALA797  LYS798  CYS799  TRP800  GLU811  SER814 

> <Gold.Protein.RotatedAtoms>
  150.8581  133.7685  159.3001 H   0  0  0  0  0  0  0  0  0  0  0  0  # atno 6907 bound_to 6896
  151.5336  135.1067  159.9918 H   0  0  0  0  0  0  0  0  0  0  0  0  # atno 6908 bound_to 6896
  152.4605  133.7768  159.6885 H   0  0  0  0  0  0  0  0  0  0  0  0  # atno 6909 bound_to 6896
  146.0533  140.6451  142.9032 H   0  0  0  0  0  0  0  0  0  0  0  0  # atno 7974 bound_to 7965
  155.4791  140.3468  155.4337 H   0  0  0  0  0  0  0  0  0  0  0  0  # atno 8008 bound_to 7997
  156.1051  140.1446  156.9444 H   0  0  0  0  0  0  0  0  0  0  0  0  # atno 8009 bound_to 7997
  154.4719  140.0898  156.7143 H   0  0  0  0  0  0  0  0  0  0  0  0  # atno 8010 bound_to 7997
  140.3673  144.2150  150.6135 H   0  0  0  0  0  0  0  0  0  0  0  0  # atno 10167 bound_to 10162
  157.3226  130.7456  149.6794 H   0  0  0  0  0  0  0  0  0  0  0  0  # atno 10718 bound_to 10713
  154.0085  135.2916  155.3395 H   0  0  0  0  0  0  0  0  0  0  0  0  # atno 10763 bound_to 10752
  154.7117  135.5146  153.8680 H   0  0  0  0  0  0  0  0  0  0  0  0  # atno 10764 bound_to 10752
  153.0734  135.6655  154.0319 H   0  0  0  0  0  0  0  0  0  0  0  0  # atno 10765 bound_to 10752
  140.4491  134.1242  155.7700 H   0  0  0  0  0  0  0  0  0  0  0  0  # atno 11005 bound_to 11000
  144.7134  140.4122  143.7063 LP  0  0  0  0  0  0  0  0  0  0  0  0  # atno 17320 bound_to 7965
  145.6687  139.1595  143.2767 LP  0  0  0  0  0  0  0  0  0  0  0  0  # atno 17321 bound_to 7965
  140.5068  143.2302  151.8596 LP  0  0  0  0  0  0  0  0  0  0  0  0  # atno 17342 bound_to 10162
  139.4807  144.4996  151.9078 LP  0  0  0  0  0  0  0  0  0  0  0  0  # atno 17343 bound_to 10162
  155.9687  130.4219  150.4490 LP  0  0  0  0  0  0  0  0  0  0  0  0  # atno 17370 bound_to 10713
  157.2508  131.0546  151.2380 LP  0  0  0  0  0  0  0  0  0  0  0  0  # atno 17371 bound_to 10713
  141.1672  133.8680  157.1680 LP  0  0  0  0  0  0  0  0  0  0  0  0  # atno 17394 bound_to 11000
  140.0018  135.0024  157.0207 LP  0  0  0  0  0  0  0  0  0  0  0  0  # atno 17395 bound_to 11000

$$$$
