AV-unprocessed.smi:2702|AV-procd|sdf|10437|dock7
  -GOLD-   2272014473D 1   1.00000     0.00000
 Structure written by MMmdl.
 47 48  0  0  0  0  0  0  0  0  1 V2000
  145.5276  136.2382  154.2891 C   0  0  0  0  0  0  0  0  0  0  0  0
  146.5752  137.1498  154.5695 O   0  0  0  0  0  0  0  0  0  0  0  0
  146.4934  138.3283  153.7857 C   0  0  0  0  0  0  0  0  0  0  0  0
  147.5085  139.3516  154.2537 C   0  0  0  0  0  0  0  0  0  0  0  0
  148.8309  139.0717  154.3230 C   0  0  0  0  0  0  0  0  0  0  0  0
  149.7832  140.0792  154.7902 C   0  0  0  0  0  0  0  0  0  0  0  0
  150.9933  139.8641  154.8650 O   0  0  0  0  0  0  0  0  0  0  0  0
  149.2278  141.2769  155.1407 N   0  0  0  0  0  0  0  0  0  0  0  0
  150.0591  142.3889  155.6372 C   0  0  0  0  0  0  0  0  0  0  0  0
  150.3772  142.2883  157.1363 C   0  0  0  0  0  0  0  0  0  0  0  0
  149.6363  142.8039  157.9743 O   0  0  0  0  0  0  0  0  0  0  0  0
  151.4823  141.5983  157.4552 N   0  0  0  0  0  0  0  0  0  0  0  0
  151.9914  141.3888  158.8090 C   0  0  1  0  0  0  0  0  0  0  0  0
  152.7998  140.0760  158.8611 C   0  0  0  0  0  0  0  0  0  0  0  0
  153.4282  139.8455  160.2422 C   0  0  0  0  0  0  0  0  0  0  0  0
  154.2901  141.0449  160.6663 C   0  0  0  0  0  0  0  0  0  0  0  0
  153.4983  142.3681  160.6469 C   0  0  2  0  0  0  0  0  0  0  0  0
  152.5013  142.4511  161.8209 C   0  0  0  0  0  0  0  0  0  0  0  0
  152.8579  142.5966  159.2512 C   0  0  2  0  0  0  0  0  0  0  0  0
  152.1069  143.9404  159.1623 C   0  0  0  0  0  0  0  0  0  0  0  0
  147.8423  141.5164  155.0459 C   0  0  0  0  0  0  0  0  0  0  0  0
  147.0196  140.6067  154.6301 N   0  0  0  0  0  0  0  0  0  0  0  0
  145.6345  135.3534  154.9164 H   0  0  0  0  0  0  0  0  0  0  0  0
  145.5526  135.9165  153.2472 H   0  0  0  0  0  0  0  0  0  0  0  0
  144.5526  136.6815  154.4957 H   0  0  0  0  0  0  0  0  0  0  0  0
  146.6881  138.0964  152.7374 H   0  0  0  0  0  0  0  0  0  0  0  0
  145.4873  138.7468  153.8437 H   0  0  0  0  0  0  0  0  0  0  0  0
  149.1955  138.0971  154.0324 H   0  0  0  0  0  0  0  0  0  0  0  0
  151.0041  142.4571  155.0957 H   0  0  0  0  0  0  0  0  0  0  0  0
  149.5538  143.3365  155.4402 H   0  0  0  0  0  0  0  0  0  0  0  0
  152.0263  141.2044  156.7014 H   0  0  0  0  0  0  0  0  0  0  0  0
  151.1436  141.3066  159.4915 H   0  0  0  0  0  0  0  0  0  0  0  0
  152.1607  139.2295  158.6080 H   0  0  0  0  0  0  0  0  0  0  0  0
  153.5891  140.1005  158.1084 H   0  0  0  0  0  0  0  0  0  0  0  0
  152.6437  139.6682  160.9781 H   0  0  0  0  0  0  0  0  0  0  0  0
  154.0380  138.9420  160.2235 H   0  0  0  0  0  0  0  0  0  0  0  0
  154.7108  140.8697  161.6570 H   0  0  0  0  0  0  0  0  0  0  0  0
  155.1412  141.1267  159.9890 H   0  0  0  0  0  0  0  0  0  0  0  0
  154.2229  143.1678  160.8067 H   0  0  0  0  0  0  0  0  0  0  0  0
  151.6937  141.7258  161.7284 H   0  0  0  0  0  0  0  0  0  0  0  0
  152.0508  143.4408  161.8942 H   0  0  0  0  0  0  0  0  0  0  0  0
  153.0036  142.2623  162.7698 H   0  0  0  0  0  0  0  0  0  0  0  0
  153.6860  142.6675  158.5437 H   0  0  0  0  0  0  0  0  0  0  0  0
  151.1852  143.9251  159.7445 H   0  0  0  0  0  0  0  0  0  0  0  0
  151.8379  144.1816  158.1337 H   0  0  0  0  0  0  0  0  0  0  0  0
  152.7238  144.7595  159.5323 H   0  0  0  0  0  0  0  0  0  0  0  0
  147.5164  142.5147  155.3425 H   0  0  0  0  0  0  0  0  0  0  0  0
  1  2  1  0  0  0  0
  1 23  1  0  0  0  0
  1 24  1  0  0  0  0
  1 25  1  0  0  0  0
  2  3  1  0  0  0  0
  3  4  1  0  0  0  0
  3 26  1  0  0  0  0
  3 27  1  0  0  0  0
  4 22  1  0  0  0  0
  4  5  2  0  0  0  0
  5  6  1  0  0  0  0
  5 28  1  0  0  0  0
  6  7  2  0  0  0  0
  6  8  1  0  0  0  0
  8  9  1  0  0  0  0
  8 21  1  0  0  0  0
  9 10  1  0  0  0  0
  9 29  1  0  0  0  0
  9 30  1  0  0  0  0
 10 11  2  0  0  0  0
 10 12  1  0  0  0  0
 12 13  1  0  0  0  0
 12 31  1  0  0  0  0
 13 19  1  0  0  0  0
 13 14  1  0  0  0  0
 13 32  1  0  0  0  0
 14 15  1  0  0  0  0
 14 33  1  0  0  0  0
 14 34  1  0  0  0  0
 15 16  1  0  0  0  0
 15 35  1  0  0  0  0
 15 36  1  0  0  0  0
 16 17  1  0  0  0  0
 16 37  1  0  0  0  0
 16 38  1  0  0  0  0
 17 18  1  0  0  0  0
 17 19  1  0  0  0  0
 17 39  1  0  0  0  0
 18 40  1  0  0  0  0
 18 41  1  0  0  0  0
 18 42  1  0  0  0  0
 19 20  1  0  0  0  0
 19 43  1  0  0  0  0
 20 44  1  0  0  0  0
 20 45  1  0  0  0  0
 20 46  1  0  0  0  0
 21 22  2  0  0  0  0
 21 47  1  0  0  0  0
M  END
> <s_m_source_file>
AV-unprocessed.smi

> <i_m_source_file_index>
2702

> <i_lp_mmshare_version>
43012

> <i_f3d_flags>
0

> <s_epik_input>
W0NIM11PW0NIMl1jMVtjSF1jKD1PKW4oW2NIXW4xKVtDSDJdQyg9TylbTkhdW0NAQEhdMltDSDJdW0NIMl1bQ0gyXVtDQEBIXShbQ0gzXSlbQ0BIXTJbQ0gzXQ==

> <s_epik_cmdline>
J2VwaWtfcHl0aG9uJywgJy1waCcsICc3LjAnLCAnLXRuJywgJzgnLCAnLW1hJywgJzIwMCcsICctbWV0YWxfYmluZGluZycsICctaW1hZScsICc8aW5maWxlLm1hZT4nLCAnLW9tYWUnLCAnPG91dGZpbGUubWFlPic=

> <r_lp_tautomer_probability>
1

> <r_epik_Ionization_Penalty>
1.22164e-06

> <r_epik_Ionization_Penalty_Charging>
3.17988e-07

> <r_epik_Ionization_Penalty_Neutral>
9.03656e-07

> <r_epik_State_Penalty>
-0

> <r_epik_Charging_Adjusted_Penalty>
3.17988e-07

> <i_epik_Tot_Q>
0

> <i_epik_Tot_abs_Q>
0

> <r_epik_Metal_State_Penalty>
-0

> <b_epik_Metal_Only>
0

> <s_lp_Force_Field>
OPLS_2005

> <r_lp_Energy>
19.2685

> <b_lp_Chiralities_Consistent>
1

> <s_lp_Variant>
AV-unprocessed.smi:2702-8

> <Gold.Version>
5.8.1

> <Gold.Id.Protein>
6NUR|6NUR_protein|mol2

> <Gold.PLP.Fitness>
41.6438

> <Gold.PLP.PLP>
-37.7778

> <Gold.PLP.part.hbond>
-1.0000

> <Gold.PLP.part.metal>
0.0000

> <Gold.PLP.part.buried>
-0.9241

> <Gold.PLP.part.nonpolar>
-37.0553

> <Gold.PLP.part.repulsive>
0.9171

> <Gold.PLP.ligand.clash>
0.0000

> <Gold.PLP.ligand.torsion>
1.0838

> <Gold.PLP.Chemscore.Hbond>
1.0000

> <Gold.PLP.Chemscore.CHOScore>
1.0000

> <Gold.PLP.Chemscore.Metal>
0.0000

> <Gold.Chemscore.Hbonds>
donor molecule, donor type, donor heavy atom, donor atom, acceptor molecule, acceptor atom, score
      P1  H  7989  7998       L1     7  1.00
      L1  C    21    47       P1  8028  0.86

> <Gold.PLP.Chemscore.Internal.Correction>
0.0336

> <Gold.Rescore>
     Score         DG    S(hbond)    S(metal)    S(lipo)     H(rot)  DE(clash)    DE(int)     intcor
     12.85     -15.69       0.98        0.00     101.49       1.93       1.70       1.13       ----

> <Gold.Chemscore.Fitness>
12.8486

> <Gold.Chemscore.DG>
-15.6858

> <Gold.Chemscore.ZeroCoef>
-5.4800

> <Gold.Chemscore.Hbond>
0.9786

> <Gold.Chemscore.Metal>
0.0000

> <Gold.Chemscore.Lipo>
101.4880

> <Gold.Chemscore.Internal_Hbond>
0.0000

> <Gold.Chemscore.DEClash>
1.7050

> <Gold.Chemscore.DEInternal>
1.1322

> <Gold.Chemscore.Rot>
1.9284

> <Gold.Chemscore.Internal.Correction>
   9.000000E+99

> <Gold.Chemscore.Hbonds>
donor molecule, donor type, donor heavy atom, donor atom, acceptor molecule, acceptor atom, score
      P1  H  7989  7998       L1     7  0.35

> <Gold.Chemscore.Hbond.Weighted>
-3.2685

> <Gold.Chemscore.Metal.Weighted>
-0.0000

> <Gold.Chemscore.Lipo.Weighted>
-11.8741

> <Gold.Chemscore.Internal_Hbond.Weighted>
0.0000

> <Gold.Chemscore.DEClash.Weighted>
1.7050

> <Gold.Chemscore.DEInternal.Weighted>
1.1322

> <Gold.Chemscore.Rot.Weighted>
4.9368

> <Gold.Chemscore.Internal.Correction.Weighted>
   9.000000E+99

> <Gold.Protein.RotatedTorsions>
[ 6907 6896 6895 6894 ] final -171.31 input  -60.11 | X-H torsion
[ 7974 7965 7964 7962 ] final    5.73 input  175.53 | X-H torsion
[ 8008 7997 7996 7995 ] final -145.13 input   59.86 | X-H torsion
[ 10167 10162 10161 10158 ] final   65.51 input  -65.29 | X-H torsion
[ 10718 10713 10712 10709 ] final   15.65 input   66.30 | X-H torsion
[ 10763 10752 10751 10750 ] final   91.51 input  -60.55 | X-H torsion
[ 11005 11000 10999 10996 ] final   -1.77 input  -57.11 | X-H torsion

> <Gold.Protein.ActiveResidues>
 VAL166  LYS551  ARG553  GLY616  TRP617  ASP618  TYR619  PRO620  LYS621  CYS622 
 ASP623  PHE694  ASN695  SER759  ASP760  ASP761  ALA762  ILE779  LEU786  VAL792 
 PHE793  MET794  SER795  GLU796  ALA797  LYS798  CYS799  TRP800  GLU811  SER814 

> <Gold.Protein.RotatedAtoms>
  151.5218  133.3465  159.2902 H   0  0  0  0  0  0  0  0  0  0  0  0  # atno 6907 bound_to 6896
  150.8648  134.8011  159.7121 H   0  0  0  0  0  0  0  0  0  0  0  0  # atno 6908 bound_to 6896
  152.4656  134.5092  159.9800 H   0  0  0  0  0  0  0  0  0  0  0  0  # atno 6909 bound_to 6896
  146.2439  140.0340  142.8387 H   0  0  0  0  0  0  0  0  0  0  0  0  # atno 7974 bound_to 7965
  155.5381  140.0605  157.2875 H   0  0  0  0  0  0  0  0  0  0  0  0  # atno 8008 bound_to 7997
  154.4461  140.1924  156.0607 H   0  0  0  0  0  0  0  0  0  0  0  0  # atno 8009 bound_to 7997
  156.0604  140.3273  155.7459 H   0  0  0  0  0  0  0  0  0  0  0  0  # atno 8010 bound_to 7997
  140.1105  144.4822  150.6981 H   0  0  0  0  0  0  0  0  0  0  0  0  # atno 10167 bound_to 10162
  157.0565  130.6291  149.5778 H   0  0  0  0  0  0  0  0  0  0  0  0  # atno 10718 bound_to 10713
  153.2091  135.4395  155.0358 H   0  0  0  0  0  0  0  0  0  0  0  0  # atno 10763 bound_to 10752
  154.8190  135.3328  154.7096 H   0  0  0  0  0  0  0  0  0  0  0  0  # atno 10764 bound_to 10752
  153.7536  135.6996  153.4996 H   0  0  0  0  0  0  0  0  0  0  0  0  # atno 10765 bound_to 10752
  140.6510  133.9404  155.8380 H   0  0  0  0  0  0  0  0  0  0  0  0  # atno 11005 bound_to 11000
  145.1129  140.9416  143.4646 LP  0  0  0  0  0  0  0  0  0  0  0  0  # atno 17320 bound_to 7965
  145.0558  139.3145  143.5905 LP  0  0  0  0  0  0  0  0  0  0  0  0  # atno 17321 bound_to 7965
  140.6928  143.2386  151.5084 LP  0  0  0  0  0  0  0  0  0  0  0  0  # atno 17342 bound_to 10162
  139.5622  144.2129  152.1709 LP  0  0  0  0  0  0  0  0  0  0  0  0  # atno 17343 bound_to 10162
  155.9991  130.5067  150.7596 LP  0  0  0  0  0  0  0  0  0  0  0  0  # atno 17370 bound_to 10713
  157.4989  131.0917  151.0338 LP  0  0  0  0  0  0  0  0  0  0  0  0  # atno 17371 bound_to 10713
  141.0536  134.0448  157.3751 LP  0  0  0  0  0  0  0  0  0  0  0  0  # atno 17394 bound_to 11000
  139.9046  135.0175  156.7426 LP  0  0  0  0  0  0  0  0  0  0  0  0  # atno 17395 bound_to 11000

$$$$
