AV-unprocessed.smi:265|AV-procd|sdf|2015|dock8
  -GOLD-   2262021213D 1   1.00000     0.00000
 Structure written by MMmdl.
 52 56  0  0  0  0  0  0  0  0  1 V2000
  149.5856  138.5010  154.9115 C   0  0  0  0  0  0  0  0  0  0  0  0
  150.1653  139.8977  155.1806 C   0  0  2  0  0  0  0  0  0  0  0  0
  150.5308  140.0375  156.5515 O   0  0  0  0  0  0  0  0  0  0  0  0
  150.2837  141.3693  156.9940 C   0  0  0  0  0  0  0  0  0  0  0  0
  149.9159  142.1578  155.7410 C   0  0  0  0  0  0  0  0  0  0  0  0
  149.2515  141.0989  154.8694 C   0  0  1  0  0  0  0  0  0  0  0  0
  149.3798  141.4730  153.5102 O   0  0  0  0  0  0  0  0  0  0  0  0
  147.7533  140.8600  155.2007 C   0  0  0  0  0  0  0  0  0  0  0  0
  147.1627  139.7409  154.4828 N   0  0  0  0  0  0  0  0  0  0  0  0
  147.0835  139.5816  153.1178 C   0  0  0  0  0  0  0  0  0  0  0  0
  146.5077  138.4805  152.7182 N   0  0  0  0  0  0  0  0  0  0  0  0
  146.1652  137.8284  153.8971 C   0  0  0  0  0  0  0  0  0  0  0  0
  145.5263  136.5920  154.1976 C   0  0  0  0  0  0  0  0  0  0  0  0
  145.0703  135.7484  153.2371 N   0  0  0  0  0  0  0  0  0  0  0  0
  144.9230  136.2847  151.8794 C   0  0  0  0  0  0  0  0  0  0  0  0
  144.0913  135.3408  150.9909 C   0  0  0  0  0  0  0  0  0  0  0  0
  144.6929  133.9303  151.0223 C   0  0  2  0  0  0  0  0  0  0  0  0
  143.9055  132.9989  150.2958 O   0  0  0  0  0  0  0  0  0  0  0  0
  144.5194  131.7112  150.1728 C   0  0  0  0  0  0  0  0  0  0  0  0
  145.0830  131.1865  151.5109 C   0  0  0  0  0  0  0  0  0  0  0  0
  145.4145  130.0080  151.6151 O   0  0  0  0  0  0  0  0  0  0  0  0
  145.2341  132.0587  152.5210 N   0  0  0  0  0  0  0  0  0  0  0  0
  144.7408  133.4287  152.4739 C   0  0  1  0  0  0  0  0  0  0  0  0
  145.5892  134.3816  153.3312 C   0  0  0  0  0  0  0  0  0  0  0  0
  145.3795  136.2675  155.5104 N   0  0  0  0  0  0  0  0  0  0  0  0
  145.8163  137.0952  156.4642 C   0  0  0  0  0  0  0  0  0  0  0  0
  146.4213  138.2766  156.3302 N   0  0  0  0  0  0  0  0  0  0  0  0
  146.5795  138.6048  155.0163 C   0  0  0  0  0  0  0  0  0  0  0  0
  145.6968  133.9676  150.5931 H   0  0  0  0  0  0  0  0  0  0  0  0
  143.7270  133.4099  152.8778 H   0  0  0  0  0  0  0  0  0  0  0  0
  149.2753  138.3990  153.8715 H   0  0  0  0  0  0  0  0  0  0  0  0
  148.7241  138.2908  155.5453 H   0  0  0  0  0  0  0  0  0  0  0  0
  150.3307  137.7309  155.1118 H   0  0  0  0  0  0  0  0  0  0  0  0
  151.0903  140.0033  154.6102 H   0  0  0  0  0  0  0  0  0  0  0  0
  149.4508  141.3544  157.6978 H   0  0  0  0  0  0  0  0  0  0  0  0
  151.1507  141.7865  157.5061 H   0  0  0  0  0  0  0  0  0  0  0  0
  149.3013  143.0330  155.9492 H   0  0  0  0  0  0  0  0  0  0  0  0
  150.8329  142.5141  155.2682 H   0  0  0  0  0  0  0  0  0  0  0  0
  148.9603  140.8145  152.9778 H   0  0  0  0  0  0  0  0  0  0  0  0
  147.6229  140.6791  156.2684 H   0  0  0  0  0  0  0  0  0  0  0  0
  147.1693  141.7523  154.9730 H   0  0  0  0  0  0  0  0  0  0  0  0
  147.4679  140.3137  152.4225 H   0  0  0  0  0  0  0  0  0  0  0  0
  144.4427  137.2635  151.9158 H   0  0  0  0  0  0  0  0  0  0  0  0
  145.9119  136.4273  151.4412 H   0  0  0  0  0  0  0  0  0  0  0  0
  143.0602  135.3133  151.3461 H   0  0  0  0  0  0  0  0  0  0  0  0
  144.0603  135.7168  149.9680 H   0  0  0  0  0  0  0  0  0  0  0  0
  143.7883  131.0054  149.7778 H   0  0  0  0  0  0  0  0  0  0  0  0
  145.3340  131.7696  149.4499 H   0  0  0  0  0  0  0  0  0  0  0  0
  145.6342  131.7326  153.3888 H   0  0  0  0  0  0  0  0  0  0  0  0
  146.6250  134.3749  152.9887 H   0  0  0  0  0  0  0  0  0  0  0  0
  145.5974  134.0308  154.3627 H   0  0  0  0  0  0  0  0  0  0  0  0
  145.6596  136.7628  157.4798 H   0  0  0  0  0  0  0  0  0  0  0  0
  1  2  1  0  0  0  0
  1 31  1  0  0  0  0
  1 32  1  0  0  0  0
  1 33  1  0  0  0  0
  2  6  1  0  0  0  0
  2  3  1  0  0  0  0
  2 34  1  0  0  0  0
  3  4  1  0  0  0  0
  4  5  1  0  0  0  0
  4 35  1  0  0  0  0
  4 36  1  0  0  0  0
  5  6  1  0  0  0  0
  5 37  1  0  0  0  0
  5 38  1  0  0  0  0
  6  7  1  0  0  0  0
  6  8  1  0  0  0  0
  7 39  1  0  0  0  0
  8  9  1  0  0  0  0
  8 40  1  0  0  0  0
  8 41  1  0  0  0  0
  9 28  1  0  0  0  0
  9 10  1  0  0  0  0
 10 11  2  0  0  0  0
 10 42  1  0  0  0  0
 11 12  1  0  0  0  0
 12 28  2  0  0  0  0
 12 13  1  0  0  0  0
 13 14  1  0  0  0  0
 13 25  2  0  0  0  0
 14 24  1  0  0  0  0
 14 15  1  0  0  0  0
 15 16  1  0  0  0  0
 15 43  1  0  0  0  0
 15 44  1  0  0  0  0
 16 17  1  0  0  0  0
 16 45  1  0  0  0  0
 16 46  1  0  0  0  0
 17 29  1  0  0  0  0
 17 23  1  0  0  0  0
 17 18  1  0  0  0  0
 18 19  1  0  0  0  0
 19 20  1  0  0  0  0
 19 47  1  0  0  0  0
 19 48  1  0  0  0  0
 20 21  2  0  0  0  0
 20 22  1  0  0  0  0
 22 23  1  0  0  0  0
 22 49  1  0  0  0  0
 23 30  1  0  0  0  0
 23 24  1  0  0  0  0
 24 50  1  0  0  0  0
 24 51  1  0  0  0  0
 25 26  1  0  0  0  0
 26 27  2  0  0  0  0
 26 52  1  0  0  0  0
 27 28  1  0  0  0  0
M  END
> <s_m_source_file>
AV-unprocessed.smi

> <i_m_source_file_index>
265

> <i_lp_mmshare_version>
43012

> <i_f3d_flags>
0

> <s_epik_input>
W0NIMl0xW0NIMl1PW0NAQEhdKFtDSDNdKVtDQEBdMShbT0hdKVtDSDJdbihbY0hdbjIpYyhjMjMpbltjSF1uYzNOKFtDSDJdW0NIMl00KVtDSDJdW0NAQEhdKFtDQEhdNDUpW05IXUMoPU8pW0NIMl1PNQ==

> <s_epik_cmdline>
J2VwaWtfcHl0aG9uJywgJy1waCcsICc3LjAnLCAnLXRuJywgJzgnLCAnLW1hJywgJzIwMCcsICctbWV0YWxfYmluZGluZycsICctaW1hZScsICc8aW5maWxlLm1hZT4nLCAnLW9tYWUnLCAnPG91dGZpbGUubWFlPic=

> <r_lp_tautomer_probability>
1

> <r_epik_Ionization_Penalty>
0.00221504

> <r_epik_Ionization_Penalty_Charging>
0

> <r_epik_Ionization_Penalty_Neutral>
0.00221504

> <r_epik_State_Penalty>
-0

> <r_epik_Charging_Adjusted_Penalty>
0

> <i_epik_Tot_Q>
0

> <i_epik_Tot_abs_Q>
0

> <r_epik_Metal_State_Penalty>
-0

> <b_epik_Metal_Only>
0

> <s_lp_Force_Field>
OPLS_2005

> <r_lp_Energy>
45.3858

> <b_lp_Chiralities_Consistent>
1

> <s_lp_Variant>
AV-unprocessed.smi:265-1

> <Gold.Version>
5.8.1

> <Gold.Id.Protein>
6NUR|6NUR_protein|mol2

> <Gold.PLP.Fitness>
38.1292

> <Gold.PLP.PLP>
-30.5920

> <Gold.PLP.part.hbond>
-2.7305

> <Gold.PLP.part.metal>
0.0000

> <Gold.PLP.part.buried>
-1.0393

> <Gold.PLP.part.nonpolar>
-27.2610

> <Gold.PLP.part.repulsive>
0.7010

> <Gold.PLP.ligand.clash>
0.0000

> <Gold.PLP.ligand.torsion>
0.2522

> <Gold.PLP.Chemscore.Hbond>
1.6000

> <Gold.PLP.Chemscore.CHOScore>
0.9394

> <Gold.PLP.Chemscore.Metal>
0.0000

> <Gold.Chemscore.Hbonds>
donor molecule, donor type, donor heavy atom, donor atom, acceptor molecule, acceptor atom, score
      L1  H     7    39       P1  7957  0.49
      P1  H  7989  7998       L1     7  0.02
      P1  H  8011  8017       L1     7  0.73
      L1  C    10    42       P1  7957  0.89

> <Gold.PLP.Chemscore.Internal.Correction>
0.4232

> <Gold.Rescore>
     Score         DG    S(hbond)    S(metal)    S(lipo)     H(rot)  DE(clash)    DE(int)     intcor
      6.85     -12.75       1.25        0.00      75.75       2.25       1.77       4.13       ----

> <Gold.Chemscore.Fitness>
6.8542

> <Gold.Chemscore.DG>
-12.7539

> <Gold.Chemscore.ZeroCoef>
-5.4800

> <Gold.Chemscore.Hbond>
1.2452

> <Gold.Chemscore.Metal>
0.0000

> <Gold.Chemscore.Lipo>
75.7519

> <Gold.Chemscore.Internal_Hbond>
0.0000

> <Gold.Chemscore.DEClash>
1.7716

> <Gold.Chemscore.DEInternal>
4.1281

> <Gold.Chemscore.Rot>
2.2453

> <Gold.Chemscore.Internal.Correction>
   9.000000E+99

> <Gold.Chemscore.Hbonds>
donor molecule, donor type, donor heavy atom, donor atom, acceptor molecule, acceptor atom, score
      L1  H     7    39       P1  7957  0.48
      P1  H  8011  8017       L1     7  0.12

> <Gold.Chemscore.Hbond.Weighted>
-4.1588

> <Gold.Chemscore.Metal.Weighted>
-0.0000

> <Gold.Chemscore.Lipo.Weighted>
-8.8630

> <Gold.Chemscore.Internal_Hbond.Weighted>
0.0000

> <Gold.Chemscore.DEClash.Weighted>
1.7716

> <Gold.Chemscore.DEInternal.Weighted>
4.1281

> <Gold.Chemscore.Rot.Weighted>
5.7479

> <Gold.Chemscore.Internal.Correction.Weighted>
   9.000000E+99

> <Gold.Protein.RotatedTorsions>
[ 6907 6896 6895 6894 ] final -132.39 input  -60.11 | X-H torsion
[ 7974 7965 7964 7962 ] final   -3.66 input  175.53 | X-H torsion
[ 8008 7997 7996 7995 ] final -122.92 input   59.86 | X-H torsion
[ 10167 10162 10161 10158 ] final  -93.76 input  -65.29 | X-H torsion
[ 10718 10713 10712 10709 ] final -165.52 input   66.30 | X-H torsion
[ 10763 10752 10751 10750 ] final  -41.14 input  -60.55 | X-H torsion
[ 11005 11000 10999 10996 ] final   65.11 input  -57.11 | X-H torsion

> <Gold.Protein.ActiveResidues>
 VAL166  LYS551  ARG553  GLY616  TRP617  ASP618  TYR619  PRO620  LYS621  CYS622 
 ASP623  PHE694  ASN695  SER759  ASP760  ASP761  ALA762  ILE779  LEU786  VAL792 
 PHE793  MET794  SER795  GLU796  ALA797  LYS798  CYS799  TRP800  GLU811  SER814 

> <Gold.Protein.RotatedAtoms>
  150.9619  133.6436  159.2752 H   0  0  0  0  0  0  0  0  0  0  0  0  # atno 6907 bound_to 6896
  151.3756  135.0929  159.9489 H   0  0  0  0  0  0  0  0  0  0  0  0  # atno 6908 bound_to 6896
  152.5151  133.9164  159.7568 H   0  0  0  0  0  0  0  0  0  0  0  0  # atno 6909 bound_to 6896
  146.2386  140.1754  142.8332 H   0  0  0  0  0  0  0  0  0  0  0  0  # atno 7974 bound_to 7965
  155.1722  140.0408  157.2865 H   0  0  0  0  0  0  0  0  0  0  0  0  # atno 8008 bound_to 7997
  154.6262  140.2513  155.7462 H   0  0  0  0  0  0  0  0  0  0  0  0  # atno 8009 bound_to 7997
  156.2460  140.2885  156.0592 H   0  0  0  0  0  0  0  0  0  0  0  0  # atno 8010 bound_to 7997
  140.3213  143.3047  152.0043 H   0  0  0  0  0  0  0  0  0  0  0  0  # atno 10167 bound_to 10162
  156.6546  130.9021  151.3019 H   0  0  0  0  0  0  0  0  0  0  0  0  # atno 10718 bound_to 10713
  153.9575  135.6743  153.4745 H   0  0  0  0  0  0  0  0  0  0  0  0  # atno 10763 bound_to 10752
  153.0854  135.4901  154.8583 H   0  0  0  0  0  0  0  0  0  0  0  0  # atno 10764 bound_to 10752
  154.7291  135.3134  154.8881 H   0  0  0  0  0  0  0  0  0  0  0  0  # atno 10765 bound_to 10752
  139.9915  134.6583  156.0082 H   0  0  0  0  0  0  0  0  0  0  0  0  # atno 11005 bound_to 11000
  144.9977  140.8604  143.5301 LP  0  0  0  0  0  0  0  0  0  0  0  0  # atno 17320 bound_to 7965
  145.1769  139.2373  143.5312 LP  0  0  0  0  0  0  0  0  0  0  0  0  # atno 17321 bound_to 7965
  139.4874  144.6308  151.7073 LP  0  0  0  0  0  0  0  0  0  0  0  0  # atno 17342 bound_to 10162
  140.5481  144.0470  150.6115 LP  0  0  0  0  0  0  0  0  0  0  0  0  # atno 17343 bound_to 10162
  157.7129  130.9462  150.1153 LP  0  0  0  0  0  0  0  0  0  0  0  0  # atno 17370 bound_to 10713
  156.2057  130.3663  149.8732 LP  0  0  0  0  0  0  0  0  0  0  0  0  # atno 17371 bound_to 10713
  141.1570  133.6542  156.4193 LP  0  0  0  0  0  0  0  0  0  0  0  0  # atno 17394 bound_to 11000
  140.4899  134.6585  157.5206 LP  0  0  0  0  0  0  0  0  0  0  0  0  # atno 17395 bound_to 11000

$$$$
