AV-unprocessed.smi:160|AV-procd|sdf|1343|dock10
  -GOLD-   2262019 43D 1   1.00000     0.00000
 Structure written by MMmdl.
 29 30  0  0  0  0  0  0  0  0  1 V2000
  149.3386  134.7207  154.0605 N   0  0  0  0  0  0  0  0  0  0  0  0
  150.0426  134.8978  155.1833 C   0  0  0  0  0  0  0  0  0  0  0  0
  150.2965  133.9733  155.9535 O   0  0  0  0  0  0  0  0  0  0  0  0
  150.5122  136.2995  155.4592 C   0  0  0  0  0  0  0  0  0  0  0  0
  151.1813  136.6060  156.6100 N   0  0  0  0  0  0  0  0  0  0  0  0
  151.3712  137.9027  156.4021 C   0  0  0  0  0  0  0  0  0  0  0  0
  150.8840  138.3474  155.2393 N   0  0  0  0  0  0  0  0  0  0  0  0
  150.8694  139.7287  154.6704 C   0  0  2  0  0  0  0  0  0  0  0  0
  151.5185  140.5589  155.5878 O   0  0  0  0  0  0  0  0  0  0  0  0
  150.6925  141.6643  155.9459 C   0  0  2  0  0  0  0  0  0  0  0  0
  150.9865  142.0775  157.3961 C   0  0  0  0  0  0  0  0  0  0  0  0
  150.2745  143.2522  157.7202 O   0  0  0  0  0  0  0  0  0  0  0  0
  149.2751  141.1277  155.7397 C   0  0  1  0  0  0  0  0  0  0  0  0
  148.3071  142.1460  155.5669 O   0  0  0  0  0  0  0  0  0  0  0  0
  149.4299  140.2410  154.5102 C   0  0  1  0  0  0  0  0  0  0  0  0
  149.2848  140.9582  153.2981 O   0  0  0  0  0  0  0  0  0  0  0  0
  150.2980  137.3013  154.6045 N   0  0  0  0  0  0  0  0  0  0  0  0
  151.4208  139.6469  153.7324 H   0  0  0  0  0  0  0  0  0  0  0  0
  150.8767  142.4861  155.2509 H   0  0  0  0  0  0  0  0  0  0  0  0
  148.9880  140.5132  156.5938 H   0  0  0  0  0  0  0  0  0  0  0  0
  148.7138  139.4178  154.5051 H   0  0  0  0  0  0  0  0  0  0  0  0
  148.9961  133.8020  153.8212 H   0  0  0  0  0  0  0  0  0  0  0  0
  149.1544  135.5100  153.4586 H   0  0  0  0  0  0  0  0  0  0  0  0
  151.8746  138.5416  157.1127 H   0  0  0  0  0  0  0  0  0  0  0  0
  150.6586  141.2976  158.0838 H   0  0  0  0  0  0  0  0  0  0  0  0
  152.0554  142.2228  157.5570 H   0  0  0  0  0  0  0  0  0  0  0  0
  149.7323  143.4887  156.9834 H   0  0  0  0  0  0  0  0  0  0  0  0
  148.6691  142.9612  155.8792 H   0  0  0  0  0  0  0  0  0  0  0  0
  149.1120  140.3375  152.6064 H   0  0  0  0  0  0  0  0  0  0  0  0
  1  2  1  0  0  0  0
  1 22  1  0  0  0  0
  1 23  1  0  0  0  0
  2  3  2  0  0  0  0
  2  4  1  0  0  0  0
  4 17  2  0  0  0  0
  4  5  1  0  0  0  0
  5  6  2  0  0  0  0
  6  7  1  0  0  0  0
  6 24  1  0  0  0  0
  7  8  1  0  0  0  0
  7 17  1  0  0  0  0
  8 18  1  0  0  0  0
  8 15  1  0  0  0  0
  8  9  1  0  0  0  0
  9 10  1  0  0  0  0
 10 19  1  0  0  0  0
 10 11  1  0  0  0  0
 10 13  1  0  0  0  0
 11 12  1  0  0  0  0
 11 25  1  0  0  0  0
 11 26  1  0  0  0  0
 12 27  1  0  0  0  0
 13 20  1  0  0  0  0
 13 14  1  0  0  0  0
 13 15  1  0  0  0  0
 14 28  1  0  0  0  0
 15 21  1  0  0  0  0
 15 16  1  0  0  0  0
 16 29  1  0  0  0  0
M  END
> <s_m_source_file>
AV-unprocessed.smi

> <i_m_source_file_index>
160

> <i_lp_mmshare_version>
43012

> <i_f3d_flags>
0

> <s_epik_input>
W05IMl1DKD1PKWMxbltjSF1uKG4xKVtDQEBIXTJPW0NASF0oW0NIMl1bT0hdKVtDQEBIXShbT0hdKVtDQEhdMltPSF0=

> <s_epik_cmdline>
J2VwaWtfcHl0aG9uJywgJy1waCcsICc3LjAnLCAnLXRuJywgJzgnLCAnLW1hJywgJzIwMCcsICctbWV0YWxfYmluZGluZycsICctaW1hZScsICc8aW5maWxlLm1hZT4nLCAnLW9tYWUnLCAnPG91dGZpbGUubWFlPic=

> <r_lp_tautomer_probability>
1

> <r_epik_Ionization_Penalty>
1.06932e-05

> <r_epik_Ionization_Penalty_Charging>
0

> <r_epik_Ionization_Penalty_Neutral>
1.06932e-05

> <r_epik_State_Penalty>
-0

> <r_epik_Charging_Adjusted_Penalty>
0

> <i_epik_Tot_Q>
0

> <i_epik_Tot_abs_Q>
0

> <r_epik_Metal_State_Penalty>
0.0142097

> <b_epik_Metal_Only>
0

> <s_epik_Chemistry_Notes>
This compound contains an acetal/aminal-like group ( X-CH(R)-Y where X, Y are N, S, or O) that may be acid/base labile, releasing an aldehyde.

> <s_lp_Force_Field>
OPLS_2005

> <r_lp_Energy>
39.0499

> <b_lp_Chiralities_Consistent>
1

> <s_lp_Variant>
AV-unprocessed.smi:160-1

> <Gold.Version>
5.8.1

> <Gold.Id.Protein>
6NUR|6NUR_protein|mol2

> <Gold.PLP.Fitness>
40.1428

> <Gold.PLP.PLP>
-26.1035

> <Gold.PLP.part.hbond>
-6.2173

> <Gold.PLP.part.metal>
0.0000

> <Gold.PLP.part.buried>
-4.1835

> <Gold.PLP.part.nonpolar>
-15.9680

> <Gold.PLP.part.repulsive>
0.2127

> <Gold.PLP.ligand.clash>
0.0000

> <Gold.PLP.ligand.torsion>
0.0546

> <Gold.PLP.Chemscore.Hbond>
4.7076

> <Gold.PLP.Chemscore.CHOScore>
0.0000

> <Gold.PLP.Chemscore.Metal>
0.0000

> <Gold.Chemscore.Hbonds>
donor molecule, donor type, donor heavy atom, donor atom, acceptor molecule, acceptor atom, score
      L1  H     1    23       P1  7948  1.00
      L1  H    12    27       P1  8028  1.00
      L1  H    14    28       P1  8028  0.96
      L1  H    16    29       P1  7957  0.77
      P1  H  8011  8017       L1    16  1.00

> <Gold.PLP.Chemscore.Internal.Correction>
0.0256

> <Gold.Rescore>
     Score         DG    S(hbond)    S(metal)    S(lipo)     H(rot)  DE(clash)    DE(int)     intcor
     10.79     -11.52       3.92        0.00      28.46       4.06       0.66       0.07       ----

> <Gold.Chemscore.Fitness>
10.7912

> <Gold.Chemscore.DG>
-11.5192

> <Gold.Chemscore.ZeroCoef>
-5.4800

> <Gold.Chemscore.Hbond>
3.9231

> <Gold.Chemscore.Metal>
0.0000

> <Gold.Chemscore.Lipo>
28.4582

> <Gold.Chemscore.Internal_Hbond>
0.0000

> <Gold.Chemscore.DEClash>
0.6619

> <Gold.Chemscore.DEInternal>
0.0661

> <Gold.Chemscore.Rot>
4.0600

> <Gold.Chemscore.Internal.Correction>
   9.000000E+99

> <Gold.Chemscore.Hbonds>
donor molecule, donor type, donor heavy atom, donor atom, acceptor molecule, acceptor atom, score
      L1  H     1    23       P1  7948  0.47
      L1  H    12    27       P1  8028  0.94
      L1  H    14    28       P1  8028  0.92
      L1  H    16    29       P1  7957  0.73
      P1  H  8011  8017       L1    16  0.25

> <Gold.Chemscore.Hbond.Weighted>
-13.1032

> <Gold.Chemscore.Metal.Weighted>
-0.0000

> <Gold.Chemscore.Lipo.Weighted>
-3.3296

> <Gold.Chemscore.Internal_Hbond.Weighted>
0.0000

> <Gold.Chemscore.DEClash.Weighted>
0.6619

> <Gold.Chemscore.DEInternal.Weighted>
0.0661

> <Gold.Chemscore.Rot.Weighted>
10.3936

> <Gold.Chemscore.Internal.Correction.Weighted>
   9.000000E+99

> <Gold.Protein.RotatedTorsions>
[ 6907 6896 6895 6894 ] final -117.11 input  -60.11 | X-H torsion
[ 7974 7965 7964 7962 ] final  -30.11 input  175.53 | X-H torsion
[ 8008 7997 7996 7995 ] final  110.02 input   59.86 | X-H torsion
[ 10167 10162 10161 10158 ] final -168.75 input  -65.29 | X-H torsion
[ 10718 10713 10712 10709 ] final  126.17 input   66.30 | X-H torsion
[ 10763 10752 10751 10750 ] final  149.79 input  -60.55 | X-H torsion
[ 11005 11000 10999 10996 ] final  -52.03 input  -57.11 | X-H torsion

> <Gold.Protein.ActiveResidues>
 VAL166  LYS551  ARG553  GLY616  TRP617  ASP618  TYR619  PRO620  LYS621  CYS622 
 ASP623  PHE694  ASN695  SER759  ASP760  ASP761  ALA762  ILE779  LEU786  VAL792 
 PHE793  MET794  SER795  GLU796  ALA797  LYS798  CYS799  TRP800  GLU811  SER814 

> <Gold.Protein.RotatedAtoms>
  150.8110  133.8422  159.3182 H   0  0  0  0  0  0  0  0  0  0  0  0  # atno 6907 bound_to 6896
  151.6207  135.1030  160.0110 H   0  0  0  0  0  0  0  0  0  0  0  0  # atno 6908 bound_to 6896
  152.4202  133.7063  159.6510 H   0  0  0  0  0  0  0  0  0  0  0  0  # atno 6909 bound_to 6896
  146.1167  140.5498  142.8753 H   0  0  0  0  0  0  0  0  0  0  0  0  # atno 7974 bound_to 7965
  156.2022  140.3046  155.9551 H   0  0  0  0  0  0  0  0  0  0  0  0  # atno 8008 bound_to 7997
  155.2926  140.0443  157.3041 H   0  0  0  0  0  0  0  0  0  0  0  0  # atno 8009 bound_to 7997
  154.5586  140.2313  155.8380 H   0  0  0  0  0  0  0  0  0  0  0  0  # atno 8010 bound_to 7997
  139.5966  144.1100  152.1696 H   0  0  0  0  0  0  0  0  0  0  0  0  # atno 10167 bound_to 10162
  157.5441  131.1096  150.8810 H   0  0  0  0  0  0  0  0  0  0  0  0  # atno 10718 bound_to 10713
  154.0770  135.2862  155.3297 H   0  0  0  0  0  0  0  0  0  0  0  0  # atno 10763 bound_to 10752
  154.6709  135.5300  153.8140 H   0  0  0  0  0  0  0  0  0  0  0  0  # atno 10764 bound_to 10752
  153.0463  135.6557  154.0947 H   0  0  0  0  0  0  0  0  0  0  0  0  # atno 10765 bound_to 10752
  141.0902  133.6634  156.3963 H   0  0  0  0  0  0  0  0  0  0  0  0  # atno 11005 bound_to 11000
  144.7559  140.5307  143.6769 LP  0  0  0  0  0  0  0  0  0  0  0  0  # atno 17320 bound_to 7965
  145.5552  139.1477  143.3372 LP  0  0  0  0  0  0  0  0  0  0  0  0  # atno 17321 bound_to 7965
  140.0686  144.5798  150.7208 LP  0  0  0  0  0  0  0  0  0  0  0  0  # atno 17342 bound_to 10162
  140.7216  143.2595  151.4258 LP  0  0  0  0  0  0  0  0  0  0  0  0  # atno 17343 bound_to 10162
  156.9354  130.5365  149.5279 LP  0  0  0  0  0  0  0  0  0  0  0  0  # atno 17370 bound_to 10713
  156.0521  130.5589  150.9012 LP  0  0  0  0  0  0  0  0  0  0  0  0  # atno 17371 bound_to 10713
  140.5269  134.6250  157.5337 LP  0  0  0  0  0  0  0  0  0  0  0  0  # atno 17394 bound_to 11000
  139.9727  134.7266  156.0010 LP  0  0  0  0  0  0  0  0  0  0  0  0  # atno 17395 bound_to 11000

$$$$
