AV-unprocessed.smi:2249|AV-procd|sdf|9098|dock7
  -GOLD-   2272012293D 1   1.00000     0.00000
 Structure written by MMmdl.
 38 39  0  0  0  0  0  0  0  0  1 V2000
  152.1092  137.9785  154.3861 C   0  0  0  0  0  0  0  0  0  0  0  0
  150.7623  137.8082  155.1133 C   0  0  2  0  0  0  0  0  0  0  0  0
  150.0591  136.6635  154.5347 N   0  0  0  0  0  0  0  0  0  0  0  0
  150.0744  135.4117  155.0156 C   0  0  0  0  0  0  0  0  0  0  0  0
  150.7059  135.0759  156.0178 O   0  0  0  0  0  0  0  0  0  0  0  0
  149.3200  134.5952  154.2593 N   0  0  0  0  0  0  0  0  0  0  0  0
  149.0758  133.2679  154.4244 C   0  0  0  0  0  0  0  0  0  0  0  0
  149.6466  132.3906  155.3057 C   0  0  0  0  0  0  0  0  0  0  0  0
  148.9829  131.1688  154.9973 C   0  0  0  0  0  0  0  0  0  0  0  0
  148.0922  131.2925  154.0211 N   0  0  0  0  0  0  0  0  0  0  0  0
  148.1454  132.5940  153.6633 N   0  0  0  0  0  0  0  0  0  0  0  0
  147.2899  133.0907  152.6031 C   0  0  0  0  0  0  0  0  0  0  0  0
  149.8649  139.0718  155.0494 C   0  0  0  0  0  0  0  0  0  0  0  0
  149.0290  139.1443  153.7553 C   0  0  0  0  0  0  0  0  0  0  0  0
  148.2134  140.4460  153.6891 C   0  0  0  0  0  0  0  0  0  0  0  0
  149.0789  141.5698  153.7891 O   0  0  0  0  0  0  0  0  0  0  0  0
  149.7772  141.6149  155.0269 C   0  0  0  0  0  0  0  0  0  0  0  0
  150.6794  140.3785  155.1668 C   0  0  0  0  0  0  0  0  0  0  0  0
  152.7331  138.7341  154.8622 H   0  0  0  0  0  0  0  0  0  0  0  0
  151.9649  138.2683  153.3448 H   0  0  0  0  0  0  0  0  0  0  0  0
  152.6807  137.0497  154.3947 H   0  0  0  0  0  0  0  0  0  0  0  0
  150.9694  137.6011  156.1650 H   0  0  0  0  0  0  0  0  0  0  0  0
  149.5139  136.8437  153.7044 H   0  0  0  0  0  0  0  0  0  0  0  0
  148.8715  135.0183  153.4602 H   0  0  0  0  0  0  0  0  0  0  0  0
  150.4078  132.5695  156.0500 H   0  0  0  0  0  0  0  0  0  0  0  0
  149.1206  130.1988  155.4520 H   0  0  0  0  0  0  0  0  0  0  0  0
  147.9010  133.3910  151.7520 H   0  0  0  0  0  0  0  0  0  0  0  0
  146.7255  133.9525  152.9598 H   0  0  0  0  0  0  0  0  0  0  0  0
  146.5890  132.3191  152.2810 H   0  0  0  0  0  0  0  0  0  0  0  0
  149.1717  139.0362  155.8914 H   0  0  0  0  0  0  0  0  0  0  0  0
  149.6853  139.0846  152.8861 H   0  0  0  0  0  0  0  0  0  0  0  0
  148.3437  138.3000  153.6889 H   0  0  0  0  0  0  0  0  0  0  0  0
  147.6740  140.5014  152.7434 H   0  0  0  0  0  0  0  0  0  0  0  0
  147.4655  140.4770  154.4830 H   0  0  0  0  0  0  0  0  0  0  0  0
  150.3801  142.5226  155.0563 H   0  0  0  0  0  0  0  0  0  0  0  0
  149.0698  141.6763  155.8554 H   0  0  0  0  0  0  0  0  0  0  0  0
  151.2005  140.4282  156.1230 H   0  0  0  0  0  0  0  0  0  0  0  0
  151.4481  140.4040  154.3932 H   0  0  0  0  0  0  0  0  0  0  0  0
  1  2  1  0  0  0  0
  1 19  1  0  0  0  0
  1 20  1  0  0  0  0
  1 21  1  0  0  0  0
  2  3  1  0  0  0  0
  2 13  1  0  0  0  0
  2 22  1  0  0  0  0
  3  4  1  0  0  0  0
  3 23  1  0  0  0  0
  4  5  2  0  0  0  0
  4  6  1  0  0  0  0
  6  7  1  0  0  0  0
  6 24  1  0  0  0  0
  7 11  1  0  0  0  0
  7  8  2  0  0  0  0
  8  9  1  0  0  0  0
  8 25  1  0  0  0  0
  9 10  2  0  0  0  0
  9 26  1  0  0  0  0
 10 11  1  0  0  0  0
 11 12  1  0  0  0  0
 12 27  1  0  0  0  0
 12 28  1  0  0  0  0
 12 29  1  0  0  0  0
 13 18  1  0  0  0  0
 13 14  1  0  0  0  0
 13 30  1  0  0  0  0
 14 15  1  0  0  0  0
 14 31  1  0  0  0  0
 14 32  1  0  0  0  0
 15 16  1  0  0  0  0
 15 33  1  0  0  0  0
 15 34  1  0  0  0  0
 16 17  1  0  0  0  0
 17 18  1  0  0  0  0
 17 35  1  0  0  0  0
 17 36  1  0  0  0  0
 18 37  1  0  0  0  0
 18 38  1  0  0  0  0
M  END
> <s_m_source_file>
AV-unprocessed.smi

> <i_m_source_file_index>
2249

> <i_lp_mmshare_version>
43012

> <i_f3d_flags>
0

> <s_epik_input>
W0NIMl0xW0NIMl1PW0NIMl1bQ0gyXVtDSF0xW0NASF0oW0NIM10pW05IXUMoPU8pW05IXWMyW2NIXVtjSF1ubjJbQ0gzXQ==

> <s_epik_cmdline>
J2VwaWtfcHl0aG9uJywgJy1waCcsICc3LjAnLCAnLXRuJywgJzgnLCAnLW1hJywgJzIwMCcsICctbWV0YWxfYmluZGluZycsICctaW1hZScsICc8aW5maWxlLm1hZT4nLCAnLW9tYWUnLCAnPG91dGZpbGUubWFlPic=

> <r_lp_tautomer_probability>
1

> <r_epik_Ionization_Penalty>
4.67687e-05

> <r_epik_Ionization_Penalty_Charging>
0

> <r_epik_Ionization_Penalty_Neutral>
4.67687e-05

> <r_epik_State_Penalty>
-0

> <r_epik_Charging_Adjusted_Penalty>
0

> <i_epik_Tot_Q>
0

> <i_epik_Tot_abs_Q>
0

> <r_epik_Metal_State_Penalty>
-0

> <b_epik_Metal_Only>
0

> <s_lp_Force_Field>
OPLS_2005

> <r_lp_Energy>
12.7763

> <b_lp_Chiralities_Consistent>
1

> <s_lp_Variant>
AV-unprocessed.smi:2249-1

> <Gold.Version>
5.8.1

> <Gold.Id.Protein>
6NUR|6NUR_protein|mol2

> <Gold.PLP.Fitness>
39.4257

> <Gold.PLP.PLP>
-33.2543

> <Gold.PLP.part.hbond>
-3.4482

> <Gold.PLP.part.metal>
0.0000

> <Gold.PLP.part.buried>
0.4168

> <Gold.PLP.part.nonpolar>
-31.0160

> <Gold.PLP.part.repulsive>
0.3946

> <Gold.PLP.ligand.clash>
0.0000

> <Gold.PLP.ligand.torsion>
0.7819

> <Gold.PLP.Chemscore.Hbond>
2.5723

> <Gold.PLP.Chemscore.CHOScore>
0.0000

> <Gold.PLP.Chemscore.Metal>
0.0000

> <Gold.Chemscore.Hbonds>
donor molecule, donor type, donor heavy atom, donor atom, acceptor molecule, acceptor atom, score
      L1  H     3    23       P1  7948  0.94
      L1  H     6    24       P1  7948  0.98
      P1  H  8011  8017       L1    16  0.70

> <Gold.PLP.Chemscore.Internal.Correction>
0.0182

> <Gold.Rescore>
     Score         DG    S(hbond)    S(metal)    S(lipo)     H(rot)  DE(clash)    DE(int)     intcor
     12.74     -15.01       1.61        0.00      62.92       1.26       0.31       1.95       ----

> <Gold.Chemscore.Fitness>
12.7428

> <Gold.Chemscore.DG>
-15.0105

> <Gold.Chemscore.ZeroCoef>
-5.4800

> <Gold.Chemscore.Hbond>
1.6141

> <Gold.Chemscore.Metal>
0.0000

> <Gold.Chemscore.Lipo>
62.9223

> <Gold.Chemscore.Internal_Hbond>
0.0000

> <Gold.Chemscore.DEClash>
0.3130

> <Gold.Chemscore.DEInternal>
1.9547

> <Gold.Chemscore.Rot>
1.2588

> <Gold.Chemscore.Internal.Correction>
   9.000000E+99

> <Gold.Chemscore.Hbonds>
donor molecule, donor type, donor heavy atom, donor atom, acceptor molecule, acceptor atom, score
      L1  H     3    23       P1  7948  0.75
      L1  H     6    24       P1  7948  0.46
      P1  H  8011  8017       L1    16  0.67

> <Gold.Chemscore.Hbond.Weighted>
-5.3910

> <Gold.Chemscore.Metal.Weighted>
-0.0000

> <Gold.Chemscore.Lipo.Weighted>
-7.3619

> <Gold.Chemscore.Internal_Hbond.Weighted>
0.0000

> <Gold.Chemscore.DEClash.Weighted>
0.3130

> <Gold.Chemscore.DEInternal.Weighted>
1.9547

> <Gold.Chemscore.Rot.Weighted>
3.2224

> <Gold.Chemscore.Internal.Correction.Weighted>
   9.000000E+99

> <Gold.Protein.RotatedTorsions>
[ 6907 6896 6895 6894 ] final   -0.05 input  -60.11 | X-H torsion
[ 7974 7965 7964 7962 ] final   18.88 input  175.53 | X-H torsion
[ 8008 7997 7996 7995 ] final  116.63 input   59.86 | X-H torsion
[ 10167 10162 10161 10158 ] final -179.54 input  -65.29 | X-H torsion
[ 10718 10713 10712 10709 ] final  -94.58 input   66.30 | X-H torsion
[ 10763 10752 10751 10750 ] final   24.42 input  -60.55 | X-H torsion
[ 11005 11000 10999 10996 ] final  106.93 input  -57.11 | X-H torsion

> <Gold.Protein.ActiveResidues>
 VAL166  LYS551  ARG553  GLY616  TRP617  ASP618  TYR619  PRO620  LYS621  CYS622 
 ASP623  PHE694  ASN695  SER759  ASP760  ASP761  ALA762  ILE779  LEU786  VAL792 
 PHE793  MET794  SER795  GLU796  ALA797  LYS798  CYS799  TRP800  GLU811  SER814 

> <Gold.Protein.RotatedAtoms>
  151.5685  135.1063  159.9989 H   0  0  0  0  0  0  0  0  0  0  0  0  # atno 6907 bound_to 6896
  152.4412  133.7448  159.6671 H   0  0  0  0  0  0  0  0  0  0  0  0  # atno 6908 bound_to 6896
  150.8318  133.8009  159.3119 H   0  0  0  0  0  0  0  0  0  0  0  0  # atno 6909 bound_to 6896
  146.2169  139.8393  142.8644 H   0  0  0  0  0  0  0  0  0  0  0  0  # atno 7974 bound_to 7965
  156.2450  140.2913  156.0553 H   0  0  0  0  0  0  0  0  0  0  0  0  # atno 8008 bound_to 7997
  155.1836  140.0405  157.2904 H   0  0  0  0  0  0  0  0  0  0  0  0  # atno 8009 bound_to 7997
  154.6243  140.2483  155.7518 H   0  0  0  0  0  0  0  0  0  0  0  0  # atno 8010 bound_to 7997
  139.5382  144.2438  152.0839 H   0  0  0  0  0  0  0  0  0  0  0  0  # atno 10167 bound_to 10162
  156.0029  130.5073  150.5948 H   0  0  0  0  0  0  0  0  0  0  0  0  # atno 10718 bound_to 10713
  153.0765  135.6605  154.0135 H   0  0  0  0  0  0  0  0  0  0  0  0  # atno 10763 bound_to 10752
  153.9768  135.2959  155.3424 H   0  0  0  0  0  0  0  0  0  0  0  0  # atno 10764 bound_to 10752
  154.7154  135.5187  153.8800 H   0  0  0  0  0  0  0  0  0  0  0  0  # atno 10765 bound_to 10752
  139.8821  134.9385  156.5741 H   0  0  0  0  0  0  0  0  0  0  0  0  # atno 11005 bound_to 11000
  145.2916  141.0169  143.3660 LP  0  0  0  0  0  0  0  0  0  0  0  0  # atno 17320 bound_to 7965
  144.9073  139.4573  143.6604 LP  0  0  0  0  0  0  0  0  0  0  0  0  # atno 17321 bound_to 7965
  140.1912  144.4750  150.6478 LP  0  0  0  0  0  0  0  0  0  0  0  0  # atno 17342 bound_to 10162
  140.6599  143.2249  151.5881 LP  0  0  0  0  0  0  0  0  0  0  0  0  # atno 17343 bound_to 10162
  157.3806  131.0780  151.1480 LP  0  0  0  0  0  0  0  0  0  0  0  0  # atno 17370 bound_to 10713
  157.2203  130.6478  149.5808 LP  0  0  0  0  0  0  0  0  0  0  0  0  # atno 17371 bound_to 10713
  140.8076  133.8455  155.8781 LP  0  0  0  0  0  0  0  0  0  0  0  0  # atno 17394 bound_to 11000
  140.9535  134.1747  157.4709 LP  0  0  0  0  0  0  0  0  0  0  0  0  # atno 17395 bound_to 11000

$$$$
