AV-unprocessed.smi:561|AV-procd|sdf|2939|dock6
  -GOLD-   2262023433D 1   1.00000     0.00000
 Structure written by MMmdl.
 36 37  0  0  0  0  0  0  0  0  1 V2000
  154.1950  140.7624  160.6387 C   0  0  0  0  0  0  0  0  0  0  0  0
  153.0787  141.6534  160.0740 C   0  0  1  0  0  0  0  0  0  0  0  0
  153.5836  143.0800  159.7855 C   0  0  0  0  0  0  0  0  0  0  0  0
  152.4936  144.0213  159.6043 N   0  0  0  0  0  0  0  0  0  0  0  0
  151.8800  144.3721  158.4092 C   0  0  0  0  0  0  0  0  0  0  0  0
  150.9141  145.3016  158.7216 C   0  0  0  0  0  0  0  0  0  0  0  0
  150.9140  145.5350  160.0951 N   0  0  0  0  0  0  0  0  0  0  0  0
  151.8739  144.7406  160.5505 C   0  0  0  0  0  0  0  0  0  0  0  0
  152.5399  141.0628  158.8515 N   0  0  0  0  0  0  0  0  0  0  0  0
  152.2310  139.7659  158.6712 C   0  0  0  0  0  0  0  0  0  0  0  0
  152.4372  138.9005  159.5224 O   0  0  0  0  0  0  0  0  0  0  0  0
  151.6026  139.4284  157.3663 C   0  0  0  0  0  0  0  0  0  0  0  0
  151.0590  140.3619  156.6495 N   0  0  0  0  0  0  0  0  0  0  0  0
  150.4441  140.1001  155.4429 N   0  0  0  0  0  0  0  0  0  0  0  0
  149.6528  141.2206  154.9353 C   0  0  0  0  0  0  0  0  0  0  0  0
  150.5588  138.9315  154.7604 C   0  0  0  0  0  0  0  0  0  0  0  0
  149.9860  138.6925  153.6975 O   0  0  0  0  0  0  0  0  0  0  0  0
  151.4905  137.8776  155.3668 C   0  0  0  0  0  0  0  0  0  0  0  0
  151.5738  137.9867  156.9019 C   0  0  0  0  0  0  0  0  0  0  0  0
  154.5968  141.1774  161.5634 H   0  0  0  0  0  0  0  0  0  0  0  0
  155.0197  140.6633  159.9321 H   0  0  0  0  0  0  0  0  0  0  0  0
  153.8253  139.7612  160.8626 H   0  0  0  0  0  0  0  0  0  0  0  0
  152.2869  141.7215  160.8226 H   0  0  0  0  0  0  0  0  0  0  0  0
  154.2012  143.4351  160.6115 H   0  0  0  0  0  0  0  0  0  0  0  0
  154.2135  143.0946  158.8947 H   0  0  0  0  0  0  0  0  0  0  0  0
  152.1758  143.9455  157.4619 H   0  0  0  0  0  0  0  0  0  0  0  0
  150.2251  145.8168  158.0686 H   0  0  0  0  0  0  0  0  0  0  0  0
  152.1378  144.6863  161.5968 H   0  0  0  0  0  0  0  0  0  0  0  0
  152.3409  141.6978  158.0918 H   0  0  0  0  0  0  0  0  0  0  0  0
  149.2294  141.0493  153.9448 H   0  0  0  0  0  0  0  0  0  0  0  0
  150.2694  142.1180  154.8725 H   0  0  0  0  0  0  0  0  0  0  0  0
  148.8256  141.4297  155.6147 H   0  0  0  0  0  0  0  0  0  0  0  0
  151.1682  136.8777  155.0745 H   0  0  0  0  0  0  0  0  0  0  0  0
  152.4801  138.0276  154.9339 H   0  0  0  0  0  0  0  0  0  0  0  0
  152.4655  137.4564  157.2384 H   0  0  0  0  0  0  0  0  0  0  0  0
  150.7231  137.4789  157.3576 H   0  0  0  0  0  0  0  0  0  0  0  0
  1  2  1  0  0  0  0
  1 20  1  0  0  0  0
  1 21  1  0  0  0  0
  1 22  1  0  0  0  0
  2  3  1  0  0  0  0
  2  9  1  0  0  0  0
  2 23  1  0  0  0  0
  3  4  1  0  0  0  0
  3 24  1  0  0  0  0
  3 25  1  0  0  0  0
  4  8  1  0  0  0  0
  4  5  1  0  0  0  0
  5  6  2  0  0  0  0
  5 26  1  0  0  0  0
  6  7  1  0  0  0  0
  6 27  1  0  0  0  0
  7  8  2  0  0  0  0
  8 28  1  0  0  0  0
  9 10  1  0  0  0  0
  9 29  1  0  0  0  0
 10 11  2  0  0  0  0
 10 12  1  0  0  0  0
 12 19  1  0  0  0  0
 12 13  2  0  0  0  0
 13 14  1  0  0  0  0
 14 15  1  0  0  0  0
 14 16  1  0  0  0  0
 15 30  1  0  0  0  0
 15 31  1  0  0  0  0
 15 32  1  0  0  0  0
 16 17  2  0  0  0  0
 16 18  1  0  0  0  0
 18 19  1  0  0  0  0
 18 33  1  0  0  0  0
 18 34  1  0  0  0  0
 19 35  1  0  0  0  0
 19 36  1  0  0  0  0
M  END
> <s_m_source_file>
AV-unprocessed.smi

> <i_m_source_file_index>
561

> <i_lp_mmshare_version>
43012

> <i_f3d_flags>
0

> <s_epik_input>
W2NIXTFuW2NIXVtjSF1uMVtDSDJdW0NAQEhdKFtDSDNdKVtOSF1DKD1PKUMyPU5OKFtDSDNdKUMoPU8pW0NIMl1bQ0gyXTI=

> <s_epik_cmdline>
J2VwaWtfcHl0aG9uJywgJy1waCcsICc3LjAnLCAnLXRuJywgJzgnLCAnLW1hJywgJzIwMCcsICctbWV0YWxfYmluZGluZycsICctaW1hZScsICc8aW5maWxlLm1hZT4nLCAnLW9tYWUnLCAnPG91dGZpbGUubWFlPic=

> <r_lp_tautomer_probability>
1

> <r_epik_Ionization_Penalty>
0.46798

> <r_epik_Ionization_Penalty_Charging>
0.467902

> <r_epik_Ionization_Penalty_Neutral>
7.78263e-05

> <r_epik_State_Penalty>
0.47192

> <r_epik_Charging_Adjusted_Penalty>
0.939822

> <i_epik_Tot_Q>
0

> <i_epik_Tot_abs_Q>
0

> <r_epik_Metal_State_Penalty>
0.280825

> <b_epik_Metal_Only>
0

> <s_epik_Chemistry_Notes>
This compound has an imine and may undergo hydrolysis.

> <s_lp_Force_Field>
OPLS_2005

> <r_lp_Energy>
18.7987

> <b_lp_Chiralities_Consistent>
1

> <s_lp_Variant>
AV-unprocessed.smi:561-4

> <Gold.Version>
5.8.1

> <Gold.Id.Protein>
6NUR|6NUR_protein|mol2

> <Gold.PLP.Fitness>
40.5385

> <Gold.PLP.PLP>
-39.0855

> <Gold.PLP.part.hbond>
-0.4985

> <Gold.PLP.part.metal>
0.0000

> <Gold.PLP.part.buried>
-6.4349

> <Gold.PLP.part.nonpolar>
-34.1030

> <Gold.PLP.part.repulsive>
2.0279

> <Gold.PLP.ligand.clash>
0.0000

> <Gold.PLP.ligand.torsion>
0.7888

> <Gold.PLP.Chemscore.Hbond>
0.0000

> <Gold.PLP.Chemscore.CHOScore>
1.0000

> <Gold.PLP.Chemscore.Metal>
0.0000

> <Gold.Chemscore.Hbonds>
donor molecule, donor type, donor heavy atom, donor atom, acceptor molecule, acceptor atom, score
      L1  C     6    27       P1  8029  0.98

> <Gold.PLP.Chemscore.Internal.Correction>
0.0307

> <Gold.Rescore>
     Score         DG    S(hbond)    S(metal)    S(lipo)     H(rot)  DE(clash)    DE(int)     intcor
      7.90     -10.11       0.00        0.00      76.95       1.71       0.06       2.16       ----

> <Gold.Chemscore.Fitness>
7.8951

> <Gold.Chemscore.DG>
-10.1093

> <Gold.Chemscore.ZeroCoef>
-5.4800

> <Gold.Chemscore.Hbond>
0.0000

> <Gold.Chemscore.Metal>
0.0000

> <Gold.Chemscore.Lipo>
76.9509

> <Gold.Chemscore.Internal_Hbond>
0.0000

> <Gold.Chemscore.DEClash>
0.0571

> <Gold.Chemscore.DEInternal>
2.1571

> <Gold.Chemscore.Rot>
1.7086

> <Gold.Chemscore.Internal.Correction>
   9.000000E+99

> <Gold.Chemscore.Hbond.Weighted>
-0.0000

> <Gold.Chemscore.Metal.Weighted>
-0.0000

> <Gold.Chemscore.Lipo.Weighted>
-9.0033

> <Gold.Chemscore.Internal_Hbond.Weighted>
0.0000

> <Gold.Chemscore.DEClash.Weighted>
0.0571

> <Gold.Chemscore.DEInternal.Weighted>
2.1571

> <Gold.Chemscore.Rot.Weighted>
4.3739

> <Gold.Chemscore.Internal.Correction.Weighted>
   9.000000E+99

> <Gold.Protein.RotatedTorsions>
[ 6907 6896 6895 6894 ] final  137.00 input  -60.11 | X-H torsion
[ 7974 7965 7964 7962 ] final   80.71 input  175.53 | X-H torsion
[ 8008 7997 7996 7995 ] final  -73.01 input   59.86 | X-H torsion
[ 10167 10162 10161 10158 ] final  157.74 input  -65.29 | X-H torsion
[ 10718 10713 10712 10709 ] final  111.94 input   66.30 | X-H torsion
[ 10763 10752 10751 10750 ] final  136.75 input  -60.55 | X-H torsion
[ 11005 11000 10999 10996 ] final  -52.20 input  -57.11 | X-H torsion

> <Gold.Protein.ActiveResidues>
 VAL166  LYS551  ARG553  GLY616  TRP617  ASP618  TYR619  PRO620  LYS621  CYS622 
 ASP623  PHE694  ASN695  SER759  ASP760  ASP761  ALA762  ILE779  LEU786  VAL792 
 PHE793  MET794  SER795  GLU796  ALA797  LYS798  CYS799  TRP800  GLU811  SER814 

> <Gold.Protein.RotatedAtoms>
  152.2830  133.5488  159.5509 H   0  0  0  0  0  0  0  0  0  0  0  0  # atno 6907 bound_to 6896
  150.7204  134.0537  159.3816 H   0  0  0  0  0  0  0  0  0  0  0  0  # atno 6908 bound_to 6896
  151.8447  135.0578  160.0503 H   0  0  0  0  0  0  0  0  0  0  0  0  # atno 6909 bound_to 6896
  145.6477  139.2440  143.1995 H   0  0  0  0  0  0  0  0  0  0  0  0  # atno 7974 bound_to 7965
  154.5212  140.0787  156.8175 H   0  0  0  0  0  0  0  0  0  0  0  0  # atno 8008 bound_to 7997
  155.3572  140.3416  155.4222 H   0  0  0  0  0  0  0  0  0  0  0  0  # atno 8009 bound_to 7997
  156.1683  140.1611  156.8479 H   0  0  0  0  0  0  0  0  0  0  0  0  # atno 8010 bound_to 7997
  139.4824  144.4889  151.8336 H   0  0  0  0  0  0  0  0  0  0  0  0  # atno 10167 bound_to 10162
  157.6419  131.0959  150.6822 H   0  0  0  0  0  0  0  0  0  0  0  0  # atno 10718 bound_to 10713
  153.8617  135.3066  155.3438 H   0  0  0  0  0  0  0  0  0  0  0  0  # atno 10763 bound_to 10752
  154.7846  135.4817  153.9920 H   0  0  0  0  0  0  0  0  0  0  0  0  # atno 10764 bound_to 10752
  153.1457  135.6833  153.9052 H   0  0  0  0  0  0  0  0  0  0  0  0  # atno 10765 bound_to 10752
  141.0912  133.6632  156.3990 H   0  0  0  0  0  0  0  0  0  0  0  0  # atno 11005 bound_to 11000
  146.1229  140.7285  142.9449 LP  0  0  0  0  0  0  0  0  0  0  0  0  # atno 17320 bound_to 7965
  144.7134  140.4122  143.7063 LP  0  0  0  0  0  0  0  0  0  0  0  0  # atno 17321 bound_to 7965
  140.4372  144.2036  150.5890 LP  0  0  0  0  0  0  0  0  0  0  0  0  # atno 17342 bound_to 10162
  140.4720  143.2409  151.9076 LP  0  0  0  0  0  0  0  0  0  0  0  0  # atno 17343 bound_to 10162
  156.7145  130.4662  149.5538 LP  0  0  0  0  0  0  0  0  0  0  0  0  # atno 17370 bound_to 10713
  156.1707  130.6435  151.0834 LP  0  0  0  0  0  0  0  0  0  0  0  0  # atno 17371 bound_to 10713
  140.5248  134.6270  157.5330 LP  0  0  0  0  0  0  0  0  0  0  0  0  # atno 17394 bound_to 11000
  139.9738  134.7249  155.9989 LP  0  0  0  0  0  0  0  0  0  0  0  0  # atno 17395 bound_to 11000

$$$$
