AV-unprocessed.smi:2097|AV-procd|sdf|8564|dock7
  -GOLD-   2272011293D 1   1.00000     0.00000
 Structure written by MMmdl.
 41 42  0  0  0  0  0  0  0  0  1 V2000
  157.6791  141.0044  165.4211 C   0  0  0  0  0  0  0  0  0  0  0  0
  156.2357  140.9627  165.9436 C   0  0  1  0  0  0  0  0  0  0  0  0
  156.2050  141.6861  167.1717 O   0  0  0  0  0  0  0  0  0  0  0  0
  155.1885  141.2938  168.0888 C   0  0  0  0  0  0  0  0  0  0  0  0
  155.5045  141.8695  169.4742 C   0  0  0  0  0  0  0  0  0  0  0  0
  156.8040  141.7164  169.7267 F   0  0  0  0  0  0  0  0  0  0  0  0
  155.2117  143.1691  169.5120 F   0  0  0  0  0  0  0  0  0  0  0  0
  154.8081  141.2257  170.4104 F   0  0  0  0  0  0  0  0  0  0  0  0
  155.2599  141.5853  164.9319 C   0  0  0  0  0  0  0  0  0  0  0  0
  154.4828  142.4648  165.3014 O   0  0  0  0  0  0  0  0  0  0  0  0
  155.3083  141.0774  163.6860 N   0  0  0  0  0  0  0  0  0  0  0  0
  154.5334  141.4257  162.5459 C   0  0  0  0  0  0  0  0  0  0  0  0
  154.6870  140.8489  161.2622 C   0  0  0  0  0  0  0  0  0  0  0  0
  153.8467  141.2795  160.2174 C   0  0  0  0  0  0  0  0  0  0  0  0
  152.8754  142.2651  160.4862 C   0  0  0  0  0  0  0  0  0  0  0  0
  152.0469  142.7050  159.4443 N   0  0  0  0  0  0  0  0  0  0  0  0
  151.1057  143.7407  159.8520 C   0  0  0  0  0  0  0  0  0  0  0  0
  150.3281  144.2567  158.6291 C   0  0  0  0  0  0  0  0  0  0  0  0
  149.6844  143.1654  157.9772 O   0  0  0  0  0  0  0  0  0  0  0  0
  150.6170  142.1915  157.5166 C   0  0  0  0  0  0  0  0  0  0  0  0
  151.4018  141.6224  158.7116 C   0  0  0  0  0  0  0  0  0  0  0  0
  152.7119  142.8100  161.7148 N   0  0  0  0  0  0  0  0  0  0  0  0
  153.5202  142.3928  162.7118 C   0  0  0  0  0  0  0  0  0  0  0  0
  157.7732  140.4728  164.4734 H   0  0  0  0  0  0  0  0  0  0  0  0
  158.3593  140.5335  166.1310 H   0  0  0  0  0  0  0  0  0  0  0  0
  158.0220  142.0285  165.2675 H   0  0  0  0  0  0  0  0  0  0  0  0
  155.9683  139.9207  166.1301 H   0  0  0  0  0  0  0  0  0  0  0  0
  154.2093  141.6487  167.7655 H   0  0  0  0  0  0  0  0  0  0  0  0
  155.1391  140.2053  168.1431 H   0  0  0  0  0  0  0  0  0  0  0  0
  155.9483  140.3080  163.5518 H   0  0  0  0  0  0  0  0  0  0  0  0
  155.4181  140.0832  161.0562 H   0  0  0  0  0  0  0  0  0  0  0  0
  153.9475  140.8586  159.2276 H   0  0  0  0  0  0  0  0  0  0  0  0
  150.4095  143.3377  160.5889 H   0  0  0  0  0  0  0  0  0  0  0  0
  151.6430  144.5615  160.3290 H   0  0  0  0  0  0  0  0  0  0  0  0
  149.5743  144.9799  158.9408 H   0  0  0  0  0  0  0  0  0  0  0  0
  150.9939  144.7688  157.9325 H   0  0  0  0  0  0  0  0  0  0  0  0
  150.0759  141.3941  157.0073 H   0  0  0  0  0  0  0  0  0  0  0  0
  151.2921  142.6378  156.7847 H   0  0  0  0  0  0  0  0  0  0  0  0
  152.1528  140.9124  158.3631 H   0  0  0  0  0  0  0  0  0  0  0  0
  150.7251  141.0799  159.3733 H   0  0  0  0  0  0  0  0  0  0  0  0
  153.3551  142.8536  163.6749 H   0  0  0  0  0  0  0  0  0  0  0  0
  1  2  1  0  0  0  0
  1 24  1  0  0  0  0
  1 25  1  0  0  0  0
  1 26  1  0  0  0  0
  2  3  1  0  0  0  0
  2  9  1  0  0  0  0
  2 27  1  0  0  0  0
  3  4  1  0  0  0  0
  4  5  1  0  0  0  0
  4 28  1  0  0  0  0
  4 29  1  0  0  0  0
  5  6  1  0  0  0  0
  5  7  1  0  0  0  0
  5  8  1  0  0  0  0
  9 10  2  0  0  0  0
  9 11  1  0  0  0  0
 11 12  1  0  0  0  0
 11 30  1  0  0  0  0
 12 23  1  0  0  0  0
 12 13  2  0  0  0  0
 13 14  1  0  0  0  0
 13 31  1  0  0  0  0
 14 15  2  0  0  0  0
 14 32  1  0  0  0  0
 15 16  1  0  0  0  0
 15 22  1  0  0  0  0
 16 21  1  0  0  0  0
 16 17  1  0  0  0  0
 17 18  1  0  0  0  0
 17 33  1  0  0  0  0
 17 34  1  0  0  0  0
 18 19  1  0  0  0  0
 18 35  1  0  0  0  0
 18 36  1  0  0  0  0
 19 20  1  0  0  0  0
 20 21  1  0  0  0  0
 20 37  1  0  0  0  0
 20 38  1  0  0  0  0
 21 39  1  0  0  0  0
 21 40  1  0  0  0  0
 22 23  2  0  0  0  0
 23 41  1  0  0  0  0
M  END
> <s_m_source_file>
AV-unprocessed.smi

> <i_m_source_file_index>
2097

> <i_lp_mmshare_version>
43012

> <i_f3d_flags>
0

> <s_epik_input>
RkMoRikoRilbQ0gyXU9bQ0BASF0oW0NIM10pQyg9TylbTkhdYzFbY0hdW2NIXWMobltjSF0xKU4yW0NIMl1bQ0gyXU9bQ0gyXVtDSDJdMg==

> <s_epik_cmdline>
J2VwaWtfcHl0aG9uJywgJy1waCcsICc3LjAnLCAnLXRuJywgJzgnLCAnLW1hJywgJzIwMCcsICctbWV0YWxfYmluZGluZycsICctaW1hZScsICc8aW5maWxlLm1hZT4nLCAnLW9tYWUnLCAnPG91dGZpbGUubWFlPic=

> <r_lp_tautomer_probability>
1

> <r_epik_Ionization_Penalty>
0.000443452

> <r_epik_Ionization_Penalty_Charging>
0

> <r_epik_Ionization_Penalty_Neutral>
0.000443452

> <r_epik_State_Penalty>
0.00027288

> <r_epik_Charging_Adjusted_Penalty>
0.00027288

> <i_epik_Tot_Q>
0

> <i_epik_Tot_abs_Q>
0

> <r_epik_Metal_State_Penalty>
-0

> <b_epik_Metal_Only>
0

> <s_lp_Force_Field>
OPLS_2005

> <r_lp_Energy>
27.3588

> <b_lp_Chiralities_Consistent>
1

> <s_lp_Variant>
AV-unprocessed.smi:2097-2

> <Gold.Version>
5.8.1

> <Gold.Id.Protein>
6NUR|6NUR_protein|mol2

> <Gold.PLP.Fitness>
36.9149

> <Gold.PLP.PLP>
-38.2820

> <Gold.PLP.part.hbond>
-1.5410

> <Gold.PLP.part.metal>
0.0000

> <Gold.PLP.part.buried>
-4.3285

> <Gold.PLP.part.nonpolar>
-33.1107

> <Gold.PLP.part.repulsive>
1.9038

> <Gold.PLP.ligand.clash>
0.0000

> <Gold.PLP.ligand.torsion>
0.7541

> <Gold.PLP.Chemscore.Hbond>
0.0000

> <Gold.PLP.Chemscore.CHOScore>
0.0000

> <Gold.PLP.Chemscore.Metal>
0.0000

> <Gold.PLP.Chemscore.Internal.Correction>
0.1411

> <Gold.Rescore>
     Score         DG    S(hbond)    S(metal)    S(lipo)     H(rot)  DE(clash)    DE(int)     intcor
      8.42     -10.80       0.00        0.00      88.16       1.95       0.20       2.18       ----

> <Gold.Chemscore.Fitness>
8.4247

> <Gold.Chemscore.DG>
-10.8045

> <Gold.Chemscore.ZeroCoef>
-5.4800

> <Gold.Chemscore.Hbond>
0.0000

> <Gold.Chemscore.Metal>
0.0000

> <Gold.Chemscore.Lipo>
88.1557

> <Gold.Chemscore.Internal_Hbond>
0.0000

> <Gold.Chemscore.DEClash>
0.1979

> <Gold.Chemscore.DEInternal>
2.1820

> <Gold.Chemscore.Rot>
1.9491

> <Gold.Chemscore.Internal.Correction>
   9.000000E+99

> <Gold.Chemscore.Hbond.Weighted>
-0.0000

> <Gold.Chemscore.Metal.Weighted>
-0.0000

> <Gold.Chemscore.Lipo.Weighted>
-10.3142

> <Gold.Chemscore.Internal_Hbond.Weighted>
0.0000

> <Gold.Chemscore.DEClash.Weighted>
0.1979

> <Gold.Chemscore.DEInternal.Weighted>
2.1820

> <Gold.Chemscore.Rot.Weighted>
4.9897

> <Gold.Chemscore.Internal.Correction.Weighted>
   9.000000E+99

> <Gold.Protein.RotatedTorsions>
[ 6907 6896 6895 6894 ] final   66.95 input  -60.11 | X-H torsion
[ 7974 7965 7964 7962 ] final -125.09 input  175.53 | X-H torsion
[ 8008 7997 7996 7995 ] final -141.02 input   59.86 | X-H torsion
[ 10167 10162 10161 10158 ] final  -20.14 input  -65.29 | X-H torsion
[ 10718 10713 10712 10709 ] final  118.59 input   66.30 | X-H torsion
[ 10763 10752 10751 10750 ] final -154.13 input  -60.55 | X-H torsion
[ 11005 11000 10999 10996 ] final   40.55 input  -57.11 | X-H torsion

> <Gold.Protein.ActiveResidues>
 VAL166  LYS551  ARG553  GLY616  TRP617  ASP618  TYR619  PRO620  LYS621  CYS622 
 ASP623  PHE694  ASN695  SER759  ASP760  ASP761  ALA762  ILE779  LEU786  VAL792 
 PHE793  MET794  SER795  GLU796  ALA797  LYS798  CYS799  TRP800  GLU811  SER814 

> <Gold.Protein.RotatedAtoms>
  152.4518  134.5378  159.9829 H   0  0  0  0  0  0  0  0  0  0  0  0  # atno 6907 bound_to 6896
  151.5448  133.3421  159.2950 H   0  0  0  0  0  0  0  0  0  0  0  0  # atno 6908 bound_to 6896
  150.8449  134.7786  159.7025 H   0  0  0  0  0  0  0  0  0  0  0  0  # atno 6909 bound_to 6896
  145.0012  140.7822  143.4495 H   0  0  0  0  0  0  0  0  0  0  0  0  # atno 7974 bound_to 7965
  155.4709  140.0553  157.2979 H   0  0  0  0  0  0  0  0  0  0  0  0  # atno 8008 bound_to 7997
  154.4699  140.2035  155.9976 H   0  0  0  0  0  0  0  0  0  0  0  0  # atno 8009 bound_to 7997
  156.1037  140.3215  155.7982 H   0  0  0  0  0  0  0  0  0  0  0  0  # atno 8010 bound_to 7997
  140.7274  143.4751  151.0194 H   0  0  0  0  0  0  0  0  0  0  0  0  # atno 10167 bound_to 10162
  157.6020  131.1049  150.7778 H   0  0  0  0  0  0  0  0  0  0  0  0  # atno 10718 bound_to 10713
  154.7880  135.3197  154.7842 H   0  0  0  0  0  0  0  0  0  0  0  0  # atno 10763 bound_to 10752
  153.8537  135.6860  153.4794 H   0  0  0  0  0  0  0  0  0  0  0  0  # atno 10764 bound_to 10752
  153.1539  135.4688  154.9616 H   0  0  0  0  0  0  0  0  0  0  0  0  # atno 10765 bound_to 10752
  140.1920  134.3975  155.8141 H   0  0  0  0  0  0  0  0  0  0  0  0  # atno 11005 bound_to 11000
  145.2151  139.2186  143.5123 LP  0  0  0  0  0  0  0  0  0  0  0  0  # atno 17320 bound_to 7965
  146.3452  140.1997  142.8589 LP  0  0  0  0  0  0  0  0  0  0  0  0  # atno 17321 bound_to 7965
  139.8445  143.7519  152.3179 LP  0  0  0  0  0  0  0  0  0  0  0  0  # atno 17342 bound_to 10162
  139.7680  144.7486  151.0267 LP  0  0  0  0  0  0  0  0  0  0  0  0  # atno 17343 bound_to 10162
  156.8175  130.4973  149.5347 LP  0  0  0  0  0  0  0  0  0  0  0  0  # atno 17370 bound_to 10713
  156.1095  130.6030  151.0025 LP  0  0  0  0  0  0  0  0  0  0  0  0  # atno 17371 bound_to 10713
  141.2226  133.7051  156.8112 LP  0  0  0  0  0  0  0  0  0  0  0  0  # atno 17394 bound_to 11000
  140.2149  134.8800  157.3314 LP  0  0  0  0  0  0  0  0  0  0  0  0  # atno 17395 bound_to 11000

$$$$
