AV-unprocessed.smi:3117|AV-procd|sdf|11878|dock5
  -GOLD-   2272017263D 1   1.00000     0.00000
 Structure written by MMmdl.
 37 37  0  0  0  0  0  0  0  0  2 V2000
  149.0470  141.3635  157.8475 C   0  0  0  0  0  0  0  0  0  0  0  0
  150.3245  141.7329  157.0702 C   0  0  2  0  0  0  0  0  0  0  0  0
  150.5581  143.1934  157.1529 N   0  3  0  0  0  0  0  0  0  0  0  0
  150.5616  143.7667  158.5161 C   0  0  0  0  0  0  0  0  0  0  0  0
  151.9883  144.1188  158.9876 C   0  0  0  0  0  0  0  0  0  0  0  0
  151.9362  145.1811  160.0981 C   0  0  0  0  0  0  0  0  0  0  0  0
  152.7658  142.8791  159.4696 C   0  0  0  0  0  0  0  0  0  0  0  0
  152.6881  144.6944  157.9015 O   0  0  0  0  0  0  0  0  0  0  0  0
  150.2700  141.2986  155.5824 C   0  0  2  0  0  0  0  0  0  0  0  0
  148.9058  141.5560  154.9147 C   0  0  0  0  0  0  0  0  0  0  0  0
  150.6336  139.8916  155.4446 N   0  0  0  0  0  0  0  0  0  0  0  0
  151.0894  139.0145  156.4094 C   0  0  0  0  0  0  0  0  0  0  0  0
  151.3412  137.8226  155.7927 C   0  0  0  0  0  0  0  0  0  0  0  0
  151.0161  138.0714  154.4306 C   0  0  0  0  0  0  0  0  0  0  0  0
  150.6036  139.3114  154.2244 N   0  0  0  0  0  0  0  0  0  0  0  0
  148.8937  140.2853  157.8805 H   0  0  0  0  0  0  0  0  0  0  0  0
  148.1631  141.8134  157.3941 H   0  0  0  0  0  0  0  0  0  0  0  0
  149.0954  141.7010  158.8825 H   0  0  0  0  0  0  0  0  0  0  0  0
  151.1712  141.2245  157.5342 H   0  0  0  0  0  0  0  0  0  0  0  0
  151.4718  143.3705  156.7597 H   0  0  0  0  0  0  0  0  0  0  0  0
  149.9275  144.6536  158.5377 H   0  0  0  0  0  0  0  0  0  0  0  0
  150.1211  143.0461  159.2066 H   0  0  0  0  0  0  0  0  0  0  0  0
  151.4053  144.8086  160.9749 H   0  0  0  0  0  0  0  0  0  0  0  0
  151.4238  146.0839  159.7635 H   0  0  0  0  0  0  0  0  0  0  0  0
  152.9369  145.4719  160.4202 H   0  0  0  0  0  0  0  0  0  0  0  0
  152.2506  142.3889  160.2964 H   0  0  0  0  0  0  0  0  0  0  0  0
  153.7632  143.1489  159.8192 H   0  0  0  0  0  0  0  0  0  0  0  0
  152.8907  142.1410  158.6766 H   0  0  0  0  0  0  0  0  0  0  0  0
  153.5630  144.3364  157.8819 H   0  0  0  0  0  0  0  0  0  0  0  0
  151.0093  141.8828  155.0305 H   0  0  0  0  0  0  0  0  0  0  0  0
  148.6888  142.6212  154.8403 H   0  0  0  0  0  0  0  0  0  0  0  0
  148.0915  141.0885  155.4691 H   0  0  0  0  0  0  0  0  0  0  0  0
  148.8874  141.1590  153.8991 H   0  0  0  0  0  0  0  0  0  0  0  0
  151.1983  139.3075  157.4431 H   0  0  0  0  0  0  0  0  0  0  0  0
  151.7054  136.9122  156.2454 H   0  0  0  0  0  0  0  0  0  0  0  0
  151.0733  137.3947  153.5906 H   0  0  0  0  0  0  0  0  0  0  0  0
  149.8740  143.6766  156.5880 H   0  0  0  0  0  0  0  0  0  0  0  0
  1  2  1  0  0  0  0
  1 16  1  0  0  0  0
  1 17  1  0  0  0  0
  1 18  1  0  0  0  0
  2  3  1  0  0  0  0
  2  9  1  0  0  0  0
  2 19  1  0  0  0  0
  3  4  1  0  0  0  0
  3 20  1  0  0  0  0
  3 37  1  0  0  0  0
  4  5  1  0  0  0  0
  4 21  1  0  0  0  0
  4 22  1  0  0  0  0
  5  6  1  0  0  0  0
  5  7  1  0  0  0  0
  5  8  1  0  0  0  0
  6 23  1  0  0  0  0
  6 24  1  0  0  0  0
  6 25  1  0  0  0  0
  7 26  1  0  0  0  0
  7 27  1  0  0  0  0
  7 28  1  0  0  0  0
  8 29  1  0  0  0  0
  9 10  1  0  0  0  0
  9 11  1  0  0  0  0
  9 30  1  0  0  0  0
 10 31  1  0  0  0  0
 10 32  1  0  0  0  0
 10 33  1  0  0  0  0
 11 15  1  0  0  0  0
 11 12  1  0  0  0  0
 12 13  2  0  0  0  0
 12 34  1  0  0  0  0
 13 14  1  0  0  0  0
 13 35  1  0  0  0  0
 14 15  2  0  0  0  0
 14 36  1  0  0  0  0
M  CHG  1   3   1
M  END
> <s_m_source_file>
AV-unprocessed.smi

> <i_m_source_file_index>
3117

> <i_lp_mmshare_version>
43012

> <i_f3d_flags>
0

> <s_epik_input>
W0NIM11DKFtDSDNdKShbT0hdKVtDSDJdW05IXVtDQEBIXShbQ0gzXSlbQ0BIXShbQ0gzXSluMVtjSF1bY0hdW2NIXW4x

> <s_epik_cmdline>
J2VwaWtfcHl0aG9uJywgJy1waCcsICc3LjAnLCAnLXRuJywgJzgnLCAnLW1hJywgJzIwMCcsICctbWV0YWxfYmluZGluZycsICctaW1hZScsICc8aW5maWxlLm1hZT4nLCAnLW9tYWUnLCAnPG91dGZpbGUubWFlPic=

> <r_lp_tautomer_probability>
1

> <r_epik_Ionization_Penalty>
0.0164263

> <r_epik_Ionization_Penalty_Charging>
0.0164138

> <r_epik_Ionization_Penalty_Neutral>
1.24697e-05

> <r_epik_State_Penalty>
0.0129543

> <r_epik_Charging_Adjusted_Penalty>
0.0293681

> <i_epik_Tot_Q>
1

> <i_epik_Tot_abs_Q>
1

> <r_epik_Metal_State_Penalty>
0.0129806

> <b_epik_Metal_Only>
0

> <s_lp_Force_Field>
OPLS_2005

> <r_lp_Energy>
12.2787

> <b_lp_Chiralities_Consistent>
1

> <s_lp_Variant>
AV-unprocessed.smi:3117-1

> <Gold.Version>
5.8.1

> <Gold.Id.Protein>
6NUR|6NUR_protein|mol2

> <Gold.PLP.Fitness>
43.2909

> <Gold.PLP.PLP>
-34.7428

> <Gold.PLP.part.hbond>
-2.0000

> <Gold.PLP.part.metal>
0.0000

> <Gold.PLP.part.buried>
-4.0201

> <Gold.PLP.part.nonpolar>
-28.5985

> <Gold.PLP.part.repulsive>
0.1826

> <Gold.PLP.ligand.clash>
0.0000

> <Gold.PLP.ligand.torsion>
1.1868

> <Gold.PLP.Chemscore.Hbond>
2.6000

> <Gold.PLP.Chemscore.CHOScore>
1.0000

> <Gold.PLP.Chemscore.Metal>
0.0000

> <Gold.Chemscore.Hbonds>
donor molecule, donor type, donor heavy atom, donor atom, acceptor molecule, acceptor atom, score
      L1  H     3    37       P1  8028  2.00
      P1  H  7989  7998       L1    15  0.50
      L1  C    14    36       P1  7948  0.01
      L1  C    14    36       P1  7949  1.00

> <Gold.PLP.Chemscore.Internal.Correction>
0.1218

> <Gold.Rescore>
     Score         DG    S(hbond)    S(metal)    S(lipo)     H(rot)  DE(clash)    DE(int)     intcor
     12.60     -13.73       1.04        0.00      90.52       2.27       0.17       0.97       ----

> <Gold.Chemscore.Fitness>
12.5966

> <Gold.Chemscore.DG>
-13.7346

> <Gold.Chemscore.ZeroCoef>
-5.4800

> <Gold.Chemscore.Hbond>
1.0422

> <Gold.Chemscore.Metal>
0.0000

> <Gold.Chemscore.Lipo>
90.5235

> <Gold.Chemscore.Internal_Hbond>
0.0000

> <Gold.Chemscore.DEClash>
0.1688

> <Gold.Chemscore.DEInternal>
0.9692

> <Gold.Chemscore.Rot>
2.2725

> <Gold.Chemscore.Internal.Correction>
   9.000000E+99

> <Gold.Chemscore.Hbonds>
donor molecule, donor type, donor heavy atom, donor atom, acceptor molecule, acceptor atom, score
      L1  H     3    37       P1  8028  1.00
      P1  H  7989  7998       L1    15  0.02

> <Gold.Chemscore.Hbond.Weighted>
-3.4810

> <Gold.Chemscore.Metal.Weighted>
-0.0000

> <Gold.Chemscore.Lipo.Weighted>
-10.5913

> <Gold.Chemscore.Internal_Hbond.Weighted>
0.0000

> <Gold.Chemscore.DEClash.Weighted>
0.1688

> <Gold.Chemscore.DEInternal.Weighted>
0.9692

> <Gold.Chemscore.Rot.Weighted>
5.8176

> <Gold.Chemscore.Internal.Correction.Weighted>
   9.000000E+99

> <Gold.Protein.RotatedTorsions>
[ 6907 6896 6895 6894 ] final   79.69 input  -60.11 | X-H torsion
[ 7974 7965 7964 7962 ] final  -50.20 input  175.53 | X-H torsion
[ 8008 7997 7996 7995 ] final  -12.08 input   59.86 | X-H torsion
[ 10167 10162 10161 10158 ] final   71.58 input  -65.29 | X-H torsion
[ 10718 10713 10712 10709 ] final   52.20 input   66.30 | X-H torsion
[ 10763 10752 10751 10750 ] final  -37.14 input  -60.55 | X-H torsion
[ 11005 11000 10999 10996 ] final -160.47 input  -57.11 | X-H torsion

> <Gold.Protein.ActiveResidues>
 VAL166  LYS551  ARG553  GLY616  TRP617  ASP618  TYR619  PRO620  LYS621  CYS622 
 ASP623  PHE694  ASN695  SER759  ASP760  ASP761  ALA762  ILE779  LEU786  VAL792 
 PHE793  MET794  SER795  GLU796  ALA797  LYS798  CYS799  TRP800  GLU811  SER814 

> <Gold.Protein.RotatedAtoms>
  152.5208  134.3473  159.9238 H   0  0  0  0  0  0  0  0  0  0  0  0  # atno 6907 bound_to 6896
  151.3423  133.3951  159.2680 H   0  0  0  0  0  0  0  0  0  0  0  0  # atno 6908 bound_to 6896
  150.9793  134.9170  159.7893 H   0  0  0  0  0  0  0  0  0  0  0  0  # atno 6909 bound_to 6896
  145.9324  140.7737  142.9593 H   0  0  0  0  0  0  0  0  0  0  0  0  # atno 7974 bound_to 7965
  154.5409  140.2285  155.8644 H   0  0  0  0  0  0  0  0  0  0  0  0  # atno 8008 bound_to 7997
  156.1857  140.3089  155.9196 H   0  0  0  0  0  0  0  0  0  0  0  0  # atno 8009 bound_to 7997
  155.3261  140.0443  157.3031 H   0  0  0  0  0  0  0  0  0  0  0  0  # atno 8010 bound_to 7997
  140.0445  144.5362  150.7409 H   0  0  0  0  0  0  0  0  0  0  0  0  # atno 10167 bound_to 10162
  157.5052  130.8464  149.8366 H   0  0  0  0  0  0  0  0  0  0  0  0  # atno 10718 bound_to 10713
  153.8913  135.6812  153.4760 H   0  0  0  0  0  0  0  0  0  0  0  0  # atno 10763 bound_to 10752
  153.1179  135.4753  154.9144 H   0  0  0  0  0  0  0  0  0  0  0  0  # atno 10764 bound_to 10752
  154.7621  135.3213  154.8311 H   0  0  0  0  0  0  0  0  0  0  0  0  # atno 10765 bound_to 10752
  140.6312  134.4649  157.5229 H   0  0  0  0  0  0  0  0  0  0  0  0  # atno 11005 bound_to 11000
  144.6767  140.2149  143.7373 LP  0  0  0  0  0  0  0  0  0  0  0  0  # atno 17320 bound_to 7965
  145.8408  139.2129  143.1828 LP  0  0  0  0  0  0  0  0  0  0  0  0  # atno 17321 bound_to 7965
  140.7245  143.2622  151.4167 LP  0  0  0  0  0  0  0  0  0  0  0  0  # atno 17342 bound_to 10162
  139.5992  144.1331  152.2179 LP  0  0  0  0  0  0  0  0  0  0  0  0  # atno 17343 bound_to 10162
  156.0254  130.3781  150.1839 LP  0  0  0  0  0  0  0  0  0  0  0  0  # atno 17370 bound_to 10713
  157.0029  130.9927  151.3386 LP  0  0  0  0  0  0  0  0  0  0  0  0  # atno 17371 bound_to 10713
  139.9115  134.8334  156.1511 LP  0  0  0  0  0  0  0  0  0  0  0  0  # atno 17394 bound_to 11000
  141.0674  133.6813  156.2072 LP  0  0  0  0  0  0  0  0  0  0  0  0  # atno 17395 bound_to 11000

$$$$
