AV-unprocessed.smi:128|AV-procd|sdf|1155|dock5
  -GOLD-   2262018293D 1   1.00000     0.00000
 Structure written by MMmdl.
 41 44  0  0  0  0  0  0  0  0  1 V2000
  154.1828  137.8856  162.4870 O   0  0  0  0  0  0  0  0  0  0  0  0
  154.0974  136.6748  162.6994 C   0  0  0  0  0  0  0  0  0  0  0  0
  153.8899  136.1066  164.0270 C   0  0  0  0  0  0  0  0  0  0  0  0
  153.8018  136.9207  165.0925 F   0  0  0  0  0  0  0  0  0  0  0  0
  153.7835  134.7722  164.2049 C   0  0  0  0  0  0  0  0  0  0  0  0
  153.8596  133.8625  163.1650 N   0  0  0  0  0  0  0  0  0  0  0  0
  153.7176  132.3834  163.4336 C   0  0  2  0  0  0  0  0  0  0  0  0
  152.3246  132.0689  163.9953 C   0  0  0  0  0  0  0  0  0  0  0  0
  152.6107  131.8340  165.4647 C   0  0  0  0  0  0  0  0  0  0  0  0
  154.0253  131.2705  165.4203 C   0  0  0  0  0  0  0  0  0  0  0  0
  154.6657  132.0145  164.3918 O   0  0  0  0  0  0  0  0  0  0  0  0
  154.0469  134.3215  161.8428 C   0  0  0  0  0  0  0  0  0  0  0  0
  154.0751  133.5358  160.8927 O   0  0  0  0  0  0  0  0  0  0  0  0
  154.1797  135.7182  161.6571 N   0  0  0  0  0  0  0  0  0  0  0  0
  154.3701  136.2038  160.2989 C   0  0  0  0  0  0  0  0  0  0  0  0
  153.3243  137.2049  159.9030 C   0  0  0  0  0  0  0  0  0  0  0  0
  152.0333  136.9994  159.6253 N   0  0  0  0  0  0  0  0  0  0  0  0
  151.5116  138.2368  159.3268 N   0  0  0  0  0  0  0  0  0  0  0  0
  152.5206  139.1061  159.4477 C   0  0  0  0  0  0  0  0  0  0  0  0
  152.5012  140.5548  159.2479 C   0  0  0  0  0  0  0  0  0  0  0  0
  151.4442  141.1758  158.5430 C   0  0  0  0  0  0  0  0  0  0  0  0
  151.4370  142.5715  158.3534 C   0  0  0  0  0  0  0  0  0  0  0  0
  152.4853  143.3587  158.8665 C   0  0  0  0  0  0  0  0  0  0  0  0
  152.4769  145.2439  158.6075 Br  0  0  0  0  0  0  0  0  0  0  0  0
  153.5405  142.7488  159.5709 C   0  0  0  0  0  0  0  0  0  0  0  0
  153.5483  141.3532  159.7608 C   0  0  0  0  0  0  0  0  0  0  0  0
  153.6887  138.5090  159.8088 O   0  0  0  0  0  0  0  0  0  0  0  0
  153.6285  134.4065  165.2089 H   0  0  0  0  0  0  0  0  0  0  0  0
  153.9353  131.8591  162.5025 H   0  0  0  0  0  0  0  0  0  0  0  0
  151.6103  132.8717  163.8076 H   0  0  0  0  0  0  0  0  0  0  0  0
  151.9594  131.1552  163.5250 H   0  0  0  0  0  0  0  0  0  0  0  0
  152.5966  132.7788  166.0091 H   0  0  0  0  0  0  0  0  0  0  0  0
  151.8971  131.1582  165.9367 H   0  0  0  0  0  0  0  0  0  0  0  0
  154.5498  131.3670  166.3711 H   0  0  0  0  0  0  0  0  0  0  0  0
  154.0087  130.2154  165.1428 H   0  0  0  0  0  0  0  0  0  0  0  0
  155.3672  136.6371  160.2138 H   0  0  0  0  0  0  0  0  0  0  0  0
  154.3585  135.3450  159.6256 H   0  0  0  0  0  0  0  0  0  0  0  0
  150.6302  140.5915  158.1399 H   0  0  0  0  0  0  0  0  0  0  0  0
  150.6263  143.0370  157.8126 H   0  0  0  0  0  0  0  0  0  0  0  0
  154.3457  143.3508  159.9654 H   0  0  0  0  0  0  0  0  0  0  0  0
  154.3661  140.9017  160.3031 H   0  0  0  0  0  0  0  0  0  0  0  0
  1  2  2  0  0  0  0
  2 14  1  0  0  0  0
  2  3  1  0  0  0  0
  3  4  1  0  0  0  0
  3  5  2  0  0  0  0
  5  6  1  0  0  0  0
  5 28  1  0  0  0  0
  6  7  1  0  0  0  0
  6 12  1  0  0  0  0
  7 11  1  0  0  0  0
  7  8  1  0  0  0  0
  7 29  1  0  0  0  0
  8  9  1  0  0  0  0
  8 30  1  0  0  0  0
  8 31  1  0  0  0  0
  9 10  1  0  0  0  0
  9 32  1  0  0  0  0
  9 33  1  0  0  0  0
 10 11  1  0  0  0  0
 10 34  1  0  0  0  0
 10 35  1  0  0  0  0
 12 13  2  0  0  0  0
 12 14  1  0  0  0  0
 14 15  1  0  0  0  0
 15 16  1  0  0  0  0
 15 36  1  0  0  0  0
 15 37  1  0  0  0  0
 16 27  1  0  0  0  0
 16 17  2  0  0  0  0
 17 18  1  0  0  0  0
 18 19  2  0  0  0  0
 19 20  1  0  0  0  0
 19 27  1  0  0  0  0
 20 26  1  0  0  0  0
 20 21  2  0  0  0  0
 21 22  1  0  0  0  0
 21 38  1  0  0  0  0
 22 23  2  0  0  0  0
 22 39  1  0  0  0  0
 23 24  1  0  0  0  0
 23 25  1  0  0  0  0
 25 26  2  0  0  0  0
 25 40  1  0  0  0  0
 26 41  1  0  0  0  0
M  END
> <s_m_source_file>
AV-unprocessed.smi

> <i_m_source_file_index>
128

> <i_lp_mmshare_version>
43012

> <i_f3d_flags>
0

> <s_epik_input>
TzFbQ0gyXVtDSDJdW0NIMl1bQ0BIXTFuKFtjSF1jKEYpYzI9TyljKD1PKW4yW0NIMl1jM25uYyhvMyktYzRbY0hdW2NIXWMoQnIpW2NIXVtjSF00

> <s_epik_cmdline>
J2VwaWtfcHl0aG9uJywgJy1waCcsICc3LjAnLCAnLXRuJywgJzgnLCAnLW1hJywgJzIwMCcsICctbWV0YWxfYmluZGluZycsICctaW1hZScsICc8aW5maWxlLm1hZT4nLCAnLW9tYWUnLCAnPG91dGZpbGUubWFlPic=

> <r_lp_tautomer_probability>
1

> <r_epik_Ionization_Penalty>
2.55537e-09

> <r_epik_Ionization_Penalty_Charging>
2.54231e-09

> <r_epik_Ionization_Penalty_Neutral>
1.30653e-11

> <r_epik_State_Penalty>
-0

> <r_epik_Charging_Adjusted_Penalty>
2.54231e-09

> <i_epik_Tot_Q>
0

> <i_epik_Tot_abs_Q>
0

> <r_epik_Metal_State_Penalty>
-0

> <b_epik_Metal_Only>
0

> <s_epik_Chemistry_Notes>
This compound contains an acetal/aminal-like group ( X-CH(R)-Y where X, Y are N, S, or O) that may be acid/base labile, releasing an aldehyde.

> <s_lp_Force_Field>
OPLS_2005

> <r_lp_Energy>
32.4944

> <b_lp_Chiralities_Consistent>
1

> <s_lp_Variant>
AV-unprocessed.smi:128-1

> <Gold.Version>
5.8.1

> <Gold.Id.Protein>
6NUR|6NUR_protein|mol2

> <Gold.PLP.Fitness>
52.1264

> <Gold.PLP.PLP>
-49.7467

> <Gold.PLP.part.hbond>
-1.0000

> <Gold.PLP.part.metal>
0.0000

> <Gold.PLP.part.buried>
-3.2126

> <Gold.PLP.part.nonpolar>
-46.2188

> <Gold.PLP.part.repulsive>
0.0000

> <Gold.PLP.ligand.clash>
0.0000

> <Gold.PLP.ligand.torsion>
0.3265

> <Gold.PLP.Chemscore.Hbond>
1.0000

> <Gold.PLP.Chemscore.CHOScore>
0.0000

> <Gold.PLP.Chemscore.Metal>
0.0000

> <Gold.Chemscore.Hbonds>
donor molecule, donor type, donor heavy atom, donor atom, acceptor molecule, acceptor atom, score
      P1  H  6896  6907       L1    13  0.08
      P1  H  6896  6909       L1    17  1.00

> <Gold.PLP.Chemscore.Internal.Correction>
0.0327

> <Gold.Rescore>
     Score         DG    S(hbond)    S(metal)    S(lipo)     H(rot)  DE(clash)    DE(int)     intcor
     14.56     -18.43       0.98        0.00     119.80       1.70       1.11       2.75       ----

> <Gold.Chemscore.Fitness>
14.5608

> <Gold.Chemscore.DG>
-18.4256

> <Gold.Chemscore.ZeroCoef>
-5.4800

> <Gold.Chemscore.Hbond>
0.9808

> <Gold.Chemscore.Metal>
0.0000

> <Gold.Chemscore.Lipo>
119.7990

> <Gold.Chemscore.Internal_Hbond>
0.0000

> <Gold.Chemscore.DEClash>
1.1117

> <Gold.Chemscore.DEInternal>
2.7531

> <Gold.Chemscore.Rot>
1.6980

> <Gold.Chemscore.Internal.Correction>
   9.000000E+99

> <Gold.Chemscore.Hbonds>
donor molecule, donor type, donor heavy atom, donor atom, acceptor molecule, acceptor atom, score
      P1  H  6896  6907       L1    13  0.08
      P1  H  6896  6909       L1    17  0.25

> <Gold.Chemscore.Hbond.Weighted>
-3.2760

> <Gold.Chemscore.Metal.Weighted>
-0.0000

> <Gold.Chemscore.Lipo.Weighted>
-14.0165

> <Gold.Chemscore.Internal_Hbond.Weighted>
0.0000

> <Gold.Chemscore.DEClash.Weighted>
1.1117

> <Gold.Chemscore.DEInternal.Weighted>
2.7531

> <Gold.Chemscore.Rot.Weighted>
4.3469

> <Gold.Chemscore.Internal.Correction.Weighted>
   9.000000E+99

> <Gold.Protein.RotatedTorsions>
[ 6907 6896 6895 6894 ] final  140.47 input  -60.11 | X-H torsion
[ 7974 7965 7964 7962 ] final  114.41 input  175.53 | X-H torsion
[ 8008 7997 7996 7995 ] final   -1.25 input   59.86 | X-H torsion
[ 10167 10162 10161 10158 ] final -175.66 input  -65.29 | X-H torsion
[ 10718 10713 10712 10709 ] final   76.99 input   66.30 | X-H torsion
[ 10763 10752 10751 10750 ] final  -84.29 input  -60.55 | X-H torsion
[ 11005 11000 10999 10996 ] final  178.72 input  -57.11 | X-H torsion

> <Gold.Protein.ActiveResidues>
 VAL166  LYS551  ARG553  GLY616  TRP617  ASP618  TYR619  PRO620  LYS621  CYS622 
 ASP623  PHE694  ASN695  SER759  ASP760  ASP761  ALA762  ILE779  LEU786  VAL792 
 PHE793  MET794  SER795  GLU796  ALA797  LYS798  CYS799  TRP800  GLU811  SER814 

> <Gold.Protein.RotatedAtoms>
  152.2427  133.5149  159.5279 H   0  0  0  0  0  0  0  0  0  0  0  0  # atno 6907 bound_to 6896
  150.7069  134.1067  159.3994 H   0  0  0  0  0  0  0  0  0  0  0  0  # atno 6908 bound_to 6896
  151.8988  135.0387  160.0555 H   0  0  0  0  0  0  0  0  0  0  0  0  # atno 6909 bound_to 6896
  145.2048  139.2935  143.4299 H   0  0  0  0  0  0  0  0  0  0  0  0  # atno 7974 bound_to 7965
  154.6489  140.2564  155.7236 H   0  0  0  0  0  0  0  0  0  0  0  0  # atno 8008 bound_to 7997
  156.2565  140.2872  156.0835 H   0  0  0  0  0  0  0  0  0  0  0  0  # atno 8009 bound_to 7997
  155.1481  140.0381  157.2805 H   0  0  0  0  0  0  0  0  0  0  0  0  # atno 8010 bound_to 7997
  139.5569  144.1966  152.1174 H   0  0  0  0  0  0  0  0  0  0  0  0  # atno 10167 bound_to 10162
  157.6694  130.9800  150.1576 H   0  0  0  0  0  0  0  0  0  0  0  0  # atno 10718 bound_to 10713
  154.5978  135.5526  153.7343 H   0  0  0  0  0  0  0  0  0  0  0  0  # atno 10763 bound_to 10752
  153.0142  135.6359  154.1758 H   0  0  0  0  0  0  0  0  0  0  0  0  # atno 10764 bound_to 10752
  154.1698  135.2892  155.3064 H   0  0  0  0  0  0  0  0  0  0  0  0  # atno 10765 bound_to 10752
  140.3983  134.6801  157.4547 H   0  0  0  0  0  0  0  0  0  0  0  0  # atno 11005 bound_to 11000
  146.3410  140.2304  142.8593 LP  0  0  0  0  0  0  0  0  0  0  0  0  # atno 17320 bound_to 7965
  144.9913  140.8549  143.5338 LP  0  0  0  0  0  0  0  0  0  0  0  0  # atno 17321 bound_to 7965
  140.1472  144.5148  150.6708 LP  0  0  0  0  0  0  0  0  0  0  0  0  # atno 17342 bound_to 10162
  140.6843  143.2342  151.5301 LP  0  0  0  0  0  0  0  0  0  0  0  0  # atno 17343 bound_to 10162
  156.2360  130.3686  149.8390 LP  0  0  0  0  0  0  0  0  0  0  0  0  # atno 17370 bound_to 10713
  156.6203  130.8624  151.3474 LP  0  0  0  0  0  0  0  0  0  0  0  0  # atno 17371 bound_to 10713
  140.0355  134.6343  155.9049 LP  0  0  0  0  0  0  0  0  0  0  0  0  # atno 17394 bound_to 11000
  141.1866  133.6558  156.5247 LP  0  0  0  0  0  0  0  0  0  0  0  0  # atno 17395 bound_to 11000

$$$$
