AV-unprocessed.smi:701|AV-procd|sdf|3409|dock4
  -GOLD-   22720 0393D 1   1.00000     0.00000
 Structure written by MMmdl.
 49 51  0  0  0  0  0  0  0  0  1 V2000
  151.3011  144.1090  158.7363 C   0  0  0  0  0  0  0  0  0  0  0  0
  151.7325  142.8071  158.0479 C   0  0  0  0  0  0  0  0  0  0  0  0
  150.6952  142.2311  157.2652 O   0  0  0  0  0  0  0  0  0  0  0  0
  151.1172  141.2135  156.3683 C   0  0  1  0  0  0  0  0  0  0  0  0
  151.7929  140.0249  157.0587 C   0  0  0  0  0  0  0  0  0  0  0  0
  151.0703  139.1551  156.0327 C   0  0  1  0  0  0  0  0  0  0  0  0
  150.6155  137.8882  156.5944 N   0  0  0  0  0  0  0  0  0  0  0  0
  150.7004  136.7067  155.9667 C   0  0  0  0  0  0  0  0  0  0  0  0
  151.1752  136.5779  154.8374 O   0  0  0  0  0  0  0  0  0  0  0  0
  150.1354  135.4974  156.7246 C   0  0  0  0  0  0  0  0  0  0  0  0
  149.8323  134.3604  155.8437 N   0  0  0  0  0  0  0  0  0  0  0  0
  149.3067  134.5760  154.5775 C   0  0  0  0  0  0  0  0  0  0  0  0
  149.0169  133.5769  153.7108 C   0  0  0  0  0  0  0  0  0  0  0  0
  149.2523  132.1856  154.0821 C   0  0  0  0  0  0  0  0  0  0  0  0
  149.0211  131.2123  153.3682 O   0  0  0  0  0  0  0  0  0  0  0  0
  149.7840  132.0102  155.3625 N   0  0  0  0  0  0  0  0  0  0  0  0
  150.0871  133.0354  156.2596 C   0  0  0  0  0  0  0  0  0  0  0  0
  150.5587  132.7706  157.3648 O   0  0  0  0  0  0  0  0  0  0  0  0
  149.9784  140.2548  155.9196 C   0  0  0  0  0  0  0  0  0  0  0  0
  148.7543  140.1193  156.8634 C   0  0  0  0  0  0  0  0  0  0  0  0
  147.7609  141.2944  156.7750 C   0  0  0  0  0  0  0  0  0  0  0  0
  147.3035  141.5413  155.3329 C   0  0  0  0  0  0  0  0  0  0  0  0
  148.5045  141.6918  154.3926 C   0  0  0  0  0  0  0  0  0  0  0  0
  149.4379  140.4762  154.4979 C   0  0  0  0  0  0  0  0  0  0  0  0
  149.9662  131.0636  155.6629 H   0  0  0  0  0  0  0  0  0  0  0  0
  152.1500  144.5825  159.2302 H   0  0  0  0  0  0  0  0  0  0  0  0
  150.5427  143.9294  159.4973 H   0  0  0  0  0  0  0  0  0  0  0  0
  150.8971  144.8194  158.0146 H   0  0  0  0  0  0  0  0  0  0  0  0
  152.5628  143.0235  157.3753 H   0  0  0  0  0  0  0  0  0  0  0  0
  152.1071  142.0862  158.7760 H   0  0  0  0  0  0  0  0  0  0  0  0
  151.6888  141.5886  155.5156 H   0  0  0  0  0  0  0  0  0  0  0  0
  152.8798  140.0040  156.9814 H   0  0  0  0  0  0  0  0  0  0  0  0
  151.4561  139.8749  158.0859 H   0  0  0  0  0  0  0  0  0  0  0  0
  151.6586  139.0492  155.1177 H   0  0  0  0  0  0  0  0  0  0  0  0
  150.2063  137.9135  157.5171 H   0  0  0  0  0  0  0  0  0  0  0  0
  150.8307  135.1922  157.5095 H   0  0  0  0  0  0  0  0  0  0  0  0
  149.2345  135.8193  157.2488 H   0  0  0  0  0  0  0  0  0  0  0  0
  149.1206  135.5916  154.2583 H   0  0  0  0  0  0  0  0  0  0  0  0
  148.6099  133.8082  152.7372 H   0  0  0  0  0  0  0  0  0  0  0  0
  148.2100  139.2035  156.6301 H   0  0  0  0  0  0  0  0  0  0  0  0
  149.0741  140.0112  157.9002 H   0  0  0  0  0  0  0  0  0  0  0  0
  146.8948  141.0927  157.4059 H   0  0  0  0  0  0  0  0  0  0  0  0
  148.2132  142.2033  157.1700 H   0  0  0  0  0  0  0  0  0  0  0  0
  146.6856  140.7069  154.9995 H   0  0  0  0  0  0  0  0  0  0  0  0
  146.6749  142.4310  155.2860 H   0  0  0  0  0  0  0  0  0  0  0  0
  148.1578  141.8076  153.3653 H   0  0  0  0  0  0  0  0  0  0  0  0
  149.0552  142.6006  154.6393 H   0  0  0  0  0  0  0  0  0  0  0  0
  150.2619  140.6036  153.7950 H   0  0  0  0  0  0  0  0  0  0  0  0
  148.9043  139.5861  154.1617 H   0  0  0  0  0  0  0  0  0  0  0  0
  1  2  1  0  0  0  0
  1 26  1  0  0  0  0
  1 27  1  0  0  0  0
  1 28  1  0  0  0  0
  2  3  1  0  0  0  0
  2 29  1  0  0  0  0
  2 30  1  0  0  0  0
  3  4  1  0  0  0  0
  4 19  1  0  0  0  0
  4  5  1  0  0  0  0
  4 31  1  0  0  0  0
  5  6  1  0  0  0  0
  5 32  1  0  0  0  0
  5 33  1  0  0  0  0
  6  7  1  0  0  0  0
  6 19  1  0  0  0  0
  6 34  1  0  0  0  0
  7  8  1  0  0  0  0
  7 35  1  0  0  0  0
  8  9  2  0  0  0  0
  8 10  1  0  0  0  0
 10 11  1  0  0  0  0
 10 36  1  0  0  0  0
 10 37  1  0  0  0  0
 11 17  1  0  0  0  0
 11 12  1  0  0  0  0
 12 13  2  0  0  0  0
 12 38  1  0  0  0  0
 13 14  1  0  0  0  0
 13 39  1  0  0  0  0
 14 15  2  0  0  0  0
 14 16  1  0  0  0  0
 16 25  1  0  0  0  0
 16 17  1  0  0  0  0
 17 18  2  0  0  0  0
 19 24  1  0  0  0  0
 19 20  1  0  0  0  0
 20 21  1  0  0  0  0
 20 40  1  0  0  0  0
 20 41  1  0  0  0  0
 21 22  1  0  0  0  0
 21 42  1  0  0  0  0
 21 43  1  0  0  0  0
 22 23  1  0  0  0  0
 22 44  1  0  0  0  0
 22 45  1  0  0  0  0
 23 24  1  0  0  0  0
 23 46  1  0  0  0  0
 23 47  1  0  0  0  0
 24 48  1  0  0  0  0
 24 49  1  0  0  0  0
M  END
> <s_m_source_file>
AV-unprocessed.smi

> <i_m_source_file_index>
701

> <i_lp_mmshare_version>
43012

> <i_f3d_flags>
0

> <s_epik_input>
W0NIMl0xW0NIMl1bQ0gyXVtDSDJdW0NIMl1DMTJbQ0BIXShPW0NIMl1bQ0gzXSlbQ0gyXVtDQEhdMltOSF1DKD1PKVtDSDJdbjNbY0hdW2NIXWMoPU8pW25IXWMzPU8=

> <s_epik_cmdline>
J2VwaWtfcHl0aG9uJywgJy1waCcsICc3LjAnLCAnLXRuJywgJzgnLCAnLW1hJywgJzIwMCcsICctbWV0YWxfYmluZGluZycsICctaW1hZScsICc8aW5maWxlLm1hZT4nLCAnLW9tYWUnLCAnPG91dGZpbGUubWFlPic=

> <r_lp_tautomer_probability>
0.999537

> <r_epik_Ionization_Penalty>
0.00304597

> <r_epik_Ionization_Penalty_Charging>
0.00304595

> <r_epik_Ionization_Penalty_Neutral>
1.88422e-08

> <r_epik_State_Penalty>
0.00214084

> <r_epik_Charging_Adjusted_Penalty>
0.00518679

> <i_epik_Tot_Q>
0

> <i_epik_Tot_abs_Q>
0

> <r_epik_Metal_State_Penalty>
0.361872

> <b_epik_Metal_Only>
0

> <s_lp_Force_Field>
OPLS_2005

> <r_lp_Energy>
28.8847

> <b_lp_Chiralities_Consistent>
1

> <s_lp_Variant>
AV-unprocessed.smi:701-2

> <Gold.Version>
5.8.1

> <Gold.Id.Protein>
6NUR|6NUR_protein|mol2

> <Gold.PLP.Fitness>
45.4273

> <Gold.PLP.PLP>
-38.2565

> <Gold.PLP.part.hbond>
-2.0000

> <Gold.PLP.part.metal>
0.0000

> <Gold.PLP.part.buried>
-3.9523

> <Gold.PLP.part.nonpolar>
-31.4301

> <Gold.PLP.part.repulsive>
0.3759

> <Gold.PLP.ligand.clash>
0.0000

> <Gold.PLP.ligand.torsion>
0.8589

> <Gold.PLP.Chemscore.Hbond>
2.0000

> <Gold.PLP.Chemscore.CHOScore>
0.8562

> <Gold.PLP.Chemscore.Metal>
0.0000

> <Gold.Chemscore.Hbonds>
donor molecule, donor type, donor heavy atom, donor atom, acceptor molecule, acceptor atom, score
      P1  H  6896  6907       L1    18  0.88
      P1  H 10752 10763       L1     9  0.98
      L1  C    12    38       P1  7948  0.84

> <Gold.PLP.Chemscore.Internal.Correction>
0.3201

> <Gold.Rescore>
     Score         DG    S(hbond)    S(metal)    S(lipo)     H(rot)  DE(clash)    DE(int)     intcor
     14.58     -16.36       1.95        0.00      83.07       2.09       0.03       1.76       ----

> <Gold.Chemscore.Fitness>
14.5758

> <Gold.Chemscore.DG>
-16.3586

> <Gold.Chemscore.ZeroCoef>
-5.4800

> <Gold.Chemscore.Hbond>
1.9517

> <Gold.Chemscore.Metal>
0.0000

> <Gold.Chemscore.Lipo>
83.0666

> <Gold.Chemscore.Internal_Hbond>
0.0000

> <Gold.Chemscore.DEClash>
0.0272

> <Gold.Chemscore.DEInternal>
1.7555

> <Gold.Chemscore.Rot>
2.0933

> <Gold.Chemscore.Internal.Correction>
   9.000000E+99

> <Gold.Chemscore.Hbonds>
donor molecule, donor type, donor heavy atom, donor atom, acceptor molecule, acceptor atom, score
      P1  H  6896  6907       L1    18  0.83
      P1  H 10752 10763       L1     9  0.92

> <Gold.Chemscore.Hbond.Weighted>
-6.5185

> <Gold.Chemscore.Metal.Weighted>
-0.0000

> <Gold.Chemscore.Lipo.Weighted>
-9.7188

> <Gold.Chemscore.Internal_Hbond.Weighted>
0.0000

> <Gold.Chemscore.DEClash.Weighted>
0.0272

> <Gold.Chemscore.DEInternal.Weighted>
1.7555

> <Gold.Chemscore.Rot.Weighted>
5.3588

> <Gold.Chemscore.Internal.Correction.Weighted>
   9.000000E+99

> <Gold.Protein.RotatedTorsions>
[ 6907 6896 6895 6894 ] final -159.16 input  -60.11 | X-H torsion
[ 7974 7965 7964 7962 ] final  143.80 input  175.53 | X-H torsion
[ 8008 7997 7996 7995 ] final  -97.39 input   59.86 | X-H torsion
[ 10167 10162 10161 10158 ] final  -16.12 input  -65.29 | X-H torsion
[ 10718 10713 10712 10709 ] final   83.96 input   66.30 | X-H torsion
[ 10763 10752 10751 10750 ] final   46.33 input  -60.55 | X-H torsion
[ 11005 11000 10999 10996 ] final   90.20 input  -57.11 | X-H torsion

> <Gold.Protein.ActiveResidues>
 VAL166  LYS551  ARG553  GLY616  TRP617  ASP618  TYR619  PRO620  LYS621  CYS622 
 ASP623  PHE694  ASN695  SER759  ASP760  ASP761  ALA762  ILE779  LEU786  VAL792 
 PHE793  MET794  SER795  GLU796  ALA797  LYS798  CYS799  TRP800  GLU811  SER814 

> <Gold.Protein.RotatedAtoms>
  151.3293  133.4007  159.2660 H   0  0  0  0  0  0  0  0  0  0  0  0  # atno 6907 bound_to 6896
  150.9968  134.9291  159.7942 H   0  0  0  0  0  0  0  0  0  0  0  0  # atno 6908 bound_to 6896
  152.5264  134.3258  159.9217 H   0  0  0  0  0  0  0  0  0  0  0  0  # atno 6909 bound_to 6896
  144.8890  139.5587  143.5807 H   0  0  0  0  0  0  0  0  0  0  0  0  # atno 7974 bound_to 7965
  154.7872  140.0463  157.1173 H   0  0  0  0  0  0  0  0  0  0  0  0  # atno 8008 bound_to 7997
  154.9634  140.3080  155.5000 H   0  0  0  0  0  0  0  0  0  0  0  0  # atno 8009 bound_to 7997
  156.2945  140.2266  156.4722 H   0  0  0  0  0  0  0  0  0  0  0  0  # atno 8010 bound_to 7997
  140.7229  143.5148  150.9705 H   0  0  0  0  0  0  0  0  0  0  0  0  # atno 10167 bound_to 10162
  157.6889  131.0113  150.2602 H   0  0  0  0  0  0  0  0  0  0  0  0  # atno 10718 bound_to 10713
  152.9812  135.6011  154.3583 H   0  0  0  0  0  0  0  0  0  0  0  0  # atno 10763 bound_to 10752
  154.3267  135.2769  155.2494 H   0  0  0  0  0  0  0  0  0  0  0  0  # atno 10764 bound_to 10752
  154.4637  135.5959  153.6329 H   0  0  0  0  0  0  0  0  0  0  0  0  # atno 10765 bound_to 10752
  139.8860  134.8599  156.3250 H   0  0  0  0  0  0  0  0  0  0  0  0  # atno 11005 bound_to 11000
  146.3042  139.7525  142.9069 LP  0  0  0  0  0  0  0  0  0  0  0  0  # atno 17320 bound_to 7965
  145.3818  141.0359  143.3173 LP  0  0  0  0  0  0  0  0  0  0  0  0  # atno 17321 bound_to 7965
  139.8863  143.7009  152.3151 LP  0  0  0  0  0  0  0  0  0  0  0  0  # atno 17342 bound_to 10162
  139.7309  144.7582  151.0804 LP  0  0  0  0  0  0  0  0  0  0  0  0  # atno 17343 bound_to 10162
  156.3183  130.3782  149.7598 LP  0  0  0  0  0  0  0  0  0  0  0  0  # atno 17370 bound_to 10713
  156.5177  130.8201  151.3192 LP  0  0  0  0  0  0  0  0  0  0  0  0  # atno 17371 bound_to 10713
  140.9761  133.7296  156.0604 LP  0  0  0  0  0  0  0  0  0  0  0  0  # atno 17394 bound_to 11000
  140.7809  134.3726  157.5487 LP  0  0  0  0  0  0  0  0  0  0  0  0  # atno 17395 bound_to 11000

$$$$
