AV-unprocessed.smi:1965|AV-procd|sdf|7937|dock9
  -GOLD-   2272010103D 1   1.00000     0.00000
 Structure written by MMmdl.
 37 39  0  0  0  0  0  0  0  0  2 V2000
  145.5300  137.7434  154.3247 O   0  0  0  0  0  0  0  0  0  0  0  0
  146.4713  137.2500  153.7062 C   0  0  0  0  0  0  0  0  0  0  0  0
  147.5930  137.9608  153.4619 N   0  0  0  0  0  0  0  0  0  0  0  0
  147.9597  139.2970  153.7978 C   0  0  0  0  0  0  0  0  0  0  0  0
  149.1884  139.6980  154.1491 N   0  0  0  0  0  0  0  0  0  0  0  0
  149.2389  141.0666  154.4262 C   0  0  0  0  0  0  0  0  0  0  0  0
  148.0298  141.6993  154.2833 C   0  0  0  0  0  0  0  0  0  0  0  0
  146.7740  140.5952  153.7913 S   0  0  0  0  0  0  0  0  0  0  0  0
  146.4507  135.9903  153.2412 N   0  0  0  0  0  0  0  0  0  0  0  0
  145.3532  135.0423  153.4017 C   0  0  1  0  0  0  0  0  0  0  0  0
  143.9752  135.6741  153.1356 C   0  0  0  0  0  0  0  0  0  0  0  0
  143.1622  134.5884  152.4032 C   0  0  0  0  0  0  0  0  0  0  0  0
  144.0325  133.3976  152.3797 N   0  3  1  0  0  0  0  0  0  0  0  0
  143.7840  132.4021  151.3142 C   0  0  0  0  0  0  0  0  0  0  0  0
  144.7315  131.2016  151.5093 C   0  0  0  0  0  0  0  0  0  0  0  0
  146.2051  131.6461  151.6064 C   0  0  0  0  0  0  0  0  0  0  0  0
  146.3853  132.7498  152.6664 C   0  0  0  0  0  0  0  0  0  0  0  0
  145.4124  133.9060  152.3777 C   0  0  2  0  0  0  0  0  0  0  0  0
  148.2914  137.4632  152.9288 H   0  0  0  0  0  0  0  0  0  0  0  0
  150.1792  141.5095  154.7198 H   0  0  0  0  0  0  0  0  0  0  0  0
  147.8025  142.7438  154.4372 H   0  0  0  0  0  0  0  0  0  0  0  0
  147.2665  135.6652  152.7413 H   0  0  0  0  0  0  0  0  0  0  0  0
  145.3500  134.6246  154.4108 H   0  0  0  0  0  0  0  0  0  0  0  0
  143.4980  135.9793  154.0675 H   0  0  0  0  0  0  0  0  0  0  0  0
  144.0570  136.5606  152.5048 H   0  0  0  0  0  0  0  0  0  0  0  0
  142.2181  134.3674  152.9019 H   0  0  0  0  0  0  0  0  0  0  0  0
  142.9402  134.9113  151.3848 H   0  0  0  0  0  0  0  0  0  0  0  0
  142.7453  132.0728  151.3552 H   0  0  0  0  0  0  0  0  0  0  0  0
  143.9408  132.8581  150.3354 H   0  0  0  0  0  0  0  0  0  0  0  0
  144.4568  130.6704  152.4217 H   0  0  0  0  0  0  0  0  0  0  0  0
  144.6082  130.4910  150.6915 H   0  0  0  0  0  0  0  0  0  0  0  0
  146.8408  130.7919  151.8415 H   0  0  0  0  0  0  0  0  0  0  0  0
  146.5351  132.0188  150.6359 H   0  0  0  0  0  0  0  0  0  0  0  0
  146.2030  132.3434  153.6621 H   0  0  0  0  0  0  0  0  0  0  0  0
  147.4151  133.1069  152.6569 H   0  0  0  0  0  0  0  0  0  0  0  0
  145.6276  134.3240  151.3911 H   0  0  0  0  0  0  0  0  0  0  0  0
  143.9034  132.9300  153.2656 H   0  0  0  0  0  0  0  0  0  0  0  0
  1  2  2  0  0  0  0
  2  3  1  0  0  0  0
  2  9  1  0  0  0  0
  3  4  1  0  0  0  0
  3 19  1  0  0  0  0
  4  8  1  0  0  0  0
  4  5  2  0  0  0  0
  5  6  1  0  0  0  0
  6  7  2  0  0  0  0
  6 20  1  0  0  0  0
  7  8  1  0  0  0  0
  7 21  1  0  0  0  0
  9 10  1  0  0  0  0
  9 22  1  0  0  0  0
 10 18  1  0  0  0  0
 10 11  1  0  0  0  0
 10 23  1  0  0  0  0
 11 12  1  0  0  0  0
 11 24  1  0  0  0  0
 11 25  1  0  0  0  0
 12 13  1  0  0  0  0
 12 26  1  0  0  0  0
 12 27  1  0  0  0  0
 13 18  1  0  0  0  0
 13 14  1  0  0  0  0
 13 37  1  0  0  0  0
 14 15  1  0  0  0  0
 14 28  1  0  0  0  0
 14 29  1  0  0  0  0
 15 16  1  0  0  0  0
 15 30  1  0  0  0  0
 15 31  1  0  0  0  0
 16 17  1  0  0  0  0
 16 32  1  0  0  0  0
 16 33  1  0  0  0  0
 17 18  1  0  0  0  0
 17 34  1  0  0  0  0
 17 35  1  0  0  0  0
 18 36  1  0  0  0  0
M  CHG  1  13   1
M  END
> <s_m_source_file>
AV-unprocessed.smi

> <i_m_source_file_index>
1965

> <i_lp_mmshare_version>
43012

> <i_f3d_flags>
0

> <s_epik_input>
czFbY0hdW2NIXW5jMVtOSF1DKD1PKVtOSF1bQ0BIXShbQ0gyXVtDSDJdMilbQ0BASF0oTjIzKVtDSDJdW0NIMl1bQ0gyXVtDSDJdMw==

> <s_epik_cmdline>
J2VwaWtfcHl0aG9uJywgJy1waCcsICc3LjAnLCAnLXRuJywgJzgnLCAnLW1hJywgJzIwMCcsICctbWV0YWxfYmluZGluZycsICctaW1hZScsICc8aW5maWxlLm1hZT4nLCAnLW9tYWUnLCAnPG91dGZpbGUubWFlPic=

> <r_lp_tautomer_probability>
1

> <r_epik_Ionization_Penalty>
0.00125962

> <r_epik_Ionization_Penalty_Charging>
0.00107044

> <r_epik_Ionization_Penalty_Neutral>
0.000189176

> <r_epik_State_Penalty>
-0

> <r_epik_Charging_Adjusted_Penalty>
0.00107044

> <i_epik_Tot_Q>
1

> <i_epik_Tot_abs_Q>
1

> <r_epik_Metal_State_Penalty>
0.0179285

> <b_epik_Metal_Only>
0

> <s_lp_Force_Field>
OPLS_2005

> <r_lp_Energy>
35.2761

> <b_lp_Chiralities_Consistent>
1

> <s_lp_Variant>
AV-unprocessed.smi:1965-6

> <Gold.Version>
5.8.1

> <Gold.Id.Protein>
6NUR|6NUR_protein|mol2

> <Gold.PLP.Fitness>
37.3477

> <Gold.PLP.PLP>
-27.1827

> <Gold.PLP.part.hbond>
-2.4322

> <Gold.PLP.part.metal>
0.0000

> <Gold.PLP.part.buried>
-3.7424

> <Gold.PLP.part.nonpolar>
-21.7669

> <Gold.PLP.part.repulsive>
0.8536

> <Gold.PLP.ligand.clash>
0.0000

> <Gold.PLP.ligand.torsion>
0.5089

> <Gold.PLP.Chemscore.Hbond>
2.7245

> <Gold.PLP.Chemscore.CHOScore>
1.0000

> <Gold.PLP.Chemscore.Metal>
0.0000

> <Gold.Chemscore.Hbonds>
donor molecule, donor type, donor heavy atom, donor atom, acceptor molecule, acceptor atom, score
      L1  H     3    19       P1  7948  1.00
      L1  H     9    22       P1  7948  0.91
      L1  H    13    37       P1 10957  0.81
      L1  C     7    21       P1  8028  1.00

> <Gold.PLP.Chemscore.Internal.Correction>
0.0093

> <Gold.Rescore>
     Score         DG    S(hbond)    S(metal)    S(lipo)     H(rot)  DE(clash)    DE(int)     intcor
     17.47     -17.71       2.46        0.00      56.18       1.00       0.00       0.25       ----

> <Gold.Chemscore.Fitness>
17.4693

> <Gold.Chemscore.DG>
-17.7150

> <Gold.Chemscore.ZeroCoef>
-5.4800

> <Gold.Chemscore.Hbond>
2.4617

> <Gold.Chemscore.Metal>
0.0000

> <Gold.Chemscore.Lipo>
56.1792

> <Gold.Chemscore.Internal_Hbond>
0.0000

> <Gold.Chemscore.DEClash>
0.0000

> <Gold.Chemscore.DEInternal>
0.2457

> <Gold.Chemscore.Rot>
1.0000

> <Gold.Chemscore.Internal.Correction>
   9.000000E+99

> <Gold.Chemscore.Hbonds>
donor molecule, donor type, donor heavy atom, donor atom, acceptor molecule, acceptor atom, score
      L1  H     3    19       P1  7948  0.99
      L1  H     9    22       P1  7948  0.87
      L1  H    13    37       P1 10957  0.23

> <Gold.Chemscore.Hbond.Weighted>
-8.2220

> <Gold.Chemscore.Metal.Weighted>
-0.0000

> <Gold.Chemscore.Lipo.Weighted>
-6.5730

> <Gold.Chemscore.Internal_Hbond.Weighted>
0.0000

> <Gold.Chemscore.DEClash.Weighted>
0.0000

> <Gold.Chemscore.DEInternal.Weighted>
0.2457

> <Gold.Chemscore.Rot.Weighted>
2.5600

> <Gold.Chemscore.Internal.Correction.Weighted>
   9.000000E+99

> <Gold.Protein.RotatedTorsions>
[ 6907 6896 6895 6894 ] final -141.44 input  -60.11 | X-H torsion
[ 7974 7965 7964 7962 ] final  -76.83 input  175.53 | X-H torsion
[ 8008 7997 7996 7995 ] final  158.33 input   59.86 | X-H torsion
[ 10167 10162 10161 10158 ] final    5.56 input  -65.29 | X-H torsion
[ 10718 10713 10712 10709 ] final   29.20 input   66.30 | X-H torsion
[ 10763 10752 10751 10750 ] final  113.89 input  -60.55 | X-H torsion
[ 11005 11000 10999 10996 ] final  113.13 input  -57.11 | X-H torsion

> <Gold.Protein.ActiveResidues>
 VAL166  LYS551  ARG553  GLY616  TRP617  ASP618  TYR619  PRO620  LYS621  CYS622 
 ASP623  PHE694  ASN695  SER759  ASP760  ASP761  ALA762  ILE779  LEU786  VAL792 
 PHE793  MET794  SER795  GLU796  ALA797  LYS798  CYS799  TRP800  GLU811  SER814 

> <Gold.Protein.RotatedAtoms>
  151.0738  133.5445  159.2625 H   0  0  0  0  0  0  0  0  0  0  0  0  # atno 6907 bound_to 6896
  151.2374  135.0576  159.9021 H   0  0  0  0  0  0  0  0  0  0  0  0  # atno 6908 bound_to 6896
  152.5415  134.0518  159.8167 H   0  0  0  0  0  0  0  0  0  0  0  0  # atno 6909 bound_to 6896
  145.6078  140.9394  143.1206 H   0  0  0  0  0  0  0  0  0  0  0  0  # atno 7974 bound_to 7965
  156.2309  140.1861  156.7244 H   0  0  0  0  0  0  0  0  0  0  0  0  # atno 8008 bound_to 7997
  154.6021  140.0634  156.9410 H   0  0  0  0  0  0  0  0  0  0  0  0  # atno 8009 bound_to 7997
  155.2157  140.3303  155.4325 H   0  0  0  0  0  0  0  0  0  0  0  0  # atno 8010 bound_to 7997
  140.6475  143.7626  150.7522 H   0  0  0  0  0  0  0  0  0  0  0  0  # atno 10167 bound_to 10162
  157.2434  130.7080  149.6370 H   0  0  0  0  0  0  0  0  0  0  0  0  # atno 10718 bound_to 10713
  153.4991  135.3642  155.2531 H   0  0  0  0  0  0  0  0  0  0  0  0  # atno 10763 bound_to 10752
  154.8748  135.3995  154.3499 H   0  0  0  0  0  0  0  0  0  0  0  0  # atno 10764 bound_to 10752
  153.4132  135.7078  153.6411 H   0  0  0  0  0  0  0  0  0  0  0  0  # atno 10765 bound_to 10752
  139.8945  134.9544  156.6691 H   0  0  0  0  0  0  0  0  0  0  0  0  # atno 11005 bound_to 11000
  144.7283  139.7806  143.7357 LP  0  0  0  0  0  0  0  0  0  0  0  0  # atno 17320 bound_to 7965
  146.1528  139.4616  143.0038 LP  0  0  0  0  0  0  0  0  0  0  0  0  # atno 17321 bound_to 7965
  140.1270  143.4560  152.2278 LP  0  0  0  0  0  0  0  0  0  0  0  0  # atno 17342 bound_to 10162
  139.5687  144.7450  151.3950 LP  0  0  0  0  0  0  0  0  0  0  0  0  # atno 17343 bound_to 10162
  155.9669  130.4450  150.5486 LP  0  0  0  0  0  0  0  0  0  0  0  0  # atno 17370 bound_to 10713
  157.3354  131.0707  151.1829 LP  0  0  0  0  0  0  0  0  0  0  0  0  # atno 17371 bound_to 10713
  140.7387  133.8996  155.8262 LP  0  0  0  0  0  0  0  0  0  0  0  0  # atno 17394 bound_to 11000
  141.0095  134.1040  157.4236 LP  0  0  0  0  0  0  0  0  0  0  0  0  # atno 17395 bound_to 11000

$$$$
