AV-unprocessed.smi:1981|AV-procd|sdf|8019|dock5
  -GOLD-   2272010213D 1   1.00000     0.00000
 Structure written by MMmdl.
 45 46  0  0  0  0  0  0  0  0  1 V2000
  147.6881  136.3864  160.9499 C   0  0  0  0  0  0  0  0  0  0  0  0
  147.0455  137.2709  160.0487 O   0  0  0  0  0  0  0  0  0  0  0  0
  147.4085  137.0283  158.7004 C   0  0  0  0  0  0  0  0  0  0  0  0
  146.5859  137.9508  157.7888 C   0  0  0  0  0  0  0  0  0  0  0  0
  147.3036  138.2584  156.5479 N   0  0  0  0  0  0  0  0  0  0  0  0
  148.4234  139.0528  156.7272 N   0  0  0  0  0  0  0  0  0  0  0  0
  149.1501  139.3916  155.7115 C   0  0  0  0  0  0  0  0  0  0  0  0
  150.3620  140.2436  155.8631 C   0  0  0  0  0  0  0  0  0  0  0  0
  151.2564  140.2601  155.0157 O   0  0  0  0  0  0  0  0  0  0  0  0
  150.4059  140.9851  156.9848 N   0  0  0  0  0  0  0  0  0  0  0  0
  151.4823  141.8973  157.3568 C   0  0  0  0  0  0  0  0  0  0  0  0
  151.9755  141.6052  158.7933 C   0  0  0  0  0  0  0  0  0  0  0  0
  152.9557  142.6873  159.2797 C   0  0  0  0  0  0  0  0  0  0  0  0
  152.3021  143.9967  159.1756 N   0  0  0  0  0  0  0  0  0  0  0  0
  151.8920  144.6983  160.2595 C   0  0  0  0  0  0  0  0  0  0  0  0
  152.1980  144.1604  161.6591 C   0  0  0  0  0  0  0  0  0  0  0  0
  151.2823  145.7643  160.1703 O   0  0  0  0  0  0  0  0  0  0  0  0
  152.0229  144.3500  157.7783 C   0  0  0  0  0  0  0  0  0  0  0  0
  150.9932  143.3550  157.2138 C   0  0  0  0  0  0  0  0  0  0  0  0
  148.8076  138.9480  154.3707 C   0  0  0  0  0  0  0  0  0  0  0  0
  147.7156  138.1683  154.2123 C   0  0  0  0  0  0  0  0  0  0  0  0
  146.8799  137.7662  155.3449 C   0  0  0  0  0  0  0  0  0  0  0  0
  145.8882  137.0470  155.2281 O   0  0  0  0  0  0  0  0  0  0  0  0
  147.3800  136.6142  161.9702 H   0  0  0  0  0  0  0  0  0  0  0  0
  148.7728  136.4872  160.8957 H   0  0  0  0  0  0  0  0  0  0  0  0
  147.4220  135.3495  160.7410 H   0  0  0  0  0  0  0  0  0  0  0  0
  148.4743  137.2181  158.5628 H   0  0  0  0  0  0  0  0  0  0  0  0
  147.2241  135.9827  158.4486 H   0  0  0  0  0  0  0  0  0  0  0  0
  145.6187  137.4953  157.5692 H   0  0  0  0  0  0  0  0  0  0  0  0
  146.3560  138.8749  158.3224 H   0  0  0  0  0  0  0  0  0  0  0  0
  149.6304  140.9104  157.6275 H   0  0  0  0  0  0  0  0  0  0  0  0
  152.3194  141.7596  156.6698 H   0  0  0  0  0  0  0  0  0  0  0  0
  151.1245  141.5627  159.4752 H   0  0  0  0  0  0  0  0  0  0  0  0
  152.4545  140.6265  158.8375 H   0  0  0  0  0  0  0  0  0  0  0  0
  153.2881  142.4595  160.2933 H   0  0  0  0  0  0  0  0  0  0  0  0
  153.8566  142.6811  158.6644 H   0  0  0  0  0  0  0  0  0  0  0  0
  153.2725  144.0421  161.8016 H   0  0  0  0  0  0  0  0  0  0  0  0
  151.7095  143.1990  161.8190 H   0  0  0  0  0  0  0  0  0  0  0  0
  151.8354  144.8494  162.4229 H   0  0  0  0  0  0  0  0  0  0  0  0
  151.6641  145.3698  157.6487 H   0  0  0  0  0  0  0  0  0  0  0  0
  152.9481  144.2936  157.2030 H   0  0  0  0  0  0  0  0  0  0  0  0
  150.7927  143.5810  156.1660 H   0  0  0  0  0  0  0  0  0  0  0  0
  150.0479  143.4829  157.7439 H   0  0  0  0  0  0  0  0  0  0  0  0
  149.4065  139.2294  153.5166 H   0  0  0  0  0  0  0  0  0  0  0  0
  147.4500  137.8303  153.2214 H   0  0  0  0  0  0  0  0  0  0  0  0
  1  2  1  0  0  0  0
  1 24  1  0  0  0  0
  1 25  1  0  0  0  0
  1 26  1  0  0  0  0
  2  3  1  0  0  0  0
  3  4  1  0  0  0  0
  3 27  1  0  0  0  0
  3 28  1  0  0  0  0
  4  5  1  0  0  0  0
  4 29  1  0  0  0  0
  4 30  1  0  0  0  0
  5 22  1  0  0  0  0
  5  6  1  0  0  0  0
  6  7  2  0  0  0  0
  7  8  1  0  0  0  0
  7 20  1  0  0  0  0
  8  9  2  0  0  0  0
  8 10  1  0  0  0  0
 10 11  1  0  0  0  0
 10 31  1  0  0  0  0
 11 19  1  0  0  0  0
 11 12  1  0  0  0  0
 11 32  1  0  0  0  0
 12 13  1  0  0  0  0
 12 33  1  0  0  0  0
 12 34  1  0  0  0  0
 13 14  1  0  0  0  0
 13 35  1  0  0  0  0
 13 36  1  0  0  0  0
 14 15  1  0  0  0  0
 14 18  1  0  0  0  0
 15 16  1  0  0  0  0
 15 17  2  0  0  0  0
 16 37  1  0  0  0  0
 16 38  1  0  0  0  0
 16 39  1  0  0  0  0
 18 19  1  0  0  0  0
 18 40  1  0  0  0  0
 18 41  1  0  0  0  0
 19 42  1  0  0  0  0
 19 43  1  0  0  0  0
 20 21  2  0  0  0  0
 20 44  1  0  0  0  0
 21 22  1  0  0  0  0
 21 45  1  0  0  0  0
 22 23  2  0  0  0  0
M  END
> <s_m_source_file>
AV-unprocessed.smi

> <i_m_source_file_index>
1981

> <i_lp_mmshare_version>
43012

> <i_f3d_flags>
0

> <s_epik_input>
W0NIM11PW0NIMl1bQ0gyXW4xbmMoW2NIXVtjSF1jMT1PKUMoPU8pW05IXVtDSF0yW0NIMl1bQ0gyXU4oQyg9TylbQ0gzXSlbQ0gyXVtDSDJdMg==

> <s_epik_cmdline>
J2VwaWtfcHl0aG9uJywgJy1waCcsICc3LjAnLCAnLXRuJywgJzgnLCAnLW1hJywgJzIwMCcsICctbWV0YWxfYmluZGluZycsICctaW1hZScsICc8aW5maWxlLm1hZT4nLCAnLW9tYWUnLCAnPG91dGZpbGUubWFlPic=

> <r_lp_tautomer_probability>
1

> <r_epik_Ionization_Penalty>
2.32097e-06

> <r_epik_Ionization_Penalty_Charging>
6.14723e-09

> <r_epik_Ionization_Penalty_Neutral>
2.31482e-06

> <r_epik_State_Penalty>
-0

> <r_epik_Charging_Adjusted_Penalty>
6.14723e-09

> <i_epik_Tot_Q>
0

> <i_epik_Tot_abs_Q>
0

> <r_epik_Metal_State_Penalty>
-0

> <b_epik_Metal_Only>
0

> <s_lp_Force_Field>
OPLS_2005

> <r_lp_Energy>
40.8399

> <b_lp_Chiralities_Consistent>
1

> <s_lp_Variant>
AV-unprocessed.smi:1981-1

> <Gold.Version>
5.8.1

> <Gold.Id.Protein>
6NUR|6NUR_protein|mol2

> <Gold.PLP.Fitness>
42.8272

> <Gold.PLP.PLP>
-37.8995

> <Gold.PLP.part.hbond>
-3.4296

> <Gold.PLP.part.metal>
0.0000

> <Gold.PLP.part.buried>
-3.4845

> <Gold.PLP.part.nonpolar>
-31.8164

> <Gold.PLP.part.repulsive>
0.3184

> <Gold.PLP.ligand.clash>
0.0000

> <Gold.PLP.ligand.torsion>
0.5490

> <Gold.PLP.Chemscore.Hbond>
2.0000

> <Gold.PLP.Chemscore.CHOScore>
0.0000

> <Gold.PLP.Chemscore.Metal>
0.0000

> <Gold.Chemscore.Hbonds>
donor molecule, donor type, donor heavy atom, donor atom, acceptor molecule, acceptor atom, score
      P1  H  6934  6947       L1     2  1.00
      P1  H  7989  7998       L1     9  1.00

> <Gold.PLP.Chemscore.Internal.Correction>
0.0257

> <Gold.Rescore>
     Score         DG    S(hbond)    S(metal)    S(lipo)     H(rot)  DE(clash)    DE(int)     intcor
     16.52     -17.34       1.95        0.00      82.54       1.69       0.12       0.70       ----

> <Gold.Chemscore.Fitness>
16.5220

> <Gold.Chemscore.DG>
-17.3409

> <Gold.Chemscore.ZeroCoef>
-5.4800

> <Gold.Chemscore.Hbond>
1.9521

> <Gold.Chemscore.Metal>
0.0000

> <Gold.Chemscore.Lipo>
82.5405

> <Gold.Chemscore.Internal_Hbond>
0.0000

> <Gold.Chemscore.DEClash>
0.1231

> <Gold.Chemscore.DEInternal>
0.6959

> <Gold.Chemscore.Rot>
1.6861

> <Gold.Chemscore.Internal.Correction>
   9.000000E+99

> <Gold.Chemscore.Hbonds>
donor molecule, donor type, donor heavy atom, donor atom, acceptor molecule, acceptor atom, score
      P1  H  6934  6947       L1     2  0.48
      P1  H  7989  7998       L1     9  0.98

> <Gold.Chemscore.Hbond.Weighted>
-6.5201

> <Gold.Chemscore.Metal.Weighted>
-0.0000

> <Gold.Chemscore.Lipo.Weighted>
-9.6572

> <Gold.Chemscore.Internal_Hbond.Weighted>
0.0000

> <Gold.Chemscore.DEClash.Weighted>
0.1231

> <Gold.Chemscore.DEInternal.Weighted>
0.6959

> <Gold.Chemscore.Rot.Weighted>
4.3164

> <Gold.Chemscore.Internal.Correction.Weighted>
   9.000000E+99

> <Gold.Protein.RotatedTorsions>
[ 6907 6896 6895 6894 ] final  -38.06 input  -60.11 | X-H torsion
[ 7974 7965 7964 7962 ] final   70.46 input  175.53 | X-H torsion
[ 8008 7997 7996 7995 ] final -102.37 input   59.86 | X-H torsion
[ 10167 10162 10161 10158 ] final -162.78 input  -65.29 | X-H torsion
[ 10718 10713 10712 10709 ] final  -72.96 input   66.30 | X-H torsion
[ 10763 10752 10751 10750 ] final  -17.83 input  -60.55 | X-H torsion
[ 11005 11000 10999 10996 ] final  168.89 input  -57.11 | X-H torsion

> <Gold.Protein.ActiveResidues>
 VAL166  LYS551  ARG553  GLY616  TRP617  ASP618  TYR619  PRO620  LYS621  CYS622 
 ASP623  PHE694  ASN695  SER759  ASP760  ASP761  ALA762  ILE779  LEU786  VAL792 
 PHE793  MET794  SER795  GLU796  ALA797  LYS798  CYS799  TRP800  GLU811  SER814 

> <Gold.Protein.RotatedAtoms>
  151.0071  134.9368  159.7986 H   0  0  0  0  0  0  0  0  0  0  0  0  # atno 6907 bound_to 6896
  152.5293  134.3077  159.9112 H   0  0  0  0  0  0  0  0  0  0  0  0  # atno 6908 bound_to 6896
  151.3083  133.4050  159.2679 H   0  0  0  0  0  0  0  0  0  0  0  0  # atno 6909 bound_to 6896
  145.7779  139.2873  143.1283 H   0  0  0  0  0  0  0  0  0  0  0  0  # atno 7974 bound_to 7965
  154.8557  140.0429  157.1632 H   0  0  0  0  0  0  0  0  0  0  0  0  # atno 8008 bound_to 7997
  154.8895  140.2984  155.5358 H   0  0  0  0  0  0  0  0  0  0  0  0  # atno 8009 bound_to 7997
  156.2997  140.2396  156.3908 H   0  0  0  0  0  0  0  0  0  0  0  0  # atno 8010 bound_to 7997
  139.6367  144.0336  152.2060 H   0  0  0  0  0  0  0  0  0  0  0  0  # atno 10167 bound_to 10162
  156.0299  130.4383  150.2670 H   0  0  0  0  0  0  0  0  0  0  0  0  # atno 10718 bound_to 10713
  153.5799  135.7005  153.5468 H   0  0  0  0  0  0  0  0  0  0  0  0  # atno 10763 bound_to 10752
  153.3270  135.4058  155.1464 H   0  0  0  0  0  0  0  0  0  0  0  0  # atno 10764 bound_to 10752
  154.8619  135.3709  154.5326 H   0  0  0  0  0  0  0  0  0  0  0  0  # atno 10765 bound_to 10752
  140.2920  134.7665  157.3846 H   0  0  0  0  0  0  0  0  0  0  0  0  # atno 11005 bound_to 11000
  146.0104  140.8440  142.9974 LP  0  0  0  0  0  0  0  0  0  0  0  0  # atno 17320 bound_to 7965
  144.6801  140.2481  143.7335 LP  0  0  0  0  0  0  0  0  0  0  0  0  # atno 17321 bound_to 7965
  140.0015  144.6290  150.7725 LP  0  0  0  0  0  0  0  0  0  0  0  0  # atno 17342 bound_to 10162
  140.7469  143.2898  151.3362 LP  0  0  0  0  0  0  0  0  0  0  0  0  # atno 17343 bound_to 10162
  157.0773  131.0133  151.3169 LP  0  0  0  0  0  0  0  0  0  0  0  0  # atno 17370 bound_to 10713
  157.4954  130.7847  149.7550 LP  0  0  0  0  0  0  0  0  0  0  0  0  # atno 17371 bound_to 10713
  140.1187  134.5249  155.8202 LP  0  0  0  0  0  0  0  0  0  0  0  0  # atno 17394 bound_to 11000
  141.2144  133.6749  156.6825 LP  0  0  0  0  0  0  0  0  0  0  0  0  # atno 17395 bound_to 11000

$$$$
