AV-unprocessed.smi:2777|AV-procd|sdf|10708|dock1
  -GOLD-   2272015143D 1   1.00000     0.00000
 Structure written by MMmdl.
 31 32  0  0  0  0  0  0  0  0  1 V2000
  153.9125  139.1468  159.5677 C   0  0  0  0  0  0  0  0  0  0  0  0
  153.2326  140.4561  159.5734 N   0  0  0  0  0  0  0  0  0  0  0  0
  152.5890  140.8571  158.4319 C   0  0  0  0  0  0  0  0  0  0  0  0
  152.5269  140.2012  157.3918 O   0  0  0  0  0  0  0  0  0  0  0  0
  151.9504  142.1730  158.5415 C   0  0  0  0  0  0  0  0  0  0  0  0
  151.9892  142.9176  159.6730 C   0  0  0  0  0  0  0  0  0  0  0  0
  151.3040  144.1169  159.5154 N   0  0  0  0  0  0  0  0  0  0  0  0
  150.8761  144.0285  158.2556 C   0  0  0  0  0  0  0  0  0  0  0  0
  151.2181  142.8993  157.6021 N   0  0  0  0  0  0  0  0  0  0  0  0
  150.8725  142.5702  156.2272 C   0  0  0  0  0  0  0  0  0  0  0  0
  150.2903  141.1488  156.0840 C   0  0  2  0  0  0  0  0  0  0  0  0
  151.0418  140.4055  155.1430 O   0  0  0  0  0  0  0  0  0  0  0  0
  148.8098  141.1530  155.6585 C   0  0  0  0  0  0  0  0  0  0  0  0
  148.3215  139.9127  155.6811 F   0  0  0  0  0  0  0  0  0  0  0  0
  148.1041  141.8881  156.5179 F   0  0  0  0  0  0  0  0  0  0  0  0
  148.6646  141.6688  154.4372 F   0  0  0  0  0  0  0  0  0  0  0  0
  152.6795  142.4077  160.8002 N   0  0  0  0  0  0  0  0  0  0  0  0
  152.6971  143.2411  162.0060 C   0  0  0  0  0  0  0  0  0  0  0  0
  153.3007  141.1832  160.7500 C   0  0  0  0  0  0  0  0  0  0  0  0
  153.9044  140.7424  161.7319 O   0  0  0  0  0  0  0  0  0  0  0  0
  153.8449  138.5970  158.6284 H   0  0  0  0  0  0  0  0  0  0  0  0
  153.4929  138.4969  160.3373 H   0  0  0  0  0  0  0  0  0  0  0  0
  154.9763  139.2702  159.7769 H   0  0  0  0  0  0  0  0  0  0  0  0
  150.2935  144.8109  157.7919 H   0  0  0  0  0  0  0  0  0  0  0  0
  150.1414  143.3021  155.8822 H   0  0  0  0  0  0  0  0  0  0  0  0
  151.7460  142.7034  155.5907 H   0  0  0  0  0  0  0  0  0  0  0  0
  150.3759  140.6355  157.0427 H   0  0  0  0  0  0  0  0  0  0  0  0
  150.5776  139.6052  154.9518 H   0  0  0  0  0  0  0  0  0  0  0  0
  153.2463  142.8111  162.8439 H   0  0  0  0  0  0  0  0  0  0  0  0
  151.6770  143.4226  162.3462 H   0  0  0  0  0  0  0  0  0  0  0  0
  153.1517  144.2070  161.7831 H   0  0  0  0  0  0  0  0  0  0  0  0
  1  2  1  0  0  0  0
  1 21  1  0  0  0  0
  1 22  1  0  0  0  0
  1 23  1  0  0  0  0
  2 19  1  0  0  0  0
  2  3  1  0  0  0  0
  3  4  2  0  0  0  0
  3  5  1  0  0  0  0
  5  9  1  0  0  0  0
  5  6  2  0  0  0  0
  6  7  1  0  0  0  0
  6 17  1  0  0  0  0
  7  8  2  0  0  0  0
  8  9  1  0  0  0  0
  8 24  1  0  0  0  0
  9 10  1  0  0  0  0
 10 11  1  0  0  0  0
 10 25  1  0  0  0  0
 10 26  1  0  0  0  0
 11 12  1  0  0  0  0
 11 13  1  0  0  0  0
 11 27  1  0  0  0  0
 12 28  1  0  0  0  0
 13 14  1  0  0  0  0
 13 15  1  0  0  0  0
 13 16  1  0  0  0  0
 17 18  1  0  0  0  0
 17 19  1  0  0  0  0
 18 29  1  0  0  0  0
 18 30  1  0  0  0  0
 18 31  1  0  0  0  0
 19 20  2  0  0  0  0
M  END
> <s_m_source_file>
AV-unprocessed.smi

> <i_m_source_file_index>
2777

> <i_lp_mmshare_version>
43012

> <i_f3d_flags>
0

> <s_epik_input>
Tz1jMW4oW0NIM10pYyg9TyluKFtDSDNdKWMoYzEyKW5bY0hdbjJbQ0gyXVtDQEhdKFtPSF0pQyhGKShGKUY=

> <s_epik_cmdline>
J2VwaWtfcHl0aG9uJywgJy1waCcsICc3LjAnLCAnLXRuJywgJzgnLCAnLW1hJywgJzIwMCcsICctbWV0YWxfYmluZGluZycsICctaW1hZScsICc8aW5maWxlLm1hZT4nLCAnLW9tYWUnLCAnPG91dGZpbGUubWFlPic=

> <r_epik_Ionization_Penalty>
0.000551612

> <r_epik_Ionization_Penalty_Charging>
2.619e-09

> <r_epik_Ionization_Penalty_Neutral>
0.00055161

> <r_epik_State_Penalty>
0.000345115

> <r_epik_Charging_Adjusted_Penalty>
0.000345118

> <i_epik_Tot_Q>
0

> <i_epik_Tot_abs_Q>
0

> <r_epik_Metal_State_Penalty>
-0

> <b_epik_Metal_Only>
0

> <s_lp_Force_Field>
OPLS_2005

> <r_lp_Energy>
33.5503

> <b_lp_Chiralities_Consistent>
1

> <s_lp_Variant>
AV-unprocessed.smi:2777-1

> <Gold.Version>
5.8.1

> <Gold.Id.Protein>
6NUR|6NUR_protein|mol2

> <Gold.PLP.Fitness>
46.6805

> <Gold.PLP.PLP>
-39.3709

> <Gold.PLP.part.hbond>
-2.0000

> <Gold.PLP.part.metal>
0.0000

> <Gold.PLP.part.buried>
-4.4801

> <Gold.PLP.part.nonpolar>
-31.6198

> <Gold.PLP.part.repulsive>
0.0647

> <Gold.PLP.ligand.clash>
0.0000

> <Gold.PLP.ligand.torsion>
0.8792

> <Gold.PLP.Chemscore.Hbond>
2.0000

> <Gold.PLP.Chemscore.CHOScore>
1.0178

> <Gold.PLP.Chemscore.Metal>
0.0000

> <Gold.Chemscore.Hbonds>
donor molecule, donor type, donor heavy atom, donor atom, acceptor molecule, acceptor atom, score
      P1  H  7989  7998       L1    12  1.00
      P1  H  7997  8008       L1     4  1.00
      L1  C     8    24       P1  8028  0.76
      L1  C     8    24       P1  8029  0.23

> <Gold.PLP.Chemscore.Internal.Correction>
0.0148

> <Gold.Rescore>
     Score         DG    S(hbond)    S(metal)    S(lipo)     H(rot)  DE(clash)    DE(int)     intcor
      9.39     -10.99       1.77        0.00      44.52       2.20       0.00       1.61       ----

> <Gold.Chemscore.Fitness>
9.3860

> <Gold.Chemscore.DG>
-10.9934

> <Gold.Chemscore.ZeroCoef>
-5.4800

> <Gold.Chemscore.Hbond>
1.7749

> <Gold.Chemscore.Metal>
0.0000

> <Gold.Chemscore.Lipo>
44.5236

> <Gold.Chemscore.Internal_Hbond>
0.0000

> <Gold.Chemscore.DEClash>
0.0004

> <Gold.Chemscore.DEInternal>
1.6070

> <Gold.Chemscore.Rot>
2.1969

> <Gold.Chemscore.Internal.Correction>
   9.000000E+99

> <Gold.Chemscore.Hbonds>
donor molecule, donor type, donor heavy atom, donor atom, acceptor molecule, acceptor atom, score
      P1  H  7989  7998       L1    12  0.33
      P1  H  7997  8008       L1     4  0.41

> <Gold.Chemscore.Hbond.Weighted>
-5.9281

> <Gold.Chemscore.Metal.Weighted>
-0.0000

> <Gold.Chemscore.Lipo.Weighted>
-5.2093

> <Gold.Chemscore.Internal_Hbond.Weighted>
0.0000

> <Gold.Chemscore.DEClash.Weighted>
0.0004

> <Gold.Chemscore.DEInternal.Weighted>
1.6070

> <Gold.Chemscore.Rot.Weighted>
5.6239

> <Gold.Chemscore.Internal.Correction.Weighted>
   9.000000E+99

> <Gold.Protein.RotatedTorsions>
[ 6907 6896 6895 6894 ] final  134.33 input  -60.11 | X-H torsion
[ 7974 7965 7964 7962 ] final  -29.27 input  175.53 | X-H torsion
[ 8008 7997 7996 7995 ] final  -69.54 input   59.86 | X-H torsion
[ 10167 10162 10161 10158 ] final -104.35 input  -65.29 | X-H torsion
[ 10718 10713 10712 10709 ] final -173.27 input   66.30 | X-H torsion
[ 10763 10752 10751 10750 ] final  167.52 input  -60.55 | X-H torsion
[ 11005 11000 10999 10996 ] final   68.84 input  -57.11 | X-H torsion

> <Gold.Protein.ActiveResidues>
 VAL166  LYS551  ARG553  GLY616  TRP617  ASP618  TYR619  PRO620  LYS621  CYS622 
 ASP623  PHE694  ASN695  SER759  ASP760  ASP761  ALA762  ILE779  LEU786  VAL792 
 PHE793  MET794  SER795  GLU796  ALA797  LYS798  CYS799  TRP800  GLU811  SER814 

> <Gold.Protein.RotatedAtoms>
  152.3125  133.5767  159.5689 H   0  0  0  0  0  0  0  0  0  0  0  0  # atno 6907 bound_to 6896
  150.7330  134.0131  159.3685 H   0  0  0  0  0  0  0  0  0  0  0  0  # atno 6908 bound_to 6896
  151.8023  135.0706  160.0453 H   0  0  0  0  0  0  0  0  0  0  0  0  # atno 6909 bound_to 6896
  146.1228  140.5391  142.8727 H   0  0  0  0  0  0  0  0  0  0  0  0  # atno 7974 bound_to 7965
  154.4946  140.0851  156.7669 H   0  0  0  0  0  0  0  0  0  0  0  0  # atno 8008 bound_to 7997
  155.4148  140.3443  155.4248 H   0  0  0  0  0  0  0  0  0  0  0  0  # atno 8009 bound_to 7997
  156.1376  140.1520  156.8958 H   0  0  0  0  0  0  0  0  0  0  0  0  # atno 8010 bound_to 7997
  140.2103  143.3752  152.1056 H   0  0  0  0  0  0  0  0  0  0  0  0  # atno 10167 bound_to 10162
  156.7678  130.9437  151.3119 H   0  0  0  0  0  0  0  0  0  0  0  0  # atno 10718 bound_to 10713
  154.3551  135.2753  155.2351 H   0  0  0  0  0  0  0  0  0  0  0  0  # atno 10763 bound_to 10752
  154.4563  135.5918  153.6229 H   0  0  0  0  0  0  0  0  0  0  0  0  # atno 10764 bound_to 10752
  152.9847  135.6054  154.3765 H   0  0  0  0  0  0  0  0  0  0  0  0  # atno 10765 bound_to 10752
  139.9688  134.6935  156.0489 H   0  0  0  0  0  0  0  0  0  0  0  0  # atno 11005 bound_to 11000
  144.7614  140.5430  143.6733 LP  0  0  0  0  0  0  0  0  0  0  0  0  # atno 17320 bound_to 7965
  145.5429  139.1475  143.3437 LP  0  0  0  0  0  0  0  0  0  0  0  0  # atno 17321 bound_to 7965
  139.5183  144.7003  151.5512 LP  0  0  0  0  0  0  0  0  0  0  0  0  # atno 17342 bound_to 10162
  140.6328  143.9042  150.6621 LP  0  0  0  0  0  0  0  0  0  0  0  0  # atno 17343 bound_to 10162
  157.6705  130.9046  150.0029 LP  0  0  0  0  0  0  0  0  0  0  0  0  # atno 17370 bound_to 10713
  156.1297  130.3643  149.9751 LP  0  0  0  0  0  0  0  0  0  0  0  0  # atno 17371 bound_to 10713
  141.1368  133.6573  156.3616 LP  0  0  0  0  0  0  0  0  0  0  0  0  # atno 17394 bound_to 11000
  140.5338  134.6187  157.5358 LP  0  0  0  0  0  0  0  0  0  0  0  0  # atno 17395 bound_to 11000

$$$$
