AV-unprocessed.smi:2567|AV-procd|sdf|10077|dock4
  -GOLD-   2272014103D 1   1.00000     0.00000
 Structure written by MMmdl.
 34 35  0  0  0  0  0  0  0  0  2 V2000
  152.2725  144.5805  157.8038 C   0  0  0  0  0  0  0  0  0  0  0  0
  151.6733  143.3569  158.5244 C   0  0  0  0  0  0  0  0  0  0  0  0
  152.6874  142.8878  159.5917 C   0  0  0  0  0  0  0  0  0  0  0  0
  150.3714  143.7618  159.2418 C   0  0  0  0  0  0  0  0  0  0  0  0
  151.3788  142.2697  157.5182 C   0  0  0  0  0  0  0  0  0  0  0  0
  151.9630  141.0664  157.5374 N   0  0  0  0  0  0  0  0  0  0  0  0
  151.4813  140.3099  156.5292 N   0  0  0  0  0  0  0  0  0  0  0  0
  150.6217  141.1421  155.9456 C   0  0  0  0  0  0  0  0  0  0  0  0
  149.7993  140.6998  154.7758 C   0  0  1  0  0  0  0  0  0  0  0  0
  150.1176  139.2524  154.3555 C   0  0  0  0  0  0  0  0  0  0  0  0
  149.2101  138.8342  153.2695 N   0  3  0  0  0  0  0  0  0  0  0  0
  147.7947  139.0088  153.6512 C   0  0  0  0  0  0  0  0  0  0  0  0
  147.5424  140.4572  154.1066 C   0  0  0  0  0  0  0  0  0  0  0  0
  148.4311  140.7907  155.1681 O   0  0  0  0  0  0  0  0  0  0  0  0
  150.4947  142.3729  156.5282 N   0  0  0  0  0  0  0  0  0  0  0  0
  152.5046  145.3819  158.5063 H   0  0  0  0  0  0  0  0  0  0  0  0
  151.5826  144.9878  157.0639 H   0  0  0  0  0  0  0  0  0  0  0  0
  153.1957  144.3216  157.2840 H   0  0  0  0  0  0  0  0  0  0  0  0
  153.6369  142.5956  159.1413 H   0  0  0  0  0  0  0  0  0  0  0  0
  152.3103  142.0349  160.1571 H   0  0  0  0  0  0  0  0  0  0  0  0
  152.9011  143.6805  160.3099 H   0  0  0  0  0  0  0  0  0  0  0  0
  150.5506  144.5429  159.9816 H   0  0  0  0  0  0  0  0  0  0  0  0
  149.9254  142.9130  159.7615 H   0  0  0  0  0  0  0  0  0  0  0  0
  149.6292  144.1431  158.5394 H   0  0  0  0  0  0  0  0  0  0  0  0
  149.9796  141.3821  153.9426 H   0  0  0  0  0  0  0  0  0  0  0  0
  151.1507  139.1659  154.0177 H   0  0  0  0  0  0  0  0  0  0  0  0
  149.9966  138.5740  155.2015 H   0  0  0  0  0  0  0  0  0  0  0  0
  149.3979  139.4017  152.4551 H   0  0  0  0  0  0  0  0  0  0  0  0
  147.1574  138.7554  152.8039 H   0  0  0  0  0  0  0  0  0  0  0  0
  147.5522  138.3139  154.4561 H   0  0  0  0  0  0  0  0  0  0  0  0
  147.6723  141.1543  153.2773 H   0  0  0  0  0  0  0  0  0  0  0  0
  146.5162  140.5680  154.4571 H   0  0  0  0  0  0  0  0  0  0  0  0
  149.3811  137.8649  153.0424 H   0  0  0  0  0  0  0  0  0  0  0  0
  152.6567  140.7344  158.1926 H   0  0  0  0  0  0  0  0  0  0  0  0
  1  2  1  0  0  0  0
  1 16  1  0  0  0  0
  1 17  1  0  0  0  0
  1 18  1  0  0  0  0
  2  3  1  0  0  0  0
  2  4  1  0  0  0  0
  2  5  1  0  0  0  0
  3 19  1  0  0  0  0
  3 20  1  0  0  0  0
  3 21  1  0  0  0  0
  4 22  1  0  0  0  0
  4 23  1  0  0  0  0
  4 24  1  0  0  0  0
  5 15  2  0  0  0  0
  5  6  1  0  0  0  0
  6  7  1  0  0  0  0
  6 34  1  0  0  0  0
  7  8  2  0  0  0  0
  8  9  1  0  0  0  0
  8 15  1  0  0  0  0
  9 14  1  0  0  0  0
  9 10  1  0  0  0  0
  9 25  1  0  0  0  0
 10 11  1  0  0  0  0
 10 26  1  0  0  0  0
 10 27  1  0  0  0  0
 11 12  1  0  0  0  0
 11 28  1  0  0  0  0
 11 33  1  0  0  0  0
 12 13  1  0  0  0  0
 12 29  1  0  0  0  0
 12 30  1  0  0  0  0
 13 14  1  0  0  0  0
 13 31  1  0  0  0  0
 13 32  1  0  0  0  0
M  CHG  1  11   1
M  END
> <s_m_source_file>
AV-unprocessed.smi

> <i_m_source_file_index>
2567

> <i_lp_mmshare_version>
43012

> <i_f3d_flags>
0

> <s_epik_input>
W0NIM11DKFtDSDNdKShbQ0gzXSljMW5bbkhdYyhuMSlbQ0BASF0yW0NIMl1bTkhdW0NIMl1bQ0gyXU8y

> <s_epik_cmdline>
J2VwaWtfcHl0aG9uJywgJy1waCcsICc3LjAnLCAnLXRuJywgJzgnLCAnLW1hJywgJzIwMCcsICctbWV0YWxfYmluZGluZycsICctaW1hZScsICc8aW5maWxlLm1hZT4nLCAnLW9tYWUnLCAnPG91dGZpbGUubWFlPic=

> <r_lp_tautomer_probability>
0.948284

> <r_epik_Ionization_Penalty>
0.108767

> <r_epik_Ionization_Penalty_Charging>
0.100865

> <r_epik_Ionization_Penalty_Neutral>
0.00790271

> <r_epik_State_Penalty>
0.197684

> <r_epik_Charging_Adjusted_Penalty>
0.298549

> <i_epik_Tot_Q>
1

> <i_epik_Tot_abs_Q>
1

> <r_epik_Metal_State_Penalty>
0.508163

> <b_epik_Metal_Only>
0

> <s_lp_Force_Field>
OPLS_2005

> <r_lp_Energy>
13.5153

> <b_lp_Chiralities_Consistent>
1

> <s_lp_Variant>
AV-unprocessed.smi:2567-2

> <Gold.Version>
5.8.1

> <Gold.Id.Protein>
6NUR|6NUR_protein|mol2

> <Gold.PLP.Fitness>
38.5489

> <Gold.PLP.PLP>
-29.6421

> <Gold.PLP.part.hbond>
-2.0000

> <Gold.PLP.part.metal>
0.0000

> <Gold.PLP.part.buried>
-4.5796

> <Gold.PLP.part.nonpolar>
-24.3541

> <Gold.PLP.part.repulsive>
0.8939

> <Gold.PLP.ligand.clash>
0.0000

> <Gold.PLP.ligand.torsion>
0.0320

> <Gold.PLP.Chemscore.Hbond>
2.9840

> <Gold.PLP.Chemscore.CHOScore>
0.0000

> <Gold.PLP.Chemscore.Metal>
0.0000

> <Gold.Chemscore.Hbonds>
donor molecule, donor type, donor heavy atom, donor atom, acceptor molecule, acceptor atom, score
      L1  H    11    28       P1  7957  0.81
      L1  H    11    33       P1  7948  1.95

> <Gold.PLP.Chemscore.Internal.Correction>
0.0188

> <Gold.Rescore>
     Score         DG    S(hbond)    S(metal)    S(lipo)     H(rot)  DE(clash)    DE(int)     intcor
     16.06     -16.47       1.78        0.00      70.91       1.26       0.16       0.26       ----

> <Gold.Chemscore.Fitness>
16.0577

> <Gold.Chemscore.DG>
-16.4743

> <Gold.Chemscore.ZeroCoef>
-5.4800

> <Gold.Chemscore.Hbond>
1.7772

> <Gold.Chemscore.Metal>
0.0000

> <Gold.Chemscore.Lipo>
70.9058

> <Gold.Chemscore.Internal_Hbond>
0.0000

> <Gold.Chemscore.DEClash>
0.1614

> <Gold.Chemscore.DEInternal>
0.2552

> <Gold.Chemscore.Rot>
1.2647

> <Gold.Chemscore.Internal.Correction>
   9.000000E+99

> <Gold.Chemscore.Hbonds>
donor molecule, donor type, donor heavy atom, donor atom, acceptor molecule, acceptor atom, score
      L1  H    11    28       P1  7957  0.79
      L1  H    11    33       P1  7948  0.82

> <Gold.Chemscore.Hbond.Weighted>
-5.9359

> <Gold.Chemscore.Metal.Weighted>
-0.0000

> <Gold.Chemscore.Lipo.Weighted>
-8.2960

> <Gold.Chemscore.Internal_Hbond.Weighted>
0.0000

> <Gold.Chemscore.DEClash.Weighted>
0.1614

> <Gold.Chemscore.DEInternal.Weighted>
0.2552

> <Gold.Chemscore.Rot.Weighted>
3.2375

> <Gold.Chemscore.Internal.Correction.Weighted>
   9.000000E+99

> <Gold.Protein.RotatedTorsions>
[ 6907 6896 6895 6894 ] final -128.68 input  -60.11 | X-H torsion
[ 7974 7965 7964 7962 ] final   82.99 input  175.53 | X-H torsion
[ 8008 7997 7996 7995 ] final   -4.04 input   59.86 | X-H torsion
[ 10167 10162 10161 10158 ] final -131.56 input  -65.29 | X-H torsion
[ 10718 10713 10712 10709 ] final  165.25 input   66.30 | X-H torsion
[ 10763 10752 10751 10750 ] final -173.90 input  -60.55 | X-H torsion
[ 11005 11000 10999 10996 ] final  -47.05 input  -57.11 | X-H torsion

> <Gold.Protein.ActiveResidues>
 VAL166  LYS551  ARG553  GLY616  TRP617  ASP618  TYR619  PRO620  LYS621  CYS622 
 ASP623  PHE694  ASN695  SER759  ASP760  ASP761  ALA762  ILE779  LEU786  VAL792 
 PHE793  MET794  SER795  GLU796  ALA797  LYS798  CYS799  TRP800  GLU811  SER814 

> <Gold.Protein.RotatedAtoms>
  150.9205  133.6886  159.2832 H   0  0  0  0  0  0  0  0  0  0  0  0  # atno 6907 bound_to 6896
  151.4342  135.1012  159.9661 H   0  0  0  0  0  0  0  0  0  0  0  0  # atno 6908 bound_to 6896
  152.4977  133.8628  159.7314 H   0  0  0  0  0  0  0  0  0  0  0  0  # atno 6909 bound_to 6896
  145.6178  139.2380  143.2156 H   0  0  0  0  0  0  0  0  0  0  0  0  # atno 7974 bound_to 7965
  154.6185  140.2494  155.7579 H   0  0  0  0  0  0  0  0  0  0  0  0  # atno 8008 bound_to 7997
  156.2413  140.2931  156.0400 H   0  0  0  0  0  0  0  0  0  0  0  0  # atno 8009 bound_to 7997
  155.1936  140.0392  157.2895 H   0  0  0  0  0  0  0  0  0  0  0  0  # atno 8010 bound_to 7997
  139.9176  143.6420  152.2561 H   0  0  0  0  0  0  0  0  0  0  0  0  # atno 10167 bound_to 10162
  157.0828  131.0397  151.2568 H   0  0  0  0  0  0  0  0  0  0  0  0  # atno 10718 bound_to 10713
  154.6025  135.2856  155.0520 H   0  0  0  0  0  0  0  0  0  0  0  0  # atno 10763 bound_to 10752
  154.1780  135.6461  153.5030 H   0  0  0  0  0  0  0  0  0  0  0  0  # atno 10764 bound_to 10752
  153.0162  135.5416  154.6749 H   0  0  0  0  0  0  0  0  0  0  0  0  # atno 10765 bound_to 10752
  141.0616  133.6707  156.3241 H   0  0  0  0  0  0  0  0  0  0  0  0  # atno 11005 bound_to 11000
  146.1455  140.6999  142.9347 LP  0  0  0  0  0  0  0  0  0  0  0  0  # atno 17320 bound_to 7965
  144.7243  140.4476  143.6984 LP  0  0  0  0  0  0  0  0  0  0  0  0  # atno 17321 bound_to 7965
  139.6889  144.7649  151.1474 LP  0  0  0  0  0  0  0  0  0  0  0  0  # atno 17342 bound_to 10162
  140.7670  143.5617  150.9091 LP  0  0  0  0  0  0  0  0  0  0  0  0  # atno 17343 bound_to 10162
  157.4786  130.7751  149.7392 LP  0  0  0  0  0  0  0  0  0  0  0  0  # atno 17370 bound_to 10713
  155.9919  130.3934  150.2966 LP  0  0  0  0  0  0  0  0  0  0  0  0  # atno 17371 bound_to 10713
  140.5856  134.5702  157.5489 LP  0  0  0  0  0  0  0  0  0  0  0  0  # atno 17394 bound_to 11000
  139.9438  134.7738  156.0612 LP  0  0  0  0  0  0  0  0  0  0  0  0  # atno 17395 bound_to 11000

$$$$
