AV-unprocessed.smi:3264|AV-procd|sdf|12495|dock5
  -GOLD-   2272018393D 1   1.00000     0.00000
 Structure written by MMmdl.
 32 33  0  0  0  0  0  0  0  0  1 V2000
  152.6715  143.6757  161.9552 C   0  0  0  0  0  0  0  0  0  0  0  0
  152.3684  143.1000  160.6143 C   0  0  0  0  0  0  0  0  0  0  0  0
  151.1603  143.1433  160.0463 N   0  0  0  0  0  0  0  0  0  0  0  0
  151.1337  142.5289  158.7903 C   0  0  0  0  0  0  0  0  0  0  0  0
  149.8581  142.4853  158.0048 C   0  0  0  0  0  0  0  0  0  0  0  0
  150.0605  141.9094  156.5965 C   0  0  0  0  0  0  0  0  0  0  0  0
  148.8001  141.8906  155.8664 N   0  0  0  0  0  0  0  0  0  0  0  0
  148.6611  141.4983  154.5919 C   0  0  0  0  0  0  0  0  0  0  0  0
  149.6021  141.1054  153.9013 O   0  0  0  0  0  0  0  0  0  0  0  0
  147.2372  141.5462  154.0245 C   0  0  1  0  0  0  0  0  0  0  0  0
  146.1741  140.8308  154.8810 C   0  0  0  0  0  0  0  0  0  0  0  0
  145.3033  141.9619  155.3932 C   0  0  0  0  0  0  0  0  0  0  0  0
  145.4547  143.0002  154.2912 C   0  0  0  0  0  0  0  0  0  0  0  0
  146.8314  142.9118  153.9614 O   0  0  0  0  0  0  0  0  0  0  0  0
  152.3506  142.0192  158.4114 C   0  0  0  0  0  0  0  0  0  0  0  0
  153.5741  142.2905  159.6215 S   0  0  0  0  0  0  0  0  0  0  0  0
  151.7952  144.1788  162.3655 H   0  0  0  0  0  0  0  0  0  0  0  0
  153.4840  144.3981  161.8756 H   0  0  0  0  0  0  0  0  0  0  0  0
  152.9725  142.8832  162.6405 H   0  0  0  0  0  0  0  0  0  0  0  0
  149.1171  141.8873  158.5368 H   0  0  0  0  0  0  0  0  0  0  0  0
  149.4350  143.4881  157.9310 H   0  0  0  0  0  0  0  0  0  0  0  0
  150.7830  142.5093  156.0412 H   0  0  0  0  0  0  0  0  0  0  0  0
  150.4658  140.8982  156.6666 H   0  0  0  0  0  0  0  0  0  0  0  0
  147.9752  142.1937  156.3638 H   0  0  0  0  0  0  0  0  0  0  0  0
  147.2284  141.1290  153.0159 H   0  0  0  0  0  0  0  0  0  0  0  0
  145.5847  140.1650  154.2492 H   0  0  0  0  0  0  0  0  0  0  0  0
  146.5785  140.2268  155.6943 H   0  0  0  0  0  0  0  0  0  0  0  0
  144.2681  141.6642  155.5614 H   0  0  0  0  0  0  0  0  0  0  0  0
  145.7062  142.3512  156.3291 H   0  0  0  0  0  0  0  0  0  0  0  0
  144.8507  142.7391  153.4207 H   0  0  0  0  0  0  0  0  0  0  0  0
  145.1819  144.0045  154.6155 H   0  0  0  0  0  0  0  0  0  0  0  0
  152.6012  141.5032  157.4964 H   0  0  0  0  0  0  0  0  0  0  0  0
  1  2  1  0  0  0  0
  1 17  1  0  0  0  0
  1 18  1  0  0  0  0
  1 19  1  0  0  0  0
  2 16  1  0  0  0  0
  2  3  2  0  0  0  0
  3  4  1  0  0  0  0
  4  5  1  0  0  0  0
  4 15  2  0  0  0  0
  5  6  1  0  0  0  0
  5 20  1  0  0  0  0
  5 21  1  0  0  0  0
  6  7  1  0  0  0  0
  6 22  1  0  0  0  0
  6 23  1  0  0  0  0
  7  8  1  0  0  0  0
  7 24  1  0  0  0  0
  8  9  2  0  0  0  0
  8 10  1  0  0  0  0
 10 14  1  0  0  0  0
 10 11  1  0  0  0  0
 10 25  1  0  0  0  0
 11 12  1  0  0  0  0
 11 26  1  0  0  0  0
 11 27  1  0  0  0  0
 12 13  1  0  0  0  0
 12 28  1  0  0  0  0
 12 29  1  0  0  0  0
 13 14  1  0  0  0  0
 13 30  1  0  0  0  0
 13 31  1  0  0  0  0
 15 16  1  0  0  0  0
 15 32  1  0  0  0  0
M  END
> <s_m_source_file>
AV-unprocessed.smi

> <i_m_source_file_index>
3264

> <i_lp_mmshare_version>
43012

> <i_f3d_flags>
0

> <s_epik_input>
W0NIM11jMW5jKFtjSF1zMSlbQ0gyXVtDSDJdW05IXUMoPU8pW0NAQEhdMltDSDJdW0NIMl1bQ0gyXU8y

> <s_epik_cmdline>
J2VwaWtfcHl0aG9uJywgJy1waCcsICc3LjAnLCAnLXRuJywgJzgnLCAnLW1hJywgJzIwMCcsICctbWV0YWxfYmluZGluZycsICctaW1hZScsICc8aW5maWxlLm1hZT4nLCAnLW9tYWUnLCAnPG91dGZpbGUubWFlPic=

> <r_epik_Ionization_Penalty>
0.00112246

> <r_epik_Ionization_Penalty_Charging>
0

> <r_epik_Ionization_Penalty_Neutral>
0.00112246

> <r_epik_State_Penalty>
0.000737392

> <r_epik_Charging_Adjusted_Penalty>
0.000737392

> <i_epik_Tot_Q>
0

> <i_epik_Tot_abs_Q>
0

> <r_epik_Metal_State_Penalty>
-0

> <b_epik_Metal_Only>
0

> <s_lp_Force_Field>
OPLS_2005

> <r_lp_Energy>
13.6214

> <b_lp_Chiralities_Consistent>
1

> <s_lp_Variant>
AV-unprocessed.smi:3264-2

> <Gold.Version>
5.8.1

> <Gold.Id.Protein>
6NUR|6NUR_protein|mol2

> <Gold.PLP.Fitness>
38.1197

> <Gold.PLP.PLP>
-34.0522

> <Gold.PLP.part.hbond>
-5.0000

> <Gold.PLP.part.metal>
0.0000

> <Gold.PLP.part.buried>
-2.2799

> <Gold.PLP.part.nonpolar>
-28.2710

> <Gold.PLP.part.repulsive>
2.7783

> <Gold.PLP.ligand.clash>
0.0000

> <Gold.PLP.ligand.torsion>
0.1332

> <Gold.PLP.Chemscore.Hbond>
1.4401

> <Gold.PLP.Chemscore.CHOScore>
0.0000

> <Gold.PLP.Chemscore.Metal>
0.0000

> <Gold.Chemscore.Hbonds>
donor molecule, donor type, donor heavy atom, donor atom, acceptor molecule, acceptor atom, score
      P1  H  7989  7998       L1     9  0.35
      P1  H  8011  8017       L1     9  0.81

> <Gold.PLP.Chemscore.Internal.Correction>
0.0135

> <Gold.Rescore>
     Score         DG    S(hbond)    S(metal)    S(lipo)     H(rot)  DE(clash)    DE(int)     intcor
     13.61     -14.39       0.90        0.00      83.48       1.52       0.66       0.11       ----

> <Gold.Chemscore.Fitness>
13.6125

> <Gold.Chemscore.DG>
-14.3854

> <Gold.Chemscore.ZeroCoef>
-5.4800

> <Gold.Chemscore.Hbond>
0.9039

> <Gold.Chemscore.Metal>
0.0000

> <Gold.Chemscore.Lipo>
83.4781

> <Gold.Chemscore.Internal_Hbond>
0.0000

> <Gold.Chemscore.DEClash>
0.6584

> <Gold.Chemscore.DEInternal>
0.1145

> <Gold.Chemscore.Rot>
1.5159

> <Gold.Chemscore.Internal.Correction>
   9.000000E+99

> <Gold.Chemscore.Hbonds>
donor molecule, donor type, donor heavy atom, donor atom, acceptor molecule, acceptor atom, score
      P1  H  7989  7998       L1     9  0.32
      P1  H  8011  8017       L1     9  0.50

> <Gold.Chemscore.Hbond.Weighted>
-3.0192

> <Gold.Chemscore.Metal.Weighted>
-0.0000

> <Gold.Chemscore.Lipo.Weighted>
-9.7669

> <Gold.Chemscore.Internal_Hbond.Weighted>
0.0000

> <Gold.Chemscore.DEClash.Weighted>
0.6584

> <Gold.Chemscore.DEInternal.Weighted>
0.1145

> <Gold.Chemscore.Rot.Weighted>
3.8807

> <Gold.Chemscore.Internal.Correction.Weighted>
   9.000000E+99

> <Gold.Protein.RotatedTorsions>
[ 6907 6896 6895 6894 ] final  -25.69 input  -60.11 | X-H torsion
[ 7974 7965 7964 7962 ] final -140.78 input  175.53 | X-H torsion
[ 8008 7997 7996 7995 ] final -159.76 input   59.86 | X-H torsion
[ 10167 10162 10161 10158 ] final   41.10 input  -65.29 | X-H torsion
[ 10718 10713 10712 10709 ] final   93.11 input   66.30 | X-H torsion
[ 10763 10752 10751 10750 ] final -164.55 input  -60.55 | X-H torsion
[ 11005 11000 10999 10996 ] final   62.16 input  -57.11 | X-H torsion

> <Gold.Protein.ActiveResidues>
 VAL166  LYS551  ARG553  GLY616  TRP617  ASP618  TYR619  PRO620  LYS621  CYS622 
 ASP623  PHE694  ASN695  SER759  ASP760  ASP761  ALA762  ILE779  LEU786  VAL792 
 PHE793  MET794  SER795  GLU796  ALA797  LYS798  CYS799  TRP800  GLU811  SER814 

> <Gold.Protein.RotatedAtoms>
  151.1716  135.0320  159.8753 H   0  0  0  0  0  0  0  0  0  0  0  0  # atno 6907 bound_to 6896
  152.5448  134.1164  159.8390 H   0  0  0  0  0  0  0  0  0  0  0  0  # atno 6908 bound_to 6896
  151.1270  133.5017  159.2632 H   0  0  0  0  0  0  0  0  0  0  0  0  # atno 6909 bound_to 6896
  144.8570  140.6159  143.5353 H   0  0  0  0  0  0  0  0  0  0  0  0  # atno 7974 bound_to 7965
  155.7674  140.0847  157.2125 H   0  0  0  0  0  0  0  0  0  0  0  0  # atno 8008 bound_to 7997
  154.3999  140.1531  156.2959 H   0  0  0  0  0  0  0  0  0  0  0  0  # atno 8009 bound_to 7997
  155.8780  140.3422  155.5870 H   0  0  0  0  0  0  0  0  0  0  0  0  # atno 8010 bound_to 7997
  140.3676  144.2147  150.6134 H   0  0  0  0  0  0  0  0  0  0  0  0  # atno 10167 bound_to 10162
  157.6956  131.0467  150.3984 H   0  0  0  0  0  0  0  0  0  0  0  0  # atno 10718 bound_to 10713
  154.7017  135.2989  154.9331 H   0  0  0  0  0  0  0  0  0  0  0  0  # atno 10763 bound_to 10752
  154.0261  135.6676  153.4780 H   0  0  0  0  0  0  0  0  0  0  0  0  # atno 10764 bound_to 10752
  153.0686  135.5073  154.8165 H   0  0  0  0  0  0  0  0  0  0  0  0  # atno 10765 bound_to 10752
  140.0111  134.6294  155.9779 H   0  0  0  0  0  0  0  0  0  0  0  0  # atno 11005 bound_to 11000
  145.4386  139.1539  143.3983 LP  0  0  0  0  0  0  0  0  0  0  0  0  # atno 17320 bound_to 7965
  146.2831  140.4506  142.8768 LP  0  0  0  0  0  0  0  0  0  0  0  0  # atno 17321 bound_to 7965
  140.5065  143.2302  151.8600 LP  0  0  0  0  0  0  0  0  0  0  0  0  # atno 17342 bound_to 10162
  139.4807  144.4999  151.9074 LP  0  0  0  0  0  0  0  0  0  0  0  0  # atno 17343 bound_to 10162
  156.4380  130.3986  149.6716 LP  0  0  0  0  0  0  0  0  0  0  0  0  # atno 17370 bound_to 10713
  156.3909  130.7627  151.2627 LP  0  0  0  0  0  0  0  0  0  0  0  0  # atno 17371 bound_to 10713
  141.1712  133.6537  156.4658 LP  0  0  0  0  0  0  0  0  0  0  0  0  # atno 17394 bound_to 11000
  140.4552  134.6892  157.5059 LP  0  0  0  0  0  0  0  0  0  0  0  0  # atno 17395 bound_to 11000

$$$$
