AV-unprocessed.smi:672|AV-procd|sdf|3295|dock8
  -GOLD-   22720 0253D 1   1.00000     0.00000
 Structure written by MMmdl.
 35 36  0  0  0  0  0  0  0  0  2 V2000
  147.6278  140.5884  154.1714 C   0  0  0  0  0  0  0  0  0  0  0  0
  149.0967  140.9018  154.4749 C   0  0  0  0  0  0  0  0  0  0  0  0
  149.9245  139.6704  154.6322 C   0  0  0  0  0  0  0  0  0  0  0  0
  151.2571  139.6979  154.7183 N   0  0  0  0  0  0  0  0  0  0  0  0
  151.8000  138.4264  154.8313 N   0  0  0  0  0  0  0  0  0  0  0  0
  150.8757  137.4557  154.7993 C   0  0  0  0  0  0  0  0  0  0  0  0
  151.1916  136.1533  154.8893 N   0  5  0  0  0  0  0  0  0  0  0  0
  150.2397  135.2495  155.2159 C   0  0  0  0  0  0  0  0  0  0  0  0
  150.1524  134.6328  156.2803 O   0  0  0  0  0  0  0  0  0  0  0  0
  149.3356  135.0435  154.2476 N   0  0  0  0  0  0  0  0  0  0  0  0
  148.1936  134.1347  154.3215 C   0  0  2  0  0  0  0  0  0  0  0  0
  148.4235  132.8563  153.4894 C   0  0  0  0  0  0  0  0  0  0  0  0
  147.4798  132.9581  152.2912 C   0  0  0  0  0  0  0  0  0  0  0  0
  146.2900  133.7540  152.8208 C   0  0  2  0  0  0  0  0  0  0  0  0
  145.2934  134.4835  151.4888 S   0  0  0  0  0  0  0  0  0  0  0  0
  144.9049  132.9975  150.5271 C   0  0  0  0  0  0  0  0  0  0  0  0
  146.9288  134.7976  153.7431 C   0  0  0  0  0  0  0  0  0  0  0  0
  149.2263  138.0598  154.6503 S   0  0  0  0  0  0  0  0  0  0  0  0
  147.0489  141.5054  154.0624 H   0  0  0  0  0  0  0  0  0  0  0  0
  147.1775  140.0032  154.9738 H   0  0  0  0  0  0  0  0  0  0  0  0
  147.5297  140.0195  153.2464 H   0  0  0  0  0  0  0  0  0  0  0  0
  149.5197  141.5121  153.6762 H   0  0  0  0  0  0  0  0  0  0  0  0
  149.1702  141.4906  155.3897 H   0  0  0  0  0  0  0  0  0  0  0  0
  149.4476  135.5668  153.3917 H   0  0  0  0  0  0  0  0  0  0  0  0
  148.0147  133.8625  155.3634 H   0  0  0  0  0  0  0  0  0  0  0  0
  149.4600  132.7181  153.1790 H   0  0  0  0  0  0  0  0  0  0  0  0
  148.1523  131.9863  154.0889 H   0  0  0  0  0  0  0  0  0  0  0  0
  147.9718  133.5091  151.4881 H   0  0  0  0  0  0  0  0  0  0  0  0
  147.1930  131.9817  151.8998 H   0  0  0  0  0  0  0  0  0  0  0  0
  145.6581  133.0886  153.4109 H   0  0  0  0  0  0  0  0  0  0  0  0
  144.3331  133.2657  149.6390 H   0  0  0  0  0  0  0  0  0  0  0  0
  144.3120  132.3008  151.1195 H   0  0  0  0  0  0  0  0  0  0  0  0
  145.8202  132.4969  150.2116 H   0  0  0  0  0  0  0  0  0  0  0  0
  146.2446  135.1237  154.5271 H   0  0  0  0  0  0  0  0  0  0  0  0
  147.1954  135.6819  153.1613 H   0  0  0  0  0  0  0  0  0  0  0  0
  1  2  1  0  0  0  0
  1 19  1  0  0  0  0
  1 20  1  0  0  0  0
  1 21  1  0  0  0  0
  2  3  1  0  0  0  0
  2 22  1  0  0  0  0
  2 23  1  0  0  0  0
  3 18  1  0  0  0  0
  3  4  2  0  0  0  0
  4  5  1  0  0  0  0
  5  6  2  0  0  0  0
  6  7  1  0  0  0  0
  6 18  1  0  0  0  0
  7  8  1  0  0  0  0
  8  9  2  0  0  0  0
  8 10  1  0  0  0  0
 10 11  1  0  0  0  0
 10 24  1  0  0  0  0
 11 17  1  0  0  0  0
 11 12  1  0  0  0  0
 11 25  1  0  0  0  0
 12 13  1  0  0  0  0
 12 26  1  0  0  0  0
 12 27  1  0  0  0  0
 13 14  1  0  0  0  0
 13 28  1  0  0  0  0
 13 29  1  0  0  0  0
 14 15  1  0  0  0  0
 14 17  1  0  0  0  0
 14 30  1  0  0  0  0
 15 16  1  0  0  0  0
 16 31  1  0  0  0  0
 16 32  1  0  0  0  0
 16 33  1  0  0  0  0
 17 34  1  0  0  0  0
 17 35  1  0  0  0  0
M  CHG  1   7  -1
M  END
> <s_m_source_file>
AV-unprocessed.smi

> <i_m_source_file_index>
672

> <i_lp_mmshare_version>
43012

> <i_f3d_flags>
0

> <s_epik_input>
W0NIM11bQ0gyXWMxbm5jKHMxKVtOSF1DKD1PKVtOSF1bQ0BASF0yW0NIMl1bQ0gyXVtDQEhdKFtDSDJdMilTW0NIM10=

> <s_epik_cmdline>
J2VwaWtfcHl0aG9uJywgJy1waCcsICc3LjAnLCAnLXRuJywgJzgnLCAnLW1hJywgJzIwMCcsICctbWV0YWxfYmluZGluZycsICctaW1hZScsICc8aW5maWxlLm1hZT4nLCAnLW9tYWUnLCAnPG91dGZpbGUubWFlPic=

> <r_lp_tautomer_probability>
1

> <r_epik_Ionization_Penalty>
4.49964

> <r_epik_Ionization_Penalty_Charging>
4.32991

> <r_epik_Ionization_Penalty_Neutral>
0.169727

> <r_epik_State_Penalty>
4.32952

> <r_epik_Charging_Adjusted_Penalty>
8.65943

> <i_epik_Tot_Q>
-1

> <i_epik_Tot_abs_Q>
1

> <r_epik_Metal_State_Penalty>
0.740482

> <b_epik_Metal_Only>
1

> <s_lp_Force_Field>
OPLS_2005

> <r_lp_Energy>
9.98036

> <b_lp_Chiralities_Consistent>
1

> <s_lp_Variant>
AV-unprocessed.smi:672-7

> <Gold.Version>
5.8.1

> <Gold.Id.Protein>
6NUR|6NUR_protein|mol2

> <Gold.PLP.Fitness>
40.1140

> <Gold.PLP.PLP>
-30.1046

> <Gold.PLP.part.hbond>
-3.0000

> <Gold.PLP.part.metal>
0.0000

> <Gold.PLP.part.buried>
-4.6747

> <Gold.PLP.part.nonpolar>
-23.8321

> <Gold.PLP.part.repulsive>
0.3367

> <Gold.PLP.ligand.clash>
0.0000

> <Gold.PLP.ligand.torsion>
1.0159

> <Gold.PLP.Chemscore.Hbond>
4.0000

> <Gold.PLP.Chemscore.CHOScore>
0.0000

> <Gold.PLP.Chemscore.Metal>
0.0000

> <Gold.Chemscore.Hbonds>
donor molecule, donor type, donor heavy atom, donor atom, acceptor molecule, acceptor atom, score
      L1  H    10    24       P1  7948  0.90
      P1  H  7989  7998       L1     4  1.00
      P1  H 10752 10764       L1     7  2.00

> <Gold.PLP.Chemscore.Internal.Correction>
0.0413

> <Gold.Rescore>
     Score         DG    S(hbond)    S(metal)    S(lipo)     H(rot)  DE(clash)    DE(int)     intcor
     15.40     -16.45       2.42        0.00      53.94       1.34       0.01       1.04       ----

> <Gold.Chemscore.Fitness>
15.3953

> <Gold.Chemscore.DG>
-16.4454

> <Gold.Chemscore.ZeroCoef>
-5.4800

> <Gold.Chemscore.Hbond>
2.4213

> <Gold.Chemscore.Metal>
0.0000

> <Gold.Chemscore.Lipo>
53.9428

> <Gold.Chemscore.Internal_Hbond>
0.0000

> <Gold.Chemscore.DEClash>
0.0053

> <Gold.Chemscore.DEInternal>
1.0448

> <Gold.Chemscore.Rot>
1.3410

> <Gold.Chemscore.Internal.Correction>
   9.000000E+99

> <Gold.Chemscore.Hbonds>
donor molecule, donor type, donor heavy atom, donor atom, acceptor molecule, acceptor atom, score
      L1  H    10    24       P1  7948  0.18
      P1  H  7989  7998       L1     4  0.30
      P1  H 10752 10764       L1     7  0.96

> <Gold.Chemscore.Hbond.Weighted>
-8.0870

> <Gold.Chemscore.Metal.Weighted>
-0.0000

> <Gold.Chemscore.Lipo.Weighted>
-6.3113

> <Gold.Chemscore.Internal_Hbond.Weighted>
0.0000

> <Gold.Chemscore.DEClash.Weighted>
0.0053

> <Gold.Chemscore.DEInternal.Weighted>
1.0448

> <Gold.Chemscore.Rot.Weighted>
3.4329

> <Gold.Chemscore.Internal.Correction.Weighted>
   9.000000E+99

> <Gold.Protein.RotatedTorsions>
[ 6907 6896 6895 6894 ] final  126.32 input  -60.11 | X-H torsion
[ 7974 7965 7964 7962 ] final -160.40 input  175.53 | X-H torsion
[ 8008 7997 7996 7995 ] final  -49.00 input   59.86 | X-H torsion
[ 10167 10162 10161 10158 ] final  169.30 input  -65.29 | X-H torsion
[ 10718 10713 10712 10709 ] final  139.29 input   66.30 | X-H torsion
[ 10763 10752 10751 10750 ] final  -63.10 input  -60.55 | X-H torsion
[ 11005 11000 10999 10996 ] final   46.83 input  -57.11 | X-H torsion

> <Gold.Protein.ActiveResidues>
 VAL166  LYS551  ARG553  GLY616  TRP617  ASP618  TYR619  PRO620  LYS621  CYS622 
 ASP623  PHE694  ASN695  SER759  ASP760  ASP761  ALA762  ILE779  LEU786  VAL792 
 PHE793  MET794  SER795  GLU796  ALA797  LYS798  CYS799  TRP800  GLU811  SER814 

> <Gold.Protein.RotatedAtoms>
  152.3914  133.6684  159.6240 H   0  0  0  0  0  0  0  0  0  0  0  0  # atno 6907 bound_to 6896
  150.7822  133.8948  159.3332 H   0  0  0  0  0  0  0  0  0  0  0  0  # atno 6908 bound_to 6896
  151.6733  135.0974  160.0253 H   0  0  0  0  0  0  0  0  0  0  0  0  # atno 6909 bound_to 6896
  144.7428  140.3547  143.6108 H   0  0  0  0  0  0  0  0  0  0  0  0  # atno 7974 bound_to 7965
  154.4037  140.1307  156.4431 H   0  0  0  0  0  0  0  0  0  0  0  0  # atno 8008 bound_to 7997
  155.7440  140.3489  155.5098 H   0  0  0  0  0  0  0  0  0  0  0  0  # atno 8009 bound_to 7997
  155.9013  140.1020  157.1338 H   0  0  0  0  0  0  0  0  0  0  0  0  # atno 8010 bound_to 7997
  139.4989  144.3720  151.9714 H   0  0  0  0  0  0  0  0  0  0  0  0  # atno 10167 bound_to 10162
  157.4159  131.1033  151.0405 H   0  0  0  0  0  0  0  0  0  0  0  0  # atno 10718 bound_to 10713
  154.3100  135.6217  153.5461 H   0  0  0  0  0  0  0  0  0  0  0  0  # atno 10763 bound_to 10752
  152.9830  135.5699  154.5188 H   0  0  0  0  0  0  0  0  0  0  0  0  # atno 10764 bound_to 10752
  154.4836  135.2864  155.1528 H   0  0  0  0  0  0  0  0  0  0  0  0  # atno 10765 bound_to 10752
  140.1333  134.4677  155.8505 H   0  0  0  0  0  0  0  0  0  0  0  0  # atno 11005 bound_to 11000
  145.7239  139.1717  143.2469 LP  0  0  0  0  0  0  0  0  0  0  0  0  # atno 17320 bound_to 7965
  146.1256  140.7252  142.9436 LP  0  0  0  0  0  0  0  0  0  0  0  0  # atno 17321 bound_to 7965
  140.3157  144.3487  150.6022 LP  0  0  0  0  0  0  0  0  0  0  0  0  # atno 17342 bound_to 10162
  140.5763  143.2176  151.7508 LP  0  0  0  0  0  0  0  0  0  0  0  0  # atno 17343 bound_to 10162
  157.1352  130.6119  149.5540 LP  0  0  0  0  0  0  0  0  0  0  0  0  # atno 17370 bound_to 10713
  155.9865  130.4900  150.7082 LP  0  0  0  0  0  0  0  0  0  0  0  0  # atno 17371 bound_to 10713
  141.2174  133.6804  156.7110 LP  0  0  0  0  0  0  0  0  0  0  0  0  # atno 17394 bound_to 11000
  140.2814  134.8313  157.3937 LP  0  0  0  0  0  0  0  0  0  0  0  0  # atno 17395 bound_to 11000

$$$$
