AV-unprocessed.smi:1389|AV-procd|sdf|5655|dock8
  -GOLD-   22720 5283D 1   1.00000     0.00000
 Structure written by MMmdl.
 52 54  0  0  0  0  0  0  0  0  4 V2000
  154.2448  139.5639  160.9186 C   0  0  0  0  0  0  0  0  0  0  0  0
  153.9243  138.0751  160.6456 C   0  0  1  0  0  0  0  0  0  0  0  0
  154.3718  137.5951  159.2375 C   0  0  0  0  0  0  0  0  0  0  0  0
  154.0762  138.6123  158.2228 N   0  5  0  0  0  0  0  0  0  0  0  0
  152.9032  138.7103  157.5418 C   0  0  0  0  0  0  0  0  0  0  0  0
  152.1655  137.7903  157.1706 O   0  0  0  0  0  0  0  0  0  0  0  0
  152.5712  139.9873  157.2872 N   0  0  0  0  0  0  0  0  0  0  0  0
  151.3838  140.4821  156.6803 C   0  0  0  0  0  0  0  0  0  0  0  0
  150.5787  139.6449  155.8672 C   0  0  0  0  0  0  0  0  0  0  0  0
  149.4484  140.1747  155.2169 C   0  0  0  0  0  0  0  0  0  0  0  0
  149.1514  141.5395  155.3748 C   0  0  0  0  0  0  0  0  0  0  0  0
  149.9464  142.3131  156.1429 N   0  3  0  0  0  0  0  0  0  0  0  0
  151.0385  141.8582  156.8070 C   0  0  0  0  0  0  0  0  0  0  0  0
  151.7719  142.7811  157.5869 N   0  0  0  0  0  0  0  0  0  0  0  0
  151.5516  144.2149  157.4371 C   0  0  0  0  0  0  0  0  0  0  0  0
  152.2118  144.8469  158.6594 C   0  0  0  0  0  0  0  0  0  0  0  0
  151.9582  143.8045  159.7444 C   0  0  0  0  0  0  0  0  0  0  0  0
  152.0291  142.4725  158.9906 C   0  0  0  0  0  0  0  0  0  0  0  0
  154.4299  137.1574  161.7144 N   0  3  0  0  0  0  0  0  0  0  0  0
  153.7857  137.2662  163.0520 C   0  0  0  0  0  0  0  0  0  0  0  0
  154.5387  136.3937  164.0685 C   0  0  0  0  0  0  0  0  0  0  0  0
  154.5525  135.0449  163.6162 O   0  0  0  0  0  0  0  0  0  0  0  0
  155.2262  134.9059  162.3708 C   0  0  0  0  0  0  0  0  0  0  0  0
  154.5103  135.7376  161.2932 C   0  0  0  0  0  0  0  0  0  0  0  0
  153.7468  140.2211  160.2031 H   0  0  0  0  0  0  0  0  0  0  0  0
  155.3130  139.7831  160.8710 H   0  0  0  0  0  0  0  0  0  0  0  0
  153.8945  139.8595  161.9079 H   0  0  0  0  0  0  0  0  0  0  0  0
  152.8354  138.0037  160.6468 H   0  0  0  0  0  0  0  0  0  0  0  0
  155.4326  137.3429  159.2644 H   0  0  0  0  0  0  0  0  0  0  0  0
  153.8612  136.6600  159.0069 H   0  0  0  0  0  0  0  0  0  0  0  0
  153.1719  140.6823  157.7058 H   0  0  0  0  0  0  0  0  0  0  0  0
  150.8270  138.6048  155.7179 H   0  0  0  0  0  0  0  0  0  0  0  0
  148.8269  139.5455  154.5967 H   0  0  0  0  0  0  0  0  0  0  0  0
  148.3109  142.0346  154.9105 H   0  0  0  0  0  0  0  0  0  0  0  0
  151.9803  144.5887  156.5067 H   0  0  0  0  0  0  0  0  0  0  0  0
  150.4844  144.4405  157.4410 H   0  0  0  0  0  0  0  0  0  0  0  0
  153.2845  144.9551  158.4918 H   0  0  0  0  0  0  0  0  0  0  0  0
  151.8042  145.8283  158.9036 H   0  0  0  0  0  0  0  0  0  0  0  0
  152.6696  143.8635  160.5685 H   0  0  0  0  0  0  0  0  0  0  0  0
  150.9566  143.9411  160.1546 H   0  0  0  0  0  0  0  0  0  0  0  0
  151.3164  141.7510  159.3928 H   0  0  0  0  0  0  0  0  0  0  0  0
  153.0293  142.0467  159.0786 H   0  0  0  0  0  0  0  0  0  0  0  0
  153.7822  138.3018  163.3930 H   0  0  0  0  0  0  0  0  0  0  0  0
  152.7466  136.9396  162.9986 H   0  0  0  0  0  0  0  0  0  0  0  0
  155.5584  136.7545  164.2136 H   0  0  0  0  0  0  0  0  0  0  0  0
  154.0440  136.4355  165.0389 H   0  0  0  0  0  0  0  0  0  0  0  0
  156.2676  135.2160  162.4722 H   0  0  0  0  0  0  0  0  0  0  0  0
  155.2340  133.8530  162.0889 H   0  0  0  0  0  0  0  0  0  0  0  0
  153.5068  135.3480  161.1164 H   0  0  0  0  0  0  0  0  0  0  0  0
  155.0594  135.6561  160.3542 H   0  0  0  0  0  0  0  0  0  0  0  0
  155.3898  137.4478  161.8430 H   0  0  0  0  0  0  0  0  0  0  0  0
  149.7057  143.2997  156.2370 H   0  0  0  0  0  0  0  0  0  0  0  0
  1  2  1  0  0  0  0
  1 25  1  0  0  0  0
  1 26  1  0  0  0  0
  1 27  1  0  0  0  0
  2  3  1  0  0  0  0
  2 19  1  0  0  0  0
  2 28  1  0  0  0  0
  3  4  1  0  0  0  0
  3 29  1  0  0  0  0
  3 30  1  0  0  0  0
  4  5  1  0  0  0  0
  5  6  2  0  0  0  0
  5  7  1  0  0  0  0
  7  8  1  0  0  0  0
  7 31  1  0  0  0  0
  8 13  1  0  0  0  0
  8  9  2  0  0  0  0
  9 10  1  0  0  0  0
  9 32  1  0  0  0  0
 10 11  2  0  0  0  0
 10 33  1  0  0  0  0
 11 12  1  0  0  0  0
 11 34  1  0  0  0  0
 12 13  2  0  0  0  0
 12 52  1  0  0  0  0
 13 14  1  0  0  0  0
 14 18  1  0  0  0  0
 14 15  1  0  0  0  0
 15 16  1  0  0  0  0
 15 35  1  0  0  0  0
 15 36  1  0  0  0  0
 16 17  1  0  0  0  0
 16 37  1  0  0  0  0
 16 38  1  0  0  0  0
 17 18  1  0  0  0  0
 17 39  1  0  0  0  0
 17 40  1  0  0  0  0
 18 41  1  0  0  0  0
 18 42  1  0  0  0  0
 19 24  1  0  0  0  0
 19 20  1  0  0  0  0
 19 51  1  0  0  0  0
 20 21  1  0  0  0  0
 20 43  1  0  0  0  0
 20 44  1  0  0  0  0
 21 22  1  0  0  0  0
 21 45  1  0  0  0  0
 21 46  1  0  0  0  0
 22 23  1  0  0  0  0
 23 24  1  0  0  0  0
 23 47  1  0  0  0  0
 23 48  1  0  0  0  0
 24 49  1  0  0  0  0
 24 50  1  0  0  0  0
M  CHG  1   4  -1
M  CHG  1  12   1
M  CHG  1  19   1
M  END
> <s_m_source_file>
AV-unprocessed.smi

> <i_m_source_file_index>
1389

> <i_lp_mmshare_version>
43012

> <i_f3d_flags>
0

> <s_epik_input>
W0NIMl0xW0NIMl1PW0NIMl1bQ0gyXU4xW0NASF0oW0NIM10pW0NIMl1bTkhdQyg9TylbTkhdYzJbY0hdW2NIXVtjSF1uYzJOM1tDSDJdW0NIMl1bQ0gyXVtDSDJdMw==

> <s_epik_cmdline>
J2VwaWtfcHl0aG9uJywgJy1waCcsICc3LjAnLCAnLXRuJywgJzgnLCAnLW1hJywgJzIwMCcsICctbWV0YWxfYmluZGluZycsICctaW1hZScsICc8aW5maWxlLm1hZT4nLCAnLW9tYWUnLCAnPG91dGZpbGUubWFlPic=

> <r_lp_tautomer_probability>
0.999994

> <r_epik_Ionization_Penalty>
8.58362

> <r_epik_Ionization_Penalty_Charging>
8.58361

> <r_epik_Ionization_Penalty_Neutral>
3.55275e-06

> <r_epik_State_Penalty>
8.57766

> <r_epik_Charging_Adjusted_Penalty>
17.1613

> <i_epik_Tot_Q>
1

> <i_epik_Tot_abs_Q>
3

> <r_epik_Metal_State_Penalty>
4.57399

> <b_epik_Metal_Only>
1

> <s_lp_Force_Field>
OPLS_2005

> <r_lp_Energy>
47.3553

> <b_lp_Chiralities_Consistent>
1

> <s_lp_Variant>
AV-unprocessed.smi:1389-10

> <Gold.Version>
5.8.1

> <Gold.Id.Protein>
6NUR|6NUR_protein|mol2

> <Gold.PLP.Fitness>
50.4027

> <Gold.PLP.PLP>
-40.3082

> <Gold.PLP.part.hbond>
-2.0000

> <Gold.PLP.part.metal>
0.0000

> <Gold.PLP.part.buried>
-3.1030

> <Gold.PLP.part.nonpolar>
-36.5391

> <Gold.PLP.part.repulsive>
1.7200

> <Gold.PLP.ligand.clash>
0.0000

> <Gold.PLP.ligand.torsion>
1.1260

> <Gold.PLP.Chemscore.Hbond>
3.8880

> <Gold.PLP.Chemscore.CHOScore>
0.0000

> <Gold.PLP.Chemscore.Metal>
0.0000

> <Gold.Chemscore.Hbonds>
donor molecule, donor type, donor heavy atom, donor atom, acceptor molecule, acceptor atom, score
      L1  H    12    52       P1  8028  2.00
      P1  H  7997  8009       L1     4  1.86

> <Gold.PLP.Chemscore.Internal.Correction>
0.6825

> <Gold.Rescore>
     Score         DG    S(hbond)    S(metal)    S(lipo)     H(rot)  DE(clash)    DE(int)     intcor
     16.36     -19.49       1.53        0.00     111.83       1.63       0.58       2.56       ----

> <Gold.Chemscore.Fitness>
16.3597

> <Gold.Chemscore.DG>
-19.4929

> <Gold.Chemscore.ZeroCoef>
-5.4800

> <Gold.Chemscore.Hbond>
1.5280

> <Gold.Chemscore.Metal>
0.0000

> <Gold.Chemscore.Lipo>
111.8287

> <Gold.Chemscore.Internal_Hbond>
0.0000

> <Gold.Chemscore.DEClash>
0.5769

> <Gold.Chemscore.DEInternal>
2.5562

> <Gold.Chemscore.Rot>
1.6307

> <Gold.Chemscore.Internal.Correction>
   9.000000E+99

> <Gold.Chemscore.Hbonds>
donor molecule, donor type, donor heavy atom, donor atom, acceptor molecule, acceptor atom, score
      L1  H    12    52       P1  8028  0.95
      P1  H  7997  8009       L1     4  0.23

> <Gold.Chemscore.Hbond.Weighted>
-5.1034

> <Gold.Chemscore.Metal.Weighted>
-0.0000

> <Gold.Chemscore.Lipo.Weighted>
-13.0840

> <Gold.Chemscore.Internal_Hbond.Weighted>
0.0000

> <Gold.Chemscore.DEClash.Weighted>
0.5769

> <Gold.Chemscore.DEInternal.Weighted>
2.5562

> <Gold.Chemscore.Rot.Weighted>
4.1746

> <Gold.Chemscore.Internal.Correction.Weighted>
   9.000000E+99

> <Gold.Protein.RotatedTorsions>
[ 6907 6896 6895 6894 ] final  -95.52 input  -60.11 | X-H torsion
[ 7974 7965 7964 7962 ] final -165.48 input  175.53 | X-H torsion
[ 8008 7997 7996 7995 ] final  118.51 input   59.86 | X-H torsion
[ 10167 10162 10161 10158 ] final  116.82 input  -65.29 | X-H torsion
[ 10718 10713 10712 10709 ] final   24.49 input   66.30 | X-H torsion
[ 10763 10752 10751 10750 ] final  163.37 input  -60.55 | X-H torsion
[ 11005 11000 10999 10996 ] final  125.57 input  -57.11 | X-H torsion

> <Gold.Protein.ActiveResidues>
 VAL166  LYS551  ARG553  GLY616  TRP617  ASP618  TYR619  PRO620  LYS621  CYS622 
 ASP623  PHE694  ASN695  SER759  ASP760  ASP761  ALA762  ILE779  LEU786  VAL792 
 PHE793  MET794  SER795  GLU796  ALA797  LYS798  CYS799  TRP800  GLU811  SER814 

> <Gold.Protein.RotatedAtoms>
  150.6966  134.1644  159.4188 H   0  0  0  0  0  0  0  0  0  0  0  0  # atno 6907 bound_to 6896
  151.9624  135.0115  160.0557 H   0  0  0  0  0  0  0  0  0  0  0  0  # atno 6908 bound_to 6896
  152.1915  133.4741  159.5047 H   0  0  0  0  0  0  0  0  0  0  0  0  # atno 6909 bound_to 6896
  144.7269  140.2807  143.6236 H   0  0  0  0  0  0  0  0  0  0  0  0  # atno 7974 bound_to 7965
  156.2550  140.2873  156.0846 H   0  0  0  0  0  0  0  0  0  0  0  0  # atno 8008 bound_to 7997
  155.1529  140.0398  157.2842 H   0  0  0  0  0  0  0  0  0  0  0  0  # atno 8009 bound_to 7997
  154.6448  140.2531  155.7287 H   0  0  0  0  0  0  0  0  0  0  0  0  # atno 8010 bound_to 7997
  139.6221  144.7102  151.2612 H   0  0  0  0  0  0  0  0  0  0  0  0  # atno 10167 bound_to 10162
  157.1804  130.6800  149.6111 H   0  0  0  0  0  0  0  0  0  0  0  0  # atno 10718 bound_to 10713
  154.2926  135.2760  155.2647 H   0  0  0  0  0  0  0  0  0  0  0  0  # atno 10763 bound_to 10752
  154.5120  135.5780  153.6615 H   0  0  0  0  0  0  0  0  0  0  0  0  # atno 10764 bound_to 10752
  152.9912  135.6183  154.3092 H   0  0  0  0  0  0  0  0  0  0  0  0  # atno 10765 bound_to 10752
  139.9413  134.9635  156.8578 H   0  0  0  0  0  0  0  0  0  0  0  0  # atno 11005 bound_to 11000
  145.7952  139.1942  143.2080 LP  0  0  0  0  0  0  0  0  0  0  0  0  # atno 17320 bound_to 7965
  146.0723  140.7856  142.9682 LP  0  0  0  0  0  0  0  0  0  0  0  0  # atno 17321 bound_to 7965
  140.7388  143.6636  150.8142 LP  0  0  0  0  0  0  0  0  0  0  0  0  # atno 17342 bound_to 10162
  140.0248  143.5504  152.2785 LP  0  0  0  0  0  0  0  0  0  0  0  0  # atno 17343 bound_to 10162
  155.9725  130.4648  150.6232 LP  0  0  0  0  0  0  0  0  0  0  0  0  # atno 17370 bound_to 10713
  157.3958  131.0802  151.1353 LP  0  0  0  0  0  0  0  0  0  0  0  0  # atno 17371 bound_to 10713
  140.5945  134.0230  155.7512 LP  0  0  0  0  0  0  0  0  0  0  0  0  # atno 17394 bound_to 11000
  141.1048  133.9711  157.3016 LP  0  0  0  0  0  0  0  0  0  0  0  0  # atno 17395 bound_to 11000

$$$$
