AV-unprocessed.smi:1965|AV-procd|sdf|7947|dock5
  -GOLD-   2272010113D 1   1.00000     0.00000
 Structure written by MMmdl.
 36 38  0  0  0  0  0  0  0  0  3 V2000
  148.9982  138.1629  159.1749 O   0  0  0  0  0  0  0  0  0  0  0  0
  149.2500  136.9990  158.8662 C   0  0  0  0  0  0  0  0  0  0  0  0
  149.1730  135.9597  159.7374 N   0  5  0  0  0  0  0  0  0  0  0  0
  148.4049  135.9954  160.8422 C   0  0  0  0  0  0  0  0  0  0  0  0
  147.9718  137.1333  161.3971 N   0  0  0  0  0  0  0  0  0  0  0  0
  147.1905  136.9330  162.5367 C   0  0  0  0  0  0  0  0  0  0  0  0
  147.0251  135.6114  162.8566 C   0  0  0  0  0  0  0  0  0  0  0  0
  147.8443  134.5728  161.7256 S   0  0  0  0  0  0  0  0  0  0  0  0
  149.6234  136.7286  157.6015 N   0  0  0  0  0  0  0  0  0  0  0  0
  149.7362  137.6958  156.5169 C   0  0  1  0  0  0  0  0  0  0  0  0
  151.1808  137.9999  156.0909 C   0  0  0  0  0  0  0  0  0  0  0  0
  151.1302  138.1499  154.5576 C   0  0  0  0  0  0  0  0  0  0  0  0
  149.7116  137.9935  154.1590 N   0  3  2  0  0  0  0  0  0  0  0  0
  149.0430  139.3059  153.9421 C   0  0  0  0  0  0  0  0  0  0  0  0
  147.5258  139.1604  153.7657 C   0  0  0  0  0  0  0  0  0  0  0  0
  146.9157  138.4732  154.9900 C   0  0  0  0  0  0  0  0  0  0  0  0
  147.5666  137.0992  155.1813 C   0  0  0  0  0  0  0  0  0  0  0  0
  149.1099  137.1605  155.2278 C   0  0  2  0  0  0  0  0  0  0  0  0
  146.7927  137.7899  163.0595 H   0  0  0  0  0  0  0  0  0  0  0  0
  146.4710  135.1871  163.6803 H   0  0  0  0  0  0  0  0  0  0  0  0
  149.8320  135.7663  157.3789 H   0  0  0  0  0  0  0  0  0  0  0  0
  149.2410  138.6242  156.8068 H   0  0  0  0  0  0  0  0  0  0  0  0
  151.5501  138.9039  156.5763 H   0  0  0  0  0  0  0  0  0  0  0  0
  151.8545  137.1852  156.3609 H   0  0  0  0  0  0  0  0  0  0  0  0
  151.5579  139.0948  154.2191 H   0  0  0  0  0  0  0  0  0  0  0  0
  151.7085  137.3506  154.0929 H   0  0  0  0  0  0  0  0  0  0  0  0
  149.2459  139.9701  154.7839 H   0  0  0  0  0  0  0  0  0  0  0  0
  149.4739  139.7813  153.0602 H   0  0  0  0  0  0  0  0  0  0  0  0
  147.0720  140.1420  153.6267 H   0  0  0  0  0  0  0  0  0  0  0  0
  147.3072  138.5849  152.8652 H   0  0  0  0  0  0  0  0  0  0  0  0
  147.0638  139.0881  155.8784 H   0  0  0  0  0  0  0  0  0  0  0  0
  145.8384  138.3628  154.8635 H   0  0  0  0  0  0  0  0  0  0  0  0
  147.1805  136.6219  156.0828 H   0  0  0  0  0  0  0  0  0  0  0  0
  147.2683  136.4567  154.3517 H   0  0  0  0  0  0  0  0  0  0  0  0
  149.4813  136.1447  155.0753 H   0  0  0  0  0  0  0  0  0  0  0  0
  149.6627  137.4845  153.2881 H   0  0  0  0  0  0  0  0  0  0  0  0
  1  2  2  0  0  0  0
  2  3  1  0  0  0  0
  2  9  1  0  0  0  0
  3  4  1  0  0  0  0
  4  8  1  0  0  0  0
  4  5  2  0  0  0  0
  5  6  1  0  0  0  0
  6  7  2  0  0  0  0
  6 19  1  0  0  0  0
  7  8  1  0  0  0  0
  7 20  1  0  0  0  0
  9 10  1  0  0  0  0
  9 21  1  0  0  0  0
 10 18  1  0  0  0  0
 10 11  1  0  0  0  0
 10 22  1  0  0  0  0
 11 12  1  0  0  0  0
 11 23  1  0  0  0  0
 11 24  1  0  0  0  0
 12 13  1  0  0  0  0
 12 25  1  0  0  0  0
 12 26  1  0  0  0  0
 13 18  1  0  0  0  0
 13 14  1  0  0  0  0
 13 36  1  0  0  0  0
 14 15  1  0  0  0  0
 14 27  1  0  0  0  0
 14 28  1  0  0  0  0
 15 16  1  0  0  0  0
 15 29  1  0  0  0  0
 15 30  1  0  0  0  0
 16 17  1  0  0  0  0
 16 31  1  0  0  0  0
 16 32  1  0  0  0  0
 17 18  1  0  0  0  0
 17 33  1  0  0  0  0
 17 34  1  0  0  0  0
 18 35  1  0  0  0  0
M  CHG  1   3  -1
M  CHG  1  13   1
M  END
> <s_m_source_file>
AV-unprocessed.smi

> <i_m_source_file_index>
1965

> <i_lp_mmshare_version>
43012

> <i_f3d_flags>
0

> <s_epik_input>
czFbY0hdW2NIXW5jMVtOSF1DKD1PKVtOSF1bQ0BIXShbQ0gyXVtDSDJdMilbQ0BASF0oTjIzKVtDSDJdW0NIMl1bQ0gyXVtDSDJdMw==

> <s_epik_cmdline>
J2VwaWtfcHl0aG9uJywgJy1waCcsICc3LjAnLCAnLXRuJywgJzgnLCAnLW1hJywgJzIwMCcsICctbWV0YWxfYmluZGluZycsICctaW1hZScsICc8aW5maWxlLm1hZT4nLCAnLW9tYWUnLCAnPG91dGZpbGUubWFlPic=

> <r_lp_tautomer_probability>
1

> <r_epik_Ionization_Penalty>
7.4116

> <r_epik_Ionization_Penalty_Charging>
6.13869

> <r_epik_Ionization_Penalty_Neutral>
1.27291

> <r_epik_State_Penalty>
6.13761

> <r_epik_Charging_Adjusted_Penalty>
12.2763

> <i_epik_Tot_Q>
0

> <i_epik_Tot_abs_Q>
2

> <r_epik_Metal_State_Penalty>
2.08142

> <b_epik_Metal_Only>
1

> <s_lp_Force_Field>
OPLS_2005

> <r_lp_Energy>
29.0908

> <b_lp_Chiralities_Consistent>
1

> <s_lp_Variant>
AV-unprocessed.smi:1965-16

> <Gold.Version>
5.8.1

> <Gold.Id.Protein>
6NUR|6NUR_protein|mol2

> <Gold.PLP.Fitness>
42.9413

> <Gold.PLP.PLP>
-27.0593

> <Gold.PLP.part.hbond>
-5.9193

> <Gold.PLP.part.metal>
0.0000

> <Gold.PLP.part.buried>
-2.2612

> <Gold.PLP.part.nonpolar>
-19.9734

> <Gold.PLP.part.repulsive>
0.0803

> <Gold.PLP.ligand.clash>
0.0000

> <Gold.PLP.ligand.torsion>
0.3599

> <Gold.PLP.Chemscore.Hbond>
5.5304

> <Gold.PLP.Chemscore.CHOScore>
0.0000

> <Gold.PLP.Chemscore.Metal>
0.0000

> <Gold.Chemscore.Hbonds>
donor molecule, donor type, donor heavy atom, donor atom, acceptor molecule, acceptor atom, score
      L1  H    13    36       P1  7948  2.00
      P1  H  6896  6907       L1     3  2.00
      P1  H  6931  6943       L1     5  1.00
      P1  H  6934  6947       L1     5  0.47

> <Gold.PLP.Chemscore.Internal.Correction>
0.0106

> <Gold.Rescore>
     Score         DG    S(hbond)    S(metal)    S(lipo)     H(rot)  DE(clash)    DE(int)     intcor
     15.36     -17.31       2.39        0.00      54.62       1.00       0.01       1.94       ----

> <Gold.Chemscore.Fitness>
15.3649

> <Gold.Chemscore.DG>
-17.3088

> <Gold.Chemscore.ZeroCoef>
-5.4800

> <Gold.Chemscore.Hbond>
2.3946

> <Gold.Chemscore.Metal>
0.0000

> <Gold.Chemscore.Lipo>
54.6236

> <Gold.Chemscore.Internal_Hbond>
0.0000

> <Gold.Chemscore.DEClash>
0.0073

> <Gold.Chemscore.DEInternal>
1.9365

> <Gold.Chemscore.Rot>
1.0000

> <Gold.Chemscore.Internal.Correction>
   9.000000E+99

> <Gold.Chemscore.Hbonds>
donor molecule, donor type, donor heavy atom, donor atom, acceptor molecule, acceptor atom, score
      L1  H    13    36       P1  7948  0.72
      P1  H  6896  6907       L1     3  0.81
      P1  H  6931  6943       L1     5  0.33
      P1  H  6934  6947       L1     5  0.07

> <Gold.Chemscore.Hbond.Weighted>
-7.9978

> <Gold.Chemscore.Metal.Weighted>
-0.0000

> <Gold.Chemscore.Lipo.Weighted>
-6.3910

> <Gold.Chemscore.Internal_Hbond.Weighted>
0.0000

> <Gold.Chemscore.DEClash.Weighted>
0.0073

> <Gold.Chemscore.DEInternal.Weighted>
1.9365

> <Gold.Chemscore.Rot.Weighted>
2.5600

> <Gold.Chemscore.Internal.Correction.Weighted>
   9.000000E+99

> <Gold.Protein.RotatedTorsions>
[ 6907 6896 6895 6894 ] final  -56.73 input  -60.11 | X-H torsion
[ 7974 7965 7964 7962 ] final   63.18 input  175.53 | X-H torsion
[ 8008 7997 7996 7995 ] final -167.71 input   59.86 | X-H torsion
[ 10167 10162 10161 10158 ] final   17.40 input  -65.29 | X-H torsion
[ 10718 10713 10712 10709 ] final   40.55 input   66.30 | X-H torsion
[ 10763 10752 10751 10750 ] final  153.39 input  -60.55 | X-H torsion
[ 11005 11000 10999 10996 ] final    1.44 input  -57.11 | X-H torsion

> <Gold.Protein.ActiveResidues>
 VAL166  LYS551  ARG553  GLY616  TRP617  ASP618  TYR619  PRO620  LYS621  CYS622 
 ASP623  PHE694  ASN695  SER759  ASP760  ASP761  ALA762  ILE779  LEU786  VAL792 
 PHE793  MET794  SER795  GLU796  ALA797  LYS798  CYS799  TRP800  GLU811  SER814 

> <Gold.Protein.RotatedAtoms>
  150.8143  134.7317  159.6716 H   0  0  0  0  0  0  0  0  0  0  0  0  # atno 6907 bound_to 6896
  152.4263  134.5859  159.9970 H   0  0  0  0  0  0  0  0  0  0  0  0  # atno 6908 bound_to 6896
  151.6060  133.3314  159.3093 H   0  0  0  0  0  0  0  0  0  0  0  0  # atno 6909 bound_to 6896
  145.8649  139.3339  143.0797 H   0  0  0  0  0  0  0  0  0  0  0  0  # atno 7974 bound_to 7965
  155.8815  140.1009  157.1482 H   0  0  0  0  0  0  0  0  0  0  0  0  # atno 8008 bound_to 7997
  154.4005  140.1328  156.4266 H   0  0  0  0  0  0  0  0  0  0  0  0  # atno 8009 bound_to 7997
  155.7638  140.3462  155.5214 H   0  0  0  0  0  0  0  0  0  0  0  0  # atno 8010 bound_to 7997
  140.5729  143.9128  150.6727 H   0  0  0  0  0  0  0  0  0  0  0  0  # atno 10167 bound_to 10162
  157.3835  130.7766  149.7211 H   0  0  0  0  0  0  0  0  0  0  0  0  # atno 10718 bound_to 10713
  154.1355  135.2824  155.3174 H   0  0  0  0  0  0  0  0  0  0  0  0  # atno 10763 bound_to 10752
  154.6325  135.5430  153.7700 H   0  0  0  0  0  0  0  0  0  0  0  0  # atno 10764 bound_to 10752
  153.0267  135.6466  154.1503 H   0  0  0  0  0  0  0  0  0  0  0  0  # atno 10765 bound_to 10752
  140.6154  133.9710  155.8198 H   0  0  0  0  0  0  0  0  0  0  0  0  # atno 11005 bound_to 11000
  145.9205  140.9118  143.0407 LP  0  0  0  0  0  0  0  0  0  0  0  0  # atno 17320 bound_to 7965
  144.6726  140.1283  143.7445 LP  0  0  0  0  0  0  0  0  0  0  0  0  # atno 17321 bound_to 7965
  140.2608  143.3525  152.1324 LP  0  0  0  0  0  0  0  0  0  0  0  0  # atno 17342 bound_to 10162
  139.5127  144.6920  151.5733 LP  0  0  0  0  0  0  0  0  0  0  0  0  # atno 17343 bound_to 10162
  155.9781  130.4055  150.3669 LP  0  0  0  0  0  0  0  0  0  0  0  0  # atno 17370 bound_to 10713
  157.1776  131.0384  151.2764 LP  0  0  0  0  0  0  0  0  0  0  0  0  # atno 17371 bound_to 10713
  141.0779  134.0106  157.3430 LP  0  0  0  0  0  0  0  0  0  0  0  0  # atno 17394 bound_to 11000
  139.9175  135.0198  156.7937 LP  0  0  0  0  0  0  0  0  0  0  0  0  # atno 17395 bound_to 11000

$$$$
