AV-unprocessed.smi:392|AV-procd|sdf|2480|dock7
  -GOLD-   2262022423D 1   1.00000     0.00000
 Structure written by MMmdl.
 32 34  0  0  0  0  0  0  0  0  1 V2000
  151.1598  143.8317  156.8819 O   0  0  0  0  0  0  0  0  0  0  0  0
  151.4595  142.8061  157.8074 C   0  0  2  0  0  0  0  0  0  0  0  0
  150.2851  141.8085  157.8153 C   0  0  0  0  0  0  0  0  0  0  0  0
  150.0103  141.2751  156.4935 N   0  0  0  0  0  0  0  0  0  0  0  0
  150.8282  140.5210  155.7338 C   0  0  0  0  0  0  0  0  0  0  0  0
  150.3770  140.1450  154.5405 N   0  0  0  0  0  0  0  0  0  0  0  0
  149.1175  140.7195  154.5247 C   0  0  0  0  0  0  0  0  0  0  0  0
  148.1114  140.6980  153.5323 C   0  0  0  0  0  0  0  0  0  0  0  0
  146.8870  141.3665  153.7416 C   0  0  0  0  0  0  0  0  0  0  0  0
  146.6501  142.0658  154.9430 C   0  0  0  0  0  0  0  0  0  0  0  0
  147.6378  142.1024  155.9460 C   0  0  0  0  0  0  0  0  0  0  0  0
  148.8571  141.4331  155.7335 C   0  0  0  0  0  0  0  0  0  0  0  0
  151.7604  143.3521  159.1989 C   0  0  0  0  0  0  0  0  0  0  0  0
  151.4722  144.6994  159.5119 C   0  0  0  0  0  0  0  0  0  0  0  0
  151.7301  145.2024  160.8014 C   0  0  0  0  0  0  0  0  0  0  0  0
  152.2761  144.3613  161.7890 C   0  0  0  0  0  0  0  0  0  0  0  0
  152.5623  143.0167  161.4860 C   0  0  0  0  0  0  0  0  0  0  0  0
  152.3049  142.5110  160.1966 C   0  0  0  0  0  0  0  0  0  0  0  0
  152.5759  141.2114  159.9268 F   0  0  0  0  0  0  0  0  0  0  0  0
  150.2514  143.7534  156.6330 H   0  0  0  0  0  0  0  0  0  0  0  0
  152.3474  142.3048  157.4207 H   0  0  0  0  0  0  0  0  0  0  0  0
  150.4836  140.9806  158.4977 H   0  0  0  0  0  0  0  0  0  0  0  0
  149.3772  142.2967  158.1724 H   0  0  0  0  0  0  0  0  0  0  0  0
  151.8142  140.2387  156.0734 H   0  0  0  0  0  0  0  0  0  0  0  0
  148.2819  140.1655  152.6085 H   0  0  0  0  0  0  0  0  0  0  0  0
  146.1255  141.3430  152.9761 H   0  0  0  0  0  0  0  0  0  0  0  0
  145.7094  142.5747  155.0940 H   0  0  0  0  0  0  0  0  0  0  0  0
  147.4612  142.6380  156.8667 H   0  0  0  0  0  0  0  0  0  0  0  0
  151.0468  145.3522  158.7638 H   0  0  0  0  0  0  0  0  0  0  0  0
  151.5067  146.2335  161.0331 H   0  0  0  0  0  0  0  0  0  0  0  0
  152.4729  144.7465  162.7786 H   0  0  0  0  0  0  0  0  0  0  0  0
  152.9777  142.3703  162.2451 H   0  0  0  0  0  0  0  0  0  0  0  0
  1  2  1  0  0  0  0
  1 20  1  0  0  0  0
  2  3  1  0  0  0  0
  2 13  1  0  0  0  0
  2 21  1  0  0  0  0
  3  4  1  0  0  0  0
  3 22  1  0  0  0  0
  3 23  1  0  0  0  0
  4 12  1  0  0  0  0
  4  5  1  0  0  0  0
  5  6  2  0  0  0  0
  5 24  1  0  0  0  0
  6  7  1  0  0  0  0
  7 12  2  0  0  0  0
  7  8  1  0  0  0  0
  8  9  2  0  0  0  0
  8 25  1  0  0  0  0
  9 10  1  0  0  0  0
  9 26  1  0  0  0  0
 10 11  2  0  0  0  0
 10 27  1  0  0  0  0
 11 12  1  0  0  0  0
 11 28  1  0  0  0  0
 13 18  1  0  0  0  0
 13 14  2  0  0  0  0
 14 15  1  0  0  0  0
 14 29  1  0  0  0  0
 15 16  2  0  0  0  0
 15 30  1  0  0  0  0
 16 17  1  0  0  0  0
 16 31  1  0  0  0  0
 17 18  2  0  0  0  0
 17 32  1  0  0  0  0
 18 19  1  0  0  0  0
M  END
> <s_m_source_file>
AV-unprocessed.smi

> <i_m_source_file_index>
392

> <i_lp_mmshare_version>
43012

> <i_f3d_flags>
0

> <s_epik_input>
RmMxW2NIXVtjSF1bY0hdW2NIXWMxW0NASF0oW09IXSlbQ0gyXW4oW2NIXW4yKWMoYzIzKVtjSF1bY0hdW2NIXVtjSF0z

> <s_epik_cmdline>
J2VwaWtfcHl0aG9uJywgJy1waCcsICc3LjAnLCAnLXRuJywgJzgnLCAnLW1hJywgJzIwMCcsICctbWV0YWxfYmluZGluZycsICctaW1hZScsICc8aW5maWxlLm1hZT4nLCAnLW9tYWUnLCAnPG91dGZpbGUubWFlPic=

> <r_epik_Ionization_Penalty>
0.0696512

> <r_epik_Ionization_Penalty_Charging>
0

> <r_epik_Ionization_Penalty_Neutral>
0.0696512

> <r_epik_State_Penalty>
0.0610247

> <r_epik_Charging_Adjusted_Penalty>
0.0610247

> <i_epik_Tot_Q>
0

> <i_epik_Tot_abs_Q>
0

> <r_epik_Metal_State_Penalty>
6.42746e-05

> <b_epik_Metal_Only>
0

> <s_lp_Force_Field>
OPLS_2005

> <r_lp_Energy>
12.7977

> <b_lp_Chiralities_Consistent>
1

> <s_lp_Variant>
AV-unprocessed.smi:392-1

> <Gold.Version>
5.8.1

> <Gold.Id.Protein>
6NUR|6NUR_protein|mol2

> <Gold.PLP.Fitness>
51.2523

> <Gold.PLP.PLP>
-46.6749

> <Gold.PLP.part.hbond>
-2.0000

> <Gold.PLP.part.metal>
0.0000

> <Gold.PLP.part.buried>
-0.8424

> <Gold.PLP.part.nonpolar>
-42.9582

> <Gold.PLP.part.repulsive>
0.1115

> <Gold.PLP.ligand.clash>
0.0000

> <Gold.PLP.ligand.torsion>
0.2235

> <Gold.PLP.Chemscore.Hbond>
1.6680

> <Gold.PLP.Chemscore.CHOScore>
0.0000

> <Gold.PLP.Chemscore.Metal>
0.0000

> <Gold.Chemscore.Hbonds>
donor molecule, donor type, donor heavy atom, donor atom, acceptor molecule, acceptor atom, score
      L1  H     1    20       P1  8028  0.78
      P1  H  7989  7998       L1     6  1.00

> <Gold.PLP.Chemscore.Internal.Correction>
0.0203

> <Gold.Rescore>
     Score         DG    S(hbond)    S(metal)    S(lipo)     H(rot)  DE(clash)    DE(int)     intcor
     16.86     -17.47       0.89        0.00     118.87       1.91       0.44       0.17       ----

> <Gold.Chemscore.Fitness>
16.8602

> <Gold.Chemscore.DG>
-17.4685

> <Gold.Chemscore.ZeroCoef>
-5.4800

> <Gold.Chemscore.Hbond>
0.8906

> <Gold.Chemscore.Metal>
0.0000

> <Gold.Chemscore.Lipo>
118.8678

> <Gold.Chemscore.Internal_Hbond>
0.0000

> <Gold.Chemscore.DEClash>
0.4350

> <Gold.Chemscore.DEInternal>
0.1733

> <Gold.Chemscore.Rot>
1.9116

> <Gold.Chemscore.Internal.Correction>
   9.000000E+99

> <Gold.Chemscore.Hbonds>
donor molecule, donor type, donor heavy atom, donor atom, acceptor molecule, acceptor atom, score
      L1  H     1    20       P1  8028  0.77
      P1  H  7989  7998       L1     6  0.24

> <Gold.Chemscore.Hbond.Weighted>
-2.9747

> <Gold.Chemscore.Metal.Weighted>
-0.0000

> <Gold.Chemscore.Lipo.Weighted>
-13.9075

> <Gold.Chemscore.Internal_Hbond.Weighted>
0.0000

> <Gold.Chemscore.DEClash.Weighted>
0.4350

> <Gold.Chemscore.DEInternal.Weighted>
0.1733

> <Gold.Chemscore.Rot.Weighted>
4.8937

> <Gold.Chemscore.Internal.Correction.Weighted>
   9.000000E+99

> <Gold.Protein.RotatedTorsions>
[ 6907 6896 6895 6894 ] final  -92.06 input  -60.11 | X-H torsion
[ 7974 7965 7964 7962 ] final   48.25 input  175.53 | X-H torsion
[ 8008 7997 7996 7995 ] final  -33.26 input   59.86 | X-H torsion
[ 10167 10162 10161 10158 ] final  -37.67 input  -65.29 | X-H torsion
[ 10718 10713 10712 10709 ] final  -99.00 input   66.30 | X-H torsion
[ 10763 10752 10751 10750 ] final   85.44 input  -60.55 | X-H torsion
[ 11005 11000 10999 10996 ] final -130.88 input  -57.11 | X-H torsion

> <Gold.Protein.ActiveResidues>
 VAL166  LYS551  ARG553  GLY616  TRP617  ASP618  TYR619  PRO620  LYS621  CYS622 
 ASP623  PHE694  ASN695  SER759  ASP760  ASP761  ALA762  ILE779  LEU786  VAL792 
 PHE793  MET794  SER795  GLU796  ALA797  LYS798  CYS799  TRP800  GLU811  SER814 

> <Gold.Protein.RotatedAtoms>
  150.6901  134.2181  159.4385 H   0  0  0  0  0  0  0  0  0  0  0  0  # atno 6907 bound_to 6896
  152.0139  134.9858  160.0578 H   0  0  0  0  0  0  0  0  0  0  0  0  # atno 6908 bound_to 6896
  152.1462  133.4459  159.4828 H   0  0  0  0  0  0  0  0  0  0  0  0  # atno 6909 bound_to 6896
  146.0221  139.4664  142.9890 H   0  0  0  0  0  0  0  0  0  0  0  0  # atno 7974 bound_to 7965
  154.4154  140.1715  156.1859 H   0  0  0  0  0  0  0  0  0  0  0  0  # atno 8008 bound_to 7997
  155.9644  140.3391  155.6495 H   0  0  0  0  0  0  0  0  0  0  0  0  # atno 8009 bound_to 7997
  155.6707  140.0711  157.2511 H   0  0  0  0  0  0  0  0  0  0  0  0  # atno 8010 bound_to 7997
  140.7112  143.3327  151.2533 H   0  0  0  0  0  0  0  0  0  0  0  0  # atno 10167 bound_to 10162
  156.0122  130.5263  150.6606 H   0  0  0  0  0  0  0  0  0  0  0  0  # atno 10718 bound_to 10713
  153.1475  135.4617  154.9588 H   0  0  0  0  0  0  0  0  0  0  0  0  # atno 10763 bound_to 10752
  154.7798  135.3185  154.8016 H   0  0  0  0  0  0  0  0  0  0  0  0  # atno 10764 bound_to 10752
  153.8527  135.6920  153.4845 H   0  0  0  0  0  0  0  0  0  0  0  0  # atno 10765 bound_to 10752
  140.9307  134.1323  157.4237 H   0  0  0  0  0  0  0  0  0  0  0  0  # atno 11005 bound_to 11000
  145.7176  141.0086  143.1420 LP  0  0  0  0  0  0  0  0  0  0  0  0  # atno 17320 bound_to 7965
  144.6994  139.8831  143.7448 LP  0  0  0  0  0  0  0  0  0  0  0  0  # atno 17321 bound_to 7965
  139.6813  143.9850  152.2810 LP  0  0  0  0  0  0  0  0  0  0  0  0  # atno 17342 bound_to 10162
  139.9480  144.6638  150.8199 LP  0  0  0  0  0  0  0  0  0  0  0  0  # atno 17343 bound_to 10162
  157.4349  131.0854  151.1002 LP  0  0  0  0  0  0  0  0  0  0  0  0  # atno 17370 bound_to 10713
  157.1563  130.6206  149.5597 LP  0  0  0  0  0  0  0  0  0  0  0  0  # atno 17371 bound_to 10713
  139.8796  135.0004  156.6008 LP  0  0  0  0  0  0  0  0  0  0  0  0  # atno 17394 bound_to 11000
  140.7866  133.8616  155.8611 LP  0  0  0  0  0  0  0  0  0  0  0  0  # atno 17395 bound_to 11000

$$$$
