AV-unprocessed.smi:12|AV-procd|sdf|63|dock2
  -GOLD-   2262015183D 1   1.00000     0.00000
 Structure written by MMmdl.
 41 44  0  0  0  0  0  0  0  0  1 V2000
  144.8908  143.3733  156.3450 C   0  0  0  0  0  0  0  0  0  0  0  0
  145.5453  142.1272  155.7758 C   0  0  0  0  0  0  0  0  0  0  0  0
  146.8159  142.1412  155.3083 C   0  0  0  0  0  0  0  0  0  0  0  0
  147.3594  140.9907  154.8092 N   0  0  0  0  0  0  0  0  0  0  0  0
  146.5873  139.8096  154.7717 C   0  0  0  0  0  0  0  0  0  0  0  0
  145.3667  139.7153  155.1995 N   0  0  0  0  0  0  0  0  0  0  0  0
  144.7612  140.8671  155.7382 C   0  0  0  0  0  0  0  0  0  0  0  0
  143.6078  140.8245  156.1638 O   0  0  0  0  0  0  0  0  0  0  0  0
  147.3262  138.8157  154.2060 O   0  0  0  0  0  0  0  0  0  0  0  0
  148.6166  139.3201  153.8359 C   0  0  2  0  0  0  0  0  0  0  0  0
  149.7231  138.6562  154.6508 C   0  0  1  0  0  0  0  0  0  0  0  0
  150.4858  137.7829  153.8423 O   0  0  0  0  0  0  0  0  0  0  0  0
  150.5649  139.8377  155.1425 C   0  0  2  0  0  0  0  0  0  0  0  0
  151.2972  139.5881  156.4668 C   0  0  0  0  0  0  0  0  0  0  0  0
  151.6650  140.8318  157.0410 O   0  0  0  0  0  0  0  0  0  0  0  0
  152.5011  140.8693  158.0963 C   0  0  0  0  0  0  0  0  0  0  0  0
  153.2680  139.9507  158.3921 O   0  0  0  0  0  0  0  0  0  0  0  0
  152.3984  142.1393  158.8717 C   0  0  0  0  0  0  0  0  0  0  0  0
  152.0169  143.3286  158.2074 C   0  0  0  0  0  0  0  0  0  0  0  0
  151.9159  144.5435  158.9126 C   0  0  0  0  0  0  0  0  0  0  0  0
  152.1940  144.5842  160.2914 C   0  0  0  0  0  0  0  0  0  0  0  0
  152.5717  143.4076  160.9645 C   0  0  0  0  0  0  0  0  0  0  0  0
  152.6739  142.1918  160.2607 C   0  0  0  0  0  0  0  0  0  0  0  0
  149.6151  140.8784  155.3066 O   0  0  0  0  0  0  0  0  0  0  0  0
  148.7010  140.7984  154.2614 C   0  0  2  0  0  0  0  0  0  0  0  0
  145.5713  144.2250  156.3196 H   0  0  0  0  0  0  0  0  0  0  0  0
  144.5946  143.2095  157.3816 H   0  0  0  0  0  0  0  0  0  0  0  0
  144.0021  143.6345  155.7696 H   0  0  0  0  0  0  0  0  0  0  0  0
  147.4070  143.0453  155.3282 H   0  0  0  0  0  0  0  0  0  0  0  0
  148.7749  139.2514  152.7584 H   0  0  0  0  0  0  0  0  0  0  0  0
  149.2976  138.1126  155.4959 H   0  0  0  0  0  0  0  0  0  0  0  0
  149.8936  137.2748  153.3088 H   0  0  0  0  0  0  0  0  0  0  0  0
  151.2698  140.1555  154.3713 H   0  0  0  0  0  0  0  0  0  0  0  0
  150.6410  139.0542  157.1555 H   0  0  0  0  0  0  0  0  0  0  0  0
  152.1796  138.9671  156.3062 H   0  0  0  0  0  0  0  0  0  0  0  0
  151.7993  143.3225  157.1489 H   0  0  0  0  0  0  0  0  0  0  0  0
  151.6251  145.4455  158.3941 H   0  0  0  0  0  0  0  0  0  0  0  0
  152.1176  145.5163  160.8319 H   0  0  0  0  0  0  0  0  0  0  0  0
  152.7841  143.4370  162.0231 H   0  0  0  0  0  0  0  0  0  0  0  0
  152.9667  141.3079  160.8085 H   0  0  0  0  0  0  0  0  0  0  0  0
  148.8290  141.5246  153.4579 H   0  0  0  0  0  0  0  0  0  0  0  0
  1  2  1  0  0  0  0
  1 26  1  0  0  0  0
  1 27  1  0  0  0  0
  1 28  1  0  0  0  0
  2  7  1  0  0  0  0
  2  3  2  0  0  0  0
  3  4  1  0  0  0  0
  3 29  1  0  0  0  0
  4 25  1  0  0  0  0
  4  5  1  0  0  0  0
  5  6  2  0  0  0  0
  5  9  1  0  0  0  0
  6  7  1  0  0  0  0
  7  8  2  0  0  0  0
  9 10  1  0  0  0  0
 10 25  1  0  0  0  0
 10 11  1  0  0  0  0
 10 30  1  0  0  0  0
 11 12  1  0  0  0  0
 11 13  1  0  0  0  0
 11 31  1  0  0  0  0
 12 32  1  0  0  0  0
 13 14  1  0  0  0  0
 13 24  1  0  0  0  0
 13 33  1  0  0  0  0
 14 15  1  0  0  0  0
 14 34  1  0  0  0  0
 14 35  1  0  0  0  0
 15 16  1  0  0  0  0
 16 17  2  0  0  0  0
 16 18  1  0  0  0  0
 18 23  1  0  0  0  0
 18 19  2  0  0  0  0
 19 20  1  0  0  0  0
 19 36  1  0  0  0  0
 20 21  2  0  0  0  0
 20 37  1  0  0  0  0
 21 22  1  0  0  0  0
 21 38  1  0  0  0  0
 22 23  2  0  0  0  0
 22 39  1  0  0  0  0
 23 40  1  0  0  0  0
 24 25  1  0  0  0  0
 25 41  1  0  0  0  0
M  END
> <s_m_source_file>
AV-unprocessed.smi

> <i_m_source_file_index>
12

> <i_lp_mmshare_version>
43012

> <i_f3d_flags>
0

> <s_epik_input>
W0NIM11jKFtjSF0xKWMoPU8pbmMobjEyKU9bQ0BIXTNbQ0BASF0yT1tDQEBIXShbQ0BASF0zW09IXSlbQ0gyXU9DKD1PKWM0W2NIXVtjSF1bY0hdW2NIXVtjSF00

> <s_epik_cmdline>
J2VwaWtfcHl0aG9uJywgJy1waCcsICc3LjAnLCAnLXRuJywgJzgnLCAnLW1hJywgJzIwMCcsICctbWV0YWxfYmluZGluZycsICctaW1hZScsICc8aW5maWxlLm1hZT4nLCAnLW9tYWUnLCAnPG91dGZpbGUubWFlPic=

> <r_lp_tautomer_probability>
0.933681

> <r_epik_Ionization_Penalty>
0.00399549

> <r_epik_Ionization_Penalty_Charging>
3.09373e-09

> <r_epik_Ionization_Penalty_Neutral>
0.00399549

> <r_epik_State_Penalty>
0.00284953

> <r_epik_Charging_Adjusted_Penalty>
0.00284953

> <i_epik_Tot_Q>
0

> <i_epik_Tot_abs_Q>
0

> <r_epik_Metal_State_Penalty>
-0

> <b_epik_Metal_Only>
0

> <s_epik_Chemistry_Notes>
This compound has an ester and may undergo hydrolysis at high or low pH. This compound contains an acetal/aminal-like group ( X-CH(R)-Y where X, Y are N, S, or O) that may be acid/base labile, releasing an aldehyde.

> <s_lp_Force_Field>
OPLS_2005

> <r_lp_Energy>
41.0284

> <b_lp_Chiralities_Consistent>
1

> <s_lp_Variant>
AV-unprocessed.smi:12-3

> <Gold.Version>
5.8.1

> <Gold.Id.Protein>
6NUR|6NUR_protein|mol2

> <Gold.PLP.Fitness>
51.3247

> <Gold.PLP.PLP>
-43.9607

> <Gold.PLP.part.hbond>
-2.9248

> <Gold.PLP.part.metal>
0.0000

> <Gold.PLP.part.buried>
-1.9554

> <Gold.PLP.part.nonpolar>
-39.4320

> <Gold.PLP.part.repulsive>
0.7757

> <Gold.PLP.ligand.clash>
0.0000

> <Gold.PLP.ligand.torsion>
0.8145

> <Gold.PLP.Chemscore.Hbond>
2.0000

> <Gold.PLP.Chemscore.CHOScore>
0.9910

> <Gold.PLP.Chemscore.Metal>
0.0000

> <Gold.Chemscore.Hbonds>
donor molecule, donor type, donor heavy atom, donor atom, acceptor molecule, acceptor atom, score
      L1  H    12    32       P1  7948  1.00
      P1  H  7997  8010       L1    17  1.00
      L1  C     3    29       P1  8028  0.98

> <Gold.PLP.Chemscore.Internal.Correction>
0.0200

> <Gold.Rescore>
     Score         DG    S(hbond)    S(metal)    S(lipo)     H(rot)  DE(clash)    DE(int)     intcor
     16.04     -17.04       1.70        0.00      97.88       2.18       0.11       0.89       ----

> <Gold.Chemscore.Fitness>
16.0437

> <Gold.Chemscore.DG>
-17.0408

> <Gold.Chemscore.ZeroCoef>
-5.4800

> <Gold.Chemscore.Hbond>
1.7036

> <Gold.Chemscore.Metal>
0.0000

> <Gold.Chemscore.Lipo>
97.8763

> <Gold.Chemscore.Internal_Hbond>
0.0000

> <Gold.Chemscore.DEClash>
0.1092

> <Gold.Chemscore.DEInternal>
0.8879

> <Gold.Chemscore.Rot>
2.1800

> <Gold.Chemscore.Internal.Correction>
   9.000000E+99

> <Gold.Chemscore.Hbonds>
donor molecule, donor type, donor heavy atom, donor atom, acceptor molecule, acceptor atom, score
      L1  H    12    32       P1  7948  0.39
      P1  H  7997  8010       L1    17  0.39

> <Gold.Chemscore.Hbond.Weighted>
-5.6900

> <Gold.Chemscore.Metal.Weighted>
-0.0000

> <Gold.Chemscore.Lipo.Weighted>
-11.4515

> <Gold.Chemscore.Internal_Hbond.Weighted>
0.0000

> <Gold.Chemscore.DEClash.Weighted>
0.1092

> <Gold.Chemscore.DEInternal.Weighted>
0.8879

> <Gold.Chemscore.Rot.Weighted>
5.5807

> <Gold.Chemscore.Internal.Correction.Weighted>
   9.000000E+99

> <Gold.Protein.RotatedTorsions>
[ 6907 6896 6895 6894 ] final  176.06 input  -60.11 | X-H torsion
[ 7974 7965 7964 7962 ] final  -89.69 input  175.53 | X-H torsion
[ 8008 7997 7996 7995 ] final   34.90 input   59.86 | X-H torsion
[ 10167 10162 10161 10158 ] final   76.30 input  -65.29 | X-H torsion
[ 10718 10713 10712 10709 ] final   98.64 input   66.30 | X-H torsion
[ 10763 10752 10751 10750 ] final  -78.81 input  -60.55 | X-H torsion
[ 11005 11000 10999 10996 ] final  179.61 input  -57.11 | X-H torsion

> <Gold.Protein.ActiveResidues>
 VAL166  LYS551  ARG553  GLY616  TRP617  ASP618  TYR619  PRO620  LYS621  CYS622 
 ASP623  PHE694  ASN695  SER759  ASP760  ASP761  ALA762  ILE779  LEU786  VAL792 
 PHE793  MET794  SER795  GLU796  ALA797  LYS798  CYS799  TRP800  GLU811  SER814 

> <Gold.Protein.RotatedAtoms>
  151.7262  133.3316  159.3328 H   0  0  0  0  0  0  0  0  0  0  0  0  # atno 6907 bound_to 6896
  150.7632  134.6404  159.6243 H   0  0  0  0  0  0  0  0  0  0  0  0  # atno 6908 bound_to 6896
  152.3621  134.6860  160.0255 H   0  0  0  0  0  0  0  0  0  0  0  0  # atno 6909 bound_to 6896
  145.4365  140.9557  143.2099 H   0  0  0  0  0  0  0  0  0  0  0  0  # atno 7974 bound_to 7965
  155.1623  140.3284  155.4409 H   0  0  0  0  0  0  0  0  0  0  0  0  # atno 8008 bound_to 7997
  156.2538  140.1958  156.6681 H   0  0  0  0  0  0  0  0  0  0  0  0  # atno 8009 bound_to 7997
  154.6396  140.0572  156.9816 H   0  0  0  0  0  0  0  0  0  0  0  0  # atno 8010 bound_to 7997
  139.9938  144.5737  150.7795 H   0  0  0  0  0  0  0  0  0  0  0  0  # atno 10167 bound_to 10162
  157.6892  131.0646  150.4826 H   0  0  0  0  0  0  0  0  0  0  0  0  # atno 10718 bound_to 10713
  154.5307  135.5717  153.6756 H   0  0  0  0  0  0  0  0  0  0  0  0  # atno 10763 bound_to 10752
  152.9938  135.6204  154.2633 H   0  0  0  0  0  0  0  0  0  0  0  0  # atno 10764 bound_to 10752
  154.2559  135.2857  155.2777 H   0  0  0  0  0  0  0  0  0  0  0  0  # atno 10765 bound_to 10752
  140.4081  134.6717  157.4599 H   0  0  0  0  0  0  0  0  0  0  0  0  # atno 11005 bound_to 11000
  144.8149  139.5895  143.7013 LP  0  0  0  0  0  0  0  0  0  0  0  0  # atno 17320 bound_to 7965
  146.2579  139.6344  142.9382 LP  0  0  0  0  0  0  0  0  0  0  0  0  # atno 17321 bound_to 7965
  140.7445  143.2861  151.3459 LP  0  0  0  0  0  0  0  0  0  0  0  0  # atno 17342 bound_to 10162
  139.6321  144.0701  152.2485 LP  0  0  0  0  0  0  0  0  0  0  0  0  # atno 17343 bound_to 10162
  156.5157  130.4150  149.6277 LP  0  0  0  0  0  0  0  0  0  0  0  0  # atno 17370 bound_to 10713
  156.3200  130.7275  151.2185 LP  0  0  0  0  0  0  0  0  0  0  0  0  # atno 17371 bound_to 10713
  140.0288  134.6438  155.9136 LP  0  0  0  0  0  0  0  0  0  0  0  0  # atno 17394 bound_to 11000
  141.1832  133.6550  156.5106 LP  0  0  0  0  0  0  0  0  0  0  0  0  # atno 17395 bound_to 11000

$$$$
