AV-unprocessed.smi:164|AV-procd|sdf|1382|dock8
  -GOLD-   2262019113D 1   1.00000     0.00000
 Structure written by MMmdl.
 53 55  0  0  0  0  0  0  0  0  1 V2000
  152.2080  145.0851  162.1702 C   0  0  0  0  0  0  0  0  0  0  0  0
  152.2384  143.9710  161.1379 C   0  0  0  0  0  0  0  0  0  0  0  0
  151.5631  144.1558  159.9143 C   0  0  0  0  0  0  0  0  0  0  0  0
  151.5724  143.1463  158.9358 C   0  0  0  0  0  0  0  0  0  0  0  0
  152.2641  141.9416  159.1672 C   0  0  0  0  0  0  0  0  0  0  0  0
  152.2599  140.8623  158.1002 C   0  0  0  0  0  0  0  0  0  0  0  0
  152.9564  141.7522  160.3858 C   0  0  0  0  0  0  0  0  0  0  0  0
  153.6365  140.5818  160.6042 O   0  0  0  0  0  0  0  0  0  0  0  0
  154.8359  140.4738  159.8512 C   0  0  0  0  0  0  0  0  0  0  0  0
  155.3612  139.0327  159.9534 C   0  0  2  0  0  0  0  0  0  0  0  0
  155.8483  138.6799  158.6736 O   0  0  0  0  0  0  0  0  0  0  0  0
  154.2403  138.0385  160.3327 C   0  0  0  0  0  0  0  0  0  0  0  0
  154.6968  136.9637  161.1996 N   0  0  0  0  0  0  0  0  0  0  0  0
  154.5670  135.6363  160.7236 C   0  0  0  0  0  0  0  0  0  0  0  0
  154.1123  135.3822  159.6067 O   0  0  0  0  0  0  0  0  0  0  0  0
  154.9900  134.6114  161.6703 C   0  0  0  0  0  0  0  0  0  0  0  0
  154.8763  133.3142  161.3389 F   0  0  0  0  0  0  0  0  0  0  0  0
  155.4752  134.9417  162.8866 C   0  0  0  0  0  0  0  0  0  0  0  0
  155.6240  136.2525  163.3171 N   0  0  0  0  0  0  0  0  0  0  0  0
  156.0876  136.6087  164.7220 C   0  0  2  0  0  0  0  0  0  0  0  0
  157.3117  137.5330  164.7700 C   0  0  0  0  0  0  0  0  0  0  0  0
  158.4755  136.5644  164.9661 C   0  0  0  0  0  0  0  0  0  0  0  0
  157.8254  135.1780  165.0246 C   0  0  0  0  0  0  0  0  0  0  0  0
  156.4715  135.4378  165.3693 O   0  0  0  0  0  0  0  0  0  0  0  0
  155.1844  137.3056  162.4831 C   0  0  0  0  0  0  0  0  0  0  0  0
  155.2214  138.4754  162.8719 O   0  0  0  0  0  0  0  0  0  0  0  0
  152.9310  142.7588  161.3835 C   0  0  0  0  0  0  0  0  0  0  0  0
  153.6514  142.5377  162.7071 C   0  0  0  0  0  0  0  0  0  0  0  0
  151.7773  145.9977  161.7569 H   0  0  0  0  0  0  0  0  0  0  0  0
  153.2153  145.3207  162.5145 H   0  0  0  0  0  0  0  0  0  0  0  0
  151.6066  144.7897  163.0302 H   0  0  0  0  0  0  0  0  0  0  0  0
  151.0303  145.0752  159.7201 H   0  0  0  0  0  0  0  0  0  0  0  0
  151.0472  143.3019  158.0047 H   0  0  0  0  0  0  0  0  0  0  0  0
  152.1985  139.8699  158.5477 H   0  0  0  0  0  0  0  0  0  0  0  0
  153.1716  140.9164  157.5053 H   0  0  0  0  0  0  0  0  0  0  0  0
  151.4082  140.9781  157.4293 H   0  0  0  0  0  0  0  0  0  0  0  0
  154.5972  140.7087  158.8136 H   0  0  0  0  0  0  0  0  0  0  0  0
  155.5907  141.1944  160.1726 H   0  0  0  0  0  0  0  0  0  0  0  0
  156.1695  138.9920  160.6845 H   0  0  0  0  0  0  0  0  0  0  0  0
  156.7274  138.3460  158.7685 H   0  0  0  0  0  0  0  0  0  0  0  0
  153.4336  138.5379  160.8722 H   0  0  0  0  0  0  0  0  0  0  0  0
  153.7464  137.6078  159.4601 H   0  0  0  0  0  0  0  0  0  0  0  0
  155.7378  134.1266  163.5421 H   0  0  0  0  0  0  0  0  0  0  0  0
  155.2239  137.0697  165.2040 H   0  0  0  0  0  0  0  0  0  0  0  0
  157.3876  138.1805  163.8967 H   0  0  0  0  0  0  0  0  0  0  0  0
  157.2185  138.1744  165.6472 H   0  0  0  0  0  0  0  0  0  0  0  0
  159.2085  136.6283  164.1614 H   0  0  0  0  0  0  0  0  0  0  0  0
  158.9898  136.7850  165.9021 H   0  0  0  0  0  0  0  0  0  0  0  0
  157.8703  134.6851  164.0526 H   0  0  0  0  0  0  0  0  0  0  0  0
  158.3013  134.5229  165.7544 H   0  0  0  0  0  0  0  0  0  0  0  0
  153.8541  141.4831  162.8922 H   0  0  0  0  0  0  0  0  0  0  0  0
  153.0540  142.8954  163.5454 H   0  0  0  0  0  0  0  0  0  0  0  0
  154.6030  143.0696  162.7096 H   0  0  0  0  0  0  0  0  0  0  0  0
  1  2  1  0  0  0  0
  1 29  1  0  0  0  0
  1 30  1  0  0  0  0
  1 31  1  0  0  0  0
  2 27  1  0  0  0  0
  2  3  2  0  0  0  0
  3  4  1  0  0  0  0
  3 32  1  0  0  0  0
  4  5  2  0  0  0  0
  4 33  1  0  0  0  0
  5  6  1  0  0  0  0
  5  7  1  0  0  0  0
  6 34  1  0  0  0  0
  6 35  1  0  0  0  0
  6 36  1  0  0  0  0
  7  8  1  0  0  0  0
  7 27  2  0  0  0  0
  8  9  1  0  0  0  0
  9 10  1  0  0  0  0
  9 37  1  0  0  0  0
  9 38  1  0  0  0  0
 10 11  1  0  0  0  0
 10 12  1  0  0  0  0
 10 39  1  0  0  0  0
 11 40  1  0  0  0  0
 12 13  1  0  0  0  0
 12 41  1  0  0  0  0
 12 42  1  0  0  0  0
 13 25  1  0  0  0  0
 13 14  1  0  0  0  0
 14 15  2  0  0  0  0
 14 16  1  0  0  0  0
 16 17  1  0  0  0  0
 16 18  2  0  0  0  0
 18 19  1  0  0  0  0
 18 43  1  0  0  0  0
 19 20  1  0  0  0  0
 19 25  1  0  0  0  0
 20 24  1  0  0  0  0
 20 21  1  0  0  0  0
 20 44  1  0  0  0  0
 21 22  1  0  0  0  0
 21 45  1  0  0  0  0
 21 46  1  0  0  0  0
 22 23  1  0  0  0  0
 22 47  1  0  0  0  0
 22 48  1  0  0  0  0
 23 24  1  0  0  0  0
 23 49  1  0  0  0  0
 23 50  1  0  0  0  0
 25 26  2  0  0  0  0
 27 28  1  0  0  0  0
 28 51  1  0  0  0  0
 28 52  1  0  0  0  0
 28 53  1  0  0  0  0
M  END
> <s_m_source_file>
AV-unprocessed.smi

> <i_m_source_file_index>
164

> <i_lp_mmshare_version>
43012

> <i_f3d_flags>
0

> <s_epik_input>
W0NIM11jMVtjSF1bY0hdYyhbQ0gzXSljKGMxW0NIM10pT1tDSDJdW0NASF0oW09IXSlbQ0gyXW4yYyg9TyljKEYpW2NIXW4oYzI9TylbQ0BASF0zW0NIMl1bQ0gyXVtDSDJdTzM=

> <s_epik_cmdline>
J2VwaWtfcHl0aG9uJywgJy1waCcsICc3LjAnLCAnLXRuJywgJzgnLCAnLW1hJywgJzIwMCcsICctbWV0YWxfYmluZGluZycsICctaW1hZScsICc8aW5maWxlLm1hZT4nLCAnLW9tYWUnLCAnPG91dGZpbGUubWFlPic=

> <r_lp_tautomer_probability>
1

> <r_epik_Ionization_Penalty>
1.45842e-07

> <r_epik_Ionization_Penalty_Charging>
2.86622e-08

> <r_epik_Ionization_Penalty_Neutral>
1.1718e-07

> <r_epik_State_Penalty>
-0

> <r_epik_Charging_Adjusted_Penalty>
2.86622e-08

> <i_epik_Tot_Q>
0

> <i_epik_Tot_abs_Q>
0

> <r_epik_Metal_State_Penalty>
-0

> <b_epik_Metal_Only>
0

> <s_epik_Chemistry_Notes>
This compound contains an acetal/aminal-like group ( X-CH(R)-Y where X, Y are N, S, or O) that may be acid/base labile, releasing an aldehyde.

> <s_lp_Force_Field>
OPLS_2005

> <r_lp_Energy>
44.8383

> <b_lp_Chiralities_Consistent>
1

> <s_lp_Variant>
AV-unprocessed.smi:164-1

> <Gold.Version>
5.8.1

> <Gold.Id.Protein>
6NUR|6NUR_protein|mol2

> <Gold.PLP.Fitness>
42.0354

> <Gold.PLP.PLP>
-38.2182

> <Gold.PLP.part.hbond>
-2.0000

> <Gold.PLP.part.metal>
0.0000

> <Gold.PLP.part.buried>
-0.6371

> <Gold.PLP.part.nonpolar>
-34.2640

> <Gold.PLP.part.repulsive>
0.0941

> <Gold.PLP.ligand.clash>
0.0000

> <Gold.PLP.ligand.torsion>
1.2720

> <Gold.PLP.Chemscore.Hbond>
2.0000

> <Gold.PLP.Chemscore.CHOScore>
0.0000

> <Gold.PLP.Chemscore.Metal>
0.0000

> <Gold.Chemscore.Hbonds>
donor molecule, donor type, donor heavy atom, donor atom, acceptor molecule, acceptor atom, score
      P1  H  6896  6907       L1    15  1.00
      P1  H  7997  8010       L1    11  1.00

> <Gold.PLP.Chemscore.Internal.Correction>
0.3611

> <Gold.Rescore>
     Score         DG    S(hbond)    S(metal)    S(lipo)     H(rot)  DE(clash)    DE(int)     intcor
     14.82     -19.13       1.80        0.00     125.00       2.73       1.68       2.64       ----

> <Gold.Chemscore.Fitness>
14.8202

> <Gold.Chemscore.DG>
-19.1340

> <Gold.Chemscore.ZeroCoef>
-5.4800

> <Gold.Chemscore.Hbond>
1.8030

> <Gold.Chemscore.Metal>
0.0000

> <Gold.Chemscore.Lipo>
124.9952

> <Gold.Chemscore.Internal_Hbond>
0.0000

> <Gold.Chemscore.DEClash>
1.6777

> <Gold.Chemscore.DEInternal>
2.6361

> <Gold.Chemscore.Rot>
2.7315

> <Gold.Chemscore.Internal.Correction>
   9.000000E+99

> <Gold.Chemscore.Hbonds>
donor molecule, donor type, donor heavy atom, donor atom, acceptor molecule, acceptor atom, score
      P1  H  6896  6907       L1    15  0.50
      P1  H  7997  8010       L1    11  0.83

> <Gold.Chemscore.Hbond.Weighted>
-6.0221

> <Gold.Chemscore.Metal.Weighted>
-0.0000

> <Gold.Chemscore.Lipo.Weighted>
-14.6244

> <Gold.Chemscore.Internal_Hbond.Weighted>
0.0000

> <Gold.Chemscore.DEClash.Weighted>
1.6777

> <Gold.Chemscore.DEInternal.Weighted>
2.6361

> <Gold.Chemscore.Rot.Weighted>
6.9925

> <Gold.Chemscore.Internal.Correction.Weighted>
   9.000000E+99

> <Gold.Protein.RotatedTorsions>
[ 6907 6896 6895 6894 ] final   77.08 input  -60.11 | X-H torsion
[ 7974 7965 7964 7962 ] final   -3.55 input  175.53 | X-H torsion
[ 8008 7997 7996 7995 ] final  -25.83 input   59.86 | X-H torsion
[ 10167 10162 10161 10158 ] final  -24.60 input  -65.29 | X-H torsion
[ 10718 10713 10712 10709 ] final -173.16 input   66.30 | X-H torsion
[ 10763 10752 10751 10750 ] final -134.74 input  -60.55 | X-H torsion
[ 11005 11000 10999 10996 ] final -147.96 input  -57.11 | X-H torsion

> <Gold.Protein.ActiveResidues>
 VAL166  LYS551  ARG553  GLY616  TRP617  ASP618  TYR619  PRO620  LYS621  CYS622 
 ASP623  PHE694  ASN695  SER759  ASP760  ASP761  ALA762  ILE779  LEU786  VAL792 
 PHE793  MET794  SER795  GLU796  ALA797  LYS798  CYS799  TRP800  GLU811  SER814 

> <Gold.Protein.RotatedAtoms>
  152.5102  134.3871  159.9370 H   0  0  0  0  0  0  0  0  0  0  0  0  # atno 6907 bound_to 6896
  151.3830  133.3808  159.2720 H   0  0  0  0  0  0  0  0  0  0  0  0  # atno 6908 bound_to 6896
  150.9490  134.8913  159.7719 H   0  0  0  0  0  0  0  0  0  0  0  0  # atno 6909 bound_to 6896
  146.2388  140.1737  142.8332 H   0  0  0  0  0  0  0  0  0  0  0  0  # atno 7974 bound_to 7965
  154.4456  140.1916  156.0680 H   0  0  0  0  0  0  0  0  0  0  0  0  # atno 8008 bound_to 7997
  156.0532  140.3306  155.7349 H   0  0  0  0  0  0  0  0  0  0  0  0  # atno 8009 bound_to 7997
  155.5525  140.0596  157.2837 H   0  0  0  0  0  0  0  0  0  0  0  0  # atno 8010 bound_to 7997
  140.7288  143.4339  151.0759 H   0  0  0  0  0  0  0  0  0  0  0  0  # atno 10167 bound_to 10162
  156.7662  130.9432  151.3119 H   0  0  0  0  0  0  0  0  0  0  0  0  # atno 10718 bound_to 10713
  154.8714  135.3725  154.4784 H   0  0  0  0  0  0  0  0  0  0  0  0  # atno 10763 bound_to 10752
  153.5440  135.7026  153.5628 H   0  0  0  0  0  0  0  0  0  0  0  0  # atno 10764 bound_to 10752
  153.3777  135.4005  155.1799 H   0  0  0  0  0  0  0  0  0  0  0  0  # atno 10765 bound_to 10752
  140.7662  134.3242  157.5088 H   0  0  0  0  0  0  0  0  0  0  0  0  # atno 11005 bound_to 11000
  144.9990  140.8615  143.5293 LP  0  0  0  0  0  0  0  0  0  0  0  0  # atno 17320 bound_to 7965
  145.1754  139.2381  143.5320 LP  0  0  0  0  0  0  0  0  0  0  0  0  # atno 17321 bound_to 7965
  139.7999  143.8098  152.3162 LP  0  0  0  0  0  0  0  0  0  0  0  0  # atno 17342 bound_to 10162
  139.8111  144.7335  150.9695 LP  0  0  0  0  0  0  0  0  0  0  0  0  # atno 17343 bound_to 10162
  157.6712  130.9052  150.0044 LP  0  0  0  0  0  0  0  0  0  0  0  0  # atno 17370 bound_to 10713
  156.1307  130.3643  149.9737 LP  0  0  0  0  0  0  0  0  0  0  0  0  # atno 17371 bound_to 10713
  139.8763  134.9232  156.3320 LP  0  0  0  0  0  0  0  0  0  0  0  0  # atno 17394 bound_to 11000
  140.9617  133.7384  156.0410 LP  0  0  0  0  0  0  0  0  0  0  0  0  # atno 17395 bound_to 11000

$$$$
