AV-unprocessed.smi:1799|AV-procd|sdf|7261|dock6
  -GOLD-   22720 8513D 1   1.00000     0.00000
 Structure written by MMmdl.
 41 42  0  0  0  0  0  0  0  0  2 V2000
  146.4364  133.8817  151.4963 C   0  0  0  0  0  0  0  0  0  0  0  0
  145.6823  133.2081  152.6640 C   0  0  0  0  0  0  0  0  0  0  0  0
  145.5845  131.7095  152.3176 C   0  0  0  0  0  0  0  0  0  0  0  0
  146.4405  133.3377  154.0087 C   0  0  0  0  0  0  0  0  0  0  0  0
  146.2979  134.7010  154.7133 C   0  0  0  0  0  0  0  0  0  0  0  0
  147.1076  135.7615  154.1164 N   0  0  0  0  0  0  0  0  0  0  0  0
  147.3274  136.9704  154.6540 C   0  0  0  0  0  0  0  0  0  0  0  0
  146.8556  137.3276  155.7332 O   0  0  0  0  0  0  0  0  0  0  0  0
  148.1210  137.7163  153.8657 N   0  0  0  0  0  0  0  0  0  0  0  0
  148.6211  139.0232  154.1071 C   0  0  0  0  0  0  0  0  0  0  0  0
  149.9075  139.2881  154.3846 N   0  0  0  0  0  0  0  0  0  0  0  0
  150.1301  140.6463  154.5693 N   0  0  0  0  0  0  0  0  0  0  0  0
  149.0047  141.3517  154.4237 C   0  0  0  0  0  0  0  0  0  0  0  0
  147.5623  140.4251  154.0473 S   0  0  0  0  0  0  0  0  0  0  0  0
  144.8150  135.0942  154.8140 C   0  0  0  0  0  0  0  0  0  0  0  0
  144.0138  134.9974  153.4893 C   0  0  0  0  0  0  0  0  0  0  0  0
  142.5129  134.9985  153.8397 C   0  0  0  0  0  0  0  0  0  0  0  0
  144.2519  136.2150  152.5689 C   0  0  0  0  0  0  0  0  0  0  0  0
  144.2856  133.7139  152.7816 N   0  3  0  0  0  0  0  0  0  0  0  0
  147.3935  133.3896  151.3195 H   0  0  0  0  0  0  0  0  0  0  0  0
  146.6662  134.9279  151.6678 H   0  0  0  0  0  0  0  0  0  0  0  0
  145.8663  133.8202  150.5685 H   0  0  0  0  0  0  0  0  0  0  0  0
  146.5729  131.2559  152.2311 H   0  0  0  0  0  0  0  0  0  0  0  0
  145.0679  131.5503  151.3701 H   0  0  0  0  0  0  0  0  0  0  0  0
  145.0384  131.1546  153.0815 H   0  0  0  0  0  0  0  0  0  0  0  0
  146.0495  132.5874  154.6979 H   0  0  0  0  0  0  0  0  0  0  0  0
  147.4911  133.0761  153.8764 H   0  0  0  0  0  0  0  0  0  0  0  0
  146.6639  134.5838  155.7352 H   0  0  0  0  0  0  0  0  0  0  0  0
  147.5289  135.5609  153.2212 H   0  0  0  0  0  0  0  0  0  0  0  0
  148.4171  137.2949  152.9978 H   0  0  0  0  0  0  0  0  0  0  0  0
  149.0246  142.4253  154.5384 H   0  0  0  0  0  0  0  0  0  0  0  0
  144.3600  134.4208  155.5424 H   0  0  0  0  0  0  0  0  0  0  0  0
  144.7175  136.0912  155.2467 H   0  0  0  0  0  0  0  0  0  0  0  0
  142.2288  135.9024  154.3804 H   0  0  0  0  0  0  0  0  0  0  0  0
  142.2463  134.1471  154.4675 H   0  0  0  0  0  0  0  0  0  0  0  0
  141.8930  134.9453  152.9435 H   0  0  0  0  0  0  0  0  0  0  0  0
  143.8902  137.1311  153.0374 H   0  0  0  0  0  0  0  0  0  0  0  0
  143.7206  136.1065  151.6227 H   0  0  0  0  0  0  0  0  0  0  0  0
  145.2966  136.3911  152.3356 H   0  0  0  0  0  0  0  0  0  0  0  0
  143.8710  133.7519  151.8614 H   0  0  0  0  0  0  0  0  0  0  0  0
  143.7910  133.0091  153.3098 H   0  0  0  0  0  0  0  0  0  0  0  0
  1  2  1  0  0  0  0
  1 20  1  0  0  0  0
  1 21  1  0  0  0  0
  1 22  1  0  0  0  0
  2 19  1  0  0  0  0
  2  3  1  0  0  0  0
  2  4  1  0  0  0  0
  3 23  1  0  0  0  0
  3 24  1  0  0  0  0
  3 25  1  0  0  0  0
  4  5  1  0  0  0  0
  4 26  1  0  0  0  0
  4 27  1  0  0  0  0
  5  6  1  0  0  0  0
  5 15  1  0  0  0  0
  5 28  1  0  0  0  0
  6  7  1  0  0  0  0
  6 29  1  0  0  0  0
  7  8  2  0  0  0  0
  7  9  1  0  0  0  0
  9 10  1  0  0  0  0
  9 30  1  0  0  0  0
 10 14  1  0  0  0  0
 10 11  2  0  0  0  0
 11 12  1  0  0  0  0
 12 13  2  0  0  0  0
 13 14  1  0  0  0  0
 13 31  1  0  0  0  0
 15 16  1  0  0  0  0
 15 32  1  0  0  0  0
 15 33  1  0  0  0  0
 16 17  1  0  0  0  0
 16 18  1  0  0  0  0
 16 19  1  0  0  0  0
 17 34  1  0  0  0  0
 17 35  1  0  0  0  0
 17 36  1  0  0  0  0
 18 37  1  0  0  0  0
 18 38  1  0  0  0  0
 18 39  1  0  0  0  0
 19 40  1  0  0  0  0
 19 41  1  0  0  0  0
M  CHG  1  19   1
M  END
> <s_m_source_file>
AV-unprocessed.smi

> <i_m_source_file_index>
1799

> <i_lp_mmshare_version>
43012

> <i_f3d_flags>
0

> <s_epik_input>
W0NIM11DMShbQ0gzXSlbQ0gyXVtDSF0oW0NIMl1DKFtDSDNdKShbQ0gzXSlbTkhdMSlbTkhdQyg9TylbTkhdYzJubltjSF1zMg==

> <s_epik_cmdline>
J2VwaWtfcHl0aG9uJywgJy1waCcsICc3LjAnLCAnLXRuJywgJzgnLCAnLW1hJywgJzIwMCcsICctbWV0YWxfYmluZGluZycsICctaW1hZScsICc8aW5maWxlLm1hZT4nLCAnLW9tYWUnLCAnPG91dGZpbGUubWFlPic=

> <r_lp_tautomer_probability>
1

> <r_epik_Ionization_Penalty>
0.000698711

> <r_epik_Ionization_Penalty_Charging>
0.000101406

> <r_epik_Ionization_Penalty_Neutral>
0.000597305

> <r_epik_State_Penalty>
-0

> <r_epik_Charging_Adjusted_Penalty>
0.000101406

> <i_epik_Tot_Q>
1

> <i_epik_Tot_abs_Q>
1

> <r_epik_Metal_State_Penalty>
0.237927

> <b_epik_Metal_Only>
0

> <s_lp_Force_Field>
OPLS_2005

> <r_lp_Energy>
25.55

> <b_lp_Chiralities_Consistent>
1

> <s_lp_Variant>
AV-unprocessed.smi:1799-1

> <Gold.Version>
5.8.1

> <Gold.Id.Protein>
6NUR|6NUR_protein|mol2

> <Gold.PLP.Fitness>
35.7445

> <Gold.PLP.PLP>
-23.2382

> <Gold.PLP.part.hbond>
-3.3543

> <Gold.PLP.part.metal>
0.0000

> <Gold.PLP.part.buried>
-4.7032

> <Gold.PLP.part.nonpolar>
-15.8922

> <Gold.PLP.part.repulsive>
0.3057

> <Gold.PLP.ligand.clash>
0.0000

> <Gold.PLP.ligand.torsion>
0.7417

> <Gold.PLP.Chemscore.Hbond>
3.7031

> <Gold.PLP.Chemscore.CHOScore>
0.9542

> <Gold.PLP.Chemscore.Metal>
0.0000

> <Gold.Chemscore.Hbonds>
donor molecule, donor type, donor heavy atom, donor atom, acceptor molecule, acceptor atom, score
      L1  H     6    29       P1  7948  0.80
      L1  H     9    30       P1  7948  1.00
      L1  H    19    41       P1 10957  1.04
      P1  H  7989  7998       L1    12  0.83
      L1  C    13    31       P1  8028  0.98

> <Gold.PLP.Chemscore.Internal.Correction>
0.0178

> <Gold.Rescore>
     Score         DG    S(hbond)    S(metal)    S(lipo)     H(rot)  DE(clash)    DE(int)     intcor
     17.63     -18.39       3.10        0.00      43.67       1.00       0.01       0.75       ----

> <Gold.Chemscore.Fitness>
17.6295

> <Gold.Chemscore.DG>
-18.3888

> <Gold.Chemscore.ZeroCoef>
-5.4800

> <Gold.Chemscore.Hbond>
3.1018

> <Gold.Chemscore.Metal>
0.0000

> <Gold.Chemscore.Lipo>
43.6659

> <Gold.Chemscore.Internal_Hbond>
0.0000

> <Gold.Chemscore.DEClash>
0.0069

> <Gold.Chemscore.DEInternal>
0.7525

> <Gold.Chemscore.Rot>
1.0000

> <Gold.Chemscore.Internal.Correction>
   9.000000E+99

> <Gold.Chemscore.Hbonds>
donor molecule, donor type, donor heavy atom, donor atom, acceptor molecule, acceptor atom, score
      L1  H     6    29       P1  7948  0.75
      L1  H     9    30       P1  7948  0.99
      L1  H    19    41       P1 10957  0.39
      P1  H  7989  7998       L1    12  0.21

> <Gold.Chemscore.Hbond.Weighted>
-10.3599

> <Gold.Chemscore.Metal.Weighted>
-0.0000

> <Gold.Chemscore.Lipo.Weighted>
-5.1089

> <Gold.Chemscore.Internal_Hbond.Weighted>
0.0000

> <Gold.Chemscore.DEClash.Weighted>
0.0069

> <Gold.Chemscore.DEInternal.Weighted>
0.7525

> <Gold.Chemscore.Rot.Weighted>
2.5600

> <Gold.Chemscore.Internal.Correction.Weighted>
   9.000000E+99

> <Gold.Protein.RotatedTorsions>
[ 6907 6896 6895 6894 ] final  158.27 input  -60.11 | X-H torsion
[ 7974 7965 7964 7962 ] final  -11.94 input  175.53 | X-H torsion
[ 8008 7997 7996 7995 ] final   49.35 input   59.86 | X-H torsion
[ 10167 10162 10161 10158 ] final  103.74 input  -65.29 | X-H torsion
[ 10718 10713 10712 10709 ] final  136.25 input   66.30 | X-H torsion
[ 10763 10752 10751 10750 ] final -171.58 input  -60.55 | X-H torsion
[ 11005 11000 10999 10996 ] final   65.04 input  -57.11 | X-H torsion

> <Gold.Protein.ActiveResidues>
 VAL166  LYS551  ARG553  GLY616  TRP617  ASP618  TYR619  PRO620  LYS621  CYS622 
 ASP623  PHE694  ASN695  SER759  ASP760  ASP761  ALA762  ILE779  LEU786  VAL792 
 PHE793  MET794  SER795  GLU796  ALA797  LYS798  CYS799  TRP800  GLU811  SER814 

> <Gold.Protein.RotatedAtoms>
  152.0029  133.3832  159.4188 H   0  0  0  0  0  0  0  0  0  0  0  0  # atno 6907 bound_to 6896
  150.6908  134.3814  159.5045 H   0  0  0  0  0  0  0  0  0  0  0  0  # atno 6908 bound_to 6896
  152.1564  134.8947  160.0595 H   0  0  0  0  0  0  0  0  0  0  0  0  # atno 6909 bound_to 6896
  146.2169  140.2985  142.8373 H   0  0  0  0  0  0  0  0  0  0  0  0  # atno 7974 bound_to 7965
  155.4008  140.3438  155.4257 H   0  0  0  0  0  0  0  0  0  0  0  0  # atno 8008 bound_to 7997
  156.1504  140.1569  156.8810 H   0  0  0  0  0  0  0  0  0  0  0  0  # atno 8009 bound_to 7997
  154.5048  140.0805  156.7852 H   0  0  0  0  0  0  0  0  0  0  0  0  # atno 8010 bound_to 7997
  139.7237  144.7052  151.0832 H   0  0  0  0  0  0  0  0  0  0  0  0  # atno 10167 bound_to 10162
  157.4486  131.1064  151.0060 H   0  0  0  0  0  0  0  0  0  0  0  0  # atno 10718 bound_to 10713
  154.6289  135.2884  155.0239 H   0  0  0  0  0  0  0  0  0  0  0  0  # atno 10763 bound_to 10752
  154.1407  135.6519  153.4945 H   0  0  0  0  0  0  0  0  0  0  0  0  # atno 10764 bound_to 10752
  153.0270  135.5332  154.7109 H   0  0  0  0  0  0  0  0  0  0  0  0  # atno 10765 bound_to 10752
  139.9920  134.6576  156.0074 H   0  0  0  0  0  0  0  0  0  0  0  0  # atno 11005 bound_to 11000
  144.9074  140.7717  143.5829 LP  0  0  0  0  0  0  0  0  0  0  0  0  # atno 17320 bound_to 7965
  145.2914  139.1882  143.4738 LP  0  0  0  0  0  0  0  0  0  0  0  0  # atno 17321 bound_to 7965
  140.7758  143.5133  150.9626 LP  0  0  0  0  0  0  0  0  0  0  0  0  # atno 17342 bound_to 10162
  139.8820  143.7060  152.3156 LP  0  0  0  0  0  0  0  0  0  0  0  0  # atno 17343 bound_to 10162
  157.0898  130.5937  149.5437 LP  0  0  0  0  0  0  0  0  0  0  0  0  # atno 17370 bound_to 10713
  155.9977  130.5050  150.7546 LP  0  0  0  0  0  0  0  0  0  0  0  0  # atno 17371 bound_to 10713
  141.1574  133.6541  156.4205 LP  0  0  0  0  0  0  0  0  0  0  0  0  # atno 17394 bound_to 11000
  140.4890  134.6593  157.5203 LP  0  0  0  0  0  0  0  0  0  0  0  0  # atno 17395 bound_to 11000

$$$$
