AV-unprocessed.smi:3021|AV-procd|sdf|11499|dock1
  -GOLD-   2272016433D 1   1.00000     0.00000
 Structure written by MMmdl.
 35 37  0  0  0  0  0  0  0  0  1 V2000
  151.2878  143.9454  157.0611 O   0  0  0  0  0  0  0  0  0  0  0  0
  150.7794  142.6830  157.4456 C   0  0  1  0  0  0  0  0  0  0  0  0
  150.5025  141.8650  156.1751 C   0  0  0  0  0  0  0  0  0  0  0  0
  149.5183  140.8866  156.4645 O   0  0  0  0  0  0  0  0  0  0  0  0
  150.0749  139.6700  156.9376 C   0  0  0  0  0  0  0  0  0  0  0  0
  151.0342  139.1673  155.9052 C   0  0  0  0  0  0  0  0  0  0  0  0
  152.3093  139.5304  155.5684 C   0  0  0  0  0  0  0  0  0  0  0  0
  152.7054  138.6752  154.5031 C   0  0  0  0  0  0  0  0  0  0  0  0
  151.6424  137.8510  154.2671 C   0  0  0  0  0  0  0  0  0  0  0  0
  150.6162  138.1360  155.1140 O   0  0  0  0  0  0  0  0  0  0  0  0
  151.8002  141.9875  158.3674 C   0  0  0  0  0  0  0  0  0  0  0  0
  151.8949  142.6220  159.6708 N   0  0  0  0  0  0  0  0  0  0  0  0
  151.0912  143.6832  159.9649 N   0  0  0  0  0  0  0  0  0  0  0  0
  151.3516  144.0796  161.1750 N   0  0  0  0  0  0  0  0  0  0  0  0
  152.3460  143.2638  161.6884 C   0  0  0  0  0  0  0  0  0  0  0  0
  152.9979  143.2469  162.9417 C   0  0  0  0  0  0  0  0  0  0  0  0
  153.9980  142.2876  163.2136 C   0  0  0  0  0  0  0  0  0  0  0  0
  154.7721  142.2986  164.7583 Cl  0  0  0  0  0  0  0  0  0  0  0  0
  154.3578  141.3326  162.2320 C   0  0  0  0  0  0  0  0  0  0  0  0
  155.5786  140.1517  162.5480 Cl  0  0  0  0  0  0  0  0  0  0  0  0
  153.7163  141.3381  160.9774 C   0  0  0  0  0  0  0  0  0  0  0  0
  152.7238  142.3010  160.7278 C   0  0  0  0  0  0  0  0  0  0  0  0
  150.6240  144.3934  156.5590 H   0  0  0  0  0  0  0  0  0  0  0  0
  149.8481  142.8290  157.9946 H   0  0  0  0  0  0  0  0  0  0  0  0
  150.1961  142.5092  155.3488 H   0  0  0  0  0  0  0  0  0  0  0  0
  151.4130  141.3504  155.8634 H   0  0  0  0  0  0  0  0  0  0  0  0
  150.5942  139.8317  157.8831 H   0  0  0  0  0  0  0  0  0  0  0  0
  149.2902  138.9316  157.1077 H   0  0  0  0  0  0  0  0  0  0  0  0
  152.8867  140.3161  156.0327 H   0  0  0  0  0  0  0  0  0  0  0  0
  153.6482  138.6644  153.9766 H   0  0  0  0  0  0  0  0  0  0  0  0
  151.4560  137.0470  153.5707 H   0  0  0  0  0  0  0  0  0  0  0  0
  151.5148  140.9466  158.5240 H   0  0  0  0  0  0  0  0  0  0  0  0
  152.7875  141.9719  157.9024 H   0  0  0  0  0  0  0  0  0  0  0  0
  152.7278  143.9725  163.6949 H   0  0  0  0  0  0  0  0  0  0  0  0
  153.9803  140.6149  160.2200 H   0  0  0  0  0  0  0  0  0  0  0  0
  1  2  1  0  0  0  0
  1 23  1  0  0  0  0
  2  3  1  0  0  0  0
  2 11  1  0  0  0  0
  2 24  1  0  0  0  0
  3  4  1  0  0  0  0
  3 25  1  0  0  0  0
  3 26  1  0  0  0  0
  4  5  1  0  0  0  0
  5  6  1  0  0  0  0
  5 27  1  0  0  0  0
  5 28  1  0  0  0  0
  6 10  1  0  0  0  0
  6  7  2  0  0  0  0
  7  8  1  0  0  0  0
  7 29  1  0  0  0  0
  8  9  2  0  0  0  0
  8 30  1  0  0  0  0
  9 10  1  0  0  0  0
  9 31  1  0  0  0  0
 11 12  1  0  0  0  0
 11 32  1  0  0  0  0
 11 33  1  0  0  0  0
 12 22  1  0  0  0  0
 12 13  1  0  0  0  0
 13 14  2  0  0  0  0
 14 15  1  0  0  0  0
 15 22  2  0  0  0  0
 15 16  1  0  0  0  0
 16 17  2  0  0  0  0
 16 34  1  0  0  0  0
 17 18  1  0  0  0  0
 17 19  1  0  0  0  0
 19 20  1  0  0  0  0
 19 21  2  0  0  0  0
 21 22  1  0  0  0  0
 21 35  1  0  0  0  0
M  END
> <s_m_source_file>
AV-unprocessed.smi

> <i_m_source_file_index>
3021

> <i_lp_mmshare_version>
43012

> <i_f3d_flags>
0

> <s_epik_input>
W2NIXTFjKENsKWMoQ2wpW2NIXWMoYzEyKW4obm4yKVtDSDJdW0NASF0oW09IXSlbQ0gyXU9bQ0gyXWMzW2NIXVtjSF1bY0hdbzM=

> <s_epik_cmdline>
J2VwaWtfcHl0aG9uJywgJy1waCcsICc3LjAnLCAnLXRuJywgJzgnLCAnLW1hJywgJzIwMCcsICctbWV0YWxfYmluZGluZycsICctaW1hZScsICc8aW5maWxlLm1hZT4nLCAnLW9tYWUnLCAnPG91dGZpbGUubWFlPic=

> <r_lp_tautomer_probability>
1

> <r_epik_Ionization_Penalty>
6.1367e-06

> <r_epik_Ionization_Penalty_Charging>
0

> <r_epik_Ionization_Penalty_Neutral>
6.1367e-06

> <r_epik_State_Penalty>
-0

> <r_epik_Charging_Adjusted_Penalty>
0

> <i_epik_Tot_Q>
0

> <i_epik_Tot_abs_Q>
0

> <r_epik_Metal_State_Penalty>
-0

> <b_epik_Metal_Only>
0

> <s_lp_Force_Field>
OPLS_2005

> <r_lp_Energy>
8.01921

> <b_lp_Chiralities_Consistent>
1

> <s_lp_Variant>
AV-unprocessed.smi:3021-2

> <Gold.Version>
5.8.1

> <Gold.Id.Protein>
6NUR|6NUR_protein|mol2

> <Gold.PLP.Fitness>
54.5501

> <Gold.PLP.PLP>
-49.7248

> <Gold.PLP.part.hbond>
-1.0000

> <Gold.PLP.part.metal>
0.0000

> <Gold.PLP.part.buried>
-2.8585

> <Gold.PLP.part.nonpolar>
-46.4802

> <Gold.PLP.part.repulsive>
0.3899

> <Gold.PLP.ligand.clash>
0.0000

> <Gold.PLP.ligand.torsion>
0.7214

> <Gold.PLP.Chemscore.Hbond>
1.0000

> <Gold.PLP.Chemscore.CHOScore>
1.0000

> <Gold.PLP.Chemscore.Metal>
0.0000

> <Gold.Chemscore.Hbonds>
donor molecule, donor type, donor heavy atom, donor atom, acceptor molecule, acceptor atom, score
      L1  H     1    23       P1  8028  1.00
      L1  C     9    31       P1  7949  1.00

> <Gold.PLP.Chemscore.Internal.Correction>
0.2680

> <Gold.Rescore>
     Score         DG    S(hbond)    S(metal)    S(lipo)     H(rot)  DE(clash)    DE(int)     intcor
     16.50     -19.03       0.98        0.00     141.81       2.46       0.28       2.25       ----

> <Gold.Chemscore.Fitness>
16.5032

> <Gold.Chemscore.DG>
-19.0328

> <Gold.Chemscore.ZeroCoef>
-5.4800

> <Gold.Chemscore.Hbond>
0.9794

> <Gold.Chemscore.Metal>
0.0000

> <Gold.Chemscore.Lipo>
141.8067

> <Gold.Chemscore.Internal_Hbond>
0.0000

> <Gold.Chemscore.DEClash>
0.2833

> <Gold.Chemscore.DEInternal>
2.2463

> <Gold.Chemscore.Rot>
2.4647

> <Gold.Chemscore.Internal.Correction>
   9.000000E+99

> <Gold.Chemscore.Hbonds>
donor molecule, donor type, donor heavy atom, donor atom, acceptor molecule, acceptor atom, score
      L1  H     1    23       P1  8028  0.98

> <Gold.Chemscore.Hbond.Weighted>
-3.2711

> <Gold.Chemscore.Metal.Weighted>
-0.0000

> <Gold.Chemscore.Lipo.Weighted>
-16.5914

> <Gold.Chemscore.Internal_Hbond.Weighted>
0.0000

> <Gold.Chemscore.DEClash.Weighted>
0.2833

> <Gold.Chemscore.DEInternal.Weighted>
2.2463

> <Gold.Chemscore.Rot.Weighted>
6.3097

> <Gold.Chemscore.Internal.Correction.Weighted>
   9.000000E+99

> <Gold.Protein.RotatedTorsions>
[ 6907 6896 6895 6894 ] final   42.16 input  -60.11 | X-H torsion
[ 7974 7965 7964 7962 ] final  -91.09 input  175.53 | X-H torsion
[ 8008 7997 7996 7995 ] final -131.53 input   59.86 | X-H torsion
[ 10167 10162 10161 10158 ] final  153.51 input  -65.29 | X-H torsion
[ 10718 10713 10712 10709 ] final  -49.96 input   66.30 | X-H torsion
[ 10763 10752 10751 10750 ] final -143.81 input  -60.55 | X-H torsion
[ 11005 11000 10999 10996 ] final   -1.06 input  -57.11 | X-H torsion

> <Gold.Protein.ActiveResidues>
 VAL166  LYS551  ARG553  GLY616  TRP617  ASP618  TYR619  PRO620  LYS621  CYS622 
 ASP623  PHE694  ASN695  SER759  ASP760  ASP761  ALA762  ILE779  LEU786  VAL792 
 PHE793  MET794  SER795  GLU796  ALA797  LYS798  CYS799  TRP800  GLU811  SER814 

> <Gold.Protein.RotatedAtoms>
  152.2043  134.8559  160.0504 H   0  0  0  0  0  0  0  0  0  0  0  0  # atno 6907 bound_to 6896
  151.9401  133.3630  159.3970 H   0  0  0  0  0  0  0  0  0  0  0  0  # atno 6908 bound_to 6896
  150.6962  134.4372  159.5319 H   0  0  0  0  0  0  0  0  0  0  0  0  # atno 6909 bound_to 6896
  145.4177  140.9549  143.2198 H   0  0  0  0  0  0  0  0  0  0  0  0  # atno 7974 bound_to 7965
  155.3139  140.0458  157.3036 H   0  0  0  0  0  0  0  0  0  0  0  0  # atno 8008 bound_to 7997
  154.5418  140.2290  155.8596 H   0  0  0  0  0  0  0  0  0  0  0  0  # atno 8009 bound_to 7997
  156.1887  140.3056  155.9296 H   0  0  0  0  0  0  0  0  0  0  0  0  # atno 8010 bound_to 7997
  139.4827  144.5267  151.7790 H   0  0  0  0  0  0  0  0  0  0  0  0  # atno 10167 bound_to 10162
  156.1845  130.4151  149.9459 H   0  0  0  0  0  0  0  0  0  0  0  0  # atno 10718 bound_to 10713
  154.8454  135.3457  154.6247 H   0  0  0  0  0  0  0  0  0  0  0  0  # atno 10763 bound_to 10752
  153.6856  135.6978  153.5109 H   0  0  0  0  0  0  0  0  0  0  0  0  # atno 10764 bound_to 10752
  153.2635  135.4315  155.0873 H   0  0  0  0  0  0  0  0  0  0  0  0  # atno 10765 bound_to 10752
  140.6431  133.9471  155.8337 H   0  0  0  0  0  0  0  0  0  0  0  0  # atno 11005 bound_to 11000
  144.8266  139.5700  143.6963 LP  0  0  0  0  0  0  0  0  0  0  0  0  # atno 17320 bound_to 7965
  146.2672  139.6549  142.9321 LP  0  0  0  0  0  0  0  0  0  0  0  0  # atno 17321 bound_to 7965
  140.4787  144.1481  150.5929 LP  0  0  0  0  0  0  0  0  0  0  0  0  # atno 17342 bound_to 10162
  140.4301  143.2572  151.9606 LP  0  0  0  0  0  0  0  0  0  0  0  0  # atno 17343 bound_to 10162
  156.7219  130.9010  151.3619 LP  0  0  0  0  0  0  0  0  0  0  0  0  # atno 17370 bound_to 10713
  157.6890  130.9214  150.0462 LP  0  0  0  0  0  0  0  0  0  0  0  0  # atno 17371 bound_to 10713
  141.0592  134.0371  157.3681 LP  0  0  0  0  0  0  0  0  0  0  0  0  # atno 17394 bound_to 11000
  139.9073  135.0182  156.7540 LP  0  0  0  0  0  0  0  0  0  0  0  0  # atno 17395 bound_to 11000

$$$$
