AV-unprocessed.smi:3165|AV-procd|sdf|12089|dock5
  -GOLD-   2272017523D 1   1.00000     0.00000
 Structure written by MMmdl.
 37 38  0  0  0  0  0  0  0  0  1 V2000
  151.7455  139.8623  155.4859 C   0  0  0  0  0  0  0  0  0  0  0  0
  150.9105  140.7783  156.3945 C   0  0  2  0  0  0  0  0  0  0  0  0
  150.0999  141.8263  155.5898 C   0  0  0  0  0  0  0  0  0  0  0  0
  149.0401  141.2552  154.7736 N   0  0  0  0  0  0  0  0  0  0  0  0
  148.0198  141.9067  154.1121 C   0  0  0  0  0  0  0  0  0  0  0  0
  147.2752  140.9565  153.4743 C   0  0  0  0  0  0  0  0  0  0  0  0
  147.9295  139.7371  153.8046 C   0  0  0  0  0  0  0  0  0  0  0  0
  148.9878  139.9197  154.5765 N   0  0  0  0  0  0  0  0  0  0  0  0
  151.7818  141.3782  157.4113 N   0  0  0  0  0  0  0  0  0  0  0  0
  151.1137  142.2165  158.4061 C   0  0  0  0  0  0  0  0  0  0  0  0
  152.1009  142.6855  159.4838 C   0  0  2  0  0  0  0  0  0  0  0  0
  152.8436  141.4979  160.1266 C   0  0  0  0  0  0  0  0  0  0  0  0
  153.7518  141.9787  161.2640 C   0  0  0  0  0  0  0  0  0  0  0  0
  152.9389  142.8187  162.2547 C   0  0  0  0  0  0  0  0  0  0  0  0
  152.1804  143.9314  161.5144 C   0  0  0  0  0  0  0  0  0  0  0  0
  151.3609  143.3636  160.4978 O   0  0  0  0  0  0  0  0  0  0  0  0
  151.1247  139.3999  154.7181 H   0  0  0  0  0  0  0  0  0  0  0  0
  152.2081  139.0591  156.0601 H   0  0  0  0  0  0  0  0  0  0  0  0
  152.5445  140.4093  154.9845 H   0  0  0  0  0  0  0  0  0  0  0  0
  150.1873  140.1395  156.9028 H   0  0  0  0  0  0  0  0  0  0  0  0
  149.6386  142.5296  156.2839 H   0  0  0  0  0  0  0  0  0  0  0  0
  150.7473  142.4327  154.9560 H   0  0  0  0  0  0  0  0  0  0  0  0
  147.9090  142.9803  154.1531 H   0  0  0  0  0  0  0  0  0  0  0  0
  146.3975  141.1090  152.8644 H   0  0  0  0  0  0  0  0  0  0  0  0
  147.6705  138.7320  153.5061 H   0  0  0  0  0  0  0  0  0  0  0  0
  152.3140  140.6516  157.8791 H   0  0  0  0  0  0  0  0  0  0  0  0
  150.6470  143.0852  157.9424 H   0  0  0  0  0  0  0  0  0  0  0  0
  150.3148  141.6437  158.8785 H   0  0  0  0  0  0  0  0  0  0  0  0
  152.8278  143.3675  159.0381 H   0  0  0  0  0  0  0  0  0  0  0  0
  152.1200  140.7809  160.5172 H   0  0  0  0  0  0  0  0  0  0  0  0
  153.4339  140.9692  159.3777 H   0  0  0  0  0  0  0  0  0  0  0  0
  154.2097  141.1292  161.7715 H   0  0  0  0  0  0  0  0  0  0  0  0
  154.5666  142.5779  160.8552 H   0  0  0  0  0  0  0  0  0  0  0  0
  152.2267  142.1803  162.7787 H   0  0  0  0  0  0  0  0  0  0  0  0
  153.5936  143.2470  163.0139 H   0  0  0  0  0  0  0  0  0  0  0  0
  151.5466  144.4799  162.2114 H   0  0  0  0  0  0  0  0  0  0  0  0
  152.8726  144.6531  161.0783 H   0  0  0  0  0  0  0  0  0  0  0  0
  1  2  1  0  0  0  0
  1 17  1  0  0  0  0
  1 18  1  0  0  0  0
  1 19  1  0  0  0  0
  2  3  1  0  0  0  0
  2  9  1  0  0  0  0
  2 20  1  0  0  0  0
  3  4  1  0  0  0  0
  3 21  1  0  0  0  0
  3 22  1  0  0  0  0
  4  8  1  0  0  0  0
  4  5  1  0  0  0  0
  5  6  2  0  0  0  0
  5 23  1  0  0  0  0
  6  7  1  0  0  0  0
  6 24  1  0  0  0  0
  7  8  2  0  0  0  0
  7 25  1  0  0  0  0
  9 10  1  0  0  0  0
  9 26  1  0  0  0  0
 10 11  1  0  0  0  0
 10 27  1  0  0  0  0
 10 28  1  0  0  0  0
 11 16  1  0  0  0  0
 11 12  1  0  0  0  0
 11 29  1  0  0  0  0
 12 13  1  0  0  0  0
 12 30  1  0  0  0  0
 12 31  1  0  0  0  0
 13 14  1  0  0  0  0
 13 32  1  0  0  0  0
 13 33  1  0  0  0  0
 14 15  1  0  0  0  0
 14 34  1  0  0  0  0
 14 35  1  0  0  0  0
 15 16  1  0  0  0  0
 15 36  1  0  0  0  0
 15 37  1  0  0  0  0
M  END
> <s_m_source_file>
AV-unprocessed.smi

> <i_m_source_file_index>
3165

> <i_lp_mmshare_version>
43012

> <i_f3d_flags>
0

> <s_epik_input>
bjFbY0hdW2NIXVtjSF1uMVtDSDJdW0NAQEhdKFtDSDNdKVtOSF1bQ0gyXVtDQEBIXTJbQ0gyXVtDSDJdW0NIMl1bQ0gyXU8y

> <s_epik_cmdline>
J2VwaWtfcHl0aG9uJywgJy1waCcsICc3LjAnLCAnLXRuJywgJzgnLCAnLW1hJywgJzIwMCcsICctbWV0YWxfYmluZGluZycsICctaW1hZScsICc8aW5maWxlLm1hZT4nLCAnLW9tYWUnLCAnPG91dGZpbGUubWFlPic=

> <r_lp_tautomer_probability>
1

> <r_epik_Ionization_Penalty>
2.51982

> <r_epik_Ionization_Penalty_Charging>
0

> <r_epik_Ionization_Penalty_Neutral>
2.51982

> <r_epik_State_Penalty>
2.68614

> <r_epik_Charging_Adjusted_Penalty>
2.68614

> <i_epik_Tot_Q>
0

> <i_epik_Tot_abs_Q>
0

> <r_epik_Metal_State_Penalty>
2.6861

> <b_epik_Metal_Only>
0

> <s_lp_Force_Field>
OPLS_2005

> <r_lp_Energy>
14.3424

> <b_lp_Chiralities_Consistent>
1

> <s_lp_Variant>
AV-unprocessed.smi:3165-5

> <Gold.Version>
5.8.1

> <Gold.Id.Protein>
6NUR|6NUR_protein|mol2

> <Gold.PLP.Fitness>
43.4712

> <Gold.PLP.PLP>
-40.8157

> <Gold.PLP.part.hbond>
-0.9703

> <Gold.PLP.part.metal>
0.0000

> <Gold.PLP.part.buried>
-2.5786

> <Gold.PLP.part.nonpolar>
-36.6540

> <Gold.PLP.part.repulsive>
0.1847

> <Gold.PLP.ligand.clash>
0.0000

> <Gold.PLP.ligand.torsion>
0.2002

> <Gold.PLP.Chemscore.Hbond>
0.0000

> <Gold.PLP.Chemscore.CHOScore>
1.0000

> <Gold.PLP.Chemscore.Metal>
0.0000

> <Gold.Chemscore.Hbonds>
donor molecule, donor type, donor heavy atom, donor atom, acceptor molecule, acceptor atom, score
      L1  C     5    23       P1  8028  1.00

> <Gold.PLP.Chemscore.Internal.Correction>
0.0560

> <Gold.Rescore>
     Score         DG    S(hbond)    S(metal)    S(lipo)     H(rot)  DE(clash)    DE(int)     intcor
     12.52     -13.80       0.00        0.00     105.55       1.57       0.02       1.26       ----

> <Gold.Chemscore.Fitness>
12.5199

> <Gold.Chemscore.DG>
-13.8017

> <Gold.Chemscore.ZeroCoef>
-5.4800

> <Gold.Chemscore.Hbond>
0.0000

> <Gold.Chemscore.Metal>
0.0000

> <Gold.Chemscore.Lipo>
105.5464

> <Gold.Chemscore.Internal_Hbond>
0.0000

> <Gold.Chemscore.DEClash>
0.0170

> <Gold.Chemscore.DEInternal>
1.2648

> <Gold.Chemscore.Rot>
1.5731

> <Gold.Chemscore.Internal.Correction>
   9.000000E+99

> <Gold.Chemscore.Hbond.Weighted>
-0.0000

> <Gold.Chemscore.Metal.Weighted>
-0.0000

> <Gold.Chemscore.Lipo.Weighted>
-12.3489

> <Gold.Chemscore.Internal_Hbond.Weighted>
0.0000

> <Gold.Chemscore.DEClash.Weighted>
0.0170

> <Gold.Chemscore.DEInternal.Weighted>
1.2648

> <Gold.Chemscore.Rot.Weighted>
4.0273

> <Gold.Chemscore.Internal.Correction.Weighted>
   9.000000E+99

> <Gold.Protein.RotatedTorsions>
[ 6907 6896 6895 6894 ] final  148.25 input  -60.11 | X-H torsion
[ 7974 7965 7964 7962 ] final   20.53 input  175.53 | X-H torsion
[ 8008 7997 7996 7995 ] final  169.55 input   59.86 | X-H torsion
[ 10167 10162 10161 10158 ] final  -43.53 input  -65.29 | X-H torsion
[ 10718 10713 10712 10709 ] final   91.20 input   66.30 | X-H torsion
[ 10763 10752 10751 10750 ] final    9.78 input  -60.55 | X-H torsion
[ 11005 11000 10999 10996 ] final  138.38 input  -57.11 | X-H torsion

> <Gold.Protein.ActiveResidues>
 VAL166  LYS551  ARG553  GLY616  TRP617  ASP618  TYR619  PRO620  LYS621  CYS622 
 ASP623  PHE694  ASN695  SER759  ASP760  ASP761  ALA762  ILE779  LEU786  VAL792 
 PHE793  MET794  SER795  GLU796  ALA797  LYS798  CYS799  TRP800  GLU811  SER814 

> <Gold.Protein.RotatedAtoms>
  152.1439  133.4481  159.4780 H   0  0  0  0  0  0  0  0  0  0  0  0  # atno 6907 bound_to 6896
  150.6888  134.2271  159.4429 H   0  0  0  0  0  0  0  0  0  0  0  0  # atno 6908 bound_to 6896
  152.0164  134.9847  160.0620 H   0  0  0  0  0  0  0  0  0  0  0  0  # atno 6909 bound_to 6896
  146.2108  139.8157  142.8690 H   0  0  0  0  0  0  0  0  0  0  0  0  # atno 7974 bound_to 7965
  156.1447  140.1561  156.8865 H   0  0  0  0  0  0  0  0  0  0  0  0  # atno 8008 bound_to 7997
  154.5018  140.0823  156.7850 H   0  0  0  0  0  0  0  0  0  0  0  0  # atno 8009 bound_to 7997
  155.4012  140.3414  155.4259 H   0  0  0  0  0  0  0  0  0  0  0  0  # atno 8010 bound_to 7997
  140.6930  143.2978  151.3365 H   0  0  0  0  0  0  0  0  0  0  0  0  # atno 10167 bound_to 10162
  157.6960  131.0399  150.3694 H   0  0  0  0  0  0  0  0  0  0  0  0  # atno 10718 bound_to 10713
  153.2103  135.6868  153.8122 H   0  0  0  0  0  0  0  0  0  0  0  0  # atno 10763 bound_to 10752
  153.7358  135.3246  155.3295 H   0  0  0  0  0  0  0  0  0  0  0  0  # atno 10764 bound_to 10752
  154.8218  135.4646  154.0907 H   0  0  0  0  0  0  0  0  0  0  0  0  # atno 10765 bound_to 10752
  140.0180  134.9410  157.0415 H   0  0  0  0  0  0  0  0  0  0  0  0  # atno 11005 bound_to 11000
  145.3149  141.0229  143.3533 LP  0  0  0  0  0  0  0  0  0  0  0  0  # atno 17320 bound_to 7965
  144.8909  139.4776  143.6678 LP  0  0  0  0  0  0  0  0  0  0  0  0  # atno 17321 bound_to 7965
  139.6354  144.0640  152.2511 LP  0  0  0  0  0  0  0  0  0  0  0  0  # atno 17342 bound_to 10162
  140.0129  144.6211  150.7632 LP  0  0  0  0  0  0  0  0  0  0  0  0  # atno 17343 bound_to 10162
  156.4120  130.3936  149.6884 LP  0  0  0  0  0  0  0  0  0  0  0  0  # atno 17370 bound_to 10713
  156.4165  130.7748  151.2763 LP  0  0  0  0  0  0  0  0  0  0  0  0  # atno 17371 bound_to 10713
  140.4437  134.1654  155.7176 LP  0  0  0  0  0  0  0  0  0  0  0  0  # atno 17394 bound_to 11000
  141.1755  133.8522  157.1434 LP  0  0  0  0  0  0  0  0  0  0  0  0  # atno 17395 bound_to 11000

$$$$
