AV-unprocessed.smi:3057|AV-procd|sdf|11662|dock4
  -GOLD-   2272017 63D 1   1.00000     0.00000
 Structure written by MMmdl.
 40 42  0  0  0  0  0  0  0  0  1 V2000
  147.3449  138.8055  153.1755 C   0  0  0  0  0  0  0  0  0  0  0  0
  147.9064  139.1153  154.5787 C   0  0  2  0  0  0  0  0  0  0  0  0
  146.9466  140.0108  155.3784 C   0  0  0  0  0  0  0  0  0  0  0  0
  147.4172  141.4381  155.0581 C   0  0  0  0  0  0  0  0  0  0  0  0
  148.8717  141.2249  154.6641 C   0  0  0  0  0  0  0  0  0  0  0  0
  149.6902  142.1400  154.5876 O   0  0  0  0  0  0  0  0  0  0  0  0
  149.1132  139.9159  154.4885 N   0  0  0  0  0  0  0  0  0  0  0  0
  150.3921  139.1894  154.4576 C   0  0  1  0  0  0  0  0  0  0  0  0
  151.3834  139.6333  155.5500 C   0  0  0  0  0  0  0  0  0  0  0  0
  152.5119  140.0235  155.2480 O   0  0  0  0  0  0  0  0  0  0  0  0
  150.9362  139.5933  156.8132 N   0  0  0  0  0  0  0  0  0  0  0  0
  151.7208  139.9864  157.9751 C   0  0  0  0  0  0  0  0  0  0  0  0
  151.5750  141.4909  158.2426 C   0  0  0  0  0  0  0  0  0  0  0  0
  152.1714  141.8982  159.5767 C   0  0  0  0  0  0  0  0  0  0  0  0
  151.7934  143.1096  160.1946 C   0  0  0  0  0  0  0  0  0  0  0  0
  152.3826  143.4451  161.4292 C   0  0  0  0  0  0  0  0  0  0  0  0
  153.3229  142.5622  161.9944 C   0  0  0  0  0  0  0  0  0  0  0  0
  153.6338  141.3778  161.2968 C   0  0  0  0  0  0  0  0  0  0  0  0
  153.0747  141.0467  160.1127 N   0  0  0  0  0  0  0  0  0  0  0  0
  150.0484  137.6879  154.5718 C   0  0  0  0  0  0  0  0  0  0  0  0
  148.4455  137.6109  155.4170 S   0  0  0  0  0  0  0  0  0  0  0  0
  147.0714  139.7169  152.6430 H   0  0  0  0  0  0  0  0  0  0  0  0
  146.4508  138.1855  153.2432 H   0  0  0  0  0  0  0  0  0  0  0  0
  148.0660  138.2731  152.5556 H   0  0  0  0  0  0  0  0  0  0  0  0
  145.9004  139.8477  155.1170 H   0  0  0  0  0  0  0  0  0  0  0  0
  147.0505  139.8251  156.4486 H   0  0  0  0  0  0  0  0  0  0  0  0
  146.8716  141.8596  154.2132 H   0  0  0  0  0  0  0  0  0  0  0  0
  147.3202  142.1080  155.9129 H   0  0  0  0  0  0  0  0  0  0  0  0
  150.8515  139.3725  153.4848 H   0  0  0  0  0  0  0  0  0  0  0  0
  149.9958  139.2655  156.9801 H   0  0  0  0  0  0  0  0  0  0  0  0
  151.3905  139.4152  158.8446 H   0  0  0  0  0  0  0  0  0  0  0  0
  152.7694  139.7378  157.8033 H   0  0  0  0  0  0  0  0  0  0  0  0
  152.0577  142.0603  157.4467 H   0  0  0  0  0  0  0  0  0  0  0  0
  150.5212  141.7733  158.2254 H   0  0  0  0  0  0  0  0  0  0  0  0
  151.0717  143.7683  159.7343 H   0  0  0  0  0  0  0  0  0  0  0  0
  152.1188  144.3636  161.9323 H   0  0  0  0  0  0  0  0  0  0  0  0
  153.7951  142.7872  162.9393 H   0  0  0  0  0  0  0  0  0  0  0  0
  154.3509  140.6783  161.7002 H   0  0  0  0  0  0  0  0  0  0  0  0
  149.9419  137.2479  153.5800 H   0  0  0  0  0  0  0  0  0  0  0  0
  150.8005  137.1068  155.1069 H   0  0  0  0  0  0  0  0  0  0  0  0
  1  2  1  0  0  0  0
  1 22  1  0  0  0  0
  1 23  1  0  0  0  0
  1 24  1  0  0  0  0
  2  7  1  0  0  0  0
  2 21  1  0  0  0  0
  2  3  1  0  0  0  0
  3  4  1  0  0  0  0
  3 25  1  0  0  0  0
  3 26  1  0  0  0  0
  4  5  1  0  0  0  0
  4 27  1  0  0  0  0
  4 28  1  0  0  0  0
  5  6  2  0  0  0  0
  5  7  1  0  0  0  0
  7  8  1  0  0  0  0
  8  9  1  0  0  0  0
  8 20  1  0  0  0  0
  8 29  1  0  0  0  0
  9 10  2  0  0  0  0
  9 11  1  0  0  0  0
 11 12  1  0  0  0  0
 11 30  1  0  0  0  0
 12 13  1  0  0  0  0
 12 31  1  0  0  0  0
 12 32  1  0  0  0  0
 13 14  1  0  0  0  0
 13 33  1  0  0  0  0
 13 34  1  0  0  0  0
 14 19  1  0  0  0  0
 14 15  2  0  0  0  0
 15 16  1  0  0  0  0
 15 35  1  0  0  0  0
 16 17  2  0  0  0  0
 16 36  1  0  0  0  0
 17 18  1  0  0  0  0
 17 37  1  0  0  0  0
 18 19  2  0  0  0  0
 18 38  1  0  0  0  0
 20 21  1  0  0  0  0
 20 39  1  0  0  0  0
 20 40  1  0  0  0  0
M  END
> <s_m_source_file>
AV-unprocessed.smi

> <i_m_source_file_index>
3057

> <i_lp_mmshare_version>
43012

> <i_f3d_flags>
0

> <s_epik_input>
W0NIMl0xW0NIMl1DKD1PKU4oW0NAQF0xMltDSDNdKVtDQEhdKFtDSDJdUzIpQyg9TylbTkhdW0NIMl1bQ0gyXWMzW2NIXVtjSF1bY0hdW2NIXW4z

> <s_epik_cmdline>
J2VwaWtfcHl0aG9uJywgJy1waCcsICc3LjAnLCAnLXRuJywgJzgnLCAnLW1hJywgJzIwMCcsICctbWV0YWxfYmluZGluZycsICctaW1hZScsICc8aW5maWxlLm1hZT4nLCAnLW9tYWUnLCAnPG91dGZpbGUubWFlPic=

> <r_epik_Ionization_Penalty>
0.0249631

> <r_epik_Ionization_Penalty_Charging>
0

> <r_epik_Ionization_Penalty_Neutral>
0.0249631

> <r_epik_State_Penalty>
0.0202943

> <r_epik_Charging_Adjusted_Penalty>
0.0202943

> <i_epik_Tot_Q>
0

> <i_epik_Tot_abs_Q>
0

> <r_epik_Metal_State_Penalty>
0.0194661

> <b_epik_Metal_Only>
0

> <s_lp_Force_Field>
OPLS_2005

> <r_lp_Energy>
25.2027

> <b_lp_Chiralities_Consistent>
1

> <s_lp_Variant>
AV-unprocessed.smi:3057-2

> <Gold.Version>
5.8.1

> <Gold.Id.Protein>
6NUR|6NUR_protein|mol2

> <Gold.PLP.Fitness>
41.4090

> <Gold.PLP.PLP>
-38.5864

> <Gold.PLP.part.hbond>
-4.0000

> <Gold.PLP.part.metal>
0.0000

> <Gold.PLP.part.buried>
-0.4878

> <Gold.PLP.part.nonpolar>
-34.1273

> <Gold.PLP.part.repulsive>
1.1335

> <Gold.PLP.ligand.clash>
0.0000

> <Gold.PLP.ligand.torsion>
0.5400

> <Gold.PLP.Chemscore.Hbond>
1.2984

> <Gold.PLP.Chemscore.CHOScore>
0.0000

> <Gold.PLP.Chemscore.Metal>
0.0000

> <Gold.Chemscore.Hbonds>
donor molecule, donor type, donor heavy atom, donor atom, acceptor molecule, acceptor atom, score
      P1  H  7989  7998       L1    10  0.21
      P1  H  7997  8008       L1    10  0.96
      P1  H  8011  8017       L1     6  0.10

> <Gold.PLP.Chemscore.Internal.Correction>
0.0074

> <Gold.Rescore>
     Score         DG    S(hbond)    S(metal)    S(lipo)     H(rot)  DE(clash)    DE(int)     intcor
     14.95     -16.34       1.12        0.00      94.40       1.53       0.85       0.54       ----

> <Gold.Chemscore.Fitness>
14.9452

> <Gold.Chemscore.DG>
-16.3386

> <Gold.Chemscore.ZeroCoef>
-5.4800

> <Gold.Chemscore.Hbond>
1.1200

> <Gold.Chemscore.Metal>
0.0000

> <Gold.Chemscore.Lipo>
94.3969

> <Gold.Chemscore.Internal_Hbond>
0.0000

> <Gold.Chemscore.DEClash>
0.8503

> <Gold.Chemscore.DEInternal>
0.5431

> <Gold.Chemscore.Rot>
1.5339

> <Gold.Chemscore.Internal.Correction>
   9.000000E+99

> <Gold.Chemscore.Hbonds>
donor molecule, donor type, donor heavy atom, donor atom, acceptor molecule, acceptor atom, score
      P1  H  7989  7998       L1    10  0.01
      P1  H  7997  8008       L1    10  0.91
      P1  H  8011  8017       L1     6  0.04

> <Gold.Chemscore.Hbond.Weighted>
-3.7409

> <Gold.Chemscore.Metal.Weighted>
-0.0000

> <Gold.Chemscore.Lipo.Weighted>
-11.0444

> <Gold.Chemscore.Internal_Hbond.Weighted>
0.0000

> <Gold.Chemscore.DEClash.Weighted>
0.8503

> <Gold.Chemscore.DEInternal.Weighted>
0.5431

> <Gold.Chemscore.Rot.Weighted>
3.9267

> <Gold.Chemscore.Internal.Correction.Weighted>
   9.000000E+99

> <Gold.Protein.RotatedTorsions>
[ 6907 6896 6895 6894 ] final  -53.17 input  -60.11 | X-H torsion
[ 7974 7965 7964 7962 ] final  150.75 input  175.53 | X-H torsion
[ 8008 7997 7996 7995 ] final  -29.69 input   59.86 | X-H torsion
[ 10167 10162 10161 10158 ] final   83.42 input  -65.29 | X-H torsion
[ 10718 10713 10712 10709 ] final  -57.57 input   66.30 | X-H torsion
[ 10763 10752 10751 10750 ] final  131.35 input  -60.55 | X-H torsion
[ 11005 11000 10999 10996 ] final -138.57 input  -57.11 | X-H torsion

> <Gold.Protein.ActiveResidues>
 VAL166  LYS551  ARG553  GLY616  TRP617  ASP618  TYR619  PRO620  LYS621  CYS622 
 ASP623  PHE694  ASN695  SER759  ASP760  ASP761  ALA762  ILE779  LEU786  VAL792 
 PHE793  MET794  SER795  GLU796  ALA797  LYS798  CYS799  TRP800  GLU811  SER814 

> <Gold.Protein.RotatedAtoms>
  150.8451  134.7756  159.6963 H   0  0  0  0  0  0  0  0  0  0  0  0  # atno 6907 bound_to 6896
  152.4529  134.5351  159.9832 H   0  0  0  0  0  0  0  0  0  0  0  0  # atno 6908 bound_to 6896
  151.5483  133.3383  159.2984 H   0  0  0  0  0  0  0  0  0  0  0  0  # atno 6909 bound_to 6896
  144.8341  139.6449  143.6045 H   0  0  0  0  0  0  0  0  0  0  0  0  # atno 7974 bound_to 7965
  154.4280  140.1811  156.1288 H   0  0  0  0  0  0  0  0  0  0  0  0  # atno 8008 bound_to 7997
  156.0084  140.3353  155.6890 H   0  0  0  0  0  0  0  0  0  0  0  0  # atno 8009 bound_to 7997
  155.6145  140.0653  157.2687 H   0  0  0  0  0  0  0  0  0  0  0  0  # atno 8010 bound_to 7997
  139.9185  144.6227  150.8464 H   0  0  0  0  0  0  0  0  0  0  0  0  # atno 10167 bound_to 10162
  156.1200  130.4167  150.0459 H   0  0  0  0  0  0  0  0  0  0  0  0  # atno 10718 bound_to 10713
  153.7729  135.3179  155.3354 H   0  0  0  0  0  0  0  0  0  0  0  0  # atno 10763 bound_to 10752
  154.8190  135.4617  154.0727 H   0  0  0  0  0  0  0  0  0  0  0  0  # atno 10764 bound_to 10752
  153.1992  135.6920  153.8338 H   0  0  0  0  0  0  0  0  0  0  0  0  # atno 10765 bound_to 10752
  140.8603  134.2176  157.4711 H   0  0  0  0  0  0  0  0  0  0  0  0  # atno 11005 bound_to 11000
  146.2642  139.6480  142.9341 LP  0  0  0  0  0  0  0  0  0  0  0  0  # atno 17320 bound_to 7965
  145.4832  141.0438  143.2634 LP  0  0  0  0  0  0  0  0  0  0  0  0  # atno 17321 bound_to 7965
  140.7668  143.3314  151.2403 LP  0  0  0  0  0  0  0  0  0  0  0  0  # atno 17342 bound_to 10162
  139.6881  143.9738  152.2845 LP  0  0  0  0  0  0  0  0  0  0  0  0  # atno 17343 bound_to 10162
  156.8400  130.9422  151.3632 LP  0  0  0  0  0  0  0  0  0  0  0  0  # atno 17370 bound_to 10713
  157.6384  130.8785  149.9401 LP  0  0  0  0  0  0  0  0  0  0  0  0  # atno 17371 bound_to 10713
  139.8707  134.9726  156.4780 LP  0  0  0  0  0  0  0  0  0  0  0  0  # atno 17394 bound_to 11000
  140.8690  133.8003  155.9344 LP  0  0  0  0  0  0  0  0  0  0  0  0  # atno 17395 bound_to 11000

$$$$
