AV-unprocessed.smi:1889|AV-procd|sdf|7662|dock6
  -GOLD-   22720 9393D 1   1.00000     0.00000
 Structure written by MMmdl.
 35 36  0  0  0  0  0  0  0  0  2 V2000
  151.8267  145.5973  160.0055 C   0  0  0  0  0  0  0  0  0  0  0  0
  152.2344  144.3771  159.1728 C   0  0  0  0  0  0  0  0  0  0  0  0
  152.4201  143.1158  160.0278 C   0  0  0  0  0  0  0  0  0  0  0  0
  152.4380  141.8676  159.2101 C   0  0  0  0  0  0  0  0  0  0  0  0
  153.4528  140.9998  159.2349 N   0  0  0  0  0  0  0  0  0  0  0  0
  153.2516  139.9353  158.3687 N   0  0  0  0  0  0  0  0  0  0  0  0
  152.1022  140.0238  157.6845 C   0  0  0  0  0  0  0  0  0  0  0  0
  151.7215  139.0918  156.7952 N   0  5  0  0  0  0  0  0  0  0  0  0
  151.2291  139.4662  155.5924 C   0  0  0  0  0  0  0  0  0  0  0  0
  151.7968  139.3565  154.5030 O   0  0  0  0  0  0  0  0  0  0  0  0
  150.0031  140.0023  155.6541 N   0  0  0  0  0  0  0  0  0  0  0  0
  149.2393  140.4859  154.5104 C   0  0  0  0  0  0  0  0  0  0  0  0
  148.3341  141.6639  154.9073 C   0  0  1  0  0  0  0  0  0  0  0  0
  147.3685  142.0992  153.8110 C   0  0  0  0  0  0  0  0  0  0  0  0
  146.0754  142.4471  154.5564 C   0  0  0  0  0  0  0  0  0  0  0  0
  146.4009  142.3747  155.9372 O   0  0  0  0  0  0  0  0  0  0  0  0
  147.4007  141.3809  156.0837 C   0  0  0  0  0  0  0  0  0  0  0  0
  151.1534  141.4548  158.0872 S   0  0  0  0  0  0  0  0  0  0  0  0
  151.7073  146.4767  159.3725 H   0  0  0  0  0  0  0  0  0  0  0  0
  152.5798  145.8289  160.7590 H   0  0  0  0  0  0  0  0  0  0  0  0
  150.8800  145.4252  160.5182 H   0  0  0  0  0  0  0  0  0  0  0  0
  151.4769  144.1935  158.4099 H   0  0  0  0  0  0  0  0  0  0  0  0
  153.1608  144.5977  158.6412 H   0  0  0  0  0  0  0  0  0  0  0  0
  153.3510  143.1782  160.5928 H   0  0  0  0  0  0  0  0  0  0  0  0
  151.6156  143.0378  160.7599 H   0  0  0  0  0  0  0  0  0  0  0  0
  149.5701  140.0761  156.5629 H   0  0  0  0  0  0  0  0  0  0  0  0
  149.9320  140.7965  153.7272 H   0  0  0  0  0  0  0  0  0  0  0  0
  148.6382  139.6713  154.1030 H   0  0  0  0  0  0  0  0  0  0  0  0
  148.9553  142.5220  155.1689 H   0  0  0  0  0  0  0  0  0  0  0  0
  147.7626  142.9539  153.2605 H   0  0  0  0  0  0  0  0  0  0  0  0
  147.1821  141.2998  153.0924 H   0  0  0  0  0  0  0  0  0  0  0  0
  145.6963  143.4360  154.2976 H   0  0  0  0  0  0  0  0  0  0  0  0
  145.2975  141.7159  154.3326 H   0  0  0  0  0  0  0  0  0  0  0  0
  146.9491  140.3903  156.0054 H   0  0  0  0  0  0  0  0  0  0  0  0
  147.9023  141.4572  157.0488 H   0  0  0  0  0  0  0  0  0  0  0  0
  1  2  1  0  0  0  0
  1 19  1  0  0  0  0
  1 20  1  0  0  0  0
  1 21  1  0  0  0  0
  2  3  1  0  0  0  0
  2 22  1  0  0  0  0
  2 23  1  0  0  0  0
  3  4  1  0  0  0  0
  3 24  1  0  0  0  0
  3 25  1  0  0  0  0
  4 18  1  0  0  0  0
  4  5  2  0  0  0  0
  5  6  1  0  0  0  0
  6  7  2  0  0  0  0
  7  8  1  0  0  0  0
  7 18  1  0  0  0  0
  8  9  1  0  0  0  0
  9 10  2  0  0  0  0
  9 11  1  0  0  0  0
 11 12  1  0  0  0  0
 11 26  1  0  0  0  0
 12 13  1  0  0  0  0
 12 27  1  0  0  0  0
 12 28  1  0  0  0  0
 13 17  1  0  0  0  0
 13 14  1  0  0  0  0
 13 29  1  0  0  0  0
 14 15  1  0  0  0  0
 14 30  1  0  0  0  0
 14 31  1  0  0  0  0
 15 16  1  0  0  0  0
 15 32  1  0  0  0  0
 15 33  1  0  0  0  0
 16 17  1  0  0  0  0
 17 34  1  0  0  0  0
 17 35  1  0  0  0  0
M  CHG  1   8  -1
M  END
> <s_m_source_file>
AV-unprocessed.smi

> <i_m_source_file_index>
1889

> <i_lp_mmshare_version>
43012

> <i_f3d_flags>
0

> <s_epik_input>
W0NIM11bQ0gyXVtDSDJdYzFubmMoczEpW05IXUMoPU8pW05IXVtDSDJdW0NAQEhdMltDSDJdW0NIMl1PW0NIMl0y

> <s_epik_cmdline>
J2VwaWtfcHl0aG9uJywgJy1waCcsICc3LjAnLCAnLXRuJywgJzgnLCAnLW1hJywgJzIwMCcsICctbWV0YWxfYmluZGluZycsICctaW1hZScsICc8aW5maWxlLm1hZT4nLCAnLW9tYWUnLCAnPG91dGZpbGUubWFlPic=

> <r_lp_tautomer_probability>
1

> <r_epik_Ionization_Penalty>
4.29669

> <r_epik_Ionization_Penalty_Charging>
4.28522

> <r_epik_Ionization_Penalty_Neutral>
0.0114689

> <r_epik_State_Penalty>
4.28479

> <r_epik_Charging_Adjusted_Penalty>
8.57002

> <i_epik_Tot_Q>
-1

> <i_epik_Tot_abs_Q>
1

> <r_epik_Metal_State_Penalty>
0.72177

> <b_epik_Metal_Only>
1

> <s_lp_Force_Field>
OPLS_2005

> <r_lp_Energy>
12.2609

> <b_lp_Chiralities_Consistent>
1

> <s_lp_Variant>
AV-unprocessed.smi:1889-4

> <Gold.Version>
5.8.1

> <Gold.Id.Protein>
6NUR|6NUR_protein|mol2

> <Gold.PLP.Fitness>
40.0648

> <Gold.PLP.PLP>
-36.6493

> <Gold.PLP.part.hbond>
-2.0801

> <Gold.PLP.part.metal>
0.0000

> <Gold.PLP.part.buried>
-3.0473

> <Gold.PLP.part.nonpolar>
-30.7778

> <Gold.PLP.part.repulsive>
0.3077

> <Gold.PLP.ligand.clash>
0.0000

> <Gold.PLP.ligand.torsion>
1.3535

> <Gold.PLP.Chemscore.Hbond>
2.0000

> <Gold.PLP.Chemscore.CHOScore>
0.0000

> <Gold.PLP.Chemscore.Metal>
0.0000

> <Gold.Chemscore.Hbonds>
donor molecule, donor type, donor heavy atom, donor atom, acceptor molecule, acceptor atom, score
      P1  H  7989  7998       L1    10  1.00
      P1  H  7997  8009       L1     6  1.00

> <Gold.PLP.Chemscore.Internal.Correction>
0.1226

> <Gold.Rescore>
     Score         DG    S(hbond)    S(metal)    S(lipo)     H(rot)  DE(clash)    DE(int)     intcor
     14.30     -15.75       1.55        0.00      78.41       1.59       0.03       1.42       ----

> <Gold.Chemscore.Fitness>
14.2970

> <Gold.Chemscore.DG>
-15.7500

> <Gold.Chemscore.ZeroCoef>
-5.4800

> <Gold.Chemscore.Hbond>
1.5487

> <Gold.Chemscore.Metal>
0.0000

> <Gold.Chemscore.Lipo>
78.4056

> <Gold.Chemscore.Internal_Hbond>
0.0000

> <Gold.Chemscore.DEClash>
0.0304

> <Gold.Chemscore.DEInternal>
1.4226

> <Gold.Chemscore.Rot>
1.5922

> <Gold.Chemscore.Internal.Correction>
   9.000000E+99

> <Gold.Chemscore.Hbonds>
donor molecule, donor type, donor heavy atom, donor atom, acceptor molecule, acceptor atom, score
      P1  H  7989  7998       L1    10  0.81
      P1  H  7997  8009       L1     6  0.17

> <Gold.Chemscore.Hbond.Weighted>
-5.1726

> <Gold.Chemscore.Metal.Weighted>
-0.0000

> <Gold.Chemscore.Lipo.Weighted>
-9.1735

> <Gold.Chemscore.Internal_Hbond.Weighted>
0.0000

> <Gold.Chemscore.DEClash.Weighted>
0.0304

> <Gold.Chemscore.DEInternal.Weighted>
1.4226

> <Gold.Chemscore.Rot.Weighted>
4.0761

> <Gold.Chemscore.Internal.Correction.Weighted>
   9.000000E+99

> <Gold.Protein.RotatedTorsions>
[ 6907 6896 6895 6894 ] final  -90.66 input  -60.11 | X-H torsion
[ 7974 7965 7964 7962 ] final  175.72 input  175.53 | X-H torsion
[ 8008 7997 7996 7995 ] final  163.60 input   59.86 | X-H torsion
[ 10167 10162 10161 10158 ] final   13.29 input  -65.29 | X-H torsion
[ 10718 10713 10712 10709 ] final  -88.19 input   66.30 | X-H torsion
[ 10763 10752 10751 10750 ] final  168.69 input  -60.55 | X-H torsion
[ 11005 11000 10999 10996 ] final -175.34 input  -57.11 | X-H torsion

> <Gold.Protein.ActiveResidues>
 VAL166  LYS551  ARG553  GLY616  TRP617  ASP618  TYR619  PRO620  LYS621  CYS622 
 ASP623  PHE694  ASN695  SER759  ASP760  ASP761  ALA762  ILE779  LEU786  VAL792 
 PHE793  MET794  SER795  GLU796  ALA797  LYS798  CYS799  TRP800  GLU811  SER814 

> <Gold.Protein.RotatedAtoms>
  150.6884  134.2397  159.4467 H   0  0  0  0  0  0  0  0  0  0  0  0  # atno 6907 bound_to 6896
  152.0342  134.9747  160.0582 H   0  0  0  0  0  0  0  0  0  0  0  0  # atno 6908 bound_to 6896
  152.1274  133.4353  159.4741 H   0  0  0  0  0  0  0  0  0  0  0  0  # atno 6909 bound_to 6896
  144.7197  139.9988  143.6440 H   0  0  0  0  0  0  0  0  0  0  0  0  # atno 7974 bound_to 7965
  156.1945  140.1719  156.8026 H   0  0  0  0  0  0  0  0  0  0  0  0  # atno 8008 bound_to 7997
  154.5512  140.0717  156.8702 H   0  0  0  0  0  0  0  0  0  0  0  0  # atno 8009 bound_to 7997
  155.3025  140.3362  155.4249 H   0  0  0  0  0  0  0  0  0  0  0  0  # atno 8010 bound_to 7997
  140.6012  143.8601  150.6967 H   0  0  0  0  0  0  0  0  0  0  0  0  # atno 10167 bound_to 10162
  155.9984  130.4826  150.4981 H   0  0  0  0  0  0  0  0  0  0  0  0  # atno 10718 bound_to 10713
  154.3723  135.2753  155.2259 H   0  0  0  0  0  0  0  0  0  0  0  0  # atno 10763 bound_to 10752
  154.4401  135.5956  153.6127 H   0  0  0  0  0  0  0  0  0  0  0  0  # atno 10764 bound_to 10752
  152.9838  135.6016  154.3956 H   0  0  0  0  0  0  0  0  0  0  0  0  # atno 10765 bound_to 10752
  140.4643  134.6225  157.4856 H   0  0  0  0  0  0  0  0  0  0  0  0  # atno 11005 bound_to 11000
  146.0352  139.3371  143.0731 LP  0  0  0  0  0  0  0  0  0  0  0  0  # atno 17320 bound_to 7965
  145.8404  140.9584  143.0802 LP  0  0  0  0  0  0  0  0  0  0  0  0  # atno 17321 bound_to 7965
  140.2147  143.3856  152.1690 LP  0  0  0  0  0  0  0  0  0  0  0  0  # atno 17342 bound_to 10162
  139.5292  144.7139  151.5116 LP  0  0  0  0  0  0  0  0  0  0  0  0  # atno 17343 bound_to 10162
  157.2968  131.0637  151.2096 LP  0  0  0  0  0  0  0  0  0  0  0  0  # atno 17370 bound_to 10713
  157.3089  130.6880  149.6204 LP  0  0  0  0  0  0  0  0  0  0  0  0  # atno 17371 bound_to 10713
  139.9925  134.6963  155.9665 LP  0  0  0  0  0  0  0  0  0  0  0  0  # atno 17394 bound_to 11000
  141.1606  133.6539  156.4308 LP  0  0  0  0  0  0  0  0  0  0  0  0  # atno 17395 bound_to 11000

$$$$
