AV-unprocessed.smi:111|AV-procd|sdf|1082|dock3
  -GOLD-   2262018173D 1   1.00000     0.00000
 Structure written by MMmdl.
 46 48  0  0  0  0  0  0  0  0  1 V2000
  150.2731  139.0462  155.3518 O   0  0  0  0  0  0  0  0  0  0  0  0
  150.5972  139.8680  156.2108 C   0  0  0  0  0  0  0  0  0  0  0  0
  150.3198  141.2947  156.1009 C   0  0  0  0  0  0  0  0  0  0  0  0
  149.6282  141.7576  155.0457 F   0  0  0  0  0  0  0  0  0  0  0  0
  150.7319  142.1607  157.0514 C   0  0  0  0  0  0  0  0  0  0  0  0
  151.4571  141.7761  158.1681 N   0  0  0  0  0  0  0  0  0  0  0  0
  151.8271  142.7645  159.2557 C   0  0  1  0  0  0  0  0  0  0  0  0
  152.7735  143.8868  158.7936 C   0  0  0  0  0  0  0  0  0  0  0  0
  151.8415  145.0794  158.7009 C   0  0  0  0  0  0  0  0  0  0  0  0
  150.8283  144.7630  159.7942 C   0  0  0  0  0  0  0  0  0  0  0  0
  150.6441  143.3560  159.7041 O   0  0  0  0  0  0  0  0  0  0  0  0
  151.6994  140.4014  158.3944 C   0  0  0  0  0  0  0  0  0  0  0  0
  152.2741  140.0210  159.4172 O   0  0  0  0  0  0  0  0  0  0  0  0
  151.2744  139.4905  157.3953 N   0  0  0  0  0  0  0  0  0  0  0  0
  151.5580  138.0720  157.5749 C   0  0  0  0  0  0  0  0  0  0  0  0
  150.3327  137.1224  157.4923 C   0  0  1  0  0  0  0  0  0  0  0  0
  150.7756  135.8433  157.0846 O   0  0  0  0  0  0  0  0  0  0  0  0
  149.4670  137.0085  158.7652 C   0  0  0  0  0  0  0  0  0  0  0  0
  148.4535  135.8536  158.7162 C   0  0  0  0  0  0  0  0  0  0  0  0
  147.8824  135.5409  160.0861 C   0  0  0  0  0  0  0  0  0  0  0  0
  147.2337  134.3097  160.3180 C   0  0  0  0  0  0  0  0  0  0  0  0
  146.7081  134.0154  161.5912 C   0  0  0  0  0  0  0  0  0  0  0  0
  146.8300  134.9506  162.6372 C   0  0  0  0  0  0  0  0  0  0  0  0
  147.4783  136.1802  162.4097 C   0  0  0  0  0  0  0  0  0  0  0  0
  148.0043  136.4750  161.1366 C   0  0  0  0  0  0  0  0  0  0  0  0
  150.4674  143.1971  156.9161 H   0  0  0  0  0  0  0  0  0  0  0  0
  152.2961  142.1823  160.0504 H   0  0  0  0  0  0  0  0  0  0  0  0
  153.5083  144.0549  159.5818 H   0  0  0  0  0  0  0  0  0  0  0  0
  153.3149  143.6507  157.8777 H   0  0  0  0  0  0  0  0  0  0  0  0
  152.3500  146.0316  158.8551 H   0  0  0  0  0  0  0  0  0  0  0  0
  151.3471  145.1107  157.7300 H   0  0  0  0  0  0  0  0  0  0  0  0
  151.2345  145.0083  160.7766 H   0  0  0  0  0  0  0  0  0  0  0  0
  149.8880  145.2999  159.6679 H   0  0  0  0  0  0  0  0  0  0  0  0
  152.2948  137.7883  156.8228 H   0  0  0  0  0  0  0  0  0  0  0  0
  152.1042  137.9648  158.5147 H   0  0  0  0  0  0  0  0  0  0  0  0
  149.6990  137.4847  156.6820 H   0  0  0  0  0  0  0  0  0  0  0  0
  151.1578  135.9186  156.2230 H   0  0  0  0  0  0  0  0  0  0  0  0
  150.1026  136.8965  159.6447 H   0  0  0  0  0  0  0  0  0  0  0  0
  148.9125  137.9376  158.8991 H   0  0  0  0  0  0  0  0  0  0  0  0
  147.6372  136.1006  158.0361 H   0  0  0  0  0  0  0  0  0  0  0  0
  148.9231  134.9531  158.3182 H   0  0  0  0  0  0  0  0  0  0  0  0
  147.1403  133.5872  159.5201 H   0  0  0  0  0  0  0  0  0  0  0  0
  146.2122  133.0720  161.7657 H   0  0  0  0  0  0  0  0  0  0  0  0
  146.4272  134.7246  163.6137 H   0  0  0  0  0  0  0  0  0  0  0  0
  147.5730  136.8971  163.2121 H   0  0  0  0  0  0  0  0  0  0  0  0
  148.5027  137.4188  160.9700 H   0  0  0  0  0  0  0  0  0  0  0  0
  1  2  2  0  0  0  0
  2 14  1  0  0  0  0
  2  3  1  0  0  0  0
  3  4  1  0  0  0  0
  3  5  2  0  0  0  0
  5  6  1  0  0  0  0
  5 26  1  0  0  0  0
  6  7  1  0  0  0  0
  6 12  1  0  0  0  0
  7 11  1  0  0  0  0
  7  8  1  0  0  0  0
  7 27  1  0  0  0  0
  8  9  1  0  0  0  0
  8 28  1  0  0  0  0
  8 29  1  0  0  0  0
  9 10  1  0  0  0  0
  9 30  1  0  0  0  0
  9 31  1  0  0  0  0
 10 11  1  0  0  0  0
 10 32  1  0  0  0  0
 10 33  1  0  0  0  0
 12 13  2  0  0  0  0
 12 14  1  0  0  0  0
 14 15  1  0  0  0  0
 15 16  1  0  0  0  0
 15 34  1  0  0  0  0
 15 35  1  0  0  0  0
 16 17  1  0  0  0  0
 16 18  1  0  0  0  0
 16 36  1  0  0  0  0
 17 37  1  0  0  0  0
 18 19  1  0  0  0  0
 18 38  1  0  0  0  0
 18 39  1  0  0  0  0
 19 20  1  0  0  0  0
 19 40  1  0  0  0  0
 19 41  1  0  0  0  0
 20 25  1  0  0  0  0
 20 21  2  0  0  0  0
 21 22  1  0  0  0  0
 21 42  1  0  0  0  0
 22 23  2  0  0  0  0
 22 43  1  0  0  0  0
 23 24  1  0  0  0  0
 23 44  1  0  0  0  0
 24 25  2  0  0  0  0
 24 45  1  0  0  0  0
 25 46  1  0  0  0  0
M  END
> <s_m_source_file>
AV-unprocessed.smi

> <i_m_source_file_index>
111

> <i_lp_mmshare_version>
43012

> <i_f3d_flags>
0

> <s_epik_input>
TzFbQ0gyXVtDSDJdW0NIMl1bQ0BIXTFuKFtjSF1jKEYpYzI9TyljKD1PKW4yW0NIMl1bQ0BIXShbT0hdKVtDSDJdW0NIMl1jM1tjSF1bY0hdW2NIXVtjSF1bY0hdMw==

> <s_epik_cmdline>
J2VwaWtfcHl0aG9uJywgJy1waCcsICc3LjAnLCAnLXRuJywgJzgnLCAnLW1hJywgJzIwMCcsICctbWV0YWxfYmluZGluZycsICctaW1hZScsICc8aW5maWxlLm1hZT4nLCAnLW9tYWUnLCAnPG91dGZpbGUubWFlPic=

> <r_lp_tautomer_probability>
1

> <r_epik_Ionization_Penalty>
1.88248e-07

> <r_epik_Ionization_Penalty_Charging>
4.03974e-08

> <r_epik_Ionization_Penalty_Neutral>
1.47851e-07

> <r_epik_State_Penalty>
-0

> <r_epik_Charging_Adjusted_Penalty>
4.03974e-08

> <i_epik_Tot_Q>
0

> <i_epik_Tot_abs_Q>
0

> <r_epik_Metal_State_Penalty>
-0

> <b_epik_Metal_Only>
0

> <s_epik_Chemistry_Notes>
This compound contains an acetal/aminal-like group ( X-CH(R)-Y where X, Y are N, S, or O) that may be acid/base labile, releasing an aldehyde.

> <s_lp_Force_Field>
OPLS_2005

> <r_lp_Energy>
37.7752

> <b_lp_Chiralities_Consistent>
1

> <s_lp_Variant>
AV-unprocessed.smi:111-4

> <Gold.Version>
5.8.1

> <Gold.Id.Protein>
6NUR|6NUR_protein|mol2

> <Gold.PLP.Fitness>
54.1638

> <Gold.PLP.PLP>
-52.3861

> <Gold.PLP.part.hbond>
-1.1416

> <Gold.PLP.part.metal>
0.0000

> <Gold.PLP.part.buried>
-4.4612

> <Gold.PLP.part.nonpolar>
-47.2541

> <Gold.PLP.part.repulsive>
0.1028

> <Gold.PLP.ligand.clash>
0.0000

> <Gold.PLP.ligand.torsion>
0.6977

> <Gold.PLP.Chemscore.Hbond>
0.0000

> <Gold.PLP.Chemscore.CHOScore>
0.9983

> <Gold.PLP.Chemscore.Metal>
0.0000

> <Gold.Chemscore.Hbonds>
donor molecule, donor type, donor heavy atom, donor atom, acceptor molecule, acceptor atom, score
      L1  C     5    26       P1  8028  1.00

> <Gold.PLP.Chemscore.Internal.Correction>
0.1783

> <Gold.Rescore>
     Score         DG    S(hbond)    S(metal)    S(lipo)     H(rot)  DE(clash)    DE(int)     intcor
     10.22     -12.13       0.00        0.00     115.35       2.67       0.01       1.90       ----

> <Gold.Chemscore.Fitness>
10.2200

> <Gold.Chemscore.DG>
-12.1300

> <Gold.Chemscore.ZeroCoef>
-5.4800

> <Gold.Chemscore.Hbond>
0.0000

> <Gold.Chemscore.Metal>
0.0000

> <Gold.Chemscore.Lipo>
115.3528

> <Gold.Chemscore.Internal_Hbond>
0.0000

> <Gold.Chemscore.DEClash>
0.0112

> <Gold.Chemscore.DEInternal>
1.8989

> <Gold.Chemscore.Rot>
2.6743

> <Gold.Chemscore.Internal.Correction>
   9.000000E+99

> <Gold.Chemscore.Hbond.Weighted>
-0.0000

> <Gold.Chemscore.Metal.Weighted>
-0.0000

> <Gold.Chemscore.Lipo.Weighted>
-13.4963

> <Gold.Chemscore.Internal_Hbond.Weighted>
0.0000

> <Gold.Chemscore.DEClash.Weighted>
0.0112

> <Gold.Chemscore.DEInternal.Weighted>
1.8989

> <Gold.Chemscore.Rot.Weighted>
6.8463

> <Gold.Chemscore.Internal.Correction.Weighted>
   9.000000E+99

> <Gold.Protein.RotatedTorsions>
[ 6907 6896 6895 6894 ] final   27.63 input  -60.11 | X-H torsion
[ 7974 7965 7964 7962 ] final  -35.46 input  175.53 | X-H torsion
[ 8008 7997 7996 7995 ] final  132.54 input   59.86 | X-H torsion
[ 10167 10162 10161 10158 ] final  -85.12 input  -65.29 | X-H torsion
[ 10718 10713 10712 10709 ] final -170.23 input   66.30 | X-H torsion
[ 10763 10752 10751 10750 ] final  174.26 input  -60.55 | X-H torsion
[ 11005 11000 10999 10996 ] final  148.94 input  -57.11 | X-H torsion

> <Gold.Protein.ActiveResidues>
 VAL166  LYS551  ARG553  GLY616  TRP617  ASP618  TYR619  PRO620  LYS621  CYS622 
 ASP623  PHE694  ASN695  SER759  ASP760  ASP761  ALA762  ILE779  LEU786  VAL792 
 PHE793  MET794  SER795  GLU796  ALA797  LYS798  CYS799  TRP800  GLU811  SER814 

> <Gold.Protein.RotatedAtoms>
  152.0050  134.9907  160.0566 H   0  0  0  0  0  0  0  0  0  0  0  0  # atno 6907 bound_to 6896
  152.1483  133.4501  159.4809 H   0  0  0  0  0  0  0  0  0  0  0  0  # atno 6908 bound_to 6896
  150.6872  134.2139  159.4413 H   0  0  0  0  0  0  0  0  0  0  0  0  # atno 6909 bound_to 6896
  146.0744  140.6162  142.8937 H   0  0  0  0  0  0  0  0  0  0  0  0  # atno 7974 bound_to 7965
  156.2983  140.2544  156.3106 H   0  0  0  0  0  0  0  0  0  0  0  0  # atno 8008 bound_to 7997
  154.9330  140.0398  157.2077 H   0  0  0  0  0  0  0  0  0  0  0  0  # atno 8009 bound_to 7997
  154.8200  140.2858  155.5798 H   0  0  0  0  0  0  0  0  0  0  0  0  # atno 8010 bound_to 7997
  140.4067  143.2639  151.9071 H   0  0  0  0  0  0  0  0  0  0  0  0  # atno 10167 bound_to 10162
  156.7231  130.9277  151.3099 H   0  0  0  0  0  0  0  0  0  0  0  0  # atno 10718 bound_to 10713
  154.4515  135.2765  155.1777 H   0  0  0  0  0  0  0  0  0  0  0  0  # atno 10763 bound_to 10752
  154.3603  135.6131  153.5690 H   0  0  0  0  0  0  0  0  0  0  0  0  # atno 10764 bound_to 10752
  152.9847  135.5832  154.4860 H   0  0  0  0  0  0  0  0  0  0  0  0  # atno 10765 bound_to 10752
  140.1002  134.8988  157.1784 H   0  0  0  0  0  0  0  0  0  0  0  0  # atno 11005 bound_to 11000
  144.7252  140.4502  143.6978 LP  0  0  0  0  0  0  0  0  0  0  0  0  # atno 17320 bound_to 7965
  145.6333  139.1539  143.2957 LP  0  0  0  0  0  0  0  0  0  0  0  0  # atno 17321 bound_to 7965
  139.4783  144.5578  151.8286 LP  0  0  0  0  0  0  0  0  0  0  0  0  # atno 17342 bound_to 10162
  140.4682  144.1625  150.5914 LP  0  0  0  0  0  0  0  0  0  0  0  0  # atno 17343 bound_to 10162
  157.6890  130.9214  150.0462 LP  0  0  0  0  0  0  0  0  0  0  0  0  # atno 17370 bound_to 10713
  156.1581  130.3643  149.9340 LP  0  0  0  0  0  0  0  0  0  0  0  0  # atno 17371 bound_to 10713
  140.3231  134.2894  155.7242 LP  0  0  0  0  0  0  0  0  0  0  0  0  # atno 17394 bound_to 11000
  141.2103  133.7722  156.9938 LP  0  0  0  0  0  0  0  0  0  0  0  0  # atno 17395 bound_to 11000

$$$$
