AV-unprocessed.smi:1810|AV-procd|sdf|7334|dock7
  -GOLD-   22720 8593D 1   1.00000     0.00000
 Structure written by MMmdl.
 39 40  0  0  0  0  0  0  0  0  2 V2000
  152.0783  143.9558  161.3602 C   0  0  0  0  0  0  0  0  0  0  0  0
  152.4397  142.7069  160.6020 C   0  0  0  0  0  0  0  0  0  0  0  0
  151.8833  142.5469  159.4463 N   0  0  0  0  0  0  0  0  0  0  0  0
  152.1482  141.4373  158.6680 N   0  0  0  0  0  0  0  0  0  0  0  0
  151.4212  141.4131  157.3942 C   0  0  0  0  0  0  0  0  0  0  0  0
  149.9140  141.6268  157.6005 C   0  0  0  0  0  0  0  0  0  0  0  0
  149.2285  141.1762  156.4404 O   0  0  0  0  0  0  0  0  0  0  0  0
  148.0415  141.7918  156.1041 C   0  0  0  0  0  0  0  0  0  0  0  0
  147.5493  141.9043  154.7781 C   0  0  0  0  0  0  0  0  0  0  0  0
  146.3249  142.5522  154.5230 C   0  0  0  0  0  0  0  0  0  0  0  0
  145.5820  143.0928  155.5906 C   0  0  0  0  0  0  0  0  0  0  0  0
  144.0219  143.9131  155.2628 S   0  0  0  0  0  0  0  0  0  0  0  0
  144.3104  144.2968  153.7218 N   0  5  0  0  0  0  0  0  0  0  0  0
  142.9704  142.8946  155.4093 O   0  0  0  0  0  0  0  0  0  0  0  0
  143.9745  145.0900  156.1447 O   0  0  0  0  0  0  0  0  0  0  0  0
  146.0583  142.9871  156.9121 C   0  0  0  0  0  0  0  0  0  0  0  0
  147.2833  142.3387  157.1609 C   0  0  0  0  0  0  0  0  0  0  0  0
  152.9919  140.4253  159.0189 C   0  0  0  0  0  0  0  0  0  0  0  0
  153.1963  139.4507  158.2938 O   0  0  0  0  0  0  0  0  0  0  0  0
  153.6180  140.6118  160.3299 C   0  0  0  0  0  0  0  0  0  0  0  0
  154.5099  139.5742  160.7366 C   0  0  0  0  0  0  0  0  0  0  0  0
  155.2249  138.7333  161.0856 N   0  0  0  0  0  0  0  0  0  0  0  0
  153.3661  141.6971  161.1042 C   0  0  0  0  0  0  0  0  0  0  0  0
  153.9905  141.9380  162.4718 C   0  0  0  0  0  0  0  0  0  0  0  0
  152.9691  144.5402  161.5912 H   0  0  0  0  0  0  0  0  0  0  0  0
  151.5828  143.7080  162.2991 H   0  0  0  0  0  0  0  0  0  0  0  0
  151.4041  144.5971  160.7904 H   0  0  0  0  0  0  0  0  0  0  0  0
  151.8081  142.1888  156.7309 H   0  0  0  0  0  0  0  0  0  0  0  0
  151.5984  140.4712  156.8720 H   0  0  0  0  0  0  0  0  0  0  0  0
  149.5736  141.0717  158.4760 H   0  0  0  0  0  0  0  0  0  0  0  0
  149.7124  142.6862  157.7677 H   0  0  0  0  0  0  0  0  0  0  0  0
  148.0929  141.5028  153.9366 H   0  0  0  0  0  0  0  0  0  0  0  0
  145.9623  142.6350  153.5091 H   0  0  0  0  0  0  0  0  0  0  0  0
  143.7736  143.6533  153.1282 H   0  0  0  0  0  0  0  0  0  0  0  0
  145.4936  143.4022  157.7336 H   0  0  0  0  0  0  0  0  0  0  0  0
  147.6458  142.2609  158.1753 H   0  0  0  0  0  0  0  0  0  0  0  0
  154.6360  141.1167  162.7818 H   0  0  0  0  0  0  0  0  0  0  0  0
  153.2174  142.0499  163.2328 H   0  0  0  0  0  0  0  0  0  0  0  0
  154.5962  142.8449  162.4601 H   0  0  0  0  0  0  0  0  0  0  0  0
  1  2  1  0  0  0  0
  1 25  1  0  0  0  0
  1 26  1  0  0  0  0
  1 27  1  0  0  0  0
  2 23  1  0  0  0  0
  2  3  2  0  0  0  0
  3  4  1  0  0  0  0
  4  5  1  0  0  0  0
  4 18  1  0  0  0  0
  5  6  1  0  0  0  0
  5 28  1  0  0  0  0
  5 29  1  0  0  0  0
  6  7  1  0  0  0  0
  6 30  1  0  0  0  0
  6 31  1  0  0  0  0
  7  8  1  0  0  0  0
  8 17  1  0  0  0  0
  8  9  2  0  0  0  0
  9 10  1  0  0  0  0
  9 32  1  0  0  0  0
 10 11  2  0  0  0  0
 10 33  1  0  0  0  0
 11 12  1  0  0  0  0
 11 16  1  0  0  0  0
 12 13  1  0  0  0  0
 12 14  2  0  0  0  0
 12 15  2  0  0  0  0
 13 34  1  0  0  0  0
 16 17  2  0  0  0  0
 16 35  1  0  0  0  0
 17 36  1  0  0  0  0
 18 19  2  0  0  0  0
 18 20  1  0  0  0  0
 20 21  1  0  0  0  0
 20 23  2  0  0  0  0
 21 22  3  0  0  0  0
 23 24  1  0  0  0  0
 24 37  1  0  0  0  0
 24 38  1  0  0  0  0
 24 39  1  0  0  0  0
M  CHG  1  13  -1
M  END
> <s_m_source_file>
AV-unprocessed.smi

> <i_m_source_file_index>
1810

> <i_lp_mmshare_version>
43012

> <i_f3d_flags>
0

> <s_epik_input>
TiNDYyhjMVtDSDNdKWMoPU8pbihuYzFbQ0gzXSlbQ0gyXVtDSDJdT2MyW2NIXVtjSF1jKFMoPU8pKD1PKVtOSDJdKVtjSF1bY0hdMg==

> <s_epik_cmdline>
J2VwaWtfcHl0aG9uJywgJy1waCcsICc3LjAnLCAnLXRuJywgJzgnLCAnLW1hJywgJzIwMCcsICctbWV0YWxfYmluZGluZycsICctaW1hZScsICc8aW5maWxlLm1hZT4nLCAnLW9tYWUnLCAnPG91dGZpbGUubWFlPic=

> <r_lp_tautomer_probability>
1

> <r_epik_Ionization_Penalty>
4.40921

> <r_epik_Ionization_Penalty_Charging>
4.40921

> <r_epik_Ionization_Penalty_Neutral>
1.83918e-13

> <r_epik_State_Penalty>
4.40908

> <r_epik_Charging_Adjusted_Penalty>
8.81829

> <i_epik_Tot_Q>
-1

> <i_epik_Tot_abs_Q>
1

> <r_epik_Metal_State_Penalty>
0.775711

> <b_epik_Metal_Only>
1

> <s_lp_Force_Field>
OPLS_2005

> <r_lp_Energy>
29.6197

> <b_lp_Chiralities_Consistent>
1

> <s_lp_Variant>
AV-unprocessed.smi:1810-2

> <Gold.Version>
5.8.1

> <Gold.Id.Protein>
6NUR|6NUR_protein|mol2

> <Gold.PLP.Fitness>
45.6786

> <Gold.PLP.PLP>
-41.2891

> <Gold.PLP.part.hbond>
-2.0000

> <Gold.PLP.part.metal>
0.0000

> <Gold.PLP.part.buried>
-4.2820

> <Gold.PLP.part.nonpolar>
-34.8781

> <Gold.PLP.part.repulsive>
0.3072

> <Gold.PLP.ligand.clash>
0.0000

> <Gold.PLP.ligand.torsion>
1.8797

> <Gold.PLP.Chemscore.Hbond>
2.0000

> <Gold.PLP.Chemscore.CHOScore>
0.0000

> <Gold.PLP.Chemscore.Metal>
0.0000

> <Gold.Chemscore.Hbonds>
donor molecule, donor type, donor heavy atom, donor atom, acceptor molecule, acceptor atom, score
      L1  H    13    34       P1 10174  1.00
      P1  H  7997  8009       L1    19  1.00

> <Gold.PLP.Chemscore.Internal.Correction>
2.1489

> <Gold.Rescore>
     Score         DG    S(hbond)    S(metal)    S(lipo)     H(rot)  DE(clash)    DE(int)     intcor
     14.63     -16.62       1.84        0.00      85.19       1.94       0.06       1.93       ----

> <Gold.Chemscore.Fitness>
14.6332

> <Gold.Chemscore.DG>
-16.6229

> <Gold.Chemscore.ZeroCoef>
-5.4800

> <Gold.Chemscore.Hbond>
1.8377

> <Gold.Chemscore.Metal>
0.0000

> <Gold.Chemscore.Lipo>
85.1888

> <Gold.Chemscore.Internal_Hbond>
0.0000

> <Gold.Chemscore.DEClash>
0.0564

> <Gold.Chemscore.DEInternal>
1.9333

> <Gold.Chemscore.Rot>
1.9384

> <Gold.Chemscore.Internal.Correction>
   9.000000E+99

> <Gold.Chemscore.Hbonds>
donor molecule, donor type, donor heavy atom, donor atom, acceptor molecule, acceptor atom, score
      L1  H    13    34       P1 10174  0.70
      P1  H  7997  8009       L1    19  0.43

> <Gold.Chemscore.Hbond.Weighted>
-6.1380

> <Gold.Chemscore.Metal.Weighted>
-0.0000

> <Gold.Chemscore.Lipo.Weighted>
-9.9671

> <Gold.Chemscore.Internal_Hbond.Weighted>
0.0000

> <Gold.Chemscore.DEClash.Weighted>
0.0564

> <Gold.Chemscore.DEInternal.Weighted>
1.9333

> <Gold.Chemscore.Rot.Weighted>
4.9622

> <Gold.Chemscore.Internal.Correction.Weighted>
   9.000000E+99

> <Gold.Protein.RotatedTorsions>
[ 6907 6896 6895 6894 ] final  -13.11 input  -60.11 | X-H torsion
[ 7974 7965 7964 7962 ] final  148.82 input  175.53 | X-H torsion
[ 8008 7997 7996 7995 ] final  143.93 input   59.86 | X-H torsion
[ 10167 10162 10161 10158 ] final  149.09 input  -65.29 | X-H torsion
[ 10718 10713 10712 10709 ] final  -72.78 input   66.30 | X-H torsion
[ 10763 10752 10751 10750 ] final   47.30 input  -60.55 | X-H torsion
[ 11005 11000 10999 10996 ] final -155.75 input  -57.11 | X-H torsion

> <Gold.Protein.ActiveResidues>
 VAL166  LYS551  ARG553  GLY616  TRP617  ASP618  TYR619  PRO620  LYS621  CYS622 
 ASP623  PHE694  ASN695  SER759  ASP760  ASP761  ALA762  ILE779  LEU786  VAL792 
 PHE793  MET794  SER795  GLU796  ALA797  LYS798  CYS799  TRP800  GLU811  SER814 

> <Gold.Protein.RotatedAtoms>
  151.3600  135.0902  159.9431 H   0  0  0  0  0  0  0  0  0  0  0  0  # atno 6907 bound_to 6896
  152.5164  133.9267  159.7571 H   0  0  0  0  0  0  0  0  0  0  0  0  # atno 6908 bound_to 6896
  150.9660  133.6340  159.2775 H   0  0  0  0  0  0  0  0  0  0  0  0  # atno 6909 bound_to 6896
  144.8485  139.6201  143.5984 H   0  0  0  0  0  0  0  0  0  0  0  0  # atno 7974 bound_to 7965
  156.2919  140.2249  156.4971 H   0  0  0  0  0  0  0  0  0  0  0  0  # atno 8008 bound_to 7997
  154.7721  140.0466  157.1081 H   0  0  0  0  0  0  0  0  0  0  0  0  # atno 8009 bound_to 7997
  154.9861  140.3084  155.4929 H   0  0  0  0  0  0  0  0  0  0  0  0  # atno 8010 bound_to 7997
  139.4866  144.5629  151.7198 H   0  0  0  0  0  0  0  0  0  0  0  0  # atno 10167 bound_to 10162
  156.0306  130.4379  150.2644 H   0  0  0  0  0  0  0  0  0  0  0  0  # atno 10718 bound_to 10713
  152.9801  135.5980  154.3741 H   0  0  0  0  0  0  0  0  0  0  0  0  # atno 10763 bound_to 10752
  154.3411  135.2767  155.2424 H   0  0  0  0  0  0  0  0  0  0  0  0  # atno 10764 bound_to 10752
  154.4504  135.5991  153.6243 H   0  0  0  0  0  0  0  0  0  0  0  0  # atno 10765 bound_to 10752
  140.6831  134.4123  157.5225 H   0  0  0  0  0  0  0  0  0  0  0  0  # atno 11005 bound_to 11000
  146.2765  139.6765  142.9259 LP  0  0  0  0  0  0  0  0  0  0  0  0  # atno 17320 bound_to 7965
  145.4548  141.0430  143.2784 LP  0  0  0  0  0  0  0  0  0  0  0  0  # atno 17321 bound_to 7965
  140.5202  144.0891  150.6020 LP  0  0  0  0  0  0  0  0  0  0  0  0  # atno 17342 bound_to 10162
  140.3846  143.2784  152.0131 LP  0  0  0  0  0  0  0  0  0  0  0  0  # atno 17343 bound_to 10162
  157.0746  131.0126  151.3178 LP  0  0  0  0  0  0  0  0  0  0  0  0  # atno 17370 bound_to 10713
  157.4973  130.7859  149.7569 LP  0  0  0  0  0  0  0  0  0  0  0  0  # atno 17371 bound_to 10713
  139.8946  134.8703  156.2171 LP  0  0  0  0  0  0  0  0  0  0  0  0  # atno 17394 bound_to 11000
  141.0302  133.6993  156.1416 LP  0  0  0  0  0  0  0  0  0  0  0  0  # atno 17395 bound_to 11000

$$$$
