AV-unprocessed.smi:1396|AV-procd|sdf|5678|dock3
  -GOLD-   22720 5303D 1   1.00000     0.00000
 Structure written by MMmdl.
 46 47  0  0  0  0  0  0  0  0  3 V2000
  143.7050  146.3752  156.0708 C   0  0  0  0  0  0  0  0  0  0  0  0
  143.6512  145.0285  155.5148 N   0  5  0  0  0  0  0  0  0  0  0  0
  144.2757  143.9585  156.0759 C   0  0  0  0  0  0  0  0  0  0  0  0
  145.0978  143.8958  156.9961 O   0  0  0  0  0  0  0  0  0  0  0  0
  143.8604  142.6535  155.3868 C   0  0  0  0  0  0  0  0  0  0  0  0
  145.0364  142.0102  154.7487 N   0  3  2  0  0  0  0  0  0  0  0  0
  145.8102  141.1451  155.6807 C   0  0  0  0  0  0  0  0  0  0  0  0
  146.9448  140.4089  154.9471 C   0  0  0  0  0  0  0  0  0  0  0  0
  147.8822  141.3832  154.2068 C   0  0  2  0  0  0  0  0  0  0  0  0
  148.6897  142.1742  155.1351 N   0  0  0  0  0  0  0  0  0  0  0  0
  149.5704  141.6775  156.0158 C   0  0  0  0  0  0  0  0  0  0  0  0
  149.8031  140.4753  156.1377 O   0  0  0  0  0  0  0  0  0  0  0  0
  150.1636  142.6594  156.7158 N   0  0  0  0  0  0  0  0  0  0  0  0
  151.1014  142.5421  157.7769 C   0  0  0  0  0  0  0  0  0  0  0  0
  151.6251  143.7258  158.3350 C   0  0  0  0  0  0  0  0  0  0  0  0
  152.5348  143.6368  159.4055 C   0  0  0  0  0  0  0  0  0  0  0  0
  152.8862  142.3626  159.8935 C   0  0  0  0  0  0  0  0  0  0  0  0
  153.7747  142.2804  160.9458 O   0  0  0  0  0  0  0  0  0  0  0  0
  154.1359  140.9898  161.4256 C   0  0  0  0  0  0  0  0  0  0  0  0
  152.3791  141.2184  159.3720 N   0  0  0  0  0  0  0  0  0  0  0  0
  151.5095  141.3099  158.3436 C   0  0  0  0  0  0  0  0  0  0  0  0
  147.0510  142.3042  153.2979 C   0  0  0  0  0  0  0  0  0  0  0  0
  145.9104  142.9977  154.0655 C   0  0  0  0  0  0  0  0  0  0  0  0
  143.2083  147.0996  155.4256 H   0  0  0  0  0  0  0  0  0  0  0  0
  144.7272  146.7309  156.2029 H   0  0  0  0  0  0  0  0  0  0  0  0
  143.2187  146.4427  157.0442 H   0  0  0  0  0  0  0  0  0  0  0  0
  143.4558  142.0021  156.1630 H   0  0  0  0  0  0  0  0  0  0  0  0
  143.0596  142.7953  154.6573 H   0  0  0  0  0  0  0  0  0  0  0  0
  146.2155  141.7518  156.4920 H   0  0  0  0  0  0  0  0  0  0  0  0
  145.1557  140.4054  156.1420 H   0  0  0  0  0  0  0  0  0  0  0  0
  147.5059  139.7925  155.6502 H   0  0  0  0  0  0  0  0  0  0  0  0
  146.5085  139.7166  154.2257 H   0  0  0  0  0  0  0  0  0  0  0  0
  148.5621  140.8079  153.5758 H   0  0  0  0  0  0  0  0  0  0  0  0
  148.5716  143.1763  155.1011 H   0  0  0  0  0  0  0  0  0  0  0  0
  149.9437  143.6037  156.4348 H   0  0  0  0  0  0  0  0  0  0  0  0
  151.3377  144.6927  157.9484 H   0  0  0  0  0  0  0  0  0  0  0  0
  152.9532  144.5295  159.8469 H   0  0  0  0  0  0  0  0  0  0  0  0
  154.8379  141.0960  162.2525 H   0  0  0  0  0  0  0  0  0  0  0  0
  154.6249  140.3978  160.6505 H   0  0  0  0  0  0  0  0  0  0  0  0
  153.2670  140.4451  161.7978 H   0  0  0  0  0  0  0  0  0  0  0  0
  151.1226  140.3650  157.9956 H   0  0  0  0  0  0  0  0  0  0  0  0
  147.6924  143.0492  152.8254 H   0  0  0  0  0  0  0  0  0  0  0  0
  146.6242  141.7141  152.4856 H   0  0  0  0  0  0  0  0  0  0  0  0
  145.3191  143.5876  153.3644 H   0  0  0  0  0  0  0  0  0  0  0  0
  146.3150  143.6945  154.8012 H   0  0  0  0  0  0  0  0  0  0  0  0
  144.6640  141.4087  154.0277 H   0  0  0  0  0  0  0  0  0  0  0  0
  1  2  1  0  0  0  0
  1 24  1  0  0  0  0
  1 25  1  0  0  0  0
  1 26  1  0  0  0  0
  2  3  1  0  0  0  0
  3  4  2  0  0  0  0
  3  5  1  0  0  0  0
  5  6  1  0  0  0  0
  5 27  1  0  0  0  0
  5 28  1  0  0  0  0
  6 23  1  0  0  0  0
  6  7  1  0  0  0  0
  6 46  1  0  0  0  0
  7  8  1  0  0  0  0
  7 29  1  0  0  0  0
  7 30  1  0  0  0  0
  8  9  1  0  0  0  0
  8 31  1  0  0  0  0
  8 32  1  0  0  0  0
  9 10  1  0  0  0  0
  9 22  1  0  0  0  0
  9 33  1  0  0  0  0
 10 11  1  0  0  0  0
 10 34  1  0  0  0  0
 11 12  2  0  0  0  0
 11 13  1  0  0  0  0
 13 14  1  0  0  0  0
 13 35  1  0  0  0  0
 14 21  1  0  0  0  0
 14 15  2  0  0  0  0
 15 16  1  0  0  0  0
 15 36  1  0  0  0  0
 16 17  2  0  0  0  0
 16 37  1  0  0  0  0
 17 18  1  0  0  0  0
 17 20  1  0  0  0  0
 18 19  1  0  0  0  0
 19 38  1  0  0  0  0
 19 39  1  0  0  0  0
 19 40  1  0  0  0  0
 20 21  2  0  0  0  0
 21 41  1  0  0  0  0
 22 23  1  0  0  0  0
 22 42  1  0  0  0  0
 22 43  1  0  0  0  0
 23 44  1  0  0  0  0
 23 45  1  0  0  0  0
M  CHG  1   2  -1
M  CHG  1   6   1
M  END
> <s_m_source_file>
AV-unprocessed.smi

> <i_m_source_file_index>
1396

> <i_lp_mmshare_version>
43012

> <i_f3d_flags>
0

> <s_epik_input>
W0NIM11bTkhdQyg9TylbQ0gyXU4xW0NIMl1bQ0gyXVtDSF0oW0NIMl1bQ0gyXTEpW05IXUMoPU8pW05IXWMyW2NIXVtjSF1jKE9bQ0gzXSluW2NIXTI=

> <s_epik_cmdline>
J2VwaWtfcHl0aG9uJywgJy1waCcsICc3LjAnLCAnLXRuJywgJzgnLCAnLW1hJywgJzIwMCcsICctbWV0YWxfYmluZGluZycsICctaW1hZScsICc8aW5maWxlLm1hZT4nLCAnLW9tYWUnLCAnPG91dGZpbGUubWFlPic=

> <r_lp_tautomer_probability>
1

> <r_epik_Ionization_Penalty>
6.13954

> <r_epik_Ionization_Penalty_Charging>
6.13946

> <r_epik_Ionization_Penalty_Neutral>
7.8452e-05

> <r_epik_State_Penalty>
6.9595

> <r_epik_Charging_Adjusted_Penalty>
13.099

> <i_epik_Tot_Q>
0

> <i_epik_Tot_abs_Q>
2

> <r_epik_Metal_State_Penalty>
2.89145

> <b_epik_Metal_Only>
1

> <s_lp_Force_Field>
OPLS_2005

> <r_lp_Energy>
12.8202

> <b_lp_Chiralities_Consistent>
1

> <s_lp_Variant>
AV-unprocessed.smi:1396-5

> <Gold.Version>
5.8.1

> <Gold.Id.Protein>
6NUR|6NUR_protein|mol2

> <Gold.PLP.Fitness>
50.5229

> <Gold.PLP.PLP>
-38.9971

> <Gold.PLP.part.hbond>
-3.0000

> <Gold.PLP.part.metal>
0.0000

> <Gold.PLP.part.buried>
-6.9781

> <Gold.PLP.part.nonpolar>
-29.7627

> <Gold.PLP.part.repulsive>
0.4458

> <Gold.PLP.ligand.clash>
0.0000

> <Gold.PLP.ligand.torsion>
0.2586

> <Gold.PLP.Chemscore.Hbond>
4.0000

> <Gold.PLP.Chemscore.CHOScore>
0.0000

> <Gold.PLP.Chemscore.Metal>
0.0000

> <Gold.Chemscore.Hbonds>
donor molecule, donor type, donor heavy atom, donor atom, acceptor molecule, acceptor atom, score
      L1  H     6    46       P1 10175  1.98
      L1  H    10    34       P1  8028  1.00
      L1  H    13    35       P1  8028  1.00

> <Gold.PLP.Chemscore.Internal.Correction>
0.0429

> <Gold.Rescore>
     Score         DG    S(hbond)    S(metal)    S(lipo)     H(rot)  DE(clash)    DE(int)     intcor
     16.70     -19.50       2.75        0.00      83.55       1.93       1.28       1.52       ----

> <Gold.Chemscore.Fitness>
16.6999

> <Gold.Chemscore.DG>
-19.5000

> <Gold.Chemscore.ZeroCoef>
-5.4800

> <Gold.Chemscore.Hbond>
2.7490

> <Gold.Chemscore.Metal>
0.0000

> <Gold.Chemscore.Lipo>
83.5455

> <Gold.Chemscore.Internal_Hbond>
0.0000

> <Gold.Chemscore.DEClash>
1.2767

> <Gold.Chemscore.DEInternal>
1.5234

> <Gold.Chemscore.Rot>
1.9283

> <Gold.Chemscore.Internal.Correction>
   9.000000E+99

> <Gold.Chemscore.Hbonds>
donor molecule, donor type, donor heavy atom, donor atom, acceptor molecule, acceptor atom, score
      L1  H     6    46       P1 10175  0.37
      L1  H    10    34       P1  8028  0.97
      L1  H    13    35       P1  8028  0.95

> <Gold.Chemscore.Hbond.Weighted>
-9.1817

> <Gold.Chemscore.Metal.Weighted>
-0.0000

> <Gold.Chemscore.Lipo.Weighted>
-9.7748

> <Gold.Chemscore.Internal_Hbond.Weighted>
0.0000

> <Gold.Chemscore.DEClash.Weighted>
1.2767

> <Gold.Chemscore.DEInternal.Weighted>
1.5234

> <Gold.Chemscore.Rot.Weighted>
4.9365

> <Gold.Chemscore.Internal.Correction.Weighted>
   9.000000E+99

> <Gold.Protein.RotatedTorsions>
[ 6907 6896 6895 6894 ] final -111.36 input  -60.11 | X-H torsion
[ 7974 7965 7964 7962 ] final   89.89 input  175.53 | X-H torsion
[ 8008 7997 7996 7995 ] final  123.69 input   59.86 | X-H torsion
[ 10167 10162 10161 10158 ] final   52.01 input  -65.29 | X-H torsion
[ 10718 10713 10712 10709 ] final   72.56 input   66.30 | X-H torsion
[ 10763 10752 10751 10750 ] final  -55.28 input  -60.55 | X-H torsion
[ 11005 11000 10999 10996 ] final  112.12 input  -57.11 | X-H torsion

> <Gold.Protein.ActiveResidues>
 VAL166  LYS551  ARG553  GLY616  TRP617  ASP618  TYR619  PRO620  LYS621  CYS622 
 ASP623  PHE694  ASN695  SER759  ASP760  ASP761  ALA762  ILE779  LEU786  VAL792 
 PHE793  MET794  SER795  GLU796  ALA797  LYS798  CYS799  TRP800  GLU811  SER814 

> <Gold.Protein.RotatedAtoms>
  150.7685  133.9246  159.3408 H   0  0  0  0  0  0  0  0  0  0  0  0  # atno 6907 bound_to 6896
  151.7138  135.0905  160.0282 H   0  0  0  0  0  0  0  0  0  0  0  0  # atno 6908 bound_to 6896
  152.3692  133.6359  159.6110 H   0  0  0  0  0  0  0  0  0  0  0  0  # atno 6909 bound_to 6896
  145.5263  139.2281  143.2643 H   0  0  0  0  0  0  0  0  0  0  0  0  # atno 7974 bound_to 7965
  156.2775  140.2757  156.1667 H   0  0  0  0  0  0  0  0  0  0  0  0  # atno 8008 bound_to 7997
  155.0697  140.0387  157.2622 H   0  0  0  0  0  0  0  0  0  0  0  0  # atno 8009 bound_to 7997
  154.7050  140.2657  155.6689 H   0  0  0  0  0  0  0  0  0  0  0  0  # atno 8010 bound_to 7997
  140.2559  144.3427  150.6333 H   0  0  0  0  0  0  0  0  0  0  0  0  # atno 10167 bound_to 10162
  157.6507  130.9585  150.0946 H   0  0  0  0  0  0  0  0  0  0  0  0  # atno 10718 bound_to 10713
  154.1883  135.6431  153.5053 H   0  0  0  0  0  0  0  0  0  0  0  0  # atno 10763 bound_to 10752
  153.0041  135.5422  154.6442 H   0  0  0  0  0  0  0  0  0  0  0  0  # atno 10764 bound_to 10752
  154.5824  135.2926  155.0692 H   0  0  0  0  0  0  0  0  0  0  0  0  # atno 10765 bound_to 10752
  139.8920  134.9523  156.6537 H   0  0  0  0  0  0  0  0  0  0  0  0  # atno 11005 bound_to 11000
  146.2073  140.6078  142.9075 LP  0  0  0  0  0  0  0  0  0  0  0  0  # atno 17320 bound_to 7965
  144.7649  140.5508  143.6710 LP  0  0  0  0  0  0  0  0  0  0  0  0  # atno 17321 bound_to 7965
  140.6004  143.2167  151.7083 LP  0  0  0  0  0  0  0  0  0  0  0  0  # atno 17342 bound_to 10162
  139.5032  144.3801  152.0384 LP  0  0  0  0  0  0  0  0  0  0  0  0  # atno 17343 bound_to 10162
  156.1886  130.3653  149.8940 LP  0  0  0  0  0  0  0  0  0  0  0  0  # atno 17370 bound_to 10713
  156.6874  130.8882  151.3584 LP  0  0  0  0  0  0  0  0  0  0  0  0  # atno 17371 bound_to 10713
  140.7501  133.8905  155.8340 LP  0  0  0  0  0  0  0  0  0  0  0  0  # atno 17394 bound_to 11000
  141.0008  134.1153  157.4319 LP  0  0  0  0  0  0  0  0  0  0  0  0  # atno 17395 bound_to 11000

$$$$
