AV-unprocessed.smi:1579|AV-procd|sdf|6355|dock2
  -GOLD-   22720 6573D 1   1.00000     0.00000
 Structure written by MMmdl.
 47 48  0  0  0  0  0  0  0  0  2 V2000
  150.8671  142.5461  157.7879 C   0  0  0  0  0  0  0  0  0  0  0  0
  150.6055  141.4920  156.7462 C   0  0  0  0  0  0  0  0  0  0  0  0
  149.6604  141.7351  155.8982 N   0  0  0  0  0  0  0  0  0  0  0  0
  149.3410  140.8358  154.9007 N   0  0  0  0  0  0  0  0  0  0  0  0
  148.2440  141.2751  154.0296 C   0  0  0  0  0  0  0  0  0  0  0  0
  146.9844  140.3965  154.1943 C   0  0  1  0  0  0  0  0  0  0  0  0
  145.8469  141.2158  154.0060 O   0  0  0  0  0  0  0  0  0  0  0  0
  146.9295  139.2785  153.1331 C   0  0  0  0  0  0  0  0  0  0  0  0
  145.6491  138.5259  153.1660 N   0  3  2  0  0  0  0  0  0  0  0  0
  145.2191  138.1537  154.5402 C   0  0  0  0  0  0  0  0  0  0  0  0
  143.8241  137.5067  154.5266 C   0  0  0  0  0  0  0  0  0  0  0  0
  143.7863  136.2778  153.6025 C   0  0  1  0  0  0  0  0  0  0  0  0
  142.3881  135.6461  153.5549 C   0  0  0  0  0  0  0  0  0  0  0  0
  144.2759  136.6817  152.2016 C   0  0  0  0  0  0  0  0  0  0  0  0
  145.6614  137.3467  152.2632 C   0  0  0  0  0  0  0  0  0  0  0  0
  149.9599  139.6356  154.7088 C   0  0  0  0  0  0  0  0  0  0  0  0
  149.6315  138.8589  153.8104 O   0  0  0  0  0  0  0  0  0  0  0  0
  151.0297  139.3664  155.6718 C   0  0  0  0  0  0  0  0  0  0  0  0
  151.7080  138.1216  155.5042 C   0  0  0  0  0  0  0  0  0  0  0  0
  152.2424  137.1029  155.3753 N   0  0  0  0  0  0  0  0  0  0  0  0
  151.3524  140.2411  156.6572 C   0  0  0  0  0  0  0  0  0  0  0  0
  152.4537  140.0075  157.6823 C   0  0  0  0  0  0  0  0  0  0  0  0
  151.9165  142.8414  157.7870 H   0  0  0  0  0  0  0  0  0  0  0  0
  150.6208  142.1744  158.7828 H   0  0  0  0  0  0  0  0  0  0  0  0
  150.2739  143.4453  157.6150 H   0  0  0  0  0  0  0  0  0  0  0  0
  148.0038  142.3271  154.1982 H   0  0  0  0  0  0  0  0  0  0  0  0
  148.5919  141.2339  152.9959 H   0  0  0  0  0  0  0  0  0  0  0  0
  146.9526  139.9684  155.1955 H   0  0  0  0  0  0  0  0  0  0  0  0
  145.1650  140.6962  153.6069 H   0  0  0  0  0  0  0  0  0  0  0  0
  147.0727  139.7288  152.1493 H   0  0  0  0  0  0  0  0  0  0  0  0
  147.7557  138.5786  153.2678 H   0  0  0  0  0  0  0  0  0  0  0  0
  145.9457  137.4668  154.9770 H   0  0  0  0  0  0  0  0  0  0  0  0
  145.1927  139.0321  155.1837 H   0  0  0  0  0  0  0  0  0  0  0  0
  143.5438  137.2201  155.5410 H   0  0  0  0  0  0  0  0  0  0  0  0
  143.0868  138.2409  154.1981 H   0  0  0  0  0  0  0  0  0  0  0  0
  144.4747  135.5309  154.0011 H   0  0  0  0  0  0  0  0  0  0  0  0
  141.6482  136.3471  153.1669 H   0  0  0  0  0  0  0  0  0  0  0  0
  142.0635  135.3357  154.5483 H   0  0  0  0  0  0  0  0  0  0  0  0
  142.3778  134.7635  152.9147 H   0  0  0  0  0  0  0  0  0  0  0  0
  144.3183  135.8059  151.5532 H   0  0  0  0  0  0  0  0  0  0  0  0
  143.5631  137.3695  151.7440 H   0  0  0  0  0  0  0  0  0  0  0  0
  145.9521  137.6548  151.2580 H   0  0  0  0  0  0  0  0  0  0  0  0
  146.4103  136.6307  152.6053 H   0  0  0  0  0  0  0  0  0  0  0  0
  152.8710  139.0030  157.6169 H   0  0  0  0  0  0  0  0  0  0  0  0
  152.0729  140.1335  158.6964 H   0  0  0  0  0  0  0  0  0  0  0  0
  153.2694  140.7151  157.5304 H   0  0  0  0  0  0  0  0  0  0  0  0
  144.9489  139.1530  152.7955 H   0  0  0  0  0  0  0  0  0  0  0  0
  1  2  1  0  0  0  0
  1 23  1  0  0  0  0
  1 24  1  0  0  0  0
  1 25  1  0  0  0  0
  2 21  1  0  0  0  0
  2  3  2  0  0  0  0
  3  4  1  0  0  0  0
  4  5  1  0  0  0  0
  4 16  1  0  0  0  0
  5  6  1  0  0  0  0
  5 26  1  0  0  0  0
  5 27  1  0  0  0  0
  6  7  1  0  0  0  0
  6  8  1  0  0  0  0
  6 28  1  0  0  0  0
  7 29  1  0  0  0  0
  8  9  1  0  0  0  0
  8 30  1  0  0  0  0
  8 31  1  0  0  0  0
  9 15  1  0  0  0  0
  9 10  1  0  0  0  0
  9 47  1  0  0  0  0
 10 11  1  0  0  0  0
 10 32  1  0  0  0  0
 10 33  1  0  0  0  0
 11 12  1  0  0  0  0
 11 34  1  0  0  0  0
 11 35  1  0  0  0  0
 12 13  1  0  0  0  0
 12 14  1  0  0  0  0
 12 36  1  0  0  0  0
 13 37  1  0  0  0  0
 13 38  1  0  0  0  0
 13 39  1  0  0  0  0
 14 15  1  0  0  0  0
 14 40  1  0  0  0  0
 14 41  1  0  0  0  0
 15 42  1  0  0  0  0
 15 43  1  0  0  0  0
 16 17  2  0  0  0  0
 16 18  1  0  0  0  0
 18 19  1  0  0  0  0
 18 21  2  0  0  0  0
 19 20  3  0  0  0  0
 21 22  1  0  0  0  0
 22 44  1  0  0  0  0
 22 45  1  0  0  0  0
 22 46  1  0  0  0  0
M  CHG  1   9   1
M  END
> <s_m_source_file>
AV-unprocessed.smi

> <i_m_source_file_index>
1579

> <i_lp_mmshare_version>
43012

> <i_f3d_flags>
0

> <s_epik_input>
TiNDYyhjMVtDSDNdKWMoPU8pbihuYzFbQ0gzXSlbQ0gyXVtDQEhdKFtPSF0pW0NIMl1OMltDSDJdW0NIMl1bQ0hdKFtDSDNdKVtDSDJdW0NIMl0y

> <s_epik_cmdline>
J2VwaWtfcHl0aG9uJywgJy1waCcsICc3LjAnLCAnLXRuJywgJzgnLCAnLW1hJywgJzIwMCcsICctbWV0YWxfYmluZGluZycsICctaW1hZScsICc8aW5maWxlLm1hZT4nLCAnLW9tYWUnLCAnPG91dGZpbGUubWFlPic=

> <r_epik_Ionization_Penalty>
0.00136816

> <r_epik_Ionization_Penalty_Charging>
0.00136813

> <r_epik_Ionization_Penalty_Neutral>
3.19884e-08

> <r_epik_State_Penalty>
0.000910892

> <r_epik_Charging_Adjusted_Penalty>
0.00227902

> <i_epik_Tot_Q>
1

> <i_epik_Tot_abs_Q>
1

> <r_epik_Metal_State_Penalty>
-0

> <b_epik_Metal_Only>
0

> <s_lp_Force_Field>
OPLS_2005

> <r_lp_Energy>
37.5904

> <b_lp_Chiralities_Consistent>
1

> <s_lp_Variant>
AV-unprocessed.smi:1579-2

> <Gold.Version>
5.8.1

> <Gold.Id.Protein>
6NUR|6NUR_protein|mol2

> <Gold.PLP.Fitness>
44.7921

> <Gold.PLP.PLP>
-34.1215

> <Gold.PLP.part.hbond>
-3.0000

> <Gold.PLP.part.metal>
0.0000

> <Gold.PLP.part.buried>
-2.7334

> <Gold.PLP.part.nonpolar>
-29.6068

> <Gold.PLP.part.repulsive>
1.4741

> <Gold.PLP.ligand.clash>
0.0000

> <Gold.PLP.ligand.torsion>
0.5904

> <Gold.PLP.Chemscore.Hbond>
3.9280

> <Gold.PLP.Chemscore.CHOScore>
0.0000

> <Gold.PLP.Chemscore.Metal>
0.0000

> <Gold.Chemscore.Hbonds>
donor molecule, donor type, donor heavy atom, donor atom, acceptor molecule, acceptor atom, score
      L1  H     7    29       P1 10175  1.00
      L1  H     9    47       P1 10175  2.00
      P1  H 10752 10764       L1    20  0.83

> <Gold.PLP.Chemscore.Internal.Correction>
0.0674

> <Gold.Rescore>
     Score         DG    S(hbond)    S(metal)    S(lipo)     H(rot)  DE(clash)    DE(int)     intcor
     15.53     -17.52       2.75        0.00      71.82       2.17       0.11       1.88       ----

> <Gold.Chemscore.Fitness>
15.5343

> <Gold.Chemscore.DG>
-17.5232

> <Gold.Chemscore.ZeroCoef>
-5.4800

> <Gold.Chemscore.Hbond>
2.7541

> <Gold.Chemscore.Metal>
0.0000

> <Gold.Chemscore.Lipo>
71.8244

> <Gold.Chemscore.Internal_Hbond>
0.0000

> <Gold.Chemscore.DEClash>
0.1124

> <Gold.Chemscore.DEInternal>
1.8765

> <Gold.Chemscore.Rot>
2.1715

> <Gold.Chemscore.Internal.Correction>
   9.000000E+99

> <Gold.Chemscore.Hbonds>
donor molecule, donor type, donor heavy atom, donor atom, acceptor molecule, acceptor atom, score
      L1  H     7    29       P1 10175  0.91
      L1  H     9    47       P1 10175  1.00
      P1  H 10752 10764       L1    20  0.83

> <Gold.Chemscore.Hbond.Weighted>
-9.1988

> <Gold.Chemscore.Metal.Weighted>
-0.0000

> <Gold.Chemscore.Lipo.Weighted>
-8.4035

> <Gold.Chemscore.Internal_Hbond.Weighted>
0.0000

> <Gold.Chemscore.DEClash.Weighted>
0.1124

> <Gold.Chemscore.DEInternal.Weighted>
1.8765

> <Gold.Chemscore.Rot.Weighted>
5.5591

> <Gold.Chemscore.Internal.Correction.Weighted>
   9.000000E+99

> <Gold.Protein.RotatedTorsions>
[ 6907 6896 6895 6894 ] final -100.05 input  -60.11 | X-H torsion
[ 7974 7965 7964 7962 ] final  127.23 input  175.53 | X-H torsion
[ 8008 7997 7996 7995 ] final -151.22 input   59.86 | X-H torsion
[ 10167 10162 10161 10158 ] final  132.20 input  -65.29 | X-H torsion
[ 10718 10713 10712 10709 ] final  -87.31 input   66.30 | X-H torsion
[ 10763 10752 10751 10750 ] final  -46.19 input  -60.55 | X-H torsion
[ 11005 11000 10999 10996 ] final    6.70 input  -57.11 | X-H torsion

> <Gold.Protein.ActiveResidues>
 VAL166  LYS551  ARG553  GLY616  TRP617  ASP618  TYR619  PRO620  LYS621  CYS622 
 ASP623  PHE694  ASN695  SER759  ASP760  ASP761  ALA762  ILE779  LEU786  VAL792 
 PHE793  MET794  SER795  GLU796  ALA797  LYS798  CYS799  TRP800  GLU811  SER814 

> <Gold.Protein.RotatedAtoms>
  150.7102  134.0946  159.3943 H   0  0  0  0  0  0  0  0  0  0  0  0  # atno 6907 bound_to 6896
  151.8932  135.0406  160.0509 H   0  0  0  0  0  0  0  0  0  0  0  0  # atno 6908 bound_to 6896
  152.2474  133.5151  159.5342 H   0  0  0  0  0  0  0  0  0  0  0  0  # atno 6909 bound_to 6896
  145.0529  139.3868  143.5045 H   0  0  0  0  0  0  0  0  0  0  0  0  # atno 7974 bound_to 7965
  155.6360  140.0696  157.2634 H   0  0  0  0  0  0  0  0  0  0  0  0  # atno 8008 bound_to 7997
  154.4194  140.1759  156.1572 H   0  0  0  0  0  0  0  0  0  0  0  0  # atno 8009 bound_to 7997
  155.9894  140.3346  155.6742 H   0  0  0  0  0  0  0  0  0  0  0  0  # atno 8010 bound_to 7997
  139.5350  144.6672  151.4818 H   0  0  0  0  0  0  0  0  0  0  0  0  # atno 10167 bound_to 10162
  155.9986  130.4795  150.4847 H   0  0  0  0  0  0  0  0  0  0  0  0  # atno 10718 bound_to 10713
  154.0409  135.6644  153.4790 H   0  0  0  0  0  0  0  0  0  0  0  0  # atno 10763 bound_to 10752
  153.0502  135.5089  154.7843 H   0  0  0  0  0  0  0  0  0  0  0  0  # atno 10764 bound_to 10752
  154.6819  135.3046  154.9567 H   0  0  0  0  0  0  0  0  0  0  0  0  # atno 10765 bound_to 10752
  140.5565  134.0233  155.7956 H   0  0  0  0  0  0  0  0  0  0  0  0  # atno 11005 bound_to 11000
  146.3519  140.0188  142.8660 LP  0  0  0  0  0  0  0  0  0  0  0  0  # atno 17320 bound_to 7965
  145.1504  140.9620  143.4436 LP  0  0  0  0  0  0  0  0  0  0  0  0  # atno 17321 bound_to 7965
  140.6551  143.8616  150.6826 LP  0  0  0  0  0  0  0  0  0  0  0  0  # atno 17342 bound_to 10162
  140.1993  143.3972  152.1804 LP  0  0  0  0  0  0  0  0  0  0  0  0  # atno 17343 bound_to 10162
  157.2849  131.0614  151.2173 LP  0  0  0  0  0  0  0  0  0  0  0  0  # atno 17370 bound_to 10713
  157.3206  130.6935  149.6267 LP  0  0  0  0  0  0  0  0  0  0  0  0  # atno 17371 bound_to 10713
  141.1140  133.9570  157.2857 LP  0  0  0  0  0  0  0  0  0  0  0  0  # atno 17394 bound_to 11000
  139.9429  135.0188  156.8763 LP  0  0  0  0  0  0  0  0  0  0  0  0  # atno 17395 bound_to 11000

$$$$
