AV-unprocessed.smi:2284|AV-procd|sdf|9202|dock5
  -GOLD-   2272012413D 1   1.00000     0.00000
 Structure written by MMmdl.
 44 45  0  0  0  0  0  0  0  0  1 V2000
  151.1898  144.8441  158.4629 C   0  0  0  0  0  0  0  0  0  0  0  0
  151.8475  143.6155  159.0571 C   0  0  0  0  0  0  0  0  0  0  0  0
  152.6510  143.7231  160.2089 C   0  0  0  0  0  0  0  0  0  0  0  0
  153.2554  142.5759  160.7539 C   0  0  0  0  0  0  0  0  0  0  0  0
  153.0614  141.3155  160.1516 C   0  0  0  0  0  0  0  0  0  0  0  0
  153.7223  140.0872  160.7493 C   0  0  0  0  0  0  0  0  0  0  0  0
  152.2590  141.1942  158.9938 C   0  0  0  0  0  0  0  0  0  0  0  0
  152.1113  139.9334  158.4558 O   0  0  0  0  0  0  0  0  0  0  0  0
  151.2603  139.7680  157.3297 C   0  0  0  0  0  0  0  0  0  0  0  0
  152.1393  139.4881  156.1018 C   0  0  1  0  0  0  0  0  0  0  0  0
  153.2274  138.6976  156.5356 O   0  0  0  0  0  0  0  0  0  0  0  0
  151.3722  138.7284  154.9942 C   0  0  0  0  0  0  0  0  0  0  0  0
  150.1443  139.4346  154.5949 N   0  0  0  0  0  0  0  0  0  0  0  0
  150.2678  140.8150  154.3619 C   0  0  0  0  0  0  0  0  0  0  0  0
  149.2582  141.5351  153.9966 N   0  0  0  0  0  0  0  0  0  0  0  0
  148.0055  140.9401  153.8218 C   0  0  0  0  0  0  0  0  0  0  0  0
  146.8895  141.8759  153.3927 C   0  0  0  0  0  0  0  0  0  0  0  0
  147.8206  139.6072  154.0264 C   0  0  0  0  0  0  0  0  0  0  0  0
  146.4794  138.9054  153.8515 C   0  0  0  0  0  0  0  0  0  0  0  0
  148.9619  138.7734  154.4381 C   0  0  0  0  0  0  0  0  0  0  0  0
  148.8669  137.5600  154.6314 O   0  0  0  0  0  0  0  0  0  0  0  0
  151.6530  142.3568  158.4537 C   0  0  0  0  0  0  0  0  0  0  0  0
  151.4504  145.7450  159.0192 H   0  0  0  0  0  0  0  0  0  0  0  0
  150.1050  144.7362  158.4779 H   0  0  0  0  0  0  0  0  0  0  0  0
  151.5072  144.9792  157.4286 H   0  0  0  0  0  0  0  0  0  0  0  0
  152.8069  144.6834  160.6788 H   0  0  0  0  0  0  0  0  0  0  0  0
  153.8701  142.6684  161.6374 H   0  0  0  0  0  0  0  0  0  0  0  0
  154.3883  139.6231  160.0213 H   0  0  0  0  0  0  0  0  0  0  0  0
  152.9682  139.3553  161.0401 H   0  0  0  0  0  0  0  0  0  0  0  0
  154.3089  140.3389  161.6332 H   0  0  0  0  0  0  0  0  0  0  0  0
  150.5881  138.9260  157.5040 H   0  0  0  0  0  0  0  0  0  0  0  0
  150.6546  140.6609  157.1643 H   0  0  0  0  0  0  0  0  0  0  0  0
  152.5296  140.4364  155.7295 H   0  0  0  0  0  0  0  0  0  0  0  0
  153.0294  137.7899  156.3619 H   0  0  0  0  0  0  0  0  0  0  0  0
  152.0216  138.5241  154.1408 H   0  0  0  0  0  0  0  0  0  0  0  0
  151.0979  137.7336  155.3514 H   0  0  0  0  0  0  0  0  0  0  0  0
  151.2684  141.2274  154.5052 H   0  0  0  0  0  0  0  0  0  0  0  0
  146.0969  141.8932  154.1412 H   0  0  0  0  0  0  0  0  0  0  0  0
  146.4650  141.5537  152.4414 H   0  0  0  0  0  0  0  0  0  0  0  0
  147.2528  142.8968  153.2674 H   0  0  0  0  0  0  0  0  0  0  0  0
  146.5548  138.1405  153.0779 H   0  0  0  0  0  0  0  0  0  0  0  0
  145.6740  139.5810  153.5682 H   0  0  0  0  0  0  0  0  0  0  0  0
  146.1857  138.4184  154.7820 H   0  0  0  0  0  0  0  0  0  0  0  0
  151.0291  142.3067  157.5741 H   0  0  0  0  0  0  0  0  0  0  0  0
  1  2  1  0  0  0  0
  1 23  1  0  0  0  0
  1 24  1  0  0  0  0
  1 25  1  0  0  0  0
  2 22  1  0  0  0  0
  2  3  2  0  0  0  0
  3  4  1  0  0  0  0
  3 26  1  0  0  0  0
  4  5  2  0  0  0  0
  4 27  1  0  0  0  0
  5  6  1  0  0  0  0
  5  7  1  0  0  0  0
  6 28  1  0  0  0  0
  6 29  1  0  0  0  0
  6 30  1  0  0  0  0
  7  8  1  0  0  0  0
  7 22  2  0  0  0  0
  8  9  1  0  0  0  0
  9 10  1  0  0  0  0
  9 31  1  0  0  0  0
  9 32  1  0  0  0  0
 10 11  1  0  0  0  0
 10 12  1  0  0  0  0
 10 33  1  0  0  0  0
 11 34  1  0  0  0  0
 12 13  1  0  0  0  0
 12 35  1  0  0  0  0
 12 36  1  0  0  0  0
 13 20  1  0  0  0  0
 13 14  1  0  0  0  0
 14 15  2  0  0  0  0
 14 37  1  0  0  0  0
 15 16  1  0  0  0  0
 16 17  1  0  0  0  0
 16 18  2  0  0  0  0
 17 38  1  0  0  0  0
 17 39  1  0  0  0  0
 17 40  1  0  0  0  0
 18 19  1  0  0  0  0
 18 20  1  0  0  0  0
 19 41  1  0  0  0  0
 19 42  1  0  0  0  0
 19 43  1  0  0  0  0
 20 21  2  0  0  0  0
 22 44  1  0  0  0  0
M  END
> <s_m_source_file>
AV-unprocessed.smi

> <i_m_source_file_index>
2284

> <i_lp_mmshare_version>
43012

> <i_f3d_flags>
0

> <s_epik_input>
W0NIM11jMVtjSF1bY0hdYyhbQ0gzXSljKFtjSF0xKU9bQ0gyXVtDQEhdKFtPSF0pW0NIMl1uMltjSF1uYyhbQ0gzXSljKFtDSDNdKWMyPU8=

> <s_epik_cmdline>
J2VwaWtfcHl0aG9uJywgJy1waCcsICc3LjAnLCAnLXRuJywgJzgnLCAnLW1hJywgJzIwMCcsICctbWV0YWxfYmluZGluZycsICctaW1hZScsICc8aW5maWxlLm1hZT4nLCAnLW9tYWUnLCAnPG91dGZpbGUubWFlPic=

> <r_lp_tautomer_probability>
1

> <r_epik_Ionization_Penalty>
3.7476e-05

> <r_epik_Ionization_Penalty_Charging>
8.44705e-08

> <r_epik_Ionization_Penalty_Neutral>
3.73915e-05

> <r_epik_State_Penalty>
-0

> <r_epik_Charging_Adjusted_Penalty>
8.44705e-08

> <i_epik_Tot_Q>
0

> <i_epik_Tot_abs_Q>
0

> <r_epik_Metal_State_Penalty>
-0

> <b_epik_Metal_Only>
0

> <s_lp_Force_Field>
OPLS_2005

> <r_lp_Energy>
21.7941

> <b_lp_Chiralities_Consistent>
1

> <s_lp_Variant>
AV-unprocessed.smi:2284-2

> <Gold.Version>
5.8.1

> <Gold.Id.Protein>
6NUR|6NUR_protein|mol2

> <Gold.PLP.Fitness>
46.9654

> <Gold.PLP.PLP>
-44.1891

> <Gold.PLP.part.hbond>
-2.8278

> <Gold.PLP.part.metal>
0.0000

> <Gold.PLP.part.buried>
-3.1003

> <Gold.PLP.part.nonpolar>
-38.7016

> <Gold.PLP.part.repulsive>
0.4408

> <Gold.PLP.ligand.clash>
0.0000

> <Gold.PLP.ligand.torsion>
0.7925

> <Gold.PLP.Chemscore.Hbond>
1.4343

> <Gold.PLP.Chemscore.CHOScore>
0.0000

> <Gold.PLP.Chemscore.Metal>
0.0000

> <Gold.Chemscore.Hbonds>
donor molecule, donor type, donor heavy atom, donor atom, acceptor molecule, acceptor atom, score
      P1  H  7997  8010       L1    11  0.86
      P1  H  8011  8017       L1    15  0.67

> <Gold.PLP.Chemscore.Internal.Correction>
0.0585

> <Gold.Rescore>
     Score         DG    S(hbond)    S(metal)    S(lipo)     H(rot)  DE(clash)    DE(int)     intcor
     14.89     -17.47       1.00        0.00     124.86       2.32       1.91       0.67       ----

> <Gold.Chemscore.Fitness>
14.8919

> <Gold.Chemscore.DG>
-17.4702

> <Gold.Chemscore.ZeroCoef>
-5.4800

> <Gold.Chemscore.Hbond>
0.9971

> <Gold.Chemscore.Metal>
0.0000

> <Gold.Chemscore.Lipo>
124.8564

> <Gold.Chemscore.Internal_Hbond>
0.0000

> <Gold.Chemscore.DEClash>
1.9126

> <Gold.Chemscore.DEInternal>
0.6656

> <Gold.Chemscore.Rot>
2.3236

> <Gold.Chemscore.Internal.Correction>
   9.000000E+99

> <Gold.Chemscore.Hbonds>
donor molecule, donor type, donor heavy atom, donor atom, acceptor molecule, acceptor atom, score
      P1  H  7997  8010       L1    11  0.22
      P1  H  8011  8017       L1    15  0.27

> <Gold.Chemscore.Hbond.Weighted>
-3.3304

> <Gold.Chemscore.Metal.Weighted>
-0.0000

> <Gold.Chemscore.Lipo.Weighted>
-14.6082

> <Gold.Chemscore.Internal_Hbond.Weighted>
0.0000

> <Gold.Chemscore.DEClash.Weighted>
1.9126

> <Gold.Chemscore.DEInternal.Weighted>
0.6656

> <Gold.Chemscore.Rot.Weighted>
5.9484

> <Gold.Chemscore.Internal.Correction.Weighted>
   9.000000E+99

> <Gold.Protein.RotatedTorsions>
[ 6907 6896 6895 6894 ] final  168.17 input  -60.11 | X-H torsion
[ 7974 7965 7964 7962 ] final -157.15 input  175.53 | X-H torsion
[ 8008 7997 7996 7995 ] final   46.18 input   59.86 | X-H torsion
[ 10167 10162 10161 10158 ] final  105.75 input  -65.29 | X-H torsion
[ 10718 10713 10712 10709 ] final  -50.51 input   66.30 | X-H torsion
[ 10763 10752 10751 10750 ] final   50.19 input  -60.55 | X-H torsion
[ 11005 11000 10999 10996 ] final   27.43 input  -57.11 | X-H torsion

> <Gold.Protein.ActiveResidues>
 VAL166  LYS551  ARG553  GLY616  TRP617  ASP618  TYR619  PRO620  LYS621  CYS622 
 ASP623  PHE694  ASN695  SER759  ASP760  ASP761  ALA762  ILE779  LEU786  VAL792 
 PHE793  MET794  SER795  GLU796  ALA797  LYS798  CYS799  TRP800  GLU811  SER814 

> <Gold.Protein.RotatedAtoms>
  151.8519  133.3441  159.3675 H   0  0  0  0  0  0  0  0  0  0  0  0  # atno 6907 bound_to 6896
  150.7204  134.5291  159.5700 H   0  0  0  0  0  0  0  0  0  0  0  0  # atno 6908 bound_to 6896
  152.2786  134.7854  160.0452 H   0  0  0  0  0  0  0  0  0  0  0  0  # atno 6909 bound_to 6896
  144.7561  140.4009  143.6011 H   0  0  0  0  0  0  0  0  0  0  0  0  # atno 7974 bound_to 7965
  155.3482  140.3412  155.4239 H   0  0  0  0  0  0  0  0  0  0  0  0  # atno 8008 bound_to 7997
  156.1778  140.1653  156.8366 H   0  0  0  0  0  0  0  0  0  0  0  0  # atno 8009 bound_to 7997
  154.5300  140.0747  156.8311 H   0  0  0  0  0  0  0  0  0  0  0  0  # atno 8010 bound_to 7997
  139.7066  144.7085  151.1096 H   0  0  0  0  0  0  0  0  0  0  0  0  # atno 10167 bound_to 10162
  156.1794  130.4150  149.9529 H   0  0  0  0  0  0  0  0  0  0  0  0  # atno 10718 bound_to 10713
  152.9785  135.5887  154.4211 H   0  0  0  0  0  0  0  0  0  0  0  0  # atno 10763 bound_to 10752
  154.3836  135.2767  155.2199 H   0  0  0  0  0  0  0  0  0  0  0  0  # atno 10764 bound_to 10752
  154.4102  135.6083  153.6002 H   0  0  0  0  0  0  0  0  0  0  0  0  # atno 10765 bound_to 10752
  140.3263  134.2487  155.7709 H   0  0  0  0  0  0  0  0  0  0  0  0  # atno 11005 bound_to 11000
  145.6776  139.1612  143.2719 LP  0  0  0  0  0  0  0  0  0  0  0  0  # atno 17320 bound_to 7965
  146.1572  140.6841  142.9294 LP  0  0  0  0  0  0  0  0  0  0  0  0  # atno 17321 bound_to 7965
  140.7723  143.5350  150.9379 LP  0  0  0  0  0  0  0  0  0  0  0  0  # atno 17342 bound_to 10162
  139.9034  143.6808  152.3127 LP  0  0  0  0  0  0  0  0  0  0  0  0  # atno 17343 bound_to 10162
  156.7304  130.9041  151.3625 LP  0  0  0  0  0  0  0  0  0  0  0  0  # atno 17370 bound_to 10713
  157.6858  130.9184  150.0382 LP  0  0  0  0  0  0  0  0  0  0  0  0  # atno 17371 bound_to 10713
  141.2074  133.7806  157.0119 LP  0  0  0  0  0  0  0  0  0  0  0  0  # atno 17394 bound_to 11000
  140.0898  134.9599  157.1759 LP  0  0  0  0  0  0  0  0  0  0  0  0  # atno 17395 bound_to 11000

$$$$
