AV-unprocessed.smi:148|AV-procd|sdf|1212|dock1
  -GOLD-   2262018393D 1   1.00000     0.00000
 Structure written by MMmdl.
 63 67  0  0  0  0  0  0  0  0  1 V2000
  146.9130  137.5935  160.1689 O   0  0  0  0  0  0  0  0  0  0  0  0
  148.1243  136.8677  160.2189 C   0  0  0  0  0  0  0  0  0  0  0  0
  147.8799  135.3844  160.6005 C   0  0  2  0  0  0  0  0  0  0  0  0
  146.9313  134.6905  159.5861 C   0  0  0  0  0  0  0  0  0  0  0  0
  147.6391  133.9056  158.5895 N   0  0  0  0  0  0  0  0  0  0  0  0
  148.8200  134.2446  157.9693 C   0  0  0  0  0  0  0  0  0  0  0  0
  149.2577  133.3798  157.0955 N   0  0  0  0  0  0  0  0  0  0  0  0
  148.3091  132.3643  157.1217 C   0  0  0  0  0  0  0  0  0  0  0  0
  148.1540  131.1290  156.4312 C   0  0  0  0  0  0  0  0  0  0  0  0
  149.0028  130.6625  155.4895 N   0  0  0  0  0  0  0  0  0  0  0  0
  150.2649  130.2980  156.1379 C   0  0  0  0  0  0  0  0  0  0  0  0
  151.3637  130.0056  155.1130 C   0  0  0  0  0  0  0  0  0  0  0  0
  150.8925  128.9178  154.1485 C   0  0  0  0  0  0  0  0  0  0  0  0
  149.5788  129.3490  153.4859 C   0  0  0  0  0  0  0  0  0  0  0  0
  148.4653  129.6877  154.5158 C   0  0  2  0  0  0  0  0  0  0  0  0
  147.1761  130.1807  153.7698 C   0  0  2  0  0  0  0  0  0  0  0  0
  146.8055  129.4675  152.4509 C   0  0  0  0  0  0  0  0  0  0  0  0
  145.9465  130.4447  151.6352 C   0  0  0  0  0  0  0  0  0  0  0  0
  145.9889  131.7791  152.3843 C   0  0  0  0  0  0  0  0  0  0  0  0
  147.1736  131.6646  153.3443 C   0  0  2  0  0  0  0  0  0  0  0  0
  148.3568  132.0035  152.6418 O   0  0  0  0  0  0  0  0  0  0  0  0
  147.0616  130.3752  156.7086 N   0  0  0  0  0  0  0  0  0  0  0  0
  146.1803  130.7910  157.6233 C   0  0  0  0  0  0  0  0  0  0  0  0
  146.1969  131.9096  158.3518 N   0  0  0  0  0  0  0  0  0  0  0  0
  147.2879  132.6754  158.0623 C   0  0  0  0  0  0  0  0  0  0  0  0
  147.3872  135.1959  162.0684 C   0  0  2  0  0  0  0  0  0  0  0  0
  147.3685  133.7572  162.5747 C   0  0  0  0  0  0  0  0  0  0  0  0
  146.0458  133.2102  162.0427 C   0  0  0  0  0  0  0  0  0  0  0  0
  145.1982  134.3425  161.8805 O   0  0  0  0  0  0  0  0  0  0  0  0
  145.8989  135.5205  162.2621 C   0  0  0  0  0  0  0  0  0  0  0  0
  146.2542  137.1134  160.6471 H   0  0  0  0  0  0  0  0  0  0  0  0
  148.6169  136.9500  159.2506 H   0  0  0  0  0  0  0  0  0  0  0  0
  148.8015  137.3542  160.9187 H   0  0  0  0  0  0  0  0  0  0  0  0
  148.8477  134.8876  160.5183 H   0  0  0  0  0  0  0  0  0  0  0  0
  146.2376  134.0162  160.0840 H   0  0  0  0  0  0  0  0  0  0  0  0
  146.3161  135.4321  159.0753 H   0  0  0  0  0  0  0  0  0  0  0  0
  149.3459  135.1638  158.1829 H   0  0  0  0  0  0  0  0  0  0  0  0
  150.5944  131.1038  156.7962 H   0  0  0  0  0  0  0  0  0  0  0  0
  150.1128  129.4189  156.7658 H   0  0  0  0  0  0  0  0  0  0  0  0
  151.6084  130.9142  154.5608 H   0  0  0  0  0  0  0  0  0  0  0  0
  152.2756  129.6904  155.6207 H   0  0  0  0  0  0  0  0  0  0  0  0
  151.6539  128.7300  153.3910 H   0  0  0  0  0  0  0  0  0  0  0  0
  150.7460  127.9810  154.6873 H   0  0  0  0  0  0  0  0  0  0  0  0
  149.7662  130.2176  152.8529 H   0  0  0  0  0  0  0  0  0  0  0  0
  149.2668  128.5461  152.8197 H   0  0  0  0  0  0  0  0  0  0  0  0
  148.2247  128.7718  155.0564 H   0  0  0  0  0  0  0  0  0  0  0  0
  146.3345  130.0539  154.4532 H   0  0  0  0  0  0  0  0  0  0  0  0
  147.7080  129.2289  151.8870 H   0  0  0  0  0  0  0  0  0  0  0  0
  146.2642  128.5369  152.6159 H   0  0  0  0  0  0  0  0  0  0  0  0
  146.3558  130.5525  150.6302 H   0  0  0  0  0  0  0  0  0  0  0  0
  144.9204  130.0901  151.5339 H   0  0  0  0  0  0  0  0  0  0  0  0
  146.0586  132.6381  151.7159 H   0  0  0  0  0  0  0  0  0  0  0  0
  145.0705  131.8927  152.9620 H   0  0  0  0  0  0  0  0  0  0  0  0
  147.0542  132.3398  154.1921 H   0  0  0  0  0  0  0  0  0  0  0  0
  148.3480  131.5598  151.8076 H   0  0  0  0  0  0  0  0  0  0  0  0
  145.3401  130.1344  157.7954 H   0  0  0  0  0  0  0  0  0  0  0  0
  147.9994  135.8151  162.7255 H   0  0  0  0  0  0  0  0  0  0  0  0
  148.2271  133.1480  162.3001 H   0  0  0  0  0  0  0  0  0  0  0  0
  147.3342  133.7674  163.6654 H   0  0  0  0  0  0  0  0  0  0  0  0
  146.1854  132.7348  161.0712 H   0  0  0  0  0  0  0  0  0  0  0  0
  145.6045  132.4778  162.7189 H   0  0  0  0  0  0  0  0  0  0  0  0
  145.6953  135.7106  163.3171 H   0  0  0  0  0  0  0  0  0  0  0  0
  145.5402  136.3851  161.7075 H   0  0  0  0  0  0  0  0  0  0  0  0
  1  2  1  0  0  0  0
  1 31  1  0  0  0  0
  2  3  1  0  0  0  0
  2 32  1  0  0  0  0
  2 33  1  0  0  0  0
  3  4  1  0  0  0  0
  3 26  1  0  0  0  0
  3 34  1  0  0  0  0
  4  5  1  0  0  0  0
  4 35  1  0  0  0  0
  4 36  1  0  0  0  0
  5 25  1  0  0  0  0
  5  6  1  0  0  0  0
  6  7  2  0  0  0  0
  6 37  1  0  0  0  0
  7  8  1  0  0  0  0
  8 25  2  0  0  0  0
  8  9  1  0  0  0  0
  9 10  1  0  0  0  0
  9 22  2  0  0  0  0
 10 15  1  0  0  0  0
 10 11  1  0  0  0  0
 11 12  1  0  0  0  0
 11 38  1  0  0  0  0
 11 39  1  0  0  0  0
 12 13  1  0  0  0  0
 12 40  1  0  0  0  0
 12 41  1  0  0  0  0
 13 14  1  0  0  0  0
 13 42  1  0  0  0  0
 13 43  1  0  0  0  0
 14 15  1  0  0  0  0
 14 44  1  0  0  0  0
 14 45  1  0  0  0  0
 15 16  1  0  0  0  0
 15 46  1  0  0  0  0
 16 20  1  0  0  0  0
 16 17  1  0  0  0  0
 16 47  1  0  0  0  0
 17 18  1  0  0  0  0
 17 48  1  0  0  0  0
 17 49  1  0  0  0  0
 18 19  1  0  0  0  0
 18 50  1  0  0  0  0
 18 51  1  0  0  0  0
 19 20  1  0  0  0  0
 19 52  1  0  0  0  0
 19 53  1  0  0  0  0
 20 21  1  0  0  0  0
 20 54  1  0  0  0  0
 21 55  1  0  0  0  0
 22 23  1  0  0  0  0
 23 24  2  0  0  0  0
 23 56  1  0  0  0  0
 24 25  1  0  0  0  0
 26 30  1  0  0  0  0
 26 27  1  0  0  0  0
 26 57  1  0  0  0  0
 27 28  1  0  0  0  0
 27 58  1  0  0  0  0
 27 59  1  0  0  0  0
 28 29  1  0  0  0  0
 28 60  1  0  0  0  0
 28 61  1  0  0  0  0
 29 30  1  0  0  0  0
 30 62  1  0  0  0  0
 30 63  1  0  0  0  0
M  END
> <s_m_source_file>
AV-unprocessed.smi

> <i_m_source_file_index>
148

> <i_lp_mmshare_version>
43012

> <i_f3d_flags>
0

> <s_epik_input>
W0NIMl0xT1tDSDJdW0NIMl1bQ0BIXTFbQ0BIXShbQ0gyXVtPSF0pW0NIMl1uKFtjSF1uMiljKGMyMyluW2NIXW5jM040W0NIMl1bQ0gyXVtDSDJdW0NIMl1bQ0BIXTRbQ0BASF01W0NIMl1bQ0gyXVtDSDJdW0NASF01W09IXQ==

> <s_epik_cmdline>
J2VwaWtfcHl0aG9uJywgJy1waCcsICc3LjAnLCAnLXRuJywgJzgnLCAnLW1hJywgJzIwMCcsICctbWV0YWxfYmluZGluZycsICctaW1hZScsICc8aW5maWxlLm1hZT4nLCAnLW9tYWUnLCAnPG91dGZpbGUubWFlPic=

> <r_lp_tautomer_probability>
1

> <r_epik_Ionization_Penalty>
0.00556303

> <r_epik_Ionization_Penalty_Charging>
0

> <r_epik_Ionization_Penalty_Neutral>
0.00556303

> <r_epik_State_Penalty>
0.00401767

> <r_epik_Charging_Adjusted_Penalty>
0.00401767

> <i_epik_Tot_Q>
0

> <i_epik_Tot_abs_Q>
0

> <r_epik_Metal_State_Penalty>
-0

> <b_epik_Metal_Only>
0

> <s_lp_Force_Field>
OPLS_2005

> <r_lp_Energy>
72.8369

> <b_lp_Chiralities_Consistent>
1

> <s_lp_Variant>
AV-unprocessed.smi:148-11

> <Gold.Version>
5.8.1

> <Gold.Id.Protein>
6NUR|6NUR_protein|mol2

> <Gold.PLP.Fitness>
39.9911

> <Gold.PLP.PLP>
-36.5323

> <Gold.PLP.part.hbond>
-2.0000

> <Gold.PLP.part.metal>
0.0000

> <Gold.PLP.part.buried>
-3.4532

> <Gold.PLP.part.nonpolar>
-31.0641

> <Gold.PLP.part.repulsive>
0.0466

> <Gold.PLP.ligand.clash>
0.0000

> <Gold.PLP.ligand.torsion>
1.8294

> <Gold.PLP.Chemscore.Hbond>
1.9920

> <Gold.PLP.Chemscore.CHOScore>
0.0000

> <Gold.PLP.Chemscore.Metal>
0.0000

> <Gold.Chemscore.Hbonds>
donor molecule, donor type, donor heavy atom, donor atom, acceptor molecule, acceptor atom, score
      L1  H    21    55       P1 10747  1.00
      P1  H  6934  6947       L1     1  1.00

> <Gold.PLP.Chemscore.Internal.Correction>
1.1416

> <Gold.Rescore>
     Score         DG    S(hbond)    S(metal)    S(lipo)     H(rot)  DE(clash)    DE(int)     intcor
      9.37     -15.44       1.95        0.00     102.08       3.32       0.09       5.99       ----

> <Gold.Chemscore.Fitness>
9.3701

> <Gold.Chemscore.DG>
-15.4433

> <Gold.Chemscore.ZeroCoef>
-5.4800

> <Gold.Chemscore.Hbond>
1.9519

> <Gold.Chemscore.Metal>
0.0000

> <Gold.Chemscore.Lipo>
102.0842

> <Gold.Chemscore.Internal_Hbond>
0.0000

> <Gold.Chemscore.DEClash>
0.0871

> <Gold.Chemscore.DEInternal>
5.9861

> <Gold.Chemscore.Rot>
3.3203

> <Gold.Chemscore.Internal.Correction>
   9.000000E+99

> <Gold.Chemscore.Hbonds>
donor molecule, donor type, donor heavy atom, donor atom, acceptor molecule, acceptor atom, score
      L1  H    21    55       P1 10747  0.99
      P1  H  6934  6947       L1     1  0.45

> <Gold.Chemscore.Hbond.Weighted>
-6.5194

> <Gold.Chemscore.Metal.Weighted>
-0.0000

> <Gold.Chemscore.Lipo.Weighted>
-11.9439

> <Gold.Chemscore.Internal_Hbond.Weighted>
0.0000

> <Gold.Chemscore.DEClash.Weighted>
0.0871

> <Gold.Chemscore.DEInternal.Weighted>
5.9861

> <Gold.Chemscore.Rot.Weighted>
8.5000

> <Gold.Chemscore.Internal.Correction.Weighted>
   9.000000E+99

> <Gold.Protein.RotatedTorsions>
[ 6907 6896 6895 6894 ] final -145.43 input  -60.11 | X-H torsion
[ 7974 7965 7964 7962 ] final -145.77 input  175.53 | X-H torsion
[ 8008 7997 7996 7995 ] final    7.98 input   59.86 | X-H torsion
[ 10167 10162 10161 10158 ] final -109.16 input  -65.29 | X-H torsion
[ 10718 10713 10712 10709 ] final -157.87 input   66.30 | X-H torsion
[ 10763 10752 10751 10750 ] final   56.25 input  -60.55 | X-H torsion
[ 11005 11000 10999 10996 ] final   24.15 input  -57.11 | X-H torsion

> <Gold.Protein.ActiveResidues>
 VAL166  LYS551  ARG553  GLY616  TRP617  ASP618  TYR619  PRO620  LYS621  CYS622 
 ASP623  PHE694  ASN695  SER759  ASP760  ASP761  ALA762  ILE779  LEU786  VAL792 
 PHE793  MET794  SER795  GLU796  ALA797  LYS798  CYS799  TRP800  GLU811  SER814 

> <Gold.Protein.RotatedAtoms>
  151.1277  133.5059  159.2599 H   0  0  0  0  0  0  0  0  0  0  0  0  # atno 6907 bound_to 6896
  151.1792  135.0353  159.8795 H   0  0  0  0  0  0  0  0  0  0  0  0  # atno 6908 bound_to 6896
  152.5458  134.1131  159.8420 H   0  0  0  0  0  0  0  0  0  0  0  0  # atno 6909 bound_to 6896
  144.8205  140.5541  143.5582 H   0  0  0  0  0  0  0  0  0  0  0  0  # atno 7974 bound_to 7965
  154.7608  140.2784  155.6216 H   0  0  0  0  0  0  0  0  0  0  0  0  # atno 8008 bound_to 7997
  156.2915  140.2660  156.2313 H   0  0  0  0  0  0  0  0  0  0  0  0  # atno 8009 bound_to 7997
  155.0020  140.0372  157.2353 H   0  0  0  0  0  0  0  0  0  0  0  0  # atno 8010 bound_to 7997
  140.1583  143.4142  152.1445 H   0  0  0  0  0  0  0  0  0  0  0  0  # atno 10167 bound_to 10162
  156.5463  130.8585  151.2765 H   0  0  0  0  0  0  0  0  0  0  0  0  # atno 10718 bound_to 10713
  152.9829  135.5683  154.5198 H   0  0  0  0  0  0  0  0  0  0  0  0  # atno 10763 bound_to 10752
  154.4688  135.2784  155.1660 H   0  0  0  0  0  0  0  0  0  0  0  0  # atno 10764 bound_to 10752
  154.3217  135.6267  153.5564 H   0  0  0  0  0  0  0  0  0  0  0  0  # atno 10765 bound_to 10752
  140.3618  134.2117  155.7672 H   0  0  0  0  0  0  0  0  0  0  0  0  # atno 11005 bound_to 11000
  145.5117  139.1479  143.3601 LP  0  0  0  0  0  0  0  0  0  0  0  0  # atno 17320 bound_to 7965
  146.2510  140.5257  142.8893 LP  0  0  0  0  0  0  0  0  0  0  0  0  # atno 17321 bound_to 7965
  139.5393  144.7241  151.4787 LP  0  0  0  0  0  0  0  0  0  0  0  0  # atno 17342 bound_to 10162
  140.6659  143.8398  150.6941 LP  0  0  0  0  0  0  0  0  0  0  0  0  # atno 17343 bound_to 10162
  157.7396  130.9834  150.2323 LP  0  0  0  0  0  0  0  0  0  0  0  0  # atno 17370 bound_to 10713
  156.2925  130.3747  149.7827 LP  0  0  0  0  0  0  0  0  0  0  0  0  # atno 17371 bound_to 10713
  141.1981  133.8042  157.0595 LP  0  0  0  0  0  0  0  0  0  0  0  0  # atno 17394 bound_to 11000
  140.0620  134.9749  157.1321 LP  0  0  0  0  0  0  0  0  0  0  0  0  # atno 17395 bound_to 11000

$$$$
