AV-unprocessed.smi:152|AV-procd|sdf|1246|dock2
  -GOLD-   2262018473D 1   1.00000     0.00000
 Structure written by MMmdl.
 58 61  0  0  0  0  0  0  0  0  2 V2000
  152.3386  145.4125  158.5093 C   0  0  0  0  0  0  0  0  0  0  0  0
  151.4231  145.0374  159.6831 C   0  0  0  0  0  0  0  0  0  0  0  0
  151.3720  143.5741  159.9374 N   0  3  2  0  0  0  0  0  0  0  0  0
  152.4131  143.1242  160.8930 C   0  0  0  0  0  0  0  0  0  0  0  0
  153.3910  142.2704  160.0928 C   0  0  0  0  0  0  0  0  0  0  0  0
  152.4875  141.6229  159.0577 C   0  0  0  0  0  0  0  0  0  0  0  0
  151.4719  142.7251  158.7178 C   0  0  1  0  0  0  0  0  0  0  0  0
  150.0883  142.1730  158.3072 C   0  0  0  0  0  0  0  0  0  0  0  0
  150.1093  141.4344  157.0443 N   0  0  0  0  0  0  0  0  0  0  0  0
  150.6398  142.1227  155.8705 C   0  0  0  0  0  0  0  0  0  0  0  0
  150.1916  140.0763  157.0819 C   0  0  0  0  0  0  0  0  0  0  0  0
  150.0117  139.4391  158.2702 N   0  0  0  0  0  0  0  0  0  0  0  0
  150.0629  138.1064  158.3435 C   0  0  0  0  0  0  0  0  0  0  0  0
  150.2818  137.2267  157.3661 N   0  0  0  0  0  0  0  0  0  0  0  0
  150.4769  137.8544  156.1719 C   0  0  0  0  0  0  0  0  0  0  0  0
  150.4496  139.2602  155.9410 C   0  0  0  0  0  0  0  0  0  0  0  0
  150.7036  139.5155  154.5978 N   0  0  0  0  0  0  0  0  0  0  0  0
  150.8620  138.3342  154.0670 C   0  0  0  0  0  0  0  0  0  0  0  0
  150.7485  137.2797  154.9429 N   0  0  0  0  0  0  0  0  0  0  0  0
  150.8858  135.8662  154.6260 C   0  0  0  0  0  0  0  0  0  0  0  0
  149.6034  135.0380  154.8874 C   0  0  0  0  0  0  0  0  0  0  0  0
  148.4999  135.7949  154.4195 O   0  0  0  0  0  0  0  0  0  0  0  0
  149.6112  133.6800  154.1518 C   0  0  0  0  0  0  0  0  0  0  0  0
  148.4346  132.7840  154.5781 C   0  0  0  0  0  0  0  0  0  0  0  0
  148.4346  132.6133  155.9904 O   0  0  0  0  0  0  0  0  0  0  0  0
  148.2504  133.8364  156.6931 C   0  0  0  0  0  0  0  0  0  0  0  0
  149.4188  134.7937  156.3986 C   0  0  0  0  0  0  0  0  0  0  0  0
  152.2778  146.4810  158.3029 H   0  0  0  0  0  0  0  0  0  0  0  0
  152.0522  144.8846  157.5993 H   0  0  0  0  0  0  0  0  0  0  0  0
  153.3831  145.1841  158.7213 H   0  0  0  0  0  0  0  0  0  0  0  0
  151.7324  145.5626  160.5881 H   0  0  0  0  0  0  0  0  0  0  0  0
  150.4161  145.3856  159.4501 H   0  0  0  0  0  0  0  0  0  0  0  0
  152.9146  143.9428  161.4116 H   0  0  0  0  0  0  0  0  0  0  0  0
  151.9266  142.5100  161.6514 H   0  0  0  0  0  0  0  0  0  0  0  0
  154.1281  142.9056  159.6002 H   0  0  0  0  0  0  0  0  0  0  0  0
  153.9231  141.5445  160.7084 H   0  0  0  0  0  0  0  0  0  0  0  0
  153.0358  141.2687  158.1842 H   0  0  0  0  0  0  0  0  0  0  0  0
  151.9859  140.7649  159.5077 H   0  0  0  0  0  0  0  0  0  0  0  0
  151.8887  143.3283  157.9094 H   0  0  0  0  0  0  0  0  0  0  0  0
  149.6686  141.5803  159.1165 H   0  0  0  0  0  0  0  0  0  0  0  0
  149.3895  142.9989  158.1797 H   0  0  0  0  0  0  0  0  0  0  0  0
  150.2561  141.6760  154.9526 H   0  0  0  0  0  0  0  0  0  0  0  0
  151.7290  142.0755  155.8503 H   0  0  0  0  0  0  0  0  0  0  0  0
  150.3467  143.1727  155.8744 H   0  0  0  0  0  0  0  0  0  0  0  0
  149.9051  137.6850  159.3256 H   0  0  0  0  0  0  0  0  0  0  0  0
  151.0759  138.1981  153.0168 H   0  0  0  0  0  0  0  0  0  0  0  0
  151.1775  135.7813  153.5785 H   0  0  0  0  0  0  0  0  0  0  0  0
  151.7199  135.4666  155.2046 H   0  0  0  0  0  0  0  0  0  0  0  0
  148.5802  135.8946  153.4830 H   0  0  0  0  0  0  0  0  0  0  0  0
  149.5896  133.8214  153.0704 H   0  0  0  0  0  0  0  0  0  0  0  0
  150.5425  133.1574  154.3738 H   0  0  0  0  0  0  0  0  0  0  0  0
  147.4819  133.2038  154.2517 H   0  0  0  0  0  0  0  0  0  0  0  0
  148.5238  131.8049  154.1073 H   0  0  0  0  0  0  0  0  0  0  0  0
  147.2942  134.2858  156.4216 H   0  0  0  0  0  0  0  0  0  0  0  0
  148.2053  133.6225  157.7610 H   0  0  0  0  0  0  0  0  0  0  0  0
  150.3313  134.3571  156.8068 H   0  0  0  0  0  0  0  0  0  0  0  0
  149.2714  135.7379  156.9247 H   0  0  0  0  0  0  0  0  0  0  0  0
  150.4819  143.3791  160.3732 H   0  0  0  0  0  0  0  0  0  0  0  0
  1  2  1  0  0  0  0
  1 28  1  0  0  0  0
  1 29  1  0  0  0  0
  1 30  1  0  0  0  0
  2  3  1  0  0  0  0
  2 31  1  0  0  0  0
  2 32  1  0  0  0  0
  3  7  1  0  0  0  0
  3  4  1  0  0  0  0
  3 58  1  0  0  0  0
  4  5  1  0  0  0  0
  4 33  1  0  0  0  0
  4 34  1  0  0  0  0
  5  6  1  0  0  0  0
  5 35  1  0  0  0  0
  5 36  1  0  0  0  0
  6  7  1  0  0  0  0
  6 37  1  0  0  0  0
  6 38  1  0  0  0  0
  7  8  1  0  0  0  0
  7 39  1  0  0  0  0
  8  9  1  0  0  0  0
  8 40  1  0  0  0  0
  8 41  1  0  0  0  0
  9 10  1  0  0  0  0
  9 11  1  0  0  0  0
 10 42  1  0  0  0  0
 10 43  1  0  0  0  0
 10 44  1  0  0  0  0
 11 16  1  0  0  0  0
 11 12  2  0  0  0  0
 12 13  1  0  0  0  0
 13 14  2  0  0  0  0
 13 45  1  0  0  0  0
 14 15  1  0  0  0  0
 15 19  1  0  0  0  0
 15 16  2  0  0  0  0
 16 17  1  0  0  0  0
 17 18  2  0  0  0  0
 18 19  1  0  0  0  0
 18 46  1  0  0  0  0
 19 20  1  0  0  0  0
 20 21  1  0  0  0  0
 20 47  1  0  0  0  0
 20 48  1  0  0  0  0
 21 27  1  0  0  0  0
 21 22  1  0  0  0  0
 21 23  1  0  0  0  0
 22 49  1  0  0  0  0
 23 24  1  0  0  0  0
 23 50  1  0  0  0  0
 23 51  1  0  0  0  0
 24 25  1  0  0  0  0
 24 52  1  0  0  0  0
 24 53  1  0  0  0  0
 25 26  1  0  0  0  0
 26 27  1  0  0  0  0
 26 54  1  0  0  0  0
 26 55  1  0  0  0  0
 27 56  1  0  0  0  0
 27 57  1  0  0  0  0
M  CHG  1   3   1
M  END
> <s_m_source_file>
AV-unprocessed.smi

> <i_m_source_file_index>
152

> <i_lp_mmshare_version>
43012

> <i_f3d_flags>
0

> <s_epik_input>
W0NIM11bQ0gyXU4xW0NIMl1bQ0gyXVtDSDJdW0NASF0xW0NIMl1OKFtDSDNdKWMobltjSF1uMiljKGMyMyluW2NIXW4zW0NIMl1DNChbT0hdKVtDSDJdW0NIMl1PW0NIMl1bQ0gyXTQ=

> <s_epik_cmdline>
J2VwaWtfcHl0aG9uJywgJy1waCcsICc3LjAnLCAnLXRuJywgJzgnLCAnLW1hJywgJzIwMCcsICctbWV0YWxfYmluZGluZycsICctaW1hZScsICc8aW5maWxlLm1hZT4nLCAnLW9tYWUnLCAnPG91dGZpbGUubWFlPic=

> <r_lp_tautomer_probability>
1

> <r_epik_Ionization_Penalty>
0.00152183

> <r_epik_Ionization_Penalty_Charging>
0.00112577

> <r_epik_Ionization_Penalty_Neutral>
0.000396066

> <r_epik_State_Penalty>
-0

> <r_epik_Charging_Adjusted_Penalty>
0.00112577

> <i_epik_Tot_Q>
1

> <i_epik_Tot_abs_Q>
1

> <r_epik_Metal_State_Penalty>
-0

> <b_epik_Metal_Only>
0

> <s_lp_Force_Field>
OPLS_2005

> <r_lp_Energy>
43.1926

> <b_lp_Chiralities_Consistent>
1

> <s_lp_Variant>
AV-unprocessed.smi:152-1

> <Gold.Version>
5.8.1

> <Gold.Id.Protein>
6NUR|6NUR_protein|mol2

> <Gold.PLP.Fitness>
49.5689

> <Gold.PLP.PLP>
-42.3249

> <Gold.PLP.part.hbond>
-1.9528

> <Gold.PLP.part.metal>
0.0000

> <Gold.PLP.part.buried>
-6.0123

> <Gold.PLP.part.nonpolar>
-33.1346

> <Gold.PLP.part.repulsive>
0.1866

> <Gold.PLP.ligand.clash>
0.0000

> <Gold.PLP.ligand.torsion>
0.8230

> <Gold.PLP.Chemscore.Hbond>
1.9913

> <Gold.PLP.Chemscore.CHOScore>
0.7716

> <Gold.PLP.Chemscore.Metal>
0.0000

> <Gold.Chemscore.Hbonds>
donor molecule, donor type, donor heavy atom, donor atom, acceptor molecule, acceptor atom, score
      L1  H    22    49       P1  7948  1.00
      P1  H  7989  7998       L1    17  1.00
      L1  C    18    46       P1  7949  0.63

> <Gold.PLP.Chemscore.Internal.Correction>
0.6015

> <Gold.Rescore>
     Score         DG    S(hbond)    S(metal)    S(lipo)     H(rot)  DE(clash)    DE(int)     intcor
     14.20     -17.82       1.80        0.00     107.82       2.46       0.23       3.38       ----

> <Gold.Chemscore.Fitness>
14.2031

> <Gold.Chemscore.DG>
-17.8176

> <Gold.Chemscore.ZeroCoef>
-5.4800

> <Gold.Chemscore.Hbond>
1.8036

> <Gold.Chemscore.Metal>
0.0000

> <Gold.Chemscore.Lipo>
107.8182

> <Gold.Chemscore.Internal_Hbond>
0.0000

> <Gold.Chemscore.DEClash>
0.2300

> <Gold.Chemscore.DEInternal>
3.3845

> <Gold.Chemscore.Rot>
2.4614

> <Gold.Chemscore.Internal.Correction>
   9.000000E+99

> <Gold.Chemscore.Hbonds>
donor molecule, donor type, donor heavy atom, donor atom, acceptor molecule, acceptor atom, score
      L1  H    22    49       P1  7948  1.00
      P1  H  7989  7998       L1    17  0.68

> <Gold.Chemscore.Hbond.Weighted>
-6.0240

> <Gold.Chemscore.Metal.Weighted>
-0.0000

> <Gold.Chemscore.Lipo.Weighted>
-12.6147

> <Gold.Chemscore.Internal_Hbond.Weighted>
0.0000

> <Gold.Chemscore.DEClash.Weighted>
0.2300

> <Gold.Chemscore.DEInternal.Weighted>
3.3845

> <Gold.Chemscore.Rot.Weighted>
6.3012

> <Gold.Chemscore.Internal.Correction.Weighted>
   9.000000E+99

> <Gold.Protein.RotatedTorsions>
[ 6907 6896 6895 6894 ] final -113.64 input  -60.11 | X-H torsion
[ 7974 7965 7964 7962 ] final   40.46 input  175.53 | X-H torsion
[ 8008 7997 7996 7995 ] final   75.39 input   59.86 | X-H torsion
[ 10167 10162 10161 10158 ] final -104.58 input  -65.29 | X-H torsion
[ 10718 10713 10712 10709 ] final  -35.08 input   66.30 | X-H torsion
[ 10763 10752 10751 10750 ] final  119.44 input  -60.55 | X-H torsion
[ 11005 11000 10999 10996 ] final   46.71 input  -57.11 | X-H torsion

> <Gold.Protein.ActiveResidues>
 VAL166  LYS551  ARG553  GLY616  TRP617  ASP618  TYR619  PRO620  LYS621  CYS622 
 ASP623  PHE694  ASN695  SER759  ASP760  ASP761  ALA762  ILE779  LEU786  VAL792 
 PHE793  MET794  SER795  GLU796  ALA797  LYS798  CYS799  TRP800  GLU811  SER814 

> <Gold.Protein.RotatedAtoms>
  150.7843  133.8916  159.3314 H   0  0  0  0  0  0  0  0  0  0  0  0  # atno 6907 bound_to 6896
  151.6771  135.0965  160.0218 H   0  0  0  0  0  0  0  0  0  0  0  0  # atno 6908 bound_to 6896
  152.3903  133.6631  159.6268 H   0  0  0  0  0  0  0  0  0  0  0  0  # atno 6909 bound_to 6896
  146.0903  139.5531  142.9480 H   0  0  0  0  0  0  0  0  0  0  0  0  # atno 7974 bound_to 7965
  155.8123  140.3473  155.5465 H   0  0  0  0  0  0  0  0  0  0  0  0  # atno 8008 bound_to 7997
  155.8428  140.0944  157.1744 H   0  0  0  0  0  0  0  0  0  0  0  0  # atno 8009 bound_to 7997
  154.4005  140.1391  156.3737 H   0  0  0  0  0  0  0  0  0  0  0  0  # atno 8010 bound_to 7997
  140.2078  143.3769  152.1076 H   0  0  0  0  0  0  0  0  0  0  0  0  # atno 10167 bound_to 10162
  156.3429  130.4296  149.7771 H   0  0  0  0  0  0  0  0  0  0  0  0  # atno 10718 bound_to 10713
  153.5830  135.3480  155.2882 H   0  0  0  0  0  0  0  0  0  0  0  0  # atno 10763 bound_to 10752
  154.8665  135.4186  154.2599 H   0  0  0  0  0  0  0  0  0  0  0  0  # atno 10764 bound_to 10752
  153.3390  135.7049  153.6953 H   0  0  0  0  0  0  0  0  0  0  0  0  # atno 10765 bound_to 10752
  140.1344  134.4664  155.8497 H   0  0  0  0  0  0  0  0  0  0  0  0  # atno 11005 bound_to 11000
  145.6051  141.0349  143.1997 LP  0  0  0  0  0  0  0  0  0  0  0  0  # atno 17320 bound_to 7965
  144.7355  139.7598  143.7331 LP  0  0  0  0  0  0  0  0  0  0  0  0  # atno 17321 bound_to 7965
  139.5192  144.7016  151.5477 LP  0  0  0  0  0  0  0  0  0  0  0  0  # atno 17342 bound_to 10162
  140.6345  143.9011  150.6635 LP  0  0  0  0  0  0  0  0  0  0  0  0  # atno 17343 bound_to 10162
  156.5001  130.8124  151.3129 LP  0  0  0  0  0  0  0  0  0  0  0  0  # atno 17370 bound_to 10713
  157.7449  130.9947  150.2719 LP  0  0  0  0  0  0  0  0  0  0  0  0  # atno 17371 bound_to 10713
  141.2176  133.6808  156.7129 LP  0  0  0  0  0  0  0  0  0  0  0  0  # atno 17394 bound_to 11000
  140.2801  134.8323  157.3926 LP  0  0  0  0  0  0  0  0  0  0  0  0  # atno 17395 bound_to 11000

$$$$
