AV-unprocessed.smi:774|AV-procd|sdf|3691|dock1
  -GOLD-   22720 1113D 1   1.00000     0.00000
 Structure written by MMmdl.
 37 38  0  0  0  0  0  0  0  0  1 V2000
  147.1989  123.6868  149.3433 C   0  0  0  0  0  0  0  0  0  0  0  0
  148.1660  123.7986  150.5249 C   0  0  0  0  0  0  0  0  0  0  0  0
  149.6343  124.7686  150.0885 S   0  0  0  0  0  0  0  0  0  0  0  0
  149.2199  126.3550  150.8687 C   0  0  2  0  0  0  0  0  0  0  0  0
  149.2576  126.2808  152.3928 C   0  0  0  0  0  0  0  0  0  0  0  0
  148.4309  127.4834  152.8497 C   0  0  0  0  0  0  0  0  0  0  0  0
  147.3767  127.7138  151.7504 C   0  0  1  0  0  0  0  0  0  0  0  0
  147.3278  129.1226  151.3622 N   0  0  0  0  0  0  0  0  0  0  0  0
  146.3000  129.9575  151.5726 C   0  0  0  0  0  0  0  0  0  0  0  0
  145.2557  129.6248  152.1320 O   0  0  0  0  0  0  0  0  0  0  0  0
  146.5763  131.1891  151.1092 N   0  0  0  0  0  0  0  0  0  0  0  0
  145.7698  132.3592  151.1543 C   0  0  0  0  0  0  0  0  0  0  0  0
  144.4193  132.2130  151.5335 C   0  0  0  0  0  0  0  0  0  0  0  0
  143.5956  133.3527  151.5972 C   0  0  0  0  0  0  0  0  0  0  0  0
  144.1598  134.6046  151.2856 C   0  0  0  0  0  0  0  0  0  0  0  0
  145.4535  134.7661  150.9371 N   0  0  0  0  0  0  0  0  0  0  0  0
  146.2379  133.6682  150.8764 C   0  0  0  0  0  0  0  0  0  0  0  0
  147.7961  126.8300  150.5603 C   0  0  0  0  0  0  0  0  0  0  0  0
  146.3175  123.1063  149.6161 H   0  0  0  0  0  0  0  0  0  0  0  0
  147.6721  123.1947  148.4932 H   0  0  0  0  0  0  0  0  0  0  0  0
  146.8620  124.6709  149.0159 H   0  0  0  0  0  0  0  0  0  0  0  0
  147.6672  124.2726  151.3703 H   0  0  0  0  0  0  0  0  0  0  0  0
  148.4763  122.8049  150.8481 H   0  0  0  0  0  0  0  0  0  0  0  0
  149.9340  127.1101  150.5371 H   0  0  0  0  0  0  0  0  0  0  0  0
  148.7809  125.3609  152.7342 H   0  0  0  0  0  0  0  0  0  0  0  0
  150.2734  126.2961  152.7888 H   0  0  0  0  0  0  0  0  0  0  0  0
  147.9768  127.3174  153.8271 H   0  0  0  0  0  0  0  0  0  0  0  0
  149.0871  128.3503  152.9432 H   0  0  0  0  0  0  0  0  0  0  0  0
  146.4052  127.3745  152.1141 H   0  0  0  0  0  0  0  0  0  0  0  0
  148.1451  129.4898  150.8973 H   0  0  0  0  0  0  0  0  0  0  0  0
  147.5032  131.3200  150.7314 H   0  0  0  0  0  0  0  0  0  0  0  0
  144.0147  131.2393  151.7688 H   0  0  0  0  0  0  0  0  0  0  0  0
  142.5561  133.2693  151.8779 H   0  0  0  0  0  0  0  0  0  0  0  0
  143.5575  135.5003  151.3222 H   0  0  0  0  0  0  0  0  0  0  0  0
  147.2650  133.8681  150.6161 H   0  0  0  0  0  0  0  0  0  0  0  0
  147.7346  127.3445  149.6003 H   0  0  0  0  0  0  0  0  0  0  0  0
  147.1256  125.9713  150.5041 H   0  0  0  0  0  0  0  0  0  0  0  0
  1  2  1  0  0  0  0
  1 19  1  0  0  0  0
  1 20  1  0  0  0  0
  1 21  1  0  0  0  0
  2  3  1  0  0  0  0
  2 22  1  0  0  0  0
  2 23  1  0  0  0  0
  3  4  1  0  0  0  0
  4 18  1  0  0  0  0
  4  5  1  0  0  0  0
  4 24  1  0  0  0  0
  5  6  1  0  0  0  0
  5 25  1  0  0  0  0
  5 26  1  0  0  0  0
  6  7  1  0  0  0  0
  6 27  1  0  0  0  0
  6 28  1  0  0  0  0
  7  8  1  0  0  0  0
  7 18  1  0  0  0  0
  7 29  1  0  0  0  0
  8  9  1  0  0  0  0
  8 30  1  0  0  0  0
  9 10  2  0  0  0  0
  9 11  1  0  0  0  0
 11 12  1  0  0  0  0
 11 31  1  0  0  0  0
 12 17  1  0  0  0  0
 12 13  2  0  0  0  0
 13 14  1  0  0  0  0
 13 32  1  0  0  0  0
 14 15  2  0  0  0  0
 14 33  1  0  0  0  0
 15 16  1  0  0  0  0
 15 34  1  0  0  0  0
 16 17  2  0  0  0  0
 17 35  1  0  0  0  0
 18 36  1  0  0  0  0
 18 37  1  0  0  0  0
M  END
> <s_m_source_file>
AV-unprocessed.smi

> <i_m_source_file_index>
774

> <i_lp_mmshare_version>
43012

> <i_f3d_flags>
0

> <s_epik_input>
W0NIM11bQ0gyXVNbQ0BASF0xW0NIMl1bQ0gyXVtDQEhdKFtDSDJdMSlbTkhdQyg9TylbTkhdYzJbY0hdW2NIXVtjSF1uW2NIXTI=

> <s_epik_cmdline>
J2VwaWtfcHl0aG9uJywgJy1waCcsICc3LjAnLCAnLXRuJywgJzgnLCAnLW1hJywgJzIwMCcsICctbWV0YWxfYmluZGluZycsICctaW1hZScsICc8aW5maWxlLm1hZT4nLCAnLW9tYWUnLCAnPG91dGZpbGUubWFlPic=

> <r_epik_Ionization_Penalty>
0.00485718

> <r_epik_Ionization_Penalty_Charging>
0

> <r_epik_Ionization_Penalty_Neutral>
0.00485718

> <r_epik_State_Penalty>
0.00349461

> <r_epik_Charging_Adjusted_Penalty>
0.00349461

> <i_epik_Tot_Q>
0

> <i_epik_Tot_abs_Q>
0

> <r_epik_Metal_State_Penalty>
-0

> <b_epik_Metal_Only>
0

> <s_lp_Force_Field>
OPLS_2005

> <r_lp_Energy>
20.878

> <b_lp_Chiralities_Consistent>
1

> <s_lp_Variant>
AV-unprocessed.smi:774-1

> <Gold.Version>
5.8.1

> <Gold.Id.Protein>
6NUR|6NUR_protein|mol2

> <Gold.PLP.Fitness>
42.3211

> <Gold.PLP.PLP>
-37.2228

> <Gold.PLP.part.hbond>
-2.0000

> <Gold.PLP.part.metal>
0.0000

> <Gold.PLP.part.buried>
-5.3530

> <Gold.PLP.part.nonpolar>
-30.2272

> <Gold.PLP.part.repulsive>
0.5053

> <Gold.PLP.ligand.clash>
0.0000

> <Gold.PLP.ligand.torsion>
0.4538

> <Gold.PLP.Chemscore.Hbond>
2.0000

> <Gold.PLP.Chemscore.CHOScore>
0.0000

> <Gold.PLP.Chemscore.Metal>
0.0000

> <Gold.Chemscore.Hbonds>
donor molecule, donor type, donor heavy atom, donor atom, acceptor molecule, acceptor atom, score
      L1  H     8    30       P1 10747  1.00
      L1  H    11    31       P1 10747  1.00

> <Gold.PLP.Chemscore.Internal.Correction>
0.0060

> <Gold.Rescore>
     Score         DG    S(hbond)    S(metal)    S(lipo)     H(rot)  DE(clash)    DE(int)     intcor
     16.64     -18.75       1.74        0.00      92.37       1.30       0.30       1.81       ----

> <Gold.Chemscore.Fitness>
16.6385

> <Gold.Chemscore.DG>
-18.7479

> <Gold.Chemscore.ZeroCoef>
-5.4800

> <Gold.Chemscore.Hbond>
1.7363

> <Gold.Chemscore.Metal>
0.0000

> <Gold.Chemscore.Lipo>
92.3691

> <Gold.Chemscore.Internal_Hbond>
0.0000

> <Gold.Chemscore.DEClash>
0.3022

> <Gold.Chemscore.DEInternal>
1.8072

> <Gold.Chemscore.Rot>
1.3041

> <Gold.Chemscore.Internal.Correction>
   9.000000E+99

> <Gold.Chemscore.Hbonds>
donor molecule, donor type, donor heavy atom, donor atom, acceptor molecule, acceptor atom, score
      L1  H     8    30       P1 10747  0.47
      L1  H    11    31       P1 10747  0.97

> <Gold.Chemscore.Hbond.Weighted>
-5.7992

> <Gold.Chemscore.Metal.Weighted>
-0.0000

> <Gold.Chemscore.Lipo.Weighted>
-10.8072

> <Gold.Chemscore.Internal_Hbond.Weighted>
0.0000

> <Gold.Chemscore.DEClash.Weighted>
0.3022

> <Gold.Chemscore.DEInternal.Weighted>
1.8072

> <Gold.Chemscore.Rot.Weighted>
3.3384

> <Gold.Chemscore.Internal.Correction.Weighted>
   9.000000E+99

> <Gold.Protein.RotatedTorsions>
[ 6907 6896 6895 6894 ] final  -84.93 input  -60.11 | X-H torsion
[ 7974 7965 7964 7962 ] final  116.77 input  175.53 | X-H torsion
[ 8008 7997 7996 7995 ] final  -84.43 input   59.86 | X-H torsion
[ 10167 10162 10161 10158 ] final   46.83 input  -65.29 | X-H torsion
[ 10718 10713 10712 10709 ] final  -86.53 input   66.30 | X-H torsion
[ 10763 10752 10751 10750 ] final   42.19 input  -60.55 | X-H torsion
[ 11005 11000 10999 10996 ] final -124.81 input  -57.11 | X-H torsion

> <Gold.Protein.ActiveResidues>
 VAL166  LYS551  ARG553  GLY616  TRP617  ASP618  TYR619  PRO620  LYS621  CYS622 
 ASP623  PHE694  ASN695  SER759  ASP760  ASP761  ALA762  ILE779  LEU786  VAL792 
 PHE793  MET794  SER795  GLU796  ALA797  LYS798  CYS799  TRP800  GLU811  SER814 

> <Gold.Protein.RotatedAtoms>
  150.6873  134.3282  159.4815 H   0  0  0  0  0  0  0  0  0  0  0  0  # atno 6907 bound_to 6896
  152.1150  134.9244  160.0574 H   0  0  0  0  0  0  0  0  0  0  0  0  # atno 6908 bound_to 6896
  152.0472  133.3968  159.4399 H   0  0  0  0  0  0  0  0  0  0  0  0  # atno 6909 bound_to 6896
  145.1756  139.3078  143.4445 H   0  0  0  0  0  0  0  0  0  0  0  0  # atno 7974 bound_to 7965
  154.6297  140.0605  156.9717 H   0  0  0  0  0  0  0  0  0  0  0  0  # atno 8008 bound_to 7997
  155.1686  140.3289  155.4379 H   0  0  0  0  0  0  0  0  0  0  0  0  # atno 8009 bound_to 7997
  156.2476  140.1918  156.6789 H   0  0  0  0  0  0  0  0  0  0  0  0  # atno 8010 bound_to 7997
  140.3099  144.2833  150.6202 H   0  0  0  0  0  0  0  0  0  0  0  0  # atno 10167 bound_to 10162
  155.9989  130.4768  150.4729 H   0  0  0  0  0  0  0  0  0  0  0  0  # atno 10718 bound_to 10713
  152.9889  135.6139  154.2910 H   0  0  0  0  0  0  0  0  0  0  0  0  # atno 10763 bound_to 10752
  154.2635  135.2781  155.2770 H   0  0  0  0  0  0  0  0  0  0  0  0  # atno 10764 bound_to 10752
  154.5185  135.5821  153.6719 H   0  0  0  0  0  0  0  0  0  0  0  0  # atno 10765 bound_to 10752
  140.9812  134.0671  157.3763 H   0  0  0  0  0  0  0  0  0  0  0  0  # atno 11005 bound_to 11000
  146.3461  140.1917  142.8589 LP  0  0  0  0  0  0  0  0  0  0  0  0  # atno 17320 bound_to 7965
  145.0188  140.8776  143.5179 LP  0  0  0  0  0  0  0  0  0  0  0  0  # atno 17321 bound_to 7965
  140.5578  143.2196  151.7818 LP  0  0  0  0  0  0  0  0  0  0  0  0  # atno 17342 bound_to 10162
  139.4896  144.4390  151.9786 LP  0  0  0  0  0  0  0  0  0  0  0  0  # atno 17343 bound_to 10162
  157.2743  131.0593  151.2240 LP  0  0  0  0  0  0  0  0  0  0  0  0  # atno 17370 bound_to 10713
  157.3309  130.6984  149.6324 LP  0  0  0  0  0  0  0  0  0  0  0  0  # atno 17371 bound_to 10713
  139.8951  135.0139  156.6984 LP  0  0  0  0  0  0  0  0  0  0  0  0  # atno 17394 bound_to 11000
  140.7184  133.9162  155.8130 LP  0  0  0  0  0  0  0  0  0  0  0  0  # atno 17395 bound_to 11000

$$$$
