AV-unprocessed.smi:2505|AV-procd|sdf|9859|dock2
  -GOLD-   2272013483D 1   1.00000     0.00000
 Structure written by MMmdl.
 48 52  0  0  0  0  0  0  0  0  1 V2000
  147.8625  135.9470  156.1987 O   0  0  0  0  0  0  0  0  0  0  0  0
  148.2724  135.9673  155.0405 C   0  0  0  0  0  0  0  0  0  0  0  0
  149.0507  136.9338  154.5161 N   0  0  0  0  0  0  0  0  0  0  0  0
  149.5592  138.1005  155.1463 C   0  0  0  0  0  0  0  0  0  0  0  0
  149.3034  138.4823  156.4863 C   0  0  0  0  0  0  0  0  0  0  0  0
  149.8158  139.6173  157.0099 N   0  0  0  0  0  0  0  0  0  0  0  0
  150.5659  140.3734  156.2036 C   0  0  0  0  0  0  0  0  0  0  0  0
  151.1690  141.6042  156.8063 C   0  0  0  0  0  0  0  0  0  0  0  0
  151.0281  141.8871  158.2881 C   0  0  0  0  0  0  0  0  0  0  0  0
  150.2959  142.7430  157.2926 C   0  0  0  0  0  0  0  0  0  0  0  0
  150.8740  140.1149  154.9297 N   0  0  0  0  0  0  0  0  0  0  0  0
  150.3632  138.9844  154.3967 C   0  0  0  0  0  0  0  0  0  0  0  0
  147.9761  134.9784  154.1801 N   0  0  0  0  0  0  0  0  0  0  0  0
  147.1546  133.7853  154.4384 C   0  0  2  0  0  0  0  0  0  0  0  0
  147.8909  132.6747  155.1948 C   0  0  2  0  0  0  0  0  0  0  0  0
  149.0960  132.6000  156.0617 C   0  0  0  0  0  0  0  0  0  0  0  0
  149.6828  131.2909  155.4703 C   0  0  0  0  0  0  0  0  0  0  0  0
  148.9025  131.0055  154.2816 O   0  0  0  0  0  0  0  0  0  0  0  0
  148.4554  132.2755  153.8474 C   0  0  1  0  0  0  0  0  0  0  0  0
  147.1108  132.7514  153.2478 C   0  0  0  0  0  0  0  0  0  0  0  0
  145.9565  131.7285  153.2226 C   0  0  0  0  0  0  0  0  0  0  0  0
  145.2669  131.8158  151.8609 C   0  0  0  0  0  0  0  0  0  0  0  0
  146.3398  132.3610  150.9303 C   0  0  0  0  0  0  0  0  0  0  0  0
  147.1416  133.3083  151.8181 C   0  0  0  0  0  0  0  0  0  0  0  0
  149.3609  136.7831  153.5670 H   0  0  0  0  0  0  0  0  0  0  0  0
  148.6801  137.9049  157.1507 H   0  0  0  0  0  0  0  0  0  0  0  0
  152.1143  141.8559  156.3291 H   0  0  0  0  0  0  0  0  0  0  0  0
  150.4350  141.1958  158.8838 H   0  0  0  0  0  0  0  0  0  0  0  0
  151.8827  142.3268  158.7976 H   0  0  0  0  0  0  0  0  0  0  0  0
  150.6610  143.7558  157.1355 H   0  0  0  0  0  0  0  0  0  0  0  0
  149.2164  142.6208  157.2251 H   0  0  0  0  0  0  0  0  0  0  0  0
  150.6057  138.7815  153.3638 H   0  0  0  0  0  0  0  0  0  0  0  0
  148.3658  135.0534  153.2516 H   0  0  0  0  0  0  0  0  0  0  0  0
  146.1645  134.0085  154.8390 H   0  0  0  0  0  0  0  0  0  0  0  0
  147.1458  131.9602  155.5591 H   0  0  0  0  0  0  0  0  0  0  0  0
  149.7651  133.4488  155.9145 H   0  0  0  0  0  0  0  0  0  0  0  0
  148.8530  132.5136  157.1209 H   0  0  0  0  0  0  0  0  0  0  0  0
  150.7351  131.4189  155.2137 H   0  0  0  0  0  0  0  0  0  0  0  0
  149.6034  130.4568  156.1682 H   0  0  0  0  0  0  0  0  0  0  0  0
  149.3028  132.8836  153.5148 H   0  0  0  0  0  0  0  0  0  0  0  0
  146.3470  130.7190  153.3586 H   0  0  0  0  0  0  0  0  0  0  0  0
  145.2372  131.8939  154.0254 H   0  0  0  0  0  0  0  0  0  0  0  0
  144.8662  130.8578  151.5279 H   0  0  0  0  0  0  0  0  0  0  0  0
  144.4385  132.5234  151.9151 H   0  0  0  0  0  0  0  0  0  0  0  0
  146.9793  131.5456  150.5896 H   0  0  0  0  0  0  0  0  0  0  0  0
  145.9261  132.8543  150.0504 H   0  0  0  0  0  0  0  0  0  0  0  0
  146.6747  134.2937  151.7923 H   0  0  0  0  0  0  0  0  0  0  0  0
  148.1574  133.4324  151.4406 H   0  0  0  0  0  0  0  0  0  0  0  0
  1  2  2  0  0  0  0
  2  3  1  0  0  0  0
  2 13  1  0  0  0  0
  3  4  1  0  0  0  0
  3 25  1  0  0  0  0
  4 12  1  0  0  0  0
  4  5  2  0  0  0  0
  5  6  1  0  0  0  0
  5 26  1  0  0  0  0
  6  7  2  0  0  0  0
  7  8  1  0  0  0  0
  7 11  1  0  0  0  0
  8 10  1  0  0  0  0
  8  9  1  0  0  0  0
  8 27  1  0  0  0  0
  9 10  1  0  0  0  0
  9 28  1  0  0  0  0
  9 29  1  0  0  0  0
 10 30  1  0  0  0  0
 10 31  1  0  0  0  0
 11 12  2  0  0  0  0
 12 32  1  0  0  0  0
 13 14  1  0  0  0  0
 13 33  1  0  0  0  0
 14 20  1  0  0  0  0
 14 15  1  0  0  0  0
 14 34  1  0  0  0  0
 15 19  1  0  0  0  0
 15 16  1  0  0  0  0
 15 35  1  0  0  0  0
 16 17  1  0  0  0  0
 16 36  1  0  0  0  0
 16 37  1  0  0  0  0
 17 18  1  0  0  0  0
 17 38  1  0  0  0  0
 17 39  1  0  0  0  0
 18 19  1  0  0  0  0
 19 20  1  0  0  0  0
 19 40  1  0  0  0  0
 20 24  1  0  0  0  0
 20 21  1  0  0  0  0
 21 22  1  0  0  0  0
 21 41  1  0  0  0  0
 21 42  1  0  0  0  0
 22 23  1  0  0  0  0
 22 43  1  0  0  0  0
 22 44  1  0  0  0  0
 23 24  1  0  0  0  0
 23 45  1  0  0  0  0
 23 46  1  0  0  0  0
 24 47  1  0  0  0  0
 24 48  1  0  0  0  0
M  END
> <s_m_source_file>
AV-unprocessed.smi

> <i_m_source_file_index>
2505

> <i_lp_mmshare_version>
43012

> <i_f3d_flags>
0

> <s_epik_input>
W0NIMl0xW0NIMl1bQ0hdMWMobltjSF0yKW5bY0hdYzJbTkhdQyg9TylbTkhdW0NAQEhdM1tDQEBIXShbQ0gyXVtDSDJdTzQpW0NASF00QzM1W0NIMl1bQ0gyXVtDSDJdW0NIMl01

> <s_epik_cmdline>
J2VwaWtfcHl0aG9uJywgJy1waCcsICc3LjAnLCAnLXRuJywgJzgnLCAnLW1hJywgJzIwMCcsICctbWV0YWxfYmluZGluZycsICctaW1hZScsICc8aW5maWxlLm1hZT4nLCAnLW9tYWUnLCAnPG91dGZpbGUubWFlPic=

> <r_lp_tautomer_probability>
1

> <r_epik_Ionization_Penalty>
2.6075e-05

> <r_epik_Ionization_Penalty_Charging>
0

> <r_epik_Ionization_Penalty_Neutral>
2.6075e-05

> <r_epik_State_Penalty>
-0

> <r_epik_Charging_Adjusted_Penalty>
0

> <i_epik_Tot_Q>
0

> <i_epik_Tot_abs_Q>
0

> <r_epik_Metal_State_Penalty>
-0

> <b_epik_Metal_Only>
0

> <s_lp_Force_Field>
OPLS_2005

> <r_lp_Energy>
88.3916

> <b_lp_Chiralities_Consistent>
1

> <s_lp_Variant>
AV-unprocessed.smi:2505-7

> <Gold.Version>
5.8.1

> <Gold.Id.Protein>
6NUR|6NUR_protein|mol2

> <Gold.PLP.Fitness>
46.7468

> <Gold.PLP.PLP>
-34.8041

> <Gold.PLP.part.hbond>
-3.0000

> <Gold.PLP.part.metal>
0.0000

> <Gold.PLP.part.buried>
-4.7799

> <Gold.PLP.part.nonpolar>
-27.2739

> <Gold.PLP.part.repulsive>
0.1917

> <Gold.PLP.ligand.clash>
0.0000

> <Gold.PLP.ligand.torsion>
0.2103

> <Gold.PLP.Chemscore.Hbond>
2.9920

> <Gold.PLP.Chemscore.CHOScore>
1.0000

> <Gold.PLP.Chemscore.Metal>
0.0000

> <Gold.Chemscore.Hbonds>
donor molecule, donor type, donor heavy atom, donor atom, acceptor molecule, acceptor atom, score
      L1  H     3    25       P1  7948  0.99
      L1  H    13    33       P1  7948  0.96
      P1  H  7989  7998       L1    11  1.00
      L1  C    12    32       P1  7957  0.54

> <Gold.PLP.Chemscore.Internal.Correction>
0.3874

> <Gold.Rescore>
     Score         DG    S(hbond)    S(metal)    S(lipo)     H(rot)  DE(clash)    DE(int)     intcor
     19.34     -20.79       2.52        0.00      84.69       1.17       0.01       1.44       ----

> <Gold.Chemscore.Fitness>
19.3412

> <Gold.Chemscore.DG>
-20.7934

> <Gold.Chemscore.ZeroCoef>
-5.4800

> <Gold.Chemscore.Hbond>
2.5184

> <Gold.Chemscore.Metal>
0.0000

> <Gold.Chemscore.Lipo>
84.6861

> <Gold.Chemscore.Internal_Hbond>
0.0000

> <Gold.Chemscore.DEClash>
0.0098

> <Gold.Chemscore.DEInternal>
1.4424

> <Gold.Chemscore.Rot>
1.1744

> <Gold.Chemscore.Internal.Correction>
   9.000000E+99

> <Gold.Chemscore.Hbonds>
donor molecule, donor type, donor heavy atom, donor atom, acceptor molecule, acceptor atom, score
      L1  H     3    25       P1  7948  0.88
      L1  H    13    33       P1  7948  0.83
      P1  H  7989  7998       L1    11  0.35

> <Gold.Chemscore.Hbond.Weighted>
-8.4115

> <Gold.Chemscore.Metal.Weighted>
-0.0000

> <Gold.Chemscore.Lipo.Weighted>
-9.9083

> <Gold.Chemscore.Internal_Hbond.Weighted>
0.0000

> <Gold.Chemscore.DEClash.Weighted>
0.0098

> <Gold.Chemscore.DEInternal.Weighted>
1.4424

> <Gold.Chemscore.Rot.Weighted>
3.0064

> <Gold.Chemscore.Internal.Correction.Weighted>
   9.000000E+99

> <Gold.Protein.RotatedTorsions>
[ 6907 6896 6895 6894 ] final  -84.26 input  -60.11 | X-H torsion
[ 7974 7965 7964 7962 ] final  178.25 input  175.53 | X-H torsion
[ 8008 7997 7996 7995 ] final -171.80 input   59.86 | X-H torsion
[ 10167 10162 10161 10158 ] final  137.62 input  -65.29 | X-H torsion
[ 10718 10713 10712 10709 ] final   91.64 input   66.30 | X-H torsion
[ 10763 10752 10751 10750 ] final   58.27 input  -60.55 | X-H torsion
[ 11005 11000 10999 10996 ] final  -52.50 input  -57.11 | X-H torsion

> <Gold.Protein.ActiveResidues>
 VAL166  LYS551  ARG553  GLY616  TRP617  ASP618  TYR619  PRO620  LYS621  CYS622 
 ASP623  PHE694  ASN695  SER759  ASP760  ASP761  ALA762  ILE779  LEU786  VAL792 
 PHE793  MET794  SER795  GLU796  ALA797  LYS798  CYS799  TRP800  GLU811  SER814 

> <Gold.Protein.RotatedAtoms>
  150.6878  134.3386  159.4857 H   0  0  0  0  0  0  0  0  0  0  0  0  # atno 6907 bound_to 6896
  152.1242  134.9181  160.0571 H   0  0  0  0  0  0  0  0  0  0  0  0  # atno 6908 bound_to 6896
  152.0375  133.3928  159.4360 H   0  0  0  0  0  0  0  0  0  0  0  0  # atno 6909 bound_to 6896
  144.7158  140.0369  143.6438 H   0  0  0  0  0  0  0  0  0  0  0  0  # atno 7974 bound_to 7965
  155.9363  140.1100  157.1091 H   0  0  0  0  0  0  0  0  0  0  0  0  # atno 8008 bound_to 7997
  154.4080  140.1227  156.4935 H   0  0  0  0  0  0  0  0  0  0  0  0  # atno 8009 bound_to 7997
  155.7017  140.3472  155.4938 H   0  0  0  0  0  0  0  0  0  0  0  0  # atno 8010 bound_to 7997
  139.5138  144.6399  151.5596 H   0  0  0  0  0  0  0  0  0  0  0  0  # atno 10167 bound_to 10162
  157.6960  131.0414  150.3760 H   0  0  0  0  0  0  0  0  0  0  0  0  # atno 10718 bound_to 10713
  152.9867  135.5612  154.5525 H   0  0  0  0  0  0  0  0  0  0  0  0  # atno 10763 bound_to 10752
  154.4960  135.2795  155.1461 H   0  0  0  0  0  0  0  0  0  0  0  0  # atno 10764 bound_to 10752
  154.2911  135.6326  153.5439 H   0  0  0  0  0  0  0  0  0  0  0  0  # atno 10765 bound_to 10752
  141.0928  133.6630  156.4034 H   0  0  0  0  0  0  0  0  0  0  0  0  # atno 11005 bound_to 11000
  146.0056  139.3127  143.0901 LP  0  0  0  0  0  0  0  0  0  0  0  0  # atno 17320 bound_to 7965
  145.8742  140.9402  143.0635 LP  0  0  0  0  0  0  0  0  0  0  0  0  # atno 17321 bound_to 7965
  140.6162  143.9343  150.6491 LP  0  0  0  0  0  0  0  0  0  0  0  0  # atno 17342 bound_to 10162
  140.2602  143.3529  152.1329 LP  0  0  0  0  0  0  0  0  0  0  0  0  # atno 17343 bound_to 10162
  156.4179  130.3947  149.6845 LP  0  0  0  0  0  0  0  0  0  0  0  0  # atno 17370 bound_to 10713
  156.4106  130.7720  151.2733 LP  0  0  0  0  0  0  0  0  0  0  0  0  # atno 17371 bound_to 10713
  140.5213  134.6302  157.5319 LP  0  0  0  0  0  0  0  0  0  0  0  0  # atno 17394 bound_to 11000
  139.9757  134.7219  155.9955 LP  0  0  0  0  0  0  0  0  0  0  0  0  # atno 17395 bound_to 11000

$$$$
