AV-unprocessed.smi:2578|AV-procd|sdf|10122|dock1
  -GOLD-   2272014143D 1   1.00000     0.00000
 Structure written by MMmdl.
 41 42  0  0  0  0  0  0  0  0  1 V2000
  146.3917  141.7656  154.8513 C   0  0  0  0  0  0  0  0  0  0  0  0
  147.5176  140.7730  154.6127 C   0  0  0  0  0  0  0  0  0  0  0  0
  148.7938  141.1300  154.8787 C   0  0  0  0  0  0  0  0  0  0  0  0
  149.9278  140.2276  154.6746 C   0  0  0  0  0  0  0  0  0  0  0  0
  151.0872  140.5627  154.9185 O   0  0  0  0  0  0  0  0  0  0  0  0
  149.6153  138.9919  154.1969 N   0  0  0  0  0  0  0  0  0  0  0  0
  150.6797  138.0130  153.9584 C   0  0  0  0  0  0  0  0  0  0  0  0
  148.2937  138.6090  153.9124 C   0  0  0  0  0  0  0  0  0  0  0  0
  147.2411  139.4369  154.0985 C   0  0  0  0  0  0  0  0  0  0  0  0
  145.9021  139.1008  153.8299 N   0  0  0  0  0  0  0  0  0  0  0  0
  145.1700  138.0544  154.2577 C   0  0  0  0  0  0  0  0  0  0  0  0
  145.5580  137.1507  154.9971 O   0  0  0  0  0  0  0  0  0  0  0  0
  143.9215  138.1166  153.7725 N   0  0  0  0  0  0  0  0  0  0  0  0
  142.8645  137.1529  154.0572 C   0  0  0  0  0  0  0  0  0  0  0  0
  141.9851  136.9018  152.8205 C   0  0  0  0  0  0  0  0  0  0  0  0
  140.5426  137.3154  153.0343 C   0  0  0  0  0  0  0  0  0  0  0  0
  140.0643  138.5588  153.0290 C   0  0  0  0  0  0  0  0  0  0  0  0
  138.5859  138.6129  153.3005 C   0  0  0  0  0  0  0  0  0  0  0  0
  138.1882  137.1335  153.5027 C   0  0  0  0  0  0  0  0  0  0  0  0
  139.4719  136.2934  153.3188 C   0  0  0  0  0  0  0  0  0  0  0  0
  146.7633  142.7135  155.2418 H   0  0  0  0  0  0  0  0  0  0  0  0
  145.6784  141.3636  155.5712 H   0  0  0  0  0  0  0  0  0  0  0  0
  145.8641  141.9708  153.9197 H   0  0  0  0  0  0  0  0  0  0  0  0
  148.9983  142.1206  155.2585 H   0  0  0  0  0  0  0  0  0  0  0  0
  150.3010  137.0461  153.6257 H   0  0  0  0  0  0  0  0  0  0  0  0
  151.2531  137.8375  154.8699 H   0  0  0  0  0  0  0  0  0  0  0  0
  151.3646  138.3762  153.1911 H   0  0  0  0  0  0  0  0  0  0  0  0
  148.2177  137.6029  153.5351 H   0  0  0  0  0  0  0  0  0  0  0  0
  145.4233  139.7548  153.2283 H   0  0  0  0  0  0  0  0  0  0  0  0
  143.6817  138.8897  153.1692 H   0  0  0  0  0  0  0  0  0  0  0  0
  143.3329  136.2208  154.3746 H   0  0  0  0  0  0  0  0  0  0  0  0
  142.2639  137.5013  154.8987 H   0  0  0  0  0  0  0  0  0  0  0  0
  142.3726  137.4472  151.9593 H   0  0  0  0  0  0  0  0  0  0  0  0
  142.0133  135.8432  152.5586 H   0  0  0  0  0  0  0  0  0  0  0  0
  140.6484  139.4510  152.8571 H   0  0  0  0  0  0  0  0  0  0  0  0
  138.3874  139.2102  154.1909 H   0  0  0  0  0  0  0  0  0  0  0  0
  138.0638  139.0613  152.4547 H   0  0  0  0  0  0  0  0  0  0  0  0
  137.7690  136.9810  154.4979 H   0  0  0  0  0  0  0  0  0  0  0  0
  137.4255  136.8366  152.7817 H   0  0  0  0  0  0  0  0  0  0  0  0
  139.3748  135.5951  152.4872 H   0  0  0  0  0  0  0  0  0  0  0  0
  139.7171  135.7296  154.2196 H   0  0  0  0  0  0  0  0  0  0  0  0
  1  2  1  0  0  0  0
  1 21  1  0  0  0  0
  1 22  1  0  0  0  0
  1 23  1  0  0  0  0
  2  9  1  0  0  0  0
  2  3  2  0  0  0  0
  3  4  1  0  0  0  0
  3 24  1  0  0  0  0
  4  5  2  0  0  0  0
  4  6  1  0  0  0  0
  6  7  1  0  0  0  0
  6  8  1  0  0  0  0
  7 25  1  0  0  0  0
  7 26  1  0  0  0  0
  7 27  1  0  0  0  0
  8  9  2  0  0  0  0
  8 28  1  0  0  0  0
  9 10  1  0  0  0  0
 10 11  1  0  0  0  0
 10 29  1  0  0  0  0
 11 12  2  0  0  0  0
 11 13  1  0  0  0  0
 13 14  1  0  0  0  0
 13 30  1  0  0  0  0
 14 15  1  0  0  0  0
 14 31  1  0  0  0  0
 14 32  1  0  0  0  0
 15 16  1  0  0  0  0
 15 33  1  0  0  0  0
 15 34  1  0  0  0  0
 16 20  1  0  0  0  0
 16 17  2  0  0  0  0
 17 18  1  0  0  0  0
 17 35  1  0  0  0  0
 18 19  1  0  0  0  0
 18 36  1  0  0  0  0
 18 37  1  0  0  0  0
 19 20  1  0  0  0  0
 19 38  1  0  0  0  0
 19 39  1  0  0  0  0
 20 40  1  0  0  0  0
 20 41  1  0  0  0  0
M  END
> <s_m_source_file>
AV-unprocessed.smi

> <i_m_source_file_index>
2578

> <i_lp_mmshare_version>
43012

> <i_f3d_flags>
0

> <s_epik_input>
W0NIM11jMVtjSF1jKD1PKW4oW0NIM10pW2NIXWMxW05IXUMoPU8pW05IXVtDSDJdW0NIMl1DMj1bQ0hdW0NIMl1bQ0gyXVtDSDJdMg==

> <s_epik_cmdline>
J2VwaWtfcHl0aG9uJywgJy1waCcsICc3LjAnLCAnLXRuJywgJzgnLCAnLW1hJywgJzIwMCcsICctbWV0YWxfYmluZGluZycsICctaW1hZScsICc8aW5maWxlLm1hZT4nLCAnLW9tYWUnLCAnPG91dGZpbGUubWFlPic=

> <r_lp_tautomer_probability>
1

> <r_epik_Ionization_Penalty>
2.83926e-05

> <r_epik_Ionization_Penalty_Charging>
8.15285e-06

> <r_epik_Ionization_Penalty_Neutral>
2.02397e-05

> <r_epik_State_Penalty>
-0

> <r_epik_Charging_Adjusted_Penalty>
8.15285e-06

> <i_epik_Tot_Q>
0

> <i_epik_Tot_abs_Q>
0

> <r_epik_Metal_State_Penalty>
-0

> <b_epik_Metal_Only>
0

> <s_lp_Force_Field>
OPLS_2005

> <r_lp_Energy>
31.0137

> <b_lp_Chiralities_Consistent>
1

> <s_lp_Variant>
AV-unprocessed.smi:2578-1

> <Gold.Version>
5.8.1

> <Gold.Id.Protein>
6NUR|6NUR_protein|mol2

> <Gold.PLP.Fitness>
43.4232

> <Gold.PLP.PLP>
-33.9711

> <Gold.PLP.part.hbond>
-2.7677

> <Gold.PLP.part.metal>
0.0000

> <Gold.PLP.part.buried>
-2.1684

> <Gold.PLP.part.nonpolar>
-30.1472

> <Gold.PLP.part.repulsive>
0.0915

> <Gold.PLP.ligand.clash>
0.0000

> <Gold.PLP.ligand.torsion>
1.2481

> <Gold.PLP.Chemscore.Hbond>
2.9833

> <Gold.PLP.Chemscore.CHOScore>
0.9722

> <Gold.PLP.Chemscore.Metal>
0.0000

> <Gold.Chemscore.Hbonds>
donor molecule, donor type, donor heavy atom, donor atom, acceptor molecule, acceptor atom, score
      L1  H    10    29       P1 10175  0.99
      L1  H    13    30       P1 10175  1.00
      P1  H  7989  7998       L1     5  0.99
      L1  C     8    28       P1  7948  1.00

> <Gold.PLP.Chemscore.Internal.Correction>
0.0819

> <Gold.Rescore>
     Score         DG    S(hbond)    S(metal)    S(lipo)     H(rot)  DE(clash)    DE(int)     intcor
     19.66     -20.84       2.78        0.00      81.40       1.35       0.23       0.95       ----

> <Gold.Chemscore.Fitness>
19.6642

> <Gold.Chemscore.DG>
-20.8418

> <Gold.Chemscore.ZeroCoef>
-5.4800

> <Gold.Chemscore.Hbond>
2.7820

> <Gold.Chemscore.Metal>
0.0000

> <Gold.Chemscore.Lipo>
81.4006

> <Gold.Chemscore.Internal_Hbond>
0.0000

> <Gold.Chemscore.DEClash>
0.2283

> <Gold.Chemscore.DEInternal>
0.9493

> <Gold.Chemscore.Rot>
1.3493

> <Gold.Chemscore.Internal.Correction>
   9.000000E+99

> <Gold.Chemscore.Hbonds>
donor molecule, donor type, donor heavy atom, donor atom, acceptor molecule, acceptor atom, score
      L1  H    10    29       P1 10175  0.87
      L1  H    13    30       P1 10175  1.00
      P1  H  7989  7998       L1     5  0.31

> <Gold.Chemscore.Hbond.Weighted>
-9.2920

> <Gold.Chemscore.Metal.Weighted>
-0.0000

> <Gold.Chemscore.Lipo.Weighted>
-9.5239

> <Gold.Chemscore.Internal_Hbond.Weighted>
0.0000

> <Gold.Chemscore.DEClash.Weighted>
0.2283

> <Gold.Chemscore.DEInternal.Weighted>
0.9493

> <Gold.Chemscore.Rot.Weighted>
3.4541

> <Gold.Chemscore.Internal.Correction.Weighted>
   9.000000E+99

> <Gold.Protein.RotatedTorsions>
[ 6907 6896 6895 6894 ] final  119.29 input  -60.11 | X-H torsion
[ 7974 7965 7964 7962 ] final   75.14 input  175.53 | X-H torsion
[ 8008 7997 7996 7995 ] final  -18.34 input   59.86 | X-H torsion
[ 10167 10162 10161 10158 ] final   35.16 input  -65.29 | X-H torsion
[ 10718 10713 10712 10709 ] final  106.05 input   66.30 | X-H torsion
[ 10763 10752 10751 10750 ] final  137.13 input  -60.55 | X-H torsion
[ 11005 11000 10999 10996 ] final  -15.68 input  -57.11 | X-H torsion

> <Gold.Protein.ActiveResidues>
 VAL166  LYS551  ARG553  GLY616  TRP617  ASP618  TYR619  PRO620  LYS621  CYS622 
 ASP623  PHE694  ASN695  SER759  ASP760  ASP761  ALA762  ILE779  LEU786  VAL792 
 PHE793  MET794  SER795  GLU796  ALA797  LYS798  CYS799  TRP800  GLU811  SER814 

> <Gold.Protein.RotatedAtoms>
  152.4482  133.7578  159.6729 H   0  0  0  0  0  0  0  0  0  0  0  0  # atno 6907 bound_to 6896
  150.8387  133.7960  159.3075 H   0  0  0  0  0  0  0  0  0  0  0  0  # atno 6908 bound_to 6896
  151.5592  135.1068  160.0020 H   0  0  0  0  0  0  0  0  0  0  0  0  # atno 6909 bound_to 6896
  145.7194  139.2643  143.1605 H   0  0  0  0  0  0  0  0  0  0  0  0  # atno 7974 bound_to 7965
  154.4913  140.2118  155.9543 H   0  0  0  0  0  0  0  0  0  0  0  0  # atno 8008 bound_to 7997
  156.1309  140.3197  155.8316 H   0  0  0  0  0  0  0  0  0  0  0  0  # atno 8009 bound_to 7997
  155.4298  140.0502  157.3010 H   0  0  0  0  0  0  0  0  0  0  0  0  # atno 8010 bound_to 7997
  140.4248  144.1408  150.6152 H   0  0  0  0  0  0  0  0  0  0  0  0  # atno 10167 bound_to 10162
  157.6683  131.0842  150.5948 H   0  0  0  0  0  0  0  0  0  0  0  0  # atno 10718 bound_to 10713
  153.8680  135.3059  155.3441 H   0  0  0  0  0  0  0  0  0  0  0  0  # atno 10763 bound_to 10752
  154.7819  135.4831  153.9865 H   0  0  0  0  0  0  0  0  0  0  0  0  # atno 10764 bound_to 10752
  153.1423  135.6826  153.9104 H   0  0  0  0  0  0  0  0  0  0  0  0  # atno 10765 bound_to 10752
  140.7991  133.8228  155.9453 H   0  0  0  0  0  0  0  0  0  0  0  0  # atno 11005 bound_to 11000
  146.0640  140.7941  142.9721 LP  0  0  0  0  0  0  0  0  0  0  0  0  # atno 17320 bound_to 7965
  144.6921  140.3240  143.7227 LP  0  0  0  0  0  0  0  0  0  0  0  0  # atno 17321 bound_to 7965
  140.4493  143.2493  151.9369 LP  0  0  0  0  0  0  0  0  0  0  0  0  # atno 17342 bound_to 10162
  139.4783  144.5578  151.8287 LP  0  0  0  0  0  0  0  0  0  0  0  0  # atno 17343 bound_to 10162
  156.6248  130.4416  149.5808 LP  0  0  0  0  0  0  0  0  0  0  0  0  # atno 17370 bound_to 10713
  156.2327  130.6804  151.1479 LP  0  0  0  0  0  0  0  0  0  0  0  0  # atno 17371 bound_to 10713
  140.9312  134.2019  157.4862 LP  0  0  0  0  0  0  0  0  0  0  0  0  # atno 17394 bound_to 11000
  139.8723  134.9834  156.5195 LP  0  0  0  0  0  0  0  0  0  0  0  0  # atno 17395 bound_to 11000

$$$$
