AV-unprocessed.smi:3346|AV-procd|sdf|12909|dock3
  -GOLD-   2272019323D 1   1.00000     0.00000
 Structure written by MMmdl.
 47 48  0  0  0  0  0  0  0  0  1 V2000
  152.2179  143.4224  160.9219 C   0  0  0  0  0  0  0  0  0  0  0  0
  151.7860  144.2156  159.6796 C   0  0  0  0  0  0  0  0  0  0  0  0
  151.3403  145.6323  160.0801 C   0  0  0  0  0  0  0  0  0  0  0  0
  150.6964  143.4490  158.8964 C   0  0  0  0  0  0  0  0  0  0  0  0
  151.1639  142.8073  157.5721 C   0  0  2  0  0  0  0  0  0  0  0  0
  152.0564  143.7803  156.7807 C   0  0  0  0  0  0  0  0  0  0  0  0
  149.9913  142.4615  156.7760 N   0  0  0  0  0  0  0  0  0  0  0  0
  150.3291  141.6257  155.6331 C   0  0  0  0  0  0  0  0  0  0  0  0
  149.0954  141.1099  154.9102 C   0  0  0  0  0  0  0  0  0  0  0  0
  148.1224  142.0310  154.4683 C   0  0  0  0  0  0  0  0  0  0  0  0
  146.9892  141.5575  153.7828 C   0  0  0  0  0  0  0  0  0  0  0  0
  146.8736  140.1725  153.5649 C   0  0  0  0  0  0  0  0  0  0  0  0
  147.7934  139.2789  153.9841 N   0  0  0  0  0  0  0  0  0  0  0  0
  148.8869  139.7305  154.6462 C   0  0  0  0  0  0  0  0  0  0  0  0
  149.8136  138.7734  155.0939 N   0  0  0  0  0  0  0  0  0  0  0  0
  149.3059  137.4105  155.0147 C   0  0  0  0  0  0  0  0  0  0  0  0
  150.2772  136.4496  155.7217 C   0  0  0  0  0  0  0  0  0  0  0  0
  151.5770  136.5782  155.1514 O   0  0  0  0  0  0  0  0  0  0  0  0
  152.0954  137.8985  155.2916 C   0  0  0  0  0  0  0  0  0  0  0  0
  151.1699  138.8946  154.5717 C   0  0  0  0  0  0  0  0  0  0  0  0
  151.3852  143.2812  161.6118 H   0  0  0  0  0  0  0  0  0  0  0  0
  153.0134  143.9377  161.4610 H   0  0  0  0  0  0  0  0  0  0  0  0
  152.5951  142.4366  160.6484 H   0  0  0  0  0  0  0  0  0  0  0  0
  152.6663  144.3094  159.0446 H   0  0  0  0  0  0  0  0  0  0  0  0
  150.4355  145.6067  160.6876 H   0  0  0  0  0  0  0  0  0  0  0  0
  151.1414  146.2553  159.2087 H   0  0  0  0  0  0  0  0  0  0  0  0
  152.1145  146.1354  160.6599 H   0  0  0  0  0  0  0  0  0  0  0  0
  150.2688  142.6728  159.5334 H   0  0  0  0  0  0  0  0  0  0  0  0
  149.8774  144.1389  158.6888 H   0  0  0  0  0  0  0  0  0  0  0  0
  151.7376  141.9077  157.7939 H   0  0  0  0  0  0  0  0  0  0  0  0
  152.9148  144.0908  157.3772 H   0  0  0  0  0  0  0  0  0  0  0  0
  151.5105  144.6807  156.4968 H   0  0  0  0  0  0  0  0  0  0  0  0
  152.4498  143.3277  155.8709 H   0  0  0  0  0  0  0  0  0  0  0  0
  149.5180  143.3008  156.4735 H   0  0  0  0  0  0  0  0  0  0  0  0
  150.9272  142.1925  154.9201 H   0  0  0  0  0  0  0  0  0  0  0  0
  150.9472  140.7881  155.9580 H   0  0  0  0  0  0  0  0  0  0  0  0
  148.2442  143.0888  154.6495 H   0  0  0  0  0  0  0  0  0  0  0  0
  146.2290  142.2390  153.4312 H   0  0  0  0  0  0  0  0  0  0  0  0
  146.0188  139.7708  153.0412 H   0  0  0  0  0  0  0  0  0  0  0  0
  148.3164  137.3471  155.4662 H   0  0  0  0  0  0  0  0  0  0  0  0
  149.1964  137.1263  153.9673 H   0  0  0  0  0  0  0  0  0  0  0  0
  150.3191  136.6585  156.7915 H   0  0  0  0  0  0  0  0  0  0  0  0
  149.9379  135.4198  155.6107 H   0  0  0  0  0  0  0  0  0  0  0  0
  152.1921  138.1514  156.3488 H   0  0  0  0  0  0  0  0  0  0  0  0
  153.0962  137.9361  154.8617 H   0  0  0  0  0  0  0  0  0  0  0  0
  151.1758  138.6919  153.4998 H   0  0  0  0  0  0  0  0  0  0  0  0
  151.5308  139.9139  154.7128 H   0  0  0  0  0  0  0  0  0  0  0  0
  1  2  1  0  0  0  0
  1 21  1  0  0  0  0
  1 22  1  0  0  0  0
  1 23  1  0  0  0  0
  2  3  1  0  0  0  0
  2  4  1  0  0  0  0
  2 24  1  0  0  0  0
  3 25  1  0  0  0  0
  3 26  1  0  0  0  0
  3 27  1  0  0  0  0
  4  5  1  0  0  0  0
  4 28  1  0  0  0  0
  4 29  1  0  0  0  0
  5  6  1  0  0  0  0
  5  7  1  0  0  0  0
  5 30  1  0  0  0  0
  6 31  1  0  0  0  0
  6 32  1  0  0  0  0
  6 33  1  0  0  0  0
  7  8  1  0  0  0  0
  7 34  1  0  0  0  0
  8  9  1  0  0  0  0
  8 35  1  0  0  0  0
  8 36  1  0  0  0  0
  9 14  1  0  0  0  0
  9 10  2  0  0  0  0
 10 11  1  0  0  0  0
 10 37  1  0  0  0  0
 11 12  2  0  0  0  0
 11 38  1  0  0  0  0
 12 13  1  0  0  0  0
 12 39  1  0  0  0  0
 13 14  2  0  0  0  0
 14 15  1  0  0  0  0
 15 20  1  0  0  0  0
 15 16  1  0  0  0  0
 16 17  1  0  0  0  0
 16 40  1  0  0  0  0
 16 41  1  0  0  0  0
 17 18  1  0  0  0  0
 17 42  1  0  0  0  0
 17 43  1  0  0  0  0
 18 19  1  0  0  0  0
 19 20  1  0  0  0  0
 19 44  1  0  0  0  0
 19 45  1  0  0  0  0
 20 46  1  0  0  0  0
 20 47  1  0  0  0  0
M  END
> <s_m_source_file>
AV-unprocessed.smi

> <i_m_source_file_index>
3346

> <i_lp_mmshare_version>
43012

> <i_f3d_flags>
0

> <s_epik_input>
W0NIM11bQ0hdKFtDSDNdKVtDSDJdW0NASF0oW0NIM10pW05IXVtDSDJdYzFbY0hdW2NIXVtjSF1uYzFOMltDSDJdW0NIMl1PW0NIMl1bQ0gyXTI=

> <s_epik_cmdline>
J2VwaWtfcHl0aG9uJywgJy1waCcsICc3LjAnLCAnLXRuJywgJzgnLCAnLW1hJywgJzIwMCcsICctbWV0YWxfYmluZGluZycsICctaW1hZScsICc8aW5maWxlLm1hZT4nLCAnLW9tYWUnLCAnPG91dGZpbGUubWFlPic=

> <r_lp_tautomer_probability>
1

> <r_epik_Ionization_Penalty>
2.09752

> <r_epik_Ionization_Penalty_Charging>
0

> <r_epik_Ionization_Penalty_Neutral>
2.09752

> <r_epik_State_Penalty>
2.22589

> <r_epik_Charging_Adjusted_Penalty>
2.22589

> <i_epik_Tot_Q>
0

> <i_epik_Tot_abs_Q>
0

> <r_epik_Metal_State_Penalty>
2.21996

> <b_epik_Metal_Only>
0

> <s_lp_Force_Field>
OPLS_2005

> <r_lp_Energy>
25.807

> <b_lp_Chiralities_Consistent>
1

> <s_lp_Variant>
AV-unprocessed.smi:3346-3

> <Gold.Version>
5.8.1

> <Gold.Id.Protein>
6NUR|6NUR_protein|mol2

> <Gold.PLP.Fitness>
47.0571

> <Gold.PLP.PLP>
-39.9694

> <Gold.PLP.part.hbond>
-2.0000

> <Gold.PLP.part.metal>
0.0000

> <Gold.PLP.part.buried>
-4.4561

> <Gold.PLP.part.nonpolar>
-34.7115

> <Gold.PLP.part.repulsive>
0.3902

> <Gold.PLP.ligand.clash>
0.0000

> <Gold.PLP.ligand.torsion>
1.0644

> <Gold.PLP.Chemscore.Hbond>
2.0000

> <Gold.PLP.Chemscore.CHOScore>
1.0000

> <Gold.PLP.Chemscore.Metal>
0.0000

> <Gold.Chemscore.Hbonds>
donor molecule, donor type, donor heavy atom, donor atom, acceptor molecule, acceptor atom, score
      L1  H     7    34       P1  8028  1.00
      P1  H 10752 10764       L1    18  1.00
      L1  C    12    39       P1 10175  1.00

> <Gold.PLP.Chemscore.Internal.Correction>
0.2165

> <Gold.Rescore>
     Score         DG    S(hbond)    S(metal)    S(lipo)     H(rot)  DE(clash)    DE(int)     intcor
     19.45     -22.65       1.97        0.00     124.62       1.55       1.24       1.96       ----

> <Gold.Chemscore.Fitness>
19.4511

> <Gold.Chemscore.DG>
-22.6547

> <Gold.Chemscore.ZeroCoef>
-5.4800

> <Gold.Chemscore.Hbond>
1.9656

> <Gold.Chemscore.Metal>
0.0000

> <Gold.Chemscore.Lipo>
124.6243

> <Gold.Chemscore.Internal_Hbond>
0.0000

> <Gold.Chemscore.DEClash>
1.2410

> <Gold.Chemscore.DEInternal>
1.9626

> <Gold.Chemscore.Rot>
1.5514

> <Gold.Chemscore.Internal.Correction>
   9.000000E+99

> <Gold.Chemscore.Hbonds>
donor molecule, donor type, donor heavy atom, donor atom, acceptor molecule, acceptor atom, score
      L1  H     7    34       P1  8028  1.00
      P1  H 10752 10764       L1    18  0.50

> <Gold.Chemscore.Hbond.Weighted>
-6.5652

> <Gold.Chemscore.Metal.Weighted>
-0.0000

> <Gold.Chemscore.Lipo.Weighted>
-14.5810

> <Gold.Chemscore.Internal_Hbond.Weighted>
0.0000

> <Gold.Chemscore.DEClash.Weighted>
1.2410

> <Gold.Chemscore.DEInternal.Weighted>
1.9626

> <Gold.Chemscore.Rot.Weighted>
3.9715

> <Gold.Chemscore.Internal.Correction.Weighted>
   9.000000E+99

> <Gold.Protein.RotatedTorsions>
[ 6907 6896 6895 6894 ] final -134.67 input  -60.11 | X-H torsion
[ 7974 7965 7964 7962 ] final  108.32 input  175.53 | X-H torsion
[ 8008 7997 7996 7995 ] final  -10.49 input   59.86 | X-H torsion
[ 10167 10162 10161 10158 ] final  130.36 input  -65.29 | X-H torsion
[ 10718 10713 10712 10709 ] final  -85.98 input   66.30 | X-H torsion
[ 10763 10752 10751 10750 ] final  -45.32 input  -60.55 | X-H torsion
[ 11005 11000 10999 10996 ] final -179.55 input  -57.11 | X-H torsion

> <Gold.Protein.ActiveResidues>
 VAL166  LYS551  ARG553  GLY616  TRP617  ASP618  TYR619  PRO620  LYS621  CYS622 
 ASP623  PHE694  ASN695  SER759  ASP760  ASP761  ALA762  ILE779  LEU786  VAL792 
 PHE793  MET794  SER795  GLU796  ALA797  LYS798  CYS799  TRP800  GLU811  SER814 

> <Gold.Protein.RotatedAtoms>
  150.9886  133.6172  159.2711 H   0  0  0  0  0  0  0  0  0  0  0  0  # atno 6907 bound_to 6896
  151.3401  135.0860  159.9378 H   0  0  0  0  0  0  0  0  0  0  0  0  # atno 6908 bound_to 6896
  152.5239  133.9499  159.7721 H   0  0  0  0  0  0  0  0  0  0  0  0  # atno 6909 bound_to 6896
  145.2822  139.2629  143.3909 H   0  0  0  0  0  0  0  0  0  0  0  0  # atno 7974 bound_to 7965
  154.5550  140.2327  155.8424 H   0  0  0  0  0  0  0  0  0  0  0  0  # atno 8008 bound_to 7997
  156.1980  140.3060  155.9428 H   0  0  0  0  0  0  0  0  0  0  0  0  # atno 8009 bound_to 7997
  155.2997  140.0430  157.3019 H   0  0  0  0  0  0  0  0  0  0  0  0  # atno 8010 bound_to 7997
  139.5434  144.6751  151.4551 H   0  0  0  0  0  0  0  0  0  0  0  0  # atno 10167 bound_to 10162
  155.9993  130.4749  150.4645 H   0  0  0  0  0  0  0  0  0  0  0  0  # atno 10718 bound_to 10713
  154.0266  135.6662  153.4777 H   0  0  0  0  0  0  0  0  0  0  0  0  # atno 10763 bound_to 10752
  153.0557  135.5057  154.7972 H   0  0  0  0  0  0  0  0  0  0  0  0  # atno 10764 bound_to 10752
  154.6904  135.3060  154.9452 H   0  0  0  0  0  0  0  0  0  0  0  0  # atno 10765 bound_to 10752
  140.4173  134.6637  157.4646 H   0  0  0  0  0  0  0  0  0  0  0  0  # atno 11005 bound_to 11000
  146.3212  140.3292  142.8639 LP  0  0  0  0  0  0  0  0  0  0  0  0  # atno 17320 bound_to 7965
  144.9243  140.7904  143.5728 LP  0  0  0  0  0  0  0  0  0  0  0  0  # atno 17321 bound_to 7965
  140.6673  143.8371  150.6957 LP  0  0  0  0  0  0  0  0  0  0  0  0  # atno 17342 bound_to 10162
  140.1784  143.4135  152.1951 LP  0  0  0  0  0  0  0  0  0  0  0  0  # atno 17343 bound_to 10162
  157.2666  131.0578  151.2287 LP  0  0  0  0  0  0  0  0  0  0  0  0  # atno 17370 bound_to 10713
  157.3382  130.7020  149.6365 LP  0  0  0  0  0  0  0  0  0  0  0  0  # atno 17371 bound_to 10713
  140.0225  134.6526  155.9220 LP  0  0  0  0  0  0  0  0  0  0  0  0  # atno 17394 bound_to 11000
  141.1798  133.6545  156.4972 LP  0  0  0  0  0  0  0  0  0  0  0  0  # atno 17395 bound_to 11000

$$$$
