AV-unprocessed.smi:2222|AV-procd|sdf|8987|dock9
  -GOLD-   2272012203D 1   1.00000     0.00000
 Structure written by MMmdl.
 34 35  0  0  0  0  0  0  0  0  1 V2000
  151.5849  145.6151  160.0265 C   0  0  0  0  0  0  0  0  0  0  0  0
  151.3994  144.4811  159.1920 O   0  0  0  0  0  0  0  0  0  0  0  0
  152.0514  143.3100  159.5261 C   0  0  0  0  0  0  0  0  0  0  0  0
  152.8494  143.1604  160.6891 C   0  0  0  0  0  0  0  0  0  0  0  0
  153.4728  141.9270  160.9454 C   0  0  0  0  0  0  0  0  0  0  0  0
  153.2776  140.8804  160.0268 C   0  0  0  0  0  0  0  0  0  0  0  0
  153.9152  139.5240  160.2408 C   0  0  0  0  0  0  0  0  0  0  0  0
  152.5218  141.0106  158.9182 N   0  0  0  0  0  0  0  0  0  0  0  0
  151.9154  142.1954  158.6585 C   0  0  0  0  0  0  0  0  0  0  0  0
  151.1024  142.4115  157.5121 N   0  0  0  0  0  0  0  0  0  0  0  0
  150.6288  141.5080  156.6312 C   0  0  0  0  0  0  0  0  0  0  0  0
  150.8778  140.3040  156.6600 O   0  0  0  0  0  0  0  0  0  0  0  0
  149.8668  142.0346  155.6558 N   0  0  0  0  0  0  0  0  0  0  0  0
  149.2202  141.3492  154.5754 C   0  0  2  0  0  0  0  0  0  0  0  0
  147.7794  141.7164  154.2939 C   0  0  0  0  0  0  0  0  0  0  0  0
  148.1030  140.3697  154.8845 C   0  0  2  0  0  0  0  0  0  0  0  0
  147.6986  140.0308  156.3062 C   0  0  0  0  0  0  0  0  0  0  0  0
  151.0029  146.4485  159.6335 H   0  0  0  0  0  0  0  0  0  0  0  0
  152.6301  145.9262  160.0513 H   0  0  0  0  0  0  0  0  0  0  0  0
  151.2395  145.4228  161.0432 H   0  0  0  0  0  0  0  0  0  0  0  0
  152.9963  143.9668  161.3912 H   0  0  0  0  0  0  0  0  0  0  0  0
  154.0836  141.7920  161.8260 H   0  0  0  0  0  0  0  0  0  0  0  0
  154.6110  139.5419  161.0800 H   0  0  0  0  0  0  0  0  0  0  0  0
  154.4650  139.2168  159.3507 H   0  0  0  0  0  0  0  0  0  0  0  0
  153.1497  138.7757  160.4476 H   0  0  0  0  0  0  0  0  0  0  0  0
  150.8381  143.3720  157.3489 H   0  0  0  0  0  0  0  0  0  0  0  0
  149.7878  143.0412  155.6435 H   0  0  0  0  0  0  0  0  0  0  0  0
  149.8151  141.1403  153.6875 H   0  0  0  0  0  0  0  0  0  0  0  0
  147.3081  142.4546  154.9404 H   0  0  0  0  0  0  0  0  0  0  0  0
  147.4619  141.7427  153.2534 H   0  0  0  0  0  0  0  0  0  0  0  0
  148.0297  139.5220  154.2058 H   0  0  0  0  0  0  0  0  0  0  0  0
  147.7069  140.9176  156.9405 H   0  0  0  0  0  0  0  0  0  0  0  0
  148.3867  139.2964  156.7252 H   0  0  0  0  0  0  0  0  0  0  0  0
  146.6929  139.6106  156.3170 H   0  0  0  0  0  0  0  0  0  0  0  0
  1  2  1  0  0  0  0
  1 18  1  0  0  0  0
  1 19  1  0  0  0  0
  1 20  1  0  0  0  0
  2  3  1  0  0  0  0
  3  9  1  0  0  0  0
  3  4  2  0  0  0  0
  4  5  1  0  0  0  0
  4 21  1  0  0  0  0
  5  6  2  0  0  0  0
  5 22  1  0  0  0  0
  6  7  1  0  0  0  0
  6  8  1  0  0  0  0
  7 23  1  0  0  0  0
  7 24  1  0  0  0  0
  7 25  1  0  0  0  0
  8  9  2  0  0  0  0
  9 10  1  0  0  0  0
 10 11  1  0  0  0  0
 10 26  1  0  0  0  0
 11 12  2  0  0  0  0
 11 13  1  0  0  0  0
 13 14  1  0  0  0  0
 13 27  1  0  0  0  0
 14 16  1  0  0  0  0
 14 15  1  0  0  0  0
 14 28  1  0  0  0  0
 15 16  1  0  0  0  0
 15 29  1  0  0  0  0
 15 30  1  0  0  0  0
 16 17  1  0  0  0  0
 16 31  1  0  0  0  0
 17 32  1  0  0  0  0
 17 33  1  0  0  0  0
 17 34  1  0  0  0  0
M  END
> <s_m_source_file>
AV-unprocessed.smi

> <i_m_source_file_index>
2222

> <i_lp_mmshare_version>
43012

> <i_f3d_flags>
0

> <s_epik_input>
W0NIM11PYzFbY0hdW2NIXWMoW0NIM10pbmMxW05IXUMoPU8pW05IXVtDQEBIXTJbQ0gyXVtDQEhdMltDSDNd

> <s_epik_cmdline>
J2VwaWtfcHl0aG9uJywgJy1waCcsICc3LjAnLCAnLXRuJywgJzgnLCAnLW1hJywgJzIwMCcsICctbWV0YWxfYmluZGluZycsICctaW1hZScsICc8aW5maWxlLm1hZT4nLCAnLW9tYWUnLCAnPG91dGZpbGUubWFlPic=

> <r_lp_tautomer_probability>
1

> <r_epik_Ionization_Penalty>
6.59103e-05

> <r_epik_Ionization_Penalty_Charging>
0

> <r_epik_Ionization_Penalty_Neutral>
6.59103e-05

> <r_epik_State_Penalty>
-0

> <r_epik_Charging_Adjusted_Penalty>
0

> <i_epik_Tot_Q>
0

> <i_epik_Tot_abs_Q>
0

> <r_epik_Metal_State_Penalty>
-0

> <b_epik_Metal_Only>
0

> <s_lp_Force_Field>
OPLS_2005

> <r_lp_Energy>
34.1661

> <b_lp_Chiralities_Consistent>
1

> <s_lp_Variant>
AV-unprocessed.smi:2222-3

> <Gold.Version>
5.8.1

> <Gold.Id.Protein>
6NUR|6NUR_protein|mol2

> <Gold.PLP.Fitness>
38.7454

> <Gold.PLP.PLP>
-35.9821

> <Gold.PLP.part.hbond>
-1.0000

> <Gold.PLP.part.metal>
0.0000

> <Gold.PLP.part.buried>
-5.0225

> <Gold.PLP.part.nonpolar>
-30.4494

> <Gold.PLP.part.repulsive>
0.2876

> <Gold.PLP.ligand.clash>
0.0000

> <Gold.PLP.ligand.torsion>
0.1373

> <Gold.PLP.Chemscore.Hbond>
1.0000

> <Gold.PLP.Chemscore.CHOScore>
0.0000

> <Gold.PLP.Chemscore.Metal>
0.0000

> <Gold.Chemscore.Hbonds>
donor molecule, donor type, donor heavy atom, donor atom, acceptor molecule, acceptor atom, score
      L1  H    13    27       P1  8028  1.00

> <Gold.PLP.Chemscore.Internal.Correction>
0.0379

> <Gold.Rescore>
     Score         DG    S(hbond)    S(metal)    S(lipo)     H(rot)  DE(clash)    DE(int)     intcor
     14.24     -15.68       0.98        0.00      85.67       1.22       0.03       1.41       ----

> <Gold.Chemscore.Fitness>
14.2435

> <Gold.Chemscore.DG>
-15.6772

> <Gold.Chemscore.ZeroCoef>
-5.4800

> <Gold.Chemscore.Hbond>
0.9848

> <Gold.Chemscore.Metal>
0.0000

> <Gold.Chemscore.Lipo>
85.6669

> <Gold.Chemscore.Internal_Hbond>
0.0000

> <Gold.Chemscore.DEClash>
0.0276

> <Gold.Chemscore.DEInternal>
1.4061

> <Gold.Chemscore.Rot>
1.2168

> <Gold.Chemscore.Internal.Correction>
   9.000000E+99

> <Gold.Chemscore.Hbonds>
donor molecule, donor type, donor heavy atom, donor atom, acceptor molecule, acceptor atom, score
      L1  H    13    27       P1  8028  0.99

> <Gold.Chemscore.Hbond.Weighted>
-3.2891

> <Gold.Chemscore.Metal.Weighted>
-0.0000

> <Gold.Chemscore.Lipo.Weighted>
-10.0230

> <Gold.Chemscore.Internal_Hbond.Weighted>
0.0000

> <Gold.Chemscore.DEClash.Weighted>
0.0276

> <Gold.Chemscore.DEInternal.Weighted>
1.4061

> <Gold.Chemscore.Rot.Weighted>
3.1150

> <Gold.Chemscore.Internal.Correction.Weighted>
   9.000000E+99

> <Gold.Protein.RotatedTorsions>
[ 6907 6896 6895 6894 ] final  152.16 input  -60.11 | X-H torsion
[ 7974 7965 7964 7962 ] final  150.92 input  175.53 | X-H torsion
[ 8008 7997 7996 7995 ] final  109.29 input   59.86 | X-H torsion
[ 10167 10162 10161 10158 ] final  -32.09 input  -65.29 | X-H torsion
[ 10718 10713 10712 10709 ] final -168.64 input   66.30 | X-H torsion
[ 10763 10752 10751 10750 ] final  -56.19 input  -60.55 | X-H torsion
[ 11005 11000 10999 10996 ] final   79.43 input  -57.11 | X-H torsion

> <Gold.Protein.ActiveResidues>
 VAL166  LYS551  ARG553  GLY616  TRP617  ASP618  TYR619  PRO620  LYS621  CYS622 
 ASP623  PHE694  ASN695  SER759  ASP760  ASP761  ALA762  ILE779  LEU786  VAL792 
 PHE793  MET794  SER795  GLU796  ALA797  LYS798  CYS799  TRP800  GLU811  SER814 

> <Gold.Protein.RotatedAtoms>
  152.0906  133.4198  159.4541 H   0  0  0  0  0  0  0  0  0  0  0  0  # atno 6907 bound_to 6896
  150.6862  134.2876  159.4662 H   0  0  0  0  0  0  0  0  0  0  0  0  # atno 6908 bound_to 6896
  152.0727  134.9523  160.0625 H   0  0  0  0  0  0  0  0  0  0  0  0  # atno 6909 bound_to 6896
  144.8329  139.6471  143.6051 H   0  0  0  0  0  0  0  0  0  0  0  0  # atno 7974 bound_to 7965
  156.1968  140.3060  155.9443 H   0  0  0  0  0  0  0  0  0  0  0  0  # atno 8008 bound_to 7997
  155.3048  140.0448  157.3048 H   0  0  0  0  0  0  0  0  0  0  0  0  # atno 8009 bound_to 7997
  154.5519  140.2294  155.8480 H   0  0  0  0  0  0  0  0  0  0  0  0  # atno 8010 bound_to 7997
  140.7226  143.3721  151.1759 H   0  0  0  0  0  0  0  0  0  0  0  0  # atno 10167 bound_to 10162
  156.6999  130.9192  151.3078 H   0  0  0  0  0  0  0  0  0  0  0  0  # atno 10718 bound_to 10713
  154.2027  135.6408  153.5092 H   0  0  0  0  0  0  0  0  0  0  0  0  # atno 10763 bound_to 10752
  153.0008  135.5455  154.6298 H   0  0  0  0  0  0  0  0  0  0  0  0  # atno 10764 bound_to 10752
  154.5715  135.2917  155.0795 H   0  0  0  0  0  0  0  0  0  0  0  0  # atno 10765 bound_to 10752
  139.9173  134.7842  156.1778 H   0  0  0  0  0  0  0  0  0  0  0  0  # atno 11005 bound_to 11000
  146.2631  139.6456  142.9348 LP  0  0  0  0  0  0  0  0  0  0  0  0  # atno 17320 bound_to 7965
  145.4856  141.0438  143.2621 LP  0  0  0  0  0  0  0  0  0  0  0  0  # atno 17321 bound_to 7965
  139.7294  143.9096  152.3014 LP  0  0  0  0  0  0  0  0  0  0  0  0  # atno 17342 bound_to 10162
  139.8880  144.6981  150.8802 LP  0  0  0  0  0  0  0  0  0  0  0  0  # atno 17343 bound_to 10162
  157.6977  130.9299  150.0692 LP  0  0  0  0  0  0  0  0  0  0  0  0  # atno 17370 bound_to 10713
  156.1736  130.3647  149.9131 LP  0  0  0  0  0  0  0  0  0  0  0  0  # atno 17371 bound_to 10713
  141.0661  133.6818  156.2047 LP  0  0  0  0  0  0  0  0  0  0  0  0  # atno 17394 bound_to 11000
  140.6583  134.4995  157.5582 LP  0  0  0  0  0  0  0  0  0  0  0  0  # atno 17395 bound_to 11000

$$$$
