AV-unprocessed.smi:2893|AV-procd|sdf|11125|dock4
  -GOLD-   2272015593D 1   1.00000     0.00000
 Structure written by MMmdl.
 37 39  0  0  0  0  0  0  0  0  1 V2000
  150.4111  134.5130  156.1353 C   0  0  0  0  0  0  0  0  0  0  0  0
  150.0841  135.4163  154.9388 C   0  0  0  0  0  0  0  0  0  0  0  0
  150.2497  136.8265  155.2699 N   0  0  0  0  0  0  0  0  0  0  0  0
  149.2678  137.7446  155.2690 C   0  0  0  0  0  0  0  0  0  0  0  0
  148.0973  137.4799  154.9912 O   0  0  0  0  0  0  0  0  0  0  0  0
  149.6699  139.1378  155.6741 C   0  0  0  0  0  0  0  0  0  0  0  0
  150.9136  139.3618  156.3038 C   0  0  0  0  0  0  0  0  0  0  0  0
  151.2348  140.6791  156.6734 C   0  0  0  0  0  0  0  0  0  0  0  0
  150.2913  141.6857  156.3945 C   0  0  0  0  0  0  0  0  0  0  0  0
  150.5852  143.0085  156.7539 N   0  0  0  0  0  0  0  0  0  0  0  0
  151.6392  143.3119  157.7159 C   0  0  1  0  0  0  0  0  0  0  0  0
  151.6517  144.7829  158.1519 C   0  0  0  0  0  0  0  0  0  0  0  0
  151.5367  144.6629  159.6762 C   0  0  2  0  0  0  0  0  0  0  0  0
  152.8021  144.0697  160.3106 C   0  0  0  0  0  0  0  0  0  0  0  0
  152.6960  142.6003  159.9040 C   0  0  0  0  0  0  0  0  0  0  0  0
  151.4146  142.5977  159.0595 C   0  0  1  0  0  0  0  0  0  0  0  0
  150.6525  143.5604  159.7701 O   0  0  0  0  0  0  0  0  0  0  0  0
  149.1109  141.4096  155.7878 N   0  0  0  0  0  0  0  0  0  0  0  0
  148.8045  140.1564  155.4372 N   0  0  0  0  0  0  0  0  0  0  0  0
  150.2542  133.4643  155.8822 H   0  0  0  0  0  0  0  0  0  0  0  0
  149.7765  134.7467  156.9907 H   0  0  0  0  0  0  0  0  0  0  0  0
  151.4500  134.6258  156.4465 H   0  0  0  0  0  0  0  0  0  0  0  0
  150.7059  135.1525  154.0817 H   0  0  0  0  0  0  0  0  0  0  0  0
  149.0500  135.2589  154.6316 H   0  0  0  0  0  0  0  0  0  0  0  0
  151.1790  137.1334  155.5202 H   0  0  0  0  0  0  0  0  0  0  0  0
  151.6049  138.5550  156.4998 H   0  0  0  0  0  0  0  0  0  0  0  0
  152.1739  140.9053  157.1567 H   0  0  0  0  0  0  0  0  0  0  0  0
  150.2015  143.7666  156.2083 H   0  0  0  0  0  0  0  0  0  0  0  0
  152.6008  143.0115  157.2974 H   0  0  0  0  0  0  0  0  0  0  0  0
  152.5572  145.3048  157.8411 H   0  0  0  0  0  0  0  0  0  0  0  0
  150.7947  145.3286  157.7536 H   0  0  0  0  0  0  0  0  0  0  0  0
  151.1781  145.5689  160.1652 H   0  0  0  0  0  0  0  0  0  0  0  0
  153.7114  144.5470  159.9433 H   0  0  0  0  0  0  0  0  0  0  0  0
  152.7774  144.1686  161.3963 H   0  0  0  0  0  0  0  0  0  0  0  0
  153.5654  142.2493  159.3470 H   0  0  0  0  0  0  0  0  0  0  0  0
  152.5781  141.9690  160.7855 H   0  0  0  0  0  0  0  0  0  0  0  0
  150.9477  141.6152  158.9797 H   0  0  0  0  0  0  0  0  0  0  0  0
  1  2  1  0  0  0  0
  1 20  1  0  0  0  0
  1 21  1  0  0  0  0
  1 22  1  0  0  0  0
  2  3  1  0  0  0  0
  2 23  1  0  0  0  0
  2 24  1  0  0  0  0
  3  4  1  0  0  0  0
  3 25  1  0  0  0  0
  4  5  2  0  0  0  0
  4  6  1  0  0  0  0
  6 19  1  0  0  0  0
  6  7  2  0  0  0  0
  7  8  1  0  0  0  0
  7 26  1  0  0  0  0
  8  9  2  0  0  0  0
  8 27  1  0  0  0  0
  9 10  1  0  0  0  0
  9 18  1  0  0  0  0
 10 11  1  0  0  0  0
 10 28  1  0  0  0  0
 11 16  1  0  0  0  0
 11 12  1  0  0  0  0
 11 29  1  0  0  0  0
 12 13  1  0  0  0  0
 12 30  1  0  0  0  0
 12 31  1  0  0  0  0
 13 17  1  0  0  0  0
 13 14  1  0  0  0  0
 13 32  1  0  0  0  0
 14 15  1  0  0  0  0
 14 33  1  0  0  0  0
 14 34  1  0  0  0  0
 15 16  1  0  0  0  0
 15 35  1  0  0  0  0
 15 36  1  0  0  0  0
 16 17  1  0  0  0  0
 16 37  1  0  0  0  0
 18 19  2  0  0  0  0
M  END
> <s_m_source_file>
AV-unprocessed.smi

> <i_m_source_file_index>
2893

> <i_lp_mmshare_version>
43012

> <i_f3d_flags>
0

> <s_epik_input>
W0NIM11bQ0gyXVtOSF1DKD1PKWMxW2NIXVtjSF1jKG5uMSlbTkhdW0NASF0oW0NIMl1bQ0BASF0yMylbQ0BASF0oTzMpW0NIMl1bQ0gyXTI=

> <s_epik_cmdline>
J2VwaWtfcHl0aG9uJywgJy1waCcsICc3LjAnLCAnLXRuJywgJzgnLCAnLW1hJywgJzIwMCcsICctbWV0YWxfYmluZGluZycsICctaW1hZScsICc8aW5maWxlLm1hZT4nLCAnLW9tYWUnLCAnPG91dGZpbGUubWFlPic=

> <r_lp_tautomer_probability>
1

> <r_epik_Ionization_Penalty>
0.00432031

> <r_epik_Ionization_Penalty_Charging>
0

> <r_epik_Ionization_Penalty_Neutral>
0.00432031

> <r_epik_State_Penalty>
-0

> <r_epik_Charging_Adjusted_Penalty>
0

> <i_epik_Tot_Q>
0

> <i_epik_Tot_abs_Q>
0

> <r_epik_Metal_State_Penalty>
-0

> <b_epik_Metal_Only>
0

> <s_lp_Force_Field>
OPLS_2005

> <r_lp_Energy>
49.39

> <b_lp_Chiralities_Consistent>
1

> <s_lp_Variant>
AV-unprocessed.smi:2893-4

> <Gold.Version>
5.8.1

> <Gold.Id.Protein>
6NUR|6NUR_protein|mol2

> <Gold.PLP.Fitness>
36.1770

> <Gold.PLP.PLP>
-33.6534

> <Gold.PLP.part.hbond>
-1.8769

> <Gold.PLP.part.metal>
0.0000

> <Gold.PLP.part.buried>
-6.1720

> <Gold.PLP.part.nonpolar>
-26.9311

> <Gold.PLP.part.repulsive>
0.7857

> <Gold.PLP.ligand.clash>
0.0000

> <Gold.PLP.ligand.torsion>
0.2134

> <Gold.PLP.Chemscore.Hbond>
0.9760

> <Gold.PLP.Chemscore.CHOScore>
0.0000

> <Gold.PLP.Chemscore.Metal>
0.0000

> <Gold.Chemscore.Hbonds>
donor molecule, donor type, donor heavy atom, donor atom, acceptor molecule, acceptor atom, score
      L1  H    10    28       P1  8028  1.00

> <Gold.PLP.Chemscore.Internal.Correction>
0.0224

> <Gold.Rescore>
     Score         DG    S(hbond)    S(metal)    S(lipo)     H(rot)  DE(clash)    DE(int)     intcor
     16.07     -16.86       1.00        0.00      95.16       1.21       0.04       0.75       ----

> <Gold.Chemscore.Fitness>
16.0727

> <Gold.Chemscore.DG>
-16.8602

> <Gold.Chemscore.ZeroCoef>
-5.4800

> <Gold.Chemscore.Hbond>
0.9983

> <Gold.Chemscore.Metal>
0.0000

> <Gold.Chemscore.Lipo>
95.1590

> <Gold.Chemscore.Internal_Hbond>
0.0000

> <Gold.Chemscore.DEClash>
0.0414

> <Gold.Chemscore.DEInternal>
0.7461

> <Gold.Chemscore.Rot>
1.2061

> <Gold.Chemscore.Internal.Correction>
   9.000000E+99

> <Gold.Chemscore.Hbonds>
donor molecule, donor type, donor heavy atom, donor atom, acceptor molecule, acceptor atom, score
      L1  H    10    28       P1  8028  0.97

> <Gold.Chemscore.Hbond.Weighted>
-3.3342

> <Gold.Chemscore.Metal.Weighted>
-0.0000

> <Gold.Chemscore.Lipo.Weighted>
-11.1336

> <Gold.Chemscore.Internal_Hbond.Weighted>
0.0000

> <Gold.Chemscore.DEClash.Weighted>
0.0414

> <Gold.Chemscore.DEInternal.Weighted>
0.7461

> <Gold.Chemscore.Rot.Weighted>
3.0876

> <Gold.Chemscore.Internal.Correction.Weighted>
   9.000000E+99

> <Gold.Protein.RotatedTorsions>
[ 6907 6896 6895 6894 ] final  -72.54 input  -60.11 | X-H torsion
[ 7974 7965 7964 7962 ] final   17.55 input  175.53 | X-H torsion
[ 8008 7997 7996 7995 ] final   50.52 input   59.86 | X-H torsion
[ 10167 10162 10161 10158 ] final   90.90 input  -65.29 | X-H torsion
[ 10718 10713 10712 10709 ] final   60.98 input   66.30 | X-H torsion
[ 10763 10752 10751 10750 ] final  -82.17 input  -60.55 | X-H torsion
[ 11005 11000 10999 10996 ] final  107.47 input  -57.11 | X-H torsion

> <Gold.Protein.ActiveResidues>
 VAL166  LYS551  ARG553  GLY616  TRP617  ASP618  TYR619  PRO620  LYS621  CYS622 
 ASP623  PHE694  ASN695  SER759  ASP760  ASP761  ALA762  ILE779  LEU786  VAL792 
 PHE793  MET794  SER795  GLU796  ALA797  LYS798  CYS799  TRP800  GLU811  SER814 

> <Gold.Protein.RotatedAtoms>
  150.7166  134.5147  159.5624 H   0  0  0  0  0  0  0  0  0  0  0  0  # atno 6907 bound_to 6896
  152.2716  134.7924  160.0422 H   0  0  0  0  0  0  0  0  0  0  0  0  # atno 6908 bound_to 6896
  151.8602  133.3420  159.3738 H   0  0  0  0  0  0  0  0  0  0  0  0  # atno 6909 bound_to 6896
  146.2214  139.8585  142.8609 H   0  0  0  0  0  0  0  0  0  0  0  0  # atno 7974 bound_to 7965
  155.4201  140.3446  155.4270 H   0  0  0  0  0  0  0  0  0  0  0  0  # atno 8008 bound_to 7997
  156.1398  140.1539  156.8969 H   0  0  0  0  0  0  0  0  0  0  0  0  # atno 8009 bound_to 7997
  154.4962  140.0827  156.7681 H   0  0  0  0  0  0  0  0  0  0  0  0  # atno 8010 bound_to 7997
  139.8428  144.6633  150.9263 H   0  0  0  0  0  0  0  0  0  0  0  0  # atno 10167 bound_to 10162
  157.5794  130.8969  149.9404 H   0  0  0  0  0  0  0  0  0  0  0  0  # atno 10718 bound_to 10713
  154.5725  135.5600  153.7109 H   0  0  0  0  0  0  0  0  0  0  0  0  # atno 10763 bound_to 10752
  153.0053  135.6300  154.2094 H   0  0  0  0  0  0  0  0  0  0  0  0  # atno 10764 bound_to 10752
  154.2034  135.2877  155.2963 H   0  0  0  0  0  0  0  0  0  0  0  0  # atno 10765 bound_to 10752
  139.8829  134.9402  156.5825 H   0  0  0  0  0  0  0  0  0  0  0  0  # atno 11005 bound_to 11000
  145.2728  141.0114  143.3762 LP  0  0  0  0  0  0  0  0  0  0  0  0  # atno 17320 bound_to 7965
  144.9210  139.4412  143.6541 LP  0  0  0  0  0  0  0  0  0  0  0  0  # atno 17321 bound_to 7965
  140.7796  143.3897  151.1331 LP  0  0  0  0  0  0  0  0  0  0  0  0  # atno 17342 bound_to 10162
  139.7542  143.8732  152.3084 LP  0  0  0  0  0  0  0  0  0  0  0  0  # atno 17343 bound_to 10162
  156.0839  130.3670  150.0525 LP  0  0  0  0  0  0  0  0  0  0  0  0  # atno 17370 bound_to 10713
  156.8667  130.9510  151.3613 LP  0  0  0  0  0  0  0  0  0  0  0  0  # atno 17371 bound_to 10713
  140.8016  133.8500  155.8732 LP  0  0  0  0  0  0  0  0  0  0  0  0  # atno 17394 bound_to 11000
  140.9587  134.1684  157.4671 LP  0  0  0  0  0  0  0  0  0  0  0  0  # atno 17395 bound_to 11000

$$$$
