AV-unprocessed.smi:2067|AV-procd|sdf|8424|dock8
  -GOLD-   2272011113D 1   1.00000     0.00000
 Structure written by MMmdl.
 47 48  0  0  0  0  0  0  0  0  1 V2000
  146.2057  130.0736  151.9836 C   0  0  0  0  0  0  0  0  0  0  0  0
  146.1014  131.3145  151.0834 C   0  0  1  0  0  0  0  0  0  0  0  0
  144.7120  131.4310  150.4249 C   0  0  0  0  0  0  0  0  0  0  0  0
  144.6298  132.6523  149.4955 C   0  0  0  0  0  0  0  0  0  0  0  0
  144.9939  133.9441  150.2419 C   0  0  0  0  0  0  0  0  0  0  0  0
  146.3794  133.8357  150.9003 C   0  0  0  0  0  0  0  0  0  0  0  0
  146.4742  132.6114  151.8365 C   0  0  1  0  0  0  0  0  0  0  0  0
  145.5881  132.7703  152.9392 O   0  0  0  0  0  0  0  0  0  0  0  0
  145.9180  133.8448  153.8062 C   0  0  0  0  0  0  0  0  0  0  0  0
  146.4230  133.2692  155.1318 C   0  0  0  0  0  0  0  0  0  0  0  0
  147.4363  132.2512  154.9037 N   0  0  0  0  0  0  0  0  0  0  0  0
  148.6897  132.1897  155.5027 C   0  0  0  0  0  0  0  0  0  0  0  0
  149.1012  133.1432  156.3846 C   0  0  0  0  0  0  0  0  0  0  0  0
  148.3097  134.2805  156.7356 C   0  0  0  0  0  0  0  0  0  0  0  0
  147.6797  135.2050  157.0345 N   0  0  0  0  0  0  0  0  0  0  0  0
  150.4180  133.0986  157.0168 C   0  0  0  0  0  0  0  0  0  0  0  0
  150.8259  133.9481  157.8123 O   0  0  0  0  0  0  0  0  0  0  0  0
  151.2167  131.9995  156.6394 N   0  0  0  0  0  0  0  0  0  0  0  0
  152.5384  131.9191  157.2300 C   0  0  0  0  0  0  0  0  0  0  0  0
  150.8264  131.0155  155.7070 C   0  0  0  0  0  0  0  0  0  0  0  0
  151.5827  130.0951  155.3817 O   0  0  0  0  0  0  0  0  0  0  0  0
  149.5279  131.1277  155.1521 N   0  0  0  0  0  0  0  0  0  0  0  0
  149.1733  130.0681  154.2297 C   0  0  0  0  0  0  0  0  0  0  0  0
  145.4890  130.1138  152.8046 H   0  0  0  0  0  0  0  0  0  0  0  0
  147.2025  129.9853  152.4160 H   0  0  0  0  0  0  0  0  0  0  0  0
  146.0100  129.1622  151.4181 H   0  0  0  0  0  0  0  0  0  0  0  0
  146.8304  131.1842  150.2823 H   0  0  0  0  0  0  0  0  0  0  0  0
  144.4919  130.5265  149.8566 H   0  0  0  0  0  0  0  0  0  0  0  0
  143.9416  131.5053  151.1936 H   0  0  0  0  0  0  0  0  0  0  0  0
  145.3062  132.5147  148.6508 H   0  0  0  0  0  0  0  0  0  0  0  0
  143.6261  132.7348  149.0776 H   0  0  0  0  0  0  0  0  0  0  0  0
  144.9747  134.7894  149.5534 H   0  0  0  0  0  0  0  0  0  0  0  0
  144.2402  134.1491  151.0028 H   0  0  0  0  0  0  0  0  0  0  0  0
  147.1381  133.7492  150.1217 H   0  0  0  0  0  0  0  0  0  0  0  0
  146.6063  134.7558  151.4378 H   0  0  0  0  0  0  0  0  0  0  0  0
  147.4990  132.5120  152.1994 H   0  0  0  0  0  0  0  0  0  0  0  0
  146.7019  134.4477  153.3461 H   0  0  0  0  0  0  0  0  0  0  0  0
  145.0643  134.4999  153.9820 H   0  0  0  0  0  0  0  0  0  0  0  0
  146.8305  134.0574  155.7654 H   0  0  0  0  0  0  0  0  0  0  0  0
  145.5785  132.8310  155.6638 H   0  0  0  0  0  0  0  0  0  0  0  0
  147.0282  131.3512  154.6945 H   0  0  0  0  0  0  0  0  0  0  0  0
  152.9558  130.9190  157.1168 H   0  0  0  0  0  0  0  0  0  0  0  0
  152.4513  132.1316  158.2969 H   0  0  0  0  0  0  0  0  0  0  0  0
  153.1578  132.6609  156.7241 H   0  0  0  0  0  0  0  0  0  0  0  0
  149.8527  130.1356  153.3782 H   0  0  0  0  0  0  0  0  0  0  0  0
  148.1445  130.1779  153.8961 H   0  0  0  0  0  0  0  0  0  0  0  0
  149.2787  129.1191  154.7591 H   0  0  0  0  0  0  0  0  0  0  0  0
  1  2  1  0  0  0  0
  1 24  1  0  0  0  0
  1 25  1  0  0  0  0
  1 26  1  0  0  0  0
  2  7  1  0  0  0  0
  2  3  1  0  0  0  0
  2 27  1  0  0  0  0
  3  4  1  0  0  0  0
  3 28  1  0  0  0  0
  3 29  1  0  0  0  0
  4  5  1  0  0  0  0
  4 30  1  0  0  0  0
  4 31  1  0  0  0  0
  5  6  1  0  0  0  0
  5 32  1  0  0  0  0
  5 33  1  0  0  0  0
  6  7  1  0  0  0  0
  6 34  1  0  0  0  0
  6 35  1  0  0  0  0
  7  8  1  0  0  0  0
  7 36  1  0  0  0  0
  8  9  1  0  0  0  0
  9 10  1  0  0  0  0
  9 37  1  0  0  0  0
  9 38  1  0  0  0  0
 10 11  1  0  0  0  0
 10 39  1  0  0  0  0
 10 40  1  0  0  0  0
 11 12  1  0  0  0  0
 11 41  1  0  0  0  0
 12 22  1  0  0  0  0
 12 13  2  0  0  0  0
 13 14  1  0  0  0  0
 13 16  1  0  0  0  0
 14 15  3  0  0  0  0
 16 17  2  0  0  0  0
 16 18  1  0  0  0  0
 18 19  1  0  0  0  0
 18 20  1  0  0  0  0
 19 42  1  0  0  0  0
 19 43  1  0  0  0  0
 19 44  1  0  0  0  0
 20 21  2  0  0  0  0
 20 22  1  0  0  0  0
 22 23  1  0  0  0  0
 23 45  1  0  0  0  0
 23 46  1  0  0  0  0
 23 47  1  0  0  0  0
M  END
> <s_m_source_file>
AV-unprocessed.smi

> <i_m_source_file_index>
2067

> <i_lp_mmshare_version>
43012

> <i_f3d_flags>
0

> <s_epik_input>
W0NIM11bQ0BASF0xW0NIMl1bQ0gyXVtDSDJdW0NIMl1bQ0BIXTFPW0NIMl1bQ0gyXVtOSF1jMmMoQyNOKWMoPU8pbihbQ0gzXSljKD1PKW4yW0NIM10=

> <s_epik_cmdline>
J2VwaWtfcHl0aG9uJywgJy1waCcsICc3LjAnLCAnLXRuJywgJzgnLCAnLW1hJywgJzIwMCcsICctbWV0YWxfYmluZGluZycsICctaW1hZScsICc8aW5maWxlLm1hZT4nLCAnLW9tYWUnLCAnPG91dGZpbGUubWFlPic=

> <r_epik_Ionization_Penalty>
0.00056529

> <r_epik_Ionization_Penalty_Charging>
3.94678e-10

> <r_epik_Ionization_Penalty_Neutral>
0.000565289

> <r_epik_State_Penalty>
0.000354611

> <r_epik_Charging_Adjusted_Penalty>
0.000354611

> <i_epik_Tot_Q>
0

> <i_epik_Tot_abs_Q>
0

> <r_epik_Metal_State_Penalty>
-0

> <b_epik_Metal_Only>
0

> <s_lp_Force_Field>
OPLS_2005

> <r_lp_Energy>
33.1423

> <b_lp_Chiralities_Consistent>
1

> <s_lp_Variant>
AV-unprocessed.smi:2067-2

> <Gold.Version>
5.8.1

> <Gold.Id.Protein>
6NUR|6NUR_protein|mol2

> <Gold.PLP.Fitness>
37.7601

> <Gold.PLP.PLP>
-35.8836

> <Gold.PLP.part.hbond>
-1.0000

> <Gold.PLP.part.metal>
0.0000

> <Gold.PLP.part.buried>
-5.8510

> <Gold.PLP.part.nonpolar>
-30.1183

> <Gold.PLP.part.repulsive>
0.2222

> <Gold.PLP.ligand.clash>
10.2522

> <Gold.PLP.ligand.torsion>
0.4353

> <Gold.PLP.Chemscore.Hbond>
0.9120

> <Gold.PLP.Chemscore.CHOScore>
0.0000

> <Gold.PLP.Chemscore.Metal>
0.0000

> <Gold.Chemscore.Hbonds>
donor molecule, donor type, donor heavy atom, donor atom, acceptor molecule, acceptor atom, score
      P1  H  6896  6908       L1    17  0.30

> <Gold.PLP.Chemscore.Internal.Correction>
10.2633

> <Gold.Rescore>
     Score         DG    S(hbond)    S(metal)    S(lipo)     H(rot)  DE(clash)    DE(int)     intcor
     10.10     -13.30       1.00        0.00      76.87       1.76       0.02       3.18       ----

> <Gold.Chemscore.Fitness>
10.0999

> <Gold.Chemscore.DG>
-13.3023

> <Gold.Chemscore.ZeroCoef>
-5.4800

> <Gold.Chemscore.Hbond>
0.9968

> <Gold.Chemscore.Metal>
0.0000

> <Gold.Chemscore.Lipo>
76.8728

> <Gold.Chemscore.Internal_Hbond>
0.0000

> <Gold.Chemscore.DEClash>
0.0174

> <Gold.Chemscore.DEInternal>
3.1849

> <Gold.Chemscore.Rot>
1.7583

> <Gold.Chemscore.Internal.Correction>
   9.000000E+99

> <Gold.Chemscore.Hbonds>
donor molecule, donor type, donor heavy atom, donor atom, acceptor molecule, acceptor atom, score
      P1  H  6896  6908       L1    17  0.27

> <Gold.Chemscore.Hbond.Weighted>
-3.3294

> <Gold.Chemscore.Metal.Weighted>
-0.0000

> <Gold.Chemscore.Lipo.Weighted>
-8.9941

> <Gold.Chemscore.Internal_Hbond.Weighted>
0.0000

> <Gold.Chemscore.DEClash.Weighted>
0.0174

> <Gold.Chemscore.DEInternal.Weighted>
3.1849

> <Gold.Chemscore.Rot.Weighted>
4.5012

> <Gold.Chemscore.Internal.Correction.Weighted>
   9.000000E+99

> <Gold.Protein.RotatedTorsions>
[ 6907 6896 6895 6894 ] final   78.12 input  -60.11 | X-H torsion
[ 7974 7965 7964 7962 ] final  166.94 input  175.53 | X-H torsion
[ 8008 7997 7996 7995 ] final  129.16 input   59.86 | X-H torsion
[ 10167 10162 10161 10158 ] final  -77.55 input  -65.29 | X-H torsion
[ 10718 10713 10712 10709 ] final  -57.91 input   66.30 | X-H torsion
[ 10763 10752 10751 10750 ] final  -49.29 input  -60.55 | X-H torsion
[ 11005 11000 10999 10996 ] final   53.34 input  -57.11 | X-H torsion

> <Gold.Protein.ActiveResidues>
 VAL166  LYS551  ARG553  GLY616  TRP617  ASP618  TYR619  PRO620  LYS621  CYS622 
 ASP623  PHE694  ASN695  SER759  ASP760  ASP761  ALA762  ILE779  LEU786  VAL792 
 PHE793  MET794  SER795  GLU796  ALA797  LYS798  CYS799  TRP800  GLU811  SER814 

> <Gold.Protein.RotatedAtoms>
  152.5146  134.3712  159.9318 H   0  0  0  0  0  0  0  0  0  0  0  0  # atno 6907 bound_to 6896
  151.3667  133.3863  159.2703 H   0  0  0  0  0  0  0  0  0  0  0  0  # atno 6908 bound_to 6896
  150.9609  134.9017  159.7788 H   0  0  0  0  0  0  0  0  0  0  0  0  # atno 6909 bound_to 6896
  144.7443  139.8689  143.6387 H   0  0  0  0  0  0  0  0  0  0  0  0  # atno 7974 bound_to 7965
  156.2930  140.2627  156.2554 H   0  0  0  0  0  0  0  0  0  0  0  0  # atno 8008 bound_to 7997
  154.9841  140.0389  157.2309 H   0  0  0  0  0  0  0  0  0  0  0  0  # atno 8009 bound_to 7997
  154.7745  140.2784  155.6116 H   0  0  0  0  0  0  0  0  0  0  0  0  # atno 8010 bound_to 7997
  140.4760  143.2414  151.8132 H   0  0  0  0  0  0  0  0  0  0  0  0  # atno 10167 bound_to 10162
  156.1175  130.4169  150.0505 H   0  0  0  0  0  0  0  0  0  0  0  0  # atno 10718 bound_to 10713
  154.0917  135.6576  153.4853 H   0  0  0  0  0  0  0  0  0  0  0  0  # atno 10763 bound_to 10752
  153.0319  135.5204  154.7374 H   0  0  0  0  0  0  0  0  0  0  0  0  # atno 10764 bound_to 10752
  154.6500  135.3000  154.9968 H   0  0  0  0  0  0  0  0  0  0  0  0  # atno 10765 bound_to 10752
  140.0775  134.5384  155.8981 H   0  0  0  0  0  0  0  0  0  0  0  0  # atno 11005 bound_to 11000
  146.1295  139.4327  143.0178 LP  0  0  0  0  0  0  0  0  0  0  0  0  # atno 17320 bound_to 7965
  145.7185  141.0083  143.1415 LP  0  0  0  0  0  0  0  0  0  0  0  0  # atno 17321 bound_to 7965
  139.4825  144.4832  151.9280 LP  0  0  0  0  0  0  0  0  0  0  0  0  # atno 17342 bound_to 10162
  140.3918  144.2606  150.5899 LP  0  0  0  0  0  0  0  0  0  0  0  0  # atno 17343 bound_to 10162
  156.8452  130.9439  151.3629 LP  0  0  0  0  0  0  0  0  0  0  0  0  # atno 17370 bound_to 10713
  157.6358  130.8766  149.9357 LP  0  0  0  0  0  0  0  0  0  0  0  0  # atno 17371 bound_to 10713
  141.2035  133.6632  156.6065 LP  0  0  0  0  0  0  0  0  0  0  0  0  # atno 17394 bound_to 11000
  140.3536  134.7747  157.4484 LP  0  0  0  0  0  0  0  0  0  0  0  0  # atno 17395 bound_to 11000

$$$$
