AV-unprocessed.smi:1464|AV-procd|sdf|5936|dock9
  -GOLD-   22720 6 13D 1   1.00000     0.00000
 Structure written by MMmdl.
 40 41  0  0  0  0  0  0  0  0  2 V2000
  151.9921  145.5127  160.1172 C   0  0  0  0  0  0  0  0  0  0  0  0
  152.1547  144.2825  159.2087 C   0  0  1  0  0  0  0  0  0  0  0  0
  152.4607  143.0081  160.0215 C   0  0  0  0  0  0  0  0  0  0  0  0
  152.7220  141.8035  159.1037 C   0  0  0  0  0  0  0  0  0  0  0  0
  151.5617  141.5800  158.1226 C   0  0  0  0  0  0  0  0  0  0  0  0
  151.2652  142.8546  157.3091 C   0  0  1  0  0  0  0  0  0  0  0  0
  150.1826  142.5975  156.3622 N   0  0  0  0  0  0  0  0  0  0  0  0
  150.1209  141.5575  155.5164 C   0  0  0  0  0  0  0  0  0  0  0  0
  150.9753  140.6710  155.4744 O   0  0  0  0  0  0  0  0  0  0  0  0
  148.8966  141.5156  154.5892 C   0  0  0  0  0  0  0  0  0  0  0  0
  147.6217  141.7268  155.2904 N   0  0  0  0  0  0  0  0  0  0  0  0
  147.5091  140.9946  156.5491 N   0  5  0  0  0  0  0  0  0  0  0  0
  146.3602  141.0883  157.2696 C   0  0  0  0  0  0  0  0  0  0  0  0
  146.1844  140.4843  158.3253 O   0  0  0  0  0  0  0  0  0  0  0  0
  145.3030  141.9478  156.7633 C   0  0  0  0  0  0  0  0  0  0  0  0
  145.4477  142.6392  155.6156 C   0  0  0  0  0  0  0  0  0  0  0  0
  146.6589  142.5640  154.8078 C   0  0  0  0  0  0  0  0  0  0  0  0
  146.8028  143.2034  153.7651 O   0  0  0  0  0  0  0  0  0  0  0  0
  150.9664  144.0685  158.2331 C   0  0  1  0  0  0  0  0  0  0  0  0
  149.5936  143.9733  158.9398 C   0  0  0  0  0  0  0  0  0  0  0  0
  151.1983  145.3732  160.8509 H   0  0  0  0  0  0  0  0  0  0  0  0
  151.7598  146.4045  159.5346 H   0  0  0  0  0  0  0  0  0  0  0  0
  152.9111  145.7115  160.6690 H   0  0  0  0  0  0  0  0  0  0  0  0
  153.0322  144.4809  158.5908 H   0  0  0  0  0  0  0  0  0  0  0  0
  153.3330  143.1729  160.6549 H   0  0  0  0  0  0  0  0  0  0  0  0
  151.6339  142.7845  160.6961 H   0  0  0  0  0  0  0  0  0  0  0  0
  153.6434  141.9669  158.5433 H   0  0  0  0  0  0  0  0  0  0  0  0
  152.8812  140.9066  159.7031 H   0  0  0  0  0  0  0  0  0  0  0  0
  151.8107  140.7585  157.4498 H   0  0  0  0  0  0  0  0  0  0  0  0
  150.6731  141.2655  158.6711 H   0  0  0  0  0  0  0  0  0  0  0  0
  152.1633  143.0805  156.7303 H   0  0  0  0  0  0  0  0  0  0  0  0
  149.4342  143.2743  156.3313 H   0  0  0  0  0  0  0  0  0  0  0  0
  149.0394  142.2687  153.8123 H   0  0  0  0  0  0  0  0  0  0  0  0
  148.8622  140.5576  154.0668 H   0  0  0  0  0  0  0  0  0  0  0  0
  144.3827  142.0370  157.3214 H   0  0  0  0  0  0  0  0  0  0  0  0
  144.6374  143.2685  155.2787 H   0  0  0  0  0  0  0  0  0  0  0  0
  150.9179  144.9534  157.5967 H   0  0  0  0  0  0  0  0  0  0  0  0
  149.5420  143.1271  159.6238 H   0  0  0  0  0  0  0  0  0  0  0  0
  148.7806  143.8650  158.2221 H   0  0  0  0  0  0  0  0  0  0  0  0
  149.3752  144.8740  159.5120 H   0  0  0  0  0  0  0  0  0  0  0  0
  1  2  1  0  0  0  0
  1 21  1  0  0  0  0
  1 22  1  0  0  0  0
  1 23  1  0  0  0  0
  2 19  1  0  0  0  0
  2  3  1  0  0  0  0
  2 24  1  0  0  0  0
  3  4  1  0  0  0  0
  3 25  1  0  0  0  0
  3 26  1  0  0  0  0
  4  5  1  0  0  0  0
  4 27  1  0  0  0  0
  4 28  1  0  0  0  0
  5  6  1  0  0  0  0
  5 29  1  0  0  0  0
  5 30  1  0  0  0  0
  6  7  1  0  0  0  0
  6 19  1  0  0  0  0
  6 31  1  0  0  0  0
  7  8  1  0  0  0  0
  7 32  1  0  0  0  0
  8  9  2  0  0  0  0
  8 10  1  0  0  0  0
 10 33  1  0  0  0  0
 10 34  1  0  0  0  0
 10 11  1  0  0  0  0
 11 12  1  0  0  0  0
 11 17  1  0  0  0  0
 12 13  1  0  0  0  0
 13 14  2  0  0  0  0
 13 15  1  0  0  0  0
 15 35  1  0  0  0  0
 15 16  2  0  0  0  0
 16 36  1  0  0  0  0
 16 17  1  0  0  0  0
 17 18  2  0  0  0  0
 19 20  1  0  0  0  0
 19 37  1  0  0  0  0
 20 38  1  0  0  0  0
 20 39  1  0  0  0  0
 20 40  1  0  0  0  0
M  CHG  1  12  -1
M  END
> <s_m_source_file>
AV-unprocessed.smi

> <i_m_source_file_index>
1464

> <i_lp_mmshare_version>
43012

> <i_f3d_flags>
0

> <s_epik_input>
W0NIM11bQ0BASF0xW0NIMl1bQ0gyXVtDSDJdW0NASF0oW0NASF0xW0NIM10pW05IXUMoPU8pW0NIMl1uMltuSF1jKD1PKVtjSF1bY0hdYzI9Tw==

> <s_epik_cmdline>
J2VwaWtfcHl0aG9uJywgJy1waCcsICc3LjAnLCAnLXRuJywgJzgnLCAnLW1hJywgJzIwMCcsICctbWV0YWxfYmluZGluZycsICctaW1hZScsICc8aW5maWxlLm1hZT4nLCAnLW9tYWUnLCAnPG91dGZpbGUubWFlPic=

> <r_lp_tautomer_probability>
1

> <r_epik_Ionization_Penalty>
0.101366

> <r_epik_Ionization_Penalty_Charging>
0.101366

> <r_epik_Ionization_Penalty_Neutral>
1.90469e-08

> <r_epik_State_Penalty>
0.035861

> <r_epik_Charging_Adjusted_Penalty>
0.137227

> <i_epik_Tot_Q>
-1

> <i_epik_Tot_abs_Q>
1

> <r_epik_Metal_State_Penalty>
0.035861

> <b_epik_Metal_Only>
0

> <s_lp_Force_Field>
OPLS_2005

> <r_lp_Energy>
30.1614

> <b_lp_Chiralities_Consistent>
1

> <s_lp_Variant>
AV-unprocessed.smi:1464-2

> <Gold.Version>
5.8.1

> <Gold.Id.Protein>
6NUR|6NUR_protein|mol2

> <Gold.PLP.Fitness>
44.4182

> <Gold.PLP.PLP>
-39.8332

> <Gold.PLP.part.hbond>
-4.0000

> <Gold.PLP.part.metal>
0.0000

> <Gold.PLP.part.buried>
-2.4439

> <Gold.PLP.part.nonpolar>
-33.3130

> <Gold.PLP.part.repulsive>
0.3834

> <Gold.PLP.ligand.clash>
0.0000

> <Gold.PLP.ligand.torsion>
0.3773

> <Gold.PLP.Chemscore.Hbond>
1.7748

> <Gold.PLP.Chemscore.CHOScore>
0.0000

> <Gold.PLP.Chemscore.Metal>
0.0000

> <Gold.Chemscore.Hbonds>
donor molecule, donor type, donor heavy atom, donor atom, acceptor molecule, acceptor atom, score
      L1  H     7    32       P1  8028  0.93
      P1  H  7989  7998       L1     9  0.74
      P1  H  8022  8030       L1    18  0.07

> <Gold.PLP.Chemscore.Internal.Correction>
0.0151

> <Gold.Rescore>
     Score         DG    S(hbond)    S(metal)    S(lipo)     H(rot)  DE(clash)    DE(int)     intcor
     15.35     -17.45       1.59        0.00      92.89       1.64       0.45       1.65       ----

> <Gold.Chemscore.Fitness>
15.3489

> <Gold.Chemscore.DG>
-17.4539

> <Gold.Chemscore.ZeroCoef>
-5.4800

> <Gold.Chemscore.Hbond>
1.5908

> <Gold.Chemscore.Metal>
0.0000

> <Gold.Chemscore.Lipo>
92.8932

> <Gold.Chemscore.Internal_Hbond>
0.0000

> <Gold.Chemscore.DEClash>
0.4513

> <Gold.Chemscore.DEInternal>
1.6537

> <Gold.Chemscore.Rot>
1.6438

> <Gold.Chemscore.Internal.Correction>
   9.000000E+99

> <Gold.Chemscore.Hbonds>
donor molecule, donor type, donor heavy atom, donor atom, acceptor molecule, acceptor atom, score
      L1  H     7    32       P1  8028  0.90
      P1  H  6934  6946       L1    14  0.01
      P1  H  7989  7998       L1     9  0.18
      P1  H  8022  8030       L1    18  0.07

> <Gold.Chemscore.Hbond.Weighted>
-5.3134

> <Gold.Chemscore.Metal.Weighted>
-0.0000

> <Gold.Chemscore.Lipo.Weighted>
-10.8685

> <Gold.Chemscore.Internal_Hbond.Weighted>
0.0000

> <Gold.Chemscore.DEClash.Weighted>
0.4513

> <Gold.Chemscore.DEInternal.Weighted>
1.6537

> <Gold.Chemscore.Rot.Weighted>
4.2080

> <Gold.Chemscore.Internal.Correction.Weighted>
   9.000000E+99

> <Gold.Protein.RotatedTorsions>
[ 6907 6896 6895 6894 ] final  -54.42 input  -60.11 | X-H torsion
[ 7974 7965 7964 7962 ] final   50.42 input  175.53 | X-H torsion
[ 8008 7997 7996 7995 ] final   69.75 input   59.86 | X-H torsion
[ 10167 10162 10161 10158 ] final   82.27 input  -65.29 | X-H torsion
[ 10718 10713 10712 10709 ] final  143.87 input   66.30 | X-H torsion
[ 10763 10752 10751 10750 ] final  175.85 input  -60.55 | X-H torsion
[ 11005 11000 10999 10996 ] final -119.89 input  -57.11 | X-H torsion

> <Gold.Protein.ActiveResidues>
 VAL166  LYS551  ARG553  GLY616  TRP617  ASP618  TYR619  PRO620  LYS621  CYS622 
 ASP623  PHE694  ASN695  SER759  ASP760  ASP761  ALA762  ILE779  LEU786  VAL792 
 PHE793  MET794  SER795  GLU796  ALA797  LYS798  CYS799  TRP800  GLU811  SER814 

> <Gold.Protein.RotatedAtoms>
  150.8339  134.7604  159.6876 H   0  0  0  0  0  0  0  0  0  0  0  0  # atno 6907 bound_to 6896
  152.4439  134.5531  159.9882 H   0  0  0  0  0  0  0  0  0  0  0  0  # atno 6908 bound_to 6896
  151.5686  133.3355  159.3021 H   0  0  0  0  0  0  0  0  0  0  0  0  # atno 6909 bound_to 6896
  146.0014  139.4443  143.0013 H   0  0  0  0  0  0  0  0  0  0  0  0  # atno 7974 bound_to 7965
  155.7284  140.3492  155.5048 H   0  0  0  0  0  0  0  0  0  0  0  0  # atno 8008 bound_to 7997
  155.9205  140.1066  157.1232 H   0  0  0  0  0  0  0  0  0  0  0  0  # atno 8009 bound_to 7997
  154.4069  140.1250  156.4660 H   0  0  0  0  0  0  0  0  0  0  0  0  # atno 8010 bound_to 7997
  139.9305  144.6155  150.8349 H   0  0  0  0  0  0  0  0  0  0  0  0  # atno 10167 bound_to 10162
  157.3638  131.0969  151.0891 H   0  0  0  0  0  0  0  0  0  0  0  0  # atno 10718 bound_to 10713
  154.4732  135.2772  155.1627 H   0  0  0  0  0  0  0  0  0  0  0  0  # atno 10763 bound_to 10752
  154.3367  135.6178  153.5580 H   0  0  0  0  0  0  0  0  0  0  0  0  # atno 10764 bound_to 10752
  152.9866  135.5778  154.5117 H   0  0  0  0  0  0  0  0  0  0  0  0  # atno 10765 bound_to 10752
  141.0183  134.0162  157.3318 H   0  0  0  0  0  0  0  0  0  0  0  0  # atno 11005 bound_to 11000
  145.7482  140.9982  143.1264 LP  0  0  0  0  0  0  0  0  0  0  0  0  # atno 17320 bound_to 7965
  144.6920  139.9182  143.7466 LP  0  0  0  0  0  0  0  0  0  0  0  0  # atno 17321 bound_to 7965
  140.7638  143.3233  151.2572 LP  0  0  0  0  0  0  0  0  0  0  0  0  # atno 17342 bound_to 10162
  139.6786  143.9894  152.2795 LP  0  0  0  0  0  0  0  0  0  0  0  0  # atno 17343 bound_to 10162
  157.2020  130.6399  149.5742 LP  0  0  0  0  0  0  0  0  0  0  0  0  # atno 17370 bound_to 10713
  155.9742  130.4688  150.6371 LP  0  0  0  0  0  0  0  0  0  0  0  0  # atno 17371 bound_to 10713
  139.9130  135.0193  156.7770 LP  0  0  0  0  0  0  0  0  0  0  0  0  # atno 17394 bound_to 11000
  140.6616  133.9640  155.7808 LP  0  0  0  0  0  0  0  0  0  0  0  0  # atno 17395 bound_to 11000

$$$$
