AV-unprocessed.smi:111|AV-procd|sdf|1082|dock10
  -GOLD-   2262018173D 1   1.00000     0.00000
 Structure written by MMmdl.
 46 48  0  0  0  0  0  0  0  0  1 V2000
  150.5871  139.3549  154.7611 O   0  0  0  0  0  0  0  0  0  0  0  0
  150.9068  140.0803  155.7044 C   0  0  0  0  0  0  0  0  0  0  0  0
  150.3941  141.4326  155.8858 C   0  0  0  0  0  0  0  0  0  0  0  0
  149.4828  141.9185  155.0260 F   0  0  0  0  0  0  0  0  0  0  0  0
  150.8070  142.2029  156.9151 C   0  0  0  0  0  0  0  0  0  0  0  0
  151.7483  141.7898  157.8448 N   0  0  0  0  0  0  0  0  0  0  0  0
  152.1221  142.6503  159.0349 C   0  0  1  0  0  0  0  0  0  0  0  0
  152.8663  143.9465  158.6680 C   0  0  0  0  0  0  0  0  0  0  0  0
  151.7936  145.0014  158.8581 C   0  0  0  0  0  0  0  0  0  0  0  0
  150.9609  144.3937  159.9803 C   0  0  0  0  0  0  0  0  0  0  0  0
  150.9374  143.0031  159.6851 O   0  0  0  0  0  0  0  0  0  0  0  0
  152.2365  140.4637  157.7906 C   0  0  0  0  0  0  0  0  0  0  0  0
  153.0159  140.0418  158.6484 O   0  0  0  0  0  0  0  0  0  0  0  0
  151.8107  139.6549  156.7075 N   0  0  0  0  0  0  0  0  0  0  0  0
  152.3390  138.3011  156.5947 C   0  0  0  0  0  0  0  0  0  0  0  0
  151.2814  137.1666  156.5288 C   0  0  1  0  0  0  0  0  0  0  0  0
  151.9491  135.9318  156.3623 O   0  0  0  0  0  0  0  0  0  0  0  0
  150.2902  137.0842  157.7094 C   0  0  0  0  0  0  0  0  0  0  0  0
  149.4064  135.8268  157.6814 C   0  0  0  0  0  0  0  0  0  0  0  0
  148.7116  135.5914  159.0090 C   0  0  0  0  0  0  0  0  0  0  0  0
  148.0167  134.3854  159.2399 C   0  0  0  0  0  0  0  0  0  0  0  0
  147.3763  134.1629  160.4745 C   0  0  0  0  0  0  0  0  0  0  0  0
  147.4290  135.1448  161.4828 C   0  0  0  0  0  0  0  0  0  0  0  0
  148.1231  136.3494  161.2563 C   0  0  0  0  0  0  0  0  0  0  0  0
  148.7640  136.5724  160.0218 C   0  0  0  0  0  0  0  0  0  0  0  0
  150.3645  143.1823  157.0008 H   0  0  0  0  0  0  0  0  0  0  0  0
  152.7473  142.0280  159.6770 H   0  0  0  0  0  0  0  0  0  0  0  0
  153.6629  144.0966  159.3976 H   0  0  0  0  0  0  0  0  0  0  0  0
  153.3210  143.9225  157.6778 H   0  0  0  0  0  0  0  0  0  0  0  0
  152.1989  145.9813  159.1121 H   0  0  0  0  0  0  0  0  0  0  0  0
  151.1886  145.1061  157.9575 H   0  0  0  0  0  0  0  0  0  0  0  0
  151.4471  144.5464  160.9450 H   0  0  0  0  0  0  0  0  0  0  0  0
  149.9548  144.8099  160.0335 H   0  0  0  0  0  0  0  0  0  0  0  0
  152.9688  138.2690  155.7053 H   0  0  0  0  0  0  0  0  0  0  0  0
  153.0502  138.1592  157.4116 H   0  0  0  0  0  0  0  0  0  0  0  0
  150.7075  137.3147  155.6133 H   0  0  0  0  0  0  0  0  0  0  0  0
  151.6573  135.3391  157.0388 H   0  0  0  0  0  0  0  0  0  0  0  0
  150.8283  137.1286  158.6572 H   0  0  0  0  0  0  0  0  0  0  0  0
  149.6362  137.9561  157.6825 H   0  0  0  0  0  0  0  0  0  0  0  0
  148.6553  135.9146  156.8951 H   0  0  0  0  0  0  0  0  0  0  0  0
  150.0044  134.9477  157.4379 H   0  0  0  0  0  0  0  0  0  0  0  0
  147.9759  133.6273  158.4712 H   0  0  0  0  0  0  0  0  0  0  0  0
  146.8452  133.2387  160.6484 H   0  0  0  0  0  0  0  0  0  0  0  0
  146.9380  134.9739  162.4296 H   0  0  0  0  0  0  0  0  0  0  0  0
  148.1647  137.1021  162.0298 H   0  0  0  0  0  0  0  0  0  0  0  0
  149.2969  137.4973  159.8560 H   0  0  0  0  0  0  0  0  0  0  0  0
  1  2  2  0  0  0  0
  2 14  1  0  0  0  0
  2  3  1  0  0  0  0
  3  4  1  0  0  0  0
  3  5  2  0  0  0  0
  5  6  1  0  0  0  0
  5 26  1  0  0  0  0
  6  7  1  0  0  0  0
  6 12  1  0  0  0  0
  7 11  1  0  0  0  0
  7  8  1  0  0  0  0
  7 27  1  0  0  0  0
  8  9  1  0  0  0  0
  8 28  1  0  0  0  0
  8 29  1  0  0  0  0
  9 10  1  0  0  0  0
  9 30  1  0  0  0  0
  9 31  1  0  0  0  0
 10 11  1  0  0  0  0
 10 32  1  0  0  0  0
 10 33  1  0  0  0  0
 12 13  2  0  0  0  0
 12 14  1  0  0  0  0
 14 15  1  0  0  0  0
 15 16  1  0  0  0  0
 15 34  1  0  0  0  0
 15 35  1  0  0  0  0
 16 17  1  0  0  0  0
 16 18  1  0  0  0  0
 16 36  1  0  0  0  0
 17 37  1  0  0  0  0
 18 19  1  0  0  0  0
 18 38  1  0  0  0  0
 18 39  1  0  0  0  0
 19 20  1  0  0  0  0
 19 40  1  0  0  0  0
 19 41  1  0  0  0  0
 20 25  1  0  0  0  0
 20 21  2  0  0  0  0
 21 22  1  0  0  0  0
 21 42  1  0  0  0  0
 22 23  2  0  0  0  0
 22 43  1  0  0  0  0
 23 24  1  0  0  0  0
 23 44  1  0  0  0  0
 24 25  2  0  0  0  0
 24 45  1  0  0  0  0
 25 46  1  0  0  0  0
M  END
> <s_m_source_file>
AV-unprocessed.smi

> <i_m_source_file_index>
111

> <i_lp_mmshare_version>
43012

> <i_f3d_flags>
0

> <s_epik_input>
TzFbQ0gyXVtDSDJdW0NIMl1bQ0BIXTFuKFtjSF1jKEYpYzI9TyljKD1PKW4yW0NIMl1bQ0BIXShbT0hdKVtDSDJdW0NIMl1jM1tjSF1bY0hdW2NIXVtjSF1bY0hdMw==

> <s_epik_cmdline>
J2VwaWtfcHl0aG9uJywgJy1waCcsICc3LjAnLCAnLXRuJywgJzgnLCAnLW1hJywgJzIwMCcsICctbWV0YWxfYmluZGluZycsICctaW1hZScsICc8aW5maWxlLm1hZT4nLCAnLW9tYWUnLCAnPG91dGZpbGUubWFlPic=

> <r_lp_tautomer_probability>
1

> <r_epik_Ionization_Penalty>
1.88248e-07

> <r_epik_Ionization_Penalty_Charging>
4.03974e-08

> <r_epik_Ionization_Penalty_Neutral>
1.47851e-07

> <r_epik_State_Penalty>
-0

> <r_epik_Charging_Adjusted_Penalty>
4.03974e-08

> <i_epik_Tot_Q>
0

> <i_epik_Tot_abs_Q>
0

> <r_epik_Metal_State_Penalty>
-0

> <b_epik_Metal_Only>
0

> <s_epik_Chemistry_Notes>
This compound contains an acetal/aminal-like group ( X-CH(R)-Y where X, Y are N, S, or O) that may be acid/base labile, releasing an aldehyde.

> <s_lp_Force_Field>
OPLS_2005

> <r_lp_Energy>
37.7752

> <b_lp_Chiralities_Consistent>
1

> <s_lp_Variant>
AV-unprocessed.smi:111-4

> <Gold.Version>
5.8.1

> <Gold.Id.Protein>
6NUR|6NUR_protein|mol2

> <Gold.PLP.Fitness>
51.7522

> <Gold.PLP.PLP>
-45.1592

> <Gold.PLP.part.hbond>
-2.5559

> <Gold.PLP.part.metal>
0.0000

> <Gold.PLP.part.buried>
-3.6928

> <Gold.PLP.part.nonpolar>
-39.6285

> <Gold.PLP.part.repulsive>
0.1189

> <Gold.PLP.ligand.clash>
0.0000

> <Gold.PLP.ligand.torsion>
0.2655

> <Gold.PLP.Chemscore.Hbond>
1.3266

> <Gold.PLP.Chemscore.CHOScore>
1.0000

> <Gold.PLP.Chemscore.Metal>
0.0000

> <Gold.Chemscore.Hbonds>
donor molecule, donor type, donor heavy atom, donor atom, acceptor molecule, acceptor atom, score
      P1  H  7989  7998       L1     1  0.13
      P1  H  7997  8009       L1    13  0.23
      P1  H 10752 10765       L1    17  1.00
      L1  C     5    26       P1  8028  1.00

> <Gold.PLP.Chemscore.Internal.Correction>
0.1441

> <Gold.Rescore>
     Score         DG    S(hbond)    S(metal)    S(lipo)     H(rot)  DE(clash)    DE(int)     intcor
     12.04     -13.76       0.93        0.00     102.79       2.67       0.27       1.45       ----

> <Gold.Chemscore.Fitness>
12.0407

> <Gold.Chemscore.DG>
-13.7623

> <Gold.Chemscore.ZeroCoef>
-5.4800

> <Gold.Chemscore.Hbond>
0.9287

> <Gold.Chemscore.Metal>
0.0000

> <Gold.Chemscore.Lipo>
102.7925

> <Gold.Chemscore.Internal_Hbond>
0.0000

> <Gold.Chemscore.DEClash>
0.2747

> <Gold.Chemscore.DEInternal>
1.4469

> <Gold.Chemscore.Rot>
2.6743

> <Gold.Chemscore.Internal.Correction>
   9.000000E+99

> <Gold.Chemscore.Hbonds>
donor molecule, donor type, donor heavy atom, donor atom, acceptor molecule, acceptor atom, score
      P1  H  7997  8009       L1    13  0.01
      P1  H 10752 10765       L1    17  0.99

> <Gold.Chemscore.Hbond.Weighted>
-3.1018

> <Gold.Chemscore.Metal.Weighted>
-0.0000

> <Gold.Chemscore.Lipo.Weighted>
-12.0267

> <Gold.Chemscore.Internal_Hbond.Weighted>
0.0000

> <Gold.Chemscore.DEClash.Weighted>
0.2747

> <Gold.Chemscore.DEInternal.Weighted>
1.4469

> <Gold.Chemscore.Rot.Weighted>
6.8463

> <Gold.Chemscore.Internal.Correction.Weighted>
   9.000000E+99

> <Gold.Protein.RotatedTorsions>
[ 6907 6896 6895 6894 ] final  116.89 input  -60.11 | X-H torsion
[ 7974 7965 7964 7962 ] final -143.50 input  175.53 | X-H torsion
[ 8008 7997 7996 7995 ] final  144.89 input   59.86 | X-H torsion
[ 10167 10162 10161 10158 ] final  159.42 input  -65.29 | X-H torsion
[ 10718 10713 10712 10709 ] final   74.89 input   66.30 | X-H torsion
[ 10763 10752 10751 10750 ] final -159.28 input  -60.55 | X-H torsion
[ 11005 11000 10999 10996 ] final   59.08 input  -57.11 | X-H torsion

> <Gold.Protein.ActiveResidues>
 VAL166  LYS551  ARG553  GLY616  TRP617  ASP618  TYR619  PRO620  LYS621  CYS622 
 ASP623  PHE694  ASN695  SER759  ASP760  ASP761  ALA762  ILE779  LEU786  VAL792 
 PHE793  MET794  SER795  GLU796  ALA797  LYS798  CYS799  TRP800  GLU811  SER814 

> <Gold.Protein.RotatedAtoms>
  152.4648  133.7900  159.6896 H   0  0  0  0  0  0  0  0  0  0  0  0  # atno 6907 bound_to 6896
  150.8608  133.7637  159.2999 H   0  0  0  0  0  0  0  0  0  0  0  0  # atno 6908 bound_to 6896
  151.5203  135.1070  159.9928 H   0  0  0  0  0  0  0  0  0  0  0  0  # atno 6909 bound_to 6896
  144.8365  140.5826  143.5481 H   0  0  0  0  0  0  0  0  0  0  0  0  # atno 7974 bound_to 7965
  156.2897  140.2223  156.5127 H   0  0  0  0  0  0  0  0  0  0  0  0  # atno 8008 bound_to 7997
  154.7595  140.0474  157.0983 H   0  0  0  0  0  0  0  0  0  0  0  0  # atno 8009 bound_to 7997
  155.0008  140.3101  155.4871 H   0  0  0  0  0  0  0  0  0  0  0  0  # atno 8010 bound_to 7997
  139.4832  144.4731  151.8548 H   0  0  0  0  0  0  0  0  0  0  0  0  # atno 10167 bound_to 10162
  157.6611  130.9700  150.1276 H   0  0  0  0  0  0  0  0  0  0  0  0  # atno 10718 bound_to 10713
  154.7488  135.3087  154.8596 H   0  0  0  0  0  0  0  0  0  0  0  0  # atno 10763 bound_to 10752
  153.9389  135.6777  153.4748 H   0  0  0  0  0  0  0  0  0  0  0  0  # atno 10764 bound_to 10752
  153.1084  135.4878  154.8919 H   0  0  0  0  0  0  0  0  0  0  0  0  # atno 10765 bound_to 10752
  140.0330  134.5984  155.9481 H   0  0  0  0  0  0  0  0  0  0  0  0  # atno 11005 bound_to 11000
  145.4785  139.1497  143.3775 LP  0  0  0  0  0  0  0  0  0  0  0  0  # atno 17320 bound_to 7965
  146.2663  140.4920  142.8833 LP  0  0  0  0  0  0  0  0  0  0  0  0  # atno 17321 bound_to 7965
  140.4202  144.2254  150.5887 LP  0  0  0  0  0  0  0  0  0  0  0  0  # atno 17342 bound_to 10162
  140.4881  143.2356  151.8858 LP  0  0  0  0  0  0  0  0  0  0  0  0  # atno 17343 bound_to 10162
  156.2131  130.3668  149.8646 LP  0  0  0  0  0  0  0  0  0  0  0  0  # atno 17370 bound_to 10713
  156.6519  130.8747  151.3533 LP  0  0  0  0  0  0  0  0  0  0  0  0  # atno 17371 bound_to 10713
  141.1842  133.6552  156.5146 LP  0  0  0  0  0  0  0  0  0  0  0  0  # atno 17394 bound_to 11000
  140.4194  134.7201  157.4881 LP  0  0  0  0  0  0  0  0  0  0  0  0  # atno 17395 bound_to 11000

$$$$
