AV-unprocessed.smi:1893|AV-procd|sdf|7677|dock4
  -GOLD-   22720 9413D 1   1.00000     0.00000
 Structure written by MMmdl.
 43 44  0  0  0  0  0  0  0  0  2 V2000
  148.6063  139.4608  153.9873 C   0  0  0  0  0  0  0  0  0  0  0  0
  147.2731  139.9802  153.4061 C   0  0  2  0  0  0  0  0  0  0  0  0
  147.0942  141.4991  153.6131 C   0  0  0  0  0  0  0  0  0  0  0  0
  146.7785  141.8500  155.0746 C   0  0  0  0  0  0  0  0  0  0  0  0
  145.5638  141.0480  155.5564 C   0  0  0  0  0  0  0  0  0  0  0  0
  145.7701  139.5401  155.3381 C   0  0  0  0  0  0  0  0  0  0  0  0
  146.0771  139.2418  153.9123 N   0  3  2  0  0  0  0  0  0  0  0  0
  146.0965  137.7900  153.5985 C   0  0  0  0  0  0  0  0  0  0  0  0
  145.7201  137.5028  152.1323 C   0  0  0  0  0  0  0  0  0  0  0  0
  146.2375  136.2114  151.6974 N   0  0  0  0  0  0  0  0  0  0  0  0
  145.7924  135.0200  152.1281 C   0  0  0  0  0  0  0  0  0  0  0  0
  144.9099  134.9061  152.9798 O   0  0  0  0  0  0  0  0  0  0  0  0
  146.4402  133.7793  151.4905 C   0  0  1  0  0  0  0  0  0  0  0  0
  147.1982  132.9034  152.5086 C   0  0  0  0  0  0  0  0  0  0  0  0
  145.4455  133.0110  150.7513 N   0  0  0  0  0  0  0  0  0  0  0  0
  145.6029  131.9858  149.9113 C   0  0  0  0  0  0  0  0  0  0  0  0
  144.4714  131.5482  149.3773 N   0  0  0  0  0  0  0  0  0  0  0  0
  143.5916  132.4093  149.9694 C   0  0  0  0  0  0  0  0  0  0  0  0
  144.1235  133.3126  150.7926 N   0  0  0  0  0  0  0  0  0  0  0  0
  149.4474  140.0193  153.5757 H   0  0  0  0  0  0  0  0  0  0  0  0
  148.7736  138.4120  153.7418 H   0  0  0  0  0  0  0  0  0  0  0  0
  148.6543  139.5577  155.0713 H   0  0  0  0  0  0  0  0  0  0  0  0
  147.3143  139.8172  152.3280 H   0  0  0  0  0  0  0  0  0  0  0  0
  147.9851  142.0347  153.2835 H   0  0  0  0  0  0  0  0  0  0  0  0
  146.2787  141.8524  152.9803 H   0  0  0  0  0  0  0  0  0  0  0  0
  147.6400  141.6368  155.7079 H   0  0  0  0  0  0  0  0  0  0  0  0
  146.5836  142.9186  155.1694 H   0  0  0  0  0  0  0  0  0  0  0  0
  145.3790  141.2502  156.6118 H   0  0  0  0  0  0  0  0  0  0  0  0
  144.6729  141.3755  155.0186 H   0  0  0  0  0  0  0  0  0  0  0  0
  146.5694  139.1692  155.9804 H   0  0  0  0  0  0  0  0  0  0  0  0
  144.8642  139.0188  155.6448 H   0  0  0  0  0  0  0  0  0  0  0  0
  147.1011  137.4033  153.7764 H   0  0  0  0  0  0  0  0  0  0  0  0
  145.4341  137.2521  154.2787 H   0  0  0  0  0  0  0  0  0  0  0  0
  144.6385  137.4784  152.0049 H   0  0  0  0  0  0  0  0  0  0  0  0
  146.0927  138.2934  151.4786 H   0  0  0  0  0  0  0  0  0  0  0  0
  146.9694  136.2217  151.0017 H   0  0  0  0  0  0  0  0  0  0  0  0
  147.1718  134.1394  150.7654 H   0  0  0  0  0  0  0  0  0  0  0  0
  147.9900  133.4682  153.0020 H   0  0  0  0  0  0  0  0  0  0  0  0
  147.6660  132.0515  152.0144 H   0  0  0  0  0  0  0  0  0  0  0  0
  146.5380  132.5124  153.2840 H   0  0  0  0  0  0  0  0  0  0  0  0
  146.5660  131.5539  149.6808 H   0  0  0  0  0  0  0  0  0  0  0  0
  142.5283  132.3743  149.7823 H   0  0  0  0  0  0  0  0  0  0  0  0
  145.3028  139.6159  153.3823 H   0  0  0  0  0  0  0  0  0  0  0  0
  1  2  1  0  0  0  0
  1 20  1  0  0  0  0
  1 21  1  0  0  0  0
  1 22  1  0  0  0  0
  2  7  1  0  0  0  0
  2  3  1  0  0  0  0
  2 23  1  0  0  0  0
  3  4  1  0  0  0  0
  3 24  1  0  0  0  0
  3 25  1  0  0  0  0
  4  5  1  0  0  0  0
  4 26  1  0  0  0  0
  4 27  1  0  0  0  0
  5  6  1  0  0  0  0
  5 28  1  0  0  0  0
  5 29  1  0  0  0  0
  6  7  1  0  0  0  0
  6 30  1  0  0  0  0
  6 31  1  0  0  0  0
  7  8  1  0  0  0  0
  7 43  1  0  0  0  0
  8  9  1  0  0  0  0
  8 32  1  0  0  0  0
  8 33  1  0  0  0  0
  9 10  1  0  0  0  0
  9 34  1  0  0  0  0
  9 35  1  0  0  0  0
 10 11  1  0  0  0  0
 10 36  1  0  0  0  0
 11 12  2  0  0  0  0
 11 13  1  0  0  0  0
 13 14  1  0  0  0  0
 13 15  1  0  0  0  0
 13 37  1  0  0  0  0
 14 38  1  0  0  0  0
 14 39  1  0  0  0  0
 14 40  1  0  0  0  0
 15 19  1  0  0  0  0
 15 16  1  0  0  0  0
 16 17  2  0  0  0  0
 16 41  1  0  0  0  0
 17 18  1  0  0  0  0
 18 19  2  0  0  0  0
 18 42  1  0  0  0  0
M  CHG  1   7   1
M  END
> <s_m_source_file>
AV-unprocessed.smi

> <i_m_source_file_index>
1893

> <i_lp_mmshare_version>
43012

> <i_f3d_flags>
0

> <s_epik_input>
W0NIM11bQ0BASF0xW0NIMl1bQ0gyXVtDSDJdW0NIMl1OMVtDSDJdW0NIMl1bTkhdQyg9TylbQ0BIXShbQ0gzXSluMltjSF1uW2NIXW4y

> <s_epik_cmdline>
J2VwaWtfcHl0aG9uJywgJy1waCcsICc3LjAnLCAnLXRuJywgJzgnLCAnLW1hJywgJzIwMCcsICctbWV0YWxfYmluZGluZycsICctaW1hZScsICc8aW5maWxlLm1hZT4nLCAnLW9tYWUnLCAnPG91dGZpbGUubWFlPic=

> <r_lp_tautomer_probability>
1

> <r_epik_Ionization_Penalty>
0.00266409

> <r_epik_Ionization_Penalty_Charging>
0.00265606

> <r_epik_Ionization_Penalty_Neutral>
8.02794e-06

> <r_epik_State_Penalty>
0.00184955

> <r_epik_Charging_Adjusted_Penalty>
0.00450561

> <i_epik_Tot_Q>
1

> <i_epik_Tot_abs_Q>
1

> <r_epik_Metal_State_Penalty>
-0

> <b_epik_Metal_Only>
0

> <s_lp_Force_Field>
OPLS_2005

> <r_lp_Energy>
24.5349

> <b_lp_Chiralities_Consistent>
1

> <s_lp_Variant>
AV-unprocessed.smi:1893-7

> <Gold.Version>
5.8.1

> <Gold.Id.Protein>
6NUR|6NUR_protein|mol2

> <Gold.PLP.Fitness>
43.9976

> <Gold.PLP.PLP>
-28.9692

> <Gold.PLP.part.hbond>
-3.0000

> <Gold.PLP.part.metal>
0.0000

> <Gold.PLP.part.buried>
-3.2333

> <Gold.PLP.part.nonpolar>
-25.1024

> <Gold.PLP.part.repulsive>
0.4543

> <Gold.PLP.ligand.clash>
0.0000

> <Gold.PLP.ligand.torsion>
0.5011

> <Gold.PLP.Chemscore.Hbond>
2.7468

> <Gold.PLP.Chemscore.CHOScore>
2.5275

> <Gold.PLP.Chemscore.Metal>
0.0000

> <Gold.Chemscore.Hbonds>
donor molecule, donor type, donor heavy atom, donor atom, acceptor molecule, acceptor atom, score
      L1  H     7    43       P1 10175  1.92
      L1  H    10    36       P1  7948  0.23
      P1  H 10785 10796       L1    17  0.42
      L1  C    16    41       P1 10747  0.93
      L1  C    18    42       P1 10186  0.86
      L1  C    18    42       P1 10952  0.70

> <Gold.PLP.Chemscore.Internal.Correction>
0.2076

> <Gold.Rescore>
     Score         DG    S(hbond)    S(metal)    S(lipo)     H(rot)  DE(clash)    DE(int)     intcor
      8.42     -10.25       1.81        0.00      44.58       2.54       0.06       1.77       ----

> <Gold.Chemscore.Fitness>
8.4207

> <Gold.Chemscore.DG>
-10.2531

> <Gold.Chemscore.ZeroCoef>
-5.4800

> <Gold.Chemscore.Hbond>
1.8125

> <Gold.Chemscore.Metal>
0.0000

> <Gold.Chemscore.Lipo>
44.5811

> <Gold.Chemscore.Internal_Hbond>
0.0000

> <Gold.Chemscore.DEClash>
0.0584

> <Gold.Chemscore.DEInternal>
1.7741

> <Gold.Chemscore.Rot>
2.5377

> <Gold.Chemscore.Internal.Correction>
   9.000000E+99

> <Gold.Chemscore.Hbonds>
donor molecule, donor type, donor heavy atom, donor atom, acceptor molecule, acceptor atom, score
      L1  H     7    43       P1 10175  0.91
      L1  H    10    36       P1  7948  0.23
      P1  H 10785 10796       L1    17  0.12

> <Gold.Chemscore.Hbond.Weighted>
-6.0538

> <Gold.Chemscore.Metal.Weighted>
-0.0000

> <Gold.Chemscore.Lipo.Weighted>
-5.2160

> <Gold.Chemscore.Internal_Hbond.Weighted>
0.0000

> <Gold.Chemscore.DEClash.Weighted>
0.0584

> <Gold.Chemscore.DEInternal.Weighted>
1.7741

> <Gold.Chemscore.Rot.Weighted>
6.4966

> <Gold.Chemscore.Internal.Correction.Weighted>
   9.000000E+99

> <Gold.Protein.RotatedTorsions>
[ 6907 6896 6895 6894 ] final   -7.23 input  -60.11 | X-H torsion
[ 7974 7965 7964 7962 ] final   39.98 input  175.53 | X-H torsion
[ 8008 7997 7996 7995 ] final  -29.91 input   59.86 | X-H torsion
[ 10167 10162 10161 10158 ] final -178.49 input  -65.29 | X-H torsion
[ 10718 10713 10712 10709 ] final  -73.81 input   66.30 | X-H torsion
[ 10763 10752 10751 10750 ] final -109.56 input  -60.55 | X-H torsion
[ 11005 11000 10999 10996 ] final   -8.38 input  -57.11 | X-H torsion

> <Gold.Protein.ActiveResidues>
 VAL166  LYS551  ARG553  GLY616  TRP617  ASP618  TYR619  PRO620  LYS621  CYS622 
 ASP623  PHE694  ASN695  SER759  ASP760  ASP761  ALA762  ILE779  LEU786  VAL792 
 PHE793  MET794  SER795  GLU796  ALA797  LYS798  CYS799  TRP800  GLU811  SER814 

> <Gold.Protein.RotatedAtoms>
  151.4529  135.1031  159.9702 H   0  0  0  0  0  0  0  0  0  0  0  0  # atno 6907 bound_to 6896
  152.4881  133.8424  159.7170 H   0  0  0  0  0  0  0  0  0  0  0  0  # atno 6908 bound_to 6896
  150.9010  133.7059  159.2906 H   0  0  0  0  0  0  0  0  0  0  0  0  # atno 6909 bound_to 6896
  146.0942  139.5588  142.9456 H   0  0  0  0  0  0  0  0  0  0  0  0  # atno 7974 bound_to 7965
  154.4271  140.1805  156.1323 H   0  0  0  0  0  0  0  0  0  0  0  0  # atno 8008 bound_to 7997
  156.0057  140.3355  155.6865 H   0  0  0  0  0  0  0  0  0  0  0  0  # atno 8009 bound_to 7997
  155.6180  140.0657  157.2677 H   0  0  0  0  0  0  0  0  0  0  0  0  # atno 8010 bound_to 7997
  139.5430  144.2312  152.0932 H   0  0  0  0  0  0  0  0  0  0  0  0  # atno 10167 bound_to 10162
  156.0266  130.4402  150.2798 H   0  0  0  0  0  0  0  0  0  0  0  0  # atno 10718 bound_to 10713
  154.8200  135.4596  154.0751 H   0  0  0  0  0  0  0  0  0  0  0  0  # atno 10763 bound_to 10752
  153.2112  135.6882  153.8118 H   0  0  0  0  0  0  0  0  0  0  0  0  # atno 10764 bound_to 10752
  153.7568  135.3290  155.3307 H   0  0  0  0  0  0  0  0  0  0  0  0  # atno 10765 bound_to 10752
  140.7228  133.8814  155.8834 H   0  0  0  0  0  0  0  0  0  0  0  0  # atno 11005 bound_to 11000
  145.5981  141.0359  143.2033 LP  0  0  0  0  0  0  0  0  0  0  0  0  # atno 17320 bound_to 7965
  144.7382  139.7523  143.7321 LP  0  0  0  0  0  0  0  0  0  0  0  0  # atno 17321 bound_to 7965
  140.1794  144.4859  150.6536 LP  0  0  0  0  0  0  0  0  0  0  0  0  # atno 17342 bound_to 10162
  140.6667  143.2270  151.5725 LP  0  0  0  0  0  0  0  0  0  0  0  0  # atno 17343 bound_to 10162
  157.0901  131.0167  151.3125 LP  0  0  0  0  0  0  0  0  0  0  0  0  # atno 17370 bound_to 10713
  157.4860  130.7794  149.7461 LP  0  0  0  0  0  0  0  0  0  0  0  0  # atno 17371 bound_to 10713
  140.9988  134.1178  157.4337 LP  0  0  0  0  0  0  0  0  0  0  0  0  # atno 17394 bound_to 11000
  139.8844  135.0062  156.6366 LP  0  0  0  0  0  0  0  0  0  0  0  0  # atno 17395 bound_to 11000

$$$$
