AV-unprocessed.smi:2229|AV-procd|sdf|9034|dock1
  -GOLD-   2272012243D 1   1.00000     0.00000
 Structure written by MMmdl.
 43 44  0  0  0  0  0  0  0  0  2 V2000
  150.6431  144.6205  159.5150 C   0  0  0  0  0  0  0  0  0  0  0  0
  151.6667  143.8083  158.7033 C   0  0  0  0  0  0  0  0  0  0  0  0
  152.7720  144.7301  158.1653 C   0  0  0  0  0  0  0  0  0  0  0  0
  151.0141  143.0121  157.5545 C   0  0  0  0  0  0  0  0  0  0  0  0
  150.3092  141.7200  158.0065 C   0  0  0  0  0  0  0  0  0  0  0  0
  149.3947  141.1128  156.9258 C   0  0  1  0  0  0  0  0  0  0  0  0
  148.1426  141.9504  156.6292 C   0  0  0  0  0  0  0  0  0  0  0  0
  147.7720  141.5906  155.1951 C   0  0  0  0  0  0  0  0  0  0  0  0
  149.1212  141.4575  154.4931 C   0  0  0  0  0  0  0  0  0  0  0  0
  150.0987  140.9298  155.5584 C   0  0  2  0  0  0  0  0  0  0  0  0
  150.3976  139.5242  155.3045 N   0  0  0  0  0  0  0  0  0  0  0  0
  151.6141  139.0080  155.0620 C   0  0  0  0  0  0  0  0  0  0  0  0
  152.6304  139.6980  154.9940 O   0  0  0  0  0  0  0  0  0  0  0  0
  151.7305  137.4870  154.8635 C   0  0  0  0  0  0  0  0  0  0  0  0
  151.0777  136.6763  155.8982 N   0  0  0  0  0  0  0  0  0  0  0  0
  149.7203  136.6768  156.1013 C   0  0  0  0  0  0  0  0  0  0  0  0
  149.4051  135.8972  157.0724 N   0  0  0  0  0  0  0  0  0  0  0  0
  150.6299  135.3333  157.5535 N   0  5  0  0  0  0  0  0  0  0  0  0
  151.6204  135.8469  156.7915 C   0  0  0  0  0  0  0  0  0  0  0  0
  152.8297  135.6341  156.8648 O   0  0  0  0  0  0  0  0  0  0  0  0
  150.0976  145.3188  158.8797 H   0  0  0  0  0  0  0  0  0  0  0  0
  151.1352  145.1999  160.2967 H   0  0  0  0  0  0  0  0  0  0  0  0
  149.9147  143.9770  160.0075 H   0  0  0  0  0  0  0  0  0  0  0  0
  152.1418  143.0970  159.3803 H   0  0  0  0  0  0  0  0  0  0  0  0
  152.3675  145.4732  157.4773 H   0  0  0  0  0  0  0  0  0  0  0  0
  153.5346  144.1626  157.6312 H   0  0  0  0  0  0  0  0  0  0  0  0
  153.2697  145.2634  158.9757 H   0  0  0  0  0  0  0  0  0  0  0  0
  150.3065  143.6489  157.0219 H   0  0  0  0  0  0  0  0  0  0  0  0
  151.7865  142.7504  156.8307 H   0  0  0  0  0  0  0  0  0  0  0  0
  151.0500  140.9828  158.3186 H   0  0  0  0  0  0  0  0  0  0  0  0
  149.7035  141.9326  158.8863 H   0  0  0  0  0  0  0  0  0  0  0  0
  149.0533  140.1358  157.2746 H   0  0  0  0  0  0  0  0  0  0  0  0
  147.3304  141.7513  157.3289 H   0  0  0  0  0  0  0  0  0  0  0  0
  148.3762  143.0144  156.6860 H   0  0  0  0  0  0  0  0  0  0  0  0
  147.2504  140.6325  155.1775 H   0  0  0  0  0  0  0  0  0  0  0  0
  147.1258  142.3337  154.7274 H   0  0  0  0  0  0  0  0  0  0  0  0
  149.0627  140.8263  153.6050 H   0  0  0  0  0  0  0  0  0  0  0  0
  149.4503  142.4434  154.1625 H   0  0  0  0  0  0  0  0  0  0  0  0
  151.0171  141.5177  155.5055 H   0  0  0  0  0  0  0  0  0  0  0  0
  149.6199  138.8808  155.3480 H   0  0  0  0  0  0  0  0  0  0  0  0
  151.3293  137.2362  153.8799 H   0  0  0  0  0  0  0  0  0  0  0  0
  152.7895  137.2265  154.8311 H   0  0  0  0  0  0  0  0  0  0  0  0
  149.0704  137.2907  155.4755 H   0  0  0  0  0  0  0  0  0  0  0  0
  1  2  1  0  0  0  0
  1 21  1  0  0  0  0
  1 22  1  0  0  0  0
  1 23  1  0  0  0  0
  2  3  1  0  0  0  0
  2  4  1  0  0  0  0
  2 24  1  0  0  0  0
  3 25  1  0  0  0  0
  3 26  1  0  0  0  0
  3 27  1  0  0  0  0
  4  5  1  0  0  0  0
  4 28  1  0  0  0  0
  4 29  1  0  0  0  0
  5  6  1  0  0  0  0
  5 30  1  0  0  0  0
  5 31  1  0  0  0  0
  6 10  1  0  0  0  0
  6  7  1  0  0  0  0
  6 32  1  0  0  0  0
  7  8  1  0  0  0  0
  7 33  1  0  0  0  0
  7 34  1  0  0  0  0
  8  9  1  0  0  0  0
  8 35  1  0  0  0  0
  8 36  1  0  0  0  0
  9 10  1  0  0  0  0
  9 37  1  0  0  0  0
  9 38  1  0  0  0  0
 10 11  1  0  0  0  0
 10 39  1  0  0  0  0
 11 12  1  0  0  0  0
 11 40  1  0  0  0  0
 12 13  2  0  0  0  0
 12 14  1  0  0  0  0
 14 15  1  0  0  0  0
 14 41  1  0  0  0  0
 14 42  1  0  0  0  0
 15 19  1  0  0  0  0
 15 16  1  0  0  0  0
 16 17  2  0  0  0  0
 16 43  1  0  0  0  0
 17 18  1  0  0  0  0
 18 19  1  0  0  0  0
 19 20  2  0  0  0  0
M  CHG  1  18  -1
M  END
> <s_m_source_file>
AV-unprocessed.smi

> <i_m_source_file_index>
2229

> <i_lp_mmshare_version>
43012

> <i_f3d_flags>
0

> <s_epik_input>
W0NIM11bQ0hdKFtDSDNdKVtDSDJdW0NIMl1bQ0BASF0xW0NIMl1bQ0gyXVtDSDJdW0NASF0xW05IXUMoPU8pW0NIMl1uMltjSF1uW25IXWMyPU8=

> <s_epik_cmdline>
J2VwaWtfcHl0aG9uJywgJy1waCcsICc3LjAnLCAnLXRuJywgJzgnLCAnLW1hJywgJzIwMCcsICctbWV0YWxfYmluZGluZycsICctaW1hZScsICc8aW5maWxlLm1hZT4nLCAnLW9tYWUnLCAnPG91dGZpbGUubWFlPic=

> <r_lp_tautomer_probability>
1

> <r_epik_Ionization_Penalty>
13.6733

> <r_epik_Ionization_Penalty_Charging>
13.6725

> <r_epik_Ionization_Penalty_Neutral>
0.000837689

> <r_epik_State_Penalty>
5.67062

> <r_epik_Charging_Adjusted_Penalty>
19.3431

> <i_epik_Tot_Q>
-1

> <i_epik_Tot_abs_Q>
1

> <r_epik_Metal_State_Penalty>
1.61781

> <b_epik_Metal_Only>
1

> <s_lp_Force_Field>
OPLS_2005

> <r_lp_Energy>
24.9867

> <b_lp_Chiralities_Consistent>
1

> <s_lp_Variant>
AV-unprocessed.smi:2229-8

> <Gold.Version>
5.8.1

> <Gold.Id.Protein>
6NUR|6NUR_protein|mol2

> <Gold.PLP.Fitness>
44.9923

> <Gold.PLP.PLP>
-36.4334

> <Gold.PLP.part.hbond>
-3.7787

> <Gold.PLP.part.metal>
0.0000

> <Gold.PLP.part.buried>
-3.4042

> <Gold.PLP.part.nonpolar>
-30.8535

> <Gold.PLP.part.repulsive>
0.0863

> <Gold.PLP.ligand.clash>
0.0000

> <Gold.PLP.ligand.torsion>
0.3970

> <Gold.PLP.Chemscore.Hbond>
3.0934

> <Gold.PLP.Chemscore.CHOScore>
0.0000

> <Gold.PLP.Chemscore.Metal>
0.0000

> <Gold.Chemscore.Hbonds>
donor molecule, donor type, donor heavy atom, donor atom, acceptor molecule, acceptor atom, score
      P1  H  6896  6907       L1    18  0.80
      P1  H  7989  7998       L1    13  0.20
      P1  H  7997  8008       L1    13  0.86
      P1  H 10752 10764       L1    20  1.00

> <Gold.PLP.Chemscore.Internal.Correction>
0.0728

> <Gold.Rescore>
     Score         DG    S(hbond)    S(metal)    S(lipo)     H(rot)  DE(clash)    DE(int)     intcor
     15.59     -17.00       2.51        0.00      83.59       2.59       0.19       1.22       ----

> <Gold.Chemscore.Fitness>
15.5914

> <Gold.Chemscore.DG>
-16.9954

> <Gold.Chemscore.ZeroCoef>
-5.4800

> <Gold.Chemscore.Hbond>
2.5076

> <Gold.Chemscore.Metal>
0.0000

> <Gold.Chemscore.Lipo>
83.5946

> <Gold.Chemscore.Internal_Hbond>
0.0000

> <Gold.Chemscore.DEClash>
0.1858

> <Gold.Chemscore.DEInternal>
1.2181

> <Gold.Chemscore.Rot>
2.5939

> <Gold.Chemscore.Internal.Correction>
   9.000000E+99

> <Gold.Chemscore.Hbonds>
donor molecule, donor type, donor heavy atom, donor atom, acceptor molecule, acceptor atom, score
      P1  H  6896  6907       L1    18  0.38
      P1  H  7989  7998       L1    13  0.01
      P1  H  7997  8008       L1    13  0.84
      P1  H 10752 10764       L1    20  0.78

> <Gold.Chemscore.Hbond.Weighted>
-8.3753

> <Gold.Chemscore.Metal.Weighted>
-0.0000

> <Gold.Chemscore.Lipo.Weighted>
-9.7806

> <Gold.Chemscore.Internal_Hbond.Weighted>
0.0000

> <Gold.Chemscore.DEClash.Weighted>
0.1858

> <Gold.Chemscore.DEInternal.Weighted>
1.2181

> <Gold.Chemscore.Rot.Weighted>
6.6405

> <Gold.Chemscore.Internal.Correction.Weighted>
   9.000000E+99

> <Gold.Protein.RotatedTorsions>
[ 6907 6896 6895 6894 ] final  -76.65 input  -60.11 | X-H torsion
[ 7974 7965 7964 7962 ] final  -64.65 input  175.53 | X-H torsion
[ 8008 7997 7996 7995 ] final  -19.38 input   59.86 | X-H torsion
[ 10167 10162 10161 10158 ] final -110.55 input  -65.29 | X-H torsion
[ 10718 10713 10712 10709 ] final   88.58 input   66.30 | X-H torsion
[ 10763 10752 10751 10750 ] final   -4.41 input  -60.55 | X-H torsion
[ 11005 11000 10999 10996 ] final   74.59 input  -57.11 | X-H torsion

> <Gold.Protein.ActiveResidues>
 VAL166  LYS551  ARG553  GLY616  TRP617  ASP618  TYR619  PRO620  LYS621  CYS622 
 ASP623  PHE694  ASN695  SER759  ASP760  ASP761  ALA762  ILE779  LEU786  VAL792 
 PHE793  MET794  SER795  GLU796  ALA797  LYS798  CYS799  TRP800  GLU811  SER814 

> <Gold.Protein.RotatedAtoms>
  150.7021  134.4541  159.5349 H   0  0  0  0  0  0  0  0  0  0  0  0  # atno 6907 bound_to 6896
  152.2228  134.8394  160.0493 H   0  0  0  0  0  0  0  0  0  0  0  0  # atno 6908 bound_to 6896
  151.9238  133.3557  159.3943 H   0  0  0  0  0  0  0  0  0  0  0  0  # atno 6909 bound_to 6896
  145.7640  140.8847  143.0415 H   0  0  0  0  0  0  0  0  0  0  0  0  # atno 7974 bound_to 7965
  154.4840  140.2090  155.9697 H   0  0  0  0  0  0  0  0  0  0  0  0  # atno 8008 bound_to 7997
  156.1209  140.3213  155.8176 H   0  0  0  0  0  0  0  0  0  0  0  0  # atno 8009 bound_to 7997
  155.4470  140.0514  157.2995 H   0  0  0  0  0  0  0  0  0  0  0  0  # atno 8010 bound_to 7997
  140.1432  143.4261  152.1547 H   0  0  0  0  0  0  0  0  0  0  0  0  # atno 10167 bound_to 10162
  157.6950  131.0300  150.3297 H   0  0  0  0  0  0  0  0  0  0  0  0  # atno 10718 bound_to 10713
  153.3845  135.6999  153.6540 H   0  0  0  0  0  0  0  0  0  0  0  0  # atno 10763 bound_to 10752
  153.5138  135.3626  155.2600 H   0  0  0  0  0  0  0  0  0  0  0  0  # atno 10764 bound_to 10752
  154.8696  135.4141  154.3150 H   0  0  0  0  0  0  0  0  0  0  0  0  # atno 10765 bound_to 10752
  139.9384  134.7446  156.1166 H   0  0  0  0  0  0  0  0  0  0  0  0  # atno 11005 bound_to 11000
  144.6825  139.9763  143.7483 LP  0  0  0  0  0  0  0  0  0  0  0  0  # atno 17320 bound_to 7965
  146.0236  139.3272  143.0798 LP  0  0  0  0  0  0  0  0  0  0  0  0  # atno 17321 bound_to 7965
  139.5462  144.7300  151.4577 LP  0  0  0  0  0  0  0  0  0  0  0  0  # atno 17342 bound_to 10162
  140.6748  143.8215  150.7044 LP  0  0  0  0  0  0  0  0  0  0  0  0  # atno 17343 bound_to 10162
  156.3772  130.3874  149.7129 LP  0  0  0  0  0  0  0  0  0  0  0  0  # atno 17370 bound_to 10713
  156.4524  130.7913  151.2934 LP  0  0  0  0  0  0  0  0  0  0  0  0  # atno 17371 bound_to 10713
  141.1008  133.6678  156.2749 LP  0  0  0  0  0  0  0  0  0  0  0  0  # atno 17394 bound_to 11000
  140.6016  134.5549  157.5518 LP  0  0  0  0  0  0  0  0  0  0  0  0  # atno 17395 bound_to 11000

$$$$
