AV-unprocessed.smi:104|AV-procd|sdf|999|dock4
  -GOLD-   2262017583D 1   1.00000     0.00000
 Structure written by MMmdl.
 47 49  0  0  0  0  0  0  0  0  1 V2000
  147.0658  134.8343  161.6354 C   0  0  0  0  0  0  0  0  0  0  0  0
  147.6230  135.9886  160.8127 C   0  0  0  0  0  0  0  0  0  0  0  0
  147.6293  137.1420  161.2434 O   0  0  0  0  0  0  0  0  0  0  0  0
  148.0808  135.5899  159.6168 O   0  0  0  0  0  0  0  0  0  0  0  0
  148.7227  136.5251  158.7664 C   0  0  0  0  0  0  0  0  0  0  0  0
  147.6887  137.5262  158.2397 C   0  0  2  0  0  0  0  0  0  0  0  0
  146.4121  136.9099  158.1755 O   0  0  0  0  0  0  0  0  0  0  0  0
  145.6258  137.5617  157.2296 C   0  0  2  0  0  0  0  0  0  0  0  0
  144.8280  136.5169  156.5097 N   0  0  0  0  0  0  0  0  0  0  0  0
  144.7823  135.1579  156.7224 C   0  0  0  0  0  0  0  0  0  0  0  0
  145.7953  134.3057  158.0911 Br  0  0  0  0  0  0  0  0  0  0  0  0
  143.9963  134.4603  155.9507 N   0  0  0  0  0  0  0  0  0  0  0  0
  143.4364  135.4296  155.1276 C   0  0  0  0  0  0  0  0  0  0  0  0
  142.4987  135.3978  154.0648 C   0  0  0  0  0  0  0  0  0  0  0  0
  141.9323  134.2662  153.6228 N   0  0  0  0  0  0  0  0  0  0  0  0
  142.1573  136.5640  153.4683 N   0  0  0  0  0  0  0  0  0  0  0  0
  142.7073  137.7072  153.8909 C   0  0  0  0  0  0  0  0  0  0  0  0
  143.5979  137.8950  154.8683 N   0  0  0  0  0  0  0  0  0  0  0  0
  143.9440  136.7177  155.4678 C   0  0  0  0  0  0  0  0  0  0  0  0
  146.5656  138.3490  156.2915 C   0  0  2  0  0  0  0  0  0  0  0  0
  146.3999  137.9887  154.9228 O   0  0  0  0  0  0  0  0  0  0  0  0
  147.1564  138.5597  153.9724 C   0  0  0  0  0  0  0  0  0  0  0  0
  146.6035  138.3226  152.5738 C   0  0  0  0  0  0  0  0  0  0  0  0
  148.1875  139.2064  154.1564 O   0  0  0  0  0  0  0  0  0  0  0  0
  147.9489  137.9640  156.7985 C   0  0  1  0  0  0  0  0  0  0  0  0
  148.7982  139.1039  156.7547 O   0  0  0  0  0  0  0  0  0  0  0  0
  148.4443  140.2432  157.3722 C   0  0  0  0  0  0  0  0  0  0  0  0
  149.4872  141.3395  157.2030 C   0  0  0  0  0  0  0  0  0  0  0  0
  147.4097  140.4334  158.0115 O   0  0  0  0  0  0  0  0  0  0  0  0
  147.8762  134.1958  161.9876 H   0  0  0  0  0  0  0  0  0  0  0  0
  146.3855  134.2317  161.0334 H   0  0  0  0  0  0  0  0  0  0  0  0
  146.5191  135.2094  162.5008 H   0  0  0  0  0  0  0  0  0  0  0  0
  149.4888  137.0490  159.3395 H   0  0  0  0  0  0  0  0  0  0  0  0
  149.2209  136.0193  157.9379 H   0  0  0  0  0  0  0  0  0  0  0  0
  147.6237  138.4027  158.8873 H   0  0  0  0  0  0  0  0  0  0  0  0
  144.8940  138.1980  157.7261 H   0  0  0  0  0  0  0  0  0  0  0  0
  142.1696  133.3833  154.0518 H   0  0  0  0  0  0  0  0  0  0  0  0
  141.2736  134.2973  152.8583 H   0  0  0  0  0  0  0  0  0  0  0  0
  142.3891  138.5992  153.3716 H   0  0  0  0  0  0  0  0  0  0  0  0
  146.3675  139.4094  156.4559 H   0  0  0  0  0  0  0  0  0  0  0  0
  145.6486  138.8344  152.4531 H   0  0  0  0  0  0  0  0  0  0  0  0
  146.4500  137.2570  152.4029 H   0  0  0  0  0  0  0  0  0  0  0  0
  147.2958  138.6970  151.8195 H   0  0  0  0  0  0  0  0  0  0  0  0
  148.3268  137.1230  156.2139 H   0  0  0  0  0  0  0  0  0  0  0  0
  149.5554  141.6379  156.1570 H   0  0  0  0  0  0  0  0  0  0  0  0
  150.4654  140.9853  157.5281 H   0  0  0  0  0  0  0  0  0  0  0  0
  149.2223  142.2150  157.7962 H   0  0  0  0  0  0  0  0  0  0  0  0
  1  2  1  0  0  0  0
  1 30  1  0  0  0  0
  1 31  1  0  0  0  0
  1 32  1  0  0  0  0
  2  3  2  0  0  0  0
  2  4  1  0  0  0  0
  4  5  1  0  0  0  0
  5  6  1  0  0  0  0
  5 33  1  0  0  0  0
  5 34  1  0  0  0  0
  6 25  1  0  0  0  0
  6  7  1  0  0  0  0
  6 35  1  0  0  0  0
  7  8  1  0  0  0  0
  8  9  1  0  0  0  0
  8 20  1  0  0  0  0
  8 36  1  0  0  0  0
  9 19  1  0  0  0  0
  9 10  1  0  0  0  0
 10 11  1  0  0  0  0
 10 12  2  0  0  0  0
 12 13  1  0  0  0  0
 13 19  2  0  0  0  0
 13 14  1  0  0  0  0
 14 15  1  0  0  0  0
 14 16  2  0  0  0  0
 15 37  1  0  0  0  0
 15 38  1  0  0  0  0
 16 17  1  0  0  0  0
 17 18  2  0  0  0  0
 17 39  1  0  0  0  0
 18 19  1  0  0  0  0
 20 21  1  0  0  0  0
 20 25  1  0  0  0  0
 20 40  1  0  0  0  0
 21 22  1  0  0  0  0
 22 23  1  0  0  0  0
 22 24  2  0  0  0  0
 23 41  1  0  0  0  0
 23 42  1  0  0  0  0
 23 43  1  0  0  0  0
 25 26  1  0  0  0  0
 25 44  1  0  0  0  0
 26 27  1  0  0  0  0
 27 28  1  0  0  0  0
 27 29  2  0  0  0  0
 28 45  1  0  0  0  0
 28 46  1  0  0  0  0
 28 47  1  0  0  0  0
M  END
> <s_m_source_file>
AV-unprocessed.smi

> <i_m_source_file_index>
104

> <i_lp_mmshare_version>
43012

> <i_f3d_flags>
0

> <s_epik_input>
W0NIM11DKD1PKU9bQ0gyXVtDQEBIXTFPW0NASF0oW0NAQEhdKE9DKD1PKVtDSDNdKVtDQEhdMU9DKD1PKVtDSDNdKW4oYyhCciluMiljKGMyMyluW2NIXW5jM1tOSDJd

> <s_epik_cmdline>
J2VwaWtfcHl0aG9uJywgJy1waCcsICc3LjAnLCAnLXRuJywgJzgnLCAnLW1hJywgJzIwMCcsICctbWV0YWxfYmluZGluZycsICctaW1hZScsICc8aW5maWxlLm1hZT4nLCAnLW9tYWUnLCAnPG91dGZpbGUubWFlPic=

> <r_lp_tautomer_probability>
1

> <r_epik_Ionization_Penalty>
7.36622e-05

> <r_epik_Ionization_Penalty_Charging>
0

> <r_epik_Ionization_Penalty_Neutral>
7.36622e-05

> <r_epik_State_Penalty>
-0

> <r_epik_Charging_Adjusted_Penalty>
0

> <i_epik_Tot_Q>
0

> <i_epik_Tot_abs_Q>
0

> <r_epik_Metal_State_Penalty>
-0

> <b_epik_Metal_Only>
0

> <s_epik_Chemistry_Notes>
This compound has an ester and may undergo hydrolysis at high or low pH. This compound contains an acetal/aminal-like group ( X-CH(R)-Y where X, Y are N, S, or O) that may be acid/base labile, releasing an aldehyde.

> <s_lp_Force_Field>
OPLS_2005

> <r_lp_Energy>
16.6292

> <b_lp_Chiralities_Consistent>
1

> <s_lp_Variant>
AV-unprocessed.smi:104-7

> <Gold.Version>
5.8.1

> <Gold.Id.Protein>
6NUR|6NUR_protein|mol2

> <Gold.PLP.Fitness>
33.3774

> <Gold.PLP.PLP>
-23.2170

> <Gold.PLP.part.hbond>
-4.0023

> <Gold.PLP.part.metal>
0.0000

> <Gold.PLP.part.buried>
-5.2344

> <Gold.PLP.part.nonpolar>
-13.6567

> <Gold.PLP.part.repulsive>
0.5675

> <Gold.PLP.ligand.clash>
0.0000

> <Gold.PLP.ligand.torsion>
0.6948

> <Gold.PLP.Chemscore.Hbond>
2.8080

> <Gold.PLP.Chemscore.CHOScore>
0.9987

> <Gold.PLP.Chemscore.Metal>
0.0000

> <Gold.Chemscore.Hbonds>
donor molecule, donor type, donor heavy atom, donor atom, acceptor molecule, acceptor atom, score
      L1  H    15    37       P1 10957  1.00
      P1  H  6931  6943       L1     3  0.96
      P1  H  6934  6947       L1     3  0.88
      L1  C    17    39       P1 10175  1.00

> <Gold.PLP.Chemscore.Internal.Correction>
0.1299

> <Gold.Rescore>
     Score         DG    S(hbond)    S(metal)    S(lipo)     H(rot)  DE(clash)    DE(int)     intcor
     -2.97      -6.70       2.76        0.00      26.05       4.31       0.11       9.56       ----

> <Gold.Chemscore.Fitness>
-2.9703

> <Gold.Chemscore.DG>
-6.7046

> <Gold.Chemscore.ZeroCoef>
-5.4800

> <Gold.Chemscore.Hbond>
2.7552

> <Gold.Chemscore.Metal>
0.0000

> <Gold.Chemscore.Lipo>
26.0525

> <Gold.Chemscore.Internal_Hbond>
0.0000

> <Gold.Chemscore.DEClash>
0.1103

> <Gold.Chemscore.DEInternal>
9.5647

> <Gold.Chemscore.Rot>
4.3070

> <Gold.Chemscore.Internal.Correction>
   9.000000E+99

> <Gold.Chemscore.Hbonds>
donor molecule, donor type, donor heavy atom, donor atom, acceptor molecule, acceptor atom, score
      L1  H    15    37       P1 10957  1.00
      P1  H  6931  6943       L1     3  0.92
      P1  H  6934  6947       L1     3  0.86

> <Gold.Chemscore.Hbond.Weighted>
-9.2023

> <Gold.Chemscore.Metal.Weighted>
-0.0000

> <Gold.Chemscore.Lipo.Weighted>
-3.0481

> <Gold.Chemscore.Internal_Hbond.Weighted>
0.0000

> <Gold.Chemscore.DEClash.Weighted>
0.1103

> <Gold.Chemscore.DEInternal.Weighted>
9.5647

> <Gold.Chemscore.Rot.Weighted>
11.0259

> <Gold.Chemscore.Internal.Correction.Weighted>
   9.000000E+99

> <Gold.Protein.RotatedTorsions>
[ 6907 6896 6895 6894 ] final  163.95 input  -60.11 | X-H torsion
[ 7974 7965 7964 7962 ] final   80.94 input  175.53 | X-H torsion
[ 8008 7997 7996 7995 ] final  -99.84 input   59.86 | X-H torsion
[ 10167 10162 10161 10158 ] final -148.30 input  -65.29 | X-H torsion
[ 10718 10713 10712 10709 ] final   40.00 input   66.30 | X-H torsion
[ 10763 10752 10751 10750 ] final   17.84 input  -60.55 | X-H torsion
[ 11005 11000 10999 10996 ] final  -84.08 input  -57.11 | X-H torsion

> <Gold.Protein.ActiveResidues>
 VAL166  LYS551  ARG553  GLY616  TRP617  ASP618  TYR619  PRO620  LYS621  CYS622 
 ASP623  PHE694  ASN695  SER759  ASP760  ASP761  ALA762  ILE779  LEU786  VAL792 
 PHE793  MET794  SER795  GLU796  ALA797  LYS798  CYS799  TRP800  GLU811  SER814 

> <Gold.Protein.RotatedAtoms>
  151.9174  133.3576  159.3884 H   0  0  0  0  0  0  0  0  0  0  0  0  # atno 6907 bound_to 6896
  150.7044  134.4670  159.5417 H   0  0  0  0  0  0  0  0  0  0  0  0  # atno 6908 bound_to 6896
  152.2288  134.8342  160.0527 H   0  0  0  0  0  0  0  0  0  0  0  0  # atno 6909 bound_to 6896
  145.6446  139.2433  143.2011 H   0  0  0  0  0  0  0  0  0  0  0  0  # atno 7974 bound_to 7965
  154.8204  140.0445  157.1406 H   0  0  0  0  0  0  0  0  0  0  0  0  # atno 8008 bound_to 7997
  154.9266  140.3034  155.5169 H   0  0  0  0  0  0  0  0  0  0  0  0  # atno 8009 bound_to 7997
  156.2979  140.2331  156.4322 H   0  0  0  0  0  0  0  0  0  0  0  0  # atno 8010 bound_to 7997
  139.7544  143.8471  152.2593 H   0  0  0  0  0  0  0  0  0  0  0  0  # atno 10167 bound_to 10162
  157.3771  130.7733  149.7163 H   0  0  0  0  0  0  0  0  0  0  0  0  # atno 10718 bound_to 10713
  153.1303  135.6738  153.9190 H   0  0  0  0  0  0  0  0  0  0  0  0  # atno 10763 bound_to 10752
  153.8678  135.3073  155.3442 H   0  0  0  0  0  0  0  0  0  0  0  0  # atno 10764 bound_to 10752
  154.7701  135.4944  153.9713 H   0  0  0  0  0  0  0  0  0  0  0  0  # atno 10765 bound_to 10752
  141.1653  133.7327  156.8815 H   0  0  0  0  0  0  0  0  0  0  0  0  # atno 11005 bound_to 11000
  146.1253  140.7256  142.9438 LP  0  0  0  0  0  0  0  0  0  0  0  0  # atno 17320 bound_to 7965
  144.7145  140.4159  143.7055 LP  0  0  0  0  0  0  0  0  0  0  0  0  # atno 17321 bound_to 7965
  139.8458  144.7188  150.9274 LP  0  0  0  0  0  0  0  0  0  0  0  0  # atno 17342 bound_to 10162
  140.7801  143.3943  151.1257 LP  0  0  0  0  0  0  0  0  0  0  0  0  # atno 17343 bound_to 10162
  155.9767  130.4071  150.3758 LP  0  0  0  0  0  0  0  0  0  0  0  0  # atno 17370 bound_to 10713
  157.1857  131.0403  151.2726 LP  0  0  0  0  0  0  0  0  0  0  0  0  # atno 17371 bound_to 10713
  140.1711  134.9099  157.2835 LP  0  0  0  0  0  0  0  0  0  0  0  0  # atno 17394 bound_to 11000
  140.2501  134.3694  155.7446 LP  0  0  0  0  0  0  0  0  0  0  0  0  # atno 17395 bound_to 11000

$$$$
