AV-unprocessed.smi:44|AV-procd|sdf|405|dock2
  -GOLD-   2262016263D 1   1.00000     0.00000
 Structure written by MMmdl.
 28 30  0  0  0  0  0  0  0  0  2 V2000
  153.5023  138.6626  155.5437 O   0  0  0  0  0  0  0  0  0  0  0  0
  152.3290  138.4796  155.2253 C   0  0  0  0  0  0  0  0  0  0  0  0
  151.8203  137.3124  154.7160 N   0  5  0  0  0  0  0  0  0  0  0  0
  150.4670  137.2337  154.3927 C   0  0  0  0  0  0  0  0  0  0  0  0
  149.5729  138.1557  154.5127 N   0  0  0  0  0  0  0  0  0  0  0  0
  150.0596  139.3408  155.0245 C   0  0  0  0  0  0  0  0  0  0  0  0
  151.3533  139.5940  155.3929 C   0  0  0  0  0  0  0  0  0  0  0  0
  151.4956  140.8928  155.8662 N   0  0  0  0  0  0  0  0  0  0  0  0
  150.2544  141.3683  155.7576 C   0  0  0  0  0  0  0  0  0  0  0  0
  149.3393  140.5027  155.2704 N   0  0  0  0  0  0  0  0  0  0  0  0
  147.8792  140.7246  155.0239 C   0  0  1  0  0  0  0  0  0  0  0  0
  147.6893  141.6970  153.8496 C   0  0  0  0  0  0  0  0  0  0  0  0
  146.7762  140.9158  152.9254 C   0  0  0  0  0  0  0  0  0  0  0  0
  147.1663  139.4725  153.2313 C   0  0  2  0  0  0  0  0  0  0  0  0
  146.1009  138.4486  152.8138 C   0  0  0  0  0  0  0  0  0  0  0  0
  145.7403  138.6476  151.4637 O   0  0  0  0  0  0  0  0  0  0  0  0
  147.2914  139.5130  154.6481 O   0  0  0  0  0  0  0  0  0  0  0  0
  147.4854  141.0812  155.9763 H   0  0  0  0  0  0  0  0  0  0  0  0
  148.1304  139.2509  152.7691 H   0  0  0  0  0  0  0  0  0  0  0  0
  150.2011  136.2501  153.9973 H   0  0  0  0  0  0  0  0  0  0  0  0
  150.0074  142.3798  156.0437 H   0  0  0  0  0  0  0  0  0  0  0  0
  147.2529  142.6368  154.1885 H   0  0  0  0  0  0  0  0  0  0  0  0
  148.6454  141.9041  153.3652 H   0  0  0  0  0  0  0  0  0  0  0  0
  145.7339  141.0932  153.1945 H   0  0  0  0  0  0  0  0  0  0  0  0
  146.9082  141.1797  151.8758 H   0  0  0  0  0  0  0  0  0  0  0  0
  146.4493  137.4270  152.9688 H   0  0  0  0  0  0  0  0  0  0  0  0
  145.2008  138.5790  153.4153 H   0  0  0  0  0  0  0  0  0  0  0  0
  145.0347  139.2749  151.4308 H   0  0  0  0  0  0  0  0  0  0  0  0
  1  2  2  0  0  0  0
  2  7  1  0  0  0  0
  2  3  1  0  0  0  0
  3  4  1  0  0  0  0
  4  5  2  0  0  0  0
  4 20  1  0  0  0  0
  5  6  1  0  0  0  0
  6 10  1  0  0  0  0
  6  7  2  0  0  0  0
  7  8  1  0  0  0  0
  8  9  2  0  0  0  0
  9 10  1  0  0  0  0
  9 21  1  0  0  0  0
 10 11  1  0  0  0  0
 11 18  1  0  0  0  0
 11 17  1  0  0  0  0
 11 12  1  0  0  0  0
 12 13  1  0  0  0  0
 12 22  1  0  0  0  0
 12 23  1  0  0  0  0
 13 14  1  0  0  0  0
 13 24  1  0  0  0  0
 13 25  1  0  0  0  0
 14 19  1  0  0  0  0
 14 15  1  0  0  0  0
 14 17  1  0  0  0  0
 15 16  1  0  0  0  0
 15 26  1  0  0  0  0
 15 27  1  0  0  0  0
 16 28  1  0  0  0  0
M  CHG  1   3  -1
M  END
> <s_m_source_file>
AV-unprocessed.smi

> <i_m_source_file_index>
44

> <i_lp_mmshare_version>
43012

> <i_f3d_flags>
0

> <s_epik_input>
bjFbY0hdW25IXWMoPU8pYyhjMTIpbltjSF1uMltDQEhdM1tDSDJdW0NIMl1bQ0BIXShPMylbQ0gyXVtPSF0=

> <s_epik_cmdline>
J2VwaWtfcHl0aG9uJywgJy1waCcsICc3LjAnLCAnLXRuJywgJzgnLCAnLW1hJywgJzIwMCcsICctbWV0YWxfYmluZGluZycsICctaW1hZScsICc8aW5maWxlLm1hZT4nLCAnLW9tYWUnLCAnPG91dGZpbGUubWFlPic=

> <r_lp_tautomer_probability>
0.85571

> <r_epik_Ionization_Penalty>
2.55863

> <r_epik_Ionization_Penalty_Charging>
1.36424e-10

> <r_epik_Ionization_Penalty_Neutral>
2.55863

> <r_epik_State_Penalty>
2.63326

> <r_epik_Charging_Adjusted_Penalty>
2.63326

> <i_epik_Tot_Q>
-1

> <i_epik_Tot_abs_Q>
1

> <r_epik_Metal_State_Penalty>
0.475154

> <b_epik_Metal_Only>
1

> <s_epik_Chemistry_Notes>
This compound contains an acetal/aminal-like group ( X-CH(R)-Y where X, Y are N, S, or O) that may be acid/base labile, releasing an aldehyde.

> <s_lp_Force_Field>
OPLS_2005

> <r_lp_Energy>
48.3687

> <b_lp_Chiralities_Consistent>
1

> <s_lp_Variant>
AV-unprocessed.smi:44-11

> <Gold.Version>
5.8.1

> <Gold.Id.Protein>
6NUR|6NUR_protein|mol2

> <Gold.PLP.Fitness>
43.4210

> <Gold.PLP.PLP>
-27.9290

> <Gold.PLP.part.hbond>
-5.0000

> <Gold.PLP.part.metal>
0.0000

> <Gold.PLP.part.buried>
0.3065

> <Gold.PLP.part.nonpolar>
-23.0754

> <Gold.PLP.part.repulsive>
0.4180

> <Gold.PLP.ligand.clash>
0.0000

> <Gold.PLP.ligand.torsion>
0.2045

> <Gold.PLP.Chemscore.Hbond>
3.8320

> <Gold.PLP.Chemscore.CHOScore>
1.4604

> <Gold.PLP.Chemscore.Metal>
0.0000

> <Gold.Chemscore.Hbonds>
donor molecule, donor type, donor heavy atom, donor atom, acceptor molecule, acceptor atom, score
      L1  H    16    28       P1 10175  0.93
      P1  H  7997  8010       L1     1  0.86
      P1  H 10752 10765       L1     3  1.98
      L1  C     4    20       P1  7948  0.55
      L1  C     4    20       P1  7949  0.06
      L1  C     9    21       P1  8028  0.77

> <Gold.PLP.Chemscore.Internal.Correction>
0.0238

> <Gold.Rescore>
     Score         DG    S(hbond)    S(metal)    S(lipo)     H(rot)  DE(clash)    DE(int)     intcor
     10.91     -12.92       2.72        0.00      35.44       2.26       0.27       1.74       ----

> <Gold.Chemscore.Fitness>
10.9106

> <Gold.Chemscore.DG>
-12.9173

> <Gold.Chemscore.ZeroCoef>
-5.4800

> <Gold.Chemscore.Hbond>
2.7164

> <Gold.Chemscore.Metal>
0.0000

> <Gold.Chemscore.Lipo>
35.4438

> <Gold.Chemscore.Internal_Hbond>
0.0000

> <Gold.Chemscore.DEClash>
0.2712

> <Gold.Chemscore.DEInternal>
1.7355

> <Gold.Chemscore.Rot>
2.2588

> <Gold.Chemscore.Internal.Correction>
   9.000000E+99

> <Gold.Chemscore.Hbonds>
donor molecule, donor type, donor heavy atom, donor atom, acceptor molecule, acceptor atom, score
      L1  H    16    28       P1 10175  0.59
      P1  H  7997  8010       L1     1  0.85
      P1  H 10752 10765       L1     3  0.83

> <Gold.Chemscore.Hbond.Weighted>
-9.0729

> <Gold.Chemscore.Metal.Weighted>
-0.0000

> <Gold.Chemscore.Lipo.Weighted>
-4.1469

> <Gold.Chemscore.Internal_Hbond.Weighted>
0.0000

> <Gold.Chemscore.DEClash.Weighted>
0.2712

> <Gold.Chemscore.DEInternal.Weighted>
1.7355

> <Gold.Chemscore.Rot.Weighted>
5.7825

> <Gold.Chemscore.Internal.Correction.Weighted>
   9.000000E+99

> <Gold.Protein.RotatedTorsions>
[ 6907 6896 6895 6894 ] final  177.04 input  -60.11 | X-H torsion
[ 7974 7965 7964 7962 ] final  126.76 input  175.53 | X-H torsion
[ 8008 7997 7996 7995 ] final   99.91 input   59.86 | X-H torsion
[ 10167 10162 10161 10158 ] final -142.12 input  -65.29 | X-H torsion
[ 10718 10713 10712 10709 ] final  107.63 input   66.30 | X-H torsion
[ 10763 10752 10751 10750 ] final  171.48 input  -60.55 | X-H torsion
[ 11005 11000 10999 10996 ] final -123.01 input  -57.11 | X-H torsion

> <Gold.Protein.ActiveResidues>
 VAL166  LYS551  ARG553  GLY616  TRP617  ASP618  TYR619  PRO620  LYS621  CYS622 
 ASP623  PHE694  ASN695  SER759  ASP760  ASP761  ALA762  ILE779  LEU786  VAL792 
 PHE793  MET794  SER795  GLU796  ALA797  LYS798  CYS799  TRP800  GLU811  SER814 

> <Gold.Protein.RotatedAtoms>
  151.7104  133.3312  159.3289 H   0  0  0  0  0  0  0  0  0  0  0  0  # atno 6907 bound_to 6896
  150.7696  134.6537  159.6311 H   0  0  0  0  0  0  0  0  0  0  0  0  # atno 6908 bound_to 6896
  152.3715  134.6730  160.0226 H   0  0  0  0  0  0  0  0  0  0  0  0  # atno 6909 bound_to 6896
  145.0581  139.3827  143.5020 H   0  0  0  0  0  0  0  0  0  0  0  0  # atno 7974 bound_to 7965
  156.1152  140.3221  155.8129 H   0  0  0  0  0  0  0  0  0  0  0  0  # atno 8008 bound_to 7997
  155.4603  140.0539  157.3009 H   0  0  0  0  0  0  0  0  0  0  0  0  # atno 8009 bound_to 7997
  154.4787  140.2044  155.9828 H   0  0  0  0  0  0  0  0  0  0  0  0  # atno 8010 bound_to 7997
  139.8119  143.7691  152.2664 H   0  0  0  0  0  0  0  0  0  0  0  0  # atno 10167 bound_to 10162
  157.6620  131.0877  150.6185 H   0  0  0  0  0  0  0  0  0  0  0  0  # atno 10718 bound_to 10713
  154.4125  135.2756  155.2028 H   0  0  0  0  0  0  0  0  0  0  0  0  # atno 10763 bound_to 10752
  154.4007  135.6045  153.5899 H   0  0  0  0  0  0  0  0  0  0  0  0  # atno 10764 bound_to 10752
  152.9831  135.5926  154.4409 H   0  0  0  0  0  0  0  0  0  0  0  0  # atno 10765 bound_to 10752
  140.9951  134.0483  157.3607 H   0  0  0  0  0  0  0  0  0  0  0  0  # atno 11005 bound_to 11000
  146.3522  140.0265  142.8654 LP  0  0  0  0  0  0  0  0  0  0  0  0  # atno 17320 bound_to 7965
  145.1443  140.9588  143.4470 LP  0  0  0  0  0  0  0  0  0  0  0  0  # atno 17321 bound_to 7965
  139.7843  144.7433  151.0045 LP  0  0  0  0  0  0  0  0  0  0  0  0  # atno 17342 bound_to 10162
  140.7817  143.4509  151.0414 LP  0  0  0  0  0  0  0  0  0  0  0  0  # atno 17343 bound_to 10162
  156.6487  130.4479  149.5727 LP  0  0  0  0  0  0  0  0  0  0  0  0  # atno 17370 bound_to 10713
  156.2154  130.6704  151.1313 LP  0  0  0  0  0  0  0  0  0  0  0  0  # atno 17371 bound_to 10713
  139.9011  135.0164  156.7272 LP  0  0  0  0  0  0  0  0  0  0  0  0  # atno 17394 bound_to 11000
  140.6978  133.9333  155.8005 LP  0  0  0  0  0  0  0  0  0  0  0  0  # atno 17395 bound_to 11000

$$$$
