AV-unprocessed.smi:3349|AV-procd|sdf|12931|dock6
  -GOLD-   2272019363D 1   1.00000     0.00000
 Structure written by MMmdl.
 40 41  0  0  0  0  0  0  0  0  1 V2000
  152.0819  145.1183  158.7236 C   0  0  0  0  0  0  0  0  0  0  0  0
  151.0438  144.2210  159.4453 C   0  0  2  0  0  0  0  0  0  0  0  0
  150.0968  145.1239  160.2830 C   0  0  0  0  0  0  0  0  0  0  0  0
  148.7095  145.0354  159.8412 N   0  0  0  0  0  0  0  0  0  0  0  0
  147.6875  144.6347  160.6117 C   0  0  0  0  0  0  0  0  0  0  0  0
  147.8265  144.2827  161.7836 O   0  0  0  0  0  0  0  0  0  0  0  0
  146.2971  144.6175  159.9545 C   0  0  2  0  0  0  0  0  0  0  0  0
  145.7794  146.0595  159.7617 C   0  0  0  0  0  0  0  0  0  0  0  0
  145.3629  143.7728  160.7048 N   0  0  0  0  0  0  0  0  0  0  0  0
  144.9435  143.8421  161.9745 C   0  0  0  0  0  0  0  0  0  0  0  0
  144.1551  142.8425  162.3431 N   0  0  0  0  0  0  0  0  0  0  0  0
  144.1467  142.1223  161.1839 C   0  0  0  0  0  0  0  0  0  0  0  0
  144.8726  142.6194  160.1831 N   0  0  0  0  0  0  0  0  0  0  0  0
  151.6766  143.1399  160.2370 N   0  0  0  0  0  0  0  0  0  0  0  0
  152.7055  142.4109  159.4861 C   0  0  0  0  0  0  0  0  0  0  0  0
  153.3843  141.3086  160.3179 C   0  0  0  0  0  0  0  0  0  0  0  0
  153.9458  141.8719  161.4952 O   0  0  0  0  0  0  0  0  0  0  0  0
  152.9673  142.5223  162.2939 C   0  0  0  0  0  0  0  0  0  0  0  0
  152.2876  143.6343  161.4767 C   0  0  0  0  0  0  0  0  0  0  0  0
  151.6195  145.9445  158.1849 H   0  0  0  0  0  0  0  0  0  0  0  0
  152.6472  144.5721  157.9700 H   0  0  0  0  0  0  0  0  0  0  0  0
  152.7909  145.5476  159.4322 H   0  0  0  0  0  0  0  0  0  0  0  0
  150.4329  143.7544  158.6709 H   0  0  0  0  0  0  0  0  0  0  0  0
  150.0894  144.8331  161.3324 H   0  0  0  0  0  0  0  0  0  0  0  0
  150.4366  146.1602  160.2382 H   0  0  0  0  0  0  0  0  0  0  0  0
  148.5142  145.3055  158.8880 H   0  0  0  0  0  0  0  0  0  0  0  0
  146.3969  144.1684  158.9648 H   0  0  0  0  0  0  0  0  0  0  0  0
  146.5297  146.6893  159.2820 H   0  0  0  0  0  0  0  0  0  0  0  0
  145.5180  146.5230  160.7141 H   0  0  0  0  0  0  0  0  0  0  0  0
  144.8936  146.0811  159.1264 H   0  0  0  0  0  0  0  0  0  0  0  0
  145.2222  144.6375  162.6505 H   0  0  0  0  0  0  0  0  0  0  0  0
  143.6020  141.1955  161.0788 H   0  0  0  0  0  0  0  0  0  0  0  0
  152.2752  141.9249  158.6129 H   0  0  0  0  0  0  0  0  0  0  0  0
  153.4619  143.1080  159.1222 H   0  0  0  0  0  0  0  0  0  0  0  0
  152.6686  140.5284  160.5830 H   0  0  0  0  0  0  0  0  0  0  0  0
  154.1763  140.8326  159.7396 H   0  0  0  0  0  0  0  0  0  0  0  0
  152.2323  141.7975  162.6479 H   0  0  0  0  0  0  0  0  0  0  0  0
  153.4515  142.9431  163.1752 H   0  0  0  0  0  0  0  0  0  0  0  0
  153.0187  144.4104  161.2449 H   0  0  0  0  0  0  0  0  0  0  0  0
  151.5372  144.0882  162.1214 H   0  0  0  0  0  0  0  0  0  0  0  0
  1  2  1  0  0  0  0
  1 20  1  0  0  0  0
  1 21  1  0  0  0  0
  1 22  1  0  0  0  0
  2  3  1  0  0  0  0
  2 14  1  0  0  0  0
  2 23  1  0  0  0  0
  3  4  1  0  0  0  0
  3 24  1  0  0  0  0
  3 25  1  0  0  0  0
  4  5  1  0  0  0  0
  4 26  1  0  0  0  0
  5  6  2  0  0  0  0
  5  7  1  0  0  0  0
  7  8  1  0  0  0  0
  7  9  1  0  0  0  0
  7 27  1  0  0  0  0
  8 28  1  0  0  0  0
  8 29  1  0  0  0  0
  8 30  1  0  0  0  0
  9 13  1  0  0  0  0
  9 10  1  0  0  0  0
 10 11  2  0  0  0  0
 10 31  1  0  0  0  0
 11 12  1  0  0  0  0
 12 13  2  0  0  0  0
 12 32  1  0  0  0  0
 14 19  1  0  0  0  0
 14 15  1  0  0  0  0
 15 16  1  0  0  0  0
 15 33  1  0  0  0  0
 15 34  1  0  0  0  0
 16 17  1  0  0  0  0
 16 35  1  0  0  0  0
 16 36  1  0  0  0  0
 17 18  1  0  0  0  0
 18 19  1  0  0  0  0
 18 37  1  0  0  0  0
 18 38  1  0  0  0  0
 19 39  1  0  0  0  0
 19 40  1  0  0  0  0
M  END
> <s_m_source_file>
AV-unprocessed.smi

> <i_m_source_file_index>
3349

> <i_lp_mmshare_version>
43012

> <i_f3d_flags>
0

> <s_epik_input>
W0NIMl0xW0NIMl1PW0NIMl1bQ0gyXU4xW0NASF0oW0NIM10pW0NIMl1bTkhdQyg9TylbQ0BIXShbQ0gzXSluMltjSF1uW2NIXW4y

> <s_epik_cmdline>
J2VwaWtfcHl0aG9uJywgJy1waCcsICc3LjAnLCAnLXRuJywgJzgnLCAnLW1hJywgJzIwMCcsICctbWV0YWxfYmluZGluZycsICctaW1hZScsICc8aW5maWxlLm1hZT4nLCAnLW9tYWUnLCAnPG91dGZpbGUubWFlPic=

> <r_lp_tautomer_probability>
1

> <r_epik_Ionization_Penalty>
0.211373

> <r_epik_Ionization_Penalty_Charging>
0

> <r_epik_Ionization_Penalty_Neutral>
0.211373

> <r_epik_State_Penalty>
0.201459

> <r_epik_Charging_Adjusted_Penalty>
0.201459

> <i_epik_Tot_Q>
0

> <i_epik_Tot_abs_Q>
0

> <r_epik_Metal_State_Penalty>
0.201458

> <b_epik_Metal_Only>
0

> <s_lp_Force_Field>
OPLS_2005

> <r_lp_Energy>
36.462

> <b_lp_Chiralities_Consistent>
1

> <s_lp_Variant>
AV-unprocessed.smi:3349-1

> <Gold.Version>
5.8.1

> <Gold.Id.Protein>
6NUR|6NUR_protein|mol2

> <Gold.PLP.Fitness>
48.3829

> <Gold.PLP.PLP>
-44.8410

> <Gold.PLP.part.hbond>
-4.3568

> <Gold.PLP.part.metal>
0.0000

> <Gold.PLP.part.buried>
-7.5587

> <Gold.PLP.part.nonpolar>
-33.3937

> <Gold.PLP.part.repulsive>
0.4345

> <Gold.PLP.ligand.clash>
0.0000

> <Gold.PLP.ligand.torsion>
1.3096

> <Gold.PLP.Chemscore.Hbond>
1.9920

> <Gold.PLP.Chemscore.CHOScore>
0.0000

> <Gold.PLP.Chemscore.Metal>
0.0000

> <Gold.Chemscore.Hbonds>
donor molecule, donor type, donor heavy atom, donor atom, acceptor molecule, acceptor atom, score
      L1  H     4    26       P1  8029  1.00
      P1  H  6933  6944       L1     6  0.94

> <Gold.PLP.Chemscore.Internal.Correction>
0.1851

> <Gold.Rescore>
     Score         DG    S(hbond)    S(metal)    S(lipo)     H(rot)  DE(clash)    DE(int)     intcor
     13.25     -15.39       1.97        0.00      84.49       2.56       0.01       2.13       ----

> <Gold.Chemscore.Fitness>
13.2480

> <Gold.Chemscore.DG>
-15.3916

> <Gold.Chemscore.ZeroCoef>
-5.4800

> <Gold.Chemscore.Hbond>
1.9677

> <Gold.Chemscore.Metal>
0.0000

> <Gold.Chemscore.Lipo>
84.4908

> <Gold.Chemscore.Internal_Hbond>
0.0000

> <Gold.Chemscore.DEClash>
0.0126

> <Gold.Chemscore.DEInternal>
2.1310

> <Gold.Chemscore.Rot>
2.5570

> <Gold.Chemscore.Internal.Correction>
   9.000000E+99

> <Gold.Chemscore.Hbonds>
donor molecule, donor type, donor heavy atom, donor atom, acceptor molecule, acceptor atom, score
      L1  H     4    26       P1  8029  1.00
      P1  H  6933  6944       L1     6  0.22

> <Gold.Chemscore.Hbond.Weighted>
-6.5720

> <Gold.Chemscore.Metal.Weighted>
-0.0000

> <Gold.Chemscore.Lipo.Weighted>
-9.8854

> <Gold.Chemscore.Internal_Hbond.Weighted>
0.0000

> <Gold.Chemscore.DEClash.Weighted>
0.0126

> <Gold.Chemscore.DEInternal.Weighted>
2.1310

> <Gold.Chemscore.Rot.Weighted>
6.5459

> <Gold.Chemscore.Internal.Correction.Weighted>
   9.000000E+99

> <Gold.Protein.RotatedTorsions>
[ 6907 6896 6895 6894 ] final   83.17 input  -60.11 | X-H torsion
[ 7974 7965 7964 7962 ] final -159.01 input  175.53 | X-H torsion
[ 8008 7997 7996 7995 ] final   32.89 input   59.86 | X-H torsion
[ 10167 10162 10161 10158 ] final  105.42 input  -65.29 | X-H torsion
[ 10718 10713 10712 10709 ] final   -7.56 input   66.30 | X-H torsion
[ 10763 10752 10751 10750 ] final  -53.15 input  -60.55 | X-H torsion
[ 11005 11000 10999 10996 ] final -156.27 input  -57.11 | X-H torsion

> <Gold.Protein.ActiveResidues>
 VAL166  LYS551  ARG553  GLY616  TRP617  ASP618  TYR619  PRO620  LYS621  CYS622 
 ASP623  PHE694  ASN695  SER759  ASP760  ASP761  ALA762  ILE779  LEU786  VAL792 
 PHE793  MET794  SER795  GLU796  ALA797  LYS798  CYS799  TRP800  GLU811  SER814 

> <Gold.Protein.RotatedAtoms>
  152.5320  134.2937  159.9052 H   0  0  0  0  0  0  0  0  0  0  0  0  # atno 6907 bound_to 6896
  151.2888  133.4168  159.2639 H   0  0  0  0  0  0  0  0  0  0  0  0  # atno 6908 bound_to 6896
  151.0218  134.9491  159.8121 H   0  0  0  0  0  0  0  0  0  0  0  0  # atno 6909 bound_to 6896
  144.7482  140.3746  143.6068 H   0  0  0  0  0  0  0  0  0  0  0  0  # atno 7974 bound_to 7965
  155.1298  140.3256  155.4477 H   0  0  0  0  0  0  0  0  0  0  0  0  # atno 8008 bound_to 7997
  156.2638  140.2012  156.6366 H   0  0  0  0  0  0  0  0  0  0  0  0  # atno 8009 bound_to 7997
  154.6621  140.0546  157.0061 H   0  0  0  0  0  0  0  0  0  0  0  0  # atno 8010 bound_to 7997
  139.7094  144.7080  151.1053 H   0  0  0  0  0  0  0  0  0  0  0  0  # atno 10167 bound_to 10162
  156.7155  130.5135  149.5881 H   0  0  0  0  0  0  0  0  0  0  0  0  # atno 10718 bound_to 10713
  154.1541  135.6485  153.4970 H   0  0  0  0  0  0  0  0  0  0  0  0  # atno 10763 bound_to 10752
  153.0129  135.5345  154.6778 H   0  0  0  0  0  0  0  0  0  0  0  0  # atno 10764 bound_to 10752
  154.6073  135.2950  155.0442 H   0  0  0  0  0  0  0  0  0  0  0  0  # atno 10765 bound_to 10752
  140.6774  134.4181  157.5228 H   0  0  0  0  0  0  0  0  0  0  0  0  # atno 11005 bound_to 11000
  145.7041  139.1668  143.2576 LP  0  0  0  0  0  0  0  0  0  0  0  0  # atno 17320 bound_to 7965
  146.1394  140.7078  142.9374 LP  0  0  0  0  0  0  0  0  0  0  0  0  # atno 17321 bound_to 7965
  140.7729  143.5314  150.9419 LP  0  0  0  0  0  0  0  0  0  0  0  0  # atno 17342 bound_to 10162
  139.8998  143.6849  152.3133 LP  0  0  0  0  0  0  0  0  0  0  0  0  # atno 17343 bound_to 10162
  156.1631  130.6387  151.0744 LP  0  0  0  0  0  0  0  0  0  0  0  0  # atno 17370 bound_to 10713
  157.6919  131.0807  150.7082 LP  0  0  0  0  0  0  0  0  0  0  0  0  # atno 17371 bound_to 10713
  139.8962  134.8664  156.2097 LP  0  0  0  0  0  0  0  0  0  0  0  0  # atno 17394 bound_to 11000
  141.0344  133.6971  156.1487 LP  0  0  0  0  0  0  0  0  0  0  0  0  # atno 17395 bound_to 11000

$$$$
