AV-unprocessed.smi:2387|AV-procd|sdf|9469|dock6
  -GOLD-   2272013 93D 1   1.00000     0.00000
 Structure written by MMmdl.
 47 49  0  0  0  0  0  0  0  0  1 V2000
  144.3902  131.9975  150.0226 C   0  0  0  0  0  0  0  0  0  0  0  0
  144.6934  133.3632  150.6027 C   0  0  0  0  0  0  0  0  0  0  0  0
  145.5545  133.5050  151.7102 C   0  0  0  0  0  0  0  0  0  0  0  0
  145.8004  134.7980  152.2111 C   0  0  0  0  0  0  0  0  0  0  0  0
  145.1692  135.9033  151.5907 C   0  0  0  0  0  0  0  0  0  0  0  0
  145.3486  137.2557  151.9885 N   0  0  0  0  0  0  0  0  0  0  0  0
  145.9788  137.7324  153.0754 C   0  0  0  0  0  0  0  0  0  0  0  0
  146.5063  137.0460  153.9499 O   0  0  0  0  0  0  0  0  0  0  0  0
  145.9518  139.0766  153.0976 N   0  0  0  0  0  0  0  0  0  0  0  0
  146.4991  139.9726  154.1327 C   0  0  0  0  0  0  0  0  0  0  0  0
  145.5356  140.1679  155.3364 C   0  0  0  0  0  0  0  0  0  0  0  0
  145.8743  139.7911  156.4593 O   0  0  0  0  0  0  0  0  0  0  0  0
  144.3370  140.7300  155.1038 N   0  0  0  0  0  0  0  0  0  0  0  0
  143.3092  140.9683  156.1081 C   0  0  0  0  0  0  0  0  0  0  0  0
  142.9975  142.4299  156.3679 C   0  0  0  0  0  0  0  0  0  0  0  0
  142.6280  143.3594  155.2361 C   0  0  0  0  0  0  0  0  0  0  0  0
  143.9604  143.5083  155.9310 C   0  0  0  0  0  0  0  0  0  0  0  0
  147.8396  139.3706  154.6435 C   0  0  0  0  0  0  0  0  0  0  0  0
  148.9610  140.3346  154.2440 C   0  0  0  0  0  0  0  0  0  0  0  0
  148.2781  141.6878  154.1102 C   0  0  0  0  0  0  0  0  0  0  0  0
  146.9145  141.3403  153.5172 C   0  0  0  0  0  0  0  0  0  0  0  0
  144.3381  135.6469  150.4799 C   0  0  0  0  0  0  0  0  0  0  0  0
  144.0968  134.4107  149.9942 N   0  0  0  0  0  0  0  0  0  0  0  0
  144.9439  131.2148  150.5418 H   0  0  0  0  0  0  0  0  0  0  0  0
  144.6629  131.9635  148.9674 H   0  0  0  0  0  0  0  0  0  0  0  0
  143.3261  131.7767  150.1102 H   0  0  0  0  0  0  0  0  0  0  0  0
  146.0218  132.6446  152.1663 H   0  0  0  0  0  0  0  0  0  0  0  0
  146.4740  134.9141  153.0457 H   0  0  0  0  0  0  0  0  0  0  0  0
  144.8937  137.9410  151.4031 H   0  0  0  0  0  0  0  0  0  0  0  0
  145.4913  139.5362  152.3260 H   0  0  0  0  0  0  0  0  0  0  0  0
  144.1256  141.0150  154.1587 H   0  0  0  0  0  0  0  0  0  0  0  0
  142.3886  140.4603  155.8166 H   0  0  0  0  0  0  0  0  0  0  0  0
  143.6329  140.5001  157.0384 H   0  0  0  0  0  0  0  0  0  0  0  0
  142.4991  142.6100  157.3187 H   0  0  0  0  0  0  0  0  0  0  0  0
  142.6310  142.9553  154.2257 H   0  0  0  0  0  0  0  0  0  0  0  0
  141.8691  144.1137  155.4345 H   0  0  0  0  0  0  0  0  0  0  0  0
  144.0904  144.3630  156.5919 H   0  0  0  0  0  0  0  0  0  0  0  0
  144.8492  143.2039  155.3819 H   0  0  0  0  0  0  0  0  0  0  0  0
  147.8446  139.2617  155.7299 H   0  0  0  0  0  0  0  0  0  0  0  0
  148.0336  138.3736  154.2447 H   0  0  0  0  0  0  0  0  0  0  0  0
  149.7803  140.3475  154.9633 H   0  0  0  0  0  0  0  0  0  0  0  0
  149.3720  140.0379  153.2780 H   0  0  0  0  0  0  0  0  0  0  0  0
  148.1539  142.1415  155.0942 H   0  0  0  0  0  0  0  0  0  0  0  0
  148.8419  142.3838  153.4885 H   0  0  0  0  0  0  0  0  0  0  0  0
  147.0265  141.2577  152.4348 H   0  0  0  0  0  0  0  0  0  0  0  0
  146.1864  142.1347  153.6902 H   0  0  0  0  0  0  0  0  0  0  0  0
  143.8456  136.4591  149.9652 H   0  0  0  0  0  0  0  0  0  0  0  0
  1  2  1  0  0  0  0
  1 24  1  0  0  0  0
  1 25  1  0  0  0  0
  1 26  1  0  0  0  0
  2 23  1  0  0  0  0
  2  3  2  0  0  0  0
  3  4  1  0  0  0  0
  3 27  1  0  0  0  0
  4  5  2  0  0  0  0
  4 28  1  0  0  0  0
  5  6  1  0  0  0  0
  5 22  1  0  0  0  0
  6  7  1  0  0  0  0
  6 29  1  0  0  0  0
  7  8  2  0  0  0  0
  7  9  1  0  0  0  0
  9 10  1  0  0  0  0
  9 30  1  0  0  0  0
 10 21  1  0  0  0  0
 10 11  1  0  0  0  0
 10 18  1  0  0  0  0
 11 12  2  0  0  0  0
 11 13  1  0  0  0  0
 13 14  1  0  0  0  0
 13 31  1  0  0  0  0
 14 15  1  0  0  0  0
 14 32  1  0  0  0  0
 14 33  1  0  0  0  0
 15 17  1  0  0  0  0
 15 16  1  0  0  0  0
 15 34  1  0  0  0  0
 16 17  1  0  0  0  0
 16 35  1  0  0  0  0
 16 36  1  0  0  0  0
 17 37  1  0  0  0  0
 17 38  1  0  0  0  0
 18 19  1  0  0  0  0
 18 39  1  0  0  0  0
 18 40  1  0  0  0  0
 19 20  1  0  0  0  0
 19 41  1  0  0  0  0
 19 42  1  0  0  0  0
 20 21  1  0  0  0  0
 20 43  1  0  0  0  0
 20 44  1  0  0  0  0
 21 45  1  0  0  0  0
 21 46  1  0  0  0  0
 22 23  2  0  0  0  0
 22 47  1  0  0  0  0
M  END
> <s_m_source_file>
AV-unprocessed.smi

> <i_m_source_file_index>
2387

> <i_lp_mmshare_version>
43012

> <i_f3d_flags>
0

> <s_epik_input>
W0NIM11jMVtjSF1bY0hdYyhbY0hdbjEpW05IXUMoPU8pW05IXUMyKFtDSDJdW0NIMl1bQ0gyXVtDSDJdMilDKD1PKVtOSF1bQ0gyXVtDSF0zW0NIMl1bQ0gyXTM=

> <s_epik_cmdline>
J2VwaWtfcHl0aG9uJywgJy1waCcsICc3LjAnLCAnLXRuJywgJzgnLCAnLW1hJywgJzIwMCcsICctbWV0YWxfYmluZGluZycsICctaW1hZScsICc8aW5maWxlLm1hZT4nLCAnLW9tYWUnLCAnPG91dGZpbGUubWFlPic=

> <r_epik_Ionization_Penalty>
0.0173464

> <r_epik_Ionization_Penalty_Charging>
0

> <r_epik_Ionization_Penalty_Neutral>
0.0173464

> <r_epik_State_Penalty>
0.0137159

> <r_epik_Charging_Adjusted_Penalty>
0.0137159

> <i_epik_Tot_Q>
0

> <i_epik_Tot_abs_Q>
0

> <r_epik_Metal_State_Penalty>
0.0133255

> <b_epik_Metal_Only>
0

> <s_lp_Force_Field>
OPLS_2005

> <r_lp_Energy>
29.6161

> <b_lp_Chiralities_Consistent>
1

> <s_lp_Variant>
AV-unprocessed.smi:2387-1

> <Gold.Version>
5.8.1

> <Gold.Id.Protein>
6NUR|6NUR_protein|mol2

> <Gold.PLP.Fitness>
40.6651

> <Gold.PLP.PLP>
-31.1180

> <Gold.PLP.part.hbond>
-3.0000

> <Gold.PLP.part.metal>
0.0000

> <Gold.PLP.part.buried>
-3.9777

> <Gold.PLP.part.nonpolar>
-26.0884

> <Gold.PLP.part.repulsive>
0.7885

> <Gold.PLP.ligand.clash>
0.0000

> <Gold.PLP.ligand.torsion>
0.8704

> <Gold.PLP.Chemscore.Hbond>
2.5551

> <Gold.PLP.Chemscore.CHOScore>
1.0000

> <Gold.PLP.Chemscore.Metal>
0.0000

> <Gold.Chemscore.Hbonds>
donor molecule, donor type, donor heavy atom, donor atom, acceptor molecule, acceptor atom, score
      L1  H     6    29       P1 10171  1.00
      L1  H     9    30       P1 10175  0.49
      L1  H    13    31       P1 10175  0.94
      L1  C    22    47       P1 10171  1.00

> <Gold.PLP.Chemscore.Internal.Correction>
0.6227

> <Gold.Rescore>
     Score         DG    S(hbond)    S(metal)    S(lipo)     H(rot)  DE(clash)    DE(int)     intcor
     14.76     -18.25       2.49        0.00      72.93       1.59       0.13       3.36       ----

> <Gold.Chemscore.Fitness>
14.7642

> <Gold.Chemscore.DG>
-18.2513

> <Gold.Chemscore.ZeroCoef>
-5.4800

> <Gold.Chemscore.Hbond>
2.4909

> <Gold.Chemscore.Metal>
0.0000

> <Gold.Chemscore.Lipo>
72.9289

> <Gold.Chemscore.Internal_Hbond>
0.0000

> <Gold.Chemscore.DEClash>
0.1306

> <Gold.Chemscore.DEInternal>
3.3564

> <Gold.Chemscore.Rot>
1.5941

> <Gold.Chemscore.Internal.Correction>
   9.000000E+99

> <Gold.Chemscore.Hbonds>
donor molecule, donor type, donor heavy atom, donor atom, acceptor molecule, acceptor atom, score
      L1  H     6    29       P1 10171  0.95
      L1  H     9    30       P1 10175  0.46
      L1  H    13    31       P1 10175  0.78

> <Gold.Chemscore.Hbond.Weighted>
-8.3195

> <Gold.Chemscore.Metal.Weighted>
-0.0000

> <Gold.Chemscore.Lipo.Weighted>
-8.5327

> <Gold.Chemscore.Internal_Hbond.Weighted>
0.0000

> <Gold.Chemscore.DEClash.Weighted>
0.1306

> <Gold.Chemscore.DEInternal.Weighted>
3.3564

> <Gold.Chemscore.Rot.Weighted>
4.0809

> <Gold.Chemscore.Internal.Correction.Weighted>
   9.000000E+99

> <Gold.Protein.RotatedTorsions>
[ 6907 6896 6895 6894 ] final  -18.55 input  -60.11 | X-H torsion
[ 7974 7965 7964 7962 ] final  -19.67 input  175.53 | X-H torsion
[ 8008 7997 7996 7995 ] final  -24.71 input   59.86 | X-H torsion
[ 10167 10162 10161 10158 ] final  -60.70 input  -65.29 | X-H torsion
[ 10718 10713 10712 10709 ] final  -86.77 input   66.30 | X-H torsion
[ 10763 10752 10751 10750 ] final  123.18 input  -60.55 | X-H torsion
[ 11005 11000 10999 10996 ] final  138.08 input  -57.11 | X-H torsion

> <Gold.Protein.ActiveResidues>
 VAL166  LYS551  ARG553  GLY616  TRP617  ASP618  TYR619  PRO620  LYS621  CYS622 
 ASP623  PHE694  ASN695  SER759  ASP760  ASP761  ALA762  ILE779  LEU786  VAL792 
 PHE793  MET794  SER795  GLU796  ALA797  LYS798  CYS799  TRP800  GLU811  SER814 

> <Gold.Protein.RotatedAtoms>
  151.2765  135.0701  159.9153 H   0  0  0  0  0  0  0  0  0  0  0  0  # atno 6907 bound_to 6896
  152.5341  134.0075  159.7933 H   0  0  0  0  0  0  0  0  0  0  0  0  # atno 6908 bound_to 6896
  151.0322  133.5730  159.2690 H   0  0  0  0  0  0  0  0  0  0  0  0  # atno 6909 bound_to 6896
  146.1829  140.4094  142.8487 H   0  0  0  0  0  0  0  0  0  0  0  0  # atno 7974 bound_to 7965
  154.4514  140.1946  156.0507 H   0  0  0  0  0  0  0  0  0  0  0  0  # atno 8008 bound_to 7997
  156.0656  140.3291  155.7486 H   0  0  0  0  0  0  0  0  0  0  0  0  # atno 8009 bound_to 7997
  155.5343  140.0581  157.2873 H   0  0  0  0  0  0  0  0  0  0  0  0  # atno 8010 bound_to 7997
  140.6054  143.2372  151.5834 H   0  0  0  0  0  0  0  0  0  0  0  0  # atno 10167 bound_to 10162
  155.9988  130.4777  150.4766 H   0  0  0  0  0  0  0  0  0  0  0  0  # atno 10718 bound_to 10713
  153.6414  135.3378  155.3072 H   0  0  0  0  0  0  0  0  0  0  0  0  # atno 10763 bound_to 10752
  154.8558  135.4319  154.2001 H   0  0  0  0  0  0  0  0  0  0  0  0  # atno 10764 bound_to 10752
  153.2921  135.7018  153.7358 H   0  0  0  0  0  0  0  0  0  0  0  0  # atno 10765 bound_to 10752
  140.0159  134.9418  157.0374 H   0  0  0  0  0  0  0  0  0  0  0  0  # atno 11005 bound_to 11000
  144.8346  140.6762  143.6269 LP  0  0  0  0  0  0  0  0  0  0  0  0  # atno 17320 bound_to 7965
  145.4024  139.1595  143.4170 LP  0  0  0  0  0  0  0  0  0  0  0  0  # atno 17321 bound_to 7965
  139.5321  144.2886  152.1170 LP  0  0  0  0  0  0  0  0  0  0  0  0  # atno 17342 bound_to 10162
  140.2075  144.4596  150.6402 LP  0  0  0  0  0  0  0  0  0  0  0  0  # atno 17343 bound_to 10162
  157.2775  131.0600  151.2219 LP  0  0  0  0  0  0  0  0  0  0  0  0  # atno 17370 bound_to 10713
  157.3277  130.6969  149.6306 LP  0  0  0  0  0  0  0  0  0  0  0  0  # atno 17371 bound_to 10713
  140.4472  134.1619  155.7178 LP  0  0  0  0  0  0  0  0  0  0  0  0  # atno 17394 bound_to 11000
  141.1742  133.8547  157.1474 LP  0  0  0  0  0  0  0  0  0  0  0  0  # atno 17395 bound_to 11000

$$$$
