AV-unprocessed.smi:916|AV-procd|sdf|4158|dock3
  -GOLD-   22720 2 63D 1   1.00000     0.00000
 Structure written by MMmdl.
 43 44  0  0  0  0  0  0  0  0  1 V2000
  143.8009  132.7172  148.6728 C   0  0  0  0  0  0  0  0  0  0  0  0
  144.5966  132.2607  149.9005 C   0  0  0  0  0  0  0  0  0  0  0  0
  144.6545  133.3124  150.9666 C   0  0  0  0  0  0  0  0  0  0  0  0
  143.5884  133.8932  151.6091 C   0  0  0  0  0  0  0  0  0  0  0  0
  144.0978  135.0695  152.7905 S   0  0  0  0  0  0  0  0  0  0  0  0
  145.7645  134.7278  152.3543 C   0  0  0  0  0  0  0  0  0  0  0  0
  146.8549  135.3790  152.9881 N   0  0  0  0  0  0  0  0  0  0  0  0
  146.9072  135.8954  154.2282 C   0  0  0  0  0  0  0  0  0  0  0  0
  146.0084  135.8241  155.0670 O   0  0  0  0  0  0  0  0  0  0  0  0
  148.0833  136.4998  154.4511 N   0  0  0  0  0  0  0  0  0  0  0  0
  148.4754  137.1615  155.6917 C   0  0  0  0  0  0  0  0  0  0  0  0
  148.8803  138.6284  155.4510 C   0  0  2  0  0  0  0  0  0  0  0  0
  147.9514  139.3980  154.5308 C   0  0  0  0  0  0  0  0  0  0  0  0
  148.8240  140.5772  154.1134 C   0  0  0  0  0  0  0  0  0  0  0  0
  150.1628  140.0911  154.1153 O   0  0  0  0  0  0  0  0  0  0  0  0
  150.2156  138.7965  154.7107 C   0  0  1  0  0  0  0  0  0  0  0  0
  151.4974  138.6219  155.5583 C   0  0  0  0  0  0  0  0  0  0  0  0
  151.6125  139.6324  156.7139 C   0  0  0  0  0  0  0  0  0  0  0  0
  152.7505  138.6720  154.6704 C   0  0  0  0  0  0  0  0  0  0  0  0
  145.8920  133.7998  151.3992 N   0  0  0  0  0  0  0  0  0  0  0  0
  143.7725  131.9337  147.9154 H   0  0  0  0  0  0  0  0  0  0  0  0
  144.2486  133.6021  148.2193 H   0  0  0  0  0  0  0  0  0  0  0  0
  142.7719  132.9606  148.9393 H   0  0  0  0  0  0  0  0  0  0  0  0
  144.1486  131.3497  150.2987 H   0  0  0  0  0  0  0  0  0  0  0  0
  145.6061  131.9865  149.5926 H   0  0  0  0  0  0  0  0  0  0  0  0
  142.5367  133.6981  151.4606 H   0  0  0  0  0  0  0  0  0  0  0  0
  147.6863  135.4787  152.4245 H   0  0  0  0  0  0  0  0  0  0  0  0
  148.7615  136.5053  153.7033 H   0  0  0  0  0  0  0  0  0  0  0  0
  147.6198  137.1229  156.3657 H   0  0  0  0  0  0  0  0  0  0  0  0
  149.2787  136.6174  156.1917 H   0  0  0  0  0  0  0  0  0  0  0  0
  148.9137  139.1529  156.4055 H   0  0  0  0  0  0  0  0  0  0  0  0
  147.6947  138.7957  153.6580 H   0  0  0  0  0  0  0  0  0  0  0  0
  147.0248  139.7091  155.0141 H   0  0  0  0  0  0  0  0  0  0  0  0
  148.5451  140.9763  153.1378 H   0  0  0  0  0  0  0  0  0  0  0  0
  148.7488  141.3831  154.8442 H   0  0  0  0  0  0  0  0  0  0  0  0
  150.2350  138.0794  153.8880 H   0  0  0  0  0  0  0  0  0  0  0  0
  151.4677  137.6254  155.9996 H   0  0  0  0  0  0  0  0  0  0  0  0
  151.6071  140.6594  156.3474 H   0  0  0  0  0  0  0  0  0  0  0  0
  152.5405  139.4862  157.2670 H   0  0  0  0  0  0  0  0  0  0  0  0
  150.7991  139.5282  157.4304 H   0  0  0  0  0  0  0  0  0  0  0  0
  152.8612  139.6470  154.1947 H   0  0  0  0  0  0  0  0  0  0  0  0
  152.7057  137.9204  153.8818 H   0  0  0  0  0  0  0  0  0  0  0  0
  153.6532  138.4821  155.2519 H   0  0  0  0  0  0  0  0  0  0  0  0
  1  2  1  0  0  0  0
  1 21  1  0  0  0  0
  1 22  1  0  0  0  0
  1 23  1  0  0  0  0
  2  3  1  0  0  0  0
  2 24  1  0  0  0  0
  2 25  1  0  0  0  0
  3 20  1  0  0  0  0
  3  4  2  0  0  0  0
  4  5  1  0  0  0  0
  4 26  1  0  0  0  0
  5  6  1  0  0  0  0
  6  7  1  0  0  0  0
  6 20  2  0  0  0  0
  7  8  1  0  0  0  0
  7 27  1  0  0  0  0
  8  9  2  0  0  0  0
  8 10  1  0  0  0  0
 10 11  1  0  0  0  0
 10 28  1  0  0  0  0
 11 12  1  0  0  0  0
 11 29  1  0  0  0  0
 11 30  1  0  0  0  0
 12 16  1  0  0  0  0
 12 13  1  0  0  0  0
 12 31  1  0  0  0  0
 13 14  1  0  0  0  0
 13 32  1  0  0  0  0
 13 33  1  0  0  0  0
 14 15  1  0  0  0  0
 14 34  1  0  0  0  0
 14 35  1  0  0  0  0
 15 16  1  0  0  0  0
 16 17  1  0  0  0  0
 16 36  1  0  0  0  0
 17 18  1  0  0  0  0
 17 19  1  0  0  0  0
 17 37  1  0  0  0  0
 18 38  1  0  0  0  0
 18 39  1  0  0  0  0
 18 40  1  0  0  0  0
 19 41  1  0  0  0  0
 19 42  1  0  0  0  0
 19 43  1  0  0  0  0
M  END
> <s_m_source_file>
AV-unprocessed.smi

> <i_m_source_file_index>
916

> <i_lp_mmshare_version>
43012

> <i_f3d_flags>
0

> <s_epik_input>
W0NIM11bQ0gyXWMxW2NIXXNjKG4xKVtOSF1DKD1PKVtOSF1bQ0gyXVtDQEBIXTJbQ0gyXVtDSDJdT1tDQEhdMltDSF0oW0NIM10pW0NIM10=

> <s_epik_cmdline>
J2VwaWtfcHl0aG9uJywgJy1waCcsICc3LjAnLCAnLXRuJywgJzgnLCAnLW1hJywgJzIwMCcsICctbWV0YWxfYmluZGluZycsICctaW1hZScsICc8aW5maWxlLm1hZT4nLCAnLW9tYWUnLCAnPG91dGZpbGUubWFlPic=

> <r_lp_tautomer_probability>
0.999

> <r_epik_Ionization_Penalty>
0.000518907

> <r_epik_Ionization_Penalty_Charging>
0

> <r_epik_Ionization_Penalty_Neutral>
0.000518907

> <r_epik_State_Penalty>
0.000177984

> <r_epik_Charging_Adjusted_Penalty>
0.000177984

> <i_epik_Tot_Q>
0

> <i_epik_Tot_abs_Q>
0

> <r_epik_Metal_State_Penalty>
-0

> <b_epik_Metal_Only>
0

> <s_lp_Force_Field>
OPLS_2005

> <r_lp_Energy>
16.7546

> <b_lp_Chiralities_Consistent>
1

> <s_lp_Variant>
AV-unprocessed.smi:916-1

> <Gold.Version>
5.8.1

> <Gold.Id.Protein>
6NUR|6NUR_protein|mol2

> <Gold.PLP.Fitness>
43.6388

> <Gold.PLP.PLP>
-32.5580

> <Gold.PLP.part.hbond>
-2.9916

> <Gold.PLP.part.metal>
0.0000

> <Gold.PLP.part.buried>
-4.5668

> <Gold.PLP.part.nonpolar>
-26.0452

> <Gold.PLP.part.repulsive>
1.1561

> <Gold.PLP.ligand.clash>
0.0000

> <Gold.PLP.ligand.torsion>
0.2755

> <Gold.PLP.Chemscore.Hbond>
2.8560

> <Gold.PLP.Chemscore.CHOScore>
1.0000

> <Gold.PLP.Chemscore.Metal>
0.0000

> <Gold.Chemscore.Hbonds>
donor molecule, donor type, donor heavy atom, donor atom, acceptor molecule, acceptor atom, score
      L1  H     7    27       P1  7948  1.00
      L1  H    10    28       P1  7948  0.88
      P1  H  7989  7998       L1    15  0.98
      L1  C     4    26       P1 10186  0.98

> <Gold.PLP.Chemscore.Internal.Correction>
0.0638

> <Gold.Rescore>
     Score         DG    S(hbond)    S(metal)    S(lipo)     H(rot)  DE(clash)    DE(int)     intcor
     20.12     -20.57       2.87        0.00      80.48       1.52       0.04       0.42       ----

> <Gold.Chemscore.Fitness>
20.1166

> <Gold.Chemscore.DG>
-20.5729

> <Gold.Chemscore.ZeroCoef>
-5.4800

> <Gold.Chemscore.Hbond>
2.8675

> <Gold.Chemscore.Metal>
0.0000

> <Gold.Chemscore.Lipo>
80.4816

> <Gold.Chemscore.Internal_Hbond>
0.0000

> <Gold.Chemscore.DEClash>
0.0402

> <Gold.Chemscore.DEInternal>
0.4160

> <Gold.Chemscore.Rot>
1.5238

> <Gold.Chemscore.Internal.Correction>
   9.000000E+99

> <Gold.Chemscore.Hbonds>
donor molecule, donor type, donor heavy atom, donor atom, acceptor molecule, acceptor atom, score
      L1  H     7    27       P1  7948  0.94
      L1  H    10    28       P1  7948  0.86
      P1  H  7989  7998       L1    15  0.92

> <Gold.Chemscore.Hbond.Weighted>
-9.5774

> <Gold.Chemscore.Metal.Weighted>
-0.0000

> <Gold.Chemscore.Lipo.Weighted>
-9.4163

> <Gold.Chemscore.Internal_Hbond.Weighted>
0.0000

> <Gold.Chemscore.DEClash.Weighted>
0.0402

> <Gold.Chemscore.DEInternal.Weighted>
0.4160

> <Gold.Chemscore.Rot.Weighted>
3.9008

> <Gold.Chemscore.Internal.Correction.Weighted>
   9.000000E+99

> <Gold.Protein.RotatedTorsions>
[ 6907 6896 6895 6894 ] final -117.76 input  -60.11 | X-H torsion
[ 7974 7965 7964 7962 ] final   45.06 input  175.53 | X-H torsion
[ 8008 7997 7996 7995 ] final -145.89 input   59.86 | X-H torsion
[ 10167 10162 10161 10158 ] final  151.75 input  -65.29 | X-H torsion
[ 10718 10713 10712 10709 ] final   -9.45 input   66.30 | X-H torsion
[ 10763 10752 10751 10750 ] final   -9.80 input  -60.55 | X-H torsion
[ 11005 11000 10999 10996 ] final   26.22 input  -57.11 | X-H torsion

> <Gold.Protein.ActiveResidues>
 VAL166  LYS551  ARG553  GLY616  TRP617  ASP618  TYR619  PRO620  LYS621  CYS622 
 ASP623  PHE694  ASN695  SER759  ASP760  ASP761  ALA762  ILE779  LEU786  VAL792 
 PHE793  MET794  SER795  GLU796  ALA797  LYS798  CYS799  TRP800  GLU811  SER814 

> <Gold.Protein.RotatedAtoms>
  150.8163  133.8331  159.3158 H   0  0  0  0  0  0  0  0  0  0  0  0  # atno 6907 bound_to 6896
  151.6102  135.1039  160.0089 H   0  0  0  0  0  0  0  0  0  0  0  0  # atno 6908 bound_to 6896
  152.4254  133.7146  159.6555 H   0  0  0  0  0  0  0  0  0  0  0  0  # atno 6909 bound_to 6896
  146.0514  139.5006  142.9716 H   0  0  0  0  0  0  0  0  0  0  0  0  # atno 7974 bound_to 7965
  155.5504  140.0616  157.2851 H   0  0  0  0  0  0  0  0  0  0  0  0  # atno 8008 bound_to 7997
  154.4422  140.1903  156.0726 H   0  0  0  0  0  0  0  0  0  0  0  0  # atno 8009 bound_to 7997
  156.0520  140.3283  155.7366 H   0  0  0  0  0  0  0  0  0  0  0  0  # atno 8010 bound_to 7997
  139.4838  144.5415  151.7557 H   0  0  0  0  0  0  0  0  0  0  0  0  # atno 10167 bound_to 10162
  156.6878  130.5056  149.5952 H   0  0  0  0  0  0  0  0  0  0  0  0  # atno 10718 bound_to 10713
  153.4599  135.7016  153.6057 H   0  0  0  0  0  0  0  0  0  0  0  0  # atno 10763 bound_to 10752
  153.4355  135.3792  155.2197 H   0  0  0  0  0  0  0  0  0  0  0  0  # atno 10764 bound_to 10752
  154.8727  135.3961  154.4023 H   0  0  0  0  0  0  0  0  0  0  0  0  # atno 10765 bound_to 10752
  140.3393  134.2350  155.7692 H   0  0  0  0  0  0  0  0  0  0  0  0  # atno 11005 bound_to 11000
  145.6718  141.0214  143.1653 LP  0  0  0  0  0  0  0  0  0  0  0  0  # atno 17320 bound_to 7965
  144.7124  139.8320  143.7410 LP  0  0  0  0  0  0  0  0  0  0  0  0  # atno 17321 bound_to 7965
  140.4955  144.1247  150.5959 LP  0  0  0  0  0  0  0  0  0  0  0  0  # atno 17342 bound_to 10162
  140.4122  143.2651  151.9818 LP  0  0  0  0  0  0  0  0  0  0  0  0  # atno 17343 bound_to 10162
  156.1820  130.6505  151.0962 LP  0  0  0  0  0  0  0  0  0  0  0  0  # atno 17370 bound_to 10713
  157.7020  131.0772  150.6789 LP  0  0  0  0  0  0  0  0  0  0  0  0  # atno 17371 bound_to 10713
  141.2043  133.7891  157.0296 LP  0  0  0  0  0  0  0  0  0  0  0  0  # atno 17394 bound_to 11000
  140.0794  134.9657  157.1599 LP  0  0  0  0  0  0  0  0  0  0  0  0  # atno 17395 bound_to 11000

$$$$
