AV-unprocessed.smi:3311|AV-procd|sdf|12720|dock2
  -GOLD-   2272019 63D 1   1.00000     0.00000
 Structure written by MMmdl.
 44 45  0  0  0  0  0  0  0  0  2 V2000
  146.9349  138.8925  151.3415 C   0  0  0  0  0  0  0  0  0  0  0  0
  146.4749  138.2011  152.6378 C   0  0  1  0  0  0  0  0  0  0  0  0
  146.3904  136.7438  152.3971 N   0  3  0  0  0  0  0  0  0  0  0  0
  145.2309  136.3109  151.5872 C   0  0  0  0  0  0  0  0  0  0  0  0
  145.3535  134.8425  151.1246 C   0  0  0  0  0  0  0  0  0  0  0  0
  146.6484  134.6860  150.5707 O   0  0  0  0  0  0  0  0  0  0  0  0
  145.2393  133.8973  152.3442 C   0  0  0  0  0  0  0  0  0  0  0  0
  145.2539  132.4079  151.9552 C   0  0  0  0  0  0  0  0  0  0  0  0
  144.1637  132.0906  150.9225 C   0  0  0  0  0  0  0  0  0  0  0  0
  144.3031  132.9858  149.6833 C   0  0  0  0  0  0  0  0  0  0  0  0
  144.2880  134.4782  150.0609 C   0  0  0  0  0  0  0  0  0  0  0  0
  147.3981  138.4902  153.8502 C   0  0  2  0  0  0  0  0  0  0  0  0
  146.9467  137.7639  155.1312 C   0  0  0  0  0  0  0  0  0  0  0  0
  147.5225  139.9193  154.1083 N   0  0  0  0  0  0  0  0  0  0  0  0
  146.5240  140.8612  154.2617 C   0  0  0  0  0  0  0  0  0  0  0  0
  147.1288  142.0670  154.4726 C   0  0  0  0  0  0  0  0  0  0  0  0
  148.5172  141.7611  154.4273 C   0  0  0  0  0  0  0  0  0  0  0  0
  148.7492  140.4772  154.2064 N   0  0  0  0  0  0  0  0  0  0  0  0
  146.9118  139.9789  151.4297 H   0  0  0  0  0  0  0  0  0  0  0  0
  146.2867  138.6272  150.5057 H   0  0  0  0  0  0  0  0  0  0  0  0
  147.9523  138.6019  151.0778 H   0  0  0  0  0  0  0  0  0  0  0  0
  145.4791  138.5852  152.8669 H   0  0  0  0  0  0  0  0  0  0  0  0
  147.2335  136.4459  151.9281 H   0  0  0  0  0  0  0  0  0  0  0  0
  144.3205  136.4403  152.1748 H   0  0  0  0  0  0  0  0  0  0  0  0
  145.1440  136.9699  150.7221 H   0  0  0  0  0  0  0  0  0  0  0  0
  146.5863  134.7841  149.6322 H   0  0  0  0  0  0  0  0  0  0  0  0
  146.0418  134.0973  153.0556 H   0  0  0  0  0  0  0  0  0  0  0  0
  144.3093  134.1068  152.8748 H   0  0  0  0  0  0  0  0  0  0  0  0
  146.2308  132.1380  151.5524 H   0  0  0  0  0  0  0  0  0  0  0  0
  145.1106  131.7926  152.8440 H   0  0  0  0  0  0  0  0  0  0  0  0
  144.2210  131.0411  150.6315 H   0  0  0  0  0  0  0  0  0  0  0  0
  143.1799  132.2344  151.3710 H   0  0  0  0  0  0  0  0  0  0  0  0
  145.2298  132.7459  149.1609 H   0  0  0  0  0  0  0  0  0  0  0  0
  143.4944  132.7741  148.9831 H   0  0  0  0  0  0  0  0  0  0  0  0
  143.2983  134.7298  150.4446 H   0  0  0  0  0  0  0  0  0  0  0  0
  144.4236  135.0767  149.1591 H   0  0  0  0  0  0  0  0  0  0  0  0
  148.3951  138.1191  153.6040 H   0  0  0  0  0  0  0  0  0  0  0  0
  146.9693  136.6813  155.0063 H   0  0  0  0  0  0  0  0  0  0  0  0
  145.9312  138.0429  155.4145 H   0  0  0  0  0  0  0  0  0  0  0  0
  147.6031  138.0044  155.9683 H   0  0  0  0  0  0  0  0  0  0  0  0
  145.4775  140.5991  154.2085 H   0  0  0  0  0  0  0  0  0  0  0  0
  146.6520  143.0226  154.6341 H   0  0  0  0  0  0  0  0  0  0  0  0
  149.3578  142.4289  154.5460 H   0  0  0  0  0  0  0  0  0  0  0  0
  146.3421  136.2755  153.2913 H   0  0  0  0  0  0  0  0  0  0  0  0
  1  2  1  0  0  0  0
  1 19  1  0  0  0  0
  1 20  1  0  0  0  0
  1 21  1  0  0  0  0
  2  3  1  0  0  0  0
  2 12  1  0  0  0  0
  2 22  1  0  0  0  0
  3  4  1  0  0  0  0
  3 23  1  0  0  0  0
  3 44  1  0  0  0  0
  4  5  1  0  0  0  0
  4 24  1  0  0  0  0
  4 25  1  0  0  0  0
  5 11  1  0  0  0  0
  5  6  1  0  0  0  0
  5  7  1  0  0  0  0
  6 26  1  0  0  0  0
  7  8  1  0  0  0  0
  7 27  1  0  0  0  0
  7 28  1  0  0  0  0
  8  9  1  0  0  0  0
  8 29  1  0  0  0  0
  8 30  1  0  0  0  0
  9 10  1  0  0  0  0
  9 31  1  0  0  0  0
  9 32  1  0  0  0  0
 10 11  1  0  0  0  0
 10 33  1  0  0  0  0
 10 34  1  0  0  0  0
 11 35  1  0  0  0  0
 11 36  1  0  0  0  0
 12 13  1  0  0  0  0
 12 14  1  0  0  0  0
 12 37  1  0  0  0  0
 13 38  1  0  0  0  0
 13 39  1  0  0  0  0
 13 40  1  0  0  0  0
 14 18  1  0  0  0  0
 14 15  1  0  0  0  0
 15 16  2  0  0  0  0
 15 41  1  0  0  0  0
 16 17  1  0  0  0  0
 16 42  1  0  0  0  0
 17 18  2  0  0  0  0
 17 43  1  0  0  0  0
M  CHG  1   3   1
M  END
> <s_m_source_file>
AV-unprocessed.smi

> <i_m_source_file_index>
3311

> <i_lp_mmshare_version>
43012

> <i_f3d_flags>
0

> <s_epik_input>
bjFbY0hdW2NIXVtjSF1uMVtDQEBIXShbQ0gzXSlbQ0BIXShbQ0gzXSlbTkhdW0NIMl1DMihbT0hdKVtDSDJdW0NIMl1bQ0gyXVtDSDJdW0NIMl0y

> <s_epik_cmdline>
J2VwaWtfcHl0aG9uJywgJy1waCcsICc3LjAnLCAnLXRuJywgJzgnLCAnLW1hJywgJzIwMCcsICctbWV0YWxfYmluZGluZycsICctaW1hZScsICc8aW5maWxlLm1hZT4nLCAnLW9tYWUnLCAnPG91dGZpbGUubWFlPic=

> <r_lp_tautomer_probability>
1

> <r_epik_Ionization_Penalty>
0.0141403

> <r_epik_Ionization_Penalty_Charging>
0.0141276

> <r_epik_Ionization_Penalty_Neutral>
1.27139e-05

> <r_epik_State_Penalty>
0.0110334

> <r_epik_Charging_Adjusted_Penalty>
0.025161

> <i_epik_Tot_Q>
1

> <i_epik_Tot_abs_Q>
1

> <r_epik_Metal_State_Penalty>
0.0110573

> <b_epik_Metal_Only>
0

> <s_lp_Force_Field>
OPLS_2005

> <r_lp_Energy>
23.6471

> <b_lp_Chiralities_Consistent>
1

> <s_lp_Variant>
AV-unprocessed.smi:3311-2

> <Gold.Version>
5.8.1

> <Gold.Id.Protein>
6NUR|6NUR_protein|mol2

> <Gold.PLP.Fitness>
43.3802

> <Gold.PLP.PLP>
-29.9140

> <Gold.PLP.part.hbond>
-3.0578

> <Gold.PLP.part.metal>
0.0000

> <Gold.PLP.part.buried>
2.8189

> <Gold.PLP.part.nonpolar>
-30.2262

> <Gold.PLP.part.repulsive>
0.1596

> <Gold.PLP.ligand.clash>
0.0000

> <Gold.PLP.ligand.torsion>
0.4880

> <Gold.PLP.Chemscore.Hbond>
3.0000

> <Gold.PLP.Chemscore.CHOScore>
1.7918

> <Gold.PLP.Chemscore.Metal>
0.0000

> <Gold.Chemscore.Hbonds>
donor molecule, donor type, donor heavy atom, donor atom, acceptor molecule, acceptor atom, score
      L1  H     3    23       P1  7948  2.00
      L1  H     6    26       P1  7921  0.70
      L1  C    15    41       P1 10175  1.00
      L1  C    17    43       P1  8028  0.65

> <Gold.PLP.Chemscore.Internal.Correction>
0.0667

> <Gold.Rescore>
     Score         DG    S(hbond)    S(metal)    S(lipo)     H(rot)  DE(clash)    DE(int)     intcor
     13.74     -15.95       1.77        0.00      85.74       2.14       1.74       0.46       ----

> <Gold.Chemscore.Fitness>
13.7442

> <Gold.Chemscore.DG>
-15.9482

> <Gold.Chemscore.ZeroCoef>
-5.4800

> <Gold.Chemscore.Hbond>
1.7728

> <Gold.Chemscore.Metal>
0.0000

> <Gold.Chemscore.Lipo>
85.7417

> <Gold.Chemscore.Internal_Hbond>
0.0000

> <Gold.Chemscore.DEClash>
1.7450

> <Gold.Chemscore.DEInternal>
0.4590

> <Gold.Chemscore.Rot>
2.1424

> <Gold.Chemscore.Internal.Correction>
   9.000000E+99

> <Gold.Chemscore.Hbonds>
donor molecule, donor type, donor heavy atom, donor atom, acceptor molecule, acceptor atom, score
      L1  H     3    23       P1  7948  0.98
      L1  H     6    26       P1  7921  0.07

> <Gold.Chemscore.Hbond.Weighted>
-5.9211

> <Gold.Chemscore.Metal.Weighted>
-0.0000

> <Gold.Chemscore.Lipo.Weighted>
-10.0318

> <Gold.Chemscore.Internal_Hbond.Weighted>
0.0000

> <Gold.Chemscore.DEClash.Weighted>
1.7450

> <Gold.Chemscore.DEInternal.Weighted>
0.4590

> <Gold.Chemscore.Rot.Weighted>
5.4846

> <Gold.Chemscore.Internal.Correction.Weighted>
   9.000000E+99

> <Gold.Protein.RotatedTorsions>
[ 6907 6896 6895 6894 ] final  -46.30 input  -60.11 | X-H torsion
[ 7974 7965 7964 7962 ] final -146.14 input  175.53 | X-H torsion
[ 8008 7997 7996 7995 ] final -163.18 input   59.86 | X-H torsion
[ 10167 10162 10161 10158 ] final  156.30 input  -65.29 | X-H torsion
[ 10718 10713 10712 10709 ] final  -51.71 input   66.30 | X-H torsion
[ 10763 10752 10751 10750 ] final  166.40 input  -60.55 | X-H torsion
[ 11005 11000 10999 10996 ] final   78.29 input  -57.11 | X-H torsion

> <Gold.Protein.ActiveResidues>
 VAL166  LYS551  ARG553  GLY616  TRP617  ASP618  TYR619  PRO620  LYS621  CYS622 
 ASP623  PHE694  ASN695  SER759  ASP760  ASP761  ALA762  ILE779  LEU786  VAL792 
 PHE793  MET794  SER795  GLU796  ALA797  LYS798  CYS799  TRP800  GLU811  SER814 

> <Gold.Protein.RotatedAtoms>
  150.9127  134.8544  159.7436 H   0  0  0  0  0  0  0  0  0  0  0  0  # atno 6907 bound_to 6896
  152.4953  134.4335  159.9530 H   0  0  0  0  0  0  0  0  0  0  0  0  # atno 6908 bound_to 6896
  151.4375  133.3613  159.2812 H   0  0  0  0  0  0  0  0  0  0  0  0  # atno 6909 bound_to 6896
  144.8180  140.5495  143.5598 H   0  0  0  0  0  0  0  0  0  0  0  0  # atno 7974 bound_to 7965
  155.8176  140.0915  157.1868 H   0  0  0  0  0  0  0  0  0  0  0  0  # atno 8008 bound_to 7997
  154.3979  140.1443  156.3521 H   0  0  0  0  0  0  0  0  0  0  0  0  # atno 8009 bound_to 7997
  155.8300  140.3443  155.5569 H   0  0  0  0  0  0  0  0  0  0  0  0  # atno 8010 bound_to 7997
  139.4821  144.5021  151.8152 H   0  0  0  0  0  0  0  0  0  0  0  0  # atno 10167 bound_to 10162
  156.1686  130.4149  149.9682 H   0  0  0  0  0  0  0  0  0  0  0  0  # atno 10718 bound_to 10713
  154.3385  135.2754  155.2435 H   0  0  0  0  0  0  0  0  0  0  0  0  # atno 10763 bound_to 10752
  154.4716  135.5881  153.6329 H   0  0  0  0  0  0  0  0  0  0  0  0  # atno 10764 bound_to 10752
  152.9860  135.6089  154.3584 H   0  0  0  0  0  0  0  0  0  0  0  0  # atno 10765 bound_to 10752
  139.9219  134.7751  156.1630 H   0  0  0  0  0  0  0  0  0  0  0  0  # atno 11005 bound_to 11000
  145.5170  139.1477  143.3573 LP  0  0  0  0  0  0  0  0  0  0  0  0  # atno 17320 bound_to 7965
  146.2484  140.5311  142.8904 LP  0  0  0  0  0  0  0  0  0  0  0  0  # atno 17321 bound_to 7965
  140.4515  144.1848  150.5898 LP  0  0  0  0  0  0  0  0  0  0  0  0  # atno 17342 bound_to 10162
  140.4579  143.2460  151.9259 LP  0  0  0  0  0  0  0  0  0  0  0  0  # atno 17343 bound_to 10162
  156.7490  130.9108  151.3636 LP  0  0  0  0  0  0  0  0  0  0  0  0  # atno 17370 bound_to 10713
  157.6786  130.9118  150.0211 LP  0  0  0  0  0  0  0  0  0  0  0  0  # atno 17371 bound_to 10713
  141.0746  133.6781  156.2210 LP  0  0  0  0  0  0  0  0  0  0  0  0  # atno 17394 bound_to 11000
  140.6450  134.5127  157.5573 LP  0  0  0  0  0  0  0  0  0  0  0  0  # atno 17395 bound_to 11000

$$$$
