AV-unprocessed.smi:2293|AV-procd|sdf|9214|dock7
  -GOLD-   2272012433D 1   1.00000     0.00000
 Structure written by MMmdl.
 34 35  0  0  0  0  0  0  0  0  1 V2000
  152.1678  143.9882  160.2710 C   0  0  0  0  0  0  0  0  0  0  0  0
  152.0279  142.9601  159.1620 C   0  0  0  0  0  0  0  0  0  0  0  0
  151.1934  143.3252  158.1016 N   0  0  0  0  0  0  0  0  0  0  0  0
  151.0168  142.5137  157.1107 C   0  0  0  0  0  0  0  0  0  0  0  0
  151.6432  141.2574  157.0653 N   0  0  0  0  0  0  0  0  0  0  0  0
  151.3678  140.4329  155.8765 C   0  0  0  0  0  0  0  0  0  0  0  0
  150.0561  139.6279  156.0144 C   0  0  2  0  0  0  0  0  0  0  0  0
  150.3450  138.2560  155.8300 O   0  0  0  0  0  0  0  0  0  0  0  0
  149.0114  140.1122  155.0203 C   0  0  0  0  0  0  0  0  0  0  0  0
  148.6658  141.4799  154.9745 C   0  0  0  0  0  0  0  0  0  0  0  0
  147.7038  141.9392  154.0538 C   0  0  0  0  0  0  0  0  0  0  0  0
  147.0841  141.0339  153.1712 C   0  0  0  0  0  0  0  0  0  0  0  0
  147.4288  139.6690  153.2079 C   0  0  0  0  0  0  0  0  0  0  0  0
  146.8360  138.7979  152.3574 F   0  0  0  0  0  0  0  0  0  0  0  0
  148.3908  139.2095  154.1283 C   0  0  0  0  0  0  0  0  0  0  0  0
  152.4747  140.8237  158.0567 C   0  0  0  0  0  0  0  0  0  0  0  0
  153.0264  139.7225  158.0023 O   0  0  0  0  0  0  0  0  0  0  0  0
  152.6661  141.7581  159.1777 C   0  0  0  0  0  0  0  0  0  0  0  0
  153.5882  141.3071  160.3037 C   0  0  0  0  0  0  0  0  0  0  0  0
  151.8413  143.5703  161.2236 H   0  0  0  0  0  0  0  0  0  0  0  0
  151.5634  144.8737  160.0703 H   0  0  0  0  0  0  0  0  0  0  0  0
  153.2061  144.3070  160.3666 H   0  0  0  0  0  0  0  0  0  0  0  0
  150.3814  142.7533  156.2562 H   0  0  0  0  0  0  0  0  0  0  0  0
  151.2891  141.1016  155.0169 H   0  0  0  0  0  0  0  0  0  0  0  0
  152.1993  139.7710  155.6252 H   0  0  0  0  0  0  0  0  0  0  0  0
  149.6466  139.7438  157.0187 H   0  0  0  0  0  0  0  0  0  0  0  0
  151.2189  138.0888  156.1486 H   0  0  0  0  0  0  0  0  0  0  0  0
  149.1384  142.1832  155.6446 H   0  0  0  0  0  0  0  0  0  0  0  0
  147.4424  142.9867  154.0243 H   0  0  0  0  0  0  0  0  0  0  0  0
  146.3468  141.3865  152.4651 H   0  0  0  0  0  0  0  0  0  0  0  0
  148.6520  138.1613  154.1459 H   0  0  0  0  0  0  0  0  0  0  0  0
  154.5848  141.0995  159.9127 H   0  0  0  0  0  0  0  0  0  0  0  0
  153.2057  140.3931  160.7596 H   0  0  0  0  0  0  0  0  0  0  0  0
  153.6950  142.0479  161.0945 H   0  0  0  0  0  0  0  0  0  0  0  0
  1  2  1  0  0  0  0
  1 20  1  0  0  0  0
  1 21  1  0  0  0  0
  1 22  1  0  0  0  0
  2 18  2  0  0  0  0
  2  3  1  0  0  0  0
  3  4  2  0  0  0  0
  4  5  1  0  0  0  0
  4 23  1  0  0  0  0
  5  6  1  0  0  0  0
  5 16  1  0  0  0  0
  6  7  1  0  0  0  0
  6 24  1  0  0  0  0
  6 25  1  0  0  0  0
  7  8  1  0  0  0  0
  7  9  1  0  0  0  0
  7 26  1  0  0  0  0
  8 27  1  0  0  0  0
  9 15  1  0  0  0  0
  9 10  2  0  0  0  0
 10 11  1  0  0  0  0
 10 28  1  0  0  0  0
 11 12  2  0  0  0  0
 11 29  1  0  0  0  0
 12 13  1  0  0  0  0
 12 30  1  0  0  0  0
 13 14  1  0  0  0  0
 13 15  2  0  0  0  0
 15 31  1  0  0  0  0
 16 17  2  0  0  0  0
 16 18  1  0  0  0  0
 18 19  1  0  0  0  0
 19 32  1  0  0  0  0
 19 33  1  0  0  0  0
 19 34  1  0  0  0  0
M  END
> <s_m_source_file>
AV-unprocessed.smi

> <i_m_source_file_index>
2293

> <i_lp_mmshare_version>
43012

> <i_f3d_flags>
0

> <s_epik_input>
W0NIM11jMW5bY0hdbihjKD1PKWMxW0NIM10pW0NIMl1bQ0BIXShbT0hdKWMyW2NIXVtjSF1bY0hdYyhGKVtjSF0y

> <s_epik_cmdline>
J2VwaWtfcHl0aG9uJywgJy1waCcsICc3LjAnLCAnLXRuJywgJzgnLCAnLW1hJywgJzIwMCcsICctbWV0YWxfYmluZGluZycsICctaW1hZScsICc8aW5maWxlLm1hZT4nLCAnLW9tYWUnLCAnPG91dGZpbGUubWFlPic=

> <r_lp_tautomer_probability>
1

> <r_epik_Ionization_Penalty>
5.08222e-05

> <r_epik_Ionization_Penalty_Charging>
7.56727e-08

> <r_epik_Ionization_Penalty_Neutral>
5.07465e-05

> <r_epik_State_Penalty>
-0

> <r_epik_Charging_Adjusted_Penalty>
7.56727e-08

> <i_epik_Tot_Q>
0

> <i_epik_Tot_abs_Q>
0

> <r_epik_Metal_State_Penalty>
-0

> <b_epik_Metal_Only>
0

> <s_lp_Force_Field>
OPLS_2005

> <r_lp_Energy>
18.7837

> <b_lp_Chiralities_Consistent>
1

> <s_lp_Variant>
AV-unprocessed.smi:2293-1

> <Gold.Version>
5.8.1

> <Gold.Id.Protein>
6NUR|6NUR_protein|mol2

> <Gold.PLP.Fitness>
43.3767

> <Gold.PLP.PLP>
-39.6221

> <Gold.PLP.part.hbond>
-1.0000

> <Gold.PLP.part.metal>
0.0000

> <Gold.PLP.part.buried>
-2.6329

> <Gold.PLP.part.nonpolar>
-34.5698

> <Gold.PLP.part.repulsive>
0.1084

> <Gold.PLP.ligand.clash>
0.0000

> <Gold.PLP.ligand.torsion>
1.1258

> <Gold.PLP.Chemscore.Hbond>
1.0000

> <Gold.PLP.Chemscore.CHOScore>
1.0000

> <Gold.PLP.Chemscore.Metal>
0.0000

> <Gold.Chemscore.Hbonds>
donor molecule, donor type, donor heavy atom, donor atom, acceptor molecule, acceptor atom, score
      P1  H  7997  8010       L1    17  1.00
      L1  C     4    23       P1  8028  0.98

> <Gold.PLP.Chemscore.Internal.Correction>
0.0062

> <Gold.Rescore>
     Score         DG    S(hbond)    S(metal)    S(lipo)     H(rot)  DE(clash)    DE(int)     intcor
     13.23     -14.48       0.93        0.00      94.44       2.02       0.12       1.12       ----

> <Gold.Chemscore.Fitness>
13.2279

> <Gold.Chemscore.DG>
-14.4761

> <Gold.Chemscore.ZeroCoef>
-5.4800

> <Gold.Chemscore.Hbond>
0.9319

> <Gold.Chemscore.Metal>
0.0000

> <Gold.Chemscore.Lipo>
94.4430

> <Gold.Chemscore.Internal_Hbond>
0.0000

> <Gold.Chemscore.DEClash>
0.1244

> <Gold.Chemscore.DEInternal>
1.1238

> <Gold.Chemscore.Rot>
2.0181

> <Gold.Chemscore.Internal.Correction>
   9.000000E+99

> <Gold.Chemscore.Hbonds>
donor molecule, donor type, donor heavy atom, donor atom, acceptor molecule, acceptor atom, score
      P1  H  7997  8010       L1    17  0.40

> <Gold.Chemscore.Hbond.Weighted>
-3.1126

> <Gold.Chemscore.Metal.Weighted>
-0.0000

> <Gold.Chemscore.Lipo.Weighted>
-11.0498

> <Gold.Chemscore.Internal_Hbond.Weighted>
0.0000

> <Gold.Chemscore.DEClash.Weighted>
0.1244

> <Gold.Chemscore.DEInternal.Weighted>
1.1238

> <Gold.Chemscore.Rot.Weighted>
5.1663

> <Gold.Chemscore.Internal.Correction.Weighted>
   9.000000E+99

> <Gold.Protein.RotatedTorsions>
[ 6907 6896 6895 6894 ] final -142.71 input  -60.11 | X-H torsion
[ 7974 7965 7964 7962 ] final   28.83 input  175.53 | X-H torsion
[ 8008 7997 7996 7995 ] final   42.85 input   59.86 | X-H torsion
[ 10167 10162 10161 10158 ] final   -3.73 input  -65.29 | X-H torsion
[ 10718 10713 10712 10709 ] final  -83.27 input   66.30 | X-H torsion
[ 10763 10752 10751 10750 ] final  -24.69 input  -60.55 | X-H torsion
[ 11005 11000 10999 10996 ] final  144.49 input  -57.11 | X-H torsion

> <Gold.Protein.ActiveResidues>
 VAL166  LYS551  ARG553  GLY616  TRP617  ASP618  TYR619  PRO620  LYS621  CYS622 
 ASP623  PHE694  ASN695  SER759  ASP760  ASP761  ALA762  ILE779  LEU786  VAL792 
 PHE793  MET794  SER795  GLU796  ALA797  LYS798  CYS799  TRP800  GLU811  SER814 

> <Gold.Protein.RotatedAtoms>
  151.0907  133.5318  159.2614 H   0  0  0  0  0  0  0  0  0  0  0  0  # atno 6907 bound_to 6896
  151.2187  135.0509  159.8950 H   0  0  0  0  0  0  0  0  0  0  0  0  # atno 6908 bound_to 6896
  152.5434  134.0712  159.8248 H   0  0  0  0  0  0  0  0  0  0  0  0  # atno 6909 bound_to 6896
  146.1707  139.7004  142.8970 H   0  0  0  0  0  0  0  0  0  0  0  0  # atno 7974 bound_to 7965
  155.2930  140.3380  155.4251 H   0  0  0  0  0  0  0  0  0  0  0  0  # atno 8008 bound_to 7997
  156.2037  140.1742  156.7885 H   0  0  0  0  0  0  0  0  0  0  0  0  # atno 8009 bound_to 7997
  154.5592  140.0690  156.8776 H   0  0  0  0  0  0  0  0  0  0  0  0  # atno 8010 bound_to 7997
  140.6901  143.6506  150.8353 H   0  0  0  0  0  0  0  0  0  0  0  0  # atno 10167 bound_to 10162
  156.0021  130.4660  150.4232 H   0  0  0  0  0  0  0  0  0  0  0  0  # atno 10718 bound_to 10713
  153.6879  135.6963  153.5098 H   0  0  0  0  0  0  0  0  0  0  0  0  # atno 10763 bound_to 10752
  153.2435  135.4298  155.0722 H   0  0  0  0  0  0  0  0  0  0  0  0  # atno 10764 bound_to 10752
  154.8381  135.3514  154.6421 H   0  0  0  0  0  0  0  0  0  0  0  0  # atno 10765 bound_to 10752
  140.0636  134.9191  157.1226 H   0  0  0  0  0  0  0  0  0  0  0  0  # atno 11005 bound_to 11000
  145.4349  141.0418  143.2890 LP  0  0  0  0  0  0  0  0  0  0  0  0  # atno 17320 bound_to 7965
  144.8158  139.5879  143.7009 LP  0  0  0  0  0  0  0  0  0  0  0  0  # atno 17321 bound_to 7965
  140.0218  143.5535  152.2797 LP  0  0  0  0  0  0  0  0  0  0  0  0  # atno 17342 bound_to 10162
  139.6296  144.7642  151.2565 LP  0  0  0  0  0  0  0  0  0  0  0  0  # atno 17343 bound_to 10162
  157.2286  131.0499  151.2505 LP  0  0  0  0  0  0  0  0  0  0  0  0  # atno 17370 bound_to 10713
  157.3732  130.7192  149.6579 LP  0  0  0  0  0  0  0  0  0  0  0  0  # atno 17371 bound_to 10713
  140.3732  134.2367  155.7176 LP  0  0  0  0  0  0  0  0  0  0  0  0  # atno 17394 bound_to 11000
  141.1983  133.8037  157.0586 LP  0  0  0  0  0  0  0  0  0  0  0  0  # atno 17395 bound_to 11000

$$$$
