AV-unprocessed.smi:92|AV-procd|sdf|841|dock1
  -GOLD-   2262017273D 1   1.00000     0.00000
 Structure written by MMmdl.
 61 64  0  0  0  0  0  0  0  0  2 V2000
  156.2539  133.1132  166.2447 C   0  0  0  0  0  0  0  0  0  0  0  0
  155.2421  134.2391  165.9876 C   0  0  0  0  0  0  0  0  0  0  0  0
  155.4406  134.8944  164.6702 N   0  3  2  0  0  0  0  0  0  0  0  0
  154.6139  136.1153  164.4913 C   0  0  0  0  0  0  0  0  0  0  0  0
  154.9396  136.8242  163.1672 C   0  0  0  0  0  0  0  0  0  0  0  0
  154.7703  135.8731  161.9547 C   0  0  1  0  0  0  0  0  0  0  0  0
  155.0511  136.5047  160.6545 N   0  0  0  0  0  0  0  0  0  0  0  0
  155.3421  135.6177  159.5307 C   0  0  0  0  0  0  0  0  0  0  0  0
  154.1827  137.4783  160.2987 C   0  0  0  0  0  0  0  0  0  0  0  0
  152.9837  137.1489  159.7506 N   0  0  0  0  0  0  0  0  0  0  0  0
  152.1131  138.1113  159.4307 C   0  0  0  0  0  0  0  0  0  0  0  0
  152.2367  139.4325  159.5798 N   0  0  0  0  0  0  0  0  0  0  0  0
  153.4405  139.7619  160.1322 C   0  0  0  0  0  0  0  0  0  0  0  0
  154.4635  138.8519  160.5161 C   0  0  0  0  0  0  0  0  0  0  0  0
  155.5419  139.5402  161.0549 N   0  0  0  0  0  0  0  0  0  0  0  0
  155.1746  140.7915  160.9982 C   0  0  0  0  0  0  0  0  0  0  0  0
  153.9292  141.0173  160.4526 N   0  0  0  0  0  0  0  0  0  0  0  0
  153.2706  142.2835  160.3018 C   0  0  0  0  0  0  0  0  0  0  0  0
  151.8673  142.3968  159.7005 C   0  0  0  0  0  0  0  0  0  0  0  0
  152.2525  143.7639  159.0884 C   0  0  0  0  0  0  0  0  0  0  0  0
  151.7298  143.9908  157.6589 C   0  0  0  0  0  0  0  0  0  0  0  0
  150.3917  143.5623  157.5115 O   0  0  0  0  0  0  0  0  0  0  0  0
  151.8690  144.9720  159.9691 C   0  0  0  0  0  0  0  0  0  0  0  0
  150.4972  145.2945  159.8688 O   0  0  0  0  0  0  0  0  0  0  0  0
  153.7092  143.2598  159.2114 C   0  0  0  0  0  0  0  0  0  0  0  0
  155.6235  134.5970  162.1887 C   0  0  1  0  0  0  0  0  0  0  0  0
  157.1455  134.8276  162.0737 C   0  0  0  0  0  0  0  0  0  0  0  0
  155.2592  133.9484  163.5394 C   0  0  0  0  0  0  0  0  0  0  0  0
  156.0192  132.5941  167.1742 H   0  0  0  0  0  0  0  0  0  0  0  0
  157.2730  133.4882  166.3353 H   0  0  0  0  0  0  0  0  0  0  0  0
  156.2355  132.3757  165.4418 H   0  0  0  0  0  0  0  0  0  0  0  0
  154.2444  133.7994  166.0222 H   0  0  0  0  0  0  0  0  0  0  0  0
  155.2791  134.9818  166.7860 H   0  0  0  0  0  0  0  0  0  0  0  0
  153.5566  135.8470  164.5199 H   0  0  0  0  0  0  0  0  0  0  0  0
  154.7834  136.8123  165.3111 H   0  0  0  0  0  0  0  0  0  0  0  0
  154.2779  137.6867  163.0825 H   0  0  0  0  0  0  0  0  0  0  0  0
  155.9540  137.2230  163.1996 H   0  0  0  0  0  0  0  0  0  0  0  0
  153.7232  135.5660  161.9281 H   0  0  0  0  0  0  0  0  0  0  0  0
  155.3297  136.1546  158.5806 H   0  0  0  0  0  0  0  0  0  0  0  0
  154.6123  134.8090  159.4750 H   0  0  0  0  0  0  0  0  0  0  0  0
  156.3330  135.1769  159.6374 H   0  0  0  0  0  0  0  0  0  0  0  0
  151.1831  137.7747  158.9967 H   0  0  0  0  0  0  0  0  0  0  0  0
  155.8057  141.5878  161.3653 H   0  0  0  0  0  0  0  0  0  0  0  0
  153.2963  142.7712  161.2776 H   0  0  0  0  0  0  0  0  0  0  0  0
  151.6627  141.6334  158.9483 H   0  0  0  0  0  0  0  0  0  0  0  0
  151.0651  142.4347  160.4381 H   0  0  0  0  0  0  0  0  0  0  0  0
  151.7605  145.0494  157.3987 H   0  0  0  0  0  0  0  0  0  0  0  0
  152.3492  143.4772  156.9230 H   0  0  0  0  0  0  0  0  0  0  0  0
  149.9687  144.1112  156.8690 H   0  0  0  0  0  0  0  0  0  0  0  0
  152.1085  144.7862  161.0166 H   0  0  0  0  0  0  0  0  0  0  0  0
  152.4336  145.8604  159.6849 H   0  0  0  0  0  0  0  0  0  0  0  0
  150.3598  145.7840  159.0722 H   0  0  0  0  0  0  0  0  0  0  0  0
  154.4321  144.0064  159.5416 H   0  0  0  0  0  0  0  0  0  0  0  0
  154.0590  142.7527  158.3102 H   0  0  0  0  0  0  0  0  0  0  0  0
  155.3592  133.8683  161.4219 H   0  0  0  0  0  0  0  0  0  0  0  0
  157.5152  135.5166  162.8326 H   0  0  0  0  0  0  0  0  0  0  0  0
  157.4195  135.2338  161.1000 H   0  0  0  0  0  0  0  0  0  0  0  0
  157.6896  133.8904  162.1930 H   0  0  0  0  0  0  0  0  0  0  0  0
  155.8760  133.0617  163.6928 H   0  0  0  0  0  0  0  0  0  0  0  0
  154.2230  133.6063  163.5214 H   0  0  0  0  0  0  0  0  0  0  0  0
  156.4075  135.1851  164.6390 H   0  0  0  0  0  0  0  0  0  0  0  0
  1  2  1  0  0  0  0
  1 29  1  0  0  0  0
  1 30  1  0  0  0  0
  1 31  1  0  0  0  0
  2  3  1  0  0  0  0
  2 32  1  0  0  0  0
  2 33  1  0  0  0  0
  3 28  1  0  0  0  0
  3  4  1  0  0  0  0
  3 61  1  0  0  0  0
  4  5  1  0  0  0  0
  4 34  1  0  0  0  0
  4 35  1  0  0  0  0
  5  6  1  0  0  0  0
  5 36  1  0  0  0  0
  5 37  1  0  0  0  0
  6  7  1  0  0  0  0
  6 26  1  0  0  0  0
  6 38  1  0  0  0  0
  7  8  1  0  0  0  0
  7  9  1  0  0  0  0
  8 39  1  0  0  0  0
  8 40  1  0  0  0  0
  8 41  1  0  0  0  0
  9 14  1  0  0  0  0
  9 10  2  0  0  0  0
 10 11  1  0  0  0  0
 11 12  2  0  0  0  0
 11 42  1  0  0  0  0
 12 13  1  0  0  0  0
 13 17  1  0  0  0  0
 13 14  2  0  0  0  0
 14 15  1  0  0  0  0
 15 16  2  0  0  0  0
 16 17  1  0  0  0  0
 16 43  1  0  0  0  0
 17 18  1  0  0  0  0
 18 25  1  0  0  0  0
 18 19  1  0  0  0  0
 18 44  1  0  0  0  0
 19 20  1  0  0  0  0
 19 45  1  0  0  0  0
 19 46  1  0  0  0  0
 20 21  1  0  0  0  0
 20 23  1  0  0  0  0
 20 25  1  0  0  0  0
 21 22  1  0  0  0  0
 21 47  1  0  0  0  0
 21 48  1  0  0  0  0
 22 49  1  0  0  0  0
 23 24  1  0  0  0  0
 23 50  1  0  0  0  0
 23 51  1  0  0  0  0
 24 52  1  0  0  0  0
 25 53  1  0  0  0  0
 25 54  1  0  0  0  0
 26 27  1  0  0  0  0
 26 28  1  0  0  0  0
 26 55  1  0  0  0  0
 27 56  1  0  0  0  0
 27 57  1  0  0  0  0
 27 58  1  0  0  0  0
 28 59  1  0  0  0  0
 28 60  1  0  0  0  0
M  CHG  1   3   1
M  END
> <s_m_source_file>
AV-unprocessed.smi

> <i_m_source_file_index>
92

> <i_lp_mmshare_version>
43012

> <i_f3d_flags>
0

> <s_epik_input>
W0NIM11bQ0gyXU4xW0NIMl1bQ0gyXVtDQEhdKFtDQEBIXShbQ0gzXSlbQ0gyXTEpTihbQ0gzXSljKG5bY0hdbjIpYyhjMjMpbltjSF1uM1tDSF0oW0NIMl00KVtDSDJdQzQoW0NIMl1bT0hdKVtDSDJdW09IXQ==

> <s_epik_cmdline>
J2VwaWtfcHl0aG9uJywgJy1waCcsICc3LjAnLCAnLXRuJywgJzgnLCAnLW1hJywgJzIwMCcsICctbWV0YWxfYmluZGluZycsICctaW1hZScsICc8aW5maWxlLm1hZT4nLCAnLW9tYWUnLCAnPG91dGZpbGUubWFlPic=

> <r_lp_tautomer_probability>
1

> <r_epik_Ionization_Penalty>
0.00235514

> <r_epik_Ionization_Penalty_Charging>
0.00137877

> <r_epik_Ionization_Penalty_Neutral>
0.000976366

> <r_epik_State_Penalty>
-0

> <r_epik_Charging_Adjusted_Penalty>
0.00137877

> <i_epik_Tot_Q>
1

> <i_epik_Tot_abs_Q>
1

> <r_epik_Metal_State_Penalty>
-0

> <b_epik_Metal_Only>
0

> <s_lp_Force_Field>
OPLS_2005

> <r_lp_Energy>
54.7459

> <b_lp_Chiralities_Consistent>
1

> <s_lp_Variant>
AV-unprocessed.smi:92-1

> <Gold.Version>
5.8.1

> <Gold.Id.Protein>
6NUR|6NUR_protein|mol2

> <Gold.PLP.Fitness>
53.4207

> <Gold.PLP.PLP>
-50.3362

> <Gold.PLP.part.hbond>
-1.9379

> <Gold.PLP.part.metal>
0.0000

> <Gold.PLP.part.buried>
-4.0584

> <Gold.PLP.part.nonpolar>
-44.8814

> <Gold.PLP.part.repulsive>
0.0016

> <Gold.PLP.ligand.clash>
0.0000

> <Gold.PLP.ligand.torsion>
1.4000

> <Gold.PLP.Chemscore.Hbond>
1.5363

> <Gold.PLP.Chemscore.CHOScore>
0.0000

> <Gold.PLP.Chemscore.Metal>
0.0000

> <Gold.Chemscore.Hbonds>
donor molecule, donor type, donor heavy atom, donor atom, acceptor molecule, acceptor atom, score
      L1  H    22    49       P1  8028  1.00
      P1  H  6896  6907       L1    10  0.23

> <Gold.PLP.Chemscore.Internal.Correction>
1.2758

> <Gold.Rescore>
     Score         DG    S(hbond)    S(metal)    S(lipo)     H(rot)  DE(clash)    DE(int)     intcor
     14.53     -17.22       1.76        0.00     126.98       3.51       0.05       2.64       ----

> <Gold.Chemscore.Fitness>
14.5283

> <Gold.Chemscore.DG>
-17.2224

> <Gold.Chemscore.ZeroCoef>
-5.4800

> <Gold.Chemscore.Hbond>
1.7616

> <Gold.Chemscore.Metal>
0.0000

> <Gold.Chemscore.Lipo>
126.9769

> <Gold.Chemscore.Internal_Hbond>
0.0000

> <Gold.Chemscore.DEClash>
0.0515

> <Gold.Chemscore.DEInternal>
2.6425

> <Gold.Chemscore.Rot>
3.5147

> <Gold.Chemscore.Internal.Correction>
   9.000000E+99

> <Gold.Chemscore.Hbonds>
donor molecule, donor type, donor heavy atom, donor atom, acceptor molecule, acceptor atom, score
      L1  H    22    49       P1  8028  0.94
      P1  H  6896  6907       L1    10  0.16

> <Gold.Chemscore.Hbond.Weighted>
-5.8838

> <Gold.Chemscore.Metal.Weighted>
-0.0000

> <Gold.Chemscore.Lipo.Weighted>
-14.8563

> <Gold.Chemscore.Internal_Hbond.Weighted>
0.0000

> <Gold.Chemscore.DEClash.Weighted>
0.0515

> <Gold.Chemscore.DEInternal.Weighted>
2.6425

> <Gold.Chemscore.Rot.Weighted>
8.9977

> <Gold.Chemscore.Internal.Correction.Weighted>
   9.000000E+99

> <Gold.Protein.RotatedTorsions>
[ 6907 6896 6895 6894 ] final   14.42 input  -60.11 | X-H torsion
[ 7974 7965 7964 7962 ] final  -25.82 input  175.53 | X-H torsion
[ 8008 7997 7996 7995 ] final    8.82 input   59.86 | X-H torsion
[ 10167 10162 10161 10158 ] final  -41.29 input  -65.29 | X-H torsion
[ 10718 10713 10712 10709 ] final -108.44 input   66.30 | X-H torsion
[ 10763 10752 10751 10750 ] final -163.92 input  -60.55 | X-H torsion
[ 11005 11000 10999 10996 ] final  166.40 input  -57.11 | X-H torsion

> <Gold.Protein.ActiveResidues>
 VAL166  LYS551  ARG553  GLY616  TRP617  ASP618  TYR619  PRO620  LYS621  CYS622 
 ASP623  PHE694  ASN695  SER759  ASP760  ASP761  ALA762  ILE779  LEU786  VAL792 
 PHE793  MET794  SER795  GLU796  ALA797  LYS798  CYS799  TRP800  GLU811  SER814 

> <Gold.Protein.RotatedAtoms>
  151.8020  135.0706  160.0401 H   0  0  0  0  0  0  0  0  0  0  0  0  # atno 6907 bound_to 6896
  152.3082  133.5721  159.5672 H   0  0  0  0  0  0  0  0  0  0  0  0  # atno 6908 bound_to 6896
  150.7307  134.0107  159.3711 H   0  0  0  0  0  0  0  0  0  0  0  0  # atno 6909 bound_to 6896
  146.1466  140.4938  142.8629 H   0  0  0  0  0  0  0  0  0  0  0  0  # atno 7974 bound_to 7965
  154.7719  140.2803  155.6131 H   0  0  0  0  0  0  0  0  0  0  0  0  # atno 8008 bound_to 7997
  156.2935  140.2640  156.2451 H   0  0  0  0  0  0  0  0  0  0  0  0  # atno 8009 bound_to 7997
  154.9889  140.0374  157.2300 H   0  0  0  0  0  0  0  0  0  0  0  0  # atno 8010 bound_to 7997
  140.7007  143.3103  151.3045 H   0  0  0  0  0  0  0  0  0  0  0  0  # atno 10167 bound_to 10162
  156.0486  130.5713  150.7962 H   0  0  0  0  0  0  0  0  0  0  0  0  # atno 10718 bound_to 10713
  154.7077  135.3000  154.9245 H   0  0  0  0  0  0  0  0  0  0  0  0  # atno 10763 bound_to 10752
  154.0156  135.6689  153.4772 H   0  0  0  0  0  0  0  0  0  0  0  0  # atno 10764 bound_to 10752
  153.0730  135.5050  154.8258 H   0  0  0  0  0  0  0  0  0  0  0  0  # atno 10765 bound_to 10752
  140.2660  134.7864  157.3633 H   0  0  0  0  0  0  0  0  0  0  0  0  # atno 11005 bound_to 11000
  144.7853  140.5924  143.6578 LP  0  0  0  0  0  0  0  0  0  0  0  0  # atno 17320 bound_to 7965
  145.4923  139.1488  143.3703 LP  0  0  0  0  0  0  0  0  0  0  0  0  # atno 17321 bound_to 7965
  139.6524  144.0339  152.2635 LP  0  0  0  0  0  0  0  0  0  0  0  0  # atno 17342 bound_to 10162
  139.9879  144.6382  150.7841 LP  0  0  0  0  0  0  0  0  0  0  0  0  # atno 17343 bound_to 10162
  157.5388  131.0940  150.9855 LP  0  0  0  0  0  0  0  0  0  0  0  0  # atno 17370 bound_to 10713
  157.0143  130.5649  149.5324 LP  0  0  0  0  0  0  0  0  0  0  0  0  # atno 17371 bound_to 10713
  140.1418  134.4962  155.8025 LP  0  0  0  0  0  0  0  0  0  0  0  0  # atno 17394 bound_to 11000
  141.2184  133.6828  156.7224 LP  0  0  0  0  0  0  0  0  0  0  0  0  # atno 17395 bound_to 11000

$$$$
