AV-unprocessed.smi:350|AV-procd|sdf|2399|dock10
  -GOLD-   2262022333D 1   1.00000     0.00000
 Structure written by MMmdl.
 35 36  0  0  0  0  0  0  0  0  1 V2000
  154.6948  137.5719  164.8699 C   0  0  0  0  0  0  0  0  0  0  0  0
  154.6219  136.9126  163.5192 C   0  0  0  0  0  0  0  0  0  0  0  0
  154.0346  137.5776  162.5793 N   0  0  0  0  0  0  0  0  0  0  0  0
  153.9081  137.0629  161.3045 N   0  0  0  0  0  0  0  0  0  0  0  0
  153.2081  137.9535  160.3702 C   0  0  0  0  0  0  0  0  0  0  0  0
  154.1258  139.0685  159.8221 C   0  0  1  0  0  0  0  0  0  0  0  0
  154.4487  138.7712  158.4777 O   0  0  0  0  0  0  0  0  0  0  0  0
  153.4601  140.4312  159.9412 C   0  0  0  0  0  0  0  0  0  0  0  0
  152.2741  140.7174  159.2292 C   0  0  0  0  0  0  0  0  0  0  0  0
  151.6592  141.9787  159.3506 C   0  0  0  0  0  0  0  0  0  0  0  0
  152.2254  142.9613  160.1857 C   0  0  0  0  0  0  0  0  0  0  0  0
  151.4726  144.5065  160.3351 Cl  0  0  0  0  0  0  0  0  0  0  0  0
  153.4059  142.6803  160.9005 C   0  0  0  0  0  0  0  0  0  0  0  0
  154.0204  141.4187  160.7799 C   0  0  0  0  0  0  0  0  0  0  0  0
  154.3726  135.8429  160.9098 C   0  0  0  0  0  0  0  0  0  0  0  0
  154.2330  135.4208  159.7608 O   0  0  0  0  0  0  0  0  0  0  0  0
  155.0406  135.0958  161.9781 C   0  0  0  0  0  0  0  0  0  0  0  0
  155.5433  133.8122  161.6071 C   0  0  0  0  0  0  0  0  0  0  0  0
  155.9320  132.7657  161.3011 N   0  0  0  0  0  0  0  0  0  0  0  0
  155.1705  135.5905  163.2347 C   0  0  0  0  0  0  0  0  0  0  0  0
  155.8547  134.8556  164.3793 C   0  0  0  0  0  0  0  0  0  0  0  0
  154.1833  136.9705  165.6215 H   0  0  0  0  0  0  0  0  0  0  0  0
  154.2288  138.5584  164.8667 H   0  0  0  0  0  0  0  0  0  0  0  0
  155.7309  137.6987  165.1839 H   0  0  0  0  0  0  0  0  0  0  0  0
  152.7596  137.3898  159.5495 H   0  0  0  0  0  0  0  0  0  0  0  0
  152.3635  138.4036  160.8958 H   0  0  0  0  0  0  0  0  0  0  0  0
  155.0601  139.0958  160.3841 H   0  0  0  0  0  0  0  0  0  0  0  0
  153.6534  138.5376  158.0240 H   0  0  0  0  0  0  0  0  0  0  0  0
  151.8305  139.9690  158.5887 H   0  0  0  0  0  0  0  0  0  0  0  0
  150.7526  142.1902  158.8028 H   0  0  0  0  0  0  0  0  0  0  0  0
  153.8411  143.4316  161.5430 H   0  0  0  0  0  0  0  0  0  0  0  0
  154.9235  141.2127  161.3356 H   0  0  0  0  0  0  0  0  0  0  0  0
  156.2092  133.8688  164.0832 H   0  0  0  0  0  0  0  0  0  0  0  0
  155.1662  134.7182  165.2136 H   0  0  0  0  0  0  0  0  0  0  0  0
  156.7170  135.4210  164.7339 H   0  0  0  0  0  0  0  0  0  0  0  0
  1  2  1  0  0  0  0
  1 22  1  0  0  0  0
  1 23  1  0  0  0  0
  1 24  1  0  0  0  0
  2 20  1  0  0  0  0
  2  3  2  0  0  0  0
  3  4  1  0  0  0  0
  4  5  1  0  0  0  0
  4 15  1  0  0  0  0
  5  6  1  0  0  0  0
  5 25  1  0  0  0  0
  5 26  1  0  0  0  0
  6  7  1  0  0  0  0
  6  8  1  0  0  0  0
  6 27  1  0  0  0  0
  7 28  1  0  0  0  0
  8 14  1  0  0  0  0
  8  9  2  0  0  0  0
  9 10  1  0  0  0  0
  9 29  1  0  0  0  0
 10 11  2  0  0  0  0
 10 30  1  0  0  0  0
 11 12  1  0  0  0  0
 11 13  1  0  0  0  0
 13 14  2  0  0  0  0
 13 31  1  0  0  0  0
 14 32  1  0  0  0  0
 15 16  2  0  0  0  0
 15 17  1  0  0  0  0
 17 18  1  0  0  0  0
 17 20  2  0  0  0  0
 18 19  3  0  0  0  0
 20 21  1  0  0  0  0
 21 33  1  0  0  0  0
 21 34  1  0  0  0  0
 21 35  1  0  0  0  0
M  END
> <s_m_source_file>
AV-unprocessed.smi

> <i_m_source_file_index>
350

> <i_lp_mmshare_version>
43012

> <i_f3d_flags>
0

> <s_epik_input>
TiNDYyhjMVtDSDNdKWMoPU8pbihuYzFbQ0gzXSlbQ0gyXVtDQEhdKFtPSF0pYzJbY0hdW2NIXWMoQ2wpW2NIXVtjSF0y

> <s_epik_cmdline>
J2VwaWtfcHl0aG9uJywgJy1waCcsICc3LjAnLCAnLXRuJywgJzgnLCAnLW1hJywgJzIwMCcsICctbWV0YWxfYmluZGluZycsICctaW1hZScsICc8aW5maWxlLm1hZT4nLCAnLW9tYWUnLCAnPG91dGZpbGUubWFlPic=

> <r_lp_tautomer_probability>
1

> <r_epik_Ionization_Penalty>
1.17315e-07

> <r_epik_Ionization_Penalty_Charging>
1.40848e-10

> <r_epik_Ionization_Penalty_Neutral>
1.17174e-07

> <r_epik_State_Penalty>
-0

> <r_epik_Charging_Adjusted_Penalty>
1.40848e-10

> <i_epik_Tot_Q>
0

> <i_epik_Tot_abs_Q>
0

> <r_epik_Metal_State_Penalty>
-0

> <b_epik_Metal_Only>
0

> <s_lp_Force_Field>
OPLS_2005

> <r_lp_Energy>
28.138

> <b_lp_Chiralities_Consistent>
1

> <s_lp_Variant>
AV-unprocessed.smi:350-2

> <Gold.Version>
5.8.1

> <Gold.Id.Protein>
6NUR|6NUR_protein|mol2

> <Gold.PLP.Fitness>
43.9145

> <Gold.PLP.PLP>
-39.8562

> <Gold.PLP.part.hbond>
-2.0000

> <Gold.PLP.part.metal>
0.0000

> <Gold.PLP.part.buried>
-5.0263

> <Gold.PLP.part.nonpolar>
-32.8951

> <Gold.PLP.part.repulsive>
0.0000

> <Gold.PLP.ligand.clash>
0.0000

> <Gold.PLP.ligand.torsion>
0.9734

> <Gold.PLP.Chemscore.Hbond>
2.0000

> <Gold.PLP.Chemscore.CHOScore>
0.0000

> <Gold.PLP.Chemscore.Metal>
0.0000

> <Gold.Chemscore.Hbonds>
donor molecule, donor type, donor heavy atom, donor atom, acceptor molecule, acceptor atom, score
      P1  H  6896  6909       L1    16  1.00
      P1  H  7997  8008       L1     7  0.95

> <Gold.PLP.Chemscore.Internal.Correction>
0.0052

> <Gold.Rescore>
     Score         DG    S(hbond)    S(metal)    S(lipo)     H(rot)  DE(clash)    DE(int)     intcor
     17.64     -18.67       1.68        0.00     106.50       1.90       0.03       1.00       ----

> <Gold.Chemscore.Fitness>
17.6351

> <Gold.Chemscore.DG>
-18.6708

> <Gold.Chemscore.ZeroCoef>
-5.4800

> <Gold.Chemscore.Hbond>
1.6785

> <Gold.Chemscore.Metal>
0.0000

> <Gold.Chemscore.Lipo>
106.5009

> <Gold.Chemscore.Internal_Hbond>
0.0000

> <Gold.Chemscore.DEClash>
0.0313

> <Gold.Chemscore.DEInternal>
1.0044

> <Gold.Chemscore.Rot>
1.9047

> <Gold.Chemscore.Internal.Correction>
   9.000000E+99

> <Gold.Chemscore.Hbonds>
donor molecule, donor type, donor heavy atom, donor atom, acceptor molecule, acceptor atom, score
      P1  H  6896  6909       L1    16  0.38
      P1  H  7997  8008       L1     7  0.21

> <Gold.Chemscore.Hbond.Weighted>
-5.6062

> <Gold.Chemscore.Metal.Weighted>
-0.0000

> <Gold.Chemscore.Lipo.Weighted>
-12.4606

> <Gold.Chemscore.Internal_Hbond.Weighted>
0.0000

> <Gold.Chemscore.DEClash.Weighted>
0.0313

> <Gold.Chemscore.DEInternal.Weighted>
1.0044

> <Gold.Chemscore.Rot.Weighted>
4.8760

> <Gold.Chemscore.Internal.Correction.Weighted>
   9.000000E+99

> <Gold.Protein.RotatedTorsions>
[ 6907 6896 6895 6894 ] final -155.30 input  -60.11 | X-H torsion
[ 7974 7965 7964 7962 ] final  -35.77 input  175.53 | X-H torsion
[ 8008 7997 7996 7995 ] final -119.23 input   59.86 | X-H torsion
[ 10167 10162 10161 10158 ] final   70.66 input  -65.29 | X-H torsion
[ 10718 10713 10712 10709 ] final   -4.45 input   66.30 | X-H torsion
[ 10763 10752 10751 10750 ] final  131.80 input  -60.55 | X-H torsion
[ 11005 11000 10999 10996 ] final -117.54 input  -57.11 | X-H torsion

> <Gold.Protein.ActiveResidues>
 VAL166  LYS551  ARG553  GLY616  TRP617  ASP618  TYR619  PRO620  LYS621  CYS622 
 ASP623  PHE694  ASN695  SER759  ASP760  ASP761  ALA762  ILE779  LEU786  VAL792 
 PHE793  MET794  SER795  GLU796  ALA797  LYS798  CYS799  TRP800  GLU811  SER814 

> <Gold.Protein.RotatedAtoms>
  151.2704  133.4258  159.2620 H   0  0  0  0  0  0  0  0  0  0  0  0  # atno 6907 bound_to 6896
  151.0450  134.9634  159.8192 H   0  0  0  0  0  0  0  0  0  0  0  0  # atno 6908 bound_to 6896
  152.5372  134.2661  159.9006 H   0  0  0  0  0  0  0  0  0  0  0  0  # atno 6909 bound_to 6896
  146.0718  140.6199  142.8949 H   0  0  0  0  0  0  0  0  0  0  0  0  # atno 7974 bound_to 7965
  155.1123  140.0397  157.2727 H   0  0  0  0  0  0  0  0  0  0  0  0  # atno 8008 bound_to 7997
  154.6676  140.2605  155.7016 H   0  0  0  0  0  0  0  0  0  0  0  0  # atno 8009 bound_to 7997
  156.2645  140.2804  156.1172 H   0  0  0  0  0  0  0  0  0  0  0  0  # atno 8010 bound_to 7997
  140.0545  144.5284  150.7339 H   0  0  0  0  0  0  0  0  0  0  0  0  # atno 10167 bound_to 10162
  156.7611  130.5270  149.5785 H   0  0  0  0  0  0  0  0  0  0  0  0  # atno 10718 bound_to 10713
  153.7803  135.3169  155.3365 H   0  0  0  0  0  0  0  0  0  0  0  0  # atno 10763 bound_to 10752
  154.8164  135.4633  154.0658 H   0  0  0  0  0  0  0  0  0  0  0  0  # atno 10764 bound_to 10752
  153.1944  135.6913  153.8396 H   0  0  0  0  0  0  0  0  0  0  0  0  # atno 10765 bound_to 10752
  141.0348  133.9926  157.3088 H   0  0  0  0  0  0  0  0  0  0  0  0  # atno 11005 bound_to 11000
  144.7236  140.4454  143.6989 LP  0  0  0  0  0  0  0  0  0  0  0  0  # atno 17320 bound_to 7965
  145.6377  139.1545  143.2933 LP  0  0  0  0  0  0  0  0  0  0  0  0  # atno 17321 bound_to 7965
  140.7201  143.2581  151.4306 LP  0  0  0  0  0  0  0  0  0  0  0  0  # atno 17342 bound_to 10162
  139.5932  144.1453  152.2113 LP  0  0  0  0  0  0  0  0  0  0  0  0  # atno 17343 bound_to 10162
  156.1338  130.6197  151.0371 LP  0  0  0  0  0  0  0  0  0  0  0  0  # atno 17370 bound_to 10713
  157.6734  131.0856  150.7556 LP  0  0  0  0  0  0  0  0  0  0  0  0  # atno 17371 bound_to 10713
  139.9233  135.0201  156.8143 LP  0  0  0  0  0  0  0  0  0  0  0  0  # atno 17394 bound_to 11000
  140.6342  133.9877  155.7676 LP  0  0  0  0  0  0  0  0  0  0  0  0  # atno 17395 bound_to 11000

$$$$
