AV-unprocessed.smi:2990|AV-procd|sdf|11394|dock10
  -GOLD-   2272016313D 1   1.00000     0.00000
 Structure written by MMmdl.
 39 41  0  0  0  0  0  0  0  0  1 V2000
  152.7039  138.6299  159.7724 C   0  0  0  0  0  0  0  0  0  0  0  0
  152.3669  140.0742  159.5781 C   0  0  0  0  0  0  0  0  0  0  0  0
  152.7482  141.0146  160.4432 N   0  0  0  0  0  0  0  0  0  0  0  0
  152.2310  142.1675  159.8846 C   0  0  0  0  0  0  0  0  0  0  0  0
  152.2926  143.5093  160.3242 C   0  0  0  0  0  0  0  0  0  0  0  0
  151.6786  144.5347  159.5753 C   0  0  0  0  0  0  0  0  0  0  0  0
  150.9950  144.2342  158.3793 C   0  0  0  0  0  0  0  0  0  0  0  0
  150.9218  142.9038  157.9234 C   0  0  0  0  0  0  0  0  0  0  0  0
  151.5369  141.8843  158.6742 C   0  0  0  0  0  0  0  0  0  0  0  0
  151.6514  140.5078  158.5109 N   0  0  0  0  0  0  0  0  0  0  0  0
  151.1023  139.7246  157.4128 C   0  0  0  0  0  0  0  0  0  0  0  0
  151.8922  139.9136  156.1017 C   0  0  1  0  0  0  0  0  0  0  0  0
  153.1938  139.3692  156.1936 O   0  0  0  0  0  0  0  0  0  0  0  0
  151.1831  139.3342  154.8664 C   0  0  0  0  0  0  0  0  0  0  0  0
  150.4885  140.3662  154.1768 O   0  0  0  0  0  0  0  0  0  0  0  0
  149.1209  140.4484  154.3255 C   0  0  0  0  0  0  0  0  0  0  0  0
  148.5428  141.7304  154.2169 C   0  0  0  0  0  0  0  0  0  0  0  0
  147.1525  141.9084  154.3517 C   0  0  0  0  0  0  0  0  0  0  0  0
  146.3225  140.7997  154.5997 C   0  0  0  0  0  0  0  0  0  0  0  0
  146.8859  139.5149  154.7123 C   0  0  0  0  0  0  0  0  0  0  0  0
  148.2767  139.3368  154.5761 C   0  0  0  0  0  0  0  0  0  0  0  0
  153.3590  138.5023  160.6347 H   0  0  0  0  0  0  0  0  0  0  0  0
  153.2152  138.2360  158.8938 H   0  0  0  0  0  0  0  0  0  0  0  0
  151.7956  138.0517  159.9424 H   0  0  0  0  0  0  0  0  0  0  0  0
  152.8131  143.7498  161.2392 H   0  0  0  0  0  0  0  0  0  0  0  0
  151.7325  145.5569  159.9203 H   0  0  0  0  0  0  0  0  0  0  0  0
  150.5274  145.0256  157.8123 H   0  0  0  0  0  0  0  0  0  0  0  0
  150.3999  142.6694  157.0074 H   0  0  0  0  0  0  0  0  0  0  0  0
  151.0700  138.6732  157.6982 H   0  0  0  0  0  0  0  0  0  0  0  0
  150.0654  140.0296  157.2667 H   0  0  0  0  0  0  0  0  0  0  0  0
  152.0272  140.9821  155.9303 H   0  0  0  0  0  0  0  0  0  0  0  0
  153.2969  138.7202  155.5144 H   0  0  0  0  0  0  0  0  0  0  0  0
  151.9361  138.9066  154.2021 H   0  0  0  0  0  0  0  0  0  0  0  0
  150.5043  138.5309  155.1590 H   0  0  0  0  0  0  0  0  0  0  0  0
  149.1727  142.5873  154.0272 H   0  0  0  0  0  0  0  0  0  0  0  0
  146.7236  142.8960  154.2648 H   0  0  0  0  0  0  0  0  0  0  0  0
  145.2559  140.9346  154.7037 H   0  0  0  0  0  0  0  0  0  0  0  0
  146.2497  138.6633  154.9032 H   0  0  0  0  0  0  0  0  0  0  0  0
  148.6713  138.3364  154.6687 H   0  0  0  0  0  0  0  0  0  0  0  0
  1  2  1  0  0  0  0
  1 22  1  0  0  0  0
  1 23  1  0  0  0  0
  1 24  1  0  0  0  0
  2 10  1  0  0  0  0
  2  3  2  0  0  0  0
  3  4  1  0  0  0  0
  4  9  2  0  0  0  0
  4  5  1  0  0  0  0
  5  6  2  0  0  0  0
  5 25  1  0  0  0  0
  6  7  1  0  0  0  0
  6 26  1  0  0  0  0
  7  8  2  0  0  0  0
  7 27  1  0  0  0  0
  8  9  1  0  0  0  0
  8 28  1  0  0  0  0
  9 10  1  0  0  0  0
 10 11  1  0  0  0  0
 11 12  1  0  0  0  0
 11 29  1  0  0  0  0
 11 30  1  0  0  0  0
 12 13  1  0  0  0  0
 12 14  1  0  0  0  0
 12 31  1  0  0  0  0
 13 32  1  0  0  0  0
 14 15  1  0  0  0  0
 14 33  1  0  0  0  0
 14 34  1  0  0  0  0
 15 16  1  0  0  0  0
 16 21  1  0  0  0  0
 16 17  2  0  0  0  0
 17 18  1  0  0  0  0
 17 35  1  0  0  0  0
 18 19  2  0  0  0  0
 18 36  1  0  0  0  0
 19 20  1  0  0  0  0
 19 37  1  0  0  0  0
 20 21  2  0  0  0  0
 20 38  1  0  0  0  0
 21 39  1  0  0  0  0
M  END
> <s_m_source_file>
AV-unprocessed.smi

> <i_m_source_file_index>
2990

> <i_lp_mmshare_version>
43012

> <i_f3d_flags>
0

> <s_epik_input>
W2NIXTFbY0hdW2NIXVtjSF1jKGMxMiluKGMobjIpW0NIM10pW0NIMl1bQ0BIXShbT0hdKVtDSDJdT2MzW2NIXVtjSF1bY0hdW2NIXVtjSF0z

> <s_epik_cmdline>
J2VwaWtfcHl0aG9uJywgJy1waCcsICc3LjAnLCAnLXRuJywgJzgnLCAnLW1hJywgJzIwMCcsICctbWV0YWxfYmluZGluZycsICctaW1hZScsICc8aW5maWxlLm1hZT4nLCAnLW9tYWUnLCAnPG91dGZpbGUubWFlPic=

> <r_lp_tautomer_probability>
1

> <r_epik_Ionization_Penalty>
0.119634

> <r_epik_Ionization_Penalty_Charging>
0

> <r_epik_Ionization_Penalty_Neutral>
0.119634

> <r_epik_State_Penalty>
0.10919

> <r_epik_Charging_Adjusted_Penalty>
0.10919

> <i_epik_Tot_Q>
0

> <i_epik_Tot_abs_Q>
0

> <r_epik_Metal_State_Penalty>
0.000119887

> <b_epik_Metal_Only>
0

> <s_lp_Force_Field>
OPLS_2005

> <r_lp_Energy>
16.8637

> <b_lp_Chiralities_Consistent>
1

> <s_lp_Variant>
AV-unprocessed.smi:2990-2

> <Gold.Version>
5.8.1

> <Gold.Id.Protein>
6NUR|6NUR_protein|mol2

> <Gold.PLP.Fitness>
50.9302

> <Gold.PLP.PLP>
-47.7965

> <Gold.PLP.part.hbond>
-1.9052

> <Gold.PLP.part.metal>
0.0000

> <Gold.PLP.part.buried>
-5.8878

> <Gold.PLP.part.nonpolar>
-41.4784

> <Gold.PLP.part.repulsive>
0.2487

> <Gold.PLP.ligand.clash>
0.0000

> <Gold.PLP.ligand.torsion>
1.4631

> <Gold.PLP.Chemscore.Hbond>
2.0000

> <Gold.PLP.Chemscore.CHOScore>
0.0000

> <Gold.PLP.Chemscore.Metal>
0.0000

> <Gold.Chemscore.Hbonds>
donor molecule, donor type, donor heavy atom, donor atom, acceptor molecule, acceptor atom, score
      P1  H  7989  7998       L1    15  0.61
      P1  H  7997  8009       L1    13  0.60

> <Gold.PLP.Chemscore.Internal.Correction>
0.0600

> <Gold.Rescore>
     Score         DG    S(hbond)    S(metal)    S(lipo)     H(rot)  DE(clash)    DE(int)     intcor
     19.15     -20.88       1.80        0.00     124.86       2.04       0.03       1.69       ----

> <Gold.Chemscore.Fitness>
19.1528

> <Gold.Chemscore.DG>
-20.8807

> <Gold.Chemscore.ZeroCoef>
-5.4800

> <Gold.Chemscore.Hbond>
1.7976

> <Gold.Chemscore.Metal>
0.0000

> <Gold.Chemscore.Lipo>
124.8637

> <Gold.Chemscore.Internal_Hbond>
0.0000

> <Gold.Chemscore.DEClash>
0.0340

> <Gold.Chemscore.DEInternal>
1.6939

> <Gold.Chemscore.Rot>
2.0361

> <Gold.Chemscore.Internal.Correction>
   9.000000E+99

> <Gold.Chemscore.Hbonds>
donor molecule, donor type, donor heavy atom, donor atom, acceptor molecule, acceptor atom, score
      P1  H  7989  7998       L1    15  0.10
      P1  H  7997  8009       L1    13  0.47

> <Gold.Chemscore.Hbond.Weighted>
-6.0041

> <Gold.Chemscore.Metal.Weighted>
-0.0000

> <Gold.Chemscore.Lipo.Weighted>
-14.6091

> <Gold.Chemscore.Internal_Hbond.Weighted>
0.0000

> <Gold.Chemscore.DEClash.Weighted>
0.0340

> <Gold.Chemscore.DEInternal.Weighted>
1.6939

> <Gold.Chemscore.Rot.Weighted>
5.2124

> <Gold.Chemscore.Internal.Correction.Weighted>
   9.000000E+99

> <Gold.Protein.RotatedTorsions>
[ 6907 6896 6895 6894 ] final -121.24 input  -60.11 | X-H torsion
[ 7974 7965 7964 7962 ] final   -1.80 input  175.53 | X-H torsion
[ 8008 7997 7996 7995 ] final -164.22 input   59.86 | X-H torsion
[ 10167 10162 10161 10158 ] final    9.16 input  -65.29 | X-H torsion
[ 10718 10713 10712 10709 ] final -132.69 input   66.30 | X-H torsion
[ 10763 10752 10751 10750 ] final  -38.50 input  -60.55 | X-H torsion
[ 11005 11000 10999 10996 ] final   80.19 input  -57.11 | X-H torsion

> <Gold.Protein.ActiveResidues>
 VAL166  LYS551  ARG553  GLY616  TRP617  ASP618  TYR619  PRO620  LYS621  CYS622 
 ASP623  PHE694  ASN695  SER759  ASP760  ASP761  ALA762  ILE779  LEU786  VAL792 
 PHE793  MET794  SER795  GLU796  ALA797  LYS798  CYS799  TRP800  GLU811  SER814 

> <Gold.Protein.RotatedAtoms>
  150.8465  133.7853  159.3040 H   0  0  0  0  0  0  0  0  0  0  0  0  # atno 6907 bound_to 6896
  151.5539  135.1065  159.9966 H   0  0  0  0  0  0  0  0  0  0  0  0  # atno 6908 bound_to 6896
  152.4518  133.7600  159.6798 H   0  0  0  0  0  0  0  0  0  0  0  0  # atno 6909 bound_to 6896
  146.2413  140.1474  142.8334 H   0  0  0  0  0  0  0  0  0  0  0  0  # atno 7974 bound_to 7965
  155.8325  140.0936  157.1784 H   0  0  0  0  0  0  0  0  0  0  0  0  # atno 8008 bound_to 7997
  154.3980  140.1416  156.3692 H   0  0  0  0  0  0  0  0  0  0  0  0  # atno 8009 bound_to 7997
  155.8150  140.3448  155.5483 H   0  0  0  0  0  0  0  0  0  0  0  0  # atno 8010 bound_to 7997
  140.6271  143.8076  150.7248 H   0  0  0  0  0  0  0  0  0  0  0  0  # atno 10167 bound_to 10162
  156.2372  130.7074  151.0920 H   0  0  0  0  0  0  0  0  0  0  0  0  # atno 10718 bound_to 10713
  153.9138  135.6789  153.4750 H   0  0  0  0  0  0  0  0  0  0  0  0  # atno 10763 bound_to 10752
  153.1064  135.4803  154.8956 H   0  0  0  0  0  0  0  0  0  0  0  0  # atno 10764 bound_to 10752
  154.7513  135.3185  154.8507 H   0  0  0  0  0  0  0  0  0  0  0  0  # atno 10765 bound_to 10752
  139.9143  134.7901  156.1877 H   0  0  0  0  0  0  0  0  0  0  0  0  # atno 11005 bound_to 11000
  145.0196  140.8782  143.5175 LP  0  0  0  0  0  0  0  0  0  0  0  0  # atno 17320 bound_to 7965
  145.1520  139.2508  143.5436 LP  0  0  0  0  0  0  0  0  0  0  0  0  # atno 17321 bound_to 7965
  140.1679  143.4220  152.2022 LP  0  0  0  0  0  0  0  0  0  0  0  0  # atno 17342 bound_to 10162
  139.5490  144.7322  151.4493 LP  0  0  0  0  0  0  0  0  0  0  0  0  # atno 17343 bound_to 10162
  157.7159  131.0709  150.6326 LP  0  0  0  0  0  0  0  0  0  0  0  0  # atno 17370 bound_to 10713
  156.6397  130.4455  149.5757 LP  0  0  0  0  0  0  0  0  0  0  0  0  # atno 17371 bound_to 10713
  141.0603  133.6845  156.1939 LP  0  0  0  0  0  0  0  0  0  0  0  0  # atno 17394 bound_to 11000
  140.6672  134.4906  157.5586 LP  0  0  0  0  0  0  0  0  0  0  0  0  # atno 17395 bound_to 11000

$$$$
