AV-unprocessed.smi:527|AV-procd|sdf|2825|dock10
  -GOLD-   2262023313D 1   1.00000     0.00000
 Structure written by MMmdl.
 43 44  0  0  0  0  0  0  0  0  2 V2000
  146.8464  142.2261  154.1910 C   0  0  0  0  0  0  0  0  0  0  0  0
  147.6987  141.0567  154.7181 C   0  0  2  0  0  0  0  0  0  0  0  0
  149.1922  141.3674  154.4945 C   0  0  0  0  0  0  0  0  0  0  0  0
  150.0938  140.2518  155.0334 C   0  0  0  0  0  0  0  0  0  0  0  0
  149.7390  138.9115  154.3836 C   0  0  0  0  0  0  0  0  0  0  0  0
  148.2542  138.5586  154.5961 C   0  0  2  0  0  0  0  0  0  0  0  0
  147.9581  137.2995  153.9141 N   0  0  0  0  0  0  0  0  0  0  0  0
  147.0886  136.3694  154.3360 C   0  0  0  0  0  0  0  0  0  0  0  0
  146.4253  136.4790  155.3695 O   0  0  0  0  0  0  0  0  0  0  0  0
  147.0493  135.3266  153.4843 N   0  0  0  0  0  0  0  0  0  0  0  0
  146.2303  134.2564  153.5305 C   0  0  0  0  0  0  0  0  0  0  0  0
  145.3663  134.0638  154.3898 O   0  0  0  0  0  0  0  0  0  0  0  0
  146.4400  133.2395  152.4009 C   0  0  0  0  0  0  0  0  0  0  0  0
  145.2592  133.0779  151.5429 N   0  0  0  0  0  0  0  0  0  0  0  0
  145.1048  132.2037  150.4969 C   0  0  0  0  0  0  0  0  0  0  0  0
  143.8468  132.4144  149.9937 C   0  0  0  0  0  0  0  0  0  0  0  0
  143.2873  133.4080  150.7516 N   0  3  0  0  0  0  0  0  0  0  0  0
  144.1476  133.8109  151.6927 C   0  0  0  0  0  0  0  0  0  0  0  0
  147.3120  139.6861  154.0922 C   0  0  1  0  0  0  0  0  0  0  0  0
  145.8322  139.3282  154.3532 C   0  0  0  0  0  0  0  0  0  0  0  0
  146.8926  142.2924  153.1037 H   0  0  0  0  0  0  0  0  0  0  0  0
  147.1962  143.1769  154.5946 H   0  0  0  0  0  0  0  0  0  0  0  0
  145.8003  142.1313  154.4798 H   0  0  0  0  0  0  0  0  0  0  0  0
  147.5347  140.9938  155.7950 H   0  0  0  0  0  0  0  0  0  0  0  0
  149.3856  141.5082  153.4300 H   0  0  0  0  0  0  0  0  0  0  0  0
  149.4555  142.3072  154.9811 H   0  0  0  0  0  0  0  0  0  0  0  0
  151.1397  140.4926  154.8409 H   0  0  0  0  0  0  0  0  0  0  0  0
  149.9853  140.1784  156.1163 H   0  0  0  0  0  0  0  0  0  0  0  0
  149.9606  138.9577  153.3164 H   0  0  0  0  0  0  0  0  0  0  0  0
  150.3757  138.1285  154.7976 H   0  0  0  0  0  0  0  0  0  0  0  0
  148.0797  138.4337  155.6669 H   0  0  0  0  0  0  0  0  0  0  0  0
  148.4510  137.1314  153.0495 H   0  0  0  0  0  0  0  0  0  0  0  0
  147.7099  135.3506  152.7217 H   0  0  0  0  0  0  0  0  0  0  0  0
  147.2724  133.5570  151.7716 H   0  0  0  0  0  0  0  0  0  0  0  0
  146.6977  132.2654  152.8196 H   0  0  0  0  0  0  0  0  0  0  0  0
  145.8820  131.5168  150.1945 H   0  0  0  0  0  0  0  0  0  0  0  0
  143.3228  131.9454  149.1737 H   0  0  0  0  0  0  0  0  0  0  0  0
  143.9778  134.5787  152.4265 H   0  0  0  0  0  0  0  0  0  0  0  0
  147.4421  139.7688  153.0118 H   0  0  0  0  0  0  0  0  0  0  0  0
  145.6204  139.2819  155.4217 H   0  0  0  0  0  0  0  0  0  0  0  0
  145.5638  138.3636  153.9228 H   0  0  0  0  0  0  0  0  0  0  0  0
  145.1543  140.0557  153.9089 H   0  0  0  0  0  0  0  0  0  0  0  0
  142.3574  133.7862  150.6198 H   0  0  0  0  0  0  0  0  0  0  0  0
  1  2  1  0  0  0  0
  1 21  1  0  0  0  0
  1 22  1  0  0  0  0
  1 23  1  0  0  0  0
  2 19  1  0  0  0  0
  2  3  1  0  0  0  0
  2 24  1  0  0  0  0
  3  4  1  0  0  0  0
  3 25  1  0  0  0  0
  3 26  1  0  0  0  0
  4  5  1  0  0  0  0
  4 27  1  0  0  0  0
  4 28  1  0  0  0  0
  5  6  1  0  0  0  0
  5 29  1  0  0  0  0
  5 30  1  0  0  0  0
  6  7  1  0  0  0  0
  6 19  1  0  0  0  0
  6 31  1  0  0  0  0
  7  8  1  0  0  0  0
  7 32  1  0  0  0  0
  8  9  2  0  0  0  0
  8 10  1  0  0  0  0
 10 11  1  0  0  0  0
 10 33  1  0  0  0  0
 11 12  2  0  0  0  0
 11 13  1  0  0  0  0
 13 14  1  0  0  0  0
 13 34  1  0  0  0  0
 13 35  1  0  0  0  0
 14 18  1  0  0  0  0
 14 15  1  0  0  0  0
 15 16  2  0  0  0  0
 15 36  1  0  0  0  0
 16 17  1  0  0  0  0
 16 37  1  0  0  0  0
 17 18  2  0  0  0  0
 17 43  1  0  0  0  0
 18 38  1  0  0  0  0
 19 20  1  0  0  0  0
 19 39  1  0  0  0  0
 20 40  1  0  0  0  0
 20 41  1  0  0  0  0
 20 42  1  0  0  0  0
M  CHG  1  17   1
M  END
> <s_m_source_file>
AV-unprocessed.smi

> <i_m_source_file_index>
527

> <i_lp_mmshare_version>
43012

> <i_f3d_flags>
0

> <s_epik_input>
W0NIM11bQ0BASF0xW0NIMl1bQ0gyXVtDSDJdW0NASF0oW0NASF0xW0NIM10pW05IXUMoPU8pW05IXUMoPU8pW0NIMl1uMltjSF1bY0hdbltjSF0y

> <s_epik_cmdline>
J2VwaWtfcHl0aG9uJywgJy1waCcsICc3LjAnLCAnLXRuJywgJzgnLCAnLW1hJywgJzIwMCcsICctbWV0YWxfYmluZGluZycsICctaW1hZScsICc8aW5maWxlLm1hZT4nLCAnLW9tYWUnLCAnPG91dGZpbGUubWFlPic=

> <r_lp_tautomer_probability>
1

> <r_epik_Ionization_Penalty>
0.816441

> <r_epik_Ionization_Penalty_Charging>
0

> <r_epik_Ionization_Penalty_Neutral>
0.816441

> <r_epik_State_Penalty>
0.849034

> <r_epik_Charging_Adjusted_Penalty>
0.849034

> <i_epik_Tot_Q>
1

> <i_epik_Tot_abs_Q>
1

> <r_epik_Metal_State_Penalty>
0.984327

> <b_epik_Metal_Only>
0

> <s_lp_Force_Field>
OPLS_2005

> <r_lp_Energy>
16.8338

> <b_lp_Chiralities_Consistent>
1

> <s_lp_Variant>
AV-unprocessed.smi:527-11

> <Gold.Version>
5.8.1

> <Gold.Id.Protein>
6NUR|6NUR_protein|mol2

> <Gold.PLP.Fitness>
43.2063

> <Gold.PLP.PLP>
-31.9929

> <Gold.PLP.part.hbond>
-2.9338

> <Gold.PLP.part.metal>
0.0000

> <Gold.PLP.part.buried>
-2.1946

> <Gold.PLP.part.nonpolar>
-26.3210

> <Gold.PLP.part.repulsive>
0.1190

> <Gold.PLP.ligand.clash>
0.0000

> <Gold.PLP.ligand.torsion>
0.3898

> <Gold.PLP.Chemscore.Hbond>
3.9920

> <Gold.PLP.Chemscore.CHOScore>
0.0000

> <Gold.PLP.Chemscore.Metal>
0.0000

> <Gold.Chemscore.Hbonds>
donor molecule, donor type, donor heavy atom, donor atom, acceptor molecule, acceptor atom, score
      L1  H     7    32       P1  7948  1.00
      L1  H    10    33       P1  7948  0.99
      L1  H    17    43       P1 10186  2.00

> <Gold.PLP.Chemscore.Internal.Correction>
0.0171

> <Gold.Rescore>
     Score         DG    S(hbond)    S(metal)    S(lipo)     H(rot)  DE(clash)    DE(int)     intcor
     16.91     -18.86       2.90        0.00      68.98       1.71       0.08       1.88       ----

> <Gold.Chemscore.Fitness>
16.9059

> <Gold.Chemscore.DG>
-18.8576

> <Gold.Chemscore.ZeroCoef>
-5.4800

> <Gold.Chemscore.Hbond>
2.8960

> <Gold.Chemscore.Metal>
0.0000

> <Gold.Chemscore.Lipo>
68.9775

> <Gold.Chemscore.Internal_Hbond>
0.0000

> <Gold.Chemscore.DEClash>
0.0762

> <Gold.Chemscore.DEInternal>
1.8756

> <Gold.Chemscore.Rot>
1.7052

> <Gold.Chemscore.Internal.Correction>
   9.000000E+99

> <Gold.Chemscore.Hbonds>
donor molecule, donor type, donor heavy atom, donor atom, acceptor molecule, acceptor atom, score
      L1  H     7    32       P1  7948  0.95
      L1  H    10    33       P1  7948  0.94
      L1  H    17    43       P1 10186  0.85

> <Gold.Chemscore.Hbond.Weighted>
-9.6725

> <Gold.Chemscore.Metal.Weighted>
-0.0000

> <Gold.Chemscore.Lipo.Weighted>
-8.0704

> <Gold.Chemscore.Internal_Hbond.Weighted>
0.0000

> <Gold.Chemscore.DEClash.Weighted>
0.0762

> <Gold.Chemscore.DEInternal.Weighted>
1.8756

> <Gold.Chemscore.Rot.Weighted>
4.3653

> <Gold.Chemscore.Internal.Correction.Weighted>
   9.000000E+99

> <Gold.Protein.RotatedTorsions>
[ 6907 6896 6895 6894 ] final   87.27 input  -60.11 | X-H torsion
[ 7974 7965 7964 7962 ] final  -96.42 input  175.53 | X-H torsion
[ 8008 7997 7996 7995 ] final -154.09 input   59.86 | X-H torsion
[ 10167 10162 10161 10158 ] final   63.40 input  -65.29 | X-H torsion
[ 10718 10713 10712 10709 ] final  -12.68 input   66.30 | X-H torsion
[ 10763 10752 10751 10750 ] final   32.58 input  -60.55 | X-H torsion
[ 11005 11000 10999 10996 ] final   10.55 input  -57.11 | X-H torsion

> <Gold.Protein.ActiveResidues>
 VAL166  LYS551  ARG553  GLY616  TRP617  ASP618  TYR619  PRO620  LYS621  CYS622 
 ASP623  PHE694  ASN695  SER759  ASP760  ASP761  ALA762  ILE779  LEU786  VAL792 
 PHE793  MET794  SER795  GLU796  ALA797  LYS798  CYS799  TRP800  GLU811  SER814 

> <Gold.Protein.RotatedAtoms>
  152.5408  134.2302  159.8821 H   0  0  0  0  0  0  0  0  0  0  0  0  # atno 6907 bound_to 6896
  151.2274  133.4462  159.2610 H   0  0  0  0  0  0  0  0  0  0  0  0  # atno 6908 bound_to 6896
  151.0748  134.9834  159.8382 H   0  0  0  0  0  0  0  0  0  0  0  0  # atno 6909 bound_to 6896
  145.3471  140.9470  143.2575 H   0  0  0  0  0  0  0  0  0  0  0  0  # atno 7974 bound_to 7965
  155.6809  140.0744  157.2485 H   0  0  0  0  0  0  0  0  0  0  0  0  # atno 8008 bound_to 7997
  154.4106  140.1682  156.2033 H   0  0  0  0  0  0  0  0  0  0  0  0  # atno 8009 bound_to 7997
  155.9535  140.3375  155.6432 H   0  0  0  0  0  0  0  0  0  0  0  0  # atno 8010 bound_to 7997
  140.1335  144.4621  150.6851 H   0  0  0  0  0  0  0  0  0  0  0  0  # atno 10167 bound_to 10162
  156.6411  130.4928  149.6094 H   0  0  0  0  0  0  0  0  0  0  0  0  # atno 10718 bound_to 10713
  153.0255  135.6409  154.1377 H   0  0  0  0  0  0  0  0  0  0  0  0  # atno 10763 bound_to 10752
  154.1107  135.2853  155.3233 H   0  0  0  0  0  0  0  0  0  0  0  0  # atno 10764 bound_to 10752
  154.6334  135.5485  153.7769 H   0  0  0  0  0  0  0  0  0  0  0  0  # atno 10765 bound_to 10752
  140.5132  134.0631  155.7824 H   0  0  0  0  0  0  0  0  0  0  0  0  # atno 11005 bound_to 11000
  144.8745  139.4990  143.6752 LP  0  0  0  0  0  0  0  0  0  0  0  0  # atno 17320 bound_to 7965
  146.2983  139.7347  142.9110 LP  0  0  0  0  0  0  0  0  0  0  0  0  # atno 17321 bound_to 7965
  140.6803  143.2323  151.5401 LP  0  0  0  0  0  0  0  0  0  0  0  0  # atno 17342 bound_to 10162
  139.5508  144.2402  152.1526 LP  0  0  0  0  0  0  0  0  0  0  0  0  # atno 17343 bound_to 10162
  156.2158  130.6707  151.1317 LP  0  0  0  0  0  0  0  0  0  0  0  0  # atno 17370 bound_to 10713
  157.7170  131.0704  150.6286 LP  0  0  0  0  0  0  0  0  0  0  0  0  # atno 17371 bound_to 10713
  141.1374  133.9197  157.2403 LP  0  0  0  0  0  0  0  0  0  0  0  0  # atno 17394 bound_to 11000
  139.9647  135.0145  156.9355 LP  0  0  0  0  0  0  0  0  0  0  0  0  # atno 17395 bound_to 11000

$$$$
