AV-unprocessed.smi:312|AV-procd|sdf|2308|dock3
  -GOLD-   2262022203D 1   1.00000     0.00000
 Structure written by MMmdl.
 35 36  0  0  0  0  0  0  0  0  1 V2000
  147.5670  141.3766  156.5188 C   0  0  0  0  0  0  0  0  0  0  0  0
  149.0817  141.1421  156.5930 C   0  0  1  0  0  0  0  0  0  0  0  0
  149.7168  141.1231  155.1864 C   0  0  0  0  0  0  0  0  0  0  0  0
  150.8629  140.2365  155.0997 N   0  0  0  0  0  0  0  0  0  0  0  0
  151.0870  139.2454  154.1525 C   0  0  0  0  0  0  0  0  0  0  0  0
  152.3002  138.6735  154.4615 C   0  0  0  0  0  0  0  0  0  0  0  0
  152.8338  139.2880  155.5918 N   0  0  0  0  0  0  0  0  0  0  0  0
  151.9270  140.2016  155.9136 C   0  0  0  0  0  0  0  0  0  0  0  0
  149.6841  142.1863  157.4208 N   0  0  0  0  0  0  0  0  0  0  0  0
  150.5139  141.9844  158.4570 C   0  0  0  0  0  0  0  0  0  0  0  0
  150.8463  140.8653  158.8494 O   0  0  0  0  0  0  0  0  0  0  0  0
  151.0629  143.2440  159.1454 C   0  0  0  0  0  0  0  0  0  0  0  0
  151.7538  144.1933  158.1383 C   0  0  0  0  0  0  0  0  0  0  0  0
  153.2182  144.3233  158.5769 C   0  0  0  0  0  0  0  0  0  0  0  0
  153.4796  143.1202  159.4785 C   0  0  0  0  0  0  0  0  0  0  0  0
  152.1442  142.8992  160.1871 C   0  0  0  0  0  0  0  0  0  0  0  0
  147.0779  140.5978  155.9332 H   0  0  0  0  0  0  0  0  0  0  0  0
  147.3348  142.3361  156.0552 H   0  0  0  0  0  0  0  0  0  0  0  0
  147.1190  141.3695  157.5131 H   0  0  0  0  0  0  0  0  0  0  0  0
  149.2324  140.1657  157.0577 H   0  0  0  0  0  0  0  0  0  0  0  0
  148.9839  140.7936  154.4488 H   0  0  0  0  0  0  0  0  0  0  0  0
  150.0267  142.1266  154.8910 H   0  0  0  0  0  0  0  0  0  0  0  0
  150.3879  139.0401  153.3551 H   0  0  0  0  0  0  0  0  0  0  0  0
  152.8253  137.8731  153.9616 H   0  0  0  0  0  0  0  0  0  0  0  0
  152.0420  140.8654  156.7579 H   0  0  0  0  0  0  0  0  0  0  0  0
  149.4684  143.1410  157.1725 H   0  0  0  0  0  0  0  0  0  0  0  0
  150.2406  143.7625  159.6416 H   0  0  0  0  0  0  0  0  0  0  0  0
  151.7082  143.8075  157.1180 H   0  0  0  0  0  0  0  0  0  0  0  0
  151.2696  145.1704  158.1210 H   0  0  0  0  0  0  0  0  0  0  0  0
  153.9060  144.3678  157.7319 H   0  0  0  0  0  0  0  0  0  0  0  0
  153.3448  145.2410  159.1528 H   0  0  0  0  0  0  0  0  0  0  0  0
  153.7280  142.2483  158.8718 H   0  0  0  0  0  0  0  0  0  0  0  0
  154.3020  143.2879  160.1744 H   0  0  0  0  0  0  0  0  0  0  0  0
  152.0626  143.5819  161.0339 H   0  0  0  0  0  0  0  0  0  0  0  0
  152.0590  141.8868  160.5854 H   0  0  0  0  0  0  0  0  0  0  0  0
  1  2  1  0  0  0  0
  1 17  1  0  0  0  0
  1 18  1  0  0  0  0
  1 19  1  0  0  0  0
  2  3  1  0  0  0  0
  2  9  1  0  0  0  0
  2 20  1  0  0  0  0
  3  4  1  0  0  0  0
  3 21  1  0  0  0  0
  3 22  1  0  0  0  0
  4  8  1  0  0  0  0
  4  5  1  0  0  0  0
  5  6  2  0  0  0  0
  5 23  1  0  0  0  0
  6  7  1  0  0  0  0
  6 24  1  0  0  0  0
  7  8  2  0  0  0  0
  8 25  1  0  0  0  0
  9 10  1  0  0  0  0
  9 26  1  0  0  0  0
 10 11  2  0  0  0  0
 10 12  1  0  0  0  0
 12 16  1  0  0  0  0
 12 13  1  0  0  0  0
 12 27  1  0  0  0  0
 13 14  1  0  0  0  0
 13 28  1  0  0  0  0
 13 29  1  0  0  0  0
 14 15  1  0  0  0  0
 14 30  1  0  0  0  0
 14 31  1  0  0  0  0
 15 16  1  0  0  0  0
 15 32  1  0  0  0  0
 15 33  1  0  0  0  0
 16 34  1  0  0  0  0
 16 35  1  0  0  0  0
M  END
> <s_m_source_file>
AV-unprocessed.smi

> <i_m_source_file_index>
312

> <i_lp_mmshare_version>
43012

> <i_f3d_flags>
0

> <s_epik_input>
W2NIXTFuW2NIXVtjSF1uMVtDSDJdW0NAQEhdKFtDSDNdKVtOSF1DKD1PKVtDSF0yW0NIMl1bQ0gyXVtDSDJdW0NIMl0y

> <s_epik_cmdline>
J2VwaWtfcHl0aG9uJywgJy1waCcsICc3LjAnLCAnLXRuJywgJzgnLCAnLW1hJywgJzIwMCcsICctbWV0YWxfYmluZGluZycsICctaW1hZScsICc8aW5maWxlLm1hZT4nLCAnLW9tYWUnLCAnPG91dGZpbGUubWFlPic=

> <r_lp_tautomer_probability>
1

> <r_epik_Ionization_Penalty>
0.642614

> <r_epik_Ionization_Penalty_Charging>
0.642614

> <r_epik_Ionization_Penalty_Neutral>
3.44135e-08

> <r_epik_State_Penalty>
0.660429

> <r_epik_Charging_Adjusted_Penalty>
1.30304

> <i_epik_Tot_Q>
0

> <i_epik_Tot_abs_Q>
0

> <r_epik_Metal_State_Penalty>
0.31224

> <b_epik_Metal_Only>
0

> <s_lp_Force_Field>
OPLS_2005

> <r_lp_Energy>
21.6538

> <b_lp_Chiralities_Consistent>
1

> <s_lp_Variant>
AV-unprocessed.smi:312-4

> <Gold.Version>
5.8.1

> <Gold.Id.Protein>
6NUR|6NUR_protein|mol2

> <Gold.PLP.Fitness>
43.2384

> <Gold.PLP.PLP>
-36.9668

> <Gold.PLP.part.hbond>
-2.0124

> <Gold.PLP.part.metal>
0.0000

> <Gold.PLP.part.buried>
-2.2133

> <Gold.PLP.part.nonpolar>
-32.1337

> <Gold.PLP.part.repulsive>
0.0158

> <Gold.PLP.ligand.clash>
0.0000

> <Gold.PLP.ligand.torsion>
0.6490

> <Gold.PLP.Chemscore.Hbond>
2.0000

> <Gold.PLP.Chemscore.CHOScore>
0.5133

> <Gold.PLP.Chemscore.Metal>
0.0000

> <Gold.Chemscore.Hbonds>
donor molecule, donor type, donor heavy atom, donor atom, acceptor molecule, acceptor atom, score
      L1  H     9    26       P1  8028  0.44
      P1  H  7997  8010       L1     7  1.00
      L1  C     5    23       P1  7957  1.00

> <Gold.PLP.Chemscore.Internal.Correction>
0.0296

> <Gold.Rescore>
     Score         DG    S(hbond)    S(metal)    S(lipo)     H(rot)  DE(clash)    DE(int)     intcor
     17.52     -18.21       1.97        0.00      91.06       1.76       0.33       0.35       ----

> <Gold.Chemscore.Fitness>
17.5223

> <Gold.Chemscore.DG>
-18.2067

> <Gold.Chemscore.ZeroCoef>
-5.4800

> <Gold.Chemscore.Hbond>
1.9666

> <Gold.Chemscore.Metal>
0.0000

> <Gold.Chemscore.Lipo>
91.0639

> <Gold.Chemscore.Internal_Hbond>
0.0000

> <Gold.Chemscore.DEClash>
0.3334

> <Gold.Chemscore.DEInternal>
0.3510

> <Gold.Chemscore.Rot>
1.7563

> <Gold.Chemscore.Internal.Correction>
   9.000000E+99

> <Gold.Chemscore.Hbonds>
donor molecule, donor type, donor heavy atom, donor atom, acceptor molecule, acceptor atom, score
      L1  H     9    26       P1  8028  0.40
      P1  H  7997  8010       L1     7  0.26

> <Gold.Chemscore.Hbond.Weighted>
-6.5684

> <Gold.Chemscore.Metal.Weighted>
-0.0000

> <Gold.Chemscore.Lipo.Weighted>
-10.6545

> <Gold.Chemscore.Internal_Hbond.Weighted>
0.0000

> <Gold.Chemscore.DEClash.Weighted>
0.3334

> <Gold.Chemscore.DEInternal.Weighted>
0.3510

> <Gold.Chemscore.Rot.Weighted>
4.4962

> <Gold.Chemscore.Internal.Correction.Weighted>
   9.000000E+99

> <Gold.Protein.RotatedTorsions>
[ 6907 6896 6895 6894 ] final   -4.77 input  -60.11 | X-H torsion
[ 7974 7965 7964 7962 ] final   39.71 input  175.53 | X-H torsion
[ 8008 7997 7996 7995 ] final   89.97 input   59.86 | X-H torsion
[ 10167 10162 10161 10158 ] final   84.18 input  -65.29 | X-H torsion
[ 10718 10713 10712 10709 ] final   98.09 input   66.30 | X-H torsion
[ 10763 10752 10751 10750 ] final  -63.43 input  -60.55 | X-H torsion
[ 11005 11000 10999 10996 ] final   80.02 input  -57.11 | X-H torsion

> <Gold.Protein.ActiveResidues>
 VAL166  LYS551  ARG553  GLY616  TRP617  ASP618  TYR619  PRO620  LYS621  CYS622 
 ASP623  PHE694  ASN695  SER759  ASP760  ASP761  ALA762  ILE779  LEU786  VAL792 
 PHE793  MET794  SER795  GLU796  ALA797  LYS798  CYS799  TRP800  GLU811  SER814 

> <Gold.Protein.RotatedAtoms>
  151.4923  135.1058  159.9806 H   0  0  0  0  0  0  0  0  0  0  0  0  # atno 6907 bound_to 6896
  152.4736  133.8082  159.7000 H   0  0  0  0  0  0  0  0  0  0  0  0  # atno 6908 bound_to 6896
  150.8760  133.7376  159.2972 H   0  0  0  0  0  0  0  0  0  0  0  0  # atno 6909 bound_to 6896
  146.0963  139.5619  142.9443 H   0  0  0  0  0  0  0  0  0  0  0  0  # atno 7974 bound_to 7965
  156.0064  140.3354  155.6897 H   0  0  0  0  0  0  0  0  0  0  0  0  # atno 8008 bound_to 7997
  155.6219  140.0676  157.2693 H   0  0  0  0  0  0  0  0  0  0  0  0  # atno 8009 bound_to 7997
  154.4266  140.1775  156.1368 H   0  0  0  0  0  0  0  0  0  0  0  0  # atno 8010 bound_to 7997
  139.9107  144.6273  150.8540 H   0  0  0  0  0  0  0  0  0  0  0  0  # atno 10167 bound_to 10162
  157.6901  131.0629  150.4744 H   0  0  0  0  0  0  0  0  0  0  0  0  # atno 10718 bound_to 10713
  154.3149  135.6208  153.5482 H   0  0  0  0  0  0  0  0  0  0  0  0  # atno 10763 bound_to 10752
  152.9825  135.5710  154.5135 H   0  0  0  0  0  0  0  0  0  0  0  0  # atno 10764 bound_to 10752
  154.4792  135.2862  155.1560 H   0  0  0  0  0  0  0  0  0  0  0  0  # atno 10765 bound_to 10752
  139.9150  134.7888  156.1854 H   0  0  0  0  0  0  0  0  0  0  0  0  # atno 11005 bound_to 11000
  145.5942  141.0365  143.2053 LP  0  0  0  0  0  0  0  0  0  0  0  0  # atno 17320 bound_to 7965
  144.7398  139.7482  143.7315 LP  0  0  0  0  0  0  0  0  0  0  0  0  # atno 17321 bound_to 7965
  140.7686  143.3367  151.2293 LP  0  0  0  0  0  0  0  0  0  0  0  0  # atno 17342 bound_to 10162
  139.6945  143.9637  152.2875 LP  0  0  0  0  0  0  0  0  0  0  0  0  # atno 17343 bound_to 10162
  156.5079  130.4132  149.6317 LP  0  0  0  0  0  0  0  0  0  0  0  0  # atno 17370 bound_to 10713
  156.3267  130.7310  151.2232 LP  0  0  0  0  0  0  0  0  0  0  0  0  # atno 17371 bound_to 10713
  141.0616  133.6839  156.1964 LP  0  0  0  0  0  0  0  0  0  0  0  0  # atno 17394 bound_to 11000
  140.6651  134.4926  157.5585 LP  0  0  0  0  0  0  0  0  0  0  0  0  # atno 17395 bound_to 11000

$$$$
