AV-unprocessed.smi:897|AV-procd|sdf|4079|dock8
  -GOLD-   22720 1563D 1   1.00000     0.00000
 Structure written by MMmdl.
 35 37  0  0  0  0  0  0  0  0  1 V2000
  151.9712  144.2763  158.5541 C   0  0  0  0  0  0  0  0  0  0  0  0
  152.3334  142.8487  158.9056 C   0  0  0  0  0  0  0  0  0  0  0  0
  153.2758  142.5666  159.9119 C   0  0  0  0  0  0  0  0  0  0  0  0
  153.5772  141.2197  160.1978 C   0  0  0  0  0  0  0  0  0  0  0  0
  154.5987  140.9031  161.2795 C   0  0  0  0  0  0  0  0  0  0  0  0
  152.9151  140.2015  159.4630 C   0  0  0  0  0  0  0  0  0  0  0  0
  153.1951  138.7921  159.7324 C   0  0  0  0  0  0  0  0  0  0  0  0
  153.4164  137.6766  159.9460 N   0  0  0  0  0  0  0  0  0  0  0  0
  151.9766  140.5893  158.4668 C   0  0  0  0  0  0  0  0  0  0  0  0
  151.2969  139.6171  157.7091 N   0  0  0  0  0  0  0  0  0  0  0  0
  150.1816  139.9667  156.8356 C   0  0  2  0  0  0  0  0  0  0  0  0
  149.6472  138.7724  156.0343 C   0  0  0  0  0  0  0  0  0  0  0  0
  149.7706  139.2770  154.5915 C   0  0  1  0  0  0  0  0  0  0  0  0
  148.7801  140.4083  154.2833 C   0  0  0  0  0  0  0  0  0  0  0  0
  149.3958  141.5795  155.0485 C   0  0  0  0  0  0  0  0  0  0  0  0
  150.6141  140.9202  155.7088 C   0  0  2  0  0  0  0  0  0  0  0  0
  150.9809  140.0064  154.6873 O   0  0  0  0  0  0  0  0  0  0  0  0
  151.7015  141.8888  158.2010 N   0  0  0  0  0  0  0  0  0  0  0  0
  152.5931  144.9880  159.0979 H   0  0  0  0  0  0  0  0  0  0  0  0
  150.9282  144.4740  158.8034 H   0  0  0  0  0  0  0  0  0  0  0  0
  152.1095  144.4522  157.4869 H   0  0  0  0  0  0  0  0  0  0  0  0
  153.7582  143.3678  160.4526 H   0  0  0  0  0  0  0  0  0  0  0  0
  154.1388  140.3277  162.0832 H   0  0  0  0  0  0  0  0  0  0  0  0
  155.0130  141.8134  161.7134 H   0  0  0  0  0  0  0  0  0  0  0  0
  155.4257  140.3243  160.8676 H   0  0  0  0  0  0  0  0  0  0  0  0
  151.4461  138.6403  157.9182 H   0  0  0  0  0  0  0  0  0  0  0  0
  149.3952  140.4344  157.4299 H   0  0  0  0  0  0  0  0  0  0  0  0
  150.2652  137.8839  156.1743 H   0  0  0  0  0  0  0  0  0  0  0  0
  148.6215  138.5147  156.3000 H   0  0  0  0  0  0  0  0  0  0  0  0
  149.7830  138.4821  153.8455 H   0  0  0  0  0  0  0  0  0  0  0  0
  148.7531  140.6226  153.2144 H   0  0  0  0  0  0  0  0  0  0  0  0
  147.7674  140.1718  154.6116 H   0  0  0  0  0  0  0  0  0  0  0  0
  149.7082  142.3644  154.3588 H   0  0  0  0  0  0  0  0  0  0  0  0
  148.7123  142.0180  155.7765 H   0  0  0  0  0  0  0  0  0  0  0  0
  151.3947  141.6289  155.9881 H   0  0  0  0  0  0  0  0  0  0  0  0
  1  2  1  0  0  0  0
  1 19  1  0  0  0  0
  1 20  1  0  0  0  0
  1 21  1  0  0  0  0
  2 18  1  0  0  0  0
  2  3  2  0  0  0  0
  3  4  1  0  0  0  0
  3 22  1  0  0  0  0
  4  5  1  0  0  0  0
  4  6  2  0  0  0  0
  5 23  1  0  0  0  0
  5 24  1  0  0  0  0
  5 25  1  0  0  0  0
  6  7  1  0  0  0  0
  6  9  1  0  0  0  0
  7  8  3  0  0  0  0
  9 10  1  0  0  0  0
  9 18  2  0  0  0  0
 10 11  1  0  0  0  0
 10 26  1  0  0  0  0
 11 16  1  0  0  0  0
 11 12  1  0  0  0  0
 11 27  1  0  0  0  0
 12 13  1  0  0  0  0
 12 28  1  0  0  0  0
 12 29  1  0  0  0  0
 13 17  1  0  0  0  0
 13 14  1  0  0  0  0
 13 30  1  0  0  0  0
 14 15  1  0  0  0  0
 14 31  1  0  0  0  0
 14 32  1  0  0  0  0
 15 16  1  0  0  0  0
 15 33  1  0  0  0  0
 15 34  1  0  0  0  0
 16 17  1  0  0  0  0
 16 35  1  0  0  0  0
M  END
> <s_m_source_file>
AV-unprocessed.smi

> <i_m_source_file_index>
897

> <i_lp_mmshare_version>
43012

> <i_f3d_flags>
0

> <s_epik_input>
W0NIM11jMVtjSF1jKFtDSDNdKWMoQyNOKWMobjEpW05IXVtDQEhdKFtDSDJdW0NAQEhdMjMpW0NAQEhdKE8zKVtDSDJdW0NIMl0y

> <s_epik_cmdline>
J2VwaWtfcHl0aG9uJywgJy1waCcsICc3LjAnLCAnLXRuJywgJzgnLCAnLW1hJywgJzIwMCcsICctbWV0YWxfYmluZGluZycsICctaW1hZScsICc8aW5maWxlLm1hZT4nLCAnLW9tYWUnLCAnPG91dGZpbGUubWFlPic=

> <r_lp_tautomer_probability>
1

> <r_epik_Ionization_Penalty>
0.000502654

> <r_epik_Ionization_Penalty_Charging>
0

> <r_epik_Ionization_Penalty_Neutral>
0.000502654

> <r_epik_State_Penalty>
-0

> <r_epik_Charging_Adjusted_Penalty>
0

> <i_epik_Tot_Q>
0

> <i_epik_Tot_abs_Q>
0

> <r_epik_Metal_State_Penalty>
-0

> <b_epik_Metal_Only>
0

> <s_lp_Force_Field>
OPLS_2005

> <r_lp_Energy>
43.6406

> <b_lp_Chiralities_Consistent>
1

> <s_lp_Variant>
AV-unprocessed.smi:897-1

> <Gold.Version>
5.8.1

> <Gold.Id.Protein>
6NUR|6NUR_protein|mol2

> <Gold.PLP.Fitness>
40.5355

> <Gold.PLP.PLP>
-37.5817

> <Gold.PLP.part.hbond>
-1.0000

> <Gold.PLP.part.metal>
0.0000

> <Gold.PLP.part.buried>
-2.3750

> <Gold.PLP.part.nonpolar>
-33.9641

> <Gold.PLP.part.repulsive>
0.1467

> <Gold.PLP.ligand.clash>
0.0000

> <Gold.PLP.ligand.torsion>
0.0332

> <Gold.PLP.Chemscore.Hbond>
1.0000

> <Gold.PLP.Chemscore.CHOScore>
0.0000

> <Gold.PLP.Chemscore.Metal>
0.0000

> <Gold.Chemscore.Hbonds>
donor molecule, donor type, donor heavy atom, donor atom, acceptor molecule, acceptor atom, score
      P1  H  7989  7998       L1    17  1.00

> <Gold.PLP.Chemscore.Internal.Correction>
0.0202

> <Gold.Rescore>
     Score         DG    S(hbond)    S(metal)    S(lipo)     H(rot)  DE(clash)    DE(int)     intcor
     15.70     -17.17       0.92        0.00      95.37       1.00       0.32       1.14       ----

> <Gold.Chemscore.Fitness>
15.7007

> <Gold.Chemscore.DG>
-17.1665

> <Gold.Chemscore.ZeroCoef>
-5.4800

> <Gold.Chemscore.Hbond>
0.9245

> <Gold.Chemscore.Metal>
0.0000

> <Gold.Chemscore.Lipo>
95.3746

> <Gold.Chemscore.Internal_Hbond>
0.0000

> <Gold.Chemscore.DEClash>
0.3216

> <Gold.Chemscore.DEInternal>
1.1443

> <Gold.Chemscore.Rot>
1.0000

> <Gold.Chemscore.Internal.Correction>
   9.000000E+99

> <Gold.Chemscore.Hbonds>
donor molecule, donor type, donor heavy atom, donor atom, acceptor molecule, acceptor atom, score
      P1  H  7989  7998       L1    17  0.60

> <Gold.Chemscore.Hbond.Weighted>
-3.0877

> <Gold.Chemscore.Metal.Weighted>
-0.0000

> <Gold.Chemscore.Lipo.Weighted>
-11.1588

> <Gold.Chemscore.Internal_Hbond.Weighted>
0.0000

> <Gold.Chemscore.DEClash.Weighted>
0.3216

> <Gold.Chemscore.DEInternal.Weighted>
1.1443

> <Gold.Chemscore.Rot.Weighted>
2.5600

> <Gold.Chemscore.Internal.Correction.Weighted>
   9.000000E+99

> <Gold.Protein.RotatedTorsions>
[ 6907 6896 6895 6894 ] final   -2.20 input  -60.11 | X-H torsion
[ 7974 7965 7964 7962 ] final   -2.84 input  175.53 | X-H torsion
[ 8008 7997 7996 7995 ] final  155.88 input   59.86 | X-H torsion
[ 10167 10162 10161 10158 ] final  129.51 input  -65.29 | X-H torsion
[ 10718 10713 10712 10709 ] final -155.05 input   66.30 | X-H torsion
[ 10763 10752 10751 10750 ] final  175.38 input  -60.55 | X-H torsion
[ 11005 11000 10999 10996 ] final -132.30 input  -57.11 | X-H torsion

> <Gold.Protein.ActiveResidues>
 VAL166  LYS551  ARG553  GLY616  TRP617  ASP618  TYR619  PRO620  LYS621  CYS622 
 ASP623  PHE694  ASN695  SER759  ASP760  ASP761  ALA762  ILE779  LEU786  VAL792 
 PHE793  MET794  SER795  GLU796  ALA797  LYS798  CYS799  TRP800  GLU811  SER814 

> <Gold.Protein.RotatedAtoms>
  151.5337  135.1068  159.9908 H   0  0  0  0  0  0  0  0  0  0  0  0  # atno 6907 bound_to 6896
  152.4567  133.7733  159.6821 H   0  0  0  0  0  0  0  0  0  0  0  0  # atno 6908 bound_to 6896
  150.8513  133.7717  159.3049 H   0  0  0  0  0  0  0  0  0  0  0  0  # atno 6909 bound_to 6896
  146.2398  140.1632  142.8332 H   0  0  0  0  0  0  0  0  0  0  0  0  # atno 7974 bound_to 7965
  156.2454  140.1927  156.6869 H   0  0  0  0  0  0  0  0  0  0  0  0  # atno 8008 bound_to 7997
  154.6280  140.0599  156.9723 H   0  0  0  0  0  0  0  0  0  0  0  0  # atno 8009 bound_to 7997
  155.1756  140.3272  155.4387 H   0  0  0  0  0  0  0  0  0  0  0  0  # atno 8010 bound_to 7997
  139.5474  144.6785  151.4430 H   0  0  0  0  0  0  0  0  0  0  0  0  # atno 10167 bound_to 10162
  156.5075  130.8420  151.2634 H   0  0  0  0  0  0  0  0  0  0  0  0  # atno 10718 bound_to 10713
  154.4668  135.2769  155.1672 H   0  0  0  0  0  0  0  0  0  0  0  0  # atno 10763 bound_to 10752
  154.3437  135.6164  153.5612 H   0  0  0  0  0  0  0  0  0  0  0  0  # atno 10764 bound_to 10752
  152.9860  135.5794  154.5042 H   0  0  0  0  0  0  0  0  0  0  0  0  # atno 10765 bound_to 10752
  140.9182  134.1479  157.4335 H   0  0  0  0  0  0  0  0  0  0  0  0  # atno 11005 bound_to 11000
  145.0072  140.8683  143.5246 LP  0  0  0  0  0  0  0  0  0  0  0  0  # atno 17320 bound_to 7965
  145.1660  139.2431  143.5367 LP  0  0  0  0  0  0  0  0  0  0  0  0  # atno 17321 bound_to 7965
  140.6727  143.8259  150.7019 LP  0  0  0  0  0  0  0  0  0  0  0  0  # atno 17342 bound_to 10162
  140.1688  143.4212  152.2015 LP  0  0  0  0  0  0  0  0  0  0  0  0  # atno 17343 bound_to 10162
  157.7455  130.9961  150.2766 LP  0  0  0  0  0  0  0  0  0  0  0  0  # atno 17370 bound_to 10713
  156.3272  130.3795  149.7523 LP  0  0  0  0  0  0  0  0  0  0  0  0  # atno 17371 bound_to 10713
  139.8770  134.9961  156.5780 LP  0  0  0  0  0  0  0  0  0  0  0  0  # atno 17394 bound_to 11000
  140.8022  133.8496  155.8737 LP  0  0  0  0  0  0  0  0  0  0  0  0  # atno 17395 bound_to 11000

$$$$
