AV-unprocessed.smi:792|AV-procd|sdf|3751|dock2
  -GOLD-   22720 1183D 1   1.00000     0.00000
 Structure written by MMmdl.
 47 48  0  0  0  0  0  0  0  0  2 V2000
  144.3044  132.0335  149.8003 C   0  0  0  0  0  0  0  0  0  0  0  0
  144.8080  133.2201  150.5946 C   0  0  0  0  0  0  0  0  0  0  0  0
  146.0748  133.2294  151.2174 C   0  0  0  0  0  0  0  0  0  0  0  0
  146.4776  134.3706  151.9420 C   0  0  0  0  0  0  0  0  0  0  0  0
  145.6073  135.4793  152.0280 C   0  0  0  0  0  0  0  0  0  0  0  0
  146.0101  136.7199  152.8011 C   0  0  0  0  0  0  0  0  0  0  0  0
  146.1546  137.9463  151.8907 C   0  0  0  0  0  0  0  0  0  0  0  0
  147.3141  138.7381  152.2763 N   0  0  0  0  0  0  0  0  0  0  0  0
  147.4017  139.4375  153.4150 C   0  0  0  0  0  0  0  0  0  0  0  0
  146.5168  139.4716  154.2705 O   0  0  0  0  0  0  0  0  0  0  0  0
  148.5657  140.0964  153.5080 N   0  0  0  0  0  0  0  0  0  0  0  0
  148.9693  140.9334  154.6369 C   0  0  0  0  0  0  0  0  0  0  0  0
  150.2921  140.4873  155.2892 C   0  0  0  0  0  0  0  0  0  0  0  0
  151.1918  140.0436  154.5726 O   0  0  0  0  0  0  0  0  0  0  0  0
  150.4309  140.6016  156.6328 N   0  0  0  0  0  0  0  0  0  0  0  0
  149.3961  141.1966  157.4898 C   0  0  0  0  0  0  0  0  0  0  0  0
  149.9136  142.5392  158.0378 C   0  0  0  0  0  0  0  0  0  0  0  0
  151.2498  142.3539  158.7811 C   0  0  0  0  0  0  0  0  0  0  0  0
  152.2661  141.5642  157.9348 C   0  0  0  0  0  0  0  0  0  0  0  0
  151.6391  140.2643  157.3992 C   0  0  0  0  0  0  0  0  0  0  0  0
  144.3520  135.4123  151.3863 C   0  0  0  0  0  0  0  0  0  0  0  0
  144.0030  134.3008  150.7021 N   0  3  0  0  0  0  0  0  0  0  0  0
  145.0402  131.2288  149.7863 H   0  0  0  0  0  0  0  0  0  0  0  0
  144.0997  132.3254  148.7698 H   0  0  0  0  0  0  0  0  0  0  0  0
  143.3842  131.6458  150.2382 H   0  0  0  0  0  0  0  0  0  0  0  0
  146.7314  132.3748  151.1432 H   0  0  0  0  0  0  0  0  0  0  0  0
  147.4432  134.3922  152.4260 H   0  0  0  0  0  0  0  0  0  0  0  0
  145.2668  136.9139  153.5760 H   0  0  0  0  0  0  0  0  0  0  0  0
  146.9506  136.5249  153.3186 H   0  0  0  0  0  0  0  0  0  0  0  0
  146.2638  137.6307  150.8516 H   0  0  0  0  0  0  0  0  0  0  0  0
  145.2585  138.5661  151.9476 H   0  0  0  0  0  0  0  0  0  0  0  0
  148.0938  138.7610  151.6352 H   0  0  0  0  0  0  0  0  0  0  0  0
  149.2305  140.0005  152.7544 H   0  0  0  0  0  0  0  0  0  0  0  0
  149.0838  141.9534  154.2691 H   0  0  0  0  0  0  0  0  0  0  0  0
  148.1729  140.9476  155.3831 H   0  0  0  0  0  0  0  0  0  0  0  0
  148.4499  141.3517  156.9698 H   0  0  0  0  0  0  0  0  0  0  0  0
  149.1731  140.5161  158.3129 H   0  0  0  0  0  0  0  0  0  0  0  0
  150.0476  143.2404  157.2130 H   0  0  0  0  0  0  0  0  0  0  0  0
  149.1741  142.9827  158.7051 H   0  0  0  0  0  0  0  0  0  0  0  0
  151.6636  143.3225  159.0627 H   0  0  0  0  0  0  0  0  0  0  0  0
  151.0670  141.8145  159.7112 H   0  0  0  0  0  0  0  0  0  0  0  0
  152.6043  142.1777  157.0985 H   0  0  0  0  0  0  0  0  0  0  0  0
  153.1505  141.3378  158.5308 H   0  0  0  0  0  0  0  0  0  0  0  0
  151.3634  139.6158  158.2320 H   0  0  0  0  0  0  0  0  0  0  0  0
  152.3786  139.7016  156.8320 H   0  0  0  0  0  0  0  0  0  0  0  0
  143.6206  136.2075  151.3995 H   0  0  0  0  0  0  0  0  0  0  0  0
  143.0905  134.2762  150.2461 H   0  0  0  0  0  0  0  0  0  0  0  0
  1  2  1  0  0  0  0
  1 23  1  0  0  0  0
  1 24  1  0  0  0  0
  1 25  1  0  0  0  0
  2 22  1  0  0  0  0
  2  3  2  0  0  0  0
  3  4  1  0  0  0  0
  3 26  1  0  0  0  0
  4  5  2  0  0  0  0
  4 27  1  0  0  0  0
  5  6  1  0  0  0  0
  5 21  1  0  0  0  0
  6  7  1  0  0  0  0
  6 28  1  0  0  0  0
  6 29  1  0  0  0  0
  7  8  1  0  0  0  0
  7 30  1  0  0  0  0
  7 31  1  0  0  0  0
  8  9  1  0  0  0  0
  8 32  1  0  0  0  0
  9 10  2  0  0  0  0
  9 11  1  0  0  0  0
 11 12  1  0  0  0  0
 11 33  1  0  0  0  0
 12 13  1  0  0  0  0
 12 34  1  0  0  0  0
 12 35  1  0  0  0  0
 13 14  2  0  0  0  0
 13 15  1  0  0  0  0
 15 20  1  0  0  0  0
 15 16  1  0  0  0  0
 16 17  1  0  0  0  0
 16 36  1  0  0  0  0
 16 37  1  0  0  0  0
 17 18  1  0  0  0  0
 17 38  1  0  0  0  0
 17 39  1  0  0  0  0
 18 19  1  0  0  0  0
 18 40  1  0  0  0  0
 18 41  1  0  0  0  0
 19 20  1  0  0  0  0
 19 42  1  0  0  0  0
 19 43  1  0  0  0  0
 20 44  1  0  0  0  0
 20 45  1  0  0  0  0
 21 22  2  0  0  0  0
 21 46  1  0  0  0  0
 22 47  1  0  0  0  0
M  CHG  1  22   1
M  END
> <s_m_source_file>
AV-unprocessed.smi

> <i_m_source_file_index>
792

> <i_lp_mmshare_version>
43012

> <i_f3d_flags>
0

> <s_epik_input>
W0NIM11jMVtjSF1bY0hdYyhbY0hdbjEpW0NIMl1bQ0gyXVtOSF1DKD1PKVtOSF1bQ0gyXUMoPU8pTjJbQ0gyXVtDSDJdW0NIMl1bQ0gyXVtDSDJdMg==

> <s_epik_cmdline>
J2VwaWtfcHl0aG9uJywgJy1waCcsICc3LjAnLCAnLXRuJywgJzgnLCAnLW1hJywgJzIwMCcsICctbWV0YWxfYmluZGluZycsICctaW1hZScsICc8aW5maWxlLm1hZT4nLCAnLW9tYWUnLCAnPG91dGZpbGUubWFlPic=

> <r_epik_Ionization_Penalty>
1.3596

> <r_epik_Ionization_Penalty_Charging>
1.35956

> <r_epik_Ionization_Penalty_Neutral>
4.39183e-05

> <r_epik_State_Penalty>
1.43833

> <r_epik_Charging_Adjusted_Penalty>
2.79788

> <i_epik_Tot_Q>
1

> <i_epik_Tot_abs_Q>
1

> <r_epik_Metal_State_Penalty>
1.49594

> <b_epik_Metal_Only>
0

> <s_lp_Force_Field>
OPLS_2005

> <r_lp_Energy>
23.5444

> <b_lp_Chiralities_Consistent>
1

> <s_lp_Variant>
AV-unprocessed.smi:792-2

> <Gold.Version>
5.8.1

> <Gold.Id.Protein>
6NUR|6NUR_protein|mol2

> <Gold.PLP.Fitness>
53.6984

> <Gold.PLP.PLP>
-41.5570

> <Gold.PLP.part.hbond>
-4.7738

> <Gold.PLP.part.metal>
0.0000

> <Gold.PLP.part.buried>
-3.8117

> <Gold.PLP.part.nonpolar>
-32.9974

> <Gold.PLP.part.repulsive>
0.4608

> <Gold.PLP.ligand.clash>
0.0000

> <Gold.PLP.ligand.torsion>
0.6896

> <Gold.PLP.Chemscore.Hbond>
4.4720

> <Gold.PLP.Chemscore.CHOScore>
0.0000

> <Gold.PLP.Chemscore.Metal>
0.0000

> <Gold.Chemscore.Hbonds>
donor molecule, donor type, donor heavy atom, donor atom, acceptor molecule, acceptor atom, score
      L1  H     8    32       P1  7957  0.77
      L1  H    11    33       P1  7957  1.00
      L1  H    22    47       P1 10186  1.17
      P1  H  7989  7998       L1    14  0.73

> <Gold.PLP.Chemscore.Internal.Correction>
0.1046

> <Gold.Rescore>
     Score         DG    S(hbond)    S(metal)    S(lipo)     H(rot)  DE(clash)    DE(int)     intcor
     20.34     -22.63       3.58        0.00      85.20       1.86       1.38       0.91       ----

> <Gold.Chemscore.Fitness>
20.3423

> <Gold.Chemscore.DG>
-22.6330

> <Gold.Chemscore.ZeroCoef>
-5.4800

> <Gold.Chemscore.Hbond>
3.5797

> <Gold.Chemscore.Metal>
0.0000

> <Gold.Chemscore.Lipo>
85.1989

> <Gold.Chemscore.Internal_Hbond>
0.0000

> <Gold.Chemscore.DEClash>
1.3790

> <Gold.Chemscore.DEInternal>
0.9117

> <Gold.Chemscore.Rot>
1.8639

> <Gold.Chemscore.Internal.Correction>
   9.000000E+99

> <Gold.Chemscore.Hbonds>
donor molecule, donor type, donor heavy atom, donor atom, acceptor molecule, acceptor atom, score
      L1  H     8    32       P1  7957  0.52
      L1  H    11    33       P1  7957  0.95
      L1  H    22    47       P1 10186  0.53
      P1  H  7989  7998       L1    14  0.69

> <Gold.Chemscore.Hbond.Weighted>
-11.9562

> <Gold.Chemscore.Metal.Weighted>
-0.0000

> <Gold.Chemscore.Lipo.Weighted>
-9.9683

> <Gold.Chemscore.Internal_Hbond.Weighted>
0.0000

> <Gold.Chemscore.DEClash.Weighted>
1.3790

> <Gold.Chemscore.DEInternal.Weighted>
0.9117

> <Gold.Chemscore.Rot.Weighted>
4.7715

> <Gold.Chemscore.Internal.Correction.Weighted>
   9.000000E+99

> <Gold.Protein.RotatedTorsions>
[ 6907 6896 6895 6894 ] final -117.30 input  -60.11 | X-H torsion
[ 7974 7965 7964 7962 ] final  -67.39 input  175.53 | X-H torsion
[ 8008 7997 7996 7995 ] final -178.61 input   59.86 | X-H torsion
[ 10167 10162 10161 10158 ] final   81.83 input  -65.29 | X-H torsion
[ 10718 10713 10712 10709 ] final  163.45 input   66.30 | X-H torsion
[ 10763 10752 10751 10750 ] final   -6.26 input  -60.55 | X-H torsion
[ 11005 11000 10999 10996 ] final -161.55 input  -57.11 | X-H torsion

> <Gold.Protein.ActiveResidues>
 VAL166  LYS551  ARG553  GLY616  TRP617  ASP618  TYR619  PRO620  LYS621  CYS622 
 ASP623  PHE694  ASN695  SER759  ASP760  ASP761  ALA762  ILE779  LEU786  VAL792 
 PHE793  MET794  SER795  GLU796  ALA797  LYS798  CYS799  TRP800  GLU811  SER814 

> <Gold.Protein.RotatedAtoms>
  150.8125  133.8396  159.3175 H   0  0  0  0  0  0  0  0  0  0  0  0  # atno 6907 bound_to 6896
  151.6177  135.1033  160.0104 H   0  0  0  0  0  0  0  0  0  0  0  0  # atno 6908 bound_to 6896
  152.4217  133.7087  159.6523 H   0  0  0  0  0  0  0  0  0  0  0  0  # atno 6909 bound_to 6896
  145.7298  140.9002  143.0586 H   0  0  0  0  0  0  0  0  0  0  0  0  # atno 7974 bound_to 7965
  156.0208  140.1261  157.0359 H   0  0  0  0  0  0  0  0  0  0  0  0  # atno 8008 bound_to 7997
  154.4311  140.1069  156.6031 H   0  0  0  0  0  0  0  0  0  0  0  0  # atno 8009 bound_to 7997
  155.5947  140.3470  155.4578 H   0  0  0  0  0  0  0  0  0  0  0  0  # atno 8010 bound_to 7997
  139.9352  144.6126  150.8306 H   0  0  0  0  0  0  0  0  0  0  0  0  # atno 10167 bound_to 10162
  157.1083  131.0461  151.2468 H   0  0  0  0  0  0  0  0  0  0  0  0  # atno 10718 bound_to 10713
  153.4099  135.7007  153.6366 H   0  0  0  0  0  0  0  0  0  0  0  0  # atno 10763 bound_to 10752
  153.4865  135.3682  155.2470 H   0  0  0  0  0  0  0  0  0  0  0  0  # atno 10764 bound_to 10752
  154.8716  135.4078  154.3449 H   0  0  0  0  0  0  0  0  0  0  0  0  # atno 10765 bound_to 10752
  140.6191  134.4769  157.5222 H   0  0  0  0  0  0  0  0  0  0  0  0  # atno 11005 bound_to 11000
  144.6896  139.9316  143.7472 LP  0  0  0  0  0  0  0  0  0  0  0  0  # atno 17320 bound_to 7965
  146.0548  139.3546  143.0617 LP  0  0  0  0  0  0  0  0  0  0  0  0  # atno 17321 bound_to 7965
  140.7626  143.3203  151.2637 LP  0  0  0  0  0  0  0  0  0  0  0  0  # atno 17342 bound_to 10162
  139.6750  143.9954  152.2775 LP  0  0  0  0  0  0  0  0  0  0  0  0  # atno 17343 bound_to 10162
  157.4581  130.7637  149.7211 LP  0  0  0  0  0  0  0  0  0  0  0  0  # atno 17370 bound_to 10713
  155.9856  130.3981  150.3251 LP  0  0  0  0  0  0  0  0  0  0  0  0  # atno 17371 bound_to 10713
  139.9160  134.8244  156.1364 LP  0  0  0  0  0  0  0  0  0  0  0  0  # atno 17394 bound_to 11000
  141.0755  133.6777  156.2227 LP  0  0  0  0  0  0  0  0  0  0  0  0  # atno 17395 bound_to 11000

$$$$
