AV-unprocessed.smi:1626|AV-procd|sdf|6510|dock1
  -GOLD-   22720 7183D 1   1.00000     0.00000
 Structure written by MMmdl.
 49 51  0  0  0  0  0  0  0  0  3 V2000
  152.8256  142.8333  160.1952 C   0  0  0  0  0  0  0  0  0  0  0  0
  152.2418  142.0565  159.0274 C   0  0  0  0  0  0  0  0  0  0  0  0
  151.3157  142.7067  158.1805 C   0  0  0  0  0  0  0  0  0  0  0  0
  150.8023  141.9714  157.1189 C   0  0  0  0  0  0  0  0  0  0  0  0
  149.8920  142.3201  156.1186 N   0  3  0  0  0  0  0  0  0  0  0  0
  149.6989  141.2574  155.2888 C   0  0  0  0  0  0  0  0  0  0  0  0
  150.4636  140.2310  155.7526 N   0  0  0  0  0  0  0  0  0  0  0  0
  150.6360  138.8686  155.2317 C   0  0  0  0  0  0  0  0  0  0  0  0
  149.3256  138.0548  155.1990 C   0  0  2  0  0  0  0  0  0  0  0  0
  149.5998  136.8497  154.5140 O   0  0  0  0  0  0  0  0  0  0  0  0
  148.1657  138.7883  154.4891 C   0  0  0  0  0  0  0  0  0  0  0  0
  147.2712  137.8648  153.7445 N   0  3  2  0  0  0  0  0  0  0  0  0
  146.5197  138.5580  152.6658 C   0  0  0  0  0  0  0  0  0  0  0  0
  145.7138  137.5588  151.8190 C   0  0  0  0  0  0  0  0  0  0  0  0
  144.7631  136.7355  152.7003 C   0  0  1  0  0  0  0  0  0  0  0  0
  144.1133  135.7601  151.9137 O   0  0  0  0  0  0  0  0  0  0  0  0
  145.5549  136.0533  153.8254 C   0  0  0  0  0  0  0  0  0  0  0  0
  146.3625  137.0862  154.6296 C   0  0  0  0  0  0  0  0  0  0  0  0
  151.1775  140.6341  156.8860 C   0  0  0  0  0  0  0  0  0  0  0  0
  152.0900  139.9788  157.7090 C   0  0  0  0  0  0  0  0  0  0  0  0
  152.6227  140.7093  158.7952 C   0  0  0  0  0  0  0  0  0  0  0  0
  153.6186  140.0200  159.7123 C   0  0  0  0  0  0  0  0  0  0  0  0
  152.4680  143.8633  160.2081 H   0  0  0  0  0  0  0  0  0  0  0  0
  153.9138  142.8610  160.1324 H   0  0  0  0  0  0  0  0  0  0  0  0
  152.5445  142.3703  161.1413 H   0  0  0  0  0  0  0  0  0  0  0  0
  151.0230  143.7326  158.3502 H   0  0  0  0  0  0  0  0  0  0  0  0
  149.0551  141.2341  154.4211 H   0  0  0  0  0  0  0  0  0  0  0  0
  151.0511  138.9565  154.2265 H   0  0  0  0  0  0  0  0  0  0  0  0
  151.3935  138.3677  155.8367 H   0  0  0  0  0  0  0  0  0  0  0  0
  149.0489  137.7999  156.2210 H   0  0  0  0  0  0  0  0  0  0  0  0
  149.1775  136.8702  153.6690 H   0  0  0  0  0  0  0  0  0  0  0  0
  147.5632  139.3533  155.2013 H   0  0  0  0  0  0  0  0  0  0  0  0
  148.5929  139.5250  153.8067 H   0  0  0  0  0  0  0  0  0  0  0  0
  145.8549  139.3045  153.1039 H   0  0  0  0  0  0  0  0  0  0  0  0
  147.2147  139.0932  152.0174 H   0  0  0  0  0  0  0  0  0  0  0  0
  145.1492  138.0926  151.0534 H   0  0  0  0  0  0  0  0  0  0  0  0
  146.4011  136.8954  151.2914 H   0  0  0  0  0  0  0  0  0  0  0  0
  144.0031  137.3895  153.1302 H   0  0  0  0  0  0  0  0  0  0  0  0
  143.1907  135.7680  152.1201 H   0  0  0  0  0  0  0  0  0  0  0  0
  144.8769  135.5145  154.4887 H   0  0  0  0  0  0  0  0  0  0  0  0
  146.2345  135.3099  153.4055 H   0  0  0  0  0  0  0  0  0  0  0  0
  146.9313  136.5660  155.3994 H   0  0  0  0  0  0  0  0  0  0  0  0
  145.6856  137.7678  155.1472 H   0  0  0  0  0  0  0  0  0  0  0  0
  152.3851  138.9557  157.5283 H   0  0  0  0  0  0  0  0  0  0  0  0
  153.7733  138.9801  159.4235 H   0  0  0  0  0  0  0  0  0  0  0  0
  153.2623  140.0285  160.7426 H   0  0  0  0  0  0  0  0  0  0  0  0
  154.5848  140.5236  159.6746 H   0  0  0  0  0  0  0  0  0  0  0  0
  147.8725  137.2005  153.2786 H   0  0  0  0  0  0  0  0  0  0  0  0
  149.4421  143.2194  156.0033 H   0  0  0  0  0  0  0  0  0  0  0  0
  1  2  1  0  0  0  0
  1 23  1  0  0  0  0
  1 24  1  0  0  0  0
  1 25  1  0  0  0  0
  2 21  1  0  0  0  0
  2  3  2  0  0  0  0
  3  4  1  0  0  0  0
  3 26  1  0  0  0  0
  4 19  2  0  0  0  0
  4  5  1  0  0  0  0
  5  6  2  0  0  0  0
  5 49  1  0  0  0  0
  6  7  1  0  0  0  0
  6 27  1  0  0  0  0
  7  8  1  0  0  0  0
  7 19  1  0  0  0  0
  8  9  1  0  0  0  0
  8 28  1  0  0  0  0
  8 29  1  0  0  0  0
  9 10  1  0  0  0  0
  9 11  1  0  0  0  0
  9 30  1  0  0  0  0
 10 31  1  0  0  0  0
 11 12  1  0  0  0  0
 11 32  1  0  0  0  0
 11 33  1  0  0  0  0
 12 18  1  0  0  0  0
 12 13  1  0  0  0  0
 12 48  1  0  0  0  0
 13 14  1  0  0  0  0
 13 34  1  0  0  0  0
 13 35  1  0  0  0  0
 14 15  1  0  0  0  0
 14 36  1  0  0  0  0
 14 37  1  0  0  0  0
 15 16  1  0  0  0  0
 15 17  1  0  0  0  0
 15 38  1  0  0  0  0
 16 39  1  0  0  0  0
 17 18  1  0  0  0  0
 17 40  1  0  0  0  0
 17 41  1  0  0  0  0
 18 42  1  0  0  0  0
 18 43  1  0  0  0  0
 19 20  1  0  0  0  0
 20 21  2  0  0  0  0
 20 44  1  0  0  0  0
 21 22  1  0  0  0  0
 22 45  1  0  0  0  0
 22 46  1  0  0  0  0
 22 47  1  0  0  0  0
M  CHG  1   5   1
M  CHG  1  12   1
M  END
> <s_m_source_file>
AV-unprocessed.smi

> <i_m_source_file_index>
1626

> <i_lp_mmshare_version>
43012

> <i_f3d_flags>
0

> <s_epik_input>
W0NIM11jKFtjSF0xKWMoW0NIM10pW2NIXWMoYzEyKW4oW2NIXW4yKVtDSDJdW0NASF0oW09IXSlbQ0gyXU4zW0NIMl1bQ0gyXVtDSF0oW09IXSlbQ0gyXVtDSDJdMw==

> <s_epik_cmdline>
J2VwaWtfcHl0aG9uJywgJy1waCcsICc3LjAnLCAnLXRuJywgJzgnLCAnLW1hJywgJzIwMCcsICctbWV0YWxfYmluZGluZycsICctaW1hZScsICc8aW5maWxlLm1hZT4nLCAnLW9tYWUnLCAnPG91dGZpbGUubWFlPic=

> <r_epik_Ionization_Penalty>
1.19369

> <r_epik_Ionization_Penalty_Charging>
1.19369

> <r_epik_Ionization_Penalty_Neutral>
1.68219e-06

> <r_epik_State_Penalty>
1.27429

> <r_epik_Charging_Adjusted_Penalty>
2.46798

> <i_epik_Tot_Q>
2

> <i_epik_Tot_abs_Q>
2

> <r_epik_Metal_State_Penalty>
5.29157

> <b_epik_Metal_Only>
0

> <s_lp_Force_Field>
OPLS_2005

> <r_lp_Energy>
33.2617

> <b_lp_Chiralities_Consistent>
1

> <s_lp_Variant>
AV-unprocessed.smi:1626-5

> <Gold.Version>
5.8.1

> <Gold.Id.Protein>
6NUR|6NUR_protein|mol2

> <Gold.PLP.Fitness>
54.2807

> <Gold.PLP.PLP>
-40.8525

> <Gold.PLP.part.hbond>
-4.5512

> <Gold.PLP.part.metal>
0.0000

> <Gold.PLP.part.buried>
0.0356

> <Gold.PLP.part.nonpolar>
-38.0175

> <Gold.PLP.part.repulsive>
0.1516

> <Gold.PLP.ligand.clash>
0.0000

> <Gold.PLP.ligand.torsion>
0.6665

> <Gold.PLP.Chemscore.Hbond>
4.9120

> <Gold.PLP.Chemscore.CHOScore>
0.0000

> <Gold.PLP.Chemscore.Metal>
0.0000

> <Gold.Chemscore.Hbonds>
donor molecule, donor type, donor heavy atom, donor atom, acceptor molecule, acceptor atom, score
      L1  H     5    49       P1  8028  2.00
      L1  H    10    31       P1  7948  1.00
      L1  H    12    48       P1  7948  2.00

> <Gold.PLP.Chemscore.Internal.Correction>
0.0253

> <Gold.Rescore>
     Score         DG    S(hbond)    S(metal)    S(lipo)     H(rot)  DE(clash)    DE(int)     intcor
     17.49     -18.96       2.61        0.00     100.60       2.74       0.09       1.38       ----

> <Gold.Chemscore.Fitness>
17.4875

> <Gold.Chemscore.DG>
-18.9648

> <Gold.Chemscore.ZeroCoef>
-5.4800

> <Gold.Chemscore.Hbond>
2.6122

> <Gold.Chemscore.Metal>
0.0000

> <Gold.Chemscore.Lipo>
100.6019

> <Gold.Chemscore.Internal_Hbond>
0.0000

> <Gold.Chemscore.DEClash>
0.0943

> <Gold.Chemscore.DEInternal>
1.3830

> <Gold.Chemscore.Rot>
2.7384

> <Gold.Chemscore.Internal.Correction>
   9.000000E+99

> <Gold.Chemscore.Hbonds>
donor molecule, donor type, donor heavy atom, donor atom, acceptor molecule, acceptor atom, score
      L1  H     5    49       P1  8028  1.00
      L1  H    10    31       P1  7948  0.94
      L1  H    12    48       P1  7948  0.93

> <Gold.Chemscore.Hbond.Weighted>
-8.7247

> <Gold.Chemscore.Metal.Weighted>
-0.0000

> <Gold.Chemscore.Lipo.Weighted>
-11.7704

> <Gold.Chemscore.Internal_Hbond.Weighted>
0.0000

> <Gold.Chemscore.DEClash.Weighted>
0.0943

> <Gold.Chemscore.DEInternal.Weighted>
1.3830

> <Gold.Chemscore.Rot.Weighted>
7.0103

> <Gold.Chemscore.Internal.Correction.Weighted>
   9.000000E+99

> <Gold.Protein.RotatedTorsions>
[ 6907 6896 6895 6894 ] final   12.42 input  -60.11 | X-H torsion
[ 7974 7965 7964 7962 ] final  128.36 input  175.53 | X-H torsion
[ 8008 7997 7996 7995 ] final  116.39 input   59.86 | X-H torsion
[ 10167 10162 10161 10158 ] final -168.46 input  -65.29 | X-H torsion
[ 10718 10713 10712 10709 ] final  172.59 input   66.30 | X-H torsion
[ 10763 10752 10751 10750 ] final    4.74 input  -60.55 | X-H torsion
[ 11005 11000 10999 10996 ] final  -75.50 input  -57.11 | X-H torsion

> <Gold.Protein.ActiveResidues>
 VAL166  LYS551  ARG553  GLY616  TRP617  ASP618  TYR619  PRO620  LYS621  CYS622 
 ASP623  PHE694  ASN695  SER759  ASP760  ASP761  ALA762  ILE779  LEU786  VAL792 
 PHE793  MET794  SER795  GLU796  ALA797  LYS798  CYS799  TRP800  GLU811  SER814 

> <Gold.Protein.RotatedAtoms>
  151.7701  135.0788  160.0358 H   0  0  0  0  0  0  0  0  0  0  0  0  # atno 6907 bound_to 6896
  152.3294  133.5937  159.5808 H   0  0  0  0  0  0  0  0  0  0  0  0  # atno 6908 bound_to 6896
  150.7414  133.9806  159.3617 H   0  0  0  0  0  0  0  0  0  0  0  0  # atno 6909 bound_to 6896
  145.0404  139.3968  143.5105 H   0  0  0  0  0  0  0  0  0  0  0  0  # atno 7974 bound_to 7965
  156.2436  140.2918  156.0516 H   0  0  0  0  0  0  0  0  0  0  0  0  # atno 8008 bound_to 7997
  155.1875  140.0406  157.2911 H   0  0  0  0  0  0  0  0  0  0  0  0  # atno 8009 bound_to 7997
  154.6217  140.2477  155.7548 H   0  0  0  0  0  0  0  0  0  0  0  0  # atno 8010 bound_to 7997
  139.5984  144.1063  152.1715 H   0  0  0  0  0  0  0  0  0  0  0  0  # atno 10167 bound_to 10162
  156.9768  131.0106  151.2891 H   0  0  0  0  0  0  0  0  0  0  0  0  # atno 10718 bound_to 10713
  153.2677  135.6929  153.7513 H   0  0  0  0  0  0  0  0  0  0  0  0  # atno 10763 bound_to 10752
  153.6548  135.3370  155.3111 H   0  0  0  0  0  0  0  0  0  0  0  0  # atno 10764 bound_to 10752
  154.8453  135.4463  154.1689 H   0  0  0  0  0  0  0  0  0  0  0  0  # atno 10765 bound_to 10752
  141.1646  133.6949  156.7526 H   0  0  0  0  0  0  0  0  0  0  0  0  # atno 11005 bound_to 11000
  146.3509  140.0002  142.8677 LP  0  0  0  0  0  0  0  0  0  0  0  0  # atno 17320 bound_to 7965
  145.1655  140.9694  143.4352 LP  0  0  0  0  0  0  0  0  0  0  0  0  # atno 17321 bound_to 7965
  140.0653  144.5823  150.7232 LP  0  0  0  0  0  0  0  0  0  0  0  0  # atno 17342 bound_to 10162
  140.7230  143.2608  151.4214 LP  0  0  0  0  0  0  0  0  0  0  0  0  # atno 17343 bound_to 10162
  157.5554  130.8210  149.8198 LP  0  0  0  0  0  0  0  0  0  0  0  0  # atno 17370 bound_to 10713
  156.0260  130.3779  150.1821 LP  0  0  0  0  0  0  0  0  0  0  0  0  # atno 17371 bound_to 10713
  140.2593  134.8479  157.3743 LP  0  0  0  0  0  0  0  0  0  0  0  0  # atno 17394 bound_to 11000
  140.1627  134.4709  155.7884 LP  0  0  0  0  0  0  0  0  0  0  0  0  # atno 17395 bound_to 11000

$$$$
