AV-unprocessed.smi:1254|AV-procd|sdf|5276|dock8
  -GOLD-   22720 4393D 1   1.00000     0.00000
 Structure written by MMmdl.
 45 46  0  0  0  0  0  0  0  0  3 V2000
  149.3335  140.9912  154.5922 C   0  0  0  0  0  0  0  0  0  0  0  0
  150.0779  139.6998  154.5744 C   0  0  0  0  0  0  0  0  0  0  0  0
  149.6724  138.3954  154.5550 C   0  0  0  0  0  0  0  0  0  0  0  0
  150.8978  137.6743  154.5567 C   0  0  0  0  0  0  0  0  0  0  0  0
  151.0284  136.3388  154.5304 N   0  5  0  0  0  0  0  0  0  0  0  0
  150.1052  135.5529  155.1299 C   0  0  0  0  0  0  0  0  0  0  0  0
  150.0174  135.3131  156.3363 O   0  0  0  0  0  0  0  0  0  0  0  0
  149.2291  135.0066  154.2775 N   0  0  0  0  0  0  0  0  0  0  0  0
  148.1479  134.1055  154.6518 C   0  0  0  0  0  0  0  0  0  0  0  0
  146.8189  134.5725  154.0432 C   0  0  1  0  0  0  0  0  0  0  0  0
  145.7780  133.4345  154.0013 C   0  0  0  0  0  0  0  0  0  0  0  0
  144.4746  133.9128  153.4791 N   0  3  2  0  0  0  0  0  0  0  0  0
  144.4450  134.0748  152.0001 C   0  0  0  0  0  0  0  0  0  0  0  0
  144.9409  132.8190  151.2512 C   0  0  0  0  0  0  0  0  0  0  0  0
  146.4629  132.8470  151.0316 C   0  0  0  0  0  0  0  0  0  0  0  0
  144.2093  132.6656  149.9095 C   0  0  0  0  0  0  0  0  0  0  0  0
  144.0129  135.0998  154.2430 C   0  0  0  0  0  0  0  0  0  0  0  0
  145.1055  136.1837  154.3181 C   0  0  0  0  0  0  0  0  0  0  0  0
  146.3002  135.6258  154.8499 O   0  0  0  0  0  0  0  0  0  0  0  0
  151.9533  138.4713  154.5585 N   0  0  0  0  0  0  0  0  0  0  0  0
  151.4360  139.7719  154.5778 O   0  0  0  0  0  0  0  0  0  0  0  0
  148.5843  141.0155  153.8009 H   0  0  0  0  0  0  0  0  0  0  0  0
  150.0071  141.8357  154.4447 H   0  0  0  0  0  0  0  0  0  0  0  0
  148.8238  141.1284  155.5459 H   0  0  0  0  0  0  0  0  0  0  0  0
  148.6614  138.0164  154.5457 H   0  0  0  0  0  0  0  0  0  0  0  0
  149.3284  135.2301  153.2981 H   0  0  0  0  0  0  0  0  0  0  0  0
  148.3837  133.1015  154.2948 H   0  0  0  0  0  0  0  0  0  0  0  0
  148.0741  134.0527  155.7391 H   0  0  0  0  0  0  0  0  0  0  0  0
  147.0051  134.9410  153.0324 H   0  0  0  0  0  0  0  0  0  0  0  0
  146.1411  132.5946  153.4075 H   0  0  0  0  0  0  0  0  0  0  0  0
  145.6205  133.0484  155.0096 H   0  0  0  0  0  0  0  0  0  0  0  0
  143.4387  134.3395  151.6751 H   0  0  0  0  0  0  0  0  0  0  0  0
  145.0806  134.9131  151.7119 H   0  0  0  0  0  0  0  0  0  0  0  0
  144.7043  131.9336  151.8405 H   0  0  0  0  0  0  0  0  0  0  0  0
  146.7631  133.7137  150.4419 H   0  0  0  0  0  0  0  0  0  0  0  0
  146.7987  131.9545  150.5029 H   0  0  0  0  0  0  0  0  0  0  0  0
  147.0033  132.8843  151.9775 H   0  0  0  0  0  0  0  0  0  0  0  0
  144.4045  133.5127  149.2510 H   0  0  0  0  0  0  0  0  0  0  0  0
  143.1307  132.5976  150.0537 H   0  0  0  0  0  0  0  0  0  0  0  0
  144.5267  131.7611  149.3895 H   0  0  0  0  0  0  0  0  0  0  0  0
  143.0951  135.5092  153.8231 H   0  0  0  0  0  0  0  0  0  0  0  0
  143.7650  134.7739  155.2540 H   0  0  0  0  0  0  0  0  0  0  0  0
  145.3001  136.6269  153.3406 H   0  0  0  0  0  0  0  0  0  0  0  0
  144.7790  136.9953  154.9685 H   0  0  0  0  0  0  0  0  0  0  0  0
  143.8164  133.1712  153.6715 H   0  0  0  0  0  0  0  0  0  0  0  0
  1  2  1  0  0  0  0
  1 22  1  0  0  0  0
  1 23  1  0  0  0  0
  1 24  1  0  0  0  0
  2 21  1  0  0  0  0
  2  3  2  0  0  0  0
  3  4  1  0  0  0  0
  3 25  1  0  0  0  0
  4  5  1  0  0  0  0
  4 20  2  0  0  0  0
  5  6  1  0  0  0  0
  6  7  2  0  0  0  0
  6  8  1  0  0  0  0
  8  9  1  0  0  0  0
  8 26  1  0  0  0  0
  9 10  1  0  0  0  0
  9 27  1  0  0  0  0
  9 28  1  0  0  0  0
 10 19  1  0  0  0  0
 10 11  1  0  0  0  0
 10 29  1  0  0  0  0
 11 12  1  0  0  0  0
 11 30  1  0  0  0  0
 11 31  1  0  0  0  0
 12 13  1  0  0  0  0
 12 17  1  0  0  0  0
 12 45  1  0  0  0  0
 13 14  1  0  0  0  0
 13 32  1  0  0  0  0
 13 33  1  0  0  0  0
 14 15  1  0  0  0  0
 14 16  1  0  0  0  0
 14 34  1  0  0  0  0
 15 35  1  0  0  0  0
 15 36  1  0  0  0  0
 15 37  1  0  0  0  0
 16 38  1  0  0  0  0
 16 39  1  0  0  0  0
 16 40  1  0  0  0  0
 17 18  1  0  0  0  0
 17 41  1  0  0  0  0
 17 42  1  0  0  0  0
 18 19  1  0  0  0  0
 18 43  1  0  0  0  0
 18 44  1  0  0  0  0
 20 21  1  0  0  0  0
M  CHG  1   5  -1
M  CHG  1  12   1
M  END
> <s_m_source_file>
AV-unprocessed.smi

> <i_m_source_file_index>
1254

> <i_lp_mmshare_version>
43012

> <i_f3d_flags>
0

> <s_epik_input>
W0NIM11jMVtjSF1jKG5vMSlbTkhdQyg9TylbTkhdW0NIMl1bQ0BASF0yW0NIMl1OKFtDSDJdW0NIMl1PMilbQ0gyXVtDSF0oW0NIM10pW0NIM10=

> <s_epik_cmdline>
J2VwaWtfcHl0aG9uJywgJy1waCcsICc3LjAnLCAnLXRuJywgJzgnLCAnLW1hJywgJzIwMCcsICctbWV0YWxfYmluZGluZycsICctaW1hZScsICc8aW5maWxlLm1hZT4nLCAnLW9tYWUnLCAnPG91dGZpbGUubWFlPic=

> <r_epik_Ionization_Penalty>
6.33139

> <r_epik_Ionization_Penalty_Charging>
6.33128

> <r_epik_Ionization_Penalty_Neutral>
0.000104968

> <r_epik_State_Penalty>
6.32522

> <r_epik_Charging_Adjusted_Penalty>
12.6565

> <i_epik_Tot_Q>
0

> <i_epik_Tot_abs_Q>
2

> <r_epik_Metal_State_Penalty>
2.26285

> <b_epik_Metal_Only>
1

> <s_lp_Force_Field>
OPLS_2005

> <r_lp_Energy>
8.57964

> <b_lp_Chiralities_Consistent>
1

> <s_lp_Variant>
AV-unprocessed.smi:1254-8

> <Gold.Version>
5.8.1

> <Gold.Id.Protein>
6NUR|6NUR_protein|mol2

> <Gold.PLP.Fitness>
44.1364

> <Gold.PLP.PLP>
-29.6819

> <Gold.PLP.part.hbond>
-3.9949

> <Gold.PLP.part.metal>
0.0000

> <Gold.PLP.part.buried>
-7.3284

> <Gold.PLP.part.nonpolar>
-21.4570

> <Gold.PLP.part.repulsive>
0.6870

> <Gold.PLP.ligand.clash>
0.0000

> <Gold.PLP.ligand.torsion>
1.5629

> <Gold.PLP.Chemscore.Hbond>
5.8000

> <Gold.PLP.Chemscore.CHOScore>
0.0000

> <Gold.PLP.Chemscore.Metal>
0.0000

> <Gold.Chemscore.Hbonds>
donor molecule, donor type, donor heavy atom, donor atom, acceptor molecule, acceptor atom, score
      L1  H     8    26       P1  7948  0.75
      L1  H    12    45       P1 10957  1.53
      P1  H  7989  7998       L1    21  1.00
      P1  H 10752 10765       L1     5  2.00

> <Gold.PLP.Chemscore.Internal.Correction>
0.1803

> <Gold.Rescore>
     Score         DG    S(hbond)    S(metal)    S(lipo)     H(rot)  DE(clash)    DE(int)     intcor
     15.74     -17.45       2.74        0.00      61.09       1.69       0.13       1.58       ----

> <Gold.Chemscore.Fitness>
15.7362

> <Gold.Chemscore.DG>
-17.4464

> <Gold.Chemscore.ZeroCoef>
-5.4800

> <Gold.Chemscore.Hbond>
2.7401

> <Gold.Chemscore.Metal>
0.0000

> <Gold.Chemscore.Lipo>
61.0901

> <Gold.Chemscore.Internal_Hbond>
0.0000

> <Gold.Chemscore.DEClash>
0.1341

> <Gold.Chemscore.DEInternal>
1.5760

> <Gold.Chemscore.Rot>
1.6926

> <Gold.Chemscore.Internal.Correction>
   9.000000E+99

> <Gold.Chemscore.Hbonds>
donor molecule, donor type, donor heavy atom, donor atom, acceptor molecule, acceptor atom, score
      L1  H     8    26       P1  7948  0.09
      L1  H    12    45       P1 10957  0.72
      P1  H  7989  7998       L1    21  0.24
      P1  H 10752 10765       L1     5  0.82

> <Gold.Chemscore.Hbond.Weighted>
-9.1519

> <Gold.Chemscore.Metal.Weighted>
-0.0000

> <Gold.Chemscore.Lipo.Weighted>
-7.1475

> <Gold.Chemscore.Internal_Hbond.Weighted>
0.0000

> <Gold.Chemscore.DEClash.Weighted>
0.1341

> <Gold.Chemscore.DEInternal.Weighted>
1.5760

> <Gold.Chemscore.Rot.Weighted>
4.3330

> <Gold.Chemscore.Internal.Correction.Weighted>
   9.000000E+99

> <Gold.Protein.RotatedTorsions>
[ 6907 6896 6895 6894 ] final -177.47 input  -60.11 | X-H torsion
[ 7974 7965 7964 7962 ] final  -57.14 input  175.53 | X-H torsion
[ 8008 7997 7996 7995 ] final  -59.31 input   59.86 | X-H torsion
[ 10167 10162 10161 10158 ] final   68.43 input  -65.29 | X-H torsion
[ 10718 10713 10712 10709 ] final -139.59 input   66.30 | X-H torsion
[ 10763 10752 10751 10750 ] final  173.17 input  -60.55 | X-H torsion
[ 11005 11000 10999 10996 ] final -176.30 input  -57.11 | X-H torsion

> <Gold.Protein.ActiveResidues>
 VAL166  LYS551  ARG553  GLY616  TRP617  ASP618  TYR619  PRO620  LYS621  CYS622 
 ASP623  PHE694  ASN695  SER759  ASP760  ASP761  ALA762  ILE779  LEU786  VAL792 
 PHE793  MET794  SER795  GLU796  ALA797  LYS798  CYS799  TRP800  GLU811  SER814 

> <Gold.Protein.RotatedAtoms>
  151.6215  133.3339  159.3088 H   0  0  0  0  0  0  0  0  0  0  0  0  # atno 6907 bound_to 6896
  150.8103  134.7258  159.6694 H   0  0  0  0  0  0  0  0  0  0  0  0  # atno 6908 bound_to 6896
  152.4200  134.5977  160.0043 H   0  0  0  0  0  0  0  0  0  0  0  0  # atno 6909 bound_to 6896
  145.8545  140.8329  142.9968 H   0  0  0  0  0  0  0  0  0  0  0  0  # atno 7974 bound_to 7965
  154.4347  140.1064  156.6096 H   0  0  0  0  0  0  0  0  0  0  0  0  # atno 8008 bound_to 7997
  155.5824  140.3491  155.4525 H   0  0  0  0  0  0  0  0  0  0  0  0  # atno 8009 bound_to 7997
  156.0309  140.1260  157.0249 H   0  0  0  0  0  0  0  0  0  0  0  0  # atno 8010 bound_to 7997
  140.0787  144.5090  150.7177 H   0  0  0  0  0  0  0  0  0  0  0  0  # atno 10167 bound_to 10162
  156.3125  130.7489  151.1568 H   0  0  0  0  0  0  0  0  0  0  0  0  # atno 10718 bound_to 10713
  154.4364  135.2761  155.1878 H   0  0  0  0  0  0  0  0  0  0  0  0  # atno 10763 bound_to 10752
  154.3763  135.6097  153.5770 H   0  0  0  0  0  0  0  0  0  0  0  0  # atno 10764 bound_to 10752
  152.9838  135.5869  154.4683 H   0  0  0  0  0  0  0  0  0  0  0  0  # atno 10765 bound_to 10752
  140.4537  134.6319  157.4812 H   0  0  0  0  0  0  0  0  0  0  0  0  # atno 11005 bound_to 11000
  144.6728  140.1003  143.7461 LP  0  0  0  0  0  0  0  0  0  0  0  0  # atno 17320 bound_to 7965
  145.9319  139.2612  143.1320 LP  0  0  0  0  0  0  0  0  0  0  0  0  # atno 17321 bound_to 7965
  140.7089  143.2489  151.4643 LP  0  0  0  0  0  0  0  0  0  0  0  0  # atno 17342 bound_to 10162
  139.5792  144.1748  152.1946 LP  0  0  0  0  0  0  0  0  0  0  0  0  # atno 17343 bound_to 10162
  157.7394  131.0529  150.5234 LP  0  0  0  0  0  0  0  0  0  0  0  0  # atno 17370 bound_to 10713
  156.5375  130.4200  149.6170 LP  0  0  0  0  0  0  0  0  0  0  0  0  # atno 17371 bound_to 10713
  139.9990  134.6866  155.9561 LP  0  0  0  0  0  0  0  0  0  0  0  0  # atno 17394 bound_to 11000
  141.1653  133.6537  156.4457 LP  0  0  0  0  0  0  0  0  0  0  0  0  # atno 17395 bound_to 11000

$$$$
