AV-unprocessed.smi:831|AV-procd|sdf|3875|dock3
  -GOLD-   22720 1333D 1   1.00000     0.00000
 Structure written by MMmdl.
 50 51  0  0  0  0  0  0  0  0  1 V2000
  152.3029  144.8315  158.3440 C   0  0  0  0  0  0  0  0  0  0  0  0
  151.5077  143.8844  159.2563 C   0  0  0  0  0  0  0  0  0  0  0  0
  151.9051  144.0803  160.7266 C   0  0  0  0  0  0  0  0  0  0  0  0
  151.6786  142.4181  158.8282 C   0  0  0  0  0  0  0  0  0  0  0  0
  151.1465  142.2494  157.5192 O   0  0  0  0  0  0  0  0  0  0  0  0
  151.2867  140.9430  156.9696 C   0  0  1  0  0  0  0  0  0  0  0  0
  150.7650  139.9512  158.0199 C   0  0  0  0  0  0  0  0  0  0  0  0
  150.4775  140.8356  155.6591 C   0  0  0  0  0  0  0  0  0  0  0  0
  151.0507  140.4990  154.6246 O   0  0  0  0  0  0  0  0  0  0  0  0
  149.1584  141.0917  155.6554 N   0  0  0  0  0  0  0  0  0  0  0  0
  148.2502  141.0380  154.5150 C   0  0  0  0  0  0  0  0  0  0  0  0
  146.9609  141.8209  154.7137 C   0  0  0  0  0  0  0  0  0  0  0  0
  146.4886  142.7595  153.7712 C   0  0  0  0  0  0  0  0  0  0  0  0
  145.2840  143.4410  154.0295 C   0  0  0  0  0  0  0  0  0  0  0  0
  144.5753  143.1660  155.2232 C   0  0  0  0  0  0  0  0  0  0  0  0
  143.3682  143.8422  155.5038 N   0  0  0  0  0  0  0  0  0  0  0  0
  142.2244  142.9872  155.8120 C   0  0  0  0  0  0  0  0  0  0  0  0
  141.0689  143.8236  156.3885 C   0  0  0  0  0  0  0  0  0  0  0  0
  140.7437  144.8802  155.4915 O   0  0  0  0  0  0  0  0  0  0  0  0
  141.8417  145.7652  155.2969 C   0  0  0  0  0  0  0  0  0  0  0  0
  143.0222  144.9980  154.6780 C   0  0  0  0  0  0  0  0  0  0  0  0
  145.0243  142.2518  156.1184 N   0  0  0  0  0  0  0  0  0  0  0  0
  146.1807  141.6031  155.8670 C   0  0  0  0  0  0  0  0  0  0  0  0
  153.3717  144.6196  158.3876 H   0  0  0  0  0  0  0  0  0  0  0  0
  152.1576  145.8722  158.6347 H   0  0  0  0  0  0  0  0  0  0  0  0
  151.9886  144.7363  157.3041 H   0  0  0  0  0  0  0  0  0  0  0  0
  150.4509  144.1391  159.1669 H   0  0  0  0  0  0  0  0  0  0  0  0
  152.9563  143.8400  160.8890 H   0  0  0  0  0  0  0  0  0  0  0  0
  151.3126  143.4422  161.3831 H   0  0  0  0  0  0  0  0  0  0  0  0
  151.7462  145.1118  161.0422 H   0  0  0  0  0  0  0  0  0  0  0  0
  152.7324  142.1402  158.8710 H   0  0  0  0  0  0  0  0  0  0  0  0
  151.1428  141.7636  159.5174 H   0  0  0  0  0  0  0  0  0  0  0  0
  152.3453  140.7339  156.8207 H   0  0  0  0  0  0  0  0  0  0  0  0
  150.8367  138.9233  157.6626 H   0  0  0  0  0  0  0  0  0  0  0  0
  149.7232  140.1459  158.2774 H   0  0  0  0  0  0  0  0  0  0  0  0
  151.3479  140.0206  158.9386 H   0  0  0  0  0  0  0  0  0  0  0  0
  148.7433  141.3461  156.5400 H   0  0  0  0  0  0  0  0  0  0  0  0
  148.7533  141.4294  153.6297 H   0  0  0  0  0  0  0  0  0  0  0  0
  147.9927  139.9972  154.3125 H   0  0  0  0  0  0  0  0  0  0  0  0
  147.0292  142.9597  152.8582 H   0  0  0  0  0  0  0  0  0  0  0  0
  144.9123  144.1512  153.3061 H   0  0  0  0  0  0  0  0  0  0  0  0
  141.9022  142.4880  154.8973 H   0  0  0  0  0  0  0  0  0  0  0  0
  142.4849  142.2058  156.5243 H   0  0  0  0  0  0  0  0  0  0  0  0
  140.1885  143.1973  156.5333 H   0  0  0  0  0  0  0  0  0  0  0  0
  141.3336  144.2304  157.3659 H   0  0  0  0  0  0  0  0  0  0  0  0
  141.5327  146.5743  154.6352 H   0  0  0  0  0  0  0  0  0  0  0  0
  142.1280  146.2218  156.2458 H   0  0  0  0  0  0  0  0  0  0  0  0
  143.8792  145.6663  154.5859 H   0  0  0  0  0  0  0  0  0  0  0  0
  142.7615  144.6601  153.6739 H   0  0  0  0  0  0  0  0  0  0  0  0
  146.4935  140.8880  156.6138 H   0  0  0  0  0  0  0  0  0  0  0  0
  1  2  1  0  0  0  0
  1 24  1  0  0  0  0
  1 25  1  0  0  0  0
  1 26  1  0  0  0  0
  2  3  1  0  0  0  0
  2  4  1  0  0  0  0
  2 27  1  0  0  0  0
  3 28  1  0  0  0  0
  3 29  1  0  0  0  0
  3 30  1  0  0  0  0
  4  5  1  0  0  0  0
  4 31  1  0  0  0  0
  4 32  1  0  0  0  0
  5  6  1  0  0  0  0
  6  7  1  0  0  0  0
  6  8  1  0  0  0  0
  6 33  1  0  0  0  0
  7 34  1  0  0  0  0
  7 35  1  0  0  0  0
  7 36  1  0  0  0  0
  8  9  2  0  0  0  0
  8 10  1  0  0  0  0
 10 11  1  0  0  0  0
 10 37  1  0  0  0  0
 11 12  1  0  0  0  0
 11 38  1  0  0  0  0
 11 39  1  0  0  0  0
 12 23  1  0  0  0  0
 12 13  2  0  0  0  0
 13 14  1  0  0  0  0
 13 40  1  0  0  0  0
 14 15  2  0  0  0  0
 14 41  1  0  0  0  0
 15 16  1  0  0  0  0
 15 22  1  0  0  0  0
 16 21  1  0  0  0  0
 16 17  1  0  0  0  0
 17 18  1  0  0  0  0
 17 42  1  0  0  0  0
 17 43  1  0  0  0  0
 18 19  1  0  0  0  0
 18 44  1  0  0  0  0
 18 45  1  0  0  0  0
 19 20  1  0  0  0  0
 20 21  1  0  0  0  0
 20 46  1  0  0  0  0
 20 47  1  0  0  0  0
 21 48  1  0  0  0  0
 21 49  1  0  0  0  0
 22 23  2  0  0  0  0
 23 50  1  0  0  0  0
M  END
> <s_m_source_file>
AV-unprocessed.smi

> <i_m_source_file_index>
831

> <i_lp_mmshare_version>
43012

> <i_f3d_flags>
0

> <s_epik_input>
W0NIM11bQ0hdKFtDSDNdKVtDSDJdT1tDQEhdKFtDSDNdKUMoPU8pW05IXVtDSDJdYzFbY0hdW2NIXWMobltjSF0xKU4yW0NIMl1bQ0gyXU9bQ0gyXVtDSDJdMg==

> <s_epik_cmdline>
J2VwaWtfcHl0aG9uJywgJy1waCcsICc3LjAnLCAnLXRuJywgJzgnLCAnLW1hJywgJzIwMCcsICctbWV0YWxfYmluZGluZycsICctaW1hZScsICc8aW5maWxlLm1hZT4nLCAnLW9tYWUnLCAnPG91dGZpbGUubWFlPic=

> <r_lp_tautomer_probability>
1

> <r_epik_Ionization_Penalty>
0.00456501

> <r_epik_Ionization_Penalty_Charging>
0

> <r_epik_Ionization_Penalty_Neutral>
0.00456501

> <r_epik_State_Penalty>
0.00329791

> <r_epik_Charging_Adjusted_Penalty>
0.00329791

> <i_epik_Tot_Q>
0

> <i_epik_Tot_abs_Q>
0

> <r_epik_Metal_State_Penalty>
-0

> <b_epik_Metal_Only>
0

> <s_lp_Force_Field>
OPLS_2005

> <r_lp_Energy>
24.1479

> <b_lp_Chiralities_Consistent>
1

> <s_lp_Variant>
AV-unprocessed.smi:831-2

> <Gold.Version>
5.8.1

> <Gold.Id.Protein>
6NUR|6NUR_protein|mol2

> <Gold.PLP.Fitness>
46.5410

> <Gold.PLP.PLP>
-44.0850

> <Gold.PLP.part.hbond>
-0.9801

> <Gold.PLP.part.metal>
0.0000

> <Gold.PLP.part.buried>
-8.1363

> <Gold.PLP.part.nonpolar>
-35.6097

> <Gold.PLP.part.repulsive>
0.4549

> <Gold.PLP.ligand.clash>
0.0000

> <Gold.PLP.ligand.torsion>
0.4607

> <Gold.PLP.Chemscore.Hbond>
1.0000

> <Gold.PLP.Chemscore.CHOScore>
0.0000

> <Gold.PLP.Chemscore.Metal>
0.0000

> <Gold.Chemscore.Hbonds>
donor molecule, donor type, donor heavy atom, donor atom, acceptor molecule, acceptor atom, score
      P1  H  7989  7998       L1     9  0.47

> <Gold.PLP.Chemscore.Internal.Correction>
0.3773

> <Gold.Rescore>
     Score         DG    S(hbond)    S(metal)    S(lipo)     H(rot)  DE(clash)    DE(int)     intcor
     15.92     -16.33       1.00        0.00     106.14       1.92       0.00       0.41       ----

> <Gold.Chemscore.Fitness>
15.9150

> <Gold.Chemscore.DG>
-16.3308

> <Gold.Chemscore.ZeroCoef>
-5.4800

> <Gold.Chemscore.Hbond>
0.9991

> <Gold.Chemscore.Metal>
0.0000

> <Gold.Chemscore.Lipo>
106.1406

> <Gold.Chemscore.Internal_Hbond>
0.0000

> <Gold.Chemscore.DEClash>
0.0009

> <Gold.Chemscore.DEInternal>
0.4149

> <Gold.Chemscore.Rot>
1.9159

> <Gold.Chemscore.Internal.Correction>
   9.000000E+99

> <Gold.Chemscore.Hbonds>
donor molecule, donor type, donor heavy atom, donor atom, acceptor molecule, acceptor atom, score
      P1  H  7989  7998       L1     9  0.47

> <Gold.Chemscore.Hbond.Weighted>
-3.3371

> <Gold.Chemscore.Metal.Weighted>
-0.0000

> <Gold.Chemscore.Lipo.Weighted>
-12.4185

> <Gold.Chemscore.Internal_Hbond.Weighted>
0.0000

> <Gold.Chemscore.DEClash.Weighted>
0.0009

> <Gold.Chemscore.DEInternal.Weighted>
0.4149

> <Gold.Chemscore.Rot.Weighted>
4.9047

> <Gold.Chemscore.Internal.Correction.Weighted>
   9.000000E+99

> <Gold.Protein.RotatedTorsions>
[ 6907 6896 6895 6894 ] final  129.72 input  -60.11 | X-H torsion
[ 7974 7965 7964 7962 ] final   29.09 input  175.53 | X-H torsion
[ 8008 7997 7996 7995 ] final   -6.33 input   59.86 | X-H torsion
[ 10167 10162 10161 10158 ] final   29.54 input  -65.29 | X-H torsion
[ 10718 10713 10712 10709 ] final   87.56 input   66.30 | X-H torsion
[ 10763 10752 10751 10750 ] final  -79.74 input  -60.55 | X-H torsion
[ 11005 11000 10999 10996 ] final  140.82 input  -57.11 | X-H torsion

> <Gold.Protein.ActiveResidues>
 VAL166  LYS551  ARG553  GLY616  TRP617  ASP618  TYR619  PRO620  LYS621  CYS622 
 ASP623  PHE694  ASN695  SER759  ASP760  ASP761  ALA762  ILE779  LEU786  VAL792 
 PHE793  MET794  SER795  GLU796  ALA797  LYS798  CYS799  TRP800  GLU811  SER814 

> <Gold.Protein.RotatedAtoms>
  152.3596  133.6280  159.6004 H   0  0  0  0  0  0  0  0  0  0  0  0  # atno 6907 bound_to 6896
  150.7592  133.9445  159.3475 H   0  0  0  0  0  0  0  0  0  0  0  0  # atno 6908 bound_to 6896
  151.7285  135.0881  160.0347 H   0  0  0  0  0  0  0  0  0  0  0  0  # atno 6909 bound_to 6896
  146.1692  139.6968  142.8980 H   0  0  0  0  0  0  0  0  0  0  0  0  # atno 7974 bound_to 7965
  154.5949  140.2435  155.7871 H   0  0  0  0  0  0  0  0  0  0  0  0  # atno 8008 bound_to 7997
  156.2272  140.2978  156.0050 H   0  0  0  0  0  0  0  0  0  0  0  0  # atno 8009 bound_to 7997
  155.2310  140.0403  157.2952 H   0  0  0  0  0  0  0  0  0  0  0  0  # atno 8010 bound_to 7997
  140.4756  144.0695  150.6250 H   0  0  0  0  0  0  0  0  0  0  0  0  # atno 10167 bound_to 10162
  157.6941  131.0260  150.3141 H   0  0  0  0  0  0  0  0  0  0  0  0  # atno 10718 bound_to 10713
  154.5424  135.5685  153.6851 H   0  0  0  0  0  0  0  0  0  0  0  0  # atno 10763 bound_to 10752
  152.9967  135.6231  154.2484 H   0  0  0  0  0  0  0  0  0  0  0  0  # atno 10764 bound_to 10752
  154.2415  135.2862  155.2831 H   0  0  0  0  0  0  0  0  0  0  0  0  # atno 10765 bound_to 10752
  140.0356  134.9330  157.0746 H   0  0  0  0  0  0  0  0  0  0  0  0  # atno 11005 bound_to 11000
  145.4387  141.0421  143.2870 LP  0  0  0  0  0  0  0  0  0  0  0  0  # atno 17320 bound_to 7965
  144.8137  139.5916  143.7018 LP  0  0  0  0  0  0  0  0  0  0  0  0  # atno 17321 bound_to 7965
  140.3922  143.2746  152.0047 LP  0  0  0  0  0  0  0  0  0  0  0  0  # atno 17342 bound_to 10162
  139.4825  144.6068  151.7507 LP  0  0  0  0  0  0  0  0  0  0  0  0  # atno 17343 bound_to 10162
  156.3638  130.3851  149.7230 LP  0  0  0  0  0  0  0  0  0  0  0  0  # atno 17370 bound_to 10713
  156.4667  130.7977  151.2996 LP  0  0  0  0  0  0  0  0  0  0  0  0  # atno 17371 bound_to 10713
  140.4153  134.1937  155.7163 LP  0  0  0  0  0  0  0  0  0  0  0  0  # atno 17394 bound_to 11000
  141.1855  133.8321  157.1101 LP  0  0  0  0  0  0  0  0  0  0  0  0  # atno 17395 bound_to 11000

$$$$
