AV-unprocessed.smi:2973|AV-procd|sdf|11342|dock1
  -GOLD-   2272016253D 1   1.00000     0.00000
 Structure written by MMmdl.
 50 52  0  0  0  0  0  0  0  0  2 V2000
  152.0392  139.0674  159.1388 C   0  0  0  0  0  0  0  0  0  0  0  0
  151.4827  140.5003  158.9988 C   0  0  1  0  0  0  0  0  0  0  0  0
  152.4383  141.5098  159.6717 C   0  0  0  0  0  0  0  0  0  0  0  0
  151.8916  142.9452  159.6168 C   0  0  0  0  0  0  0  0  0  0  0  0
  151.5957  143.3750  158.1732 C   0  0  0  0  0  0  0  0  0  0  0  0
  150.6319  142.3886  157.4951 C   0  0  0  0  0  0  0  0  0  0  0  0
  151.1665  140.9365  157.5346 C   0  0  1  0  0  0  0  0  0  0  0  0
  152.3118  140.7821  156.6529 N   0  0  0  0  0  0  0  0  0  0  0  0
  152.0754  139.9513  155.6298 C   0  0  0  0  0  0  0  0  0  0  0  0
  152.8788  139.6764  154.7405 O   0  0  0  0  0  0  0  0  0  0  0  0
  150.8180  139.4868  155.7441 N   0  0  0  0  0  0  0  0  0  0  0  0
  150.1816  138.5700  154.7859 C   0  0  0  0  0  0  0  0  0  0  0  0
  148.9837  139.1610  154.0213 C   0  0  0  0  0  0  0  0  0  0  0  0
  148.8010  140.3776  154.0451 O   0  0  0  0  0  0  0  0  0  0  0  0
  148.1802  138.3219  153.3453 N   0  0  0  0  0  0  0  0  0  0  0  0
  147.0212  138.7185  152.5567 C   0  0  0  0  0  0  0  0  0  0  0  0
  145.7281  138.0895  153.1017 C   0  0  0  0  0  0  0  0  0  0  0  0
  145.2872  136.8903  152.2861 C   0  0  0  0  0  0  0  0  0  0  0  0
  143.9530  136.4285  152.2885 C   0  0  0  0  0  0  0  0  0  0  0  0
  143.6095  135.3119  151.4980 C   0  0  0  0  0  0  0  0  0  0  0  0
  144.6055  134.6821  150.7231 C   0  0  0  0  0  0  0  0  0  0  0  0
  145.9221  135.1849  150.7591 C   0  0  0  0  0  0  0  0  0  0  0  0
  146.2118  136.2570  151.5287 N   0  3  0  0  0  0  0  0  0  0  0  0
  150.2026  139.9978  156.8198 C   0  0  0  0  0  0  0  0  0  0  0  0
  149.0479  139.7813  157.1877 O   0  0  0  0  0  0  0  0  0  0  0  0
  152.9870  138.9498  158.6130 H   0  0  0  0  0  0  0  0  0  0  0  0
  151.3461  138.3218  158.7490 H   0  0  0  0  0  0  0  0  0  0  0  0
  152.2145  138.8206  160.1863 H   0  0  0  0  0  0  0  0  0  0  0  0
  150.5457  140.5286  159.5578 H   0  0  0  0  0  0  0  0  0  0  0  0
  152.6027  141.2292  160.7126 H   0  0  0  0  0  0  0  0  0  0  0  0
  153.4158  141.4748  159.1889 H   0  0  0  0  0  0  0  0  0  0  0  0
  150.9799  143.0117  160.2119 H   0  0  0  0  0  0  0  0  0  0  0  0
  152.6067  143.6327  160.0696 H   0  0  0  0  0  0  0  0  0  0  0  0
  151.1664  144.3772  158.1652 H   0  0  0  0  0  0  0  0  0  0  0  0
  152.5264  143.4347  157.6078 H   0  0  0  0  0  0  0  0  0  0  0  0
  149.6661  142.4383  158.0008 H   0  0  0  0  0  0  0  0  0  0  0  0
  150.4506  142.7047  156.4663 H   0  0  0  0  0  0  0  0  0  0  0  0
  153.1845  141.2675  156.8017 H   0  0  0  0  0  0  0  0  0  0  0  0
  150.9166  138.2262  154.0563 H   0  0  0  0  0  0  0  0  0  0  0  0
  149.8470  137.6709  155.3062 H   0  0  0  0  0  0  0  0  0  0  0  0
  148.3946  137.3356  153.3772 H   0  0  0  0  0  0  0  0  0  0  0  0
  146.9478  139.8061  152.5895 H   0  0  0  0  0  0  0  0  0  0  0  0
  147.1725  138.4481  151.5103 H   0  0  0  0  0  0  0  0  0  0  0  0
  145.8646  137.7754  154.1376 H   0  0  0  0  0  0  0  0  0  0  0  0
  144.9279  138.8310  153.1091 H   0  0  0  0  0  0  0  0  0  0  0  0
  143.2007  136.9226  152.8861 H   0  0  0  0  0  0  0  0  0  0  0  0
  142.5939  134.9438  151.4851 H   0  0  0  0  0  0  0  0  0  0  0  0
  144.3624  133.8262  150.1106 H   0  0  0  0  0  0  0  0  0  0  0  0
  146.7455  134.7666  150.1987 H   0  0  0  0  0  0  0  0  0  0  0  0
  147.1708  136.6054  151.5385 H   0  0  0  0  0  0  0  0  0  0  0  0
  1  2  1  0  0  0  0
  1 26  1  0  0  0  0
  1 27  1  0  0  0  0
  1 28  1  0  0  0  0
  2  7  1  0  0  0  0
  2  3  1  0  0  0  0
  2 29  1  0  0  0  0
  3  4  1  0  0  0  0
  3 30  1  0  0  0  0
  3 31  1  0  0  0  0
  4  5  1  0  0  0  0
  4 32  1  0  0  0  0
  4 33  1  0  0  0  0
  5  6  1  0  0  0  0
  5 34  1  0  0  0  0
  5 35  1  0  0  0  0
  6  7  1  0  0  0  0
  6 36  1  0  0  0  0
  6 37  1  0  0  0  0
  7 24  1  0  0  0  0
  7  8  1  0  0  0  0
  8  9  1  0  0  0  0
  8 38  1  0  0  0  0
  9 10  2  0  0  0  0
  9 11  1  0  0  0  0
 11 12  1  0  0  0  0
 11 24  1  0  0  0  0
 12 13  1  0  0  0  0
 12 39  1  0  0  0  0
 12 40  1  0  0  0  0
 13 14  2  0  0  0  0
 13 15  1  0  0  0  0
 15 16  1  0  0  0  0
 15 41  1  0  0  0  0
 16 17  1  0  0  0  0
 16 42  1  0  0  0  0
 16 43  1  0  0  0  0
 17 18  1  0  0  0  0
 17 44  1  0  0  0  0
 17 45  1  0  0  0  0
 18 23  1  0  0  0  0
 18 19  2  0  0  0  0
 19 20  1  0  0  0  0
 19 46  1  0  0  0  0
 20 21  2  0  0  0  0
 20 47  1  0  0  0  0
 21 22  1  0  0  0  0
 21 48  1  0  0  0  0
 22 23  2  0  0  0  0
 22 49  1  0  0  0  0
 23 50  1  0  0  0  0
 24 25  2  0  0  0  0
M  CHG  1  23   1
M  END
> <s_m_source_file>
AV-unprocessed.smi

> <i_m_source_file_index>
2973

> <i_lp_mmshare_version>
43012

> <i_f3d_flags>
0

> <s_epik_input>
W0NIMl0xW0NIMl1bQ0gyXVtDSDJdW0NAQEhdKFtDSDNdKVtDQF0xMltOSF1DKD1PKU4oQzI9TylbQ0gyXUMoPU8pW05IXVtDSDJdW0NIMl1jM1tjSF1bY0hdW2NIXVtjSF1uMw==

> <s_epik_cmdline>
J2VwaWtfcHl0aG9uJywgJy1waCcsICc3LjAnLCAnLXRuJywgJzgnLCAnLW1hJywgJzIwMCcsICctbWV0YWxfYmluZGluZycsICctaW1hZScsICc8aW5maWxlLm1hZT4nLCAnLW9tYWUnLCAnPG91dGZpbGUubWFlPic=

> <r_lp_tautomer_probability>
1

> <r_epik_Ionization_Penalty>
1.90043

> <r_epik_Ionization_Penalty_Charging>
1.90039

> <r_epik_Ionization_Penalty_Neutral>
4.65525e-05

> <r_epik_State_Penalty>
2.02162

> <r_epik_Charging_Adjusted_Penalty>
3.922

> <i_epik_Tot_Q>
1

> <i_epik_Tot_abs_Q>
1

> <r_epik_Metal_State_Penalty>
2.06631

> <b_epik_Metal_Only>
0

> <s_lp_Force_Field>
OPLS_2005

> <r_lp_Energy>
28.0299

> <b_lp_Chiralities_Consistent>
1

> <s_lp_Variant>
AV-unprocessed.smi:2973-6

> <Gold.Version>
5.8.1

> <Gold.Id.Protein>
6NUR|6NUR_protein|mol2

> <Gold.PLP.Fitness>
48.7235

> <Gold.PLP.PLP>
-39.9196

> <Gold.PLP.part.hbond>
-4.1342

> <Gold.PLP.part.metal>
0.0000

> <Gold.PLP.part.buried>
-1.3903

> <Gold.PLP.part.nonpolar>
-35.7446

> <Gold.PLP.part.repulsive>
1.2652

> <Gold.PLP.ligand.clash>
0.0000

> <Gold.PLP.ligand.torsion>
0.7800

> <Gold.PLP.Chemscore.Hbond>
3.4267

> <Gold.PLP.Chemscore.CHOScore>
0.0000

> <Gold.PLP.Chemscore.Metal>
0.0000

> <Gold.Chemscore.Hbonds>
donor molecule, donor type, donor heavy atom, donor atom, acceptor molecule, acceptor atom, score
      L1  H    15    41       P1  7948  0.51
      L1  H    23    50       P1  7948  1.89
      P1  H  7989  7998       L1    10  0.11
      P1  H  7997  8008       L1    10  0.90

> <Gold.PLP.Chemscore.Internal.Correction>
0.0837

> <Gold.Rescore>
     Score         DG    S(hbond)    S(metal)    S(lipo)     H(rot)  DE(clash)    DE(int)     intcor
     16.11     -18.36       2.08        0.00      93.80       1.96       1.39       0.85       ----

> <Gold.Chemscore.Fitness>
16.1149

> <Gold.Chemscore.DG>
-18.3624

> <Gold.Chemscore.ZeroCoef>
-5.4800

> <Gold.Chemscore.Hbond>
2.0765

> <Gold.Chemscore.Metal>
0.0000

> <Gold.Chemscore.Lipo>
93.7976

> <Gold.Chemscore.Internal_Hbond>
0.0000

> <Gold.Chemscore.DEClash>
1.3945

> <Gold.Chemscore.DEInternal>
0.8530

> <Gold.Chemscore.Rot>
1.9638

> <Gold.Chemscore.Internal.Correction>
   9.000000E+99

> <Gold.Chemscore.Hbonds>
donor molecule, donor type, donor heavy atom, donor atom, acceptor molecule, acceptor atom, score
      L1  H    15    41       P1  7948  0.49
      L1  H    23    50       P1  7948  0.91
      P1  H  7997  8008       L1    10  0.17

> <Gold.Chemscore.Hbond.Weighted>
-6.9355

> <Gold.Chemscore.Metal.Weighted>
-0.0000

> <Gold.Chemscore.Lipo.Weighted>
-10.9743

> <Gold.Chemscore.Internal_Hbond.Weighted>
0.0000

> <Gold.Chemscore.DEClash.Weighted>
1.3945

> <Gold.Chemscore.DEInternal.Weighted>
0.8530

> <Gold.Chemscore.Rot.Weighted>
5.0274

> <Gold.Chemscore.Internal.Correction.Weighted>
   9.000000E+99

> <Gold.Protein.RotatedTorsions>
[ 6907 6896 6895 6894 ] final -135.06 input  -60.11 | X-H torsion
[ 7974 7965 7964 7962 ] final   72.48 input  175.53 | X-H torsion
[ 8008 7997 7996 7995 ] final   -3.33 input   59.86 | X-H torsion
[ 10167 10162 10161 10158 ] final   96.03 input  -65.29 | X-H torsion
[ 10718 10713 10712 10709 ] final  -34.21 input   66.30 | X-H torsion
[ 10763 10752 10751 10750 ] final  -79.74 input  -60.55 | X-H torsion
[ 11005 11000 10999 10996 ] final  -26.56 input  -57.11 | X-H torsion

> <Gold.Protein.ActiveResidues>
 VAL166  LYS551  ARG553  GLY616  TRP617  ASP618  TYR619  PRO620  LYS621  CYS622 
 ASP623  PHE694  ASN695  SER759  ASP760  ASP761  ALA762  ILE779  LEU786  VAL792 
 PHE793  MET794  SER795  GLU796  ALA797  LYS798  CYS799  TRP800  GLU811  SER814 

> <Gold.Protein.RotatedAtoms>
  150.9933  133.6128  159.2704 H   0  0  0  0  0  0  0  0  0  0  0  0  # atno 6907 bound_to 6896
  151.3340  135.0847  159.9358 H   0  0  0  0  0  0  0  0  0  0  0  0  # atno 6908 bound_to 6896
  152.5252  133.9557  159.7747 H   0  0  0  0  0  0  0  0  0  0  0  0  # atno 6909 bound_to 6896
  145.7529  139.2767  143.1421 H   0  0  0  0  0  0  0  0  0  0  0  0  # atno 7974 bound_to 7965
  154.6261  140.2512  155.7490 H   0  0  0  0  0  0  0  0  0  0  0  0  # atno 8008 bound_to 7997
  156.2454  140.2916  156.0511 H   0  0  0  0  0  0  0  0  0  0  0  0  # atno 8009 bound_to 7997
  155.1819  140.0389  157.2874 H   0  0  0  0  0  0  0  0  0  0  0  0  # atno 8010 bound_to 7997
  139.7933  144.6843  150.9863 H   0  0  0  0  0  0  0  0  0  0  0  0  # atno 10167 bound_to 10162
  156.3533  130.4312  149.7685 H   0  0  0  0  0  0  0  0  0  0  0  0  # atno 10718 bound_to 10713
  154.5425  135.5685  153.6851 H   0  0  0  0  0  0  0  0  0  0  0  0  # atno 10763 bound_to 10752
  152.9967  135.6231  154.2483 H   0  0  0  0  0  0  0  0  0  0  0  0  # atno 10764 bound_to 10752
  154.2415  135.2862  155.2832 H   0  0  0  0  0  0  0  0  0  0  0  0  # atno 10765 bound_to 10752
  140.9040  133.7505  156.0581 H   0  0  0  0  0  0  0  0  0  0  0  0  # atno 11005 bound_to 11000
  146.0339  140.8231  142.9862 LP  0  0  0  0  0  0  0  0  0  0  0  0  # atno 17320 bound_to 7965
  144.6846  140.2810  143.7292 LP  0  0  0  0  0  0  0  0  0  0  0  0  # atno 17321 bound_to 7965
  140.7820  143.4358  151.0626 LP  0  0  0  0  0  0  0  0  0  0  0  0  # atno 17342 bound_to 10162
  139.8033  143.8052  152.3165 LP  0  0  0  0  0  0  0  0  0  0  0  0  # atno 17343 bound_to 10162
  156.4877  130.8070  151.3082 LP  0  0  0  0  0  0  0  0  0  0  0  0  # atno 17370 bound_to 10713
  157.7464  130.9985  150.2856 LP  0  0  0  0  0  0  0  0  0  0  0  0  # atno 17371 bound_to 10713
  140.8194  134.3306  157.5386 LP  0  0  0  0  0  0  0  0  0  0  0  0  # atno 17394 bound_to 11000
  139.8746  134.9301  156.3492 LP  0  0  0  0  0  0  0  0  0  0  0  0  # atno 17395 bound_to 11000

$$$$
