AV-unprocessed.smi:412|AV-procd|sdf|2510|dock6
  -GOLD-   2262022463D 1   1.00000     0.00000
 Structure written by MMmdl.
 36 38  0  0  0  0  0  0  0  0  1 V2000
  153.6043  140.7045  160.3419 C   0  0  0  0  0  0  0  0  0  0  0  0
  152.8089  141.4760  159.3945 N   0  0  0  0  0  0  0  0  0  0  0  0
  152.4047  141.0885  158.1618 C   0  0  0  0  0  0  0  0  0  0  0  0
  152.6425  140.0047  157.6292 O   0  0  0  0  0  0  0  0  0  0  0  0
  151.6912  142.1026  157.6175 N   0  0  0  0  0  0  0  0  0  0  0  0
  151.0547  142.1121  156.3021 C   0  0  0  0  0  0  0  0  0  0  0  0
  150.3595  140.7720  155.9897 C   0  0  2  0  0  0  0  0  0  0  0  0
  151.0964  140.1005  154.9869 O   0  0  0  0  0  0  0  0  0  0  0  0
  148.9173  140.9976  155.5616 C   0  0  0  0  0  0  0  0  0  0  0  0
  147.8610  140.5617  156.3902 C   0  0  0  0  0  0  0  0  0  0  0  0
  146.5226  140.7761  156.0067 C   0  0  0  0  0  0  0  0  0  0  0  0
  146.2330  141.4300  154.7936 C   0  0  0  0  0  0  0  0  0  0  0  0
  147.2823  141.8722  153.9654 C   0  0  0  0  0  0  0  0  0  0  0  0
  148.6205  141.6582  154.3486 C   0  0  0  0  0  0  0  0  0  0  0  0
  151.6311  143.1646  158.5314 C   0  0  0  0  0  0  0  0  0  0  0  0
  151.0090  144.4227  158.4500 C   0  0  0  0  0  0  0  0  0  0  0  0
  151.1377  145.2803  159.5678 C   0  0  0  0  0  0  0  0  0  0  0  0
  151.8672  144.8745  160.7158 C   0  0  0  0  0  0  0  0  0  0  0  0
  152.4822  143.6016  160.7714 C   0  0  0  0  0  0  0  0  0  0  0  0
  152.3369  142.7699  159.6479 C   0  0  0  0  0  0  0  0  0  0  0  0
  153.8195  139.7001  159.9752 H   0  0  0  0  0  0  0  0  0  0  0  0
  153.0738  140.6088  161.2895 H   0  0  0  0  0  0  0  0  0  0  0  0
  154.5543  141.2056  160.5303 H   0  0  0  0  0  0  0  0  0  0  0  0
  150.3128  142.9118  156.3139 H   0  0  0  0  0  0  0  0  0  0  0  0
  151.7638  142.3804  155.5170 H   0  0  0  0  0  0  0  0  0  0  0  0
  150.3578  140.1380  156.8778 H   0  0  0  0  0  0  0  0  0  0  0  0
  151.2396  139.2094  155.2665 H   0  0  0  0  0  0  0  0  0  0  0  0
  148.0731  140.0634  157.3248 H   0  0  0  0  0  0  0  0  0  0  0  0
  145.7179  140.4404  156.6440 H   0  0  0  0  0  0  0  0  0  0  0  0
  145.2066  141.5943  154.4998 H   0  0  0  0  0  0  0  0  0  0  0  0
  147.0611  142.3773  153.0366 H   0  0  0  0  0  0  0  0  0  0  0  0
  149.4191  142.0062  153.7095 H   0  0  0  0  0  0  0  0  0  0  0  0
  150.4542  144.7249  157.5738 H   0  0  0  0  0  0  0  0  0  0  0  0
  150.6746  146.2558  159.5473 H   0  0  0  0  0  0  0  0  0  0  0  0
  151.9533  145.5451  161.5580 H   0  0  0  0  0  0  0  0  0  0  0  0
  153.0377  143.2844  161.6415 H   0  0  0  0  0  0  0  0  0  0  0  0
  1  2  1  0  0  0  0
  1 21  1  0  0  0  0
  1 22  1  0  0  0  0
  1 23  1  0  0  0  0
  2 20  1  0  0  0  0
  2  3  1  0  0  0  0
  3  4  2  0  0  0  0
  3  5  1  0  0  0  0
  5  6  1  0  0  0  0
  5 15  1  0  0  0  0
  6  7  1  0  0  0  0
  6 24  1  0  0  0  0
  6 25  1  0  0  0  0
  7  8  1  0  0  0  0
  7  9  1  0  0  0  0
  7 26  1  0  0  0  0
  8 27  1  0  0  0  0
  9 14  1  0  0  0  0
  9 10  2  0  0  0  0
 10 11  1  0  0  0  0
 10 28  1  0  0  0  0
 11 12  2  0  0  0  0
 11 29  1  0  0  0  0
 12 13  1  0  0  0  0
 12 30  1  0  0  0  0
 13 14  2  0  0  0  0
 13 31  1  0  0  0  0
 14 32  1  0  0  0  0
 15 20  2  0  0  0  0
 15 16  1  0  0  0  0
 16 17  2  0  0  0  0
 16 33  1  0  0  0  0
 17 18  1  0  0  0  0
 17 34  1  0  0  0  0
 18 19  2  0  0  0  0
 18 35  1  0  0  0  0
 19 20  1  0  0  0  0
 19 36  1  0  0  0  0
M  END
> <s_m_source_file>
AV-unprocessed.smi

> <i_m_source_file_index>
412

> <i_lp_mmshare_version>
43012

> <i_f3d_flags>
0

> <s_epik_input>
W2NIXTFbY0hdW2NIXVtjSF1jKGMxMiluKFtDSDNdKWMoPU8pbjJbQ0gyXVtDQEhdKFtPSF0pYzNbY0hdW2NIXVtjSF1bY0hdW2NIXTM=

> <s_epik_cmdline>
J2VwaWtfcHl0aG9uJywgJy1waCcsICc3LjAnLCAnLXRuJywgJzgnLCAnLW1hJywgJzIwMCcsICctbWV0YWxfYmluZGluZycsICctaW1hZScsICc8aW5maWxlLm1hZT4nLCAnLW9tYWUnLCAnPG91dGZpbGUubWFlPic=

> <r_lp_tautomer_probability>
1

> <r_epik_Ionization_Penalty>
1.34619e-06

> <r_epik_Ionization_Penalty_Charging>
2.57375e-09

> <r_epik_Ionization_Penalty_Neutral>
1.34362e-06

> <r_epik_State_Penalty>
-0

> <r_epik_Charging_Adjusted_Penalty>
2.57375e-09

> <i_epik_Tot_Q>
0

> <i_epik_Tot_abs_Q>
0

> <r_epik_Metal_State_Penalty>
-0

> <b_epik_Metal_Only>
0

> <s_lp_Force_Field>
OPLS_2005

> <r_lp_Energy>
43.7895

> <b_lp_Chiralities_Consistent>
1

> <s_lp_Variant>
AV-unprocessed.smi:412-1

> <Gold.Version>
5.8.1

> <Gold.Id.Protein>
6NUR|6NUR_protein|mol2

> <Gold.PLP.Fitness>
50.4435

> <Gold.PLP.PLP>
-46.4846

> <Gold.PLP.part.hbond>
-2.0000

> <Gold.PLP.part.metal>
0.0000

> <Gold.PLP.part.buried>
-6.8093

> <Gold.PLP.part.nonpolar>
-37.5216

> <Gold.PLP.part.repulsive>
0.0000

> <Gold.PLP.ligand.clash>
0.0000

> <Gold.PLP.ligand.torsion>
1.0239

> <Gold.PLP.Chemscore.Hbond>
2.0000

> <Gold.PLP.Chemscore.CHOScore>
0.0000

> <Gold.PLP.Chemscore.Metal>
0.0000

> <Gold.Chemscore.Hbonds>
donor molecule, donor type, donor heavy atom, donor atom, acceptor molecule, acceptor atom, score
      P1  H  7989  7998       L1     8  1.00
      P1  H  7997  8008       L1     4  1.00

> <Gold.PLP.Chemscore.Internal.Correction>
0.0068

> <Gold.Rescore>
     Score         DG    S(hbond)    S(metal)    S(lipo)     H(rot)  DE(clash)    DE(int)     intcor
     19.14     -21.26       1.90        0.00     119.07       1.76       0.21       1.91       ----

> <Gold.Chemscore.Fitness>
19.1368

> <Gold.Chemscore.DG>
-21.2569

> <Gold.Chemscore.ZeroCoef>
-5.4800

> <Gold.Chemscore.Hbond>
1.8980

> <Gold.Chemscore.Metal>
0.0000

> <Gold.Chemscore.Lipo>
119.0735

> <Gold.Chemscore.Internal_Hbond>
0.0000

> <Gold.Chemscore.DEClash>
0.2116

> <Gold.Chemscore.DEInternal>
1.9086

> <Gold.Chemscore.Rot>
1.7555

> <Gold.Chemscore.Internal.Correction>
   9.000000E+99

> <Gold.Chemscore.Hbonds>
donor molecule, donor type, donor heavy atom, donor atom, acceptor molecule, acceptor atom, score
      P1  H  7989  7998       L1     8  0.99
      P1  H  7997  8008       L1     4  0.67

> <Gold.Chemscore.Hbond.Weighted>
-6.3395

> <Gold.Chemscore.Metal.Weighted>
-0.0000

> <Gold.Chemscore.Lipo.Weighted>
-13.9316

> <Gold.Chemscore.Internal_Hbond.Weighted>
0.0000

> <Gold.Chemscore.DEClash.Weighted>
0.2116

> <Gold.Chemscore.DEInternal.Weighted>
1.9086

> <Gold.Chemscore.Rot.Weighted>
4.4942

> <Gold.Chemscore.Internal.Correction.Weighted>
   9.000000E+99

> <Gold.Protein.RotatedTorsions>
[ 6907 6896 6895 6894 ] final  -24.35 input  -60.11 | X-H torsion
[ 7974 7965 7964 7962 ] final  135.49 input  175.53 | X-H torsion
[ 8008 7997 7996 7995 ] final  -67.96 input   59.86 | X-H torsion
[ 10167 10162 10161 10158 ] final  -35.13 input  -65.29 | X-H torsion
[ 10718 10713 10712 10709 ] final   14.03 input   66.30 | X-H torsion
[ 10763 10752 10751 10750 ] final   65.01 input  -60.55 | X-H torsion
[ 11005 11000 10999 10996 ] final   98.96 input  -57.11 | X-H torsion

> <Gold.Protein.ActiveResidues>
 VAL166  LYS551  ARG553  GLY616  TRP617  ASP618  TYR619  PRO620  LYS621  CYS622 
 ASP623  PHE694  ASN695  SER759  ASP760  ASP761  ALA762  ILE779  LEU786  VAL792 
 PHE793  MET794  SER795  GLU796  ALA797  LYS798  CYS799  TRP800  GLU811  SER814 

> <Gold.Protein.RotatedAtoms>
  151.1907  135.0401  159.8831 H   0  0  0  0  0  0  0  0  0  0  0  0  # atno 6907 bound_to 6896
  152.5439  134.0959  159.8307 H   0  0  0  0  0  0  0  0  0  0  0  0  # atno 6908 bound_to 6896
  151.1087  133.5142  159.2639 H   0  0  0  0  0  0  0  0  0  0  0  0  # atno 6909 bound_to 6896
  144.9658  139.4659  143.5457 H   0  0  0  0  0  0  0  0  0  0  0  0  # atno 7974 bound_to 7965
  154.4835  140.0882  156.7432 H   0  0  0  0  0  0  0  0  0  0  0  0  # atno 8008 bound_to 7997
  155.4410  140.3453  155.4271 H   0  0  0  0  0  0  0  0  0  0  0  0  # atno 8009 bound_to 7997
  156.1227  140.1478  156.9170 H   0  0  0  0  0  0  0  0  0  0  0  0  # atno 8010 bound_to 7997
  140.7171  143.3499  151.2178 H   0  0  0  0  0  0  0  0  0  0  0  0  # atno 10167 bound_to 10162
  157.0333  130.6201  149.5739 H   0  0  0  0  0  0  0  0  0  0  0  0  # atno 10718 bound_to 10713
  153.0079  135.5372  154.6600 H   0  0  0  0  0  0  0  0  0  0  0  0  # atno 10763 bound_to 10752
  154.5811  135.2850  155.0733 H   0  0  0  0  0  0  0  0  0  0  0  0  # atno 10764 bound_to 10752
  154.1862  135.6508  153.5100 H   0  0  0  0  0  0  0  0  0  0  0  0  # atno 10765 bound_to 10752
  139.8771  134.9073  156.4534 H   0  0  0  0  0  0  0  0  0  0  0  0  # atno 11005 bound_to 11000
  146.3367  139.8838  142.8820 LP  0  0  0  0  0  0  0  0  0  0  0  0  # atno 17320 bound_to 7965
  145.2632  141.0084  143.3814 LP  0  0  0  0  0  0  0  0  0  0  0  0  # atno 17321 bound_to 7965
  139.7027  143.9506  152.2913 LP  0  0  0  0  0  0  0  0  0  0  0  0  # atno 17342 bound_to 10162
  139.9205  144.6803  150.8467 LP  0  0  0  0  0  0  0  0  0  0  0  0  # atno 17343 bound_to 10162
  156.0062  130.5149  150.7838 LP  0  0  0  0  0  0  0  0  0  0  0  0  # atno 17370 bound_to 10713
  157.5161  131.0928  151.0137 LP  0  0  0  0  0  0  0  0  0  0  0  0  # atno 17371 bound_to 10713
  140.8915  133.7844  155.9577 LP  0  0  0  0  0  0  0  0  0  0  0  0  # atno 17394 bound_to 11000
  140.8748  134.2683  157.5173 LP  0  0  0  0  0  0  0  0  0  0  0  0  # atno 17395 bound_to 11000

$$$$
