AV-unprocessed.smi:765|AV-procd|sdf|3648|dock6
  -GOLD-   22720 1 53D 1   1.00000     0.00000
 Structure written by MMmdl.
 39 40  0  0  0  0  0  0  0  0  1 V2000
  147.8836  138.5922  156.6499 C   0  0  0  0  0  0  0  0  0  0  0  0
  149.0475  139.4443  156.1237 C   0  0  1  0  0  0  0  0  0  0  0  0
  148.5495  140.5457  155.1709 C   0  0  0  0  0  0  0  0  0  0  0  0
  149.7065  141.4135  154.6567 C   0  0  0  0  0  0  0  0  0  0  0  0
  150.5092  142.0135  155.8222 C   0  0  0  0  0  0  0  0  0  0  0  0
  151.0452  140.9255  156.7852 C   0  0  1  0  0  0  0  0  0  0  0  0
  152.0239  140.0582  156.0987 C   0  0  0  0  0  0  0  0  0  0  0  0
  152.7906  139.3795  155.5595 N   0  0  0  0  0  0  0  0  0  0  0  0
  151.6389  141.5591  157.9643 N   0  0  0  0  0  0  0  0  0  0  0  0
  152.2000  140.9426  159.0187 C   0  0  0  0  0  0  0  0  0  0  0  0
  152.2618  139.7181  159.1302 O   0  0  0  0  0  0  0  0  0  0  0  0
  152.7836  141.8609  160.1044 C   0  0  1  0  0  0  0  0  0  0  0  0
  154.2599  141.5490  160.4242 C   0  0  0  0  0  0  0  0  0  0  0  0
  152.5817  143.2596  159.7436 N   0  0  0  0  0  0  0  0  0  0  0  0
  151.8747  144.2209  160.4373 C   0  0  0  0  0  0  0  0  0  0  0  0
  151.9182  145.3724  159.7049 C   0  0  0  0  0  0  0  0  0  0  0  0
  152.6758  145.0130  158.5559 C   0  0  0  0  0  0  0  0  0  0  0  0
  153.0639  143.7488  158.5773 N   0  0  0  0  0  0  0  0  0  0  0  0
  149.8582  140.0667  157.2791 C   0  0  0  0  0  0  0  0  0  0  0  0
  147.1781  139.1943  157.2236 H   0  0  0  0  0  0  0  0  0  0  0  0
  148.2432  137.7930  157.2985 H   0  0  0  0  0  0  0  0  0  0  0  0
  147.3347  138.1285  155.8298 H   0  0  0  0  0  0  0  0  0  0  0  0
  149.7053  138.7814  155.5599 H   0  0  0  0  0  0  0  0  0  0  0  0
  148.0237  140.0998  154.3258 H   0  0  0  0  0  0  0  0  0  0  0  0
  147.8246  141.1779  155.6856 H   0  0  0  0  0  0  0  0  0  0  0  0
  150.3625  140.8153  154.0233 H   0  0  0  0  0  0  0  0  0  0  0  0
  149.3166  142.2132  154.0263 H   0  0  0  0  0  0  0  0  0  0  0  0
  151.3308  142.6066  155.4194 H   0  0  0  0  0  0  0  0  0  0  0  0
  149.8728  142.7097  156.3709 H   0  0  0  0  0  0  0  0  0  0  0  0
  151.6380  142.5686  157.9703 H   0  0  0  0  0  0  0  0  0  0  0  0
  152.2142  141.6801  161.0177 H   0  0  0  0  0  0  0  0  0  0  0  0
  154.3823  140.5136  160.7434 H   0  0  0  0  0  0  0  0  0  0  0  0
  154.6241  142.1840  161.2323 H   0  0  0  0  0  0  0  0  0  0  0  0
  154.9097  141.7072  159.5625 H   0  0  0  0  0  0  0  0  0  0  0  0
  151.4031  144.0076  161.3853 H   0  0  0  0  0  0  0  0  0  0  0  0
  151.4731  146.3251  159.9503 H   0  0  0  0  0  0  0  0  0  0  0  0
  152.9498  145.6271  157.7107 H   0  0  0  0  0  0  0  0  0  0  0  0
  149.1925  140.6786  157.8907 H   0  0  0  0  0  0  0  0  0  0  0  0
  150.2268  139.2749  157.9332 H   0  0  0  0  0  0  0  0  0  0  0  0
  1  2  1  0  0  0  0
  1 20  1  0  0  0  0
  1 21  1  0  0  0  0
  1 22  1  0  0  0  0
  2 19  1  0  0  0  0
  2  3  1  0  0  0  0
  2 23  1  0  0  0  0
  3  4  1  0  0  0  0
  3 24  1  0  0  0  0
  3 25  1  0  0  0  0
  4  5  1  0  0  0  0
  4 26  1  0  0  0  0
  4 27  1  0  0  0  0
  5  6  1  0  0  0  0
  5 28  1  0  0  0  0
  5 29  1  0  0  0  0
  6  7  1  0  0  0  0
  6  9  1  0  0  0  0
  6 19  1  0  0  0  0
  7  8  3  0  0  0  0
  9 10  1  0  0  0  0
  9 30  1  0  0  0  0
 10 11  2  0  0  0  0
 10 12  1  0  0  0  0
 12 13  1  0  0  0  0
 12 14  1  0  0  0  0
 12 31  1  0  0  0  0
 13 32  1  0  0  0  0
 13 33  1  0  0  0  0
 13 34  1  0  0  0  0
 14 18  1  0  0  0  0
 14 15  1  0  0  0  0
 15 16  2  0  0  0  0
 15 35  1  0  0  0  0
 16 17  1  0  0  0  0
 16 36  1  0  0  0  0
 17 18  2  0  0  0  0
 17 37  1  0  0  0  0
 19 38  1  0  0  0  0
 19 39  1  0  0  0  0
M  END
> <s_m_source_file>
AV-unprocessed.smi

> <i_m_source_file_index>
765

> <i_lp_mmshare_version>
43012

> <i_f3d_flags>
0

> <s_epik_input>
W0NIM11bQ0BASF0oW0NIMl0xKVtDSDJdW0NIMl1bQ0gyXVtDQEBdMShDI04pW05IXUMoPU8pW0NASF0oW0NIM10pbjJbY0hdW2NIXVtjSF1uMg==

> <s_epik_cmdline>
J2VwaWtfcHl0aG9uJywgJy1waCcsICc3LjAnLCAnLXRuJywgJzgnLCAnLW1hJywgJzIwMCcsICctbWV0YWxfYmluZGluZycsICctaW1hZScsICc8aW5maWxlLm1hZT4nLCAnLW9tYWUnLCAnPG91dGZpbGUubWFlPic=

> <r_lp_tautomer_probability>
1

> <r_epik_Ionization_Penalty>
2.71142e-05

> <r_epik_Ionization_Penalty_Charging>
0

> <r_epik_Ionization_Penalty_Neutral>
2.71142e-05

> <r_epik_State_Penalty>
-0

> <r_epik_Charging_Adjusted_Penalty>
0

> <i_epik_Tot_Q>
0

> <i_epik_Tot_abs_Q>
0

> <r_epik_Metal_State_Penalty>
-0

> <b_epik_Metal_Only>
0

> <s_lp_Force_Field>
OPLS_2005

> <r_lp_Energy>
11.5189

> <b_lp_Chiralities_Consistent>
1

> <s_lp_Variant>
AV-unprocessed.smi:765-6

> <Gold.Version>
5.8.1

> <Gold.Id.Protein>
6NUR|6NUR_protein|mol2

> <Gold.PLP.Fitness>
43.5604

> <Gold.PLP.PLP>
-40.6666

> <Gold.PLP.part.hbond>
-1.0000

> <Gold.PLP.part.metal>
0.0000

> <Gold.PLP.part.buried>
-5.6109

> <Gold.PLP.part.nonpolar>
-33.8620

> <Gold.PLP.part.repulsive>
0.0728

> <Gold.PLP.ligand.clash>
0.0000

> <Gold.PLP.ligand.torsion>
0.1035

> <Gold.PLP.Chemscore.Hbond>
1.0000

> <Gold.PLP.Chemscore.CHOScore>
0.0000

> <Gold.PLP.Chemscore.Metal>
0.0000

> <Gold.Chemscore.Hbonds>
donor molecule, donor type, donor heavy atom, donor atom, acceptor molecule, acceptor atom, score
      P1  H  7997  8010       L1     8  1.00

> <Gold.PLP.Chemscore.Internal.Correction>
0.1008

> <Gold.Rescore>
     Score         DG    S(hbond)    S(metal)    S(lipo)     H(rot)  DE(clash)    DE(int)     intcor
     11.60     -14.96       0.82        0.00      88.66       1.42       0.03       3.33       ----

> <Gold.Chemscore.Fitness>
11.6016

> <Gold.Chemscore.DG>
-14.9606

> <Gold.Chemscore.ZeroCoef>
-5.4800

> <Gold.Chemscore.Hbond>
0.8197

> <Gold.Chemscore.Metal>
0.0000

> <Gold.Chemscore.Lipo>
88.6637

> <Gold.Chemscore.Internal_Hbond>
0.0000

> <Gold.Chemscore.DEClash>
0.0310

> <Gold.Chemscore.DEInternal>
3.3281

> <Gold.Chemscore.Rot>
1.4183

> <Gold.Chemscore.Internal.Correction>
   9.000000E+99

> <Gold.Chemscore.Hbonds>
donor molecule, donor type, donor heavy atom, donor atom, acceptor molecule, acceptor atom, score
      P1  H  7997  8010       L1     8  0.35

> <Gold.Chemscore.Hbond.Weighted>
-2.7379

> <Gold.Chemscore.Metal.Weighted>
-0.0000

> <Gold.Chemscore.Lipo.Weighted>
-10.3737

> <Gold.Chemscore.Internal_Hbond.Weighted>
0.0000

> <Gold.Chemscore.DEClash.Weighted>
0.0310

> <Gold.Chemscore.DEInternal.Weighted>
3.3281

> <Gold.Chemscore.Rot.Weighted>
3.6309

> <Gold.Chemscore.Internal.Correction.Weighted>
   9.000000E+99

> <Gold.Protein.RotatedTorsions>
[ 6907 6896 6895 6894 ] final  -94.49 input  -60.11 | X-H torsion
[ 7974 7965 7964 7962 ] final    9.40 input  175.53 | X-H torsion
[ 8008 7997 7996 7995 ] final   97.06 input   59.86 | X-H torsion
[ 10167 10162 10161 10158 ] final  146.50 input  -65.29 | X-H torsion
[ 10718 10713 10712 10709 ] final -158.09 input   66.30 | X-H torsion
[ 10763 10752 10751 10750 ] final  -84.00 input  -60.55 | X-H torsion
[ 11005 11000 10999 10996 ] final  121.04 input  -57.11 | X-H torsion

> <Gold.Protein.ActiveResidues>
 VAL166  LYS551  ARG553  GLY616  TRP617  ASP618  TYR619  PRO620  LYS621  CYS622 
 ASP623  PHE694  ASN695  SER759  ASP760  ASP761  ALA762  ILE779  LEU786  VAL792 
 PHE793  MET794  SER795  GLU796  ALA797  LYS798  CYS799  TRP800  GLU811  SER814 

> <Gold.Protein.RotatedAtoms>
  150.6943  134.1805  159.4246 H   0  0  0  0  0  0  0  0  0  0  0  0  # atno 6907 bound_to 6896
  151.9779  135.0041  160.0565 H   0  0  0  0  0  0  0  0  0  0  0  0  # atno 6908 bound_to 6896
  152.1781  133.4654  159.4981 H   0  0  0  0  0  0  0  0  0  0  0  0  # atno 6909 bound_to 6896
  146.2404  139.9789  142.8438 H   0  0  0  0  0  0  0  0  0  0  0  0  # atno 7974 bound_to 7965
  156.0862  140.3264  155.7756 H   0  0  0  0  0  0  0  0  0  0  0  0  # atno 8008 bound_to 7997
  155.5072  140.0574  157.2947 H   0  0  0  0  0  0  0  0  0  0  0  0  # atno 8009 bound_to 7997
  154.4610  140.1967  156.0260 H   0  0  0  0  0  0  0  0  0  0  0  0  # atno 8010 bound_to 7997
  139.4906  144.5825  151.6844 H   0  0  0  0  0  0  0  0  0  0  0  0  # atno 10167 bound_to 10162
  156.5493  130.8598  151.2774 H   0  0  0  0  0  0  0  0  0  0  0  0  # atno 10718 bound_to 10713
  154.5944  135.5536  153.7311 H   0  0  0  0  0  0  0  0  0  0  0  0  # atno 10763 bound_to 10752
  153.0129  135.6351  154.1803 H   0  0  0  0  0  0  0  0  0  0  0  0  # atno 10764 bound_to 10752
  154.1744  135.2890  155.3051 H   0  0  0  0  0  0  0  0  0  0  0  0  # atno 10765 bound_to 10752
  139.9209  134.9637  156.7898 H   0  0  0  0  0  0  0  0  0  0  0  0  # atno 11005 bound_to 11000
  145.1610  140.9673  143.4377 LP  0  0  0  0  0  0  0  0  0  0  0  0  # atno 17320 bound_to 7965
  145.0116  139.3505  143.6117 LP  0  0  0  0  0  0  0  0  0  0  0  0  # atno 17321 bound_to 7965
  140.5434  144.0543  150.6097 LP  0  0  0  0  0  0  0  0  0  0  0  0  # atno 17342 bound_to 10162
  140.3573  143.2928  152.0422 LP  0  0  0  0  0  0  0  0  0  0  0  0  # atno 17343 bound_to 10162
  157.7390  130.9824  150.2290 LP  0  0  0  0  0  0  0  0  0  0  0  0  # atno 17370 bound_to 10713
  156.2899  130.3744  149.7852 LP  0  0  0  0  0  0  0  0  0  0  0  0  # atno 17371 bound_to 10713
  140.6476  133.9761  155.7739 LP  0  0  0  0  0  0  0  0  0  0  0  0  # atno 17394 bound_to 11000
  141.0729  134.0178  157.3499 LP  0  0  0  0  0  0  0  0  0  0  0  0  # atno 17395 bound_to 11000

$$$$
