AV-unprocessed.smi:3116|AV-procd|sdf|11877|dock4
  -GOLD-   2272017263D 1   1.00000     0.00000
 Structure written by MMmdl.
 33 33  0  0  0  0  0  0  0  0  1 V2000
  146.7985  142.9845  157.3387 C   0  0  0  0  0  0  0  0  0  0  0  0
  147.6874  142.9185  158.5913 C   0  0  1  0  0  0  0  0  0  0  0  0
  149.0346  143.4271  158.2638 N   0  0  0  0  0  0  0  0  0  0  0  0
  150.1831  142.6008  158.6464 C   0  0  1  0  0  0  0  0  0  0  0  0
  150.6442  141.7753  157.4253 C   0  0  0  0  0  0  0  0  0  0  0  0
  151.2822  143.5503  159.1979 C   0  0  1  0  0  0  0  0  0  0  0  0
  150.6970  144.6901  160.0557 C   0  0  0  0  0  0  0  0  0  0  0  0
  152.3081  142.8354  159.9486 N   0  0  0  0  0  0  0  0  0  0  0  0
  152.5962  142.9255  161.2950 C   0  0  0  0  0  0  0  0  0  0  0  0
  153.6381  142.0804  161.5487 C   0  0  0  0  0  0  0  0  0  0  0  0
  153.9247  141.5073  160.2786 C   0  0  0  0  0  0  0  0  0  0  0  0
  153.1299  141.9612  159.3234 N   0  0  0  0  0  0  0  0  0  0  0  0
  147.0170  143.6566  159.7618 C   0  0  0  0  0  0  0  0  0  0  0  0
  146.7730  144.9595  159.6001 N   0  0  0  0  0  0  0  0  0  0  0  0
  146.7052  143.0552  160.7880 O   0  0  0  0  0  0  0  0  0  0  0  0
  145.7961  142.6059  157.5427 H   0  0  0  0  0  0  0  0  0  0  0  0
  147.2153  142.3805  156.5322 H   0  0  0  0  0  0  0  0  0  0  0  0
  146.6995  144.0058  156.9680 H   0  0  0  0  0  0  0  0  0  0  0  0
  147.7733  141.8646  158.8576 H   0  0  0  0  0  0  0  0  0  0  0  0
  149.1108  143.6907  157.2921 H   0  0  0  0  0  0  0  0  0  0  0  0
  149.9178  141.9106  159.4471 H   0  0  0  0  0  0  0  0  0  0  0  0
  151.4897  141.1324  157.6692 H   0  0  0  0  0  0  0  0  0  0  0  0
  150.9476  142.4215  156.6011 H   0  0  0  0  0  0  0  0  0  0  0  0
  149.8583  141.1151  157.0601 H   0  0  0  0  0  0  0  0  0  0  0  0
  151.7912  144.0087  158.3481 H   0  0  0  0  0  0  0  0  0  0  0  0
  150.0194  145.3182  159.4773 H   0  0  0  0  0  0  0  0  0  0  0  0
  151.4872  145.3350  160.4407 H   0  0  0  0  0  0  0  0  0  0  0  0
  150.1382  144.3032  160.9085 H   0  0  0  0  0  0  0  0  0  0  0  0
  152.0426  143.5782  161.9538 H   0  0  0  0  0  0  0  0  0  0  0  0
  154.1215  141.8994  162.4971 H   0  0  0  0  0  0  0  0  0  0  0  0
  154.6818  140.7805  160.0241 H   0  0  0  0  0  0  0  0  0  0  0  0
  146.3374  145.4867  160.3426 H   0  0  0  0  0  0  0  0  0  0  0  0
  147.0291  145.4128  158.7352 H   0  0  0  0  0  0  0  0  0  0  0  0
  1  2  1  0  0  0  0
  1 16  1  0  0  0  0
  1 17  1  0  0  0  0
  1 18  1  0  0  0  0
  2  3  1  0  0  0  0
  2 13  1  0  0  0  0
  2 19  1  0  0  0  0
  3  4  1  0  0  0  0
  3 20  1  0  0  0  0
  4  5  1  0  0  0  0
  4  6  1  0  0  0  0
  4 21  1  0  0  0  0
  5 22  1  0  0  0  0
  5 23  1  0  0  0  0
  5 24  1  0  0  0  0
  6  7  1  0  0  0  0
  6  8  1  0  0  0  0
  6 25  1  0  0  0  0
  7 26  1  0  0  0  0
  7 27  1  0  0  0  0
  7 28  1  0  0  0  0
  8 12  1  0  0  0  0
  8  9  1  0  0  0  0
  9 10  2  0  0  0  0
  9 29  1  0  0  0  0
 10 11  1  0  0  0  0
 10 30  1  0  0  0  0
 11 12  2  0  0  0  0
 11 31  1  0  0  0  0
 13 14  1  0  0  0  0
 13 15  2  0  0  0  0
 14 32  1  0  0  0  0
 14 33  1  0  0  0  0
M  END
> <s_m_source_file>
AV-unprocessed.smi

> <i_m_source_file_index>
3116

> <i_lp_mmshare_version>
43012

> <i_f3d_flags>
0

> <s_epik_input>
W05IMl1DKD1PKVtDQEhdKFtDSDNdKVtOSF1bQ0BIXShbQ0gzXSlbQ0BIXShbQ0gzXSluMVtjSF1bY0hdW2NIXW4x

> <s_epik_cmdline>
J2VwaWtfcHl0aG9uJywgJy1waCcsICc3LjAnLCAnLXRuJywgJzgnLCAnLW1hJywgJzIwMCcsICctbWV0YWxfYmluZGluZycsICctaW1hZScsICc8aW5maWxlLm1hZT4nLCAnLW9tYWUnLCAnPG91dGZpbGUubWFlPic=

> <r_lp_tautomer_probability>
1

> <r_epik_Ionization_Penalty>
0.865977

> <r_epik_Ionization_Penalty_Charging>
0

> <r_epik_Ionization_Penalty_Neutral>
0.865977

> <r_epik_State_Penalty>
0.901888

> <r_epik_Charging_Adjusted_Penalty>
0.901888

> <i_epik_Tot_Q>
0

> <i_epik_Tot_abs_Q>
0

> <r_epik_Metal_State_Penalty>
0.901181

> <b_epik_Metal_Only>
0

> <s_lp_Force_Field>
OPLS_2005

> <r_lp_Energy>
8.45698

> <b_lp_Chiralities_Consistent>
1

> <s_lp_Variant>
AV-unprocessed.smi:3116-16

> <Gold.Version>
5.8.1

> <Gold.Id.Protein>
6NUR|6NUR_protein|mol2

> <Gold.PLP.Fitness>
39.7059

> <Gold.PLP.PLP>
-31.6571

> <Gold.PLP.part.hbond>
-5.0000

> <Gold.PLP.part.metal>
0.0000

> <Gold.PLP.part.buried>
-4.4507

> <Gold.PLP.part.nonpolar>
-22.8149

> <Gold.PLP.part.repulsive>
0.0504

> <Gold.PLP.ligand.clash>
0.0000

> <Gold.PLP.ligand.torsion>
1.7171

> <Gold.PLP.Chemscore.Hbond>
3.8012

> <Gold.PLP.Chemscore.CHOScore>
0.0000

> <Gold.PLP.Chemscore.Metal>
0.0000

> <Gold.Chemscore.Hbonds>
donor molecule, donor type, donor heavy atom, donor atom, acceptor molecule, acceptor atom, score
      L1  H     3    20       P1  8028  1.00
      L1  H    14    33       P1  8029  1.00
      P1  H  6933  6944       L1    15  1.00
      P1  H  6934  6946       L1    15  0.51

> <Gold.PLP.Chemscore.Internal.Correction>
0.0794

> <Gold.Rescore>
     Score         DG    S(hbond)    S(metal)    S(lipo)     H(rot)  DE(clash)    DE(int)     intcor
     16.37     -18.26       3.20        0.00      70.13       2.38       0.16       1.74       ----

> <Gold.Chemscore.Fitness>
16.3653

> <Gold.Chemscore.DG>
-18.2622

> <Gold.Chemscore.ZeroCoef>
-5.4800

> <Gold.Chemscore.Hbond>
3.1974

> <Gold.Chemscore.Metal>
0.0000

> <Gold.Chemscore.Lipo>
70.1263

> <Gold.Chemscore.Internal_Hbond>
0.0000

> <Gold.Chemscore.DEClash>
0.1591

> <Gold.Chemscore.DEInternal>
1.7378

> <Gold.Chemscore.Rot>
2.3836

> <Gold.Chemscore.Internal.Correction>
   9.000000E+99

> <Gold.Chemscore.Hbonds>
donor molecule, donor type, donor heavy atom, donor atom, acceptor molecule, acceptor atom, score
      L1  H     3    20       P1  8028  0.34
      L1  H    14    33       P1  8029  1.00
      P1  H  6933  6944       L1    15  0.35
      P1  H  6934  6946       L1    15  0.47

> <Gold.Chemscore.Hbond.Weighted>
-10.6794

> <Gold.Chemscore.Metal.Weighted>
-0.0000

> <Gold.Chemscore.Lipo.Weighted>
-8.2048

> <Gold.Chemscore.Internal_Hbond.Weighted>
0.0000

> <Gold.Chemscore.DEClash.Weighted>
0.1591

> <Gold.Chemscore.DEInternal.Weighted>
1.7378

> <Gold.Chemscore.Rot.Weighted>
6.1020

> <Gold.Chemscore.Internal.Correction.Weighted>
   9.000000E+99

> <Gold.Protein.RotatedTorsions>
[ 6907 6896 6895 6894 ] final  -93.62 input  -60.11 | X-H torsion
[ 7974 7965 7964 7962 ] final  165.78 input  175.53 | X-H torsion
[ 8008 7997 7996 7995 ] final  -70.43 input   59.86 | X-H torsion
[ 10167 10162 10161 10158 ] final -145.97 input  -65.29 | X-H torsion
[ 10718 10713 10712 10709 ] final -141.46 input   66.30 | X-H torsion
[ 10763 10752 10751 10750 ] final   96.13 input  -60.55 | X-H torsion
[ 11005 11000 10999 10996 ] final  -30.76 input  -57.11 | X-H torsion

> <Gold.Protein.ActiveResidues>
 VAL166  LYS551  ARG553  GLY616  TRP617  ASP618  TYR619  PRO620  LYS621  CYS622 
 ASP623  PHE694  ASN695  SER759  ASP760  ASP761  ALA762  ILE779  LEU786  VAL792 
 PHE793  MET794  SER795  GLU796  ALA797  LYS798  CYS799  TRP800  GLU811  SER814 

> <Gold.Protein.RotatedAtoms>
  150.6926  134.1939  159.4295 H   0  0  0  0  0  0  0  0  0  0  0  0  # atno 6907 bound_to 6896
  151.9909  134.9977  160.0570 H   0  0  0  0  0  0  0  0  0  0  0  0  # atno 6908 bound_to 6896
  152.1668  133.4582  159.4926 H   0  0  0  0  0  0  0  0  0  0  0  0  # atno 6909 bound_to 6896
  144.7489  139.8520  143.6373 H   0  0  0  0  0  0  0  0  0  0  0  0  # atno 7974 bound_to 7965
  154.5011  140.0834  156.7800 H   0  0  0  0  0  0  0  0  0  0  0  0  # atno 8008 bound_to 7997
  155.4001  140.3436  155.4238 H   0  0  0  0  0  0  0  0  0  0  0  0  # atno 8009 bound_to 7997
  156.1457  140.1543  156.8837 H   0  0  0  0  0  0  0  0  0  0  0  0  # atno 8010 bound_to 7997
  139.7756  143.8175  152.2631 H   0  0  0  0  0  0  0  0  0  0  0  0  # atno 10167 bound_to 10162
  156.3343  130.7603  151.1727 H   0  0  0  0  0  0  0  0  0  0  0  0  # atno 10718 bound_to 10713
  153.2613  135.4229  155.0897 H   0  0  0  0  0  0  0  0  0  0  0  0  # atno 10763 bound_to 10752
  154.8421  135.3449  154.6374 H   0  0  0  0  0  0  0  0  0  0  0  0  # atno 10764 bound_to 10752
  153.6794  135.7039  153.5180 H   0  0  0  0  0  0  0  0  0  0  0  0  # atno 10765 bound_to 10752
  140.9410  133.7279  156.1076 H   0  0  0  0  0  0  0  0  0  0  0  0  # atno 11005 bound_to 11000
  146.1409  139.4466  143.0109 LP  0  0  0  0  0  0  0  0  0  0  0  0  # atno 17320 bound_to 7965
  145.7019  141.0133  143.1500 LP  0  0  0  0  0  0  0  0  0  0  0  0  # atno 17321 bound_to 7965
  139.8222  144.7291  150.9558 LP  0  0  0  0  0  0  0  0  0  0  0  0  # atno 17342 bound_to 10162
  140.7816  143.4148  151.0935 LP  0  0  0  0  0  0  0  0  0  0  0  0  # atno 17343 bound_to 10162
  157.7436  131.0472  150.4933 LP  0  0  0  0  0  0  0  0  0  0  0  0  # atno 17370 bound_to 10713
  156.5104  130.4138  149.6304 LP  0  0  0  0  0  0  0  0  0  0  0  0  # atno 17371 bound_to 10713
  140.7734  134.3807  157.5503 LP  0  0  0  0  0  0  0  0  0  0  0  0  # atno 17394 bound_to 11000
  139.8820  134.9036  156.2859 LP  0  0  0  0  0  0  0  0  0  0  0  0  # atno 17395 bound_to 11000

$$$$
