AV-unprocessed.smi:186|AV-procd|sdf|1466|dock2
  -GOLD-   2262019273D 1   1.00000     0.00000
 Structure written by MMmdl.
 48 51  0  0  0  0  0  0  0  0  1 V2000
  151.7398  144.7298  160.7672 C   0  0  0  0  0  0  0  0  0  0  0  0
  152.1686  145.2998  159.5431 O   0  0  0  0  0  0  0  0  0  0  0  0
  151.3074  144.9762  158.4620 C   0  0  0  0  0  0  0  0  0  0  0  0
  151.4352  143.4890  158.1276 C   0  0  0  0  0  0  0  0  0  0  0  0
  152.1074  142.7378  158.8351 O   0  0  0  0  0  0  0  0  0  0  0  0
  150.7800  143.0746  157.0339 N   0  0  0  0  0  0  0  0  0  0  0  0
  150.7758  141.7004  156.5498 C   0  0  0  0  0  0  0  0  0  0  0  0
  149.9706  141.4982  155.2645 C   0  0  0  0  0  0  0  0  0  0  0  0
  149.3901  140.3156  155.8993 N   0  0  0  0  0  0  0  0  0  0  0  0
  149.9966  139.1008  155.4542 C   0  0  0  0  0  0  0  0  0  0  0  0
  151.0484  139.2559  154.6093 N   0  0  0  0  0  0  0  0  0  0  0  0
  151.7100  138.2069  154.1155 C   0  0  0  0  0  0  0  0  0  0  0  0
  151.4929  136.9110  154.3311 N   0  0  0  0  0  0  0  0  0  0  0  0
  150.4408  136.7275  155.1764 C   0  0  0  0  0  0  0  0  0  0  0  0
  149.6476  137.7505  155.7774 C   0  0  0  0  0  0  0  0  0  0  0  0
  148.6786  137.1597  156.5828 N   0  0  0  0  0  0  0  0  0  0  0  0
  148.8830  135.8775  156.4626 C   0  0  0  0  0  0  0  0  0  0  0  0
  149.9195  135.5283  155.6304 N   0  0  0  0  0  0  0  0  0  0  0  0
  150.3651  134.1794  155.3158 C   0  0  0  0  0  0  0  0  0  0  0  0
  149.2709  133.3099  154.6536 C   0  0  1  0  0  0  0  0  0  0  0  0
  148.8570  133.9307  153.4484 O   0  0  0  0  0  0  0  0  0  0  0  0
  149.7118  131.8834  154.3381 C   0  0  0  0  0  0  0  0  0  0  0  0
  148.4232  131.0883  154.4933 C   0  0  0  0  0  0  0  0  0  0  0  0
  147.8196  131.6967  155.6222 O   0  0  0  0  0  0  0  0  0  0  0  0
  148.0301  133.1033  155.5454 C   0  0  0  0  0  0  0  0  0  0  0  0
  149.7246  140.8233  157.2301 C   0  0  0  0  0  0  0  0  0  0  0  0
  152.4295  145.0105  161.5629 H   0  0  0  0  0  0  0  0  0  0  0  0
  151.7187  143.6408  160.7084 H   0  0  0  0  0  0  0  0  0  0  0  0
  150.7459  145.0857  161.0416 H   0  0  0  0  0  0  0  0  0  0  0  0
  150.2720  145.2002  158.7238 H   0  0  0  0  0  0  0  0  0  0  0  0
  151.5678  145.5645  157.5808 H   0  0  0  0  0  0  0  0  0  0  0  0
  150.2517  143.7524  156.5040 H   0  0  0  0  0  0  0  0  0  0  0  0
  151.7636  141.2376  156.5110 H   0  0  0  0  0  0  0  0  0  0  0  0
  149.2189  142.2692  155.0883 H   0  0  0  0  0  0  0  0  0  0  0  0
  150.5748  141.3034  154.3771 H   0  0  0  0  0  0  0  0  0  0  0  0
  152.5302  138.4407  153.4529 H   0  0  0  0  0  0  0  0  0  0  0  0
  148.2773  135.1459  156.9774 H   0  0  0  0  0  0  0  0  0  0  0  0
  151.2343  134.2514  154.6607 H   0  0  0  0  0  0  0  0  0  0  0  0
  150.7162  133.7104  156.2358 H   0  0  0  0  0  0  0  0  0  0  0  0
  149.3776  134.7088  153.3185 H   0  0  0  0  0  0  0  0  0  0  0  0
  150.1751  131.7703  153.3568 H   0  0  0  0  0  0  0  0  0  0  0  0
  150.4261  131.5354  155.0848 H   0  0  0  0  0  0  0  0  0  0  0  0
  147.7790  131.2069  153.6205 H   0  0  0  0  0  0  0  0  0  0  0  0
  148.5990  130.0243  154.6534 H   0  0  0  0  0  0  0  0  0  0  0  0
  148.1724  133.4964  156.5523 H   0  0  0  0  0  0  0  0  0  0  0  0
  147.1418  133.5837  155.1317 H   0  0  0  0  0  0  0  0  0  0  0  0
  150.0963  140.0959  157.9492 H   0  0  0  0  0  0  0  0  0  0  0  0
  148.8928  141.3934  157.6466 H   0  0  0  0  0  0  0  0  0  0  0  0
  1  2  1  0  0  0  0
  1 27  1  0  0  0  0
  1 28  1  0  0  0  0
  1 29  1  0  0  0  0
  2  3  1  0  0  0  0
  3  4  1  0  0  0  0
  3 30  1  0  0  0  0
  3 31  1  0  0  0  0
  4  5  2  0  0  0  0
  4  6  1  0  0  0  0
  6  7  1  0  0  0  0
  6 32  1  0  0  0  0
  7 26  1  0  0  0  0
  7  8  1  0  0  0  0
  7 33  1  0  0  0  0
  8  9  1  0  0  0  0
  8 34  1  0  0  0  0
  8 35  1  0  0  0  0
  9 10  1  0  0  0  0
  9 26  1  0  0  0  0
 10 15  1  0  0  0  0
 10 11  2  0  0  0  0
 11 12  1  0  0  0  0
 12 13  2  0  0  0  0
 12 36  1  0  0  0  0
 13 14  1  0  0  0  0
 14 18  1  0  0  0  0
 14 15  2  0  0  0  0
 15 16  1  0  0  0  0
 16 17  2  0  0  0  0
 17 18  1  0  0  0  0
 17 37  1  0  0  0  0
 18 19  1  0  0  0  0
 19 20  1  0  0  0  0
 19 38  1  0  0  0  0
 19 39  1  0  0  0  0
 20 25  1  0  0  0  0
 20 21  1  0  0  0  0
 20 22  1  0  0  0  0
 21 40  1  0  0  0  0
 22 23  1  0  0  0  0
 22 41  1  0  0  0  0
 22 42  1  0  0  0  0
 23 24  1  0  0  0  0
 23 43  1  0  0  0  0
 23 44  1  0  0  0  0
 24 25  1  0  0  0  0
 25 45  1  0  0  0  0
 25 46  1  0  0  0  0
 26 47  1  0  0  0  0
 26 48  1  0  0  0  0
M  END
> <s_m_source_file>
AV-unprocessed.smi

> <i_m_source_file_index>
186

> <i_lp_mmshare_version>
43012

> <i_f3d_flags>
0

> <s_epik_input>
W0NIM11PW0NIMl1DKD1PKVtOSF1bQ0hdMVtDSDJdTihbQ0gyXTEpYyhuW2NIXW4yKWMoYzIzKW5bY0hdbjNbQ0gyXVtDQEBdNChbT0hdKVtDSDJdW0NIMl1PW0NIMl00

> <s_epik_cmdline>
J2VwaWtfcHl0aG9uJywgJy1waCcsICc3LjAnLCAnLXRuJywgJzgnLCAnLW1hJywgJzIwMCcsICctbWV0YWxfYmluZGluZycsICctaW1hZScsICc8aW5maWxlLm1hZT4nLCAnLW9tYWUnLCAnPG91dGZpbGUubWFlPic=

> <r_lp_tautomer_probability>
1

> <r_epik_Ionization_Penalty>
0.00138671

> <r_epik_Ionization_Penalty_Charging>
0

> <r_epik_Ionization_Penalty_Neutral>
0.00138671

> <r_epik_State_Penalty>
0.000746021

> <r_epik_Charging_Adjusted_Penalty>
0.000746021

> <i_epik_Tot_Q>
0

> <i_epik_Tot_abs_Q>
0

> <r_epik_Metal_State_Penalty>
-0

> <b_epik_Metal_Only>
0

> <s_lp_Force_Field>
OPLS_2005

> <r_lp_Energy>
46.8047

> <b_lp_Chiralities_Consistent>
1

> <s_lp_Variant>
AV-unprocessed.smi:186-1

> <Gold.Version>
5.8.1

> <Gold.Id.Protein>
6NUR|6NUR_protein|mol2

> <Gold.PLP.Fitness>
47.1680

> <Gold.PLP.PLP>
-38.1651

> <Gold.PLP.part.hbond>
-3.9898

> <Gold.PLP.part.metal>
0.0000

> <Gold.PLP.part.buried>
-7.2240

> <Gold.PLP.part.nonpolar>
-27.3677

> <Gold.PLP.part.repulsive>
1.2432

> <Gold.PLP.ligand.clash>
0.0000

> <Gold.PLP.ligand.torsion>
0.5325

> <Gold.PLP.Chemscore.Hbond>
3.1560

> <Gold.PLP.Chemscore.CHOScore>
0.0000

> <Gold.PLP.Chemscore.Metal>
0.0000

> <Gold.Chemscore.Hbonds>
donor molecule, donor type, donor heavy atom, donor atom, acceptor molecule, acceptor atom, score
      L1  H     6    32       P1  8028  1.00
      L1  H    21    40       P1  7948  0.16
      P1  H  7989  7998       L1    11  0.98
      P1  H 10752 10764       L1    13  1.00

> <Gold.PLP.Chemscore.Internal.Correction>
0.6000

> <Gold.Rescore>
     Score         DG    S(hbond)    S(metal)    S(lipo)     H(rot)  DE(clash)    DE(int)     intcor
     10.47     -13.53       2.62        0.00      67.62       3.36       0.36       2.70       ----

> <Gold.Chemscore.Fitness>
10.4733

> <Gold.Chemscore.DG>
-13.5313

> <Gold.Chemscore.ZeroCoef>
-5.4800

> <Gold.Chemscore.Hbond>
2.6188

> <Gold.Chemscore.Metal>
0.0000

> <Gold.Chemscore.Lipo>
67.6170

> <Gold.Chemscore.Internal_Hbond>
0.0000

> <Gold.Chemscore.DEClash>
0.3584

> <Gold.Chemscore.DEInternal>
2.6996

> <Gold.Chemscore.Rot>
3.3620

> <Gold.Chemscore.Internal.Correction>
   9.000000E+99

> <Gold.Chemscore.Hbonds>
donor molecule, donor type, donor heavy atom, donor atom, acceptor molecule, acceptor atom, score
      L1  H     6    32       P1  8028  1.00
      P1  H  7989  7998       L1    11  0.46
      P1  H 10752 10764       L1    13  0.93

> <Gold.Chemscore.Hbond.Weighted>
-8.7468

> <Gold.Chemscore.Metal.Weighted>
-0.0000

> <Gold.Chemscore.Lipo.Weighted>
-7.9112

> <Gold.Chemscore.Internal_Hbond.Weighted>
0.0000

> <Gold.Chemscore.DEClash.Weighted>
0.3584

> <Gold.Chemscore.DEInternal.Weighted>
2.6996

> <Gold.Chemscore.Rot.Weighted>
8.6067

> <Gold.Chemscore.Internal.Correction.Weighted>
   9.000000E+99

> <Gold.Protein.RotatedTorsions>
[ 6907 6896 6895 6894 ] final  -50.71 input  -60.11 | X-H torsion
[ 7974 7965 7964 7962 ] final -129.26 input  175.53 | X-H torsion
[ 8008 7997 7996 7995 ] final -131.62 input   59.86 | X-H torsion
[ 10167 10162 10161 10158 ] final -153.84 input  -65.29 | X-H torsion
[ 10718 10713 10712 10709 ] final  -50.36 input   66.30 | X-H torsion
[ 10763 10752 10751 10750 ] final  -67.34 input  -60.55 | X-H torsion
[ 11005 11000 10999 10996 ] final  -52.39 input  -57.11 | X-H torsion

> <Gold.Protein.ActiveResidues>
 VAL166  LYS551  ARG553  GLY616  TRP617  ASP618  TYR619  PRO620  LYS621  CYS622 
 ASP623  PHE694  ASN695  SER759  ASP760  ASP761  ALA762  ILE779  LEU786  VAL792 
 PHE793  MET794  SER795  GLU796  ALA797  LYS798  CYS799  TRP800  GLU811  SER814 

> <Gold.Protein.RotatedAtoms>
  150.8680  134.8048  159.7133 H   0  0  0  0  0  0  0  0  0  0  0  0  # atno 6907 bound_to 6896
  152.4695  134.4992  159.9729 H   0  0  0  0  0  0  0  0  0  0  0  0  # atno 6908 bound_to 6896
  151.5085  133.3451  159.2916 H   0  0  0  0  0  0  0  0  0  0  0  0  # atno 6909 bound_to 6896
  144.9589  140.7425  143.4741 H   0  0  0  0  0  0  0  0  0  0  0  0  # atno 7974 bound_to 7965
  155.3154  140.0459  157.3037 H   0  0  0  0  0  0  0  0  0  0  0  0  # atno 8008 bound_to 7997
  154.5409  140.2287  155.8608 H   0  0  0  0  0  0  0  0  0  0  0  0  # atno 8009 bound_to 7997
  156.1880  140.3057  155.9283 H   0  0  0  0  0  0  0  0  0  0  0  0  # atno 8010 bound_to 7997
  139.7063  143.9181  152.2450 H   0  0  0  0  0  0  0  0  0  0  0  0  # atno 10167 bound_to 10162
  156.1807  130.4150  149.9510 H   0  0  0  0  0  0  0  0  0  0  0  0  # atno 10718 bound_to 10713
  154.3730  135.6091  153.5750 H   0  0  0  0  0  0  0  0  0  0  0  0  # atno 10763 bound_to 10752
  152.9789  135.5842  154.4499 H   0  0  0  0  0  0  0  0  0  0  0  0  # atno 10764 bound_to 10752
  154.4256  135.2847  155.1924 H   0  0  0  0  0  0  0  0  0  0  0  0  # atno 10765 bound_to 10752
  141.0922  133.6631  156.4017 H   0  0  0  0  0  0  0  0  0  0  0  0  # atno 11005 bound_to 11000
  145.2730  139.1947  143.4831 LP  0  0  0  0  0  0  0  0  0  0  0  0  # atno 17320 bound_to 7965
  146.3346  140.2679  142.8604 LP  0  0  0  0  0  0  0  0  0  0  0  0  # atno 17321 bound_to 7965
  139.9038  144.6896  150.8636 LP  0  0  0  0  0  0  0  0  0  0  0  0  # atno 17342 bound_to 10162
  140.7722  143.3494  151.2045 LP  0  0  0  0  0  0  0  0  0  0  0  0  # atno 17343 bound_to 10162
  156.7282  130.9033  151.3623 LP  0  0  0  0  0  0  0  0  0  0  0  0  # atno 17370 bound_to 10713
  157.6866  130.9192  150.0403 LP  0  0  0  0  0  0  0  0  0  0  0  0  # atno 17371 bound_to 10713
  140.5226  134.6290  157.5323 LP  0  0  0  0  0  0  0  0  0  0  0  0  # atno 17394 bound_to 11000
  139.9750  134.7230  155.9968 LP  0  0  0  0  0  0  0  0  0  0  0  0  # atno 17395 bound_to 11000

$$$$
