AV-unprocessed.smi:2787|AV-procd|sdf|10758|dock3
  -GOLD-   2272015193D 1   1.00000     0.00000
 Structure written by MMmdl.
 36 37  0  0  0  0  0  0  0  0  2 V2000
  147.9342  139.9200  152.9668 O   0  0  0  0  0  0  0  0  0  0  0  0
  147.5177  140.9934  153.7837 C   0  0  0  0  0  0  0  0  0  0  0  0
  148.7323  141.6940  154.4100 C   0  0  0  0  0  0  0  0  0  0  0  0
  149.5131  140.7909  155.3824 C   0  0  0  0  0  0  0  0  0  0  0  0
  150.2966  141.5539  156.4065 C   0  0  0  0  0  0  0  0  0  0  0  0
  150.4350  142.9088  156.4935 N   0  3  0  0  0  0  0  0  0  0  0  0
  151.2480  143.2348  157.5792 C   0  0  0  0  0  0  0  0  0  0  0  0
  151.6685  144.4697  158.0636 C   0  0  0  0  0  0  0  0  0  0  0  0
  152.4994  144.4527  159.2029 C   0  0  0  0  0  0  0  0  0  0  0  0
  152.8803  143.2412  159.8155 C   0  0  0  0  0  0  0  0  0  0  0  0
  152.4485  141.9955  159.3141 C   0  0  0  0  0  0  0  0  0  0  0  0
  151.6283  142.0204  158.1860 C   0  0  0  0  0  0  0  0  0  0  0  0
  151.0209  141.0117  157.4277 N   0  0  0  0  0  0  0  0  0  0  0  0
  151.2276  139.5997  157.7906 C   0  0  0  0  0  0  0  0  0  0  0  0
  152.7070  139.1693  157.7152 C   0  0  2  0  0  0  0  0  0  0  0  0
  153.1324  139.1528  156.3661 O   0  0  0  0  0  0  0  0  0  0  0  0
  152.9611  137.7869  158.3469 C   0  0  0  0  0  0  0  0  0  0  0  0
  152.5149  137.7672  159.6031 F   0  0  0  0  0  0  0  0  0  0  0  0
  152.2974  136.8569  157.6602 F   0  0  0  0  0  0  0  0  0  0  0  0
  154.2600  137.4847  158.3282 F   0  0  0  0  0  0  0  0  0  0  0  0
  148.5661  140.2434  152.3424 H   0  0  0  0  0  0  0  0  0  0  0  0
  146.9261  141.6933  153.1929 H   0  0  0  0  0  0  0  0  0  0  0  0
  146.8671  140.6003  154.5654 H   0  0  0  0  0  0  0  0  0  0  0  0
  149.3978  142.0126  153.6067 H   0  0  0  0  0  0  0  0  0  0  0  0
  148.4061  142.6019  154.9194 H   0  0  0  0  0  0  0  0  0  0  0  0
  148.8250  140.1248  155.9036 H   0  0  0  0  0  0  0  0  0  0  0  0
  150.2015  140.1555  154.8243 H   0  0  0  0  0  0  0  0  0  0  0  0
  151.3780  145.3993  157.5962 H   0  0  0  0  0  0  0  0  0  0  0  0
  152.8513  145.3873  159.6154 H   0  0  0  0  0  0  0  0  0  0  0  0
  153.5166  143.2670  160.6883 H   0  0  0  0  0  0  0  0  0  0  0  0
  152.7440  141.0749  159.7954 H   0  0  0  0  0  0  0  0  0  0  0  0
  150.8543  139.4711  158.8067 H   0  0  0  0  0  0  0  0  0  0  0  0
  150.5995  138.9705  157.1600 H   0  0  0  0  0  0  0  0  0  0  0  0
  153.3178  139.9071  158.2373 H   0  0  0  0  0  0  0  0  0  0  0  0
  152.3907  139.3545  155.8169 H   0  0  0  0  0  0  0  0  0  0  0  0
  150.0016  143.5615  155.8531 H   0  0  0  0  0  0  0  0  0  0  0  0
  1  2  1  0  0  0  0
  1 21  1  0  0  0  0
  2  3  1  0  0  0  0
  2 22  1  0  0  0  0
  2 23  1  0  0  0  0
  3  4  1  0  0  0  0
  3 24  1  0  0  0  0
  3 25  1  0  0  0  0
  4  5  1  0  0  0  0
  4 26  1  0  0  0  0
  4 27  1  0  0  0  0
  5 13  1  0  0  0  0
  5  6  2  0  0  0  0
  6  7  1  0  0  0  0
  6 36  1  0  0  0  0
  7 12  2  0  0  0  0
  7  8  1  0  0  0  0
  8  9  2  0  0  0  0
  8 28  1  0  0  0  0
  9 10  1  0  0  0  0
  9 29  1  0  0  0  0
 10 11  2  0  0  0  0
 10 30  1  0  0  0  0
 11 12  1  0  0  0  0
 11 31  1  0  0  0  0
 12 13  1  0  0  0  0
 13 14  1  0  0  0  0
 14 15  1  0  0  0  0
 14 32  1  0  0  0  0
 14 33  1  0  0  0  0
 15 16  1  0  0  0  0
 15 17  1  0  0  0  0
 15 34  1  0  0  0  0
 16 35  1  0  0  0  0
 17 18  1  0  0  0  0
 17 19  1  0  0  0  0
 17 20  1  0  0  0  0
M  CHG  1   6   1
M  END
> <s_m_source_file>
AV-unprocessed.smi

> <i_m_source_file_index>
2787

> <i_lp_mmshare_version>
43012

> <i_f3d_flags>
0

> <s_epik_input>
W09IXVtDSDJdW0NIMl1bQ0gyXWMobjEpbihbQ0gyXVtDQEhdKFtPSF0pQyhGKShGKUYpYyhjMTIpW2NIXVtjSF1bY0hdW2NIXTI=

> <s_epik_cmdline>
J2VwaWtfcHl0aG9uJywgJy1waCcsICc3LjAnLCAnLXRuJywgJzgnLCAnLW1hJywgJzIwMCcsICctbWV0YWxfYmluZGluZycsICctaW1hZScsICc8aW5maWxlLm1hZT4nLCAnLW9tYWUnLCAnPG91dGZpbGUubWFlPic=

> <r_epik_Ionization_Penalty>
0.964009

> <r_epik_Ionization_Penalty_Charging>
0.952215

> <r_epik_Ionization_Penalty_Neutral>
0.0117938

> <r_epik_State_Penalty>
1.09527

> <r_epik_Charging_Adjusted_Penalty>
2.04749

> <i_epik_Tot_Q>
1

> <i_epik_Tot_abs_Q>
1

> <r_epik_Metal_State_Penalty>
5.08046

> <b_epik_Metal_Only>
0

> <s_lp_Force_Field>
OPLS_2005

> <r_lp_Energy>
17.2873

> <b_lp_Chiralities_Consistent>
1

> <s_lp_Variant>
AV-unprocessed.smi:2787-3

> <Gold.Version>
5.8.1

> <Gold.Id.Protein>
6NUR|6NUR_protein|mol2

> <Gold.PLP.Fitness>
54.4060

> <Gold.PLP.PLP>
-43.0774

> <Gold.PLP.part.hbond>
-2.6906

> <Gold.PLP.part.metal>
0.0000

> <Gold.PLP.part.buried>
-4.8460

> <Gold.PLP.part.nonpolar>
-35.3716

> <Gold.PLP.part.repulsive>
0.0770

> <Gold.PLP.ligand.clash>
0.0000

> <Gold.PLP.ligand.torsion>
0.2215

> <Gold.PLP.Chemscore.Hbond>
3.8880

> <Gold.PLP.Chemscore.CHOScore>
0.0000

> <Gold.PLP.Chemscore.Metal>
0.0000

> <Gold.Chemscore.Hbonds>
donor molecule, donor type, donor heavy atom, donor atom, acceptor molecule, acceptor atom, score
      L1  H     1    21       P1  7957  1.00
      L1  H     6    36       P1  8028  1.89
      P1  H  7997  8010       L1    16  1.00

> <Gold.PLP.Chemscore.Internal.Correction>
0.1075

> <Gold.Rescore>
     Score         DG    S(hbond)    S(metal)    S(lipo)     H(rot)  DE(clash)    DE(int)     intcor
     17.33     -17.56       2.67        0.00     103.87       3.51       0.01       0.22       ----

> <Gold.Chemscore.Fitness>
17.3300

> <Gold.Chemscore.DG>
-17.5580

> <Gold.Chemscore.ZeroCoef>
-5.4800

> <Gold.Chemscore.Hbond>
2.6711

> <Gold.Chemscore.Metal>
0.0000

> <Gold.Chemscore.Lipo>
103.8735

> <Gold.Chemscore.Internal_Hbond>
0.0000

> <Gold.Chemscore.DEClash>
0.0089

> <Gold.Chemscore.DEInternal>
0.2191

> <Gold.Chemscore.Rot>
3.5143

> <Gold.Chemscore.Internal.Correction>
   9.000000E+99

> <Gold.Chemscore.Hbonds>
donor molecule, donor type, donor heavy atom, donor atom, acceptor molecule, acceptor atom, score
      L1  H     1    21       P1  7957  0.94
      L1  H     6    36       P1  8028  0.90
      P1  H  7997  8010       L1    16  0.58

> <Gold.Chemscore.Hbond.Weighted>
-8.9215

> <Gold.Chemscore.Metal.Weighted>
-0.0000

> <Gold.Chemscore.Lipo.Weighted>
-12.1532

> <Gold.Chemscore.Internal_Hbond.Weighted>
0.0000

> <Gold.Chemscore.DEClash.Weighted>
0.0089

> <Gold.Chemscore.DEInternal.Weighted>
0.2191

> <Gold.Chemscore.Rot.Weighted>
8.9967

> <Gold.Chemscore.Internal.Correction.Weighted>
   9.000000E+99

> <Gold.Protein.RotatedTorsions>
[ 6907 6896 6895 6894 ] final -117.88 input  -60.11 | X-H torsion
[ 7974 7965 7964 7962 ] final -103.94 input  175.53 | X-H torsion
[ 8008 7997 7996 7995 ] final   84.31 input   59.86 | X-H torsion
[ 10167 10162 10161 10158 ] final   72.94 input  -65.29 | X-H torsion
[ 10718 10713 10712 10709 ] final   57.58 input   66.30 | X-H torsion
[ 10763 10752 10751 10750 ] final  162.14 input  -60.55 | X-H torsion
[ 11005 11000 10999 10996 ] final  101.24 input  -57.11 | X-H torsion

> <Gold.Protein.ActiveResidues>
 VAL166  LYS551  ARG553  GLY616  TRP617  ASP618  TYR619  PRO620  LYS621  CYS622 
 ASP623  PHE694  ASN695  SER759  ASP760  ASP761  ALA762  ILE779  LEU786  VAL792 
 PHE793  MET794  SER795  GLU796  ALA797  LYS798  CYS799  TRP800  GLU811  SER814 

> <Gold.Protein.RotatedAtoms>
  150.8173  133.8315  159.3154 H   0  0  0  0  0  0  0  0  0  0  0  0  # atno 6907 bound_to 6896
  151.6083  135.1040  160.0085 H   0  0  0  0  0  0  0  0  0  0  0  0  # atno 6908 bound_to 6896
  152.4264  133.7161  159.6563 H   0  0  0  0  0  0  0  0  0  0  0  0  # atno 6909 bound_to 6896
  145.2495  140.9233  143.3104 H   0  0  0  0  0  0  0  0  0  0  0  0  # atno 7974 bound_to 7965
  155.9354  140.3412  155.6283 H   0  0  0  0  0  0  0  0  0  0  0  0  # atno 8008 bound_to 7997
  155.7106  140.0771  157.2391 H   0  0  0  0  0  0  0  0  0  0  0  0  # atno 8009 bound_to 7997
  154.4092  140.1623  156.2280 H   0  0  0  0  0  0  0  0  0  0  0  0  # atno 8010 bound_to 7997
  140.0299  144.5474  150.7515 H   0  0  0  0  0  0  0  0  0  0  0  0  # atno 10167 bound_to 10162
  157.5526  130.8777  149.8987 H   0  0  0  0  0  0  0  0  0  0  0  0  # atno 10718 bound_to 10713
  154.2738  135.2765  155.2727 H   0  0  0  0  0  0  0  0  0  0  0  0  # atno 10763 bound_to 10752
  154.5278  135.5738  153.6737 H   0  0  0  0  0  0  0  0  0  0  0  0  # atno 10764 bound_to 10752
  152.9940  135.6220  154.2894 H   0  0  0  0  0  0  0  0  0  0  0  0  # atno 10765 bound_to 10752
  139.8773  134.9174  156.4876 H   0  0  0  0  0  0  0  0  0  0  0  0  # atno 11005 bound_to 11000
  144.9516  139.4076  143.6399 LP  0  0  0  0  0  0  0  0  0  0  0  0  # atno 17320 bound_to 7965
  146.3306  139.8526  142.8870 LP  0  0  0  0  0  0  0  0  0  0  0  0  # atno 17321 bound_to 7965
  140.7306  143.2686  151.3963 LP  0  0  0  0  0  0  0  0  0  0  0  0  # atno 17342 bound_to 10162
  139.6083  144.1151  152.2272 LP  0  0  0  0  0  0  0  0  0  0  0  0  # atno 17343 bound_to 10162
  156.0590  130.3703  150.1025 LP  0  0  0  0  0  0  0  0  0  0  0  0  # atno 17370 bound_to 10713
  156.9196  130.9678  151.3550 LP  0  0  0  0  0  0  0  0  0  0  0  0  # atno 17371 bound_to 10713
  140.8682  133.8008  155.9336 LP  0  0  0  0  0  0  0  0  0  0  0  0  # atno 17394 bound_to 11000
  140.8980  134.2413  157.5058 LP  0  0  0  0  0  0  0  0  0  0  0  0  # atno 17395 bound_to 11000

$$$$
