AV-unprocessed.smi:246|AV-procd|sdf|1887|dock1
  -GOLD-   2262020543D 1   1.00000     0.00000
 Structure written by MMmdl.
 57 60  0  0  0  0  0  0  0  0  1 V2000
  152.3985  144.7965  158.7386 C   0  0  0  0  0  0  0  0  0  0  0  0
  152.3739  143.5760  159.6689 C   0  0  0  0  0  0  0  0  0  0  0  0
  152.7639  142.3873  158.9952 O   0  0  0  0  0  0  0  0  0  0  0  0
  152.0594  141.2246  159.4059 C   0  0  0  0  0  0  0  0  0  0  0  0
  151.7697  140.3578  158.1775 C   0  0  0  0  0  0  0  0  0  0  0  0
  151.2034  141.1700  157.1596 O   0  0  0  0  0  0  0  0  0  0  0  0
  150.6809  140.4270  156.0683 C   0  0  2  0  0  0  0  0  0  0  0  0
  149.8158  141.3080  155.1692 C   0  0  0  0  0  0  0  0  0  0  0  0
  148.9240  140.2878  154.4642 C   0  0  0  0  0  0  0  0  0  0  0  0
  148.6982  139.2455  155.4569 N   0  0  0  0  0  0  0  0  0  0  0  0
  148.1201  138.0611  155.1303 C   0  0  0  0  0  0  0  0  0  0  0  0
  148.5056  136.9353  155.7880 N   0  0  0  0  0  0  0  0  0  0  0  0
  147.9498  135.7557  155.4973 C   0  0  0  0  0  0  0  0  0  0  0  0
  147.0085  135.4771  154.5943 N   0  0  0  0  0  0  0  0  0  0  0  0
  146.6249  136.5981  153.9192 C   0  0  0  0  0  0  0  0  0  0  0  0
  147.1294  137.9160  154.1153 C   0  0  0  0  0  0  0  0  0  0  0  0
  146.5177  138.7887  153.2218 N   0  0  0  0  0  0  0  0  0  0  0  0
  145.6947  138.0346  152.5472 C   0  0  0  0  0  0  0  0  0  0  0  0
  145.6805  136.7080  152.9133 N   0  0  0  0  0  0  0  0  0  0  0  0
  144.8549  135.6577  152.3395 C   0  0  0  0  0  0  0  0  0  0  0  0
  144.9809  134.2875  153.0455 C   0  0  1  0  0  0  0  0  0  0  0  0
  144.1029  134.2006  154.1510 O   0  0  0  0  0  0  0  0  0  0  0  0
  144.8143  133.0518  152.1310 C   0  0  1  0  0  0  0  0  0  0  0  0
  143.4949  132.9716  151.3546 C   0  0  0  0  0  0  0  0  0  0  0  0
  143.8928  132.1392  150.1562 C   0  0  0  0  0  0  0  0  0  0  0  0
  145.2985  132.6596  149.8798 C   0  0  0  0  0  0  0  0  0  0  0  0
  145.8536  132.9330  151.1607 O   0  0  0  0  0  0  0  0  0  0  0  0
  149.7177  139.3101  156.4963 C   0  0  0  0  0  0  0  0  0  0  0  0
  151.4886  140.0082  155.4650 H   0  0  0  0  0  0  0  0  0  0  0  0
  152.0014  145.6750  159.2470 H   0  0  0  0  0  0  0  0  0  0  0  0
  151.7901  144.6231  157.8509 H   0  0  0  0  0  0  0  0  0  0  0  0
  153.4091  145.0393  158.4119 H   0  0  0  0  0  0  0  0  0  0  0  0
  152.9899  143.7436  160.5537 H   0  0  0  0  0  0  0  0  0  0  0  0
  151.3545  143.4289  160.0262 H   0  0  0  0  0  0  0  0  0  0  0  0
  152.6192  140.6518  160.1453 H   0  0  0  0  0  0  0  0  0  0  0  0
  151.1162  141.5211  159.8672 H   0  0  0  0  0  0  0  0  0  0  0  0
  152.7036  139.9268  157.8134 H   0  0  0  0  0  0  0  0  0  0  0  0
  151.1097  139.5310  158.4433 H   0  0  0  0  0  0  0  0  0  0  0  0
  149.2028  141.9748  155.7775 H   0  0  0  0  0  0  0  0  0  0  0  0
  150.3975  141.9177  154.4777 H   0  0  0  0  0  0  0  0  0  0  0  0
  147.9866  140.7322  154.1287 H   0  0  0  0  0  0  0  0  0  0  0  0
  149.4397  139.8710  153.5977 H   0  0  0  0  0  0  0  0  0  0  0  0
  148.3102  134.9154  156.0718 H   0  0  0  0  0  0  0  0  0  0  0  0
  145.0586  138.4310  151.7692 H   0  0  0  0  0  0  0  0  0  0  0  0
  143.8161  135.9890  152.3633 H   0  0  0  0  0  0  0  0  0  0  0  0
  145.1163  135.5582  151.2853 H   0  0  0  0  0  0  0  0  0  0  0  0
  145.9870  134.2419  153.4639 H   0  0  0  0  0  0  0  0  0  0  0  0
  143.5801  133.4185  154.0596 H   0  0  0  0  0  0  0  0  0  0  0  0
  144.8859  132.1573  152.7515 H   0  0  0  0  0  0  0  0  0  0  0  0
  142.6875  132.5255  151.9357 H   0  0  0  0  0  0  0  0  0  0  0  0
  143.1667  133.9564  151.0203 H   0  0  0  0  0  0  0  0  0  0  0  0
  143.9275  131.0827  150.4257 H   0  0  0  0  0  0  0  0  0  0  0  0
  143.2190  132.2571  149.3074 H   0  0  0  0  0  0  0  0  0  0  0  0
  145.9098  131.9513  149.3206 H   0  0  0  0  0  0  0  0  0  0  0  0
  145.2545  133.5918  149.3152 H   0  0  0  0  0  0  0  0  0  0  0  0
  150.2482  138.3652  156.6207 H   0  0  0  0  0  0  0  0  0  0  0  0
  149.2321  139.5585  157.4408 H   0  0  0  0  0  0  0  0  0  0  0  0
  1  2  1  0  0  0  0
  1 30  1  0  0  0  0
  1 31  1  0  0  0  0
  1 32  1  0  0  0  0
  2  3  1  0  0  0  0
  2 33  1  0  0  0  0
  2 34  1  0  0  0  0
  3  4  1  0  0  0  0
  4  5  1  0  0  0  0
  4 35  1  0  0  0  0
  4 36  1  0  0  0  0
  5  6  1  0  0  0  0
  5 37  1  0  0  0  0
  5 38  1  0  0  0  0
  6  7  1  0  0  0  0
  7 29  1  0  0  0  0
  7 28  1  0  0  0  0
  7  8  1  0  0  0  0
  8  9  1  0  0  0  0
  8 39  1  0  0  0  0
  8 40  1  0  0  0  0
  9 10  1  0  0  0  0
  9 41  1  0  0  0  0
  9 42  1  0  0  0  0
 10 11  1  0  0  0  0
 10 28  1  0  0  0  0
 11 16  1  0  0  0  0
 11 12  2  0  0  0  0
 12 13  1  0  0  0  0
 13 14  2  0  0  0  0
 13 43  1  0  0  0  0
 14 15  1  0  0  0  0
 15 19  1  0  0  0  0
 15 16  2  0  0  0  0
 16 17  1  0  0  0  0
 17 18  2  0  0  0  0
 18 19  1  0  0  0  0
 18 44  1  0  0  0  0
 19 20  1  0  0  0  0
 20 21  1  0  0  0  0
 20 45  1  0  0  0  0
 20 46  1  0  0  0  0
 21 22  1  0  0  0  0
 21 23  1  0  0  0  0
 21 47  1  0  0  0  0
 22 48  1  0  0  0  0
 23 27  1  0  0  0  0
 23 24  1  0  0  0  0
 23 49  1  0  0  0  0
 24 25  1  0  0  0  0
 24 50  1  0  0  0  0
 24 51  1  0  0  0  0
 25 26  1  0  0  0  0
 25 52  1  0  0  0  0
 25 53  1  0  0  0  0
 26 27  1  0  0  0  0
 26 54  1  0  0  0  0
 26 55  1  0  0  0  0
 28 56  1  0  0  0  0
 28 57  1  0  0  0  0
M  END
> <s_m_source_file>
AV-unprocessed.smi

> <i_m_source_file_index>
246

> <i_lp_mmshare_version>
43012

> <i_f3d_flags>
0

> <s_epik_input>
W0NIM11bQ0gyXU9bQ0gyXVtDSDJdT1tDQEhdMVtDSDJdW0NIMl1OKFtDSDJdMSljKG5bY0hdbjIpYyhjMjMpbltjSF1uM1tDSDJdW0NASF0oW09IXSlbQ0BASF00W0NIMl1bQ0gyXVtDSDJdTzQ=

> <s_epik_cmdline>
J2VwaWtfcHl0aG9uJywgJy1waCcsICc3LjAnLCAnLXRuJywgJzgnLCAnLW1hJywgJzIwMCcsICctbWV0YWxfYmluZGluZycsICctaW1hZScsICc8aW5maWxlLm1hZT4nLCAnLW9tYWUnLCAnPG91dGZpbGUubWFlPic=

> <r_lp_tautomer_probability>
1

> <r_epik_Ionization_Penalty>
0.0024631

> <r_epik_Ionization_Penalty_Charging>
0

> <r_epik_Ionization_Penalty_Neutral>
0.0024631

> <r_epik_State_Penalty>
0.00162428

> <r_epik_Charging_Adjusted_Penalty>
0.00162428

> <i_epik_Tot_Q>
0

> <i_epik_Tot_abs_Q>
0

> <r_epik_Metal_State_Penalty>
-0

> <b_epik_Metal_Only>
0

> <s_lp_Force_Field>
OPLS_2005

> <r_lp_Energy>
52.7235

> <b_lp_Chiralities_Consistent>
1

> <s_lp_Variant>
AV-unprocessed.smi:246-8

> <Gold.Version>
5.8.1

> <Gold.Id.Protein>
6NUR|6NUR_protein|mol2

> <Gold.PLP.Fitness>
45.8570

> <Gold.PLP.PLP>
-39.3270

> <Gold.PLP.part.hbond>
-1.0000

> <Gold.PLP.part.metal>
0.0000

> <Gold.PLP.part.buried>
-5.1797

> <Gold.PLP.part.nonpolar>
-33.9960

> <Gold.PLP.part.repulsive>
0.5358

> <Gold.PLP.ligand.clash>
0.0000

> <Gold.PLP.ligand.torsion>
1.3165

> <Gold.PLP.Chemscore.Hbond>
1.0000

> <Gold.PLP.Chemscore.CHOScore>
1.7195

> <Gold.PLP.Chemscore.Metal>
0.0000

> <Gold.Chemscore.Hbonds>
donor molecule, donor type, donor heavy atom, donor atom, acceptor molecule, acceptor atom, score
      L1  H    22    48       P1 10957  1.00
      L1  C    18    44       P1 10171  1.00
      L1  C    18    44       P1 10175  0.70

> <Gold.PLP.Chemscore.Internal.Correction>
1.0043

> <Gold.Rescore>
     Score         DG    S(hbond)    S(metal)    S(lipo)     H(rot)  DE(clash)    DE(int)     intcor
     10.67     -13.32       0.99        0.00     106.63       3.10       0.01       2.64       ----

> <Gold.Chemscore.Fitness>
10.6744

> <Gold.Chemscore.DG>
-13.3220

> <Gold.Chemscore.ZeroCoef>
-5.4800

> <Gold.Chemscore.Hbond>
0.9908

> <Gold.Chemscore.Metal>
0.0000

> <Gold.Chemscore.Lipo>
106.6263

> <Gold.Chemscore.Internal_Hbond>
0.0000

> <Gold.Chemscore.DEClash>
0.0075

> <Gold.Chemscore.DEInternal>
2.6401

> <Gold.Chemscore.Rot>
3.1026

> <Gold.Chemscore.Internal.Correction>
   9.000000E+99

> <Gold.Chemscore.Hbonds>
donor molecule, donor type, donor heavy atom, donor atom, acceptor molecule, acceptor atom, score
      L1  H    22    48       P1 10957  0.91

> <Gold.Chemscore.Hbond.Weighted>
-3.3094

> <Gold.Chemscore.Metal.Weighted>
-0.0000

> <Gold.Chemscore.Lipo.Weighted>
-12.4753

> <Gold.Chemscore.Internal_Hbond.Weighted>
0.0000

> <Gold.Chemscore.DEClash.Weighted>
0.0075

> <Gold.Chemscore.DEInternal.Weighted>
2.6401

> <Gold.Chemscore.Rot.Weighted>
7.9426

> <Gold.Chemscore.Internal.Correction.Weighted>
   9.000000E+99

> <Gold.Protein.RotatedTorsions>
[ 6907 6896 6895 6894 ] final  151.50 input  -60.11 | X-H torsion
[ 7974 7965 7964 7962 ] final    0.08 input  175.53 | X-H torsion
[ 8008 7997 7996 7995 ] final   44.00 input   59.86 | X-H torsion
[ 10167 10162 10161 10158 ] final -124.02 input  -65.29 | X-H torsion
[ 10718 10713 10712 10709 ] final  156.40 input   66.30 | X-H torsion
[ 10763 10752 10751 10750 ] final   17.04 input  -60.55 | X-H torsion
[ 11005 11000 10999 10996 ] final  174.38 input  -57.11 | X-H torsion

> <Gold.Protein.ActiveResidues>
 VAL166  LYS551  ARG553  GLY616  TRP617  ASP618  TYR619  PRO620  LYS621  CYS622 
 ASP623  PHE694  ASN695  SER759  ASP760  ASP761  ALA762  ILE779  LEU786  VAL792 
 PHE793  MET794  SER795  GLU796  ALA797  LYS798  CYS799  TRP800  GLU811  SER814 

> <Gold.Protein.RotatedAtoms>
  152.0998  133.4243  159.4581 H   0  0  0  0  0  0  0  0  0  0  0  0  # atno 6907 bound_to 6896
  150.6864  134.2774  159.4622 H   0  0  0  0  0  0  0  0  0  0  0  0  # atno 6908 bound_to 6896
  152.0633  134.9580  160.0625 H   0  0  0  0  0  0  0  0  0  0  0  0  # atno 6909 bound_to 6896
  146.2431  140.1192  142.8341 H   0  0  0  0  0  0  0  0  0  0  0  0  # atno 7974 bound_to 7965
  155.3120  140.3391  155.4243 H   0  0  0  0  0  0  0  0  0  0  0  0  # atno 8008 bound_to 7997
  156.1951  140.1712  156.8052 H   0  0  0  0  0  0  0  0  0  0  0  0  # atno 8009 bound_to 7997
  154.5489  140.0709  156.8618 H   0  0  0  0  0  0  0  0  0  0  0  0  # atno 8010 bound_to 7997
  139.9973  143.5577  152.2318 H   0  0  0  0  0  0  0  0  0  0  0  0  # atno 10167 bound_to 10162
  157.2055  131.0686  151.2000 H   0  0  0  0  0  0  0  0  0  0  0  0  # atno 10718 bound_to 10713
  153.1375  135.6753  153.9079 H   0  0  0  0  0  0  0  0  0  0  0  0  # atno 10763 bound_to 10752
  153.8546  135.3089  155.3435 H   0  0  0  0  0  0  0  0  0  0  0  0  # atno 10764 bound_to 10752
  154.7760  135.4914  153.9828 H   0  0  0  0  0  0  0  0  0  0  0  0  # atno 10765 bound_to 10752
  140.3507  134.7198  157.4265 H   0  0  0  0  0  0  0  0  0  0  0  0  # atno 11005 bound_to 11000
  145.0421  140.8953  143.5046 LP  0  0  0  0  0  0  0  0  0  0  0  0  # atno 17320 bound_to 7965
  145.1274  139.2654  143.5557 LP  0  0  0  0  0  0  0  0  0  0  0  0  # atno 17321 bound_to 7965
  139.6297  144.7642  151.2563 LP  0  0  0  0  0  0  0  0  0  0  0  0  # atno 17342 bound_to 10162
  140.7432  143.6501  150.8256 LP  0  0  0  0  0  0  0  0  0  0  0  0  # atno 17343 bound_to 10162
  157.3724  130.7188  149.6574 LP  0  0  0  0  0  0  0  0  0  0  0  0  # atno 17370 bound_to 10713
  155.9696  130.4195  150.4378 LP  0  0  0  0  0  0  0  0  0  0  0  0  # atno 17371 bound_to 10713
  140.0706  134.5868  155.8646 LP  0  0  0  0  0  0  0  0  0  0  0  0  # atno 17394 bound_to 11000
  141.2013  133.6617  156.5943 LP  0  0  0  0  0  0  0  0  0  0  0  0  # atno 17395 bound_to 11000

$$$$
