AV-unprocessed.smi:1005|AV-procd|sdf|4384|dock7
  -GOLD-   22720 2313D 1   1.00000     0.00000
 Structure written by MMmdl.
 58 60  0  0  0  0  0  0  0  0  4 V2000
  153.4432  142.8265  160.5131 C   0  0  0  0  0  0  0  0  0  0  0  0
  152.5338  142.3891  159.3773 C   0  0  0  0  0  0  0  0  0  0  0  0
  152.8056  141.1632  158.7294 C   0  0  0  0  0  0  0  0  0  0  0  0
  151.9586  140.7927  157.6915 C   0  0  0  0  0  0  0  0  0  0  0  0
  151.9619  139.6652  156.8679 N   0  3  0  0  0  0  0  0  0  0  0  0
  150.9278  139.7431  155.9858 C   0  0  0  0  0  0  0  0  0  0  0  0
  150.2653  140.9069  156.2300 N   0  0  0  0  0  0  0  0  0  0  0  0
  149.0795  141.4685  155.5651 C   0  0  0  0  0  0  0  0  0  0  0  0
  148.6255  140.6415  154.3455 C   0  0  2  0  0  0  0  0  0  0  0  0
  149.5777  140.7646  153.3066 O   0  0  0  0  0  0  0  0  0  0  0  0
  147.2554  141.1118  153.8162 C   0  0  0  0  0  0  0  0  0  0  0  0
  146.2887  139.9967  153.6437 N   0  3  2  0  0  0  0  0  0  0  0  0
  145.9200  139.3621  154.9308 C   0  0  0  0  0  0  0  0  0  0  0  0
  144.8649  138.2677  154.7046 C   0  0  0  0  0  0  0  0  0  0  0  0
  145.3640  137.3120  153.7766 O   0  0  0  0  0  0  0  0  0  0  0  0
  145.6373  137.8842  152.5013 C   0  0  2  0  0  0  0  0  0  0  0  0
  146.0980  136.7533  151.5622 C   0  0  0  0  0  0  0  0  0  0  0  0
  145.3198  135.5010  151.7450 N   0  3  0  0  0  0  0  0  0  0  0  0
  143.9012  135.6243  151.3365 C   0  0  0  0  0  0  0  0  0  0  0  0
  145.9700  134.3406  151.0966 C   0  0  0  0  0  0  0  0  0  0  0  0
  146.7243  138.9657  152.6687 C   0  0  0  0  0  0  0  0  0  0  0  0
  150.8706  141.5927  157.2911 C   0  0  0  0  0  0  0  0  0  0  0  0
  150.5871  142.8022  157.9216 C   0  0  0  0  0  0  0  0  0  0  0  0
  151.4373  143.1970  158.9793 C   0  0  0  0  0  0  0  0  0  0  0  0
  151.1531  144.5128  159.6838 C   0  0  0  0  0  0  0  0  0  0  0  0
  154.2614  142.1217  160.6637 H   0  0  0  0  0  0  0  0  0  0  0  0
  152.8837  142.8929  161.4464 H   0  0  0  0  0  0  0  0  0  0  0  0
  153.8809  143.8023  160.3010 H   0  0  0  0  0  0  0  0  0  0  0  0
  153.6377  140.5421  159.0277 H   0  0  0  0  0  0  0  0  0  0  0  0
  150.6791  139.0122  155.2296 H   0  0  0  0  0  0  0  0  0  0  0  0
  148.2820  141.4973  156.3087 H   0  0  0  0  0  0  0  0  0  0  0  0
  149.2772  142.5056  155.2927 H   0  0  0  0  0  0  0  0  0  0  0  0
  148.5798  139.5937  154.6406 H   0  0  0  0  0  0  0  0  0  0  0  0
  149.3671  140.1378  152.6307 H   0  0  0  0  0  0  0  0  0  0  0  0
  146.8251  141.8638  154.4795 H   0  0  0  0  0  0  0  0  0  0  0  0
  147.4100  141.6066  152.8557 H   0  0  0  0  0  0  0  0  0  0  0  0
  146.8095  138.9351  155.3971 H   0  0  0  0  0  0  0  0  0  0  0  0
  145.5263  140.1126  155.6174 H   0  0  0  0  0  0  0  0  0  0  0  0
  144.6382  137.7637  155.6443 H   0  0  0  0  0  0  0  0  0  0  0  0
  143.9300  138.6959  154.3390 H   0  0  0  0  0  0  0  0  0  0  0  0
  144.7340  138.3526  152.1092 H   0  0  0  0  0  0  0  0  0  0  0  0
  146.0339  137.0684  150.5195 H   0  0  0  0  0  0  0  0  0  0  0  0
  147.1538  136.5580  151.7573 H   0  0  0  0  0  0  0  0  0  0  0  0
  143.8196  135.8595  150.2745 H   0  0  0  0  0  0  0  0  0  0  0  0
  143.3867  136.4023  151.8988 H   0  0  0  0  0  0  0  0  0  0  0  0
  143.3682  134.6904  151.5175 H   0  0  0  0  0  0  0  0  0  0  0  0
  146.0224  134.4751  150.0154 H   0  0  0  0  0  0  0  0  0  0  0  0
  145.4164  133.4235  151.3008 H   0  0  0  0  0  0  0  0  0  0  0  0
  146.9835  134.2019  151.4747 H   0  0  0  0  0  0  0  0  0  0  0  0
  146.9265  139.4219  151.7005 H   0  0  0  0  0  0  0  0  0  0  0  0
  147.6573  138.5139  153.0097 H   0  0  0  0  0  0  0  0  0  0  0  0
  149.7562  143.4221  157.6187 H   0  0  0  0  0  0  0  0  0  0  0  0
  150.2438  144.9807  159.3057 H   0  0  0  0  0  0  0  0  0  0  0  0
  151.9758  145.2118  159.5328 H   0  0  0  0  0  0  0  0  0  0  0  0
  151.0235  144.3555  160.7549 H   0  0  0  0  0  0  0  0  0  0  0  0
  145.3247  135.3010  152.7354 H   0  0  0  0  0  0  0  0  0  0  0  0
  145.4419  140.4128  153.2818 H   0  0  0  0  0  0  0  0  0  0  0  0
  152.6190  138.8963  156.9047 H   0  0  0  0  0  0  0  0  0  0  0  0
  1  2  1  0  0  0  0
  1 26  1  0  0  0  0
  1 27  1  0  0  0  0
  1 28  1  0  0  0  0
  2 24  1  0  0  0  0
  2  3  2  0  0  0  0
  3  4  1  0  0  0  0
  3 29  1  0  0  0  0
  4 22  2  0  0  0  0
  4  5  1  0  0  0  0
  5  6  2  0  0  0  0
  5 58  1  0  0  0  0
  6  7  1  0  0  0  0
  6 30  1  0  0  0  0
  7  8  1  0  0  0  0
  7 22  1  0  0  0  0
  8  9  1  0  0  0  0
  8 31  1  0  0  0  0
  8 32  1  0  0  0  0
  9 10  1  0  0  0  0
  9 11  1  0  0  0  0
  9 33  1  0  0  0  0
 10 34  1  0  0  0  0
 11 12  1  0  0  0  0
 11 35  1  0  0  0  0
 11 36  1  0  0  0  0
 12 21  1  0  0  0  0
 12 13  1  0  0  0  0
 12 57  1  0  0  0  0
 13 14  1  0  0  0  0
 13 37  1  0  0  0  0
 13 38  1  0  0  0  0
 14 15  1  0  0  0  0
 14 39  1  0  0  0  0
 14 40  1  0  0  0  0
 15 16  1  0  0  0  0
 16 17  1  0  0  0  0
 16 21  1  0  0  0  0
 16 41  1  0  0  0  0
 17 18  1  0  0  0  0
 17 42  1  0  0  0  0
 17 43  1  0  0  0  0
 18 19  1  0  0  0  0
 18 20  1  0  0  0  0
 18 56  1  0  0  0  0
 19 44  1  0  0  0  0
 19 45  1  0  0  0  0
 19 46  1  0  0  0  0
 20 47  1  0  0  0  0
 20 48  1  0  0  0  0
 20 49  1  0  0  0  0
 21 50  1  0  0  0  0
 21 51  1  0  0  0  0
 22 23  1  0  0  0  0
 23 24  2  0  0  0  0
 23 52  1  0  0  0  0
 24 25  1  0  0  0  0
 25 53  1  0  0  0  0
 25 54  1  0  0  0  0
 25 55  1  0  0  0  0
M  CHG  1   5   1
M  CHG  1  12   1
M  CHG  1  18   1
M  END
> <s_m_source_file>
AV-unprocessed.smi

> <i_m_source_file_index>
1005

> <i_lp_mmshare_version>
43012

> <i_f3d_flags>
0

> <s_epik_input>
W0NIM11jKFtjSF0xKWMoW0NIM10pW2NIXWMoYzEyKW4oW2NIXW4yKVtDSDJdW0NASF0oW09IXSlbQ0gyXU4zW0NIMl1bQ0gyXU9bQ0BIXShbQ0gyXTMpW0NIMl1OKFtDSDNdKVtDSDNd

> <s_epik_cmdline>
J2VwaWtfcHl0aG9uJywgJy1waCcsICc3LjAnLCAnLXRuJywgJzgnLCAnLW1hJywgJzIwMCcsICctbWV0YWxfYmluZGluZycsICctaW1hZScsICc8aW5maWxlLm1hZT4nLCAnLW9tYWUnLCAnPG91dGZpbGUubWFlPic=

> <r_epik_Ionization_Penalty>
2.30802

> <r_epik_Ionization_Penalty_Charging>
2.30798

> <r_epik_Ionization_Penalty_Neutral>
3.4851e-05

> <r_epik_State_Penalty>
2.52618

> <r_epik_Charging_Adjusted_Penalty>
4.83416

> <i_epik_Tot_Q>
3

> <i_epik_Tot_abs_Q>
3

> <r_epik_Metal_State_Penalty>
6.53149

> <b_epik_Metal_Only>
0

> <s_lp_Force_Field>
OPLS_2005

> <r_lp_Energy>
42.4593

> <b_lp_Chiralities_Consistent>
1

> <s_lp_Variant>
AV-unprocessed.smi:1005-23

> <Gold.Version>
5.8.1

> <Gold.Id.Protein>
6NUR|6NUR_protein|mol2

> <Gold.PLP.Fitness>
54.0384

> <Gold.PLP.PLP>
-43.9692

> <Gold.PLP.part.hbond>
-3.1856

> <Gold.PLP.part.metal>
0.0000

> <Gold.PLP.part.buried>
-4.3756

> <Gold.PLP.part.nonpolar>
-38.4211

> <Gold.PLP.part.repulsive>
0.2729

> <Gold.PLP.ligand.clash>
0.0000

> <Gold.PLP.ligand.torsion>
1.0280

> <Gold.PLP.Chemscore.Hbond>
3.9870

> <Gold.PLP.Chemscore.CHOScore>
0.0000

> <Gold.PLP.Chemscore.Metal>
0.0000

> <Gold.Chemscore.Hbonds>
donor molecule, donor type, donor heavy atom, donor atom, acceptor molecule, acceptor atom, score
      L1  H    10    34       P1  7957  0.64
      L1  H    12    57       P1 10175  2.00
      P1  H  7989  7998       L1    10  0.29
      P1  H  8011  8017       L1    10  1.00

> <Gold.PLP.Chemscore.Internal.Correction>
0.1643

> <Gold.Rescore>
     Score         DG    S(hbond)    S(metal)    S(lipo)     H(rot)  DE(clash)    DE(int)     intcor
     19.73     -22.25       2.39        0.00     131.17       2.56       1.60       0.92       ----

> <Gold.Chemscore.Fitness>
19.7298

> <Gold.Chemscore.DG>
-22.2517

> <Gold.Chemscore.ZeroCoef>
-5.4800

> <Gold.Chemscore.Hbond>
2.3861

> <Gold.Chemscore.Metal>
0.0000

> <Gold.Chemscore.Lipo>
131.1708

> <Gold.Chemscore.Internal_Hbond>
0.0000

> <Gold.Chemscore.DEClash>
1.6033

> <Gold.Chemscore.DEInternal>
0.9186

> <Gold.Chemscore.Rot>
2.5566

> <Gold.Chemscore.Internal.Correction>
   9.000000E+99

> <Gold.Chemscore.Hbonds>
donor molecule, donor type, donor heavy atom, donor atom, acceptor molecule, acceptor atom, score
      L1  H    10    34       P1  7957  0.61
      L1  H    12    57       P1 10175  0.96
      P1  H  7989  7998       L1    10  0.17
      P1  H  8011  8017       L1    10  0.39

> <Gold.Chemscore.Hbond.Weighted>
-7.9696

> <Gold.Chemscore.Metal.Weighted>
-0.0000

> <Gold.Chemscore.Lipo.Weighted>
-15.3470

> <Gold.Chemscore.Internal_Hbond.Weighted>
0.0000

> <Gold.Chemscore.DEClash.Weighted>
1.6033

> <Gold.Chemscore.DEInternal.Weighted>
0.9186

> <Gold.Chemscore.Rot.Weighted>
6.5450

> <Gold.Chemscore.Internal.Correction.Weighted>
   9.000000E+99

> <Gold.Protein.RotatedTorsions>
[ 6907 6896 6895 6894 ] final -172.84 input  -60.11 | X-H torsion
[ 7974 7965 7964 7962 ] final  -58.28 input  175.53 | X-H torsion
[ 8008 7997 7996 7995 ] final    8.11 input   59.86 | X-H torsion
[ 10167 10162 10161 10158 ] final  -61.84 input  -65.29 | X-H torsion
[ 10718 10713 10712 10709 ] final   88.62 input   66.30 | X-H torsion
[ 10763 10752 10751 10750 ] final  -46.34 input  -60.55 | X-H torsion
[ 11005 11000 10999 10996 ] final -175.93 input  -57.11 | X-H torsion

> <Gold.Protein.ActiveResidues>
 VAL166  LYS551  ARG553  GLY616  TRP617  ASP618  TYR619  PRO620  LYS621  CYS622 
 ASP623  PHE694  ASN695  SER759  ASP760  ASP761  ALA762  ILE779  LEU786  VAL792 
 PHE793  MET794  SER795  GLU796  ALA797  LYS798  CYS799  TRP800  GLU811  SER814 

> <Gold.Protein.RotatedAtoms>
  151.5466  133.3424  159.2944 H   0  0  0  0  0  0  0  0  0  0  0  0  # atno 6907 bound_to 6896
  150.8504  134.7829  159.7015 H   0  0  0  0  0  0  0  0  0  0  0  0  # atno 6908 bound_to 6896
  152.4551  134.5316  159.9864 H   0  0  0  0  0  0  0  0  0  0  0  0  # atno 6909 bound_to 6896
  145.8411  140.8416  143.0034 H   0  0  0  0  0  0  0  0  0  0  0  0  # atno 7974 bound_to 7965
  154.7626  140.2787  155.6202 H   0  0  0  0  0  0  0  0  0  0  0  0  # atno 8008 bound_to 7997
  156.2918  140.2657  156.2336 H   0  0  0  0  0  0  0  0  0  0  0  0  # atno 8009 bound_to 7997
  154.9998  140.0373  157.2345 H   0  0  0  0  0  0  0  0  0  0  0  0  # atno 8010 bound_to 7997
  140.5979  143.2355  151.5995 H   0  0  0  0  0  0  0  0  0  0  0  0  # atno 10167 bound_to 10162
  157.6950  131.0302  150.3303 H   0  0  0  0  0  0  0  0  0  0  0  0  # atno 10718 bound_to 10713
  154.0433  135.6641  153.4792 H   0  0  0  0  0  0  0  0  0  0  0  0  # atno 10763 bound_to 10752
  153.0493  135.5095  154.7821 H   0  0  0  0  0  0  0  0  0  0  0  0  # atno 10764 bound_to 10752
  154.6804  135.3044  154.9587 H   0  0  0  0  0  0  0  0  0  0  0  0  # atno 10765 bound_to 10752
  140.4578  134.6283  157.4829 H   0  0  0  0  0  0  0  0  0  0  0  0  # atno 11005 bound_to 11000
  144.6733  140.0814  143.7469 LP  0  0  0  0  0  0  0  0  0  0  0  0  # atno 17320 bound_to 7965
  145.9464  139.2703  143.1238 LP  0  0  0  0  0  0  0  0  0  0  0  0  # atno 17321 bound_to 7965
  139.5271  144.3028  152.1059 LP  0  0  0  0  0  0  0  0  0  0  0  0  # atno 17342 bound_to 10162
  140.2203  144.4473  150.6345 LP  0  0  0  0  0  0  0  0  0  0  0  0  # atno 17343 bound_to 10162
  156.3777  130.3875  149.7126 LP  0  0  0  0  0  0  0  0  0  0  0  0  # atno 17370 bound_to 10713
  156.4518  130.7910  151.2931 LP  0  0  0  0  0  0  0  0  0  0  0  0  # atno 17371 bound_to 10713
  139.9965  134.6903  155.9601 LP  0  0  0  0  0  0  0  0  0  0  0  0  # atno 17394 bound_to 11000
  141.1635  133.6538  156.4399 LP  0  0  0  0  0  0  0  0  0  0  0  0  # atno 17395 bound_to 11000

$$$$
