AV-unprocessed.smi:1900|AV-procd|sdf|7709|dock1
  -GOLD-   22720 9443D 1   1.00000     0.00000
 Structure written by MMmdl.
 44 45  0  0  0  0  0  0  0  0  2 V2000
  145.7756  129.6764  151.6571 C   0  0  0  0  0  0  0  0  0  0  0  0
  146.3182  128.7073  152.7225 C   0  0  2  0  0  0  0  0  0  0  0  0
  147.3877  129.3348  153.6383 C   0  0  0  0  0  0  0  0  0  0  0  0
  148.6782  129.4962  152.9270 N   0  3  1  0  0  0  0  0  0  0  0  0
  149.7075  130.1526  153.7714 C   0  0  0  0  0  0  0  0  0  0  0  0
  149.1431  131.3305  154.5836 C   0  0  0  0  0  0  0  0  0  0  0  0
  149.0829  132.6265  153.7573 C   0  0  0  0  0  0  0  0  0  0  0  0
  148.3584  132.4412  152.5049 N   0  0  0  0  0  0  0  0  0  0  0  0
  147.1388  132.9337  152.2442 C   0  0  0  0  0  0  0  0  0  0  0  0
  146.5034  133.6285  153.0376 O   0  0  0  0  0  0  0  0  0  0  0  0
  146.7139  132.5703  151.0230 N   0  0  0  0  0  0  0  0  0  0  0  0
  145.4779  132.8976  150.4102 C   0  0  0  0  0  0  0  0  0  0  0  0
  145.0115  132.3487  149.1849 C   0  0  0  0  0  0  0  0  0  0  0  0
  143.8250  132.8389  148.8555 N   0  0  0  0  0  0  0  0  0  0  0  0
  143.5305  133.6973  149.8578 N   0  0  0  0  0  0  0  0  0  0  0  0
  144.5077  133.7656  150.8262 C   0  0  0  0  0  0  0  0  0  0  0  0
  149.1163  128.1980  152.3595 C   0  0  0  0  0  0  0  0  0  0  0  0
  148.0313  127.6219  151.4318 C   0  0  1  0  0  0  0  0  0  0  0  0
  148.4103  126.2359  150.8981 C   0  0  0  0  0  0  0  0  0  0  0  0
  146.8080  127.4942  152.1518 O   0  0  0  0  0  0  0  0  0  0  0  0
  142.6679  134.2228  149.8673 H   0  0  0  0  0  0  0  0  0  0  0  0
  145.2871  130.5308  152.1261 H   0  0  0  0  0  0  0  0  0  0  0  0
  145.0376  129.1837  151.0235 H   0  0  0  0  0  0  0  0  0  0  0  0
  146.5620  130.0679  151.0128 H   0  0  0  0  0  0  0  0  0  0  0  0
  145.4719  128.4240  153.3489 H   0  0  0  0  0  0  0  0  0  0  0  0
  147.0379  130.2991  154.0093 H   0  0  0  0  0  0  0  0  0  0  0  0
  147.5421  128.6985  154.5112 H   0  0  0  0  0  0  0  0  0  0  0  0
  150.1086  129.4213  154.4748 H   0  0  0  0  0  0  0  0  0  0  0  0
  150.5453  130.4756  153.1515 H   0  0  0  0  0  0  0  0  0  0  0  0
  148.1432  131.0910  154.9440 H   0  0  0  0  0  0  0  0  0  0  0  0
  149.7602  131.4927  155.4683 H   0  0  0  0  0  0  0  0  0  0  0  0
  148.5781  133.4076  154.3264 H   0  0  0  0  0  0  0  0  0  0  0  0
  150.0891  132.9948  153.5505 H   0  0  0  0  0  0  0  0  0  0  0  0
  148.8072  131.8798  151.7955 H   0  0  0  0  0  0  0  0  0  0  0  0
  147.3341  131.9899  150.4775 H   0  0  0  0  0  0  0  0  0  0  0  0
  145.4844  131.6246  148.5380 H   0  0  0  0  0  0  0  0  0  0  0  0
  144.4203  134.4060  151.6912 H   0  0  0  0  0  0  0  0  0  0  0  0
  150.0393  128.3210  151.7943 H   0  0  0  0  0  0  0  0  0  0  0  0
  149.3303  127.4993  153.1701 H   0  0  0  0  0  0  0  0  0  0  0  0
  147.8892  128.2846  150.5779 H   0  0  0  0  0  0  0  0  0  0  0  0
  149.3384  126.2752  150.3272 H   0  0  0  0  0  0  0  0  0  0  0  0
  147.6333  125.8450  150.2408 H   0  0  0  0  0  0  0  0  0  0  0  0
  148.5477  125.5230  151.7116 H   0  0  0  0  0  0  0  0  0  0  0  0
  148.4996  130.1167  152.1504 H   0  0  0  0  0  0  0  0  0  0  0  0
  1  2  1  0  0  0  0
  1 22  1  0  0  0  0
  1 23  1  0  0  0  0
  1 24  1  0  0  0  0
  2 20  1  0  0  0  0
  2  3  1  0  0  0  0
  2 25  1  0  0  0  0
  3  4  1  0  0  0  0
  3 26  1  0  0  0  0
  3 27  1  0  0  0  0
  4  5  1  0  0  0  0
  4 17  1  0  0  0  0
  4 44  1  0  0  0  0
  5  6  1  0  0  0  0
  5 28  1  0  0  0  0
  5 29  1  0  0  0  0
  6  7  1  0  0  0  0
  6 30  1  0  0  0  0
  6 31  1  0  0  0  0
  7  8  1  0  0  0  0
  7 32  1  0  0  0  0
  7 33  1  0  0  0  0
  8  9  1  0  0  0  0
  8 34  1  0  0  0  0
  9 10  2  0  0  0  0
  9 11  1  0  0  0  0
 11 12  1  0  0  0  0
 11 35  1  0  0  0  0
 12 16  2  0  0  0  0
 12 13  1  0  0  0  0
 13 14  2  0  0  0  0
 13 36  1  0  0  0  0
 14 15  1  0  0  0  0
 15 21  1  0  0  0  0
 15 16  1  0  0  0  0
 16 37  1  0  0  0  0
 17 18  1  0  0  0  0
 17 38  1  0  0  0  0
 17 39  1  0  0  0  0
 18 19  1  0  0  0  0
 18 20  1  0  0  0  0
 18 40  1  0  0  0  0
 19 41  1  0  0  0  0
 19 42  1  0  0  0  0
 19 43  1  0  0  0  0
M  CHG  1   4   1
M  END
> <s_m_source_file>
AV-unprocessed.smi

> <i_m_source_file_index>
1900

> <i_lp_mmshare_version>
43012

> <i_f3d_flags>
0

> <s_epik_input>
W0NIM11bQ0BASF0xW0NIMl1OKFtDSDJdW0NASF0oTzEpW0NIM10pW0NIMl1bQ0gyXVtDSDJdW05IXUMoPU8pW05IXWMyW2NIXW5bbkhdW2NIXTI=

> <s_epik_cmdline>
J2VwaWtfcHl0aG9uJywgJy1waCcsICc3LjAnLCAnLXRuJywgJzgnLCAnLW1hJywgJzIwMCcsICctbWV0YWxfYmluZGluZycsICctaW1hZScsICc8aW5maWxlLm1hZT4nLCAnLW9tYWUnLCAnPG91dGZpbGUubWFlPic=

> <r_lp_tautomer_probability>
0.5

> <r_epik_Ionization_Penalty>
0.270543

> <r_epik_Ionization_Penalty_Charging>
0.270496

> <r_epik_Ionization_Penalty_Neutral>
4.67091e-05

> <r_epik_State_Penalty>
0.262618

> <r_epik_Charging_Adjusted_Penalty>
0.533114

> <i_epik_Tot_Q>
1

> <i_epik_Tot_abs_Q>
1

> <r_epik_Metal_State_Penalty>
0.262618

> <b_epik_Metal_Only>
0

> <s_lp_Force_Field>
OPLS_2005

> <r_lp_Energy>
21.2497

> <b_lp_Chiralities_Consistent>
1

> <s_lp_Variant>
AV-unprocessed.smi:1900-1

> <Gold.Version>
5.8.1

> <Gold.Id.Protein>
6NUR|6NUR_protein|mol2

> <Gold.PLP.Fitness>
49.1287

> <Gold.PLP.PLP>
-38.0683

> <Gold.PLP.part.hbond>
-4.2529

> <Gold.PLP.part.metal>
0.0000

> <Gold.PLP.part.buried>
-4.3532

> <Gold.PLP.part.nonpolar>
-28.2040

> <Gold.PLP.part.repulsive>
0.5857

> <Gold.PLP.ligand.clash>
0.0000

> <Gold.PLP.ligand.torsion>
0.3261

> <Gold.PLP.Chemscore.Hbond>
3.8953

> <Gold.PLP.Chemscore.CHOScore>
0.0000

> <Gold.PLP.Chemscore.Metal>
0.0000

> <Gold.Chemscore.Hbonds>
donor molecule, donor type, donor heavy atom, donor atom, acceptor molecule, acceptor atom, score
      L1  H     4    44       P1 10747  0.97
      L1  H     8    34       P1 10747  1.00
      L1  H    11    35       P1 10747  1.00
      L1  H    15    21       P1 10186  1.00

> <Gold.PLP.Chemscore.Internal.Correction>
0.0268

> <Gold.Rescore>
     Score         DG    S(hbond)    S(metal)    S(lipo)     H(rot)  DE(clash)    DE(int)     intcor
     20.06     -23.24       3.47        0.00      94.94       1.93       0.74       2.43       ----

> <Gold.Chemscore.Fitness>
20.0636

> <Gold.Chemscore.DG>
-23.2354

> <Gold.Chemscore.ZeroCoef>
-5.4800

> <Gold.Chemscore.Hbond>
3.4732

> <Gold.Chemscore.Metal>
0.0000

> <Gold.Chemscore.Lipo>
94.9381

> <Gold.Chemscore.Internal_Hbond>
0.0000

> <Gold.Chemscore.DEClash>
0.7391

> <Gold.Chemscore.DEInternal>
2.4327

> <Gold.Chemscore.Rot>
1.9347

> <Gold.Chemscore.Internal.Correction>
   9.000000E+99

> <Gold.Chemscore.Hbonds>
donor molecule, donor type, donor heavy atom, donor atom, acceptor molecule, acceptor atom, score
      L1  H     4    44       P1 10747  0.52
      L1  H     8    34       P1 10747  0.96
      L1  H    11    35       P1 10747  0.93
      L1  H    15    21       P1 10186  0.96

> <Gold.Chemscore.Hbond.Weighted>
-11.6005

> <Gold.Chemscore.Metal.Weighted>
-0.0000

> <Gold.Chemscore.Lipo.Weighted>
-11.1078

> <Gold.Chemscore.Internal_Hbond.Weighted>
0.0000

> <Gold.Chemscore.DEClash.Weighted>
0.7391

> <Gold.Chemscore.DEInternal.Weighted>
2.4327

> <Gold.Chemscore.Rot.Weighted>
4.9528

> <Gold.Chemscore.Internal.Correction.Weighted>
   9.000000E+99

> <Gold.Protein.RotatedTorsions>
[ 6907 6896 6895 6894 ] final  -96.58 input  -60.11 | X-H torsion
[ 7974 7965 7964 7962 ] final  -93.30 input  175.53 | X-H torsion
[ 8008 7997 7996 7995 ] final   38.90 input   59.86 | X-H torsion
[ 10167 10162 10161 10158 ] final   34.68 input  -65.29 | X-H torsion
[ 10718 10713 10712 10709 ] final -134.24 input   66.30 | X-H torsion
[ 10763 10752 10751 10750 ] final -136.53 input  -60.55 | X-H torsion
[ 11005 11000 10999 10996 ] final -144.43 input  -57.11 | X-H torsion

> <Gold.Protein.ActiveResidues>
 VAL166  LYS551  ARG553  GLY616  TRP617  ASP618  TYR619  PRO620  LYS621  CYS622 
 ASP623  PHE694  ASN695  SER759  ASP760  ASP761  ALA762  ILE779  LEU786  VAL792 
 PHE793  MET794  SER795  GLU796  ALA797  LYS798  CYS799  TRP800  GLU811  SER814 

> <Gold.Protein.RotatedAtoms>
  150.6992  134.1482  159.4130 H   0  0  0  0  0  0  0  0  0  0  0  0  # atno 6907 bound_to 6896
  151.9465  135.0187  160.0548 H   0  0  0  0  0  0  0  0  0  0  0  0  # atno 6908 bound_to 6896
  152.2048  133.4832  159.5115 H   0  0  0  0  0  0  0  0  0  0  0  0  # atno 6909 bound_to 6896
  145.3884  140.9525  143.2354 H   0  0  0  0  0  0  0  0  0  0  0  0  # atno 7974 bound_to 7965
  155.2278  140.3336  155.4307 H   0  0  0  0  0  0  0  0  0  0  0  0  # atno 8008 bound_to 7997
  156.2307  140.1849  156.7295 H   0  0  0  0  0  0  0  0  0  0  0  0  # atno 8009 bound_to 7997
  154.5974  140.0628  156.9307 H   0  0  0  0  0  0  0  0  0  0  0  0  # atno 8010 bound_to 7997
  140.4293  144.1348  150.6157 H   0  0  0  0  0  0  0  0  0  0  0  0  # atno 10167 bound_to 10162
  156.2534  130.7166  151.1074 H   0  0  0  0  0  0  0  0  0  0  0  0  # atno 10718 bound_to 10713
  154.8682  135.3670  154.5076 H   0  0  0  0  0  0  0  0  0  0  0  0  # atno 10763 bound_to 10752
  153.5713  135.7020  153.5508 H   0  0  0  0  0  0  0  0  0  0  0  0  # atno 10764 bound_to 10752
  153.3539  135.4064  155.1630 H   0  0  0  0  0  0  0  0  0  0  0  0  # atno 10765 bound_to 10752
  140.8025  134.2840  157.4973 H   0  0  0  0  0  0  0  0  0  0  0  0  # atno 11005 bound_to 11000
  144.8458  139.5400  143.6879 LP  0  0  0  0  0  0  0  0  0  0  0  0  # atno 17320 bound_to 7965
  146.2809  139.6875  142.9229 LP  0  0  0  0  0  0  0  0  0  0  0  0  # atno 17321 bound_to 7965
  140.4446  143.2512  151.9428 LP  0  0  0  0  0  0  0  0  0  0  0  0  # atno 17342 bound_to 10162
  139.4784  144.5621  151.8222 LP  0  0  0  0  0  0  0  0  0  0  0  0  # atno 17343 bound_to 10162
  157.7223  131.0673  150.6083 LP  0  0  0  0  0  0  0  0  0  0  0  0  # atno 17370 bound_to 10713
  156.6165  130.4394  149.5839 LP  0  0  0  0  0  0  0  0  0  0  0  0  # atno 17371 bound_to 10713
  139.8720  134.9437  156.3861 LP  0  0  0  0  0  0  0  0  0  0  0  0  # atno 17394 bound_to 11000
  140.9280  133.7599  155.9989 LP  0  0  0  0  0  0  0  0  0  0  0  0  # atno 17395 bound_to 11000

$$$$
