AV-unprocessed.smi:1355|AV-procd|sdf|5539|dock3
  -GOLD-   22720 5133D 1   1.00000     0.00000
 Structure written by MMmdl.
 33 34  0  0  0  0  0  0  0  0  2 V2000
  153.0838  138.5175  154.6836 C   0  0  0  0  0  0  0  0  0  0  0  0
  152.9521  139.2325  155.8992 O   0  0  0  0  0  0  0  0  0  0  0  0
  151.8815  138.7561  156.6983 C   0  0  0  0  0  0  0  0  0  0  0  0
  151.6834  139.6771  157.9109 C   0  0  0  0  0  0  0  0  0  0  0  0
  151.3165  141.0460  157.5165 N   0  0  0  0  0  0  0  0  0  0  0  0
  150.5181  141.4850  156.5008 C   0  0  0  0  0  0  0  0  0  0  0  0
  149.7770  140.6410  155.5109 C   0  0  1  0  0  0  0  0  0  0  0  0
  148.5621  141.3939  154.9542 C   0  0  0  0  0  0  0  0  0  0  0  0
  150.5957  140.2417  154.4312 O   0  0  0  0  0  0  0  0  0  0  0  0
  150.4950  142.8469  156.5678 N   0  3  0  0  0  0  0  0  0  0  0  0
  151.2984  143.2835  157.6210 C   0  0  0  0  0  0  0  0  0  0  0  0
  151.5926  144.5672  158.0700 C   0  0  0  0  0  0  0  0  0  0  0  0
  152.4576  144.6665  159.1796 C   0  0  0  0  0  0  0  0  0  0  0  0
  152.9941  143.5181  159.7970 C   0  0  0  0  0  0  0  0  0  0  0  0
  152.6883  142.2220  159.3322 C   0  0  0  0  0  0  0  0  0  0  0  0
  151.8306  142.1319  158.2358 C   0  0  0  0  0  0  0  0  0  0  0  0
  153.9192  138.9205  154.1113 H   0  0  0  0  0  0  0  0  0  0  0  0
  152.1837  138.6077  154.0742 H   0  0  0  0  0  0  0  0  0  0  0  0
  153.2795  137.4602  154.8667 H   0  0  0  0  0  0  0  0  0  0  0  0
  150.9648  138.7200  156.1078 H   0  0  0  0  0  0  0  0  0  0  0  0
  152.0917  137.7403  157.0363 H   0  0  0  0  0  0  0  0  0  0  0  0
  150.8883  139.2899  158.5486 H   0  0  0  0  0  0  0  0  0  0  0  0
  152.5803  139.7082  158.5295 H   0  0  0  0  0  0  0  0  0  0  0  0
  149.4363  139.7333  156.0094 H   0  0  0  0  0  0  0  0  0  0  0  0
  147.8792  141.6813  155.7542 H   0  0  0  0  0  0  0  0  0  0  0  0
  148.0035  140.7744  154.2519 H   0  0  0  0  0  0  0  0  0  0  0  0
  148.8626  142.3022  154.4308 H   0  0  0  0  0  0  0  0  0  0  0  0
  150.1516  139.5567  153.9548 H   0  0  0  0  0  0  0  0  0  0  0  0
  151.1843  145.4481  157.5967 H   0  0  0  0  0  0  0  0  0  0  0  0
  152.7159  145.6429  159.5634 H   0  0  0  0  0  0  0  0  0  0  0  0
  153.6554  143.6327  160.6438 H   0  0  0  0  0  0  0  0  0  0  0  0
  153.1110  141.3501  159.8090 H   0  0  0  0  0  0  0  0  0  0  0  0
  149.9668  143.4305  155.9317 H   0  0  0  0  0  0  0  0  0  0  0  0
  1  2  1  0  0  0  0
  1 17  1  0  0  0  0
  1 18  1  0  0  0  0
  1 19  1  0  0  0  0
  2  3  1  0  0  0  0
  3  4  1  0  0  0  0
  3 20  1  0  0  0  0
  3 21  1  0  0  0  0
  4  5  1  0  0  0  0
  4 22  1  0  0  0  0
  4 23  1  0  0  0  0
  5 16  1  0  0  0  0
  5  6  1  0  0  0  0
  6  7  1  0  0  0  0
  6 10  2  0  0  0  0
  7  8  1  0  0  0  0
  7  9  1  0  0  0  0
  7 24  1  0  0  0  0
  8 25  1  0  0  0  0
  8 26  1  0  0  0  0
  8 27  1  0  0  0  0
  9 28  1  0  0  0  0
 10 11  1  0  0  0  0
 10 33  1  0  0  0  0
 11 16  2  0  0  0  0
 11 12  1  0  0  0  0
 12 13  2  0  0  0  0
 12 29  1  0  0  0  0
 13 14  1  0  0  0  0
 13 30  1  0  0  0  0
 14 15  2  0  0  0  0
 14 31  1  0  0  0  0
 15 16  1  0  0  0  0
 15 32  1  0  0  0  0
M  CHG  1  10   1
M  END
> <s_m_source_file>
AV-unprocessed.smi

> <i_m_source_file_index>
1355

> <i_lp_mmshare_version>
43012

> <i_f3d_flags>
0

> <s_epik_input>
W0NIM11PW0NIMl1bQ0gyXW4oYyhuMSlbQ0BIXShbQ0gzXSlbT0hdKWMoYzEyKVtjSF1bY0hdW2NIXVtjSF0y

> <s_epik_cmdline>
J2VwaWtfcHl0aG9uJywgJy1waCcsICc3LjAnLCAnLXRuJywgJzgnLCAnLW1hJywgJzIwMCcsICctbWV0YWxfYmluZGluZycsICctaW1hZScsICc8aW5maWxlLm1hZT4nLCAnLW9tYWUnLCAnPG91dGZpbGUubWFlPic=

> <r_epik_Ionization_Penalty>
1.43426

> <r_epik_Ionization_Penalty_Charging>
1.43423

> <r_epik_Ionization_Penalty_Neutral>
2.92192e-05

> <r_epik_State_Penalty>
1.51908

> <r_epik_Charging_Adjusted_Penalty>
2.95331

> <i_epik_Tot_Q>
1

> <i_epik_Tot_abs_Q>
1

> <r_epik_Metal_State_Penalty>
5.5644

> <b_epik_Metal_Only>
0

> <s_lp_Force_Field>
OPLS_2005

> <r_lp_Energy>
11.2179

> <b_lp_Chiralities_Consistent>
1

> <s_lp_Variant>
AV-unprocessed.smi:1355-4

> <Gold.Version>
5.8.1

> <Gold.Id.Protein>
6NUR|6NUR_protein|mol2

> <Gold.PLP.Fitness>
50.1658

> <Gold.PLP.PLP>
-40.1415

> <Gold.PLP.part.hbond>
-2.9063

> <Gold.PLP.part.metal>
0.0000

> <Gold.PLP.part.buried>
-6.1936

> <Gold.PLP.part.nonpolar>
-32.3806

> <Gold.PLP.part.repulsive>
0.0648

> <Gold.PLP.ligand.clash>
0.0000

> <Gold.PLP.ligand.torsion>
0.9957

> <Gold.PLP.Chemscore.Hbond>
4.0000

> <Gold.PLP.Chemscore.CHOScore>
0.0000

> <Gold.PLP.Chemscore.Metal>
0.0000

> <Gold.Chemscore.Hbonds>
donor molecule, donor type, donor heavy atom, donor atom, acceptor molecule, acceptor atom, score
      L1  H    10    33       P1  8028  2.00
      P1  H  7989  7998       L1     9  0.99
      P1  H  7997  8008       L1     2  1.00

> <Gold.PLP.Chemscore.Internal.Correction>
0.0156

> <Gold.Rescore>
     Score         DG    S(hbond)    S(metal)    S(lipo)     H(rot)  DE(clash)    DE(int)     intcor
     19.24     -21.99       2.91        0.00     103.92       2.10       0.15       2.61       ----

> <Gold.Chemscore.Fitness>
19.2358

> <Gold.Chemscore.DG>
-21.9913

> <Gold.Chemscore.ZeroCoef>
-5.4800

> <Gold.Chemscore.Hbond>
2.9141

> <Gold.Chemscore.Metal>
0.0000

> <Gold.Chemscore.Lipo>
103.9196

> <Gold.Chemscore.Internal_Hbond>
0.0000

> <Gold.Chemscore.DEClash>
0.1474

> <Gold.Chemscore.DEInternal>
2.6081

> <Gold.Chemscore.Rot>
2.1017

> <Gold.Chemscore.Internal.Correction>
   9.000000E+99

> <Gold.Chemscore.Hbonds>
donor molecule, donor type, donor heavy atom, donor atom, acceptor molecule, acceptor atom, score
      L1  H    10    33       P1  8028  0.94
      P1  H  7989  7998       L1     9  0.60
      P1  H  7997  8008       L1     2  0.78

> <Gold.Chemscore.Hbond.Weighted>
-9.7330

> <Gold.Chemscore.Metal.Weighted>
-0.0000

> <Gold.Chemscore.Lipo.Weighted>
-12.1586

> <Gold.Chemscore.Internal_Hbond.Weighted>
0.0000

> <Gold.Chemscore.DEClash.Weighted>
0.1474

> <Gold.Chemscore.DEInternal.Weighted>
2.6081

> <Gold.Chemscore.Rot.Weighted>
5.3803

> <Gold.Chemscore.Internal.Correction.Weighted>
   9.000000E+99

> <Gold.Protein.RotatedTorsions>
[ 6907 6896 6895 6894 ] final   22.26 input  -60.11 | X-H torsion
[ 7974 7965 7964 7962 ] final -161.24 input  175.53 | X-H torsion
[ 8008 7997 7996 7995 ] final  -35.97 input   59.86 | X-H torsion
[ 10167 10162 10161 10158 ] final  -18.57 input  -65.29 | X-H torsion
[ 10718 10713 10712 10709 ] final -107.26 input   66.30 | X-H torsion
[ 10763 10752 10751 10750 ] final  -13.15 input  -60.55 | X-H torsion
[ 11005 11000 10999 10996 ] final  -43.91 input  -57.11 | X-H torsion

> <Gold.Protein.ActiveResidues>
 VAL166  LYS551  ARG553  GLY616  TRP617  ASP618  TYR619  PRO620  LYS621  CYS622 
 ASP623  PHE694  ASN695  SER759  ASP760  ASP761  ALA762  ILE779  LEU786  VAL792 
 PHE793  MET794  SER795  GLU796  ALA797  LYS798  CYS799  TRP800  GLU811  SER814 

> <Gold.Protein.RotatedAtoms>
  151.9244  135.0284  160.0524 H   0  0  0  0  0  0  0  0  0  0  0  0  # atno 6907 bound_to 6896
  152.2172  133.4951  159.5150 H   0  0  0  0  0  0  0  0  0  0  0  0  # atno 6908 bound_to 6896
  150.6990  134.1307  159.4111 H   0  0  0  0  0  0  0  0  0  0  0  0  # atno 6909 bound_to 6896
  144.7398  140.3427  143.6131 H   0  0  0  0  0  0  0  0  0  0  0  0  # atno 7974 bound_to 7965
  154.4083  140.1643  156.2297 H   0  0  0  0  0  0  0  0  0  0  0  0  # atno 8008 bound_to 7997
  155.9293  140.3416  155.6213 H   0  0  0  0  0  0  0  0  0  0  0  0  # atno 8009 bound_to 7997
  155.7126  140.0758  157.2355 H   0  0  0  0  0  0  0  0  0  0  0  0  # atno 8010 bound_to 7997
  140.7260  143.4904  151.0000 H   0  0  0  0  0  0  0  0  0  0  0  0  # atno 10167 bound_to 10162
  156.0428  130.5653  150.7796 H   0  0  0  0  0  0  0  0  0  0  0  0  # atno 10718 bound_to 10713
  153.5090  135.7016  153.5791 H   0  0  0  0  0  0  0  0  0  0  0  0  # atno 10763 bound_to 10752
  153.3889  135.3901  155.1909 H   0  0  0  0  0  0  0  0  0  0  0  0  # atno 10764 bound_to 10752
  154.8705  135.3853  154.4568 H   0  0  0  0  0  0  0  0  0  0  0  0  # atno 10765 bound_to 10752
  141.0415  133.6778  156.2799 H   0  0  0  0  0  0  0  0  0  0  0  0  # atno 11005 bound_to 11000
  145.7358  139.1749  143.2404 LP  0  0  0  0  0  0  0  0  0  0  0  0  # atno 17320 bound_to 7965
  146.1172  140.7355  142.9475 LP  0  0  0  0  0  0  0  0  0  0  0  0  # atno 17321 bound_to 7965
  139.8608  143.7317  152.3173 LP  0  0  0  0  0  0  0  0  0  0  0  0  # atno 17342 bound_to 10162
  139.7532  144.7528  151.0475 LP  0  0  0  0  0  0  0  0  0  0  0  0  # atno 17343 bound_to 10162
  157.5267  131.0934  151.0008 LP  0  0  0  0  0  0  0  0  0  0  0  0  # atno 17370 bound_to 10713
  157.0325  130.5717  149.5345 LP  0  0  0  0  0  0  0  0  0  0  0  0  # atno 17371 bound_to 10713
  140.6225  134.5347  157.5549 LP  0  0  0  0  0  0  0  0  0  0  0  0  # atno 17394 bound_to 11000
  139.9279  134.8019  156.1014 LP  0  0  0  0  0  0  0  0  0  0  0  0  # atno 17395 bound_to 11000

$$$$
