AV-unprocessed.smi:2192|AV-procd|sdf|8896|dock3
  -GOLD-   2272012103D 1   1.00000     0.00000
 Structure written by MMmdl.
 42 44  0  0  0  0  0  0  0  0  1 V2000
  151.7293  144.2247  160.4440 C   0  0  0  0  0  0  0  0  0  0  0  0
  151.9775  143.0329  159.6112 N   0  0  0  0  0  0  0  0  0  0  0  0
  151.2907  142.9132  158.4315 C   0  0  0  0  0  0  0  0  0  0  0  0
  150.4745  143.7297  158.0024 O   0  0  0  0  0  0  0  0  0  0  0  0
  151.6068  141.6929  157.6842 C   0  0  0  0  0  0  0  0  0  0  0  0
  152.4988  140.7708  158.1186 C   0  0  0  0  0  0  0  0  0  0  0  0
  152.6119  139.7138  157.2224 N   0  0  0  0  0  0  0  0  0  0  0  0
  151.7533  140.0685  156.2652 C   0  0  0  0  0  0  0  0  0  0  0  0
  151.1082  141.2361  156.4663 N   0  0  0  0  0  0  0  0  0  0  0  0
  150.1248  141.8454  155.5848 C   0  0  0  0  0  0  0  0  0  0  0  0
  149.3257  140.8028  154.7774 C   0  0  2  0  0  0  0  0  0  0  0  0
  149.6987  140.8617  153.4144 O   0  0  0  0  0  0  0  0  0  0  0  0
  147.8096  141.0217  154.8787 C   0  0  0  0  0  0  0  0  0  0  0  0
  147.4742  142.2219  154.1945 O   0  0  0  0  0  0  0  0  0  0  0  0
  146.2732  142.8295  154.4900 C   0  0  0  0  0  0  0  0  0  0  0  0
  145.8385  143.8453  153.6133 C   0  0  0  0  0  0  0  0  0  0  0  0
  144.6226  144.5197  153.8370 C   0  0  0  0  0  0  0  0  0  0  0  0
  143.8265  144.1838  154.9474 C   0  0  0  0  0  0  0  0  0  0  0  0
  142.6574  144.8312  155.1651 F   0  0  0  0  0  0  0  0  0  0  0  0
  144.2486  143.1733  155.8315 C   0  0  0  0  0  0  0  0  0  0  0  0
  145.4640  142.4978  155.6065 C   0  0  0  0  0  0  0  0  0  0  0  0
  153.1574  140.9920  159.3534 N   0  0  0  0  0  0  0  0  0  0  0  0
  154.1165  139.9734  159.7914 C   0  0  0  0  0  0  0  0  0  0  0  0
  152.8974  142.1183  160.0971 C   0  0  0  0  0  0  0  0  0  0  0  0
  153.4710  142.3084  161.1730 O   0  0  0  0  0  0  0  0  0  0  0  0
  151.0052  144.9296  160.0342 H   0  0  0  0  0  0  0  0  0  0  0  0
  152.6541  144.7843  160.5937 H   0  0  0  0  0  0  0  0  0  0  0  0
  151.3527  143.9301  161.4250 H   0  0  0  0  0  0  0  0  0  0  0  0
  151.5846  139.4564  155.3912 H   0  0  0  0  0  0  0  0  0  0  0  0
  149.4579  142.4632  156.1868 H   0  0  0  0  0  0  0  0  0  0  0  0
  150.6411  142.5291  154.9091 H   0  0  0  0  0  0  0  0  0  0  0  0
  149.5593  139.7994  155.1343 H   0  0  0  0  0  0  0  0  0  0  0  0
  149.1527  140.2637  152.9271 H   0  0  0  0  0  0  0  0  0  0  0  0
  147.2782  140.1695  154.4514 H   0  0  0  0  0  0  0  0  0  0  0  0
  147.5213  141.1104  155.9276 H   0  0  0  0  0  0  0  0  0  0  0  0
  146.4442  144.1095  152.7588 H   0  0  0  0  0  0  0  0  0  0  0  0
  144.3017  145.2945  153.1564 H   0  0  0  0  0  0  0  0  0  0  0  0
  143.6392  142.9150  156.6848 H   0  0  0  0  0  0  0  0  0  0  0  0
  145.7536  141.7292  156.3068 H   0  0  0  0  0  0  0  0  0  0  0  0
  154.5863  140.1799  160.7535 H   0  0  0  0  0  0  0  0  0  0  0  0
  154.9148  139.8746  159.0552 H   0  0  0  0  0  0  0  0  0  0  0  0
  153.6195  139.0063  159.8762 H   0  0  0  0  0  0  0  0  0  0  0  0
  1  2  1  0  0  0  0
  1 26  1  0  0  0  0
  1 27  1  0  0  0  0
  1 28  1  0  0  0  0
  2 24  1  0  0  0  0
  2  3  1  0  0  0  0
  3  4  2  0  0  0  0
  3  5  1  0  0  0  0
  5  9  1  0  0  0  0
  5  6  2  0  0  0  0
  6  7  1  0  0  0  0
  6 22  1  0  0  0  0
  7  8  2  0  0  0  0
  8  9  1  0  0  0  0
  8 29  1  0  0  0  0
  9 10  1  0  0  0  0
 10 11  1  0  0  0  0
 10 30  1  0  0  0  0
 10 31  1  0  0  0  0
 11 12  1  0  0  0  0
 11 13  1  0  0  0  0
 11 32  1  0  0  0  0
 12 33  1  0  0  0  0
 13 14  1  0  0  0  0
 13 34  1  0  0  0  0
 13 35  1  0  0  0  0
 14 15  1  0  0  0  0
 15 21  1  0  0  0  0
 15 16  2  0  0  0  0
 16 17  1  0  0  0  0
 16 36  1  0  0  0  0
 17 18  2  0  0  0  0
 17 37  1  0  0  0  0
 18 19  1  0  0  0  0
 18 20  1  0  0  0  0
 20 21  2  0  0  0  0
 20 38  1  0  0  0  0
 21 39  1  0  0  0  0
 22 23  1  0  0  0  0
 22 24  1  0  0  0  0
 23 40  1  0  0  0  0
 23 41  1  0  0  0  0
 23 42  1  0  0  0  0
 24 25  2  0  0  0  0
M  END
> <s_m_source_file>
AV-unprocessed.smi

> <i_m_source_file_index>
2192

> <i_lp_mmshare_version>
43012

> <i_f3d_flags>
0

> <s_epik_input>
Tz1jMW4oW0NIM10pYyg9TyluKFtDSDNdKWMoYzEyKW5bY0hdbjJbQ0gyXVtDQEhdKFtPSF0pW0NIMl1PYzNbY0hdW2NIXWMoRilbY0hdW2NIXTM=

> <s_epik_cmdline>
J2VwaWtfcHl0aG9uJywgJy1waCcsICc3LjAnLCAnLXRuJywgJzgnLCAnLW1hJywgJzIwMCcsICctbWV0YWxfYmluZGluZycsICctaW1hZScsICc8aW5maWxlLm1hZT4nLCAnLW9tYWUnLCAnPG91dGZpbGUubWFlPic=

> <r_lp_tautomer_probability>
1

> <r_epik_Ionization_Penalty>
1.0344e-06

> <r_epik_Ionization_Penalty_Charging>
3.2247e-09

> <r_epik_Ionization_Penalty_Neutral>
1.03118e-06

> <r_epik_State_Penalty>
-0

> <r_epik_Charging_Adjusted_Penalty>
3.2247e-09

> <i_epik_Tot_Q>
0

> <i_epik_Tot_abs_Q>
0

> <r_epik_Metal_State_Penalty>
-0

> <b_epik_Metal_Only>
0

> <s_lp_Force_Field>
OPLS_2005

> <r_lp_Energy>
38.6998

> <b_lp_Chiralities_Consistent>
1

> <s_lp_Variant>
AV-unprocessed.smi:2192-1

> <Gold.Version>
5.8.1

> <Gold.Id.Protein>
6NUR|6NUR_protein|mol2

> <Gold.PLP.Fitness>
55.8481

> <Gold.PLP.PLP>
-50.3982

> <Gold.PLP.part.hbond>
-3.4500

> <Gold.PLP.part.metal>
0.0000

> <Gold.PLP.part.buried>
-6.2906

> <Gold.PLP.part.nonpolar>
-40.5529

> <Gold.PLP.part.repulsive>
0.8652

> <Gold.PLP.ligand.clash>
0.0000

> <Gold.PLP.ligand.torsion>
1.3434

> <Gold.PLP.Chemscore.Hbond>
2.7040

> <Gold.PLP.Chemscore.CHOScore>
0.0000

> <Gold.PLP.Chemscore.Metal>
0.0000

> <Gold.Chemscore.Hbonds>
donor molecule, donor type, donor heavy atom, donor atom, acceptor molecule, acceptor atom, score
      L1  H    12    33       P1  7957  0.30
      P1  H  7989  7998       L1    12  0.29
      P1  H  7997  8009       L1     7  0.95
      P1  H  8011  8017       L1    12  1.00

> <Gold.PLP.Chemscore.Internal.Correction>
0.0248

> <Gold.Rescore>
     Score         DG    S(hbond)    S(metal)    S(lipo)     H(rot)  DE(clash)    DE(int)     intcor
     11.80     -13.55       1.97        0.00      75.81       2.88       0.52       1.23       ----

> <Gold.Chemscore.Fitness>
11.8005

> <Gold.Chemscore.DG>
-13.5539

> <Gold.Chemscore.ZeroCoef>
-5.4800

> <Gold.Chemscore.Hbond>
1.9663

> <Gold.Chemscore.Metal>
0.0000

> <Gold.Chemscore.Lipo>
75.8083

> <Gold.Chemscore.Internal_Hbond>
0.0000

> <Gold.Chemscore.DEClash>
0.5222

> <Gold.Chemscore.DEInternal>
1.2312

> <Gold.Chemscore.Rot>
2.8762

> <Gold.Chemscore.Internal.Correction>
   9.000000E+99

> <Gold.Chemscore.Hbonds>
donor molecule, donor type, donor heavy atom, donor atom, acceptor molecule, acceptor atom, score
      L1  H    12    33       P1  7957  0.30
      P1  H  7989  7998       L1    12  0.13
      P1  H  7997  8009       L1     7  0.12
      P1  H  8011  8017       L1    12  0.49

> <Gold.Chemscore.Hbond.Weighted>
-6.5675

> <Gold.Chemscore.Metal.Weighted>
-0.0000

> <Gold.Chemscore.Lipo.Weighted>
-8.8696

> <Gold.Chemscore.Internal_Hbond.Weighted>
0.0000

> <Gold.Chemscore.DEClash.Weighted>
0.5222

> <Gold.Chemscore.DEInternal.Weighted>
1.2312

> <Gold.Chemscore.Rot.Weighted>
7.3631

> <Gold.Chemscore.Internal.Correction.Weighted>
   9.000000E+99

> <Gold.Protein.RotatedTorsions>
[ 6907 6896 6895 6894 ] final  -57.64 input  -60.11 | X-H torsion
[ 7974 7965 7964 7962 ] final  117.39 input  175.53 | X-H torsion
[ 8008 7997 7996 7995 ] final -172.94 input   59.86 | X-H torsion
[ 10167 10162 10161 10158 ] final  102.22 input  -65.29 | X-H torsion
[ 10718 10713 10712 10709 ] final   44.54 input   66.30 | X-H torsion
[ 10763 10752 10751 10750 ] final  -39.71 input  -60.55 | X-H torsion
[ 11005 11000 10999 10996 ] final    7.98 input  -57.11 | X-H torsion

> <Gold.Protein.ActiveResidues>
 VAL166  LYS551  ARG553  GLY616  TRP617  ASP618  TYR619  PRO620  LYS621  CYS622 
 ASP623  PHE694  ASN695  SER759  ASP760  ASP761  ALA762  ILE779  LEU786  VAL792 
 PHE793  MET794  SER795  GLU796  ALA797  LYS798  CYS799  TRP800  GLU811  SER814 

> <Gold.Protein.RotatedAtoms>
  150.8070  134.7201  159.6652 H   0  0  0  0  0  0  0  0  0  0  0  0  # atno 6907 bound_to 6896
  152.4189  134.5987  160.0004 H   0  0  0  0  0  0  0  0  0  0  0  0  # atno 6908 bound_to 6896
  151.6208  133.3302  159.3123 H   0  0  0  0  0  0  0  0  0  0  0  0  # atno 6909 bound_to 6896
  145.1680  139.3117  143.4482 H   0  0  0  0  0  0  0  0  0  0  0  0  # atno 7974 bound_to 7965
  155.9510  140.1126  157.0977 H   0  0  0  0  0  0  0  0  0  0  0  0  # atno 8008 bound_to 7997
  154.4110  140.1200  156.5119 H   0  0  0  0  0  0  0  0  0  0  0  0  # atno 8009 bound_to 7997
  155.6842  140.3473  155.4869 H   0  0  0  0  0  0  0  0  0  0  0  0  # atno 8010 bound_to 7997
  139.7369  144.7021  151.0635 H   0  0  0  0  0  0  0  0  0  0  0  0  # atno 10167 bound_to 10162
  157.4279  130.8007  149.7575 H   0  0  0  0  0  0  0  0  0  0  0  0  # atno 10718 bound_to 10713
  153.9339  135.6769  153.4745 H   0  0  0  0  0  0  0  0  0  0  0  0  # atno 10763 bound_to 10752
  153.0965  135.4848  154.8786 H   0  0  0  0  0  0  0  0  0  0  0  0  # atno 10764 bound_to 10752
  154.7413  135.3161  154.8681 H   0  0  0  0  0  0  0  0  0  0  0  0  # atno 10765 bound_to 10752
  140.5421  134.0364  155.7908 H   0  0  0  0  0  0  0  0  0  0  0  0  # atno 11005 bound_to 11000
  146.3473  140.1815  142.8589 LP  0  0  0  0  0  0  0  0  0  0  0  0  # atno 17320 bound_to 7965
  145.0262  140.8834  143.5137 LP  0  0  0  0  0  0  0  0  0  0  0  0  # atno 17321 bound_to 7965
  140.7780  143.4973  150.9816 LP  0  0  0  0  0  0  0  0  0  0  0  0  # atno 17342 bound_to 10162
  139.8661  143.7252  152.3170 LP  0  0  0  0  0  0  0  0  0  0  0  0  # atno 17343 bound_to 10162
  155.9903  130.3946  150.3036 LP  0  0  0  0  0  0  0  0  0  0  0  0  # atno 17370 bound_to 10713
  157.1190  131.0241  151.3017 LP  0  0  0  0  0  0  0  0  0  0  0  0  # atno 17371 bound_to 10713
  141.1221  133.9444  157.2709 LP  0  0  0  0  0  0  0  0  0  0  0  0  # atno 17394 bound_to 11000
  139.9498  135.0177  156.8961 LP  0  0  0  0  0  0  0  0  0  0  0  0  # atno 17395 bound_to 11000

$$$$
