AV-unprocessed.smi:1434|AV-procd|sdf|5856|dock7
  -GOLD-   22720 5533D 1   1.00000     0.00000
 Structure written by MMmdl.
 44 45  0  0  0  0  0  0  0  0  3 V2000
  150.6622  138.3381  157.0039 C   0  0  0  0  0  0  0  0  0  0  0  0
  152.2105  138.8677  156.1551 S   0  0  0  0  0  0  0  0  0  0  0  0
  152.9783  137.6384  155.8935 O   0  0  0  0  0  0  0  0  0  0  0  0
  151.7582  139.6281  154.9804 O   0  0  0  0  0  0  0  0  0  0  0  0
  152.8874  139.8495  157.2619 N   0  5  0  0  0  0  0  0  0  0  0  0
  152.0815  140.7452  158.0829 C   0  0  1  0  0  0  0  0  0  0  0  0
  152.9871  141.7401  158.8549 C   0  0  0  0  0  0  0  0  0  0  0  0
  152.1976  142.8849  159.5436 C   0  0  0  0  0  0  0  0  0  0  0  0
  151.2214  143.5972  158.5791 C   0  0  0  0  0  0  0  0  0  0  0  0
  150.3516  142.5591  157.9786 N   0  0  0  0  0  0  0  0  0  0  0  0
  149.0068  142.4523  158.1546 C   0  0  0  0  0  0  0  0  0  0  0  0
  148.3403  141.5068  157.7317 O   0  0  0  0  0  0  0  0  0  0  0  0
  148.4407  143.4704  158.8231 N   0  0  0  0  0  0  0  0  0  0  0  0
  147.0208  143.5746  159.1286 C   0  0  0  0  0  0  0  0  0  0  0  0
  146.7994  143.6599  160.6450 C   0  0  0  0  0  0  0  0  0  0  0  0
  145.3277  143.6680  161.0107 C   0  0  0  0  0  0  0  0  0  0  0  0
  144.8844  143.8696  162.3360 C   0  0  0  0  0  0  0  0  0  0  0  0
  143.4999  143.8757  162.6059 C   0  0  0  0  0  0  0  0  0  0  0  0
  142.5891  143.6797  161.5471 C   0  0  0  0  0  0  0  0  0  0  0  0
  143.0866  143.4853  160.2426 C   0  0  0  0  0  0  0  0  0  0  0  0
  144.4200  143.4884  160.0235 N   0  3  0  0  0  0  0  0  0  0  0  0
  151.1149  141.5660  157.1859 C   0  0  0  0  0  0  0  0  0  0  0  0
  150.0678  137.7344  156.3190 H   0  0  0  0  0  0  0  0  0  0  0  0
  150.0907  139.2179  157.2984 H   0  0  0  0  0  0  0  0  0  0  0  0
  150.9023  137.7459  157.8862 H   0  0  0  0  0  0  0  0  0  0  0  0
  151.4758  140.1958  158.8046 H   0  0  0  0  0  0  0  0  0  0  0  0
  153.5836  141.2092  159.5973 H   0  0  0  0  0  0  0  0  0  0  0  0
  153.6994  142.1888  158.1605 H   0  0  0  0  0  0  0  0  0  0  0  0
  151.6395  142.4908  160.3953 H   0  0  0  0  0  0  0  0  0  0  0  0
  152.8987  143.6106  159.9568 H   0  0  0  0  0  0  0  0  0  0  0  0
  150.6943  144.3886  159.1111 H   0  0  0  0  0  0  0  0  0  0  0  0
  151.7783  144.0954  157.7842 H   0  0  0  0  0  0  0  0  0  0  0  0
  149.0397  144.2178  159.1421 H   0  0  0  0  0  0  0  0  0  0  0  0
  146.6049  144.4592  158.6428 H   0  0  0  0  0  0  0  0  0  0  0  0
  146.5045  142.7059  158.7173 H   0  0  0  0  0  0  0  0  0  0  0  0
  147.2827  142.8174  161.1423 H   0  0  0  0  0  0  0  0  0  0  0  0
  147.2693  144.5615  161.0407 H   0  0  0  0  0  0  0  0  0  0  0  0
  145.5941  144.0212  163.1364 H   0  0  0  0  0  0  0  0  0  0  0  0
  143.1408  144.0300  163.6130 H   0  0  0  0  0  0  0  0  0  0  0  0
  141.5248  143.6802  161.7331 H   0  0  0  0  0  0  0  0  0  0  0  0
  142.4630  143.3298  159.3742 H   0  0  0  0  0  0  0  0  0  0  0  0
  151.6804  142.1025  156.4221 H   0  0  0  0  0  0  0  0  0  0  0  0
  150.4626  140.8858  156.6359 H   0  0  0  0  0  0  0  0  0  0  0  0
  144.7570  143.3478  159.0707 H   0  0  0  0  0  0  0  0  0  0  0  0
  1  2  1  0  0  0  0
  1 23  1  0  0  0  0
  1 24  1  0  0  0  0
  1 25  1  0  0  0  0
  2  3  2  0  0  0  0
  2  4  2  0  0  0  0
  2  5  1  0  0  0  0
  5  6  1  0  0  0  0
  6 22  1  0  0  0  0
  6  7  1  0  0  0  0
  6 26  1  0  0  0  0
  7  8  1  0  0  0  0
  7 27  1  0  0  0  0
  7 28  1  0  0  0  0
  8  9  1  0  0  0  0
  8 29  1  0  0  0  0
  8 30  1  0  0  0  0
  9 10  1  0  0  0  0
  9 31  1  0  0  0  0
  9 32  1  0  0  0  0
 10 11  1  0  0  0  0
 10 22  1  0  0  0  0
 11 12  2  0  0  0  0
 11 13  1  0  0  0  0
 13 14  1  0  0  0  0
 13 33  1  0  0  0  0
 14 15  1  0  0  0  0
 14 34  1  0  0  0  0
 14 35  1  0  0  0  0
 15 16  1  0  0  0  0
 15 36  1  0  0  0  0
 15 37  1  0  0  0  0
 16 21  1  0  0  0  0
 16 17  2  0  0  0  0
 17 18  1  0  0  0  0
 17 38  1  0  0  0  0
 18 19  2  0  0  0  0
 18 39  1  0  0  0  0
 19 20  1  0  0  0  0
 19 40  1  0  0  0  0
 20 21  2  0  0  0  0
 20 41  1  0  0  0  0
 21 44  1  0  0  0  0
 22 42  1  0  0  0  0
 22 43  1  0  0  0  0
M  CHG  1   5  -1
M  CHG  1  21   1
M  END
> <s_m_source_file>
AV-unprocessed.smi

> <i_m_source_file_index>
1434

> <i_lp_mmshare_version>
43012

> <i_f3d_flags>
0

> <s_epik_input>
W0NIM11TKD1PKSg9TylbTkhdW0NAQEhdMVtDSDJdW0NIMl1bQ0gyXU4oW0NIMl0xKUMoPU8pW05IXVtDSDJdW0NIMl1jMltjSF1bY0hdW2NIXVtjSF1uMg==

> <s_epik_cmdline>
J2VwaWtfcHl0aG9uJywgJy1waCcsICc3LjAnLCAnLXRuJywgJzgnLCAnLW1hJywgJzIwMCcsICctbWV0YWxfYmluZGluZycsICctaW1hZScsICc8aW5maWxlLm1hZT4nLCAnLW9tYWUnLCAnPG91dGZpbGUubWFlPic=

> <r_epik_Ionization_Penalty>
8.07847

> <r_epik_Ionization_Penalty_Charging>
8.0784

> <r_epik_Ionization_Penalty_Neutral>
6.25603e-05

> <r_epik_State_Penalty>
8.17261

> <r_epik_Charging_Adjusted_Penalty>
16.251

> <i_epik_Tot_Q>
0

> <i_epik_Tot_abs_Q>
2

> <r_epik_Metal_State_Penalty>
4.14042

> <b_epik_Metal_Only>
1

> <s_lp_Force_Field>
OPLS_2005

> <r_lp_Energy>
28.6508

> <b_lp_Chiralities_Consistent>
1

> <s_lp_Variant>
AV-unprocessed.smi:1434-8

> <Gold.Version>
5.8.1

> <Gold.Id.Protein>
6NUR|6NUR_protein|mol2

> <Gold.PLP.Fitness>
45.0970

> <Gold.PLP.PLP>
-35.9949

> <Gold.PLP.part.hbond>
-4.0000

> <Gold.PLP.part.metal>
0.0000

> <Gold.PLP.part.buried>
-4.8087

> <Gold.PLP.part.nonpolar>
-27.3743

> <Gold.PLP.part.repulsive>
0.2555

> <Gold.PLP.ligand.clash>
0.0000

> <Gold.PLP.ligand.torsion>
0.7172

> <Gold.PLP.Chemscore.Hbond>
3.1560

> <Gold.PLP.Chemscore.CHOScore>
0.0000

> <Gold.PLP.Chemscore.Metal>
0.0000

> <Gold.Chemscore.Hbonds>
donor molecule, donor type, donor heavy atom, donor atom, acceptor molecule, acceptor atom, score
      P1  H  7989  7998       L1     4  1.00
      P1  H  7997  8008       L1     5  2.00
      P1  H 10752 10764       L1     3  0.16

> <Gold.PLP.Chemscore.Internal.Correction>
1.0685

> <Gold.Rescore>
     Score         DG    S(hbond)    S(metal)    S(lipo)     H(rot)  DE(clash)    DE(int)     intcor
     18.12     -19.01       2.49        0.00      83.26       1.77       0.21       0.68       ----

> <Gold.Chemscore.Fitness>
18.1189

> <Gold.Chemscore.DG>
-19.0137

> <Gold.Chemscore.ZeroCoef>
-5.4800

> <Gold.Chemscore.Hbond>
2.4891

> <Gold.Chemscore.Metal>
0.0000

> <Gold.Chemscore.Lipo>
83.2593

> <Gold.Chemscore.Internal_Hbond>
0.0000

> <Gold.Chemscore.DEClash>
0.2146

> <Gold.Chemscore.DEInternal>
0.6802

> <Gold.Chemscore.Rot>
1.7661

> <Gold.Chemscore.Internal.Correction>
   9.000000E+99

> <Gold.Chemscore.Hbonds>
donor molecule, donor type, donor heavy atom, donor atom, acceptor molecule, acceptor atom, score
      P1  H  7989  7998       L1     4  0.96
      P1  H  7997  8008       L1     5  0.34
      P1  H 10752 10764       L1     3  0.16

> <Gold.Chemscore.Hbond.Weighted>
-8.3135

> <Gold.Chemscore.Metal.Weighted>
-0.0000

> <Gold.Chemscore.Lipo.Weighted>
-9.7413

> <Gold.Chemscore.Internal_Hbond.Weighted>
0.0000

> <Gold.Chemscore.DEClash.Weighted>
0.2146

> <Gold.Chemscore.DEInternal.Weighted>
0.6802

> <Gold.Chemscore.Rot.Weighted>
4.5211

> <Gold.Chemscore.Internal.Correction.Weighted>
   9.000000E+99

> <Gold.Protein.RotatedTorsions>
[ 6907 6896 6895 6894 ] final  126.81 input  -60.11 | X-H torsion
[ 7974 7965 7964 7962 ] final    7.03 input  175.53 | X-H torsion
[ 8008 7997 7996 7995 ] final  -59.14 input   59.86 | X-H torsion
[ 10167 10162 10161 10158 ] final -157.06 input  -65.29 | X-H torsion
[ 10718 10713 10712 10709 ] final   31.50 input   66.30 | X-H torsion
[ 10763 10752 10751 10750 ] final  -32.89 input  -60.55 | X-H torsion
[ 11005 11000 10999 10996 ] final -114.94 input  -57.11 | X-H torsion

> <Gold.Protein.ActiveResidues>
 VAL166  LYS551  ARG553  GLY616  TRP617  ASP618  TYR619  PRO620  LYS621  CYS622 
 ASP623  PHE694  ASN695  SER759  ASP760  ASP761  ALA762  ILE779  LEU786  VAL792 
 PHE793  MET794  SER795  GLU796  ALA797  LYS798  CYS799  TRP800  GLU811  SER814 

> <Gold.Protein.RotatedAtoms>
  152.3870  133.6625  159.6206 H   0  0  0  0  0  0  0  0  0  0  0  0  # atno 6907 bound_to 6896
  150.7787  133.9018  159.3352 H   0  0  0  0  0  0  0  0  0  0  0  0  # atno 6908 bound_to 6896
  151.6813  135.0963  160.0268 H   0  0  0  0  0  0  0  0  0  0  0  0  # atno 6909 bound_to 6896
  146.2430  140.0144  142.8403 H   0  0  0  0  0  0  0  0  0  0  0  0  # atno 7974 bound_to 7965
  154.4339  140.1068  156.6068 H   0  0  0  0  0  0  0  0  0  0  0  0  # atno 8008 bound_to 7997
  155.5853  140.3491  155.4532 H   0  0  0  0  0  0  0  0  0  0  0  0  # atno 8009 bound_to 7997
  156.0288  140.1256  157.0270 H   0  0  0  0  0  0  0  0  0  0  0  0  # atno 8010 bound_to 7997
  139.6800  143.9597  152.2331 H   0  0  0  0  0  0  0  0  0  0  0  0  # atno 10167 bound_to 10162
  157.2733  130.7218  149.6516 H   0  0  0  0  0  0  0  0  0  0  0  0  # atno 10718 bound_to 10713
  153.8212  135.6874  153.4827 H   0  0  0  0  0  0  0  0  0  0  0  0  # atno 10763 bound_to 10752
  153.1568  135.4596  154.9714 H   0  0  0  0  0  0  0  0  0  0  0  0  # atno 10764 bound_to 10752
  154.7927  135.3307  154.7684 H   0  0  0  0  0  0  0  0  0  0  0  0  # atno 10765 bound_to 10752
  141.0520  133.9673  157.2820 H   0  0  0  0  0  0  0  0  0  0  0  0  # atno 11005 bound_to 11000
  145.1298  140.9511  143.4551 LP  0  0  0  0  0  0  0  0  0  0  0  0  # atno 17320 bound_to 7965
  145.0399  139.3269  143.5982 LP  0  0  0  0  0  0  0  0  0  0  0  0  # atno 17321 bound_to 7965
  139.9385  144.6697  150.8291 LP  0  0  0  0  0  0  0  0  0  0  0  0  # atno 17342 bound_to 10162
  140.7649  143.3261  151.2514 LP  0  0  0  0  0  0  0  0  0  0  0  0  # atno 17343 bound_to 10162
  155.9663  130.4361  150.5119 LP  0  0  0  0  0  0  0  0  0  0  0  0  # atno 17370 bound_to 10713
  157.3047  131.0652  151.2043 LP  0  0  0  0  0  0  0  0  0  0  0  0  # atno 17371 bound_to 10713
  139.9358  135.0196  156.8550 LP  0  0  0  0  0  0  0  0  0  0  0  0  # atno 17394 bound_to 11000
  140.6037  134.0147  155.7548 LP  0  0  0  0  0  0  0  0  0  0  0  0  # atno 17395 bound_to 11000

$$$$
