AV-unprocessed.smi:53|AV-procd|sdf|513|dock8
  -GOLD-   2262016383D 1   1.00000     0.00000
 Structure written by MMmdl.
 30 31  0  0  0  0  0  0  0  0  1 V2000
  152.7044  140.4484  159.0142 N   0  0  0  0  0  0  0  0  0  0  0  0
  151.9204  140.4220  157.9270 C   0  0  0  0  0  0  0  0  0  0  0  0
  150.5625  140.9141  157.9930 C   0  0  0  0  0  0  0  0  0  0  0  0
  149.8372  140.8561  156.8543 C   0  0  0  0  0  0  0  0  0  0  0  0
  150.3607  140.3588  155.6694 N   0  0  0  0  0  0  0  0  0  0  0  0
  149.5173  140.3050  154.4132 C   0  0  2  0  0  0  0  0  0  0  0  0
  148.9005  141.5413  154.2430 O   0  0  0  0  0  0  0  0  0  0  0  0
  147.6654  141.3410  153.5737 C   0  0  2  0  0  0  0  0  0  0  0  0
  146.7475  142.5537  153.7919 C   0  0  0  0  0  0  0  0  0  0  0  0
  146.7139  142.8973  155.1606 O   0  0  0  0  0  0  0  0  0  0  0  0
  147.1409  140.0524  154.2173 C   0  0  1  0  0  0  0  0  0  0  0  0
  146.2700  139.3807  153.3282 O   0  0  0  0  0  0  0  0  0  0  0  0
  148.4050  139.2322  154.4630 C   0  0  2  0  0  0  0  0  0  0  0  0
  148.3161  138.5363  155.6939 O   0  0  0  0  0  0  0  0  0  0  0  0
  151.6870  139.8660  155.6400 C   0  0  0  0  0  0  0  0  0  0  0  0
  152.1782  139.3802  154.6218 O   0  0  0  0  0  0  0  0  0  0  0  0
  152.4083  139.9361  156.8017 N   0  0  0  0  0  0  0  0  0  0  0  0
  150.1971  140.1667  153.5705 H   0  0  0  0  0  0  0  0  0  0  0  0
  147.8589  141.1753  152.5114 H   0  0  0  0  0  0  0  0  0  0  0  0
  146.6334  140.2795  155.1565 H   0  0  0  0  0  0  0  0  0  0  0  0
  148.5919  138.5214  153.6566 H   0  0  0  0  0  0  0  0  0  0  0  0
  153.6511  140.1009  158.9661 H   0  0  0  0  0  0  0  0  0  0  0  0
  152.3440  140.8164  159.8830 H   0  0  0  0  0  0  0  0  0  0  0  0
  150.1171  141.3137  158.8927 H   0  0  0  0  0  0  0  0  0  0  0  0
  148.8156  141.2070  156.8840 H   0  0  0  0  0  0  0  0  0  0  0  0
  147.1324  143.4175  153.2492 H   0  0  0  0  0  0  0  0  0  0  0  0
  145.7401  142.3611  153.4216 H   0  0  0  0  0  0  0  0  0  0  0  0
  147.5670  143.2177  155.4111 H   0  0  0  0  0  0  0  0  0  0  0  0
  145.5239  139.9356  153.1607 H   0  0  0  0  0  0  0  0  0  0  0  0
  147.8441  139.0778  156.3083 H   0  0  0  0  0  0  0  0  0  0  0  0
  1  2  1  0  0  0  0
  1 22  1  0  0  0  0
  1 23  1  0  0  0  0
  2 17  2  0  0  0  0
  2  3  1  0  0  0  0
  3  4  2  0  0  0  0
  3 24  1  0  0  0  0
  4  5  1  0  0  0  0
  4 25  1  0  0  0  0
  5  6  1  0  0  0  0
  5 15  1  0  0  0  0
  6 18  1  0  0  0  0
  6 13  1  0  0  0  0
  6  7  1  0  0  0  0
  7  8  1  0  0  0  0
  8 19  1  0  0  0  0
  8  9  1  0  0  0  0
  8 11  1  0  0  0  0
  9 10  1  0  0  0  0
  9 26  1  0  0  0  0
  9 27  1  0  0  0  0
 10 28  1  0  0  0  0
 11 20  1  0  0  0  0
 11 12  1  0  0  0  0
 11 13  1  0  0  0  0
 12 29  1  0  0  0  0
 13 21  1  0  0  0  0
 13 14  1  0  0  0  0
 14 30  1  0  0  0  0
 15 16  2  0  0  0  0
 15 17  1  0  0  0  0
M  END
> <s_m_source_file>
AV-unprocessed.smi

> <i_m_source_file_index>
53

> <i_lp_mmshare_version>
43012

> <i_f3d_flags>
0

> <s_epik_input>
W05IMl1jMVtjSF1bY0hdbihjKD1PKW4xKVtDQEBIXTJPW0NASF0oW0NIMl1bT0hdKVtDQEBIXShbT0hdKVtDQEBIXTJbT0hd

> <s_epik_cmdline>
J2VwaWtfcHl0aG9uJywgJy1waCcsICc3LjAnLCAnLXRuJywgJzgnLCAnLW1hJywgJzIwMCcsICctbWV0YWxfYmluZGluZycsICctaW1hZScsICc8aW5maWxlLm1hZT4nLCAnLW9tYWUnLCAnPG91dGZpbGUubWFlPic=

> <r_lp_tautomer_probability>
0.99996

> <r_epik_Ionization_Penalty>
0.00069087

> <r_epik_Ionization_Penalty_Charging>
2.61959e-08

> <r_epik_Ionization_Penalty_Neutral>
0.000690844

> <r_epik_State_Penalty>
1.15523e-05

> <r_epik_Charging_Adjusted_Penalty>
1.15785e-05

> <i_epik_Tot_Q>
0

> <i_epik_Tot_abs_Q>
0

> <r_epik_Metal_State_Penalty>
-0

> <b_epik_Metal_Only>
0

> <s_epik_Chemistry_Notes>
This compound contains an acetal/aminal-like group ( X-CH(R)-Y where X, Y are N, S, or O) that may be acid/base labile, releasing an aldehyde.

> <s_lp_Force_Field>
OPLS_2005

> <r_lp_Energy>
35.6127

> <b_lp_Chiralities_Consistent>
1

> <s_lp_Variant>
AV-unprocessed.smi:53-1

> <Gold.Version>
5.8.1

> <Gold.Id.Protein>
6NUR|6NUR_protein|mol2

> <Gold.PLP.Fitness>
37.3084

> <Gold.PLP.PLP>
-26.5202

> <Gold.PLP.part.hbond>
-5.0000

> <Gold.PLP.part.metal>
0.0000

> <Gold.PLP.part.buried>
-3.0698

> <Gold.PLP.part.nonpolar>
-17.7322

> <Gold.PLP.part.repulsive>
0.3479

> <Gold.PLP.ligand.clash>
0.0000

> <Gold.PLP.ligand.torsion>
0.3096

> <Gold.PLP.Chemscore.Hbond>
3.7138

> <Gold.PLP.Chemscore.CHOScore>
0.0000

> <Gold.PLP.Chemscore.Metal>
0.0000

> <Gold.Chemscore.Hbonds>
donor molecule, donor type, donor heavy atom, donor atom, acceptor molecule, acceptor atom, score
      L1  H    10    28       P1  8028  0.94
      L1  H    12    29       P1 10175  0.98
      P1  H  7989  7998       L1    16  0.61
      P1  H  7997  8009       L1    17  1.00
      P1  H  8011  8017       L1     7  0.11

> <Gold.PLP.Chemscore.Internal.Correction>
0.2659

> <Gold.Rescore>
     Score         DG    S(hbond)    S(metal)    S(lipo)     H(rot)  DE(clash)    DE(int)     intcor
      5.63      -7.26       2.26        0.00      31.75       3.71       0.24       1.39       ----

> <Gold.Chemscore.Fitness>
5.6323

> <Gold.Chemscore.DG>
-7.2572

> <Gold.Chemscore.ZeroCoef>
-5.4800

> <Gold.Chemscore.Hbond>
2.2631

> <Gold.Chemscore.Metal>
0.0000

> <Gold.Chemscore.Lipo>
31.7517

> <Gold.Chemscore.Internal_Hbond>
0.0000

> <Gold.Chemscore.DEClash>
0.2381

> <Gold.Chemscore.DEInternal>
1.3868

> <Gold.Chemscore.Rot>
3.7095

> <Gold.Chemscore.Internal.Correction>
   9.000000E+99

> <Gold.Chemscore.Hbonds>
donor molecule, donor type, donor heavy atom, donor atom, acceptor molecule, acceptor atom, score
      L1  H    10    28       P1  8028  0.20
      L1  H    12    29       P1 10175  0.92
      P1  H  7989  7998       L1    16  0.07
      P1  H  7997  8009       L1    17  0.79

> <Gold.Chemscore.Hbond.Weighted>
-7.5586

> <Gold.Chemscore.Metal.Weighted>
-0.0000

> <Gold.Chemscore.Lipo.Weighted>
-3.7150

> <Gold.Chemscore.Internal_Hbond.Weighted>
0.0000

> <Gold.Chemscore.DEClash.Weighted>
0.2381

> <Gold.Chemscore.DEInternal.Weighted>
1.3868

> <Gold.Chemscore.Rot.Weighted>
9.4964

> <Gold.Chemscore.Internal.Correction.Weighted>
   9.000000E+99

> <Gold.Protein.RotatedTorsions>
[ 6907 6896 6895 6894 ] final   59.68 input  -60.11 | X-H torsion
[ 7974 7965 7964 7962 ] final  -75.01 input  175.53 | X-H torsion
[ 8008 7997 7996 7995 ] final -172.27 input   59.86 | X-H torsion
[ 10167 10162 10161 10158 ] final -162.49 input  -65.29 | X-H torsion
[ 10718 10713 10712 10709 ] final   82.77 input   66.30 | X-H torsion
[ 10763 10752 10751 10750 ] final  -81.95 input  -60.55 | X-H torsion
[ 11005 11000 10999 10996 ] final   92.79 input  -57.11 | X-H torsion

> <Gold.Protein.ActiveResidues>
 VAL166  LYS551  ARG553  GLY616  TRP617  ASP618  TYR619  PRO620  LYS621  CYS622 
 ASP623  PHE694  ASN695  SER759  ASP760  ASP761  ALA762  ILE779  LEU786  VAL792 
 PHE793  MET794  SER795  GLU796  ALA797  LYS798  CYS799  TRP800  GLU811  SER814 

> <Gold.Protein.RotatedAtoms>
  152.3937  134.6401  160.0097 H   0  0  0  0  0  0  0  0  0  0  0  0  # atno 6907 bound_to 6896
  151.6627  133.3311  159.3186 H   0  0  0  0  0  0  0  0  0  0  0  0  # atno 6908 bound_to 6896
  150.7848  134.6867  159.6519 H   0  0  0  0  0  0  0  0  0  0  0  0  # atno 6909 bound_to 6896
  145.6316  140.9336  143.1084 H   0  0  0  0  0  0  0  0  0  0  0  0  # atno 7974 bound_to 7965
  155.9424  140.1111  157.1044 H   0  0  0  0  0  0  0  0  0  0  0  0  # atno 8008 bound_to 7997
  154.4092  140.1216  156.5011 H   0  0  0  0  0  0  0  0  0  0  0  0  # atno 8009 bound_to 7997
  155.6945  140.3472  155.4909 H   0  0  0  0  0  0  0  0  0  0  0  0  # atno 8010 bound_to 7997
  139.6388  144.0298  152.2076 H   0  0  0  0  0  0  0  0  0  0  0  0  # atno 10167 bound_to 10162
  157.6864  131.0062  150.2424 H   0  0  0  0  0  0  0  0  0  0  0  0  # atno 10718 bound_to 10713
  154.5698  135.5608  153.7085 H   0  0  0  0  0  0  0  0  0  0  0  0  # atno 10763 bound_to 10752
  153.0045  135.6294  154.2129 H   0  0  0  0  0  0  0  0  0  0  0  0  # atno 10764 bound_to 10752
  154.2069  135.2875  155.2951 H   0  0  0  0  0  0  0  0  0  0  0  0  # atno 10765 bound_to 10752
  139.8818  134.8753  156.3623 H   0  0  0  0  0  0  0  0  0  0  0  0  # atno 11005 bound_to 11000
  144.7191  139.8091  143.7388 LP  0  0  0  0  0  0  0  0  0  0  0  0  # atno 17320 bound_to 7965
  146.1352  139.4396  143.0143 LP  0  0  0  0  0  0  0  0  0  0  0  0  # atno 17321 bound_to 7965
  139.9983  144.6312  150.7753 LP  0  0  0  0  0  0  0  0  0  0  0  0  # atno 17342 bound_to 10162
  140.7480  143.2915  151.3318 LP  0  0  0  0  0  0  0  0  0  0  0  0  # atno 17343 bound_to 10162
  156.3036  130.3762  149.7727 LP  0  0  0  0  0  0  0  0  0  0  0  0  # atno 17370 bound_to 10713
  156.5350  130.8274  151.3250 LP  0  0  0  0  0  0  0  0  0  0  0  0  # atno 17371 bound_to 10713
  140.9520  133.7444  156.0285 LP  0  0  0  0  0  0  0  0  0  0  0  0  # atno 17394 bound_to 11000
  140.8093  134.3417  157.5416 LP  0  0  0  0  0  0  0  0  0  0  0  0  # atno 17395 bound_to 11000

$$$$
