AV-unprocessed.smi:1846|AV-procd|sdf|7514|dock9
  -GOLD-   22720 9223D 1   1.00000     0.00000
 Structure written by MMmdl.
 37 38  0  0  0  0  0  0  0  0  1 V2000
  151.0267  144.8249  159.4255 C   0  0  0  0  0  0  0  0  0  0  0  0
  152.4475  144.2860  159.2034 C   0  0  0  0  0  0  0  0  0  0  0  0
  152.4557  142.8278  159.0163 N   0  0  0  0  0  0  0  0  0  0  0  0
  153.2282  142.0890  160.0248 C   0  0  0  0  0  0  0  0  0  0  0  0
  152.7680  142.4255  161.4517 C   0  0  0  0  0  0  0  0  0  0  0  0
  151.7840  142.2483  157.9888 C   0  0  0  0  0  0  0  0  0  0  0  0
  151.1603  142.9183  157.1623 O   0  0  0  0  0  0  0  0  0  0  0  0
  151.7775  140.7102  157.8667 C   0  0  0  0  0  0  0  0  0  0  0  0
  151.1597  140.2466  156.5769 C   0  0  0  0  0  0  0  0  0  0  0  0
  151.6248  139.2552  155.7476 C   0  0  0  0  0  0  0  0  0  0  0  0
  150.5975  139.0298  154.3587 S   0  0  0  0  0  0  0  0  0  0  0  0
  149.5572  140.3238  154.9607 C   0  0  0  0  0  0  0  0  0  0  0  0
  148.3687  140.8122  154.3416 N   0  0  0  0  0  0  0  0  0  0  0  0
  147.8897  142.1721  154.5679 C   0  0  0  0  0  0  0  0  0  0  0  0
  146.6242  142.2600  153.7208 C   0  0  0  0  0  0  0  0  0  0  0  0
  146.5556  140.9402  153.1392 N   0  0  0  0  0  0  0  0  0  0  0  0
  147.5550  140.1353  153.5071 C   0  0  0  0  0  0  0  0  0  0  0  0
  147.6766  138.9729  153.1259 O   0  0  0  0  0  0  0  0  0  0  0  0
  149.9883  140.8525  156.1107 N   0  0  0  0  0  0  0  0  0  0  0  0
  151.0428  145.9043  159.5758 H   0  0  0  0  0  0  0  0  0  0  0  0
  150.5691  144.3742  160.3064 H   0  0  0  0  0  0  0  0  0  0  0  0
  150.3815  144.6211  158.5707 H   0  0  0  0  0  0  0  0  0  0  0  0
  152.9006  144.7803  158.3424 H   0  0  0  0  0  0  0  0  0  0  0  0
  153.0757  144.5628  160.0512 H   0  0  0  0  0  0  0  0  0  0  0  0
  153.1213  141.0161  159.8571 H   0  0  0  0  0  0  0  0  0  0  0  0
  154.2968  142.2771  159.9198 H   0  0  0  0  0  0  0  0  0  0  0  0
  153.3523  141.8703  162.1857 H   0  0  0  0  0  0  0  0  0  0  0  0
  151.7201  142.1624  161.5977 H   0  0  0  0  0  0  0  0  0  0  0  0
  152.8760  143.4856  161.6780 H   0  0  0  0  0  0  0  0  0  0  0  0
  152.7916  140.3197  157.9378 H   0  0  0  0  0  0  0  0  0  0  0  0
  151.2265  140.3000  158.7135 H   0  0  0  0  0  0  0  0  0  0  0  0
  152.5032  138.6399  155.8739 H   0  0  0  0  0  0  0  0  0  0  0  0
  147.6736  142.3340  155.6250 H   0  0  0  0  0  0  0  0  0  0  0  0
  148.6349  142.9020  154.2487 H   0  0  0  0  0  0  0  0  0  0  0  0
  145.7390  142.4605  154.3254 H   0  0  0  0  0  0  0  0  0  0  0  0
  146.7036  143.0194  152.9420 H   0  0  0  0  0  0  0  0  0  0  0  0
  145.8124  140.6622  152.5146 H   0  0  0  0  0  0  0  0  0  0  0  0
  1  2  1  0  0  0  0
  1 20  1  0  0  0  0
  1 21  1  0  0  0  0
  1 22  1  0  0  0  0
  2  3  1  0  0  0  0
  2 23  1  0  0  0  0
  2 24  1  0  0  0  0
  3  4  1  0  0  0  0
  3  6  1  0  0  0  0
  4  5  1  0  0  0  0
  4 25  1  0  0  0  0
  4 26  1  0  0  0  0
  5 27  1  0  0  0  0
  5 28  1  0  0  0  0
  5 29  1  0  0  0  0
  6  7  2  0  0  0  0
  6  8  1  0  0  0  0
  8  9  1  0  0  0  0
  8 30  1  0  0  0  0
  8 31  1  0  0  0  0
  9 19  1  0  0  0  0
  9 10  2  0  0  0  0
 10 11  1  0  0  0  0
 10 32  1  0  0  0  0
 11 12  1  0  0  0  0
 12 13  1  0  0  0  0
 12 19  2  0  0  0  0
 13 17  1  0  0  0  0
 13 14  1  0  0  0  0
 14 15  1  0  0  0  0
 14 33  1  0  0  0  0
 14 34  1  0  0  0  0
 15 16  1  0  0  0  0
 15 35  1  0  0  0  0
 15 36  1  0  0  0  0
 16 17  1  0  0  0  0
 16 37  1  0  0  0  0
 17 18  2  0  0  0  0
M  END
> <s_m_source_file>
AV-unprocessed.smi

> <i_m_source_file_index>
1846

> <i_lp_mmshare_version>
43012

> <i_f3d_flags>
0

> <s_epik_input>
W0NIM11bQ0gyXU4oW0NIMl1bQ0gzXSlDKD1PKVtDSDJdYzFbY0hdc2MobjEpTjJbQ0gyXVtDSDJdW05IXUMyPU8=

> <s_epik_cmdline>
J2VwaWtfcHl0aG9uJywgJy1waCcsICc3LjAnLCAnLXRuJywgJzgnLCAnLW1hJywgJzIwMCcsICctbWV0YWxfYmluZGluZycsICctaW1hZScsICc8aW5maWxlLm1hZT4nLCAnLW9tYWUnLCAnPG91dGZpbGUubWFlPic=

> <r_lp_tautomer_probability>
1

> <r_epik_Ionization_Penalty>
0.000125664

> <r_epik_Ionization_Penalty_Charging>
0

> <r_epik_Ionization_Penalty_Neutral>
0.000125664

> <r_epik_State_Penalty>
-0

> <r_epik_Charging_Adjusted_Penalty>
0

> <i_epik_Tot_Q>
0

> <i_epik_Tot_abs_Q>
0

> <r_epik_Metal_State_Penalty>
-0

> <b_epik_Metal_Only>
0

> <s_lp_Force_Field>
OPLS_2005

> <r_lp_Energy>
40.7708

> <b_lp_Chiralities_Consistent>
1

> <s_lp_Variant>
AV-unprocessed.smi:1846-1

> <Gold.Version>
5.8.1

> <Gold.Id.Protein>
6NUR|6NUR_protein|mol2

> <Gold.PLP.Fitness>
45.4651

> <Gold.PLP.PLP>
-43.9191

> <Gold.PLP.part.hbond>
-1.0000

> <Gold.PLP.part.metal>
0.0000

> <Gold.PLP.part.buried>
-4.8365

> <Gold.PLP.part.nonpolar>
-39.6135

> <Gold.PLP.part.repulsive>
0.8189

> <Gold.PLP.ligand.clash>
0.0000

> <Gold.PLP.ligand.torsion>
0.6068

> <Gold.PLP.Chemscore.Hbond>
0.9120

> <Gold.PLP.Chemscore.CHOScore>
0.0000

> <Gold.PLP.Chemscore.Metal>
0.0000

> <Gold.Chemscore.Hbonds>
donor molecule, donor type, donor heavy atom, donor atom, acceptor molecule, acceptor atom, score
      L1  H    16    37       P1 10175  0.62

> <Gold.PLP.Chemscore.Internal.Correction>
0.0236

> <Gold.Rescore>
     Score         DG    S(hbond)    S(metal)    S(lipo)     H(rot)  DE(clash)    DE(int)     intcor
     12.08     -14.54       0.93        0.00      87.18       1.66       0.13       2.33       ----

> <Gold.Chemscore.Fitness>
12.0762

> <Gold.Chemscore.DG>
-14.5378

> <Gold.Chemscore.ZeroCoef>
-5.4800

> <Gold.Chemscore.Hbond>
0.9287

> <Gold.Chemscore.Metal>
0.0000

> <Gold.Chemscore.Lipo>
87.1839

> <Gold.Chemscore.Internal_Hbond>
0.0000

> <Gold.Chemscore.DEClash>
0.1310

> <Gold.Chemscore.DEInternal>
2.3305

> <Gold.Chemscore.Rot>
1.6581

> <Gold.Chemscore.Internal.Correction>
   9.000000E+99

> <Gold.Chemscore.Hbonds>
donor molecule, donor type, donor heavy atom, donor atom, acceptor molecule, acceptor atom, score
      L1  H    16    37       P1 10175  0.21

> <Gold.Chemscore.Hbond.Weighted>
-3.1020

> <Gold.Chemscore.Metal.Weighted>
-0.0000

> <Gold.Chemscore.Lipo.Weighted>
-10.2005

> <Gold.Chemscore.Internal_Hbond.Weighted>
0.0000

> <Gold.Chemscore.DEClash.Weighted>
0.1310

> <Gold.Chemscore.DEInternal.Weighted>
2.3305

> <Gold.Chemscore.Rot.Weighted>
4.2447

> <Gold.Chemscore.Internal.Correction.Weighted>
   9.000000E+99

> <Gold.Protein.RotatedTorsions>
[ 6907 6896 6895 6894 ] final -145.92 input  -60.11 | X-H torsion
[ 7974 7965 7964 7962 ] final -173.41 input  175.53 | X-H torsion
[ 8008 7997 7996 7995 ] final   41.45 input   59.86 | X-H torsion
[ 10167 10162 10161 10158 ] final -176.35 input  -65.29 | X-H torsion
[ 10718 10713 10712 10709 ] final  116.06 input   66.30 | X-H torsion
[ 10763 10752 10751 10750 ] final   73.91 input  -60.55 | X-H torsion
[ 11005 11000 10999 10996 ] final  152.14 input  -57.11 | X-H torsion

> <Gold.Protein.ActiveResidues>
 VAL166  LYS551  ARG553  GLY616  TRP617  ASP618  TYR619  PRO620  LYS621  CYS622 
 ASP623  PHE694  ASN695  SER759  ASP760  ASP761  ALA762  ILE779  LEU786  VAL792 
 PHE793  MET794  SER795  GLU796  ALA797  LYS798  CYS799  TRP800  GLU811  SER814 

> <Gold.Protein.RotatedAtoms>
  151.1345  133.5014  159.2598 H   0  0  0  0  0  0  0  0  0  0  0  0  # atno 6907 bound_to 6896
  151.1722  135.0322  159.8766 H   0  0  0  0  0  0  0  0  0  0  0  0  # atno 6908 bound_to 6896
  152.5461  134.1206  159.8451 H   0  0  0  0  0  0  0  0  0  0  0  0  # atno 6909 bound_to 6896
  144.7138  140.1627  143.6374 H   0  0  0  0  0  0  0  0  0  0  0  0  # atno 7974 bound_to 7965
  155.2699  140.3365  155.4266 H   0  0  0  0  0  0  0  0  0  0  0  0  # atno 8008 bound_to 7997
  156.2137  140.1780  156.7679 H   0  0  0  0  0  0  0  0  0  0  0  0  # atno 8009 bound_to 7997
  154.5723  140.0668  156.8967 H   0  0  0  0  0  0  0  0  0  0  0  0  # atno 8010 bound_to 7997
  139.5534  144.2051  152.1117 H   0  0  0  0  0  0  0  0  0  0  0  0  # atno 10167 bound_to 10162
  157.6184  131.1020  150.7418 H   0  0  0  0  0  0  0  0  0  0  0  0  # atno 10718 bound_to 10713
  153.0552  135.5045  154.7964 H   0  0  0  0  0  0  0  0  0  0  0  0  # atno 10763 bound_to 10752
  154.6796  135.2966  154.9634 H   0  0  0  0  0  0  0  0  0  0  0  0  # atno 10764 bound_to 10752
  154.0425  135.6715  153.4844 H   0  0  0  0  0  0  0  0  0  0  0  0  # atno 10765 bound_to 10752
  140.1282  134.8819  157.2166 H   0  0  0  0  0  0  0  0  0  0  0  0  # atno 11005 bound_to 11000
  145.9016  139.2434  143.1490 LP  0  0  0  0  0  0  0  0  0  0  0  0  # atno 17320 bound_to 7965
  145.9805  140.8686  143.0117 LP  0  0  0  0  0  0  0  0  0  0  0  0  # atno 17321 bound_to 7965
  140.1551  144.5078  150.6665 LP  0  0  0  0  0  0  0  0  0  0  0  0  # atno 17342 bound_to 10162
  140.6802  143.2323  151.5405 LP  0  0  0  0  0  0  0  0  0  0  0  0  # atno 17343 bound_to 10162
  156.7781  130.4850  149.5406 LP  0  0  0  0  0  0  0  0  0  0  0  0  # atno 17370 bound_to 10713
  156.1317  130.6182  151.0342 LP  0  0  0  0  0  0  0  0  0  0  0  0  # atno 17371 bound_to 10713
  140.2877  134.3277  155.7324 LP  0  0  0  0  0  0  0  0  0  0  0  0  # atno 17394 bound_to 11000
  141.2165  133.7516  156.9457 LP  0  0  0  0  0  0  0  0  0  0  0  0  # atno 17395 bound_to 11000

$$$$
