AV-unprocessed.smi:610|AV-procd|sdf|3054|dock4
  -GOLD-   2262023573D 1   1.00000     0.00000
 Structure written by MMmdl.
 39 40  0  0  0  0  0  0  0  0  3 V2000
  148.9899  141.9011  157.3674 C   0  0  0  0  0  0  0  0  0  0  0  0
  150.3844  141.5158  156.8557 C   0  0  1  0  0  0  0  0  0  0  0  0
  151.3970  141.4264  158.0178 C   0  0  0  0  0  0  0  0  0  0  0  0
  151.8018  142.7401  158.5309 N   0  0  0  0  0  0  0  0  0  0  0  0
  151.4549  143.9695  158.0318 C   0  0  0  0  0  0  0  0  0  0  0  0
  152.0677  144.9019  158.8286 C   0  0  0  0  0  0  0  0  0  0  0  0
  152.7555  144.2035  159.7844 N   0  3  0  0  0  0  0  0  0  0  0  0
  152.5866  142.8893  159.6062 C   0  0  0  0  0  0  0  0  0  0  0  0
  150.2875  140.2428  156.1420 N   0  0  0  0  0  0  0  0  0  0  0  0
  149.6507  140.0338  154.9763 C   0  0  0  0  0  0  0  0  0  0  0  0
  149.0602  140.9336  154.3780 O   0  0  0  0  0  0  0  0  0  0  0  0
  149.6537  138.6046  154.3832 C   0  0  0  0  0  0  0  0  0  0  0  0
  148.8283  138.6376  153.1617 N   0  3  0  0  0  0  0  0  0  0  0  0
  151.0886  138.1363  154.0749 C   0  0  0  0  0  0  0  0  0  0  0  0
  151.6256  137.5505  155.3897 C   0  0  0  0  0  0  0  0  0  0  0  0
  150.3932  137.1834  156.2313 C   0  0  0  0  0  0  0  0  0  0  0  0
  149.1773  137.5021  155.3517 C   0  0  0  0  0  0  0  0  0  0  0  0
  149.0118  142.8642  157.8784 H   0  0  0  0  0  0  0  0  0  0  0  0
  148.6058  141.1614  158.0709 H   0  0  0  0  0  0  0  0  0  0  0  0
  148.2770  141.9822  156.5462 H   0  0  0  0  0  0  0  0  0  0  0  0
  150.7024  142.3019  156.1681 H   0  0  0  0  0  0  0  0  0  0  0  0
  150.9620  140.8803  158.8557 H   0  0  0  0  0  0  0  0  0  0  0  0
  152.2899  140.8772  157.7141 H   0  0  0  0  0  0  0  0  0  0  0  0
  150.8196  144.0864  157.1657 H   0  0  0  0  0  0  0  0  0  0  0  0
  152.0644  145.9816  158.7888 H   0  0  0  0  0  0  0  0  0  0  0  0
  153.0079  142.1043  160.2086 H   0  0  0  0  0  0  0  0  0  0  0  0
  150.7435  139.4521  156.5745 H   0  0  0  0  0  0  0  0  0  0  0  0
  148.7303  137.7030  152.7920 H   0  0  0  0  0  0  0  0  0  0  0  0
  149.2759  139.2274  152.4743 H   0  0  0  0  0  0  0  0  0  0  0  0
  151.0657  137.3490  153.3196 H   0  0  0  0  0  0  0  0  0  0  0  0
  151.7380  138.9221  153.6864 H   0  0  0  0  0  0  0  0  0  0  0  0
  152.2615  136.6844  155.2029 H   0  0  0  0  0  0  0  0  0  0  0  0
  152.2305  138.2885  155.9168 H   0  0  0  0  0  0  0  0  0  0  0  0
  150.4016  136.1373  156.5391 H   0  0  0  0  0  0  0  0  0  0  0  0
  150.3723  137.7896  157.1379 H   0  0  0  0  0  0  0  0  0  0  0  0
  148.2933  137.7614  155.9357 H   0  0  0  0  0  0  0  0  0  0  0  0
  148.9150  136.6083  154.7829 H   0  0  0  0  0  0  0  0  0  0  0  0
  147.9164  139.0125  153.3801 H   0  0  0  0  0  0  0  0  0  0  0  0
  153.3073  144.6201  160.5242 H   0  0  0  0  0  0  0  0  0  0  0  0
  1  2  1  0  0  0  0
  1 18  1  0  0  0  0
  1 19  1  0  0  0  0
  1 20  1  0  0  0  0
  2  3  1  0  0  0  0
  2  9  1  0  0  0  0
  2 21  1  0  0  0  0
  3  4  1  0  0  0  0
  3 22  1  0  0  0  0
  3 23  1  0  0  0  0
  4  8  1  0  0  0  0
  4  5  1  0  0  0  0
  5  6  2  0  0  0  0
  5 24  1  0  0  0  0
  6  7  1  0  0  0  0
  6 25  1  0  0  0  0
  7  8  2  0  0  0  0
  7 39  1  0  0  0  0
  8 26  1  0  0  0  0
  9 10  1  0  0  0  0
  9 27  1  0  0  0  0
 10 11  2  0  0  0  0
 10 12  1  0  0  0  0
 12 17  1  0  0  0  0
 12 13  1  0  0  0  0
 12 14  1  0  0  0  0
 13 28  1  0  0  0  0
 13 29  1  0  0  0  0
 13 38  1  0  0  0  0
 14 15  1  0  0  0  0
 14 30  1  0  0  0  0
 14 31  1  0  0  0  0
 15 16  1  0  0  0  0
 15 32  1  0  0  0  0
 15 33  1  0  0  0  0
 16 17  1  0  0  0  0
 16 34  1  0  0  0  0
 16 35  1  0  0  0  0
 17 36  1  0  0  0  0
 17 37  1  0  0  0  0
M  CHG  1   7   1
M  CHG  1  13   1
M  END
> <s_m_source_file>
AV-unprocessed.smi

> <i_m_source_file_index>
610

> <i_lp_mmshare_version>
43012

> <i_f3d_flags>
0

> <s_epik_input>
W2NIXTFuW2NIXVtjSF1uMVtDSDJdW0NAQEhdKFtDSDNdKVtOSF1DKD1PKUMyKFtOSDJdKVtDSDJdW0NIMl1bQ0gyXVtDSDJdMg==

> <s_epik_cmdline>
J2VwaWtfcHl0aG9uJywgJy1waCcsICc3LjAnLCAnLXRuJywgJzgnLCAnLW1hJywgJzIwMCcsICctbWV0YWxfYmluZGluZycsICctaW1hZScsICc8aW5maWxlLm1hZT4nLCAnLW9tYWUnLCAnPG91dGZpbGUubWFlPic=

> <r_lp_tautomer_probability>
1

> <r_epik_Ionization_Penalty>
0.349719

> <r_epik_Ionization_Penalty_Charging>
0.0753376

> <r_epik_Ionization_Penalty_Neutral>
0.274381

> <r_epik_State_Penalty>
0.326418

> <r_epik_Charging_Adjusted_Penalty>
0.401755

> <i_epik_Tot_Q>
2

> <i_epik_Tot_abs_Q>
2

> <r_epik_Metal_State_Penalty>
0.608513

> <b_epik_Metal_Only>
0

> <s_lp_Force_Field>
OPLS_2005

> <r_lp_Energy>
30.9651

> <b_lp_Chiralities_Consistent>
1

> <s_lp_Variant>
AV-unprocessed.smi:610-2

> <Gold.Version>
5.8.1

> <Gold.Id.Protein>
6NUR|6NUR_protein|mol2

> <Gold.PLP.Fitness>
45.0372

> <Gold.PLP.PLP>
-33.5272

> <Gold.PLP.part.hbond>
-2.0637

> <Gold.PLP.part.metal>
0.0000

> <Gold.PLP.part.buried>
-4.4262

> <Gold.PLP.part.nonpolar>
-27.5563

> <Gold.PLP.part.repulsive>
0.2913

> <Gold.PLP.ligand.clash>
0.0000

> <Gold.PLP.ligand.torsion>
0.2758

> <Gold.PLP.Chemscore.Hbond>
3.0000

> <Gold.PLP.Chemscore.CHOScore>
1.0000

> <Gold.PLP.Chemscore.Metal>
0.0000

> <Gold.Chemscore.Hbonds>
donor molecule, donor type, donor heavy atom, donor atom, acceptor molecule, acceptor atom, score
      L1  H    13    28       P1  7948  2.00
      L1  H    13    29       P1  7957  1.00
      L1  C     5    24       P1  8028  1.00

> <Gold.PLP.Chemscore.Internal.Correction>
0.0615

> <Gold.Rescore>
     Score         DG    S(hbond)    S(metal)    S(lipo)     H(rot)  DE(clash)    DE(int)     intcor
     13.98     -15.14       1.97        0.00      71.41       2.06       0.12       1.04       ----

> <Gold.Chemscore.Fitness>
13.9764

> <Gold.Chemscore.DG>
-15.1378

> <Gold.Chemscore.ZeroCoef>
-5.4800

> <Gold.Chemscore.Hbond>
1.9724

> <Gold.Chemscore.Metal>
0.0000

> <Gold.Chemscore.Lipo>
71.4083

> <Gold.Chemscore.Internal_Hbond>
0.0000

> <Gold.Chemscore.DEClash>
0.1186

> <Gold.Chemscore.DEInternal>
1.0428

> <Gold.Chemscore.Rot>
2.0644

> <Gold.Chemscore.Internal.Correction>
   9.000000E+99

> <Gold.Chemscore.Hbonds>
donor molecule, donor type, donor heavy atom, donor atom, acceptor molecule, acceptor atom, score
      L1  H    13    28       P1  7948  1.00
      L1  H    13    29       P1  7957  0.96

> <Gold.Chemscore.Hbond.Weighted>
-6.5878

> <Gold.Chemscore.Metal.Weighted>
-0.0000

> <Gold.Chemscore.Lipo.Weighted>
-8.3548

> <Gold.Chemscore.Internal_Hbond.Weighted>
0.0000

> <Gold.Chemscore.DEClash.Weighted>
0.1186

> <Gold.Chemscore.DEInternal.Weighted>
1.0428

> <Gold.Chemscore.Rot.Weighted>
5.2848

> <Gold.Chemscore.Internal.Correction.Weighted>
   9.000000E+99

> <Gold.Protein.RotatedTorsions>
[ 6907 6896 6895 6894 ] final -127.47 input  -60.11 | X-H torsion
[ 7974 7965 7964 7962 ] final   95.46 input  175.53 | X-H torsion
[ 8008 7997 7996 7995 ] final   98.22 input   59.86 | X-H torsion
[ 10167 10162 10161 10158 ] final -171.12 input  -65.29 | X-H torsion
[ 10718 10713 10712 10709 ] final  123.97 input   66.30 | X-H torsion
[ 10763 10752 10751 10750 ] final  105.81 input  -60.55 | X-H torsion
[ 11005 11000 10999 10996 ] final  -60.44 input  -57.11 | X-H torsion

> <Gold.Protein.ActiveResidues>
 VAL166  LYS551  ARG553  GLY616  TRP617  ASP618  TYR619  PRO620  LYS621  CYS622 
 ASP623  PHE694  ASN695  SER759  ASP760  ASP761  ALA762  ILE779  LEU786  VAL792 
 PHE793  MET794  SER795  GLU796  ALA797  LYS798  CYS799  TRP800  GLU811  SER814 

> <Gold.Protein.RotatedAtoms>
  150.9076  133.7038  159.2862 H   0  0  0  0  0  0  0  0  0  0  0  0  # atno 6907 bound_to 6896
  151.4535  135.1031  159.9714 H   0  0  0  0  0  0  0  0  0  0  0  0  # atno 6908 bound_to 6896
  152.4912  133.8456  159.7230 H   0  0  0  0  0  0  0  0  0  0  0  0  # atno 6909 bound_to 6896
  145.4519  139.2293  143.3035 H   0  0  0  0  0  0  0  0  0  0  0  0  # atno 7974 bound_to 7965
  156.0982  140.3247  155.7906 H   0  0  0  0  0  0  0  0  0  0  0  0  # atno 8008 bound_to 7997
  155.4882  140.0559  157.2975 H   0  0  0  0  0  0  0  0  0  0  0  0  # atno 8009 bound_to 7997
  154.4680  140.1998  156.0083 H   0  0  0  0  0  0  0  0  0  0  0  0  # atno 8010 bound_to 7997
  139.5821  144.1400  152.1528 H   0  0  0  0  0  0  0  0  0  0  0  0  # atno 10167 bound_to 10162
  157.5622  131.1089  150.8517 H   0  0  0  0  0  0  0  0  0  0  0  0  # atno 10718 bound_to 10713
  153.3845  135.3897  155.1880 H   0  0  0  0  0  0  0  0  0  0  0  0  # atno 10763 bound_to 10752
  154.8712  135.3733  154.4815 H   0  0  0  0  0  0  0  0  0  0  0  0  # atno 10764 bound_to 10752
  153.5296  135.7086  153.5751 H   0  0  0  0  0  0  0  0  0  0  0  0  # atno 10765 bound_to 10752
  141.1287  133.6622  156.5224 H   0  0  0  0  0  0  0  0  0  0  0  0  # atno 11005 bound_to 11000
  146.2500  140.5279  142.8897 LP  0  0  0  0  0  0  0  0  0  0  0  0  # atno 17320 bound_to 7965
  144.8056  140.6294  143.6449 LP  0  0  0  0  0  0  0  0  0  0  0  0  # atno 17321 bound_to 7965
  140.0956  144.5584  150.7024 LP  0  0  0  0  0  0  0  0  0  0  0  0  # atno 17342 bound_to 10162
  140.7098  143.2496  151.4617 LP  0  0  0  0  0  0  0  0  0  0  0  0  # atno 17343 bound_to 10162
  156.9012  130.5247  149.5282 LP  0  0  0  0  0  0  0  0  0  0  0  0  # atno 17370 bound_to 10713
  156.0674  130.5714  150.9315 LP  0  0  0  0  0  0  0  0  0  0  0  0  # atno 17371 bound_to 10713
  140.4282  134.7126  157.4927 LP  0  0  0  0  0  0  0  0  0  0  0  0  # atno 17394 bound_to 11000
  140.0312  134.6403  155.9104 LP  0  0  0  0  0  0  0  0  0  0  0  0  # atno 17395 bound_to 11000

$$$$
