AV-unprocessed.smi:38|AV-procd|sdf|336|dock4
  -GOLD-   2262016173D 1   1.00000     0.00000
 Structure written by MMmdl.
 28 29  0  0  0  0  0  0  0  0  1 V2000
  151.4341  145.3471  158.9013 O   0  0  0  0  0  0  0  0  0  0  0  0
  151.4787  144.1508  158.6212 C   0  0  0  0  0  0  0  0  0  0  0  0
  150.8468  143.6746  157.4687 N   0  0  0  0  0  0  0  0  0  0  0  0
  150.8257  142.3445  157.0447 C   0  0  0  0  0  0  0  0  0  0  0  0
  150.2206  142.0385  156.0182 O   0  0  0  0  0  0  0  0  0  0  0  0
  151.5104  141.4023  157.8445 N   0  0  0  0  0  0  0  0  0  0  0  0
  151.5246  139.9469  157.4361 C   0  0  2  0  0  0  0  0  0  0  0  0
  150.8140  139.0815  158.4778 C   0  0  0  0  0  0  0  0  0  0  0  0
  151.6963  137.8509  158.4934 C   0  0  2  0  0  0  0  0  0  0  0  0
  151.5848  137.1616  159.7218 O   0  0  0  0  0  0  0  0  0  0  0  0
  153.0876  138.4532  158.2829 C   0  0  1  0  0  0  0  0  0  0  0  0
  154.1017  137.4611  157.6940 C   0  0  0  0  0  0  0  0  0  0  0  0
  155.3875  138.0422  157.6664 O   0  0  0  0  0  0  0  0  0  0  0  0
  152.8500  139.5104  157.3533 O   0  0  0  0  0  0  0  0  0  0  0  0
  152.1428  141.8287  159.0048 C   0  0  0  0  0  0  0  0  0  0  0  0
  152.1527  143.1216  159.4073 C   0  0  0  0  0  0  0  0  0  0  0  0
  152.7850  143.4582  160.5442 F   0  0  0  0  0  0  0  0  0  0  0  0
  150.3612  144.3500  156.8965 H   0  0  0  0  0  0  0  0  0  0  0  0
  151.0922  139.8689  156.4375 H   0  0  0  0  0  0  0  0  0  0  0  0
  151.4318  137.1912  157.6656 H   0  0  0  0  0  0  0  0  0  0  0  0
  153.4484  138.8731  159.2238 H   0  0  0  0  0  0  0  0  0  0  0  0
  150.8282  139.5835  159.4471 H   0  0  0  0  0  0  0  0  0  0  0  0
  149.7802  138.8838  158.1928 H   0  0  0  0  0  0  0  0  0  0  0  0
  151.0397  137.6687  160.3042 H   0  0  0  0  0  0  0  0  0  0  0  0
  154.1601  136.5690  158.3182 H   0  0  0  0  0  0  0  0  0  0  0  0
  153.8074  137.1388  156.6948 H   0  0  0  0  0  0  0  0  0  0  0  0
  155.9867  137.4678  158.1186 H   0  0  0  0  0  0  0  0  0  0  0  0
  152.6503  141.1072  159.6267 H   0  0  0  0  0  0  0  0  0  0  0  0
  1  2  2  0  0  0  0
  2 16  1  0  0  0  0
  2  3  1  0  0  0  0
  3 18  1  0  0  0  0
  3  4  1  0  0  0  0
  4  5  2  0  0  0  0
  4  6  1  0  0  0  0
  6  7  1  0  0  0  0
  6 15  1  0  0  0  0
  7 19  1  0  0  0  0
  7 14  1  0  0  0  0
  7  8  1  0  0  0  0
  8  9  1  0  0  0  0
  8 22  1  0  0  0  0
  8 23  1  0  0  0  0
  9 20  1  0  0  0  0
  9 10  1  0  0  0  0
  9 11  1  0  0  0  0
 10 24  1  0  0  0  0
 11 21  1  0  0  0  0
 11 12  1  0  0  0  0
 11 14  1  0  0  0  0
 12 13  1  0  0  0  0
 12 25  1  0  0  0  0
 12 26  1  0  0  0  0
 13 27  1  0  0  0  0
 15 16  2  0  0  0  0
 15 28  1  0  0  0  0
 16 17  1  0  0  0  0
M  END
> <s_m_source_file>
AV-unprocessed.smi

> <i_m_source_file_index>
38

> <i_lp_mmshare_version>
43012

> <i_f3d_flags>
0

> <s_epik_input>
Tz1jMVtuSF1jKD1PKW4oW2NIXWMxRilbQ0BIXTJbQ0gyXVtDQEhdKFtPSF0pW0NASF0oTzIpW0NIMl1bT0hd

> <s_epik_cmdline>
J2VwaWtfcHl0aG9uJywgJy1waCcsICc3LjAnLCAnLXRuJywgJzgnLCAnLW1hJywgJzIwMCcsICctbWV0YWxfYmluZGluZycsICctaW1hZScsICc8aW5maWxlLm1hZT4nLCAnLW9tYWUnLCAnPG91dGZpbGUubWFlPic=

> <r_lp_tautomer_probability>
0.999537

> <r_epik_Ionization_Penalty>
0.0357432

> <r_epik_Ionization_Penalty_Charging>
0.0357431

> <r_epik_Ionization_Penalty_Neutral>
1.19946e-07

> <r_epik_State_Penalty>
0.0298169

> <r_epik_Charging_Adjusted_Penalty>
0.06556

> <i_epik_Tot_Q>
0

> <i_epik_Tot_abs_Q>
0

> <r_epik_Metal_State_Penalty>
2.348

> <b_epik_Metal_Only>
0

> <s_epik_Chemistry_Notes>
This compound contains an acetal/aminal-like group ( X-CH(R)-Y where X, Y are N, S, or O) that may be acid/base labile, releasing an aldehyde.

> <s_lp_Force_Field>
OPLS_2005

> <r_lp_Energy>
26.798

> <b_lp_Chiralities_Consistent>
1

> <s_lp_Variant>
AV-unprocessed.smi:38-2

> <Gold.Version>
5.8.1

> <Gold.Id.Protein>
6NUR|6NUR_protein|mol2

> <Gold.PLP.Fitness>
40.0259

> <Gold.PLP.PLP>
-29.8205

> <Gold.PLP.part.hbond>
-4.4475

> <Gold.PLP.part.metal>
0.0000

> <Gold.PLP.part.buried>
-5.2655

> <Gold.PLP.part.nonpolar>
-19.8980

> <Gold.PLP.part.repulsive>
0.2351

> <Gold.PLP.ligand.clash>
0.0000

> <Gold.PLP.ligand.torsion>
0.0744

> <Gold.PLP.Chemscore.Hbond>
3.4480

> <Gold.PLP.Chemscore.CHOScore>
0.0000

> <Gold.PLP.Chemscore.Metal>
0.0000

> <Gold.Chemscore.Hbonds>
donor molecule, donor type, donor heavy atom, donor atom, acceptor molecule, acceptor atom, score
      L1  H     3    18       P1  8028  0.99
      P1  H  6896  6909       L1    10  1.00
      P1  H  7997  8008       L1    14  1.00
      P1  H  7997  8010       L1    13  0.23

> <Gold.PLP.Chemscore.Internal.Correction>
0.0102

> <Gold.Rescore>
     Score         DG    S(hbond)    S(metal)    S(lipo)     H(rot)  DE(clash)    DE(int)     intcor
     13.11     -13.34       3.36        0.00      35.18       2.91       0.07       0.17       ----

> <Gold.Chemscore.Fitness>
13.1100

> <Gold.Chemscore.DG>
-13.3442

> <Gold.Chemscore.ZeroCoef>
-5.4800

> <Gold.Chemscore.Hbond>
3.3557

> <Gold.Chemscore.Metal>
0.0000

> <Gold.Chemscore.Lipo>
35.1828

> <Gold.Chemscore.Internal_Hbond>
0.0000

> <Gold.Chemscore.DEClash>
0.0650

> <Gold.Chemscore.DEInternal>
0.1691

> <Gold.Chemscore.Rot>
2.9141

> <Gold.Chemscore.Internal.Correction>
   9.000000E+99

> <Gold.Chemscore.Hbonds>
donor molecule, donor type, donor heavy atom, donor atom, acceptor molecule, acceptor atom, score
      L1  H     3    18       P1  8028  0.86
      P1  H  6896  6909       L1    10  0.90
      P1  H  7997  8008       L1    14  0.86
      P1  H  7997  8010       L1    13  0.24

> <Gold.Chemscore.Hbond.Weighted>
-11.2079

> <Gold.Chemscore.Metal.Weighted>
-0.0000

> <Gold.Chemscore.Lipo.Weighted>
-4.1164

> <Gold.Chemscore.Internal_Hbond.Weighted>
0.0000

> <Gold.Chemscore.DEClash.Weighted>
0.0650

> <Gold.Chemscore.DEInternal.Weighted>
0.1691

> <Gold.Chemscore.Rot.Weighted>
7.4601

> <Gold.Chemscore.Internal.Correction.Weighted>
   9.000000E+99

> <Gold.Protein.RotatedTorsions>
[ 6907 6896 6895 6894 ] final  121.29 input  -60.11 | X-H torsion
[ 7974 7965 7964 7962 ] final   41.38 input  175.53 | X-H torsion
[ 8008 7997 7996 7995 ] final  -49.47 input   59.86 | X-H torsion
[ 10167 10162 10161 10158 ] final -116.09 input  -65.29 | X-H torsion
[ 10718 10713 10712 10709 ] final -108.15 input   66.30 | X-H torsion
[ 10763 10752 10751 10750 ] final   65.88 input  -60.55 | X-H torsion
[ 11005 11000 10999 10996 ] final   60.63 input  -57.11 | X-H torsion

> <Gold.Protein.ActiveResidues>
 VAL166  LYS551  ARG553  GLY616  TRP617  ASP618  TYR619  PRO620  LYS621  CYS622 
 ASP623  PHE694  ASN695  SER759  ASP760  ASP761  ALA762  ILE779  LEU786  VAL792 
 PHE793  MET794  SER795  GLU796  ALA797  LYS798  CYS799  TRP800  GLU811  SER814 

> <Gold.Protein.RotatedAtoms>
  152.4333  133.7316  159.6590 H   0  0  0  0  0  0  0  0  0  0  0  0  # atno 6907 bound_to 6896
  150.8214  133.8235  159.3143 H   0  0  0  0  0  0  0  0  0  0  0  0  # atno 6908 bound_to 6896
  151.5916  135.1055  160.0092 H   0  0  0  0  0  0  0  0  0  0  0  0  # atno 6909 bound_to 6896
  146.0828  139.5423  142.9526 H   0  0  0  0  0  0  0  0  0  0  0  0  # atno 7974 bound_to 7965
  154.4044  140.1296  156.4508 H   0  0  0  0  0  0  0  0  0  0  0  0  # atno 8008 bound_to 7997
  155.7368  140.3490  155.5065 H   0  0  0  0  0  0  0  0  0  0  0  0  # atno 8009 bound_to 7997
  155.9076  140.1030  157.1294 H   0  0  0  0  0  0  0  0  0  0  0  0  # atno 8010 bound_to 7997
  140.0830  143.4770  152.1915 H   0  0  0  0  0  0  0  0  0  0  0  0  # atno 10167 bound_to 10162
  156.0471  130.5698  150.7920 H   0  0  0  0  0  0  0  0  0  0  0  0  # atno 10718 bound_to 10713
  153.0115  135.5341  154.6736 H   0  0  0  0  0  0  0  0  0  0  0  0  # atno 10763 bound_to 10752
  154.5914  135.2859  155.0633 H   0  0  0  0  0  0  0  0  0  0  0  0  # atno 10764 bound_to 10752
  154.1725  135.6529  153.5065 H   0  0  0  0  0  0  0  0  0  0  0  0  # atno 10765 bound_to 10752
  140.0218  134.6142  155.9629 H   0  0  0  0  0  0  0  0  0  0  0  0  # atno 11005 bound_to 11000
  145.6185  141.0327  143.1928 LP  0  0  0  0  0  0  0  0  0  0  0  0  # atno 17320 bound_to 7965
  144.7305  139.7740  143.7349 LP  0  0  0  0  0  0  0  0  0  0  0  0  # atno 17321 bound_to 7965
  139.5768  144.7491  151.3743 LP  0  0  0  0  0  0  0  0  0  0  0  0  # atno 17342 bound_to 10162
  140.7068  143.7493  150.7496 LP  0  0  0  0  0  0  0  0  0  0  0  0  # atno 17343 bound_to 10162
  157.5358  131.0938  150.9894 LP  0  0  0  0  0  0  0  0  0  0  0  0  # atno 17370 bound_to 10713
  157.0189  130.5666  149.5329 LP  0  0  0  0  0  0  0  0  0  0  0  0  # atno 17371 bound_to 10713
  141.1778  133.6542  156.4899 LP  0  0  0  0  0  0  0  0  0  0  0  0  # atno 17394 bound_to 11000
  140.4374  134.7046  157.4974 LP  0  0  0  0  0  0  0  0  0  0  0  0  # atno 17395 bound_to 11000

$$$$
