AV-unprocessed.smi:1893|AV-procd|sdf|7675|dock2
  -GOLD-   22720 9413D 1   1.00000     0.00000
 Structure written by MMmdl.
 43 44  0  0  0  0  0  0  0  0  2 V2000
  147.5672  133.1458  153.1619 C   0  0  0  0  0  0  0  0  0  0  0  0
  146.2585  133.7501  152.6098 C   0  0  2  0  0  0  0  0  0  0  0  0
  146.0351  133.2035  151.1814 C   0  0  0  0  0  0  0  0  0  0  0  0
  144.7556  133.7509  150.5455 C   0  0  0  0  0  0  0  0  0  0  0  0
  144.7982  135.2782  150.5640 C   0  0  0  0  0  0  0  0  0  0  0  0
  145.0018  135.7908  151.9960 C   0  0  0  0  0  0  0  0  0  0  0  0
  146.2478  135.2511  152.6145 N   0  3  1  0  0  0  0  0  0  0  0  0
  146.4983  135.8603  153.9526 C   0  0  0  0  0  0  0  0  0  0  0  0
  146.4264  137.4023  153.9386 C   0  0  0  0  0  0  0  0  0  0  0  0
  147.7535  137.9945  153.8237 N   0  0  0  0  0  0  0  0  0  0  0  0
  148.1564  139.1122  154.4490 C   0  0  0  0  0  0  0  0  0  0  0  0
  147.4181  139.7728  155.1807 O   0  0  0  0  0  0  0  0  0  0  0  0
  149.6169  139.5300  154.2155 C   0  0  1  0  0  0  0  0  0  0  0  0
  149.9508  140.9123  154.8065 C   0  0  0  0  0  0  0  0  0  0  0  0
  150.5194  138.5108  154.7332 N   0  0  0  0  0  0  0  0  0  0  0  0
  151.3251  137.6513  154.1030 C   0  0  0  0  0  0  0  0  0  0  0  0
  152.0180  136.8688  154.9183 N   0  0  0  0  0  0  0  0  0  0  0  0
  151.5560  137.3250  156.1201 C   0  0  0  0  0  0  0  0  0  0  0  0
  150.6599  138.3104  156.0654 N   0  0  0  0  0  0  0  0  0  0  0  0
  147.6101  132.0729  152.9710 H   0  0  0  0  0  0  0  0  0  0  0  0
  147.6581  133.2573  154.2416 H   0  0  0  0  0  0  0  0  0  0  0  0
  148.4435  133.5953  152.6939 H   0  0  0  0  0  0  0  0  0  0  0  0
  145.4351  133.4067  153.2384 H   0  0  0  0  0  0  0  0  0  0  0  0
  146.8886  133.4598  150.5515 H   0  0  0  0  0  0  0  0  0  0  0  0
  145.9856  132.1139  151.2003 H   0  0  0  0  0  0  0  0  0  0  0  0
  144.6554  133.3874  149.5224 H   0  0  0  0  0  0  0  0  0  0  0  0
  143.8828  133.3942  151.0940 H   0  0  0  0  0  0  0  0  0  0  0  0
  145.6060  135.6364  149.9241 H   0  0  0  0  0  0  0  0  0  0  0  0
  143.8727  135.6809  150.1510 H   0  0  0  0  0  0  0  0  0  0  0  0
  145.0252  136.8781  151.9585 H   0  0  0  0  0  0  0  0  0  0  0  0
  144.1439  135.5188  152.6131 H   0  0  0  0  0  0  0  0  0  0  0  0
  145.7969  135.4407  154.6751 H   0  0  0  0  0  0  0  0  0  0  0  0
  147.4916  135.6102  154.3166 H   0  0  0  0  0  0  0  0  0  0  0  0
  145.8319  137.7385  153.0885 H   0  0  0  0  0  0  0  0  0  0  0  0
  145.9474  137.8020  154.8318 H   0  0  0  0  0  0  0  0  0  0  0  0
  148.4217  137.5129  153.2389 H   0  0  0  0  0  0  0  0  0  0  0  0
  149.7619  139.5926  153.1353 H   0  0  0  0  0  0  0  0  0  0  0  0
  149.3031  141.6862  154.3928 H   0  0  0  0  0  0  0  0  0  0  0  0
  150.9795  141.1928  154.5790 H   0  0  0  0  0  0  0  0  0  0  0  0
  149.8384  140.9276  155.8912 H   0  0  0  0  0  0  0  0  0  0  0  0
  151.4092  137.6000  153.0272 H   0  0  0  0  0  0  0  0  0  0  0  0
  151.8926  136.9215  157.0639 H   0  0  0  0  0  0  0  0  0  0  0  0
  147.0156  135.5362  152.0235 H   0  0  0  0  0  0  0  0  0  0  0  0
  1  2  1  0  0  0  0
  1 20  1  0  0  0  0
  1 21  1  0  0  0  0
  1 22  1  0  0  0  0
  2  7  1  0  0  0  0
  2  3  1  0  0  0  0
  2 23  1  0  0  0  0
  3  4  1  0  0  0  0
  3 24  1  0  0  0  0
  3 25  1  0  0  0  0
  4  5  1  0  0  0  0
  4 26  1  0  0  0  0
  4 27  1  0  0  0  0
  5  6  1  0  0  0  0
  5 28  1  0  0  0  0
  5 29  1  0  0  0  0
  6  7  1  0  0  0  0
  6 30  1  0  0  0  0
  6 31  1  0  0  0  0
  7  8  1  0  0  0  0
  7 43  1  0  0  0  0
  8  9  1  0  0  0  0
  8 32  1  0  0  0  0
  8 33  1  0  0  0  0
  9 10  1  0  0  0  0
  9 34  1  0  0  0  0
  9 35  1  0  0  0  0
 10 11  1  0  0  0  0
 10 36  1  0  0  0  0
 11 12  2  0  0  0  0
 11 13  1  0  0  0  0
 13 14  1  0  0  0  0
 13 15  1  0  0  0  0
 13 37  1  0  0  0  0
 14 38  1  0  0  0  0
 14 39  1  0  0  0  0
 14 40  1  0  0  0  0
 15 19  1  0  0  0  0
 15 16  1  0  0  0  0
 16 17  2  0  0  0  0
 16 41  1  0  0  0  0
 17 18  1  0  0  0  0
 18 19  2  0  0  0  0
 18 42  1  0  0  0  0
M  CHG  1   7   1
M  END
> <s_m_source_file>
AV-unprocessed.smi

> <i_m_source_file_index>
1893

> <i_lp_mmshare_version>
43012

> <i_f3d_flags>
0

> <s_epik_input>
W0NIM11bQ0BASF0xW0NIMl1bQ0gyXVtDSDJdW0NIMl1OMVtDSDJdW0NIMl1bTkhdQyg9TylbQ0BIXShbQ0gzXSluMltjSF1uW2NIXW4y

> <s_epik_cmdline>
J2VwaWtfcHl0aG9uJywgJy1waCcsICc3LjAnLCAnLXRuJywgJzgnLCAnLW1hJywgJzIwMCcsICctbWV0YWxfYmluZGluZycsICctaW1hZScsICc8aW5maWxlLm1hZT4nLCAnLW9tYWUnLCAnPG91dGZpbGUubWFlPic=

> <r_lp_tautomer_probability>
1

> <r_epik_Ionization_Penalty>
0.00266409

> <r_epik_Ionization_Penalty_Charging>
0.00265606

> <r_epik_Ionization_Penalty_Neutral>
8.02794e-06

> <r_epik_State_Penalty>
0.00184955

> <r_epik_Charging_Adjusted_Penalty>
0.00450561

> <i_epik_Tot_Q>
1

> <i_epik_Tot_abs_Q>
1

> <r_epik_Metal_State_Penalty>
-0

> <b_epik_Metal_Only>
0

> <s_lp_Force_Field>
OPLS_2005

> <r_lp_Energy>
24.8268

> <b_lp_Chiralities_Consistent>
1

> <s_lp_Variant>
AV-unprocessed.smi:1893-5

> <Gold.Version>
5.8.1

> <Gold.Id.Protein>
6NUR|6NUR_protein|mol2

> <Gold.PLP.Fitness>
43.1474

> <Gold.PLP.PLP>
-29.3822

> <Gold.PLP.part.hbond>
-3.0000

> <Gold.PLP.part.metal>
0.0000

> <Gold.PLP.part.buried>
-1.7094

> <Gold.PLP.part.nonpolar>
-24.7127

> <Gold.PLP.part.repulsive>
0.1204

> <Gold.PLP.ligand.clash>
0.0000

> <Gold.PLP.ligand.torsion>
0.6299

> <Gold.PLP.Chemscore.Hbond>
3.9600

> <Gold.PLP.Chemscore.CHOScore>
1.0000

> <Gold.PLP.Chemscore.Metal>
0.0000

> <Gold.Chemscore.Hbonds>
donor molecule, donor type, donor heavy atom, donor atom, acceptor molecule, acceptor atom, score
      L1  H     7    43       P1  7948  1.98
      L1  H    10    36       P1  7948  1.00
      P1  H 10752 10765       L1    17  1.00
      L1  C    16    41       P1  7949  1.00

> <Gold.PLP.Chemscore.Internal.Correction>
0.1451

> <Gold.Rescore>
     Score         DG    S(hbond)    S(metal)    S(lipo)     H(rot)  DE(clash)    DE(int)     intcor
     13.68     -14.38       2.76        0.00      52.82       2.54       0.06       0.65       ----

> <Gold.Chemscore.Fitness>
13.6814

> <Gold.Chemscore.DG>
-14.3831

> <Gold.Chemscore.ZeroCoef>
-5.4800

> <Gold.Chemscore.Hbond>
2.7605

> <Gold.Chemscore.Metal>
0.0000

> <Gold.Chemscore.Lipo>
52.8177

> <Gold.Chemscore.Internal_Hbond>
0.0000

> <Gold.Chemscore.DEClash>
0.0563

> <Gold.Chemscore.DEInternal>
0.6454

> <Gold.Chemscore.Rot>
2.5377

> <Gold.Chemscore.Internal.Correction>
   9.000000E+99

> <Gold.Chemscore.Hbonds>
donor molecule, donor type, donor heavy atom, donor atom, acceptor molecule, acceptor atom, score
      L1  H     7    43       P1  7948  0.87
      L1  H    10    36       P1  7948  0.97
      P1  H 10752 10765       L1    17  0.94

> <Gold.Chemscore.Hbond.Weighted>
-9.2200

> <Gold.Chemscore.Metal.Weighted>
-0.0000

> <Gold.Chemscore.Lipo.Weighted>
-6.1797

> <Gold.Chemscore.Internal_Hbond.Weighted>
0.0000

> <Gold.Chemscore.DEClash.Weighted>
0.0563

> <Gold.Chemscore.DEInternal.Weighted>
0.6454

> <Gold.Chemscore.Rot.Weighted>
6.4966

> <Gold.Chemscore.Internal.Correction.Weighted>
   9.000000E+99

> <Gold.Protein.RotatedTorsions>
[ 6907 6896 6895 6894 ] final   -9.56 input  -60.11 | X-H torsion
[ 7974 7965 7964 7962 ] final   17.14 input  175.53 | X-H torsion
[ 8008 7997 7996 7995 ] final   -9.05 input   59.86 | X-H torsion
[ 10167 10162 10161 10158 ] final  -86.00 input  -65.29 | X-H torsion
[ 10718 10713 10712 10709 ] final    6.90 input   66.30 | X-H torsion
[ 10763 10752 10751 10750 ] final  174.67 input  -60.55 | X-H torsion
[ 11005 11000 10999 10996 ] final -179.80 input  -57.11 | X-H torsion

> <Gold.Protein.ActiveResidues>
 VAL166  LYS551  ARG553  GLY616  TRP617  ASP618  TYR619  PRO620  LYS621  CYS622 
 ASP623  PHE694  ASN695  SER759  ASP760  ASP761  ALA762  ILE779  LEU786  VAL792 
 PHE793  MET794  SER795  GLU796  ALA797  LYS798  CYS799  TRP800  GLU811  SER814 

> <Gold.Protein.RotatedAtoms>
  151.4159  135.0991  159.9598 H   0  0  0  0  0  0  0  0  0  0  0  0  # atno 6907 bound_to 6896
  152.5005  133.8753  159.7329 H   0  0  0  0  0  0  0  0  0  0  0  0  # atno 6908 bound_to 6896
  150.9258  133.6768  159.2849 H   0  0  0  0  0  0  0  0  0  0  0  0  # atno 6909 bound_to 6896
  146.2228  139.8646  142.8598 H   0  0  0  0  0  0  0  0  0  0  0  0  # atno 7974 bound_to 7965
  154.5683  140.2365  155.8230 H   0  0  0  0  0  0  0  0  0  0  0  0  # atno 8008 bound_to 7997
  156.2086  140.3032  155.9640 H   0  0  0  0  0  0  0  0  0  0  0  0  # atno 8009 bound_to 7997
  155.2760  140.0420  157.3002 H   0  0  0  0  0  0  0  0  0  0  0  0  # atno 8010 bound_to 7997
  140.3983  143.2674  151.9175 H   0  0  0  0  0  0  0  0  0  0  0  0  # atno 10167 bound_to 10162
  156.9290  130.5819  149.5649 H   0  0  0  0  0  0  0  0  0  0  0  0  # atno 10718 bound_to 10713
  154.4570  135.2766  155.1740 H   0  0  0  0  0  0  0  0  0  0  0  0  # atno 10763 bound_to 10752
  154.3543  135.6143  153.5662 H   0  0  0  0  0  0  0  0  0  0  0  0  # atno 10764 bound_to 10752
  152.9851  135.5819  154.4926 H   0  0  0  0  0  0  0  0  0  0  0  0  # atno 10765 bound_to 10752
  140.4146  134.6661  157.4632 H   0  0  0  0  0  0  0  0  0  0  0  0  # atno 11005 bound_to 11000
  145.2670  141.0096  143.3794 LP  0  0  0  0  0  0  0  0  0  0  0  0  # atno 17320 bound_to 7965
  144.9254  139.4362  143.6521 LP  0  0  0  0  0  0  0  0  0  0  0  0  # atno 17321 bound_to 7965
  139.4786  144.5659  151.8166 LP  0  0  0  0  0  0  0  0  0  0  0  0  # atno 17342 bound_to 10162
  140.4767  144.1509  150.5926 LP  0  0  0  0  0  0  0  0  0  0  0  0  # atno 17343 bound_to 10162
  156.0456  130.5533  150.8873 LP  0  0  0  0  0  0  0  0  0  0  0  0  # atno 17370 bound_to 10713
  157.5859  131.0945  150.9197 LP  0  0  0  0  0  0  0  0  0  0  0  0  # atno 17371 bound_to 10713
  140.0243  134.6500  155.9195 LP  0  0  0  0  0  0  0  0  0  0  0  0  # atno 17394 bound_to 11000
  141.1808  133.6546  156.5012 LP  0  0  0  0  0  0  0  0  0  0  0  0  # atno 17395 bound_to 11000

$$$$
