AV-unprocessed.smi:1908|AV-procd|sdf|7733|dock8
  -GOLD-   22720 9473D 1   1.00000     0.00000
 Structure written by MMmdl.
 28 28  0  0  0  0  0  0  0  0  1 V2000
  152.8363  144.6297  158.2895 C   0  0  0  0  0  0  0  0  0  0  0  0
  151.3174  144.8452  158.2930 C   0  0  0  0  0  0  0  0  0  0  0  0
  150.7875  145.1374  159.7053 C   0  0  0  0  0  0  0  0  0  0  0  0
  150.6570  143.6671  157.7385 N   0  0  0  0  0  0  0  0  0  0  0  0
  150.5964  142.4607  158.3237 C   0  0  0  0  0  0  0  0  0  0  0  0
  151.1143  142.2116  159.4132 O   0  0  0  0  0  0  0  0  0  0  0  0
  149.8620  141.3635  157.5406 C   0  0  0  0  0  0  0  0  0  0  0  0
  150.7152  140.2004  157.2590 N   0  0  0  0  0  0  0  0  0  0  0  0
  151.2031  139.4202  158.2979 C   0  0  0  0  0  0  0  0  0  0  0  0
  151.9837  138.3300  158.1084 C   0  0  0  0  0  0  0  0  0  0  0  0
  152.3581  137.9149  156.7607 C   0  0  0  0  0  0  0  0  0  0  0  0
  153.0618  136.9453  156.4870 O   0  0  0  0  0  0  0  0  0  0  0  0
  151.8452  138.7233  155.7428 N   0  0  0  0  0  0  0  0  0  0  0  0
  151.0381  139.8461  155.9311 C   0  0  0  0  0  0  0  0  0  0  0  0
  150.6346  140.4872  154.9613 O   0  0  0  0  0  0  0  0  0  0  0  0
  152.0752  138.4728  154.7922 H   0  0  0  0  0  0  0  0  0  0  0  0
  153.3569  145.5080  158.6726 H   0  0  0  0  0  0  0  0  0  0  0  0
  153.2044  144.4444  157.2798 H   0  0  0  0  0  0  0  0  0  0  0  0
  153.1196  143.7789  158.9100 H   0  0  0  0  0  0  0  0  0  0  0  0
  151.1051  145.7071  157.6577 H   0  0  0  0  0  0  0  0  0  0  0  0
  151.2719  146.0167  160.1306 H   0  0  0  0  0  0  0  0  0  0  0  0
  150.9691  144.2993  160.3789 H   0  0  0  0  0  0  0  0  0  0  0  0
  149.7138  145.3289  159.6935 H   0  0  0  0  0  0  0  0  0  0  0  0
  150.2083  143.7788  156.8408 H   0  0  0  0  0  0  0  0  0  0  0  0
  148.9648  141.0521  158.0797 H   0  0  0  0  0  0  0  0  0  0  0  0
  149.4993  141.8000  156.6089 H   0  0  0  0  0  0  0  0  0  0  0  0
  150.9470  139.6877  159.3135 H   0  0  0  0  0  0  0  0  0  0  0  0
  152.3321  137.7610  158.9583 H   0  0  0  0  0  0  0  0  0  0  0  0
  1  2  1  0  0  0  0
  1 17  1  0  0  0  0
  1 18  1  0  0  0  0
  1 19  1  0  0  0  0
  2  3  1  0  0  0  0
  2  4  1  0  0  0  0
  2 20  1  0  0  0  0
  3 21  1  0  0  0  0
  3 22  1  0  0  0  0
  3 23  1  0  0  0  0
  4  5  1  0  0  0  0
  4 24  1  0  0  0  0
  5  6  2  0  0  0  0
  5  7  1  0  0  0  0
  7  8  1  0  0  0  0
  7 25  1  0  0  0  0
  7 26  1  0  0  0  0
  8 14  1  0  0  0  0
  8  9  1  0  0  0  0
  9 10  2  0  0  0  0
  9 27  1  0  0  0  0
 10 11  1  0  0  0  0
 10 28  1  0  0  0  0
 11 12  2  0  0  0  0
 11 13  1  0  0  0  0
 13 16  1  0  0  0  0
 13 14  1  0  0  0  0
 14 15  2  0  0  0  0
M  END
> <s_m_source_file>
AV-unprocessed.smi

> <i_m_source_file_index>
1908

> <i_lp_mmshare_version>
43012

> <i_f3d_flags>
0

> <s_epik_input>
W0NIM11bQ0hdKFtDSDNdKVtOSF1DKD1PKVtDSDJdbjFbY0hdW2NIXWMoPU8pW25IXWMxPU8=

> <s_epik_cmdline>
J2VwaWtfcHl0aG9uJywgJy1waCcsICc3LjAnLCAnLXRuJywgJzgnLCAnLW1hJywgJzIwMCcsICctbWV0YWxfYmluZGluZycsICctaW1hZScsICc8aW5maWxlLm1hZT4nLCAnLW9tYWUnLCAnPG91dGZpbGUubWFlPic=

> <r_lp_tautomer_probability>
0.999537

> <r_epik_Ionization_Penalty>
0.00328918

> <r_epik_Ionization_Penalty_Charging>
0.00328916

> <r_epik_Ionization_Penalty_Neutral>
2.06703e-08

> <r_epik_State_Penalty>
0.00232387

> <r_epik_Charging_Adjusted_Penalty>
0.00561303

> <i_epik_Tot_Q>
0

> <i_epik_Tot_abs_Q>
0

> <r_epik_Metal_State_Penalty>
0.365273

> <b_epik_Metal_Only>
0

> <s_lp_Force_Field>
OPLS_2005

> <r_lp_Energy>
1.74707

> <b_lp_Chiralities_Consistent>
1

> <s_lp_Variant>
AV-unprocessed.smi:1908-1

> <Gold.Version>
5.8.1

> <Gold.Id.Protein>
6NUR|6NUR_protein|mol2

> <Gold.PLP.Fitness>
36.0292

> <Gold.PLP.PLP>
-27.7777

> <Gold.PLP.part.hbond>
-3.7227

> <Gold.PLP.part.metal>
0.0000

> <Gold.PLP.part.buried>
-6.0016

> <Gold.PLP.part.nonpolar>
-18.6592

> <Gold.PLP.part.repulsive>
0.2302

> <Gold.PLP.ligand.clash>
0.0000

> <Gold.PLP.ligand.torsion>
0.0779

> <Gold.PLP.Chemscore.Hbond>
2.8000

> <Gold.PLP.Chemscore.CHOScore>
0.0000

> <Gold.PLP.Chemscore.Metal>
0.0000

> <Gold.Chemscore.Hbonds>
donor molecule, donor type, donor heavy atom, donor atom, acceptor molecule, acceptor atom, score
      L1  H     4    24       P1  8028  0.99
      P1  H  7989  7998       L1    15  1.00
      P1  H 10752 10765       L1    12  0.83

> <Gold.PLP.Chemscore.Internal.Correction>
0.0073

> <Gold.Rescore>
     Score         DG    S(hbond)    S(metal)    S(lipo)     H(rot)  DE(clash)    DE(int)     intcor
     15.30     -16.48       2.83        0.00      51.78       1.76       0.05       1.13       ----

> <Gold.Chemscore.Fitness>
15.2978

> <Gold.Chemscore.DG>
-16.4841

> <Gold.Chemscore.ZeroCoef>
-5.4800

> <Gold.Chemscore.Hbond>
2.8269

> <Gold.Chemscore.Metal>
0.0000

> <Gold.Chemscore.Lipo>
51.7794

> <Gold.Chemscore.Internal_Hbond>
0.0000

> <Gold.Chemscore.DEClash>
0.0544

> <Gold.Chemscore.DEInternal>
1.1319

> <Gold.Chemscore.Rot>
1.7562

> <Gold.Chemscore.Internal.Correction>
   9.000000E+99

> <Gold.Chemscore.Hbonds>
donor molecule, donor type, donor heavy atom, donor atom, acceptor molecule, acceptor atom, score
      L1  H     4    24       P1  8028  0.90
      P1  H  7989  7998       L1    15  0.96
      P1  H 10752 10765       L1    12  0.81

> <Gold.Chemscore.Hbond.Weighted>
-9.4417

> <Gold.Chemscore.Metal.Weighted>
-0.0000

> <Gold.Chemscore.Lipo.Weighted>
-6.0582

> <Gold.Chemscore.Internal_Hbond.Weighted>
0.0000

> <Gold.Chemscore.DEClash.Weighted>
0.0544

> <Gold.Chemscore.DEInternal.Weighted>
1.1319

> <Gold.Chemscore.Rot.Weighted>
4.4958

> <Gold.Chemscore.Internal.Correction.Weighted>
   9.000000E+99

> <Gold.Protein.RotatedTorsions>
[ 6907 6896 6895 6894 ] final   -9.95 input  -60.11 | X-H torsion
[ 7974 7965 7964 7962 ] final -158.92 input  175.53 | X-H torsion
[ 8008 7997 7996 7995 ] final  127.05 input   59.86 | X-H torsion
[ 10167 10162 10161 10158 ] final  151.34 input  -65.29 | X-H torsion
[ 10718 10713 10712 10709 ] final  163.45 input   66.30 | X-H torsion
[ 10763 10752 10751 10750 ] final -135.13 input  -60.55 | X-H torsion
[ 11005 11000 10999 10996 ] final -104.87 input  -57.11 | X-H torsion

> <Gold.Protein.ActiveResidues>
 VAL166  LYS551  ARG553  GLY616  TRP617  ASP618  TYR619  PRO620  LYS621  CYS622 
 ASP623  PHE694  ASN695  SER759  ASP760  ASP761  ALA762  ILE779  LEU786  VAL792 
 PHE793  MET794  SER795  GLU796  ALA797  LYS798  CYS799  TRP800  GLU811  SER814 

> <Gold.Protein.RotatedAtoms>
  151.4096  135.0983  159.9580 H   0  0  0  0  0  0  0  0  0  0  0  0  # atno 6907 bound_to 6896
  152.5024  133.8810  159.7357 H   0  0  0  0  0  0  0  0  0  0  0  0  # atno 6908 bound_to 6896
  150.9302  133.6719  159.2840 H   0  0  0  0  0  0  0  0  0  0  0  0  # atno 6909 bound_to 6896
  144.7486  140.3758  143.6066 H   0  0  0  0  0  0  0  0  0  0  0  0  # atno 7974 bound_to 7965
  156.2880  140.2678  156.2210 H   0  0  0  0  0  0  0  0  0  0  0  0  # atno 8008 bound_to 7997
  155.0168  140.0387  157.2440 H   0  0  0  0  0  0  0  0  0  0  0  0  # atno 8009 bound_to 7997
  154.7470  140.2736  155.6330 H   0  0  0  0  0  0  0  0  0  0  0  0  # atno 8010 bound_to 7997
  139.4841  144.5448  151.7502 H   0  0  0  0  0  0  0  0  0  0  0  0  # atno 10167 bound_to 10162
  157.1083  131.0461  151.2468 H   0  0  0  0  0  0  0  0  0  0  0  0  # atno 10718 bound_to 10713
  154.8708  135.3713  154.4847 H   0  0  0  0  0  0  0  0  0  0  0  0  # atno 10763 bound_to 10752
  153.5498  135.7025  153.5601 H   0  0  0  0  0  0  0  0  0  0  0  0  # atno 10764 bound_to 10752
  153.3725  135.4017  155.1763 H   0  0  0  0  0  0  0  0  0  0  0  0  # atno 10765 bound_to 10752
  141.1080  133.8760  157.1665 H   0  0  0  0  0  0  0  0  0  0  0  0  # atno 11005 bound_to 11000
  145.7029  139.1665  143.2582 LP  0  0  0  0  0  0  0  0  0  0  0  0  # atno 17320 bound_to 7965
  146.1402  140.7067  142.9370 LP  0  0  0  0  0  0  0  0  0  0  0  0  # atno 17321 bound_to 7965
  140.4993  144.1193  150.5967 LP  0  0  0  0  0  0  0  0  0  0  0  0  # atno 17342 bound_to 10162
  140.4080  143.2670  151.9867 LP  0  0  0  0  0  0  0  0  0  0  0  0  # atno 17343 bound_to 10162
  157.4582  130.7637  149.7211 LP  0  0  0  0  0  0  0  0  0  0  0  0  # atno 17370 bound_to 10713
  155.9857  130.3981  150.3250 LP  0  0  0  0  0  0  0  0  0  0  0  0  # atno 17371 bound_to 10713
  139.9959  135.0047  157.0082 LP  0  0  0  0  0  0  0  0  0  0  0  0  # atno 17394 bound_to 11000
  140.4851  134.1250  155.7223 LP  0  0  0  0  0  0  0  0  0  0  0  0  # atno 17395 bound_to 11000

$$$$
