AV-unprocessed.smi:2265|AV-procd|sdf|9145|dock9
  -GOLD-   2272012353D 1   1.00000     0.00000
 Structure written by MMmdl.
 36 37  0  0  0  0  0  0  0  0  1 V2000
  148.3844  141.5261  154.2667 C   0  0  0  0  0  0  0  0  0  0  0  0
  149.5502  140.7638  154.9055 C   0  0  0  0  0  0  0  0  0  0  0  0
  149.3911  139.2420  154.7908 C   0  0  0  0  0  0  0  0  0  0  0  0
  150.6486  138.4980  155.2038 C   0  0  2  0  0  0  0  0  0  0  0  0
  150.7377  136.9995  155.0877 C   0  0  0  0  0  0  0  0  0  0  0  0
  150.7114  137.6478  156.4572 C   0  0  2  0  0  0  0  0  0  0  0  0
  149.5276  137.4627  157.2428 N   0  0  0  0  0  0  0  0  0  0  0  0
  149.4048  136.7782  158.3940 C   0  0  0  0  0  0  0  0  0  0  0  0
  150.3682  136.1860  158.8801 O   0  0  0  0  0  0  0  0  0  0  0  0
  148.1523  136.7834  158.9019 N   0  0  0  0  0  0  0  0  0  0  0  0
  147.6793  136.1493  160.0573 C   0  0  0  0  0  0  0  0  0  0  0  0
  147.3251  136.7939  161.1339 N   0  0  0  0  0  0  0  0  0  0  0  0
  146.8575  136.1280  162.2670 C   0  0  0  0  0  0  0  0  0  0  0  0
  146.7524  134.7871  162.2851 C   0  0  0  0  0  0  0  0  0  0  0  0
  147.1109  134.0259  161.1637 N   0  0  0  0  0  0  0  0  0  0  0  0
  146.9806  132.5705  161.2387 C   0  0  0  0  0  0  0  0  0  0  0  0
  147.5775  134.6215  160.0327 C   0  0  0  0  0  0  0  0  0  0  0  0
  147.9102  133.9947  159.0246 O   0  0  0  0  0  0  0  0  0  0  0  0
  148.5269  142.6028  154.3601 H   0  0  0  0  0  0  0  0  0  0  0  0
  147.4386  141.2727  154.7464 H   0  0  0  0  0  0  0  0  0  0  0  0
  148.2954  141.2930  153.2055 H   0  0  0  0  0  0  0  0  0  0  0  0
  150.4833  141.0699  154.4312 H   0  0  0  0  0  0  0  0  0  0  0  0
  149.6307  141.0457  155.9559 H   0  0  0  0  0  0  0  0  0  0  0  0
  148.5689  138.9038  155.4223 H   0  0  0  0  0  0  0  0  0  0  0  0
  149.1293  138.9784  153.7655 H   0  0  0  0  0  0  0  0  0  0  0  0
  151.5611  139.0461  154.9766 H   0  0  0  0  0  0  0  0  0  0  0  0
  149.8482  136.4647  154.7596 H   0  0  0  0  0  0  0  0  0  0  0  0
  151.6822  136.5797  154.7480 H   0  0  0  0  0  0  0  0  0  0  0  0
  151.6634  137.6296  156.9861 H   0  0  0  0  0  0  0  0  0  0  0  0
  148.6747  137.8264  156.8428 H   0  0  0  0  0  0  0  0  0  0  0  0
  147.4721  137.3032  158.3669 H   0  0  0  0  0  0  0  0  0  0  0  0
  146.5893  136.7409  163.1150 H   0  0  0  0  0  0  0  0  0  0  0  0
  146.3973  134.2277  163.1382 H   0  0  0  0  0  0  0  0  0  0  0  0
  147.9635  132.0995  161.1974 H   0  0  0  0  0  0  0  0  0  0  0  0
  146.3862  132.1917  160.4058 H   0  0  0  0  0  0  0  0  0  0  0  0
  146.4954  132.2425  162.1586 H   0  0  0  0  0  0  0  0  0  0  0  0
  1  2  1  0  0  0  0
  1 19  1  0  0  0  0
  1 20  1  0  0  0  0
  1 21  1  0  0  0  0
  2  3  1  0  0  0  0
  2 22  1  0  0  0  0
  2 23  1  0  0  0  0
  3  4  1  0  0  0  0
  3 24  1  0  0  0  0
  3 25  1  0  0  0  0
  4  6  1  0  0  0  0
  4  5  1  0  0  0  0
  4 26  1  0  0  0  0
  5  6  1  0  0  0  0
  5 27  1  0  0  0  0
  5 28  1  0  0  0  0
  6  7  1  0  0  0  0
  6 29  1  0  0  0  0
  7  8  1  0  0  0  0
  7 30  1  0  0  0  0
  8  9  2  0  0  0  0
  8 10  1  0  0  0  0
 10 11  1  0  0  0  0
 10 31  1  0  0  0  0
 11 17  1  0  0  0  0
 11 12  2  0  0  0  0
 12 13  1  0  0  0  0
 13 14  2  0  0  0  0
 13 32  1  0  0  0  0
 14 15  1  0  0  0  0
 14 33  1  0  0  0  0
 15 16  1  0  0  0  0
 15 17  1  0  0  0  0
 16 34  1  0  0  0  0
 16 35  1  0  0  0  0
 16 36  1  0  0  0  0
 17 18  2  0  0  0  0
M  END
> <s_m_source_file>
AV-unprocessed.smi

> <i_m_source_file_index>
2265

> <i_lp_mmshare_version>
43012

> <i_f3d_flags>
0

> <s_epik_input>
W0NIM11bQ0gyXVtDSDJdW0NAQEhdMVtDSDJdW0NASF0xW05IXUMoPU8pW05IXWMybltjSF1bY0hdbihbQ0gzXSljMj1P

> <s_epik_cmdline>
J2VwaWtfcHl0aG9uJywgJy1waCcsICc3LjAnLCAnLXRuJywgJzgnLCAnLW1hJywgJzIwMCcsICctbWV0YWxfYmluZGluZycsICctaW1hZScsICc8aW5maWxlLm1hZT4nLCAnLW9tYWUnLCAnPG91dGZpbGUubWFlPic=

> <r_lp_tautomer_probability>
1

> <r_epik_Ionization_Penalty>
0.000728552

> <r_epik_Ionization_Penalty_Charging>
1.67739e-07

> <r_epik_Ionization_Penalty_Neutral>
0.000728385

> <r_epik_State_Penalty>
-0

> <r_epik_Charging_Adjusted_Penalty>
1.67739e-07

> <i_epik_Tot_Q>
0

> <i_epik_Tot_abs_Q>
0

> <r_epik_Metal_State_Penalty>
-0

> <b_epik_Metal_Only>
0

> <s_lp_Force_Field>
OPLS_2005

> <r_lp_Energy>
43.9494

> <b_lp_Chiralities_Consistent>
1

> <s_lp_Variant>
AV-unprocessed.smi:2265-3

> <Gold.Version>
5.8.1

> <Gold.Id.Protein>
6NUR|6NUR_protein|mol2

> <Gold.PLP.Fitness>
42.1664

> <Gold.PLP.PLP>
-35.4224

> <Gold.PLP.part.hbond>
-3.3967

> <Gold.PLP.part.metal>
0.0000

> <Gold.PLP.part.buried>
-4.6101

> <Gold.PLP.part.nonpolar>
-28.3605

> <Gold.PLP.part.repulsive>
0.1929

> <Gold.PLP.ligand.clash>
0.0000

> <Gold.PLP.ligand.torsion>
1.0733

> <Gold.PLP.Chemscore.Hbond>
2.7760

> <Gold.PLP.Chemscore.CHOScore>
0.0000

> <Gold.PLP.Chemscore.Metal>
0.0000

> <Gold.Chemscore.Hbonds>
donor molecule, donor type, donor heavy atom, donor atom, acceptor molecule, acceptor atom, score
      P1  H  6896  6907       L1     9  1.00
      P1  H  6931  6943       L1    12  0.15
      P1  H  6934  6947       L1    12  0.47

> <Gold.PLP.Chemscore.Internal.Correction>
0.5626

> <Gold.Rescore>
     Score         DG    S(hbond)    S(metal)    S(lipo)     H(rot)  DE(clash)    DE(int)     intcor
     15.05     -16.06       2.07        0.00      63.22       1.46       0.01       0.99       ----

> <Gold.Chemscore.Fitness>
15.0541

> <Gold.Chemscore.DG>
-16.0594

> <Gold.Chemscore.ZeroCoef>
-5.4800

> <Gold.Chemscore.Hbond>
2.0724

> <Gold.Chemscore.Metal>
0.0000

> <Gold.Chemscore.Lipo>
63.2163

> <Gold.Chemscore.Internal_Hbond>
0.0000

> <Gold.Chemscore.DEClash>
0.0135

> <Gold.Chemscore.DEInternal>
0.9917

> <Gold.Chemscore.Rot>
1.4604

> <Gold.Chemscore.Internal.Correction>
   9.000000E+99

> <Gold.Chemscore.Hbonds>
donor molecule, donor type, donor heavy atom, donor atom, acceptor molecule, acceptor atom, score
      P1  H  6896  6907       L1     9  0.97
      P1  H  6931  6943       L1    12  0.07
      P1  H  6934  6947       L1    12  0.43

> <Gold.Chemscore.Hbond.Weighted>
-6.9218

> <Gold.Chemscore.Metal.Weighted>
-0.0000

> <Gold.Chemscore.Lipo.Weighted>
-7.3963

> <Gold.Chemscore.Internal_Hbond.Weighted>
0.0000

> <Gold.Chemscore.DEClash.Weighted>
0.0135

> <Gold.Chemscore.DEInternal.Weighted>
0.9917

> <Gold.Chemscore.Rot.Weighted>
3.7387

> <Gold.Chemscore.Internal.Correction.Weighted>
   9.000000E+99

> <Gold.Protein.RotatedTorsions>
[ 6907 6896 6895 6894 ] final  -43.37 input  -60.11 | X-H torsion
[ 7974 7965 7964 7962 ] final  175.29 input  175.53 | X-H torsion
[ 8008 7997 7996 7995 ] final   80.93 input   59.86 | X-H torsion
[ 10167 10162 10161 10158 ] final  -38.28 input  -65.29 | X-H torsion
[ 10718 10713 10712 10709 ] final  -37.19 input   66.30 | X-H torsion
[ 10763 10752 10751 10750 ] final -107.35 input  -60.55 | X-H torsion
[ 11005 11000 10999 10996 ] final -125.08 input  -57.11 | X-H torsion

> <Gold.Protein.ActiveResidues>
 VAL166  LYS551  ARG553  GLY616  TRP617  ASP618  TYR619  PRO620  LYS621  CYS622 
 ASP623  PHE694  ASN695  SER759  ASP760  ASP761  ALA762  ILE779  LEU786  VAL792 
 PHE793  MET794  SER795  GLU796  ALA797  LYS798  CYS799  TRP800  GLU811  SER814 

> <Gold.Protein.RotatedAtoms>
  150.9447  134.8853  159.7633 H   0  0  0  0  0  0  0  0  0  0  0  0  # atno 6907 bound_to 6896
  152.5095  134.3892  159.9388 H   0  0  0  0  0  0  0  0  0  0  0  0  # atno 6908 bound_to 6896
  151.3911  133.3748  159.2756 H   0  0  0  0  0  0  0  0  0  0  0  0  # atno 6909 bound_to 6896
  144.7205  139.9924  143.6440 H   0  0  0  0  0  0  0  0  0  0  0  0  # atno 7974 bound_to 7965
  155.8902  140.3439  155.5951 H   0  0  0  0  0  0  0  0  0  0  0  0  # atno 8008 bound_to 7997
  155.7619  140.0833  157.2170 H   0  0  0  0  0  0  0  0  0  0  0  0  # atno 8009 bound_to 7997
  154.4032  140.1534  156.2830 H   0  0  0  0  0  0  0  0  0  0  0  0  # atno 8010 bound_to 7997
  140.7096  143.3287  151.2619 H   0  0  0  0  0  0  0  0  0  0  0  0  # atno 10167 bound_to 10162
  156.3181  130.4262  149.7986 H   0  0  0  0  0  0  0  0  0  0  0  0  # atno 10718 bound_to 10713
  154.8069  135.4678  154.0416 H   0  0  0  0  0  0  0  0  0  0  0  0  # atno 10763 bound_to 10752
  153.1878  135.6850  153.8399 H   0  0  0  0  0  0  0  0  0  0  0  0  # atno 10764 bound_to 10752
  153.7928  135.3241  155.3358 H   0  0  0  0  0  0  0  0  0  0  0  0  # atno 10765 bound_to 10752
  140.9790  134.0699  157.3786 H   0  0  0  0  0  0  0  0  0  0  0  0  # atno 11005 bound_to 11000
  146.0401  139.3414  143.0702 LP  0  0  0  0  0  0  0  0  0  0  0  0  # atno 17320 bound_to 7965
  145.8345  140.9613  143.0831 LP  0  0  0  0  0  0  0  0  0  0  0  0  # atno 17321 bound_to 7965
  139.6763  143.9932  152.2783 LP  0  0  0  0  0  0  0  0  0  0  0  0  # atno 17342 bound_to 10162
  139.9547  144.6597  150.8137 LP  0  0  0  0  0  0  0  0  0  0  0  0  # atno 17343 bound_to 10162
  156.5305  130.8255  151.3235 LP  0  0  0  0  0  0  0  0  0  0  0  0  # atno 17370 bound_to 10713
  157.7406  130.9853  150.2387 LP  0  0  0  0  0  0  0  0  0  0  0  0  # atno 17371 bound_to 10713
  139.8942  135.0135  156.6941 LP  0  0  0  0  0  0  0  0  0  0  0  0  # atno 17394 bound_to 11000
  140.7214  133.9137  155.8149 LP  0  0  0  0  0  0  0  0  0  0  0  0  # atno 17395 bound_to 11000

$$$$
