AV-unprocessed.smi:293|AV-procd|sdf|2251|dock5
  -GOLD-   2262022133D 1   1.00000     0.00000
 Structure written by MMmdl.
 32 33  0  0  0  0  0  0  0  0  1 V2000
  145.5744  141.7603  159.4061 N   0  0  0  0  0  0  0  0  0  0  0  0
  145.9348  141.7819  158.3064 C   0  0  0  0  0  0  0  0  0  0  0  0
  146.3874  141.8089  156.9260 C   0  0  0  0  0  0  0  0  0  0  0  0
  145.5184  142.0168  155.8943 N   0  0  0  0  0  0  0  0  0  0  0  0
  146.3789  141.9594  154.8852 C   0  0  0  0  0  0  0  0  0  0  0  0
  147.6432  141.7390  155.2613 N   0  0  0  0  0  0  0  0  0  0  0  0
  148.8559  141.6273  154.4710 C   0  0  0  0  0  0  0  0  0  0  0  0
  150.0924  141.5567  155.3681 C   0  0  0  0  0  0  0  0  0  0  0  0
  150.8293  140.5720  155.3237 O   0  0  0  0  0  0  0  0  0  0  0  0
  150.3079  142.6096  156.1724 N   0  0  0  0  0  0  0  0  0  0  0  0
  151.4384  142.7639  157.0820 C   0  0  0  0  0  0  0  0  0  0  0  0
  151.2988  141.7659  158.2474 C   0  0  0  0  0  0  0  0  0  0  0  0
  152.4314  141.9328  159.2733 C   0  0  0  0  0  0  0  0  0  0  0  0
  152.5028  143.3766  159.7942 C   0  0  0  0  0  0  0  0  0  0  0  0
  152.6499  144.3762  158.6364 C   0  0  0  0  0  0  0  0  0  0  0  0
  151.5179  144.2124  157.6093 C   0  0  0  0  0  0  0  0  0  0  0  0
  147.6697  141.6355  156.6128 N   0  0  0  0  0  0  0  0  0  0  0  0
  146.0846  142.0855  153.8533 H   0  0  0  0  0  0  0  0  0  0  0  0
  148.8015  140.7393  153.8395 H   0  0  0  0  0  0  0  0  0  0  0  0
  148.9220  142.4914  153.8084 H   0  0  0  0  0  0  0  0  0  0  0  0
  149.6456  143.3714  156.1385 H   0  0  0  0  0  0  0  0  0  0  0  0
  152.3598  142.5317  156.5442 H   0  0  0  0  0  0  0  0  0  0  0  0
  150.3390  141.9118  158.7454 H   0  0  0  0  0  0  0  0  0  0  0  0
  151.2969  140.7438  157.8668 H   0  0  0  0  0  0  0  0  0  0  0  0
  152.2829  141.2445  160.1057 H   0  0  0  0  0  0  0  0  0  0  0  0
  153.3829  141.6621  158.8139 H   0  0  0  0  0  0  0  0  0  0  0  0
  151.6004  143.6055  160.3625 H   0  0  0  0  0  0  0  0  0  0  0  0
  153.3392  143.4822  160.4857 H   0  0  0  0  0  0  0  0  0  0  0  0
  152.6557  145.3954  159.0236 H   0  0  0  0  0  0  0  0  0  0  0  0
  153.6123  144.2270  158.1450 H   0  0  0  0  0  0  0  0  0  0  0  0
  151.6740  144.9077  156.7837 H   0  0  0  0  0  0  0  0  0  0  0  0
  150.5687  144.4901  158.0701 H   0  0  0  0  0  0  0  0  0  0  0  0
  1  2  3  0  0  0  0
  2  3  1  0  0  0  0
  3 17  2  0  0  0  0
  3  4  1  0  0  0  0
  4  5  2  0  0  0  0
  5  6  1  0  0  0  0
  5 18  1  0  0  0  0
  6  7  1  0  0  0  0
  6 17  1  0  0  0  0
  7  8  1  0  0  0  0
  7 19  1  0  0  0  0
  7 20  1  0  0  0  0
  8  9  2  0  0  0  0
  8 10  1  0  0  0  0
 10 11  1  0  0  0  0
 10 21  1  0  0  0  0
 11 16  1  0  0  0  0
 11 12  1  0  0  0  0
 11 22  1  0  0  0  0
 12 13  1  0  0  0  0
 12 23  1  0  0  0  0
 12 24  1  0  0  0  0
 13 14  1  0  0  0  0
 13 25  1  0  0  0  0
 13 26  1  0  0  0  0
 14 15  1  0  0  0  0
 14 27  1  0  0  0  0
 14 28  1  0  0  0  0
 15 16  1  0  0  0  0
 15 29  1  0  0  0  0
 15 30  1  0  0  0  0
 16 31  1  0  0  0  0
 16 32  1  0  0  0  0
M  END
> <s_m_source_file>
AV-unprocessed.smi

> <i_m_source_file_index>
293

> <i_lp_mmshare_version>
43012

> <i_f3d_flags>
0

> <s_epik_input>
TiNDYzFuW2NIXW4objEpW0NIMl1DKD1PKVtOSF1bQ0hdMltDSDJdW0NIMl1bQ0gyXVtDSDJdW0NIMl0y

> <s_epik_cmdline>
J2VwaWtfcHl0aG9uJywgJy1waCcsICc3LjAnLCAnLXRuJywgJzgnLCAnLW1hJywgJzIwMCcsICctbWV0YWxfYmluZGluZycsICctaW1hZScsICc8aW5maWxlLm1hZT4nLCAnLW9tYWUnLCAnPG91dGZpbGUubWFlPic=

> <r_lp_tautomer_probability>
1

> <r_epik_Ionization_Penalty>
5.31112e-08

> <r_epik_Ionization_Penalty_Charging>
0

> <r_epik_Ionization_Penalty_Neutral>
5.31112e-08

> <r_epik_State_Penalty>
-0

> <r_epik_Charging_Adjusted_Penalty>
0

> <i_epik_Tot_Q>
0

> <i_epik_Tot_abs_Q>
0

> <r_epik_Metal_State_Penalty>
-0

> <b_epik_Metal_Only>
0

> <s_lp_Force_Field>
OPLS_2005

> <r_lp_Energy>
12.166

> <b_lp_Chiralities_Consistent>
1

> <s_lp_Variant>
AV-unprocessed.smi:293-1

> <Gold.Version>
5.8.1

> <Gold.Id.Protein>
6NUR|6NUR_protein|mol2

> <Gold.PLP.Fitness>
42.3065

> <Gold.PLP.PLP>
-33.7975

> <Gold.PLP.part.hbond>
-3.0000

> <Gold.PLP.part.metal>
0.0000

> <Gold.PLP.part.buried>
-3.0770

> <Gold.PLP.part.nonpolar>
-27.6837

> <Gold.PLP.part.repulsive>
0.3731

> <Gold.PLP.ligand.clash>
0.0000

> <Gold.PLP.ligand.torsion>
0.1640

> <Gold.PLP.Chemscore.Hbond>
2.9440

> <Gold.PLP.Chemscore.CHOScore>
0.0000

> <Gold.PLP.Chemscore.Metal>
0.0000

> <Gold.Chemscore.Hbonds>
donor molecule, donor type, donor heavy atom, donor atom, acceptor molecule, acceptor atom, score
      L1  H    10    21       P1  8028  1.00
      P1  H  6934  6946       L1     1  0.91
      P1  H  7989  7998       L1     9  0.85

> <Gold.PLP.Chemscore.Internal.Correction>
0.0051

> <Gold.Rescore>
     Score         DG    S(hbond)    S(metal)    S(lipo)     H(rot)  DE(clash)    DE(int)     intcor
     14.96     -16.95       2.22        0.00      77.48       1.96       0.44       1.56       ----

> <Gold.Chemscore.Fitness>
14.9557

> <Gold.Chemscore.DG>
-16.9515

> <Gold.Chemscore.ZeroCoef>
-5.4800

> <Gold.Chemscore.Hbond>
2.2240

> <Gold.Chemscore.Metal>
0.0000

> <Gold.Chemscore.Lipo>
77.4765

> <Gold.Chemscore.Internal_Hbond>
0.0000

> <Gold.Chemscore.DEClash>
0.4392

> <Gold.Chemscore.DEInternal>
1.5566

> <Gold.Chemscore.Rot>
1.9615

> <Gold.Chemscore.Internal.Correction>
   9.000000E+99

> <Gold.Chemscore.Hbonds>
donor molecule, donor type, donor heavy atom, donor atom, acceptor molecule, acceptor atom, score
      L1  H    10    21       P1  8028  0.99
      P1  H  6934  6946       L1     1  0.75
      P1  H  7989  7998       L1     9  0.15

> <Gold.Chemscore.Hbond.Weighted>
-7.4281

> <Gold.Chemscore.Metal.Weighted>
-0.0000

> <Gold.Chemscore.Lipo.Weighted>
-9.0647

> <Gold.Chemscore.Internal_Hbond.Weighted>
0.0000

> <Gold.Chemscore.DEClash.Weighted>
0.4392

> <Gold.Chemscore.DEInternal.Weighted>
1.5566

> <Gold.Chemscore.Rot.Weighted>
5.0214

> <Gold.Chemscore.Internal.Correction.Weighted>
   9.000000E+99

> <Gold.Protein.RotatedTorsions>
[ 6907 6896 6895 6894 ] final  139.35 input  -60.11 | X-H torsion
[ 7974 7965 7964 7962 ] final   55.46 input  175.53 | X-H torsion
[ 8008 7997 7996 7995 ] final  168.10 input   59.86 | X-H torsion
[ 10167 10162 10161 10158 ] final  -34.70 input  -65.29 | X-H torsion
[ 10718 10713 10712 10709 ] final  136.09 input   66.30 | X-H torsion
[ 10763 10752 10751 10750 ] final  -32.41 input  -60.55 | X-H torsion
[ 11005 11000 10999 10996 ] final  -86.31 input  -57.11 | X-H torsion

> <Gold.Protein.ActiveResidues>
 VAL166  LYS551  ARG553  GLY616  TRP617  ASP618  TYR619  PRO620  LYS621  CYS622 
 ASP623  PHE694  ASN695  SER759  ASP760  ASP761  ALA762  ILE779  LEU786  VAL792 
 PHE793  MET794  SER795  GLU796  ALA797  LYS798  CYS799  TRP800  GLU811  SER814 

> <Gold.Protein.RotatedAtoms>
  152.2559  133.5255  159.5352 H   0  0  0  0  0  0  0  0  0  0  0  0  # atno 6907 bound_to 6896
  150.7109  134.0896  159.3936 H   0  0  0  0  0  0  0  0  0  0  0  0  # atno 6908 bound_to 6896
  151.8815  135.0452  160.0540 H   0  0  0  0  0  0  0  0  0  0  0  0  # atno 6909 bound_to 6896
  145.9502  139.3965  143.0310 H   0  0  0  0  0  0  0  0  0  0  0  0  # atno 7974 bound_to 7965
  156.1576  140.1599  156.8666 H   0  0  0  0  0  0  0  0  0  0  0  0  # atno 8008 bound_to 7997
  154.5130  140.0796  156.8062 H   0  0  0  0  0  0  0  0  0  0  0  0  # atno 8009 bound_to 7997
  155.3772  140.3403  155.4247 H   0  0  0  0  0  0  0  0  0  0  0  0  # atno 8010 bound_to 7997
  140.7180  143.3529  151.2119 H   0  0  0  0  0  0  0  0  0  0  0  0  # atno 10167 bound_to 10162
  157.4503  131.1065  151.0041 H   0  0  0  0  0  0  0  0  0  0  0  0  # atno 10718 bound_to 10713
  153.8134  135.6880  153.4837 H   0  0  0  0  0  0  0  0  0  0  0  0  # atno 10763 bound_to 10752
  153.1614  135.4578  154.9776 H   0  0  0  0  0  0  0  0  0  0  0  0  # atno 10764 bound_to 10752
  154.7958  135.3318  154.7612 H   0  0  0  0  0  0  0  0  0  0  0  0  # atno 10765 bound_to 10752
  141.1631  133.7447  156.9143 H   0  0  0  0  0  0  0  0  0  0  0  0  # atno 11005 bound_to 11000
  145.8181  140.9692  143.0913 LP  0  0  0  0  0  0  0  0  0  0  0  0  # atno 17320 bound_to 7965
  144.6794  140.0007  143.7484 LP  0  0  0  0  0  0  0  0  0  0  0  0  # atno 17321 bound_to 7965
  139.7064  143.9448  152.2928 LP  0  0  0  0  0  0  0  0  0  0  0  0  # atno 17342 bound_to 10162
  139.9159  144.6829  150.8513 LP  0  0  0  0  0  0  0  0  0  0  0  0  # atno 17343 bound_to 10162
  157.0874  130.5928  149.5432 LP  0  0  0  0  0  0  0  0  0  0  0  0  # atno 17370 bound_to 10713
  155.9984  130.5058  150.7570 LP  0  0  0  0  0  0  0  0  0  0  0  0  # atno 17371 bound_to 10713
  140.1495  134.9239  157.2574 LP  0  0  0  0  0  0  0  0  0  0  0  0  # atno 17394 bound_to 11000
  140.2739  134.3428  155.7364 LP  0  0  0  0  0  0  0  0  0  0  0  0  # atno 17395 bound_to 11000

$$$$
