AV-unprocessed.smi:1730|AV-procd|sdf|6971|dock3
  -GOLD-   22720 8183D 1   1.00000     0.00000
 Structure written by MMmdl.
 38 39  0  0  0  0  0  0  0  0  1 V2000
  151.6690  138.2821  154.5289 C   0  0  0  0  0  0  0  0  0  0  0  0
  150.3135  138.2257  154.0988 O   0  0  0  0  0  0  0  0  0  0  0  0
  149.5478  139.3735  154.1766 C   0  0  0  0  0  0  0  0  0  0  0  0
  150.1130  140.4924  154.6957 N   0  0  0  0  0  0  0  0  0  0  0  0
  149.3645  141.6114  154.7781 C   0  0  0  0  0  0  0  0  0  0  0  0
  148.0232  141.6734  154.3589 C   0  0  0  0  0  0  0  0  0  0  0  0
  147.4347  140.5146  153.8195 C   0  0  0  0  0  0  0  0  0  0  0  0
  148.2122  139.3357  153.7120 C   0  0  0  0  0  0  0  0  0  0  0  0
  147.7172  138.1043  153.2002 N   0  0  0  0  0  0  0  0  0  0  0  0
  146.4682  137.6119  153.2497 C   0  0  0  0  0  0  0  0  0  0  0  0
  145.4986  138.1775  153.7539 O   0  0  0  0  0  0  0  0  0  0  0  0
  146.4045  136.4100  152.6597 N   0  0  0  0  0  0  0  0  0  0  0  0
  145.2107  135.5749  152.5335 C   0  0  1  0  0  0  0  0  0  0  0  0
  143.9969  136.4607  152.2171 C   0  0  0  0  0  0  0  0  0  0  0  0
  145.4219  134.4773  151.4705 C   0  0  2  0  0  0  0  0  0  0  0  0
  144.1892  133.6262  151.1512 C   0  0  0  0  0  0  0  0  0  0  0  0
  144.8255  132.3677  150.6072 C   0  0  0  0  0  0  0  0  0  0  0  0
  146.0463  132.2229  151.5113 C   0  0  0  0  0  0  0  0  0  0  0  0
  146.4262  133.5477  151.8745 O   0  0  0  0  0  0  0  0  0  0  0  0
  152.1267  137.3008  154.4057 H   0  0  0  0  0  0  0  0  0  0  0  0
  151.7416  138.5510  155.5836 H   0  0  0  0  0  0  0  0  0  0  0  0
  152.2464  138.9932  153.9363 H   0  0  0  0  0  0  0  0  0  0  0  0
  149.8471  142.4818  155.1973 H   0  0  0  0  0  0  0  0  0  0  0  0
  147.4568  142.5880  154.4531 H   0  0  0  0  0  0  0  0  0  0  0  0
  146.4004  140.5523  153.5160 H   0  0  0  0  0  0  0  0  0  0  0  0
  148.3879  137.5557  152.6820 H   0  0  0  0  0  0  0  0  0  0  0  0
  147.2561  136.0302  152.2722 H   0  0  0  0  0  0  0  0  0  0  0  0
  145.0024  135.0735  153.4800 H   0  0  0  0  0  0  0  0  0  0  0  0
  143.0867  135.8660  152.1362 H   0  0  0  0  0  0  0  0  0  0  0  0
  144.1288  136.9968  151.2768 H   0  0  0  0  0  0  0  0  0  0  0  0
  143.8362  137.2004  153.0024 H   0  0  0  0  0  0  0  0  0  0  0  0
  145.7658  134.9358  150.5418 H   0  0  0  0  0  0  0  0  0  0  0  0
  143.6209  133.3882  152.0509 H   0  0  0  0  0  0  0  0  0  0  0  0
  143.5151  134.1059  150.4415 H   0  0  0  0  0  0  0  0  0  0  0  0
  144.1646  131.5012  150.6411 H   0  0  0  0  0  0  0  0  0  0  0  0
  145.1373  132.5222  149.5733 H   0  0  0  0  0  0  0  0  0  0  0  0
  145.7836  131.6789  152.4194 H   0  0  0  0  0  0  0  0  0  0  0  0
  146.8647  131.6930  151.0237 H   0  0  0  0  0  0  0  0  0  0  0  0
  1  2  1  0  0  0  0
  1 20  1  0  0  0  0
  1 21  1  0  0  0  0
  1 22  1  0  0  0  0
  2  3  1  0  0  0  0
  3  8  1  0  0  0  0
  3  4  2  0  0  0  0
  4  5  1  0  0  0  0
  5  6  2  0  0  0  0
  5 23  1  0  0  0  0
  6  7  1  0  0  0  0
  6 24  1  0  0  0  0
  7  8  2  0  0  0  0
  7 25  1  0  0  0  0
  8  9  1  0  0  0  0
  9 10  1  0  0  0  0
  9 26  1  0  0  0  0
 10 11  2  0  0  0  0
 10 12  1  0  0  0  0
 12 13  1  0  0  0  0
 12 27  1  0  0  0  0
 13 14  1  0  0  0  0
 13 15  1  0  0  0  0
 13 28  1  0  0  0  0
 14 29  1  0  0  0  0
 14 30  1  0  0  0  0
 14 31  1  0  0  0  0
 15 19  1  0  0  0  0
 15 16  1  0  0  0  0
 15 32  1  0  0  0  0
 16 17  1  0  0  0  0
 16 33  1  0  0  0  0
 16 34  1  0  0  0  0
 17 18  1  0  0  0  0
 17 35  1  0  0  0  0
 17 36  1  0  0  0  0
 18 19  1  0  0  0  0
 18 37  1  0  0  0  0
 18 38  1  0  0  0  0
M  END
> <s_m_source_file>
AV-unprocessed.smi

> <i_m_source_file_index>
1730

> <i_lp_mmshare_version>
43012

> <i_f3d_flags>
0

> <s_epik_input>
W0NIM11PYzFuW2NIXVtjSF1bY0hdYzFbTkhdQyg9TylbTkhdW0NASF0oW0NIM10pW0NAQEhdMltDSDJdW0NIMl1bQ0gyXU8y

> <s_epik_cmdline>
J2VwaWtfcHl0aG9uJywgJy1waCcsICc3LjAnLCAnLXRuJywgJzgnLCAnLW1hJywgJzIwMCcsICctbWV0YWxfYmluZGluZycsICctaW1hZScsICc8aW5maWxlLm1hZT4nLCAnLW9tYWUnLCAnPG91dGZpbGUubWFlPic=

> <r_lp_tautomer_probability>
1

> <r_epik_Ionization_Penalty>
9.187e-05

> <r_epik_Ionization_Penalty_Charging>
0

> <r_epik_Ionization_Penalty_Neutral>
9.187e-05

> <r_epik_State_Penalty>
-0

> <r_epik_Charging_Adjusted_Penalty>
0

> <i_epik_Tot_Q>
0

> <i_epik_Tot_abs_Q>
0

> <r_epik_Metal_State_Penalty>
-0

> <b_epik_Metal_Only>
0

> <s_lp_Force_Field>
OPLS_2005

> <r_lp_Energy>
21.6149

> <b_lp_Chiralities_Consistent>
1

> <s_lp_Variant>
AV-unprocessed.smi:1730-2

> <Gold.Version>
5.8.1

> <Gold.Id.Protein>
6NUR|6NUR_protein|mol2

> <Gold.PLP.Fitness>
42.3559

> <Gold.PLP.PLP>
-31.6275

> <Gold.PLP.part.hbond>
-3.0000

> <Gold.PLP.part.metal>
0.0000

> <Gold.PLP.part.buried>
-2.2536

> <Gold.PLP.part.nonpolar>
-26.5413

> <Gold.PLP.part.repulsive>
0.7195

> <Gold.PLP.ligand.clash>
0.0000

> <Gold.PLP.ligand.torsion>
0.5067

> <Gold.PLP.Chemscore.Hbond>
2.9280

> <Gold.PLP.Chemscore.CHOScore>
0.9783

> <Gold.PLP.Chemscore.Metal>
0.0000

> <Gold.Chemscore.Hbonds>
donor molecule, donor type, donor heavy atom, donor atom, acceptor molecule, acceptor atom, score
      L1  H     9    26       P1  7948  1.00
      L1  H    12    27       P1  7948  1.00
      P1  H  7989  7998       L1     4  0.93
      L1  C     5    23       P1  8028  0.97

> <Gold.PLP.Chemscore.Internal.Correction>
0.0231

> <Gold.Rescore>
     Score         DG    S(hbond)    S(metal)    S(lipo)     H(rot)  DE(clash)    DE(int)     intcor
     14.21     -17.48       2.26        0.00      70.22       1.47       0.32       2.95       ----

> <Gold.Chemscore.Fitness>
14.2074

> <Gold.Chemscore.DG>
-17.4811

> <Gold.Chemscore.ZeroCoef>
-5.4800

> <Gold.Chemscore.Hbond>
2.2594

> <Gold.Chemscore.Metal>
0.0000

> <Gold.Chemscore.Lipo>
70.2224

> <Gold.Chemscore.Internal_Hbond>
0.0000

> <Gold.Chemscore.DEClash>
0.3192

> <Gold.Chemscore.DEInternal>
2.9546

> <Gold.Chemscore.Rot>
1.4693

> <Gold.Chemscore.Internal.Correction>
   9.000000E+99

> <Gold.Chemscore.Hbonds>
donor molecule, donor type, donor heavy atom, donor atom, acceptor molecule, acceptor atom, score
      L1  H     9    26       P1  7948  0.99
      L1  H    12    27       P1  7948  0.94
      P1  H  7989  7998       L1     4  0.24

> <Gold.Chemscore.Hbond.Weighted>
-7.5464

> <Gold.Chemscore.Metal.Weighted>
-0.0000

> <Gold.Chemscore.Lipo.Weighted>
-8.2160

> <Gold.Chemscore.Internal_Hbond.Weighted>
0.0000

> <Gold.Chemscore.DEClash.Weighted>
0.3192

> <Gold.Chemscore.DEInternal.Weighted>
2.9546

> <Gold.Chemscore.Rot.Weighted>
3.7613

> <Gold.Chemscore.Internal.Correction.Weighted>
   9.000000E+99

> <Gold.Protein.RotatedTorsions>
[ 6907 6896 6895 6894 ] final  -87.86 input  -60.11 | X-H torsion
[ 7974 7965 7964 7962 ] final   97.01 input  175.53 | X-H torsion
[ 8008 7997 7996 7995 ] final  -14.04 input   59.86 | X-H torsion
[ 10167 10162 10161 10158 ] final -157.78 input  -65.29 | X-H torsion
[ 10718 10713 10712 10709 ] final  -14.45 input   66.30 | X-H torsion
[ 10763 10752 10751 10750 ] final -138.74 input  -60.55 | X-H torsion
[ 11005 11000 10999 10996 ] final  -73.26 input  -57.11 | X-H torsion

> <Gold.Protein.ActiveResidues>
 VAL166  LYS551  ARG553  GLY616  TRP617  ASP618  TYR619  PRO620  LYS621  CYS622 
 ASP623  PHE694  ASN695  SER759  ASP760  ASP761  ALA762  ILE779  LEU786  VAL792 
 PHE793  MET794  SER795  GLU796  ALA797  LYS798  CYS799  TRP800  GLU811  SER814 

> <Gold.Protein.RotatedAtoms>
  150.6867  134.2831  159.4635 H   0  0  0  0  0  0  0  0  0  0  0  0  # atno 6907 bound_to 6896
  152.0743  134.9510  160.0583 H   0  0  0  0  0  0  0  0  0  0  0  0  # atno 6908 bound_to 6896
  152.0888  133.4155  159.4571 H   0  0  0  0  0  0  0  0  0  0  0  0  # atno 6909 bound_to 6896
  145.4312  139.2310  143.3143 H   0  0  0  0  0  0  0  0  0  0  0  0  # atno 7974 bound_to 7965
  154.5243  140.2233  155.8919 H   0  0  0  0  0  0  0  0  0  0  0  0  # atno 8008 bound_to 7997
  156.1696  140.3125  155.8914 H   0  0  0  0  0  0  0  0  0  0  0  0  # atno 8009 bound_to 7997
  155.3586  140.0460  157.3037 H   0  0  0  0  0  0  0  0  0  0  0  0  # atno 8010 bound_to 7997
  139.6744  143.9689  152.2302 H   0  0  0  0  0  0  0  0  0  0  0  0  # atno 10167 bound_to 10162
  156.6158  130.4862  149.6183 H   0  0  0  0  0  0  0  0  0  0  0  0  # atno 10718 bound_to 10713
  154.8629  135.3603  154.5434 H   0  0  0  0  0  0  0  0  0  0  0  0  # atno 10763 bound_to 10752
  153.6055  135.7011  153.5372 H   0  0  0  0  0  0  0  0  0  0  0  0  # atno 10764 bound_to 10752
  153.3254  135.4139  155.1413 H   0  0  0  0  0  0  0  0  0  0  0  0  # atno 10765 bound_to 10752
  141.1620  133.6872  156.7185 H   0  0  0  0  0  0  0  0  0  0  0  0  # atno 11005 bound_to 11000
  146.2606  140.5049  142.8855 LP  0  0  0  0  0  0  0  0  0  0  0  0  # atno 17320 bound_to 7965
  144.8182  140.6504  143.6370 LP  0  0  0  0  0  0  0  0  0  0  0  0  # atno 17321 bound_to 7965
  139.9462  144.6649  150.8216 LP  0  0  0  0  0  0  0  0  0  0  0  0  # atno 17342 bound_to 10162
  140.7630  143.3212  151.2619 LP  0  0  0  0  0  0  0  0  0  0  0  0  # atno 17343 bound_to 10162
  156.2352  130.6818  151.1502 LP  0  0  0  0  0  0  0  0  0  0  0  0  # atno 17370 bound_to 10713
  157.7241  131.0662  150.6007 LP  0  0  0  0  0  0  0  0  0  0  0  0  # atno 17371 bound_to 10713
  140.2834  134.8298  157.3953 LP  0  0  0  0  0  0  0  0  0  0  0  0  # atno 17394 bound_to 11000
  140.1412  134.4969  155.8030 LP  0  0  0  0  0  0  0  0  0  0  0  0  # atno 17395 bound_to 11000

$$$$
