AV-unprocessed.smi:2131|AV-procd|sdf|8689|dock4
  -GOLD-   2272011443D 1   1.00000     0.00000
 Structure written by MMmdl.
 41 43  0  0  0  0  0  0  0  0  2 V2000
  149.5198  145.0757  160.1998 N   0  0  0  0  0  0  0  0  0  0  0  0
  150.6593  145.0866  160.3996 C   0  0  0  0  0  0  0  0  0  0  0  0
  152.1082  145.1006  160.6531 C   0  0  0  0  0  0  0  0  0  0  0  0
  152.6949  143.7042  160.6743 C   0  0  0  0  0  0  0  0  0  0  0  0
  152.8265  142.9722  159.4783 C   0  0  0  0  0  0  0  0  0  0  0  0
  153.3697  141.6733  159.5014 C   0  0  0  0  0  0  0  0  0  0  0  0
  153.7886  141.0864  160.7135 C   0  0  0  0  0  0  0  0  0  0  0  0
  154.3074  139.8110  160.6449 O   0  0  0  0  0  0  0  0  0  0  0  0
  154.4197  139.0646  161.8496 C   0  0  0  0  0  0  0  0  0  0  0  0
  154.4705  137.5673  161.5104 C   0  0  2  0  0  0  0  0  0  0  0  0
  153.1469  137.0705  161.4921 O   0  0  0  0  0  0  0  0  0  0  0  0
  155.3248  136.7636  162.5109 C   0  0  0  0  0  0  0  0  0  0  0  0
  155.1483  135.3111  162.3696 N   0  0  0  0  0  0  0  0  0  0  0  0
  155.3304  134.5184  161.2789 C   0  0  0  0  0  0  0  0  0  0  0  0
  155.0372  133.2400  161.6451 N   0  3  0  0  0  0  0  0  0  0  0  0
  154.6612  133.2146  162.9896 C   0  0  0  0  0  0  0  0  0  0  0  0
  154.2748  132.1566  163.8064 C   0  0  0  0  0  0  0  0  0  0  0  0
  153.9498  132.4738  165.1417 C   0  0  0  0  0  0  0  0  0  0  0  0
  154.0147  133.7994  165.6181 C   0  0  0  0  0  0  0  0  0  0  0  0
  154.4081  134.8642  164.7809 C   0  0  0  0  0  0  0  0  0  0  0  0
  154.7295  134.5425  163.4624 C   0  0  0  0  0  0  0  0  0  0  0  0
  153.6531  141.8295  161.9137 C   0  0  0  0  0  0  0  0  0  0  0  0
  153.1097  143.1287  161.8912 C   0  0  0  0  0  0  0  0  0  0  0  0
  152.5889  145.6982  159.8781 H   0  0  0  0  0  0  0  0  0  0  0  0
  152.2872  145.5967  161.6073 H   0  0  0  0  0  0  0  0  0  0  0  0
  152.5094  143.4046  158.5406 H   0  0  0  0  0  0  0  0  0  0  0  0
  153.4649  141.1205  158.5782 H   0  0  0  0  0  0  0  0  0  0  0  0
  155.3150  139.3543  162.4027 H   0  0  0  0  0  0  0  0  0  0  0  0
  153.5520  139.2658  162.4804 H   0  0  0  0  0  0  0  0  0  0  0  0
  154.8782  137.4443  160.5062 H   0  0  0  0  0  0  0  0  0  0  0  0
  153.0410  136.5290  160.7246 H   0  0  0  0  0  0  0  0  0  0  0  0
  156.3829  136.9720  162.3480 H   0  0  0  0  0  0  0  0  0  0  0  0
  155.1131  137.0562  163.5395 H   0  0  0  0  0  0  0  0  0  0  0  0
  155.6484  134.8451  160.2992 H   0  0  0  0  0  0  0  0  0  0  0  0
  154.2228  131.1404  163.4436 H   0  0  0  0  0  0  0  0  0  0  0  0
  153.6435  131.6852  165.8136 H   0  0  0  0  0  0  0  0  0  0  0  0
  153.7559  134.0047  166.6467 H   0  0  0  0  0  0  0  0  0  0  0  0
  154.4478  135.8762  165.1552 H   0  0  0  0  0  0  0  0  0  0  0  0
  153.9576  141.4249  162.8669 H   0  0  0  0  0  0  0  0  0  0  0  0
  153.0102  143.6828  162.8130 H   0  0  0  0  0  0  0  0  0  0  0  0
  155.0889  132.4453  161.0208 H   0  0  0  0  0  0  0  0  0  0  0  0
  1  2  3  0  0  0  0
  2  3  1  0  0  0  0
  3  4  1  0  0  0  0
  3 24  1  0  0  0  0
  3 25  1  0  0  0  0
  4 23  1  0  0  0  0
  4  5  2  0  0  0  0
  5  6  1  0  0  0  0
  5 26  1  0  0  0  0
  6  7  2  0  0  0  0
  6 27  1  0  0  0  0
  7  8  1  0  0  0  0
  7 22  1  0  0  0  0
  8  9  1  0  0  0  0
  9 10  1  0  0  0  0
  9 28  1  0  0  0  0
  9 29  1  0  0  0  0
 10 11  1  0  0  0  0
 10 12  1  0  0  0  0
 10 30  1  0  0  0  0
 11 31  1  0  0  0  0
 12 13  1  0  0  0  0
 12 32  1  0  0  0  0
 12 33  1  0  0  0  0
 13 21  1  0  0  0  0
 13 14  1  0  0  0  0
 14 15  2  0  0  0  0
 14 34  1  0  0  0  0
 15 16  1  0  0  0  0
 15 41  1  0  0  0  0
 16 21  2  0  0  0  0
 16 17  1  0  0  0  0
 17 18  2  0  0  0  0
 17 35  1  0  0  0  0
 18 19  1  0  0  0  0
 18 36  1  0  0  0  0
 19 20  2  0  0  0  0
 19 37  1  0  0  0  0
 20 21  1  0  0  0  0
 20 38  1  0  0  0  0
 22 23  2  0  0  0  0
 22 39  1  0  0  0  0
 23 40  1  0  0  0  0
M  CHG  1  15   1
M  END
> <s_m_source_file>
AV-unprocessed.smi

> <i_m_source_file_index>
2131

> <i_lp_mmshare_version>
43012

> <i_f3d_flags>
0

> <s_epik_input>
TiNDW0NIMl1jMVtjSF1bY0hdYyhbY0hdW2NIXTEpT1tDSDJdW0NASF0oW09IXSlbQ0gyXW4oW2NIXW4yKWMoYzIzKVtjSF1bY0hdW2NIXVtjSF0z

> <s_epik_cmdline>
J2VwaWtfcHl0aG9uJywgJy1waCcsICc3LjAnLCAnLXRuJywgJzgnLCAnLW1hJywgJzIwMCcsICctbWV0YWxfYmluZGluZycsICctaW1hZScsICc8aW5maWxlLm1hZT4nLCAnLW9tYWUnLCAnPG91dGZpbGUubWFlPic=

> <r_lp_tautomer_probability>
1

> <r_epik_Ionization_Penalty>
1.3774

> <r_epik_Ionization_Penalty_Charging>
1.37739

> <r_epik_Ionization_Penalty_Neutral>
2.3994e-06

> <r_epik_State_Penalty>
1.45762

> <r_epik_Charging_Adjusted_Penalty>
2.83501

> <i_epik_Tot_Q>
1

> <i_epik_Tot_abs_Q>
1

> <r_epik_Metal_State_Penalty>
5.49752

> <b_epik_Metal_Only>
0

> <s_lp_Force_Field>
OPLS_2005

> <r_lp_Energy>
20.896

> <b_lp_Chiralities_Consistent>
1

> <s_lp_Variant>
AV-unprocessed.smi:2131-3

> <Gold.Version>
5.8.1

> <Gold.Id.Protein>
6NUR|6NUR_protein|mol2

> <Gold.PLP.Fitness>
46.8576

> <Gold.PLP.PLP>
-48.5900

> <Gold.PLP.part.hbond>
0.0000

> <Gold.PLP.part.metal>
0.0000

> <Gold.PLP.part.buried>
-5.4231

> <Gold.PLP.part.nonpolar>
-44.8170

> <Gold.PLP.part.repulsive>
0.4439

> <Gold.PLP.ligand.clash>
0.0000

> <Gold.PLP.ligand.torsion>
0.9260

> <Gold.PLP.Chemscore.Hbond>
0.0000

> <Gold.PLP.Chemscore.CHOScore>
0.0000

> <Gold.PLP.Chemscore.Metal>
0.0000

> <Gold.PLP.Chemscore.Internal.Correction>
0.1195

> <Gold.Rescore>
     Score         DG    S(hbond)    S(metal)    S(lipo)     H(rot)  DE(clash)    DE(int)     intcor
     14.03     -15.05       0.00        0.00     143.38       2.81       0.24       0.78       ----

> <Gold.Chemscore.Fitness>
14.0289

> <Gold.Chemscore.DG>
-15.0518

> <Gold.Chemscore.ZeroCoef>
-5.4800

> <Gold.Chemscore.Hbond>
0.0000

> <Gold.Chemscore.Metal>
0.0000

> <Gold.Chemscore.Lipo>
143.3828

> <Gold.Chemscore.Internal_Hbond>
0.0000

> <Gold.Chemscore.DEClash>
0.2401

> <Gold.Chemscore.DEInternal>
0.7829

> <Gold.Chemscore.Rot>
2.8140

> <Gold.Chemscore.Internal.Correction>
   9.000000E+99

> <Gold.Chemscore.Hbond.Weighted>
-0.0000

> <Gold.Chemscore.Metal.Weighted>
-0.0000

> <Gold.Chemscore.Lipo.Weighted>
-16.7758

> <Gold.Chemscore.Internal_Hbond.Weighted>
0.0000

> <Gold.Chemscore.DEClash.Weighted>
0.2401

> <Gold.Chemscore.DEInternal.Weighted>
0.7829

> <Gold.Chemscore.Rot.Weighted>
7.2039

> <Gold.Chemscore.Internal.Correction.Weighted>
   9.000000E+99

> <Gold.Protein.RotatedTorsions>
[ 6907 6896 6895 6894 ] final  -34.16 input  -60.11 | X-H torsion
[ 7974 7965 7964 7962 ] final  -74.55 input  175.53 | X-H torsion
[ 8008 7997 7996 7995 ] final  124.52 input   59.86 | X-H torsion
[ 10167 10162 10161 10158 ] final -139.79 input  -65.29 | X-H torsion
[ 10718 10713 10712 10709 ] final   -9.11 input   66.30 | X-H torsion
[ 10763 10752 10751 10750 ] final   78.30 input  -60.55 | X-H torsion
[ 11005 11000 10999 10996 ] final  117.95 input  -57.11 | X-H torsion

> <Gold.Protein.ActiveResidues>
 VAL166  LYS551  ARG553  GLY616  TRP617  ASP618  TYR619  PRO620  LYS621  CYS622 
 ASP623  PHE694  ASN695  SER759  ASP760  ASP761  ALA762  ILE779  LEU786  VAL792 
 PHE793  MET794  SER795  GLU796  ALA797  LYS798  CYS799  TRP800  GLU811  SER814 

> <Gold.Protein.RotatedAtoms>
  151.0562  134.9706  159.8236 H   0  0  0  0  0  0  0  0  0  0  0  0  # atno 6907 bound_to 6896
  152.5388  134.2475  159.8896 H   0  0  0  0  0  0  0  0  0  0  0  0  # atno 6908 bound_to 6896
  151.2493  133.4315  159.2644 H   0  0  0  0  0  0  0  0  0  0  0  0  # atno 6909 bound_to 6896
  145.6376  140.9320  143.1053 H   0  0  0  0  0  0  0  0  0  0  0  0  # atno 7974 bound_to 7965
  156.2804  140.2738  156.1801 H   0  0  0  0  0  0  0  0  0  0  0  0  # atno 8008 bound_to 7997
  155.0565  140.0386  157.2580 H   0  0  0  0  0  0  0  0  0  0  0  0  # atno 8009 bound_to 7997
  154.7152  140.2677  155.6597 H   0  0  0  0  0  0  0  0  0  0  0  0  # atno 8010 bound_to 7997
  139.8345  143.7403  152.2665 H   0  0  0  0  0  0  0  0  0  0  0  0  # atno 10167 bound_to 10162
  156.6929  130.5070  149.5938 H   0  0  0  0  0  0  0  0  0  0  0  0  # atno 10718 bound_to 10713
  153.0864  135.4882  154.8605 H   0  0  0  0  0  0  0  0  0  0  0  0  # atno 10763 bound_to 10752
  154.7215  135.3040  154.9041 H   0  0  0  0  0  0  0  0  0  0  0  0  # atno 10764 bound_to 10752
  153.9704  135.6802  153.4800 H   0  0  0  0  0  0  0  0  0  0  0  0  # atno 10765 bound_to 10752
  139.9092  134.9615  156.7430 H   0  0  0  0  0  0  0  0  0  0  0  0  # atno 11005 bound_to 11000
  144.7169  139.8164  143.7395 LP  0  0  0  0  0  0  0  0  0  0  0  0  # atno 17320 bound_to 7965
  146.1306  139.4341  143.0171 LP  0  0  0  0  0  0  0  0  0  0  0  0  # atno 17321 bound_to 7965
  139.7621  144.7503  151.0349 LP  0  0  0  0  0  0  0  0  0  0  0  0  # atno 17342 bound_to 10162
  140.7804  143.4739  151.0108 LP  0  0  0  0  0  0  0  0  0  0  0  0  # atno 17343 bound_to 10162
  156.1785  130.6483  151.0923 LP  0  0  0  0  0  0  0  0  0  0  0  0  # atno 17370 bound_to 10713
  157.7002  131.0779  150.6844 LP  0  0  0  0  0  0  0  0  0  0  0  0  # atno 17371 bound_to 10713
  140.6835  133.9454  155.7924 LP  0  0  0  0  0  0  0  0  0  0  0  0  # atno 17394 bound_to 11000
  141.0493  134.0508  157.3803 LP  0  0  0  0  0  0  0  0  0  0  0  0  # atno 17395 bound_to 11000

$$$$
