AV-unprocessed.smi:412|AV-procd|sdf|2510|dock5
  -GOLD-   2262022463D 1   1.00000     0.00000
 Structure written by MMmdl.
 36 38  0  0  0  0  0  0  0  0  1 V2000
  153.8935  141.0479  160.5917 C   0  0  0  0  0  0  0  0  0  0  0  0
  152.9808  141.5606  159.5770 N   0  0  0  0  0  0  0  0  0  0  0  0
  152.5447  140.9148  158.4698 C   0  0  0  0  0  0  0  0  0  0  0  0
  152.8482  139.7709  158.1320 O   0  0  0  0  0  0  0  0  0  0  0  0
  151.7144  141.7482  157.7991 N   0  0  0  0  0  0  0  0  0  0  0  0
  151.0072  141.4571  156.5539 C   0  0  0  0  0  0  0  0  0  0  0  0
  149.4774  141.4728  156.7438 C   0  0  2  0  0  0  0  0  0  0  0  0
  149.1647  140.8361  157.9671 O   0  0  0  0  0  0  0  0  0  0  0  0
  148.7799  140.7978  155.5726 C   0  0  0  0  0  0  0  0  0  0  0  0
  149.0361  139.4390  155.2892 C   0  0  0  0  0  0  0  0  0  0  0  0
  148.3865  138.8030  154.2132 C   0  0  0  0  0  0  0  0  0  0  0  0
  147.4750  139.5217  153.4160 C   0  0  0  0  0  0  0  0  0  0  0  0
  147.2109  140.8759  153.6969 C   0  0  0  0  0  0  0  0  0  0  0  0
  147.8600  141.5120  154.7728 C   0  0  0  0  0  0  0  0  0  0  0  0
  151.6108  142.9573  158.5019 C   0  0  0  0  0  0  0  0  0  0  0  0
  150.8753  144.1250  158.2332 C   0  0  0  0  0  0  0  0  0  0  0  0
  150.9891  145.1876  159.1602 C   0  0  0  0  0  0  0  0  0  0  0  0
  151.8147  145.0659  160.3084 C   0  0  0  0  0  0  0  0  0  0  0  0
  152.5429  143.8784  160.5551 C   0  0  0  0  0  0  0  0  0  0  0  0
  152.4100  142.8388  159.6189 C   0  0  0  0  0  0  0  0  0  0  0  0
  154.1766  140.0116  160.4034 H   0  0  0  0  0  0  0  0  0  0  0  0
  153.4272  141.0944  161.5761 H   0  0  0  0  0  0  0  0  0  0  0  0
  154.8039  141.6475  160.6153 H   0  0  0  0  0  0  0  0  0  0  0  0
  151.2921  142.2300  155.8386 H   0  0  0  0  0  0  0  0  0  0  0  0
  151.3402  140.5143  156.1163 H   0  0  0  0  0  0  0  0  0  0  0  0
  149.1211  142.5021  156.8075 H   0  0  0  0  0  0  0  0  0  0  0  0
  148.4748  140.2096  157.8110 H   0  0  0  0  0  0  0  0  0  0  0  0
  149.7302  138.8780  155.8979 H   0  0  0  0  0  0  0  0  0  0  0  0
  148.5862  137.7632  154.0003 H   0  0  0  0  0  0  0  0  0  0  0  0
  146.9769  139.0338  152.5909 H   0  0  0  0  0  0  0  0  0  0  0  0
  146.5089  141.4268  153.0884 H   0  0  0  0  0  0  0  0  0  0  0  0
  147.6467  142.5498  154.9844 H   0  0  0  0  0  0  0  0  0  0  0  0
  150.2478  144.2105  157.3581 H   0  0  0  0  0  0  0  0  0  0  0  0
  150.4404  146.1025  158.9922 H   0  0  0  0  0  0  0  0  0  0  0  0
  151.8875  145.8897  161.0031 H   0  0  0  0  0  0  0  0  0  0  0  0
  153.1722  143.7770  161.4269 H   0  0  0  0  0  0  0  0  0  0  0  0
  1  2  1  0  0  0  0
  1 21  1  0  0  0  0
  1 22  1  0  0  0  0
  1 23  1  0  0  0  0
  2 20  1  0  0  0  0
  2  3  1  0  0  0  0
  3  4  2  0  0  0  0
  3  5  1  0  0  0  0
  5  6  1  0  0  0  0
  5 15  1  0  0  0  0
  6  7  1  0  0  0  0
  6 24  1  0  0  0  0
  6 25  1  0  0  0  0
  7  8  1  0  0  0  0
  7  9  1  0  0  0  0
  7 26  1  0  0  0  0
  8 27  1  0  0  0  0
  9 14  1  0  0  0  0
  9 10  2  0  0  0  0
 10 11  1  0  0  0  0
 10 28  1  0  0  0  0
 11 12  2  0  0  0  0
 11 29  1  0  0  0  0
 12 13  1  0  0  0  0
 12 30  1  0  0  0  0
 13 14  2  0  0  0  0
 13 31  1  0  0  0  0
 14 32  1  0  0  0  0
 15 20  2  0  0  0  0
 15 16  1  0  0  0  0
 16 17  2  0  0  0  0
 16 33  1  0  0  0  0
 17 18  1  0  0  0  0
 17 34  1  0  0  0  0
 18 19  2  0  0  0  0
 18 35  1  0  0  0  0
 19 20  1  0  0  0  0
 19 36  1  0  0  0  0
M  END
> <s_m_source_file>
AV-unprocessed.smi

> <i_m_source_file_index>
412

> <i_lp_mmshare_version>
43012

> <i_f3d_flags>
0

> <s_epik_input>
W2NIXTFbY0hdW2NIXVtjSF1jKGMxMiluKFtDSDNdKWMoPU8pbjJbQ0gyXVtDQEhdKFtPSF0pYzNbY0hdW2NIXVtjSF1bY0hdW2NIXTM=

> <s_epik_cmdline>
J2VwaWtfcHl0aG9uJywgJy1waCcsICc3LjAnLCAnLXRuJywgJzgnLCAnLW1hJywgJzIwMCcsICctbWV0YWxfYmluZGluZycsICctaW1hZScsICc8aW5maWxlLm1hZT4nLCAnLW9tYWUnLCAnPG91dGZpbGUubWFlPic=

> <r_lp_tautomer_probability>
1

> <r_epik_Ionization_Penalty>
1.34619e-06

> <r_epik_Ionization_Penalty_Charging>
2.57375e-09

> <r_epik_Ionization_Penalty_Neutral>
1.34362e-06

> <r_epik_State_Penalty>
-0

> <r_epik_Charging_Adjusted_Penalty>
2.57375e-09

> <i_epik_Tot_Q>
0

> <i_epik_Tot_abs_Q>
0

> <r_epik_Metal_State_Penalty>
-0

> <b_epik_Metal_Only>
0

> <s_lp_Force_Field>
OPLS_2005

> <r_lp_Energy>
43.7895

> <b_lp_Chiralities_Consistent>
1

> <s_lp_Variant>
AV-unprocessed.smi:412-1

> <Gold.Version>
5.8.1

> <Gold.Id.Protein>
6NUR|6NUR_protein|mol2

> <Gold.PLP.Fitness>
48.0541

> <Gold.PLP.PLP>
-45.3572

> <Gold.PLP.part.hbond>
-1.0000

> <Gold.PLP.part.metal>
0.0000

> <Gold.PLP.part.buried>
-3.3236

> <Gold.PLP.part.nonpolar>
-40.6253

> <Gold.PLP.part.repulsive>
0.0000

> <Gold.PLP.ligand.clash>
0.0000

> <Gold.PLP.ligand.torsion>
0.1550

> <Gold.PLP.Chemscore.Hbond>
1.0000

> <Gold.PLP.Chemscore.CHOScore>
0.0000

> <Gold.PLP.Chemscore.Metal>
0.0000

> <Gold.Chemscore.Hbonds>
donor molecule, donor type, donor heavy atom, donor atom, acceptor molecule, acceptor atom, score
      P1  H  7997  8010       L1     4  0.88

> <Gold.PLP.Chemscore.Internal.Correction>
0.0068

> <Gold.Rescore>
     Score         DG    S(hbond)    S(metal)    S(lipo)     H(rot)  DE(clash)    DE(int)     intcor
     17.82     -18.18       0.93        0.00     120.37       1.76       0.05       0.31       ----

> <Gold.Chemscore.Fitness>
17.8170

> <Gold.Chemscore.DG>
-18.1821

> <Gold.Chemscore.ZeroCoef>
-5.4800

> <Gold.Chemscore.Hbond>
0.9319

> <Gold.Chemscore.Metal>
0.0000

> <Gold.Chemscore.Lipo>
120.3737

> <Gold.Chemscore.Internal_Hbond>
0.0000

> <Gold.Chemscore.DEClash>
0.0515

> <Gold.Chemscore.DEInternal>
0.3136

> <Gold.Chemscore.Rot>
1.7555

> <Gold.Chemscore.Internal.Correction>
   9.000000E+99

> <Gold.Chemscore.Hbonds>
donor molecule, donor type, donor heavy atom, donor atom, acceptor molecule, acceptor atom, score
      P1  H  7997  8010       L1     4  0.33

> <Gold.Chemscore.Hbond.Weighted>
-3.1126

> <Gold.Chemscore.Metal.Weighted>
-0.0000

> <Gold.Chemscore.Lipo.Weighted>
-14.0837

> <Gold.Chemscore.Internal_Hbond.Weighted>
0.0000

> <Gold.Chemscore.DEClash.Weighted>
0.0515

> <Gold.Chemscore.DEInternal.Weighted>
0.3136

> <Gold.Chemscore.Rot.Weighted>
4.4942

> <Gold.Chemscore.Internal.Correction.Weighted>
   9.000000E+99

> <Gold.Protein.RotatedTorsions>
[ 6907 6896 6895 6894 ] final   30.45 input  -60.11 | X-H torsion
[ 7974 7965 7964 7962 ] final -109.41 input  175.53 | X-H torsion
[ 8008 7997 7996 7995 ] final   47.73 input   59.86 | X-H torsion
[ 10167 10162 10161 10158 ] final    5.48 input  -65.29 | X-H torsion
[ 10718 10713 10712 10709 ] final   12.20 input   66.30 | X-H torsion
[ 10763 10752 10751 10750 ] final  113.90 input  -60.55 | X-H torsion
[ 11005 11000 10999 10996 ] final  166.75 input  -57.11 | X-H torsion

> <Gold.Protein.ActiveResidues>
 VAL166  LYS551  ARG553  GLY616  TRP617  ASP618  TYR619  PRO620  LYS621  CYS622 
 ASP623  PHE694  ASN695  SER759  ASP760  ASP761  ALA762  ILE779  LEU786  VAL792 
 PHE793  MET794  SER795  GLU796  ALA797  LYS798  CYS799  TRP800  GLU811  SER814 

> <Gold.Protein.RotatedAtoms>
  152.0461  134.9682  160.0574 H   0  0  0  0  0  0  0  0  0  0  0  0  # atno 6907 bound_to 6896
  152.1102  133.4291  159.4635 H   0  0  0  0  0  0  0  0  0  0  0  0  # atno 6908 bound_to 6896
  150.6843  134.2576  159.4579 H   0  0  0  0  0  0  0  0  0  0  0  0  # atno 6909 bound_to 6896
  145.1809  140.8970  143.3480 H   0  0  0  0  0  0  0  0  0  0  0  0  # atno 7974 bound_to 7965
  155.3739  140.3425  155.4244 H   0  0  0  0  0  0  0  0  0  0  0  0  # atno 8008 bound_to 7997
  156.1647  140.1612  156.8585 H   0  0  0  0  0  0  0  0  0  0  0  0  # atno 8009 bound_to 7997
  154.5174  140.0775  156.8088 H   0  0  0  0  0  0  0  0  0  0  0  0  # atno 8010 bound_to 7997
  140.6480  143.7616  150.7529 H   0  0  0  0  0  0  0  0  0  0  0  0  # atno 10167 bound_to 10162
  157.0067  130.6101  149.5703 H   0  0  0  0  0  0  0  0  0  0  0  0  # atno 10718 bound_to 10713
  153.4993  135.3641  155.2531 H   0  0  0  0  0  0  0  0  0  0  0  0  # atno 10763 bound_to 10752
  154.8748  135.3996  154.3498 H   0  0  0  0  0  0  0  0  0  0  0  0  # atno 10764 bound_to 10752
  153.4131  135.7078  153.6412 H   0  0  0  0  0  0  0  0  0  0  0  0  # atno 10765 bound_to 10752
  140.2697  134.7836  157.3664 H   0  0  0  0  0  0  0  0  0  0  0  0  # atno 11005 bound_to 11000
  145.0137  139.3486  143.6107 LP  0  0  0  0  0  0  0  0  0  0  0  0  # atno 17320 bound_to 7965
  146.3453  139.9410  142.8741 LP  0  0  0  0  0  0  0  0  0  0  0  0  # atno 17321 bound_to 7965
  140.1261  143.4568  152.2283 LP  0  0  0  0  0  0  0  0  0  0  0  0  # atno 17342 bound_to 10162
  139.5692  144.7453  151.3938 LP  0  0  0  0  0  0  0  0  0  0  0  0  # atno 17343 bound_to 10162
  156.0151  130.5245  150.8109 LP  0  0  0  0  0  0  0  0  0  0  0  0  # atno 17370 bound_to 10713
  157.5350  131.0938  150.9904 LP  0  0  0  0  0  0  0  0  0  0  0  0  # atno 17371 bound_to 10713
  140.1385  134.5003  155.8050 LP  0  0  0  0  0  0  0  0  0  0  0  0  # atno 17394 bound_to 11000
  141.2179  133.6816  156.7167 LP  0  0  0  0  0  0  0  0  0  0  0  0  # atno 17395 bound_to 11000

$$$$
