AV-unprocessed.smi:69|AV-procd|sdf|656|dock9
  -GOLD-   2262016553D 1   1.00000     0.00000
 Structure written by MMmdl.
 32 34  0  0  0  0  0  0  0  0  1 V2000
  141.7829  138.9363  153.4322 N   0  0  0  0  0  0  0  0  0  0  0  0
  142.0414  137.6213  153.4260 C   0  0  0  0  0  0  0  0  0  0  0  0
  141.0749  136.7730  153.8495 N   0  0  0  0  0  0  0  0  0  0  0  0
  141.3066  135.4557  153.8475 C   0  0  0  0  0  0  0  0  0  0  0  0
  142.4094  134.8008  153.4723 N   0  0  0  0  0  0  0  0  0  0  0  0
  143.3820  135.6607  153.0492 C   0  0  0  0  0  0  0  0  0  0  0  0
  143.2775  137.0773  152.9945 C   0  0  0  0  0  0  0  0  0  0  0  0
  144.4596  137.6186  152.5076 N   0  0  0  0  0  0  0  0  0  0  0  0
  145.2152  136.5761  152.2842 C   0  0  0  0  0  0  0  0  0  0  0  0
  144.6467  135.3571  152.5943 N   0  0  0  0  0  0  0  0  0  0  0  0
  145.2111  133.9767  152.4503 C   0  0  1  0  0  0  0  0  0  0  0  0
  144.3211  133.2193  151.6864 O   0  0  0  0  0  0  0  0  0  0  0  0
  144.7356  133.2327  150.3246 C   0  0  2  0  0  0  0  0  0  0  0  0
  144.0569  132.1109  149.5197 C   0  0  0  0  0  0  0  0  0  0  0  0
  142.6639  132.3335  149.4615 O   0  0  0  0  0  0  0  0  0  0  0  0
  146.2586  133.1259  150.4636 C   0  0  2  0  0  0  0  0  0  0  0  0
  146.6437  131.7791  150.6888 O   0  0  0  0  0  0  0  0  0  0  0  0
  146.5374  134.0279  151.6659 C   0  0  2  0  0  0  0  0  0  0  0  0
  147.6568  133.6042  152.4218 O   0  0  0  0  0  0  0  0  0  0  0  0
  145.2867  133.5955  153.4697 H   0  0  0  0  0  0  0  0  0  0  0  0
  144.4998  134.2035  149.8839 H   0  0  0  0  0  0  0  0  0  0  0  0
  146.7725  133.4802  149.5694 H   0  0  0  0  0  0  0  0  0  0  0  0
  146.7146  135.0464  151.3162 H   0  0  0  0  0  0  0  0  0  0  0  0
  142.4881  139.5877  153.1187 H   0  0  0  0  0  0  0  0  0  0  0  0
  140.8827  139.2726  153.7423 H   0  0  0  0  0  0  0  0  0  0  0  0
  140.4919  134.8383  154.1963 H   0  0  0  0  0  0  0  0  0  0  0  0
  146.2138  136.6758  151.8837 H   0  0  0  0  0  0  0  0  0  0  0  0
  144.4296  132.1062  148.4950 H   0  0  0  0  0  0  0  0  0  0  0  0
  144.2650  131.1299  149.9478 H   0  0  0  0  0  0  0  0  0  0  0  0
  142.2373  131.5148  149.2597 H   0  0  0  0  0  0  0  0  0  0  0  0
  147.4960  131.6462  150.3018 H   0  0  0  0  0  0  0  0  0  0  0  0
  148.2709  134.3213  152.4702 H   0  0  0  0  0  0  0  0  0  0  0  0
  1  2  1  0  0  0  0
  1 24  1  0  0  0  0
  1 25  1  0  0  0  0
  2  7  1  0  0  0  0
  2  3  2  0  0  0  0
  3  4  1  0  0  0  0
  4  5  2  0  0  0  0
  4 26  1  0  0  0  0
  5  6  1  0  0  0  0
  6 10  1  0  0  0  0
  6  7  2  0  0  0  0
  7  8  1  0  0  0  0
  8  9  2  0  0  0  0
  9 10  1  0  0  0  0
  9 27  1  0  0  0  0
 10 11  1  0  0  0  0
 11 20  1  0  0  0  0
 11 18  1  0  0  0  0
 11 12  1  0  0  0  0
 12 13  1  0  0  0  0
 13 21  1  0  0  0  0
 13 14  1  0  0  0  0
 13 16  1  0  0  0  0
 14 15  1  0  0  0  0
 14 28  1  0  0  0  0
 14 29  1  0  0  0  0
 15 30  1  0  0  0  0
 16 22  1  0  0  0  0
 16 17  1  0  0  0  0
 16 18  1  0  0  0  0
 17 31  1  0  0  0  0
 18 23  1  0  0  0  0
 18 19  1  0  0  0  0
 19 32  1  0  0  0  0
M  END
> <s_m_source_file>
AV-unprocessed.smi

> <i_m_source_file_index>
69

> <i_lp_mmshare_version>
43012

> <i_f3d_flags>
0

> <s_epik_input>
bjFbY0hdbmMoW05IMl0pYyhjMTIpbltjSF1uMltDQEBIXTNPW0NASF0oW0NIMl1bT0hdKVtDQEBIXShbT0hdKVtDQEhdM1tPSF0=

> <s_epik_cmdline>
J2VwaWtfcHl0aG9uJywgJy1waCcsICc3LjAnLCAnLXRuJywgJzgnLCAnLW1hJywgJzIwMCcsICctbWV0YWxfYmluZGluZycsICctaW1hZScsICc8aW5maWxlLm1hZT4nLCAnLW9tYWUnLCAnPG91dGZpbGUubWFlPic=

> <r_lp_tautomer_probability>
1

> <r_epik_Ionization_Penalty>
0.000428445

> <r_epik_Ionization_Penalty_Charging>
0

> <r_epik_Ionization_Penalty_Neutral>
0.000428445

> <r_epik_State_Penalty>
-0

> <r_epik_Charging_Adjusted_Penalty>
0

> <i_epik_Tot_Q>
0

> <i_epik_Tot_abs_Q>
0

> <r_epik_Metal_State_Penalty>
-0

> <b_epik_Metal_Only>
0

> <s_epik_Chemistry_Notes>
This compound contains an acetal/aminal-like group ( X-CH(R)-Y where X, Y are N, S, or O) that may be acid/base labile, releasing an aldehyde.

> <s_lp_Force_Field>
OPLS_2005

> <r_lp_Energy>
39.6726

> <b_lp_Chiralities_Consistent>
1

> <s_lp_Variant>
AV-unprocessed.smi:69-14

> <Gold.Version>
5.8.1

> <Gold.Id.Protein>
6NUR|6NUR_protein|mol2

> <Gold.PLP.Fitness>
43.8354

> <Gold.PLP.PLP>
-29.0716

> <Gold.PLP.part.hbond>
-5.0632

> <Gold.PLP.part.metal>
0.0000

> <Gold.PLP.part.buried>
-6.7761

> <Gold.PLP.part.nonpolar>
-20.7221

> <Gold.PLP.part.repulsive>
2.9640

> <Gold.PLP.ligand.clash>
0.0000

> <Gold.PLP.ligand.torsion>
0.1310

> <Gold.PLP.Chemscore.Hbond>
3.7040

> <Gold.PLP.Chemscore.CHOScore>
1.2966

> <Gold.PLP.Chemscore.Metal>
0.0000

> <Gold.Chemscore.Hbonds>
donor molecule, donor type, donor heavy atom, donor atom, acceptor molecule, acceptor atom, score
      L1  H     1    24       P1 10175  1.00
      L1  H    15    30       P1 10952  0.96
      L1  H    17    31       P1 10747  1.00
      L1  H    19    32       P1  7948  0.73
      L1  C     4    26       P1 11000  0.78
      L1  C     9    27       P1  7948  0.45

> <Gold.PLP.Chemscore.Internal.Correction>
0.0240

> <Gold.Rescore>
     Score         DG    S(hbond)    S(metal)    S(lipo)     H(rot)  DE(clash)    DE(int)     intcor
      8.60      -9.45       2.97        0.00      37.18       4.03       0.23       0.63       ----

> <Gold.Chemscore.Fitness>
8.5953

> <Gold.Chemscore.DG>
-9.4512

> <Gold.Chemscore.ZeroCoef>
-5.4800

> <Gold.Chemscore.Hbond>
2.9738

> <Gold.Chemscore.Metal>
0.0000

> <Gold.Chemscore.Lipo>
37.1758

> <Gold.Chemscore.Internal_Hbond>
0.0000

> <Gold.Chemscore.DEClash>
0.2283

> <Gold.Chemscore.DEInternal>
0.6276

> <Gold.Chemscore.Rot>
4.0277

> <Gold.Chemscore.Internal.Correction>
   9.000000E+99

> <Gold.Chemscore.Hbonds>
donor molecule, donor type, donor heavy atom, donor atom, acceptor molecule, acceptor atom, score
      L1  H     1    24       P1 10175  0.92
      L1  H    15    30       P1 10952  0.92
      L1  H    17    31       P1 10747  0.95
      L1  H    19    32       P1  7948  0.10

> <Gold.Chemscore.Hbond.Weighted>
-9.9327

> <Gold.Chemscore.Metal.Weighted>
-0.0000

> <Gold.Chemscore.Lipo.Weighted>
-4.3496

> <Gold.Chemscore.Internal_Hbond.Weighted>
0.0000

> <Gold.Chemscore.DEClash.Weighted>
0.2283

> <Gold.Chemscore.DEInternal.Weighted>
0.6276

> <Gold.Chemscore.Rot.Weighted>
10.3110

> <Gold.Chemscore.Internal.Correction.Weighted>
   9.000000E+99

> <Gold.Protein.RotatedTorsions>
[ 6907 6896 6895 6894 ] final  -51.69 input  -60.11 | X-H torsion
[ 7974 7965 7964 7962 ] final  145.80 input  175.53 | X-H torsion
[ 8008 7997 7996 7995 ] final  -75.30 input   59.86 | X-H torsion
[ 10167 10162 10161 10158 ] final   12.48 input  -65.29 | X-H torsion
[ 10718 10713 10712 10709 ] final  105.56 input   66.30 | X-H torsion
[ 10763 10752 10751 10750 ] final  149.70 input  -60.55 | X-H torsion
[ 11005 11000 10999 10996 ] final -178.14 input  -57.11 | X-H torsion

> <Gold.Protein.ActiveResidues>
 VAL166  LYS551  ARG553  GLY616  TRP617  ASP618  TYR619  PRO620  LYS621  CYS622 
 ASP623  PHE694  ASN695  SER759  ASP760  ASP761  ALA762  ILE779  LEU786  VAL792 
 PHE793  MET794  SER795  GLU796  ALA797  LYS798  CYS799  TRP800  GLU811  SER814 

> <Gold.Protein.RotatedAtoms>
  150.8587  134.7933  159.7065 H   0  0  0  0  0  0  0  0  0  0  0  0  # atno 6907 bound_to 6896
  152.4631  134.5135  159.9771 H   0  0  0  0  0  0  0  0  0  0  0  0  # atno 6908 bound_to 6896
  151.5243  133.3422  159.2942 H   0  0  0  0  0  0  0  0  0  0  0  0  # atno 6909 bound_to 6896
  144.8722  139.5828  143.5881 H   0  0  0  0  0  0  0  0  0  0  0  0  # atno 7974 bound_to 7965
  154.5404  140.0746  156.8501 H   0  0  0  0  0  0  0  0  0  0  0  0  # atno 8008 bound_to 7997
  155.3191  140.3395  155.4223 H   0  0  0  0  0  0  0  0  0  0  0  0  # atno 8009 bound_to 7997
  156.1869  140.1672  156.8154 H   0  0  0  0  0  0  0  0  0  0  0  0  # atno 8010 bound_to 7997
  140.6065  143.8497  150.7019 H   0  0  0  0  0  0  0  0  0  0  0  0  # atno 10167 bound_to 10162
  157.6701  131.0830  150.5875 H   0  0  0  0  0  0  0  0  0  0  0  0  # atno 10718 bound_to 10713
  154.0755  135.2863  155.3300 H   0  0  0  0  0  0  0  0  0  0  0  0  # atno 10763 bound_to 10752
  154.6718  135.5296  153.8152 H   0  0  0  0  0  0  0  0  0  0  0  0  # atno 10764 bound_to 10752
  153.0469  135.6559  154.0934 H   0  0  0  0  0  0  0  0  0  0  0  0  # atno 10765 bound_to 10752
  140.4331  134.6501  157.4721 H   0  0  0  0  0  0  0  0  0  0  0  0  # atno 11005 bound_to 11000
  146.2938  139.7218  142.9141 LP  0  0  0  0  0  0  0  0  0  0  0  0  # atno 17320 bound_to 7965
  145.4108  141.0396  143.3018 LP  0  0  0  0  0  0  0  0  0  0  0  0  # atno 17321 bound_to 7965
  140.2055  143.3925  152.1759 LP  0  0  0  0  0  0  0  0  0  0  0  0  # atno 17342 bound_to 10162
  139.5329  144.7178  151.4993 LP  0  0  0  0  0  0  0  0  0  0  0  0  # atno 17343 bound_to 10162
  156.6175  130.4397  149.5835 LP  0  0  0  0  0  0  0  0  0  0  0  0  # atno 17370 bound_to 10713
  156.2381  130.6835  151.1530 LP  0  0  0  0  0  0  0  0  0  0  0  0  # atno 17371 bound_to 10713
  140.0121  134.6675  155.9365 LP  0  0  0  0  0  0  0  0  0  0  0  0  # atno 17394 bound_to 11000
  141.1737  133.6539  156.4748 LP  0  0  0  0  0  0  0  0  0  0  0  0  # atno 17395 bound_to 11000

$$$$
