AV-unprocessed.smi:189|AV-procd|sdf|1490|dock6
  -GOLD-   2262019313D 1   1.00000     0.00000
 Structure written by MMmdl.
 53 57  0  0  0  0  0  0  0  0  1 V2000
  151.7107  142.4754  157.9740 C   0  0  0  0  0  0  0  0  0  0  0  0
  151.0027  141.1552  157.6260 C   0  0  1  0  0  0  0  0  0  0  0  0
  149.5425  141.1341  158.1013 C   0  0  0  0  0  0  0  0  0  0  0  0
  148.7430  141.6930  156.9156 C   0  0  2  0  0  0  0  0  0  0  0  0
  147.4342  140.9388  156.6211 C   0  0  0  0  0  0  0  0  0  0  0  0
  146.7343  141.4658  155.3505 C   0  0  0  0  0  0  0  0  0  0  0  0
  147.7108  141.8495  154.2157 C   0  0  0  0  0  0  0  0  0  0  0  0
  149.0919  141.2017  154.3905 C   0  0  0  0  0  0  0  0  0  0  0  0
  149.7285  141.6647  155.7268 C   0  0  2  0  0  0  0  0  0  0  0  0
  150.9299  140.9556  156.1802 N   0  0  0  0  0  0  0  0  0  0  0  0
  151.1271  139.6931  155.7246 C   0  0  0  0  0  0  0  0  0  0  0  0
  151.2009  139.4371  154.3911 N   0  0  0  0  0  0  0  0  0  0  0  0
  151.4238  138.1924  153.9591 C   0  0  0  0  0  0  0  0  0  0  0  0
  151.6004  137.0793  154.6744 N   0  0  0  0  0  0  0  0  0  0  0  0
  151.5257  137.3334  156.0126 C   0  0  0  0  0  0  0  0  0  0  0  0
  151.2965  138.6010  156.6163 C   0  0  0  0  0  0  0  0  0  0  0  0
  151.2952  138.4784  157.9999 N   0  0  0  0  0  0  0  0  0  0  0  0
  151.5115  137.2076  158.2035 C   0  0  0  0  0  0  0  0  0  0  0  0
  151.6532  136.4446  157.0656 N   0  0  0  0  0  0  0  0  0  0  0  0
  151.8951  135.0119  157.0008 C   0  0  0  0  0  0  0  0  0  0  0  0
  150.6385  134.1923  156.6256 C   0  0  2  0  0  0  0  0  0  0  0  0
  149.7416  134.1892  157.7226 O   0  0  0  0  0  0  0  0  0  0  0  0
  150.9300  132.7450  156.2362 C   0  0  0  0  0  0  0  0  0  0  0  0
  149.8576  132.4492  155.1972 C   0  0  0  0  0  0  0  0  0  0  0  0
  149.7912  133.6641  154.4708 O   0  0  0  0  0  0  0  0  0  0  0  0
  149.8987  134.7453  155.3911 C   0  0  0  0  0  0  0  0  0  0  0  0
  151.7698  142.6112  159.0540 H   0  0  0  0  0  0  0  0  0  0  0  0
  151.1906  143.3404  157.5613 H   0  0  0  0  0  0  0  0  0  0  0  0
  152.7297  142.4836  157.5860 H   0  0  0  0  0  0  0  0  0  0  0  0
  151.5576  140.3466  158.1047 H   0  0  0  0  0  0  0  0  0  0  0  0
  149.2425  140.1059  158.3066 H   0  0  0  0  0  0  0  0  0  0  0  0
  149.3851  141.7019  159.0190 H   0  0  0  0  0  0  0  0  0  0  0  0
  148.4968  142.7357  157.1216 H   0  0  0  0  0  0  0  0  0  0  0  0
  147.6578  139.8791  156.4879 H   0  0  0  0  0  0  0  0  0  0  0  0
  146.7573  141.0005  157.4736 H   0  0  0  0  0  0  0  0  0  0  0  0
  146.0379  140.7052  154.9959 H   0  0  0  0  0  0  0  0  0  0  0  0
  146.1253  142.3354  155.5997 H   0  0  0  0  0  0  0  0  0  0  0  0
  147.2832  141.5791  153.2498 H   0  0  0  0  0  0  0  0  0  0  0  0
  147.8338  142.9332  154.1985 H   0  0  0  0  0  0  0  0  0  0  0  0
  148.9594  140.1196  154.3601 H   0  0  0  0  0  0  0  0  0  0  0  0
  149.7423  141.4605  153.5546 H   0  0  0  0  0  0  0  0  0  0  0  0
  150.0536  142.6932  155.5628 H   0  0  0  0  0  0  0  0  0  0  0  0
  151.4693  138.0717  152.8870 H   0  0  0  0  0  0  0  0  0  0  0  0
  151.5703  136.7889  159.1975 H   0  0  0  0  0  0  0  0  0  0  0  0
  152.6956  134.8279  156.2829 H   0  0  0  0  0  0  0  0  0  0  0  0
  152.2759  134.6903  157.9711 H   0  0  0  0  0  0  0  0  0  0  0  0
  148.9158  133.8312  157.4348 H   0  0  0  0  0  0  0  0  0  0  0  0
  151.9072  132.6719  155.7574 H   0  0  0  0  0  0  0  0  0  0  0  0
  150.9195  132.0499  157.0769 H   0  0  0  0  0  0  0  0  0  0  0  0
  150.1131  131.6074  154.5535 H   0  0  0  0  0  0  0  0  0  0  0  0
  148.8952  132.2470  155.6697 H   0  0  0  0  0  0  0  0  0  0  0  0
  148.9019  135.1130  155.6400 H   0  0  0  0  0  0  0  0  0  0  0  0
  150.4373  135.5658  154.9160 H   0  0  0  0  0  0  0  0  0  0  0  0
  1  2  1  0  0  0  0
  1 27  1  0  0  0  0
  1 28  1  0  0  0  0
  1 29  1  0  0  0  0
  2 10  1  0  0  0  0
  2  3  1  0  0  0  0
  2 30  1  0  0  0  0
  3  4  1  0  0  0  0
  3 31  1  0  0  0  0
  3 32  1  0  0  0  0
  4  9  1  0  0  0  0
  4  5  1  0  0  0  0
  4 33  1  0  0  0  0
  5  6  1  0  0  0  0
  5 34  1  0  0  0  0
  5 35  1  0  0  0  0
  6  7  1  0  0  0  0
  6 36  1  0  0  0  0
  6 37  1  0  0  0  0
  7  8  1  0  0  0  0
  7 38  1  0  0  0  0
  7 39  1  0  0  0  0
  8  9  1  0  0  0  0
  8 40  1  0  0  0  0
  8 41  1  0  0  0  0
  9 10  1  0  0  0  0
  9 42  1  0  0  0  0
 10 11  1  0  0  0  0
 11 16  1  0  0  0  0
 11 12  2  0  0  0  0
 12 13  1  0  0  0  0
 13 14  2  0  0  0  0
 13 43  1  0  0  0  0
 14 15  1  0  0  0  0
 15 19  1  0  0  0  0
 15 16  2  0  0  0  0
 16 17  1  0  0  0  0
 17 18  2  0  0  0  0
 18 19  1  0  0  0  0
 18 44  1  0  0  0  0
 19 20  1  0  0  0  0
 20 21  1  0  0  0  0
 20 45  1  0  0  0  0
 20 46  1  0  0  0  0
 21 26  1  0  0  0  0
 21 22  1  0  0  0  0
 21 23  1  0  0  0  0
 22 47  1  0  0  0  0
 23 24  1  0  0  0  0
 23 48  1  0  0  0  0
 23 49  1  0  0  0  0
 24 25  1  0  0  0  0
 24 50  1  0  0  0  0
 24 51  1  0  0  0  0
 25 26  1  0  0  0  0
 26 52  1  0  0  0  0
 26 53  1  0  0  0  0
M  END
> <s_m_source_file>
AV-unprocessed.smi

> <i_m_source_file_index>
189

> <i_lp_mmshare_version>
43012

> <i_f3d_flags>
0

> <s_epik_input>
W0NIMl0xW0NIMl1bQ0gyXVtDSDJdW0NASF0oW0NASF0xMilOKFtDQEhdKFtDSDNdKVtDSDJdMiljKG5bY0hdbjMpYyhjMzQpbltjSF1uNFtDSDJdW0NAQF01KFtPSF0pW0NIMl1bQ0gyXU9bQ0gyXTU=

> <s_epik_cmdline>
J2VwaWtfcHl0aG9uJywgJy1waCcsICc3LjAnLCAnLXRuJywgJzgnLCAnLW1hJywgJzIwMCcsICctbWV0YWxfYmluZGluZycsICctaW1hZScsICc8aW5maWxlLm1hZT4nLCAnLW9tYWUnLCAnPG91dGZpbGUubWFlPic=

> <r_lp_tautomer_probability>
1

> <r_epik_Ionization_Penalty>
0.00594261

> <r_epik_Ionization_Penalty_Charging>
0

> <r_epik_Ionization_Penalty_Neutral>
0.00594261

> <r_epik_State_Penalty>
0.00429776

> <r_epik_Charging_Adjusted_Penalty>
0.00429776

> <i_epik_Tot_Q>
0

> <i_epik_Tot_abs_Q>
0

> <r_epik_Metal_State_Penalty>
-0

> <b_epik_Metal_Only>
0

> <s_lp_Force_Field>
OPLS_2005

> <r_lp_Energy>
66.7565

> <b_lp_Chiralities_Consistent>
1

> <s_lp_Variant>
AV-unprocessed.smi:189-16

> <Gold.Version>
5.8.1

> <Gold.Id.Protein>
6NUR|6NUR_protein|mol2

> <Gold.PLP.Fitness>
44.7980

> <Gold.PLP.PLP>
-34.7199

> <Gold.PLP.part.hbond>
-3.0000

> <Gold.PLP.part.metal>
0.0000

> <Gold.PLP.part.buried>
-2.9750

> <Gold.PLP.part.nonpolar>
-28.8062

> <Gold.PLP.part.repulsive>
0.4441

> <Gold.PLP.ligand.clash>
1.1410

> <Gold.PLP.ligand.torsion>
0.3724

> <Gold.PLP.Chemscore.Hbond>
3.0000

> <Gold.PLP.Chemscore.CHOScore>
0.9621

> <Gold.PLP.Chemscore.Metal>
0.0000

> <Gold.Chemscore.Hbonds>
donor molecule, donor type, donor heavy atom, donor atom, acceptor molecule, acceptor atom, score
      P1  H  6896  6908       L1    22  0.99
      P1  H  7989  7998       L1    12  1.00
      P1  H 10752 10763       L1    14  1.00
      L1  C    13    43       P1  7949  1.00

> <Gold.PLP.Chemscore.Internal.Correction>
0.0777

> <Gold.Rescore>
     Score         DG    S(hbond)    S(metal)    S(lipo)     H(rot)  DE(clash)    DE(int)     intcor
     14.22     -18.03       2.64        0.00      76.22       2.03       0.43       3.38       ----

> <Gold.Chemscore.Fitness>
14.2235

> <Gold.Chemscore.DG>
-18.0305

> <Gold.Chemscore.ZeroCoef>
-5.4800

> <Gold.Chemscore.Hbond>
2.6432

> <Gold.Chemscore.Metal>
0.0000

> <Gold.Chemscore.Lipo>
76.2243

> <Gold.Chemscore.Internal_Hbond>
0.0000

> <Gold.Chemscore.DEClash>
0.4274

> <Gold.Chemscore.DEInternal>
3.3796

> <Gold.Chemscore.Rot>
2.0297

> <Gold.Chemscore.Internal.Correction>
   9.000000E+99

> <Gold.Chemscore.Hbonds>
donor molecule, donor type, donor heavy atom, donor atom, acceptor molecule, acceptor atom, score
      P1  H  6896  6908       L1    22  0.52
      P1  H  7989  7998       L1    12  0.81
      P1  H 10752 10763       L1    14  0.75

> <Gold.Chemscore.Hbond.Weighted>
-8.8282

> <Gold.Chemscore.Metal.Weighted>
-0.0000

> <Gold.Chemscore.Lipo.Weighted>
-8.9182

> <Gold.Chemscore.Internal_Hbond.Weighted>
0.0000

> <Gold.Chemscore.DEClash.Weighted>
0.4274

> <Gold.Chemscore.DEInternal.Weighted>
3.3796

> <Gold.Chemscore.Rot.Weighted>
5.1960

> <Gold.Chemscore.Internal.Correction.Weighted>
   9.000000E+99

> <Gold.Protein.RotatedTorsions>
[ 6907 6896 6895 6894 ] final  120.96 input  -60.11 | X-H torsion
[ 7974 7965 7964 7962 ] final   93.42 input  175.53 | X-H torsion
[ 8008 7997 7996 7995 ] final -137.56 input   59.86 | X-H torsion
[ 10167 10162 10161 10158 ] final -179.22 input  -65.29 | X-H torsion
[ 10718 10713 10712 10709 ] final -120.18 input   66.30 | X-H torsion
[ 10763 10752 10751 10750 ] final   42.06 input  -60.55 | X-H torsion
[ 11005 11000 10999 10996 ] final  -10.77 input  -57.11 | X-H torsion

> <Gold.Protein.ActiveResidues>
 VAL166  LYS551  ARG553  GLY616  TRP617  ASP618  TYR619  PRO620  LYS621  CYS622 
 ASP623  PHE694  ASN695  SER759  ASP760  ASP761  ALA762  ILE779  LEU786  VAL792 
 PHE793  MET794  SER795  GLU796  ALA797  LYS798  CYS799  TRP800  GLU811  SER814 

> <Gold.Protein.RotatedAtoms>
  152.4358  133.7359  159.6613 H   0  0  0  0  0  0  0  0  0  0  0  0  # atno 6907 bound_to 6896
  150.8242  133.8190  159.3132 H   0  0  0  0  0  0  0  0  0  0  0  0  # atno 6908 bound_to 6896
  151.5863  135.1058  160.0080 H   0  0  0  0  0  0  0  0  0  0  0  0  # atno 6909 bound_to 6896
  145.4791  139.2279  143.2892 H   0  0  0  0  0  0  0  0  0  0  0  0  # atno 7974 bound_to 7965
  155.4139  140.0514  157.3030 H   0  0  0  0  0  0  0  0  0  0  0  0  # atno 8008 bound_to 7997
  154.4933  140.2129  155.9460 H   0  0  0  0  0  0  0  0  0  0  0  0  # atno 8009 bound_to 7997
  156.1372  140.3161  155.8444 H   0  0  0  0  0  0  0  0  0  0  0  0  # atno 8010 bound_to 7997
  139.5396  144.2399  152.0868 H   0  0  0  0  0  0  0  0  0  0  0  0  # atno 10167 bound_to 10162
  156.1238  130.6343  150.9509 H   0  0  0  0  0  0  0  0  0  0  0  0  # atno 10718 bound_to 10713
  152.9892  135.6143  154.2888 H   0  0  0  0  0  0  0  0  0  0  0  0  # atno 10763 bound_to 10752
  154.2614  135.2782  155.2778 H   0  0  0  0  0  0  0  0  0  0  0  0  # atno 10764 bound_to 10752
  154.5202  135.5817  153.6732 H   0  0  0  0  0  0  0  0  0  0  0  0  # atno 10765 bound_to 10752
  140.7482  133.8614  155.9023 H   0  0  0  0  0  0  0  0  0  0  0  0  # atno 11005 bound_to 11000
  146.2352  140.5576  142.8958 LP  0  0  0  0  0  0  0  0  0  0  0  0  # atno 17320 bound_to 7965
  144.7899  140.6012  143.6548 LP  0  0  0  0  0  0  0  0  0  0  0  0  # atno 17321 bound_to 7965
  140.1876  144.4784  150.6496 LP  0  0  0  0  0  0  0  0  0  0  0  0  # atno 17342 bound_to 10162
  140.6620  143.2255  151.5833 LP  0  0  0  0  0  0  0  0  0  0  0  0  # atno 17343 bound_to 10162
  157.6421  131.0909  150.8230 LP  0  0  0  0  0  0  0  0  0  0  0  0  # atno 17370 bound_to 10713
  156.8323  130.5020  149.5330 LP  0  0  0  0  0  0  0  0  0  0  0  0  # atno 17371 bound_to 10713
  140.9775  134.1450  157.4524 LP  0  0  0  0  0  0  0  0  0  0  0  0  # atno 17394 bound_to 11000
  139.8792  134.9999  156.5982 LP  0  0  0  0  0  0  0  0  0  0  0  0  # atno 17395 bound_to 11000

$$$$
