AV-unprocessed.smi:3147|AV-procd|sdf|11989|dock4
  -GOLD-   2272017393D 1   1.00000     0.00000
 Structure written by MMmdl.
 36 37  0  0  0  0  0  0  0  0  1 V2000
  144.8588  139.5489  155.9484 C   0  0  0  0  0  0  0  0  0  0  0  0
  146.0933  140.3954  155.9154 C   0  0  0  0  0  0  0  0  0  0  0  0
  146.1942  141.5590  156.6744 N   0  0  0  0  0  0  0  0  0  0  0  0
  147.4053  142.0175  156.3905 C   0  0  0  0  0  0  0  0  0  0  0  0
  148.0957  141.2669  155.5206 N   0  0  0  0  0  0  0  0  0  0  0  0
  149.4404  141.5268  155.0283 C   0  0  0  0  0  0  0  0  0  0  0  0
  150.5025  141.4772  156.1336 C   0  0  0  0  0  0  0  0  0  0  0  0
  151.2506  140.5061  156.2559 O   0  0  0  0  0  0  0  0  0  0  0  0
  150.5553  142.5511  156.9357 N   0  0  0  0  0  0  0  0  0  0  0  0
  151.5105  142.7469  158.0224 C   0  0  0  0  0  0  0  0  0  0  0  0
  151.5507  144.2043  158.5216 C   0  0  2  0  0  0  0  0  0  0  0  0
  152.7306  144.5655  159.4290 C   0  0  0  0  0  0  0  0  0  0  0  0
  152.1730  145.7466  160.1901 C   0  0  0  0  0  0  0  0  0  0  0  0
  150.7247  145.3178  160.4033 C   0  0  0  0  0  0  0  0  0  0  0  0
  150.3785  144.5371  159.2627 O   0  0  0  0  0  0  0  0  0  0  0  0
  147.2560  140.2014  155.2002 C   0  0  0  0  0  0  0  0  0  0  0  0
  147.6390  139.1058  154.2587 C   0  0  0  0  0  0  0  0  0  0  0  0
  144.4442  139.4211  154.9484 H   0  0  0  0  0  0  0  0  0  0  0  0
  144.0829  139.9935  156.5721 H   0  0  0  0  0  0  0  0  0  0  0  0
  145.0747  138.5576  156.3470 H   0  0  0  0  0  0  0  0  0  0  0  0
  147.8002  142.9236  156.8264 H   0  0  0  0  0  0  0  0  0  0  0  0
  149.6775  140.7959  154.2545 H   0  0  0  0  0  0  0  0  0  0  0  0
  149.4601  142.5099  154.5561 H   0  0  0  0  0  0  0  0  0  0  0  0
  149.8999  143.3003  156.7670 H   0  0  0  0  0  0  0  0  0  0  0  0
  151.2166  142.0922  158.8432 H   0  0  0  0  0  0  0  0  0  0  0  0
  152.5084  142.4248  157.7206 H   0  0  0  0  0  0  0  0  0  0  0  0
  151.5686  144.8697  157.6571 H   0  0  0  0  0  0  0  0  0  0  0  0
  152.9629  143.7603  160.1267 H   0  0  0  0  0  0  0  0  0  0  0  0
  153.6365  144.8048  158.8716 H   0  0  0  0  0  0  0  0  0  0  0  0
  152.7007  145.9462  161.1230 H   0  0  0  0  0  0  0  0  0  0  0  0
  152.2138  146.6449  159.5727 H   0  0  0  0  0  0  0  0  0  0  0  0
  150.6450  144.6885  161.2900 H   0  0  0  0  0  0  0  0  0  0  0  0
  150.0503  146.1651  160.5273 H   0  0  0  0  0  0  0  0  0  0  0  0
  146.8147  138.4088  154.1086 H   0  0  0  0  0  0  0  0  0  0  0  0
  148.4854  138.5415  154.6499 H   0  0  0  0  0  0  0  0  0  0  0  0
  147.9186  139.5074  153.2849 H   0  0  0  0  0  0  0  0  0  0  0  0
  1  2  1  0  0  0  0
  1 18  1  0  0  0  0
  1 19  1  0  0  0  0
  1 20  1  0  0  0  0
  2 16  2  0  0  0  0
  2  3  1  0  0  0  0
  3  4  2  0  0  0  0
  4  5  1  0  0  0  0
  4 21  1  0  0  0  0
  5  6  1  0  0  0  0
  5 16  1  0  0  0  0
  6  7  1  0  0  0  0
  6 22  1  0  0  0  0
  6 23  1  0  0  0  0
  7  8  2  0  0  0  0
  7  9  1  0  0  0  0
  9 10  1  0  0  0  0
  9 24  1  0  0  0  0
 10 11  1  0  0  0  0
 10 25  1  0  0  0  0
 10 26  1  0  0  0  0
 11 15  1  0  0  0  0
 11 12  1  0  0  0  0
 11 27  1  0  0  0  0
 12 13  1  0  0  0  0
 12 28  1  0  0  0  0
 12 29  1  0  0  0  0
 13 14  1  0  0  0  0
 13 30  1  0  0  0  0
 13 31  1  0  0  0  0
 14 15  1  0  0  0  0
 14 32  1  0  0  0  0
 14 33  1  0  0  0  0
 16 17  1  0  0  0  0
 17 34  1  0  0  0  0
 17 35  1  0  0  0  0
 17 36  1  0  0  0  0
M  END
> <s_m_source_file>
AV-unprocessed.smi

> <i_m_source_file_index>
3147

> <i_lp_mmshare_version>
43012

> <i_f3d_flags>
0

> <s_epik_input>
W0NIM11jMW5bY0hdbihjMVtDSDNdKVtDSDJdQyg9TylbTkhdW0NIMl1bQ0BASF0yW0NIMl1bQ0gyXVtDSDJdTzI=

> <s_epik_cmdline>
J2VwaWtfcHl0aG9uJywgJy1waCcsICc3LjAnLCAnLXRuJywgJzgnLCAnLW1hJywgJzIwMCcsICctbWV0YWxfYmluZGluZycsICctaW1hZScsICc8aW5maWxlLm1hZT4nLCAnLW9tYWUnLCAnPG91dGZpbGUubWFlPic=

> <r_lp_tautomer_probability>
1

> <r_epik_Ionization_Penalty>
0.957393

> <r_epik_Ionization_Penalty_Charging>
0.957393

> <r_epik_Ionization_Penalty_Neutral>
1.43432e-07

> <r_epik_State_Penalty>
1.0022

> <r_epik_Charging_Adjusted_Penalty>
1.9596

> <i_epik_Tot_Q>
0

> <i_epik_Tot_abs_Q>
0

> <r_epik_Metal_State_Penalty>
0.374967

> <b_epik_Metal_Only>
0

> <s_lp_Force_Field>
OPLS_2005

> <r_lp_Energy>
19.2408

> <b_lp_Chiralities_Consistent>
1

> <s_lp_Variant>
AV-unprocessed.smi:3147-3

> <Gold.Version>
5.8.1

> <Gold.Id.Protein>
6NUR|6NUR_protein|mol2

> <Gold.PLP.Fitness>
39.9365

> <Gold.PLP.PLP>
-32.5743

> <Gold.PLP.part.hbond>
-2.0000

> <Gold.PLP.part.metal>
0.0000

> <Gold.PLP.part.buried>
-4.0472

> <Gold.PLP.part.nonpolar>
-26.9673

> <Gold.PLP.part.repulsive>
0.3933

> <Gold.PLP.ligand.clash>
0.0000

> <Gold.PLP.ligand.torsion>
0.4000

> <Gold.PLP.Chemscore.Hbond>
2.0000

> <Gold.PLP.Chemscore.CHOScore>
0.7178

> <Gold.PLP.Chemscore.Metal>
0.0000

> <Gold.Chemscore.Hbonds>
donor molecule, donor type, donor heavy atom, donor atom, acceptor molecule, acceptor atom, score
      L1  H     9    24       P1  8028  0.93
      L1  C     4    21       P1  8028  0.75

> <Gold.PLP.Chemscore.Internal.Correction>
0.0088

> <Gold.Rescore>
     Score         DG    S(hbond)    S(metal)    S(lipo)     H(rot)  DE(clash)    DE(int)     intcor
     14.40     -15.36       1.66        0.00      74.40       1.70       0.13       0.83       ----

> <Gold.Chemscore.Fitness>
14.4036

> <Gold.Chemscore.DG>
-15.3635

> <Gold.Chemscore.ZeroCoef>
-5.4800

> <Gold.Chemscore.Hbond>
1.6585

> <Gold.Chemscore.Metal>
0.0000

> <Gold.Chemscore.Lipo>
74.3987

> <Gold.Chemscore.Internal_Hbond>
0.0000

> <Gold.Chemscore.DEClash>
0.1343

> <Gold.Chemscore.DEInternal>
0.8255

> <Gold.Chemscore.Rot>
1.7034

> <Gold.Chemscore.Internal.Correction>
   9.000000E+99

> <Gold.Chemscore.Hbonds>
donor molecule, donor type, donor heavy atom, donor atom, acceptor molecule, acceptor atom, score
      L1  H     9    24       P1  8028  0.88

> <Gold.Chemscore.Hbond.Weighted>
-5.5395

> <Gold.Chemscore.Metal.Weighted>
-0.0000

> <Gold.Chemscore.Lipo.Weighted>
-8.7046

> <Gold.Chemscore.Internal_Hbond.Weighted>
0.0000

> <Gold.Chemscore.DEClash.Weighted>
0.1343

> <Gold.Chemscore.DEInternal.Weighted>
0.8255

> <Gold.Chemscore.Rot.Weighted>
4.3607

> <Gold.Chemscore.Internal.Correction.Weighted>
   9.000000E+99

> <Gold.Protein.RotatedTorsions>
[ 6907 6896 6895 6894 ] final   83.22 input  -60.11 | X-H torsion
[ 7974 7965 7964 7962 ] final -164.08 input  175.53 | X-H torsion
[ 8008 7997 7996 7995 ] final  -37.64 input   59.86 | X-H torsion
[ 10167 10162 10161 10158 ] final   36.05 input  -65.29 | X-H torsion
[ 10718 10713 10712 10709 ] final -106.54 input   66.30 | X-H torsion
[ 10763 10752 10751 10750 ] final -122.60 input  -60.55 | X-H torsion
[ 11005 11000 10999 10996 ] final   77.71 input  -57.11 | X-H torsion

> <Gold.Protein.ActiveResidues>
 VAL166  LYS551  ARG553  GLY616  TRP617  ASP618  TYR619  PRO620  LYS621  CYS622 
 ASP623  PHE694  ASN695  SER759  ASP760  ASP761  ALA762  ILE779  LEU786  VAL792 
 PHE793  MET794  SER795  GLU796  ALA797  LYS798  CYS799  TRP800  GLU811  SER814 

> <Gold.Protein.RotatedAtoms>
  152.5321  134.2929  159.9049 H   0  0  0  0  0  0  0  0  0  0  0  0  # atno 6907 bound_to 6896
  151.2881  133.4171  159.2639 H   0  0  0  0  0  0  0  0  0  0  0  0  # atno 6908 bound_to 6896
  151.0224  134.9495  159.8124 H   0  0  0  0  0  0  0  0  0  0  0  0  # atno 6909 bound_to 6896
  144.7307  140.3013  143.6204 H   0  0  0  0  0  0  0  0  0  0  0  0  # atno 7974 bound_to 7965
  154.4050  140.1599  156.2570 H   0  0  0  0  0  0  0  0  0  0  0  0  # atno 8008 bound_to 7997
  155.9069  140.3429  155.6046 H   0  0  0  0  0  0  0  0  0  0  0  0  # atno 8009 bound_to 7997
  155.7382  140.0789  157.2248 H   0  0  0  0  0  0  0  0  0  0  0  0  # atno 8010 bound_to 7997
  140.4164  144.1521  150.6144 H   0  0  0  0  0  0  0  0  0  0  0  0  # atno 10167 bound_to 10162
  156.0395  130.5618  150.7695 H   0  0  0  0  0  0  0  0  0  0  0  0  # atno 10718 bound_to 10713
  154.8692  135.4127  154.2808 H   0  0  0  0  0  0  0  0  0  0  0  0  # atno 10763 bound_to 10752
  153.3701  135.7007  153.6650 H   0  0  0  0  0  0  0  0  0  0  0  0  # atno 10764 bound_to 10752
  153.5515  135.3628  155.2733 H   0  0  0  0  0  0  0  0  0  0  0  0  # atno 10765 bound_to 10752
  139.9243  134.7705  156.1556 H   0  0  0  0  0  0  0  0  0  0  0  0  # atno 11005 bound_to 11000
  145.7758  139.1873  143.2186 LP  0  0  0  0  0  0  0  0  0  0  0  0  # atno 17320 bound_to 7965
  146.0874  140.7695  142.9612 LP  0  0  0  0  0  0  0  0  0  0  0  0  # atno 17321 bound_to 7965
  140.4581  143.2459  151.9256 LP  0  0  0  0  0  0  0  0  0  0  0  0  # atno 17342 bound_to 10162
  139.4782  144.5495  151.8408 LP  0  0  0  0  0  0  0  0  0  0  0  0  # atno 17343 bound_to 10162
  157.5192  131.0930  151.0100 LP  0  0  0  0  0  0  0  0  0  0  0  0  # atno 17370 bound_to 10713
  157.0434  130.5758  149.5359 LP  0  0  0  0  0  0  0  0  0  0  0  0  # atno 17371 bound_to 10713
  141.0788  133.6763  156.2293 LP  0  0  0  0  0  0  0  0  0  0  0  0  # atno 17394 bound_to 11000
  140.6382  134.5193  157.5567 LP  0  0  0  0  0  0  0  0  0  0  0  0  # atno 17395 bound_to 11000

$$$$
