AV-unprocessed.smi:1981|AV-procd|sdf|8019|dock10
  -GOLD-   2272010213D 1   1.00000     0.00000
 Structure written by MMmdl.
 45 46  0  0  0  0  0  0  0  0  1 V2000
  144.9332  137.5756  159.7143 C   0  0  0  0  0  0  0  0  0  0  0  0
  146.3286  137.7750  159.5710 O   0  0  0  0  0  0  0  0  0  0  0  0
  146.7588  137.6456  158.2269 C   0  0  0  0  0  0  0  0  0  0  0  0
  145.9481  138.6104  157.3489 C   0  0  0  0  0  0  0  0  0  0  0  0
  146.6987  139.0084  156.1540 N   0  0  0  0  0  0  0  0  0  0  0  0
  147.9400  139.5584  156.4260 N   0  0  0  0  0  0  0  0  0  0  0  0
  148.7065  139.9452  155.4579 C   0  0  0  0  0  0  0  0  0  0  0  0
  150.0482  140.5404  155.7092 C   0  0  0  0  0  0  0  0  0  0  0  0
  151.0207  140.2762  155.0002 O   0  0  0  0  0  0  0  0  0  0  0  0
  150.1169  141.3788  156.7590 N   0  0  0  0  0  0  0  0  0  0  0  0
  151.3137  142.0854  157.2031 C   0  0  0  0  0  0  0  0  0  0  0  0
  151.6864  141.6768  158.6476 C   0  0  0  0  0  0  0  0  0  0  0  0
  152.8121  142.5642  159.2078 C   0  0  0  0  0  0  0  0  0  0  0  0
  152.3934  143.9676  159.1213 N   0  0  0  0  0  0  0  0  0  0  0  0
  152.0593  144.7003  160.2108 C   0  0  0  0  0  0  0  0  0  0  0  0
  152.2080  144.0822  161.6028 C   0  0  0  0  0  0  0  0  0  0  0  0
  151.6423  145.8561  160.1328 O   0  0  0  0  0  0  0  0  0  0  0  0
  152.2400  144.3992  157.7265 C   0  0  0  0  0  0  0  0  0  0  0  0
  151.0838  143.6082  157.0893 C   0  0  0  0  0  0  0  0  0  0  0  0
  148.2826  139.8110  154.0744 C   0  0  0  0  0  0  0  0  0  0  0  0
  147.0715  139.2668  153.8244 C   0  0  0  0  0  0  0  0  0  0  0  0
  146.1875  138.8163  154.9007 C   0  0  0  0  0  0  0  0  0  0  0  0
  145.0858  138.3066  154.6984 O   0  0  0  0  0  0  0  0  0  0  0  0
  144.6528  137.6821  160.7621 H   0  0  0  0  0  0  0  0  0  0  0  0
  144.6418  136.5764  159.3881 H   0  0  0  0  0  0  0  0  0  0  0  0
  144.3692  138.3103  159.1383 H   0  0  0  0  0  0  0  0  0  0  0  0
  147.8230  137.8762  158.1537 H   0  0  0  0  0  0  0  0  0  0  0  0
  146.6198  136.6173  157.8897 H   0  0  0  0  0  0  0  0  0  0  0  0
  144.9972  138.1535  157.0694 H   0  0  0  0  0  0  0  0  0  0  0  0
  145.6841  139.4946  157.9319 H   0  0  0  0  0  0  0  0  0  0  0  0
  149.2716  141.5387  157.2881 H   0  0  0  0  0  0  0  0  0  0  0  0
  152.1455  141.8257  156.5455 H   0  0  0  0  0  0  0  0  0  0  0  0
  150.8110  141.7615  159.2936 H   0  0  0  0  0  0  0  0  0  0  0  0
  151.9915  140.6303  158.6783 H   0  0  0  0  0  0  0  0  0  0  0  0
  153.0560  142.2571  160.2256 H   0  0  0  0  0  0  0  0  0  0  0  0
  153.7256  142.4213  158.6286 H   0  0  0  0  0  0  0  0  0  0  0  0
  153.2398  143.7799  161.7836 H   0  0  0  0  0  0  0  0  0  0  0  0
  151.5580  143.2137  161.7115 H   0  0  0  0  0  0  0  0  0  0  0  0
  151.9329  144.8027  162.3741 H   0  0  0  0  0  0  0  0  0  0  0  0
  152.0640  145.4681  157.6167 H   0  0  0  0  0  0  0  0  0  0  0  0
  153.1672  144.2017  157.1866 H   0  0  0  0  0  0  0  0  0  0  0  0
  150.9709  143.8919  156.0424 H   0  0  0  0  0  0  0  0  0  0  0  0
  150.1508  143.8806  157.5856 H   0  0  0  0  0  0  0  0  0  0  0  0
  148.9146  140.1348  153.2600 H   0  0  0  0  0  0  0  0  0  0  0  0
  146.7441  139.1599  152.8006 H   0  0  0  0  0  0  0  0  0  0  0  0
  1  2  1  0  0  0  0
  1 24  1  0  0  0  0
  1 25  1  0  0  0  0
  1 26  1  0  0  0  0
  2  3  1  0  0  0  0
  3  4  1  0  0  0  0
  3 27  1  0  0  0  0
  3 28  1  0  0  0  0
  4  5  1  0  0  0  0
  4 29  1  0  0  0  0
  4 30  1  0  0  0  0
  5 22  1  0  0  0  0
  5  6  1  0  0  0  0
  6  7  2  0  0  0  0
  7  8  1  0  0  0  0
  7 20  1  0  0  0  0
  8  9  2  0  0  0  0
  8 10  1  0  0  0  0
 10 11  1  0  0  0  0
 10 31  1  0  0  0  0
 11 19  1  0  0  0  0
 11 12  1  0  0  0  0
 11 32  1  0  0  0  0
 12 13  1  0  0  0  0
 12 33  1  0  0  0  0
 12 34  1  0  0  0  0
 13 14  1  0  0  0  0
 13 35  1  0  0  0  0
 13 36  1  0  0  0  0
 14 15  1  0  0  0  0
 14 18  1  0  0  0  0
 15 16  1  0  0  0  0
 15 17  2  0  0  0  0
 16 37  1  0  0  0  0
 16 38  1  0  0  0  0
 16 39  1  0  0  0  0
 18 19  1  0  0  0  0
 18 40  1  0  0  0  0
 18 41  1  0  0  0  0
 19 42  1  0  0  0  0
 19 43  1  0  0  0  0
 20 21  2  0  0  0  0
 20 44  1  0  0  0  0
 21 22  1  0  0  0  0
 21 45  1  0  0  0  0
 22 23  2  0  0  0  0
M  END
> <s_m_source_file>
AV-unprocessed.smi

> <i_m_source_file_index>
1981

> <i_lp_mmshare_version>
43012

> <i_f3d_flags>
0

> <s_epik_input>
W0NIM11PW0NIMl1bQ0gyXW4xbmMoW2NIXVtjSF1jMT1PKUMoPU8pW05IXVtDSF0yW0NIMl1bQ0gyXU4oQyg9TylbQ0gzXSlbQ0gyXVtDSDJdMg==

> <s_epik_cmdline>
J2VwaWtfcHl0aG9uJywgJy1waCcsICc3LjAnLCAnLXRuJywgJzgnLCAnLW1hJywgJzIwMCcsICctbWV0YWxfYmluZGluZycsICctaW1hZScsICc8aW5maWxlLm1hZT4nLCAnLW9tYWUnLCAnPG91dGZpbGUubWFlPic=

> <r_lp_tautomer_probability>
1

> <r_epik_Ionization_Penalty>
2.32097e-06

> <r_epik_Ionization_Penalty_Charging>
6.14723e-09

> <r_epik_Ionization_Penalty_Neutral>
2.31482e-06

> <r_epik_State_Penalty>
-0

> <r_epik_Charging_Adjusted_Penalty>
6.14723e-09

> <i_epik_Tot_Q>
0

> <i_epik_Tot_abs_Q>
0

> <r_epik_Metal_State_Penalty>
-0

> <b_epik_Metal_Only>
0

> <s_lp_Force_Field>
OPLS_2005

> <r_lp_Energy>
40.8399

> <b_lp_Chiralities_Consistent>
1

> <s_lp_Variant>
AV-unprocessed.smi:1981-1

> <Gold.Version>
5.8.1

> <Gold.Id.Protein>
6NUR|6NUR_protein|mol2

> <Gold.PLP.Fitness>
40.8585

> <Gold.PLP.PLP>
-36.7453

> <Gold.PLP.part.hbond>
-2.7140

> <Gold.PLP.part.metal>
0.0000

> <Gold.PLP.part.buried>
-3.7497

> <Gold.PLP.part.nonpolar>
-30.5631

> <Gold.PLP.part.repulsive>
0.3825

> <Gold.PLP.ligand.clash>
0.0000

> <Gold.PLP.ligand.torsion>
0.8002

> <Gold.PLP.Chemscore.Hbond>
1.8960

> <Gold.PLP.Chemscore.CHOScore>
0.0000

> <Gold.PLP.Chemscore.Metal>
0.0000

> <Gold.Chemscore.Hbonds>
donor molecule, donor type, donor heavy atom, donor atom, acceptor molecule, acceptor atom, score
      P1  H  6934  6947       L1     2  0.90
      P1  H  7989  7998       L1     9  1.00

> <Gold.PLP.Chemscore.Internal.Correction>
0.0257

> <Gold.Rescore>
     Score         DG    S(hbond)    S(metal)    S(lipo)     H(rot)  DE(clash)    DE(int)     intcor
     15.87     -16.90       1.84        0.00      82.04       1.69       0.22       0.80       ----

> <Gold.Chemscore.Fitness>
15.8743

> <Gold.Chemscore.DG>
-16.8976

> <Gold.Chemscore.ZeroCoef>
-5.4800

> <Gold.Chemscore.Hbond>
1.8369

> <Gold.Chemscore.Metal>
0.0000

> <Gold.Chemscore.Lipo>
82.0423

> <Gold.Chemscore.Internal_Hbond>
0.0000

> <Gold.Chemscore.DEClash>
0.2241

> <Gold.Chemscore.DEInternal>
0.7993

> <Gold.Chemscore.Rot>
1.6861

> <Gold.Chemscore.Internal.Correction>
   9.000000E+99

> <Gold.Chemscore.Hbonds>
donor molecule, donor type, donor heavy atom, donor atom, acceptor molecule, acceptor atom, score
      P1  H  6934  6947       L1     2  0.76
      P1  H  7989  7998       L1     9  0.99

> <Gold.Chemscore.Hbond.Weighted>
-6.1351

> <Gold.Chemscore.Metal.Weighted>
-0.0000

> <Gold.Chemscore.Lipo.Weighted>
-9.5989

> <Gold.Chemscore.Internal_Hbond.Weighted>
0.0000

> <Gold.Chemscore.DEClash.Weighted>
0.2241

> <Gold.Chemscore.DEInternal.Weighted>
0.7993

> <Gold.Chemscore.Rot.Weighted>
4.3164

> <Gold.Chemscore.Internal.Correction.Weighted>
   9.000000E+99

> <Gold.Protein.RotatedTorsions>
[ 6907 6896 6895 6894 ] final   50.99 input  -60.11 | X-H torsion
[ 7974 7965 7964 7962 ] final   20.90 input  175.53 | X-H torsion
[ 8008 7997 7996 7995 ] final   71.18 input   59.86 | X-H torsion
[ 10167 10162 10161 10158 ] final  169.21 input  -65.29 | X-H torsion
[ 10718 10713 10712 10709 ] final   32.04 input   66.30 | X-H torsion
[ 10763 10752 10751 10750 ] final -168.26 input  -60.55 | X-H torsion
[ 11005 11000 10999 10996 ] final   81.45 input  -57.11 | X-H torsion

> <Gold.Protein.ActiveResidues>
 VAL166  LYS551  ARG553  GLY616  TRP617  ASP618  TYR619  PRO620  LYS621  CYS622 
 ASP623  PHE694  ASN695  SER759  ASP760  ASP761  ALA762  ILE779  LEU786  VAL792 
 PHE793  MET794  SER795  GLU796  ALA797  LYS798  CYS799  TRP800  GLU811  SER814 

> <Gold.Protein.RotatedAtoms>
  152.3078  134.7534  160.0343 H   0  0  0  0  0  0  0  0  0  0  0  0  # atno 6907 bound_to 6896
  151.8025  133.3366  159.3539 H   0  0  0  0  0  0  0  0  0  0  0  0  # atno 6908 bound_to 6896
  150.7305  134.5670  159.5915 H   0  0  0  0  0  0  0  0  0  0  0  0  # atno 6909 bound_to 6896
  146.2093  139.8103  142.8701 H   0  0  0  0  0  0  0  0  0  0  0  0  # atno 7974 bound_to 7965
  155.7500  140.3489  155.5146 H   0  0  0  0  0  0  0  0  0  0  0  0  # atno 8008 bound_to 7997
  155.9013  140.1034  157.1368 H   0  0  0  0  0  0  0  0  0  0  0  0  # atno 8009 bound_to 7997
  154.4044  140.1285  156.4427 H   0  0  0  0  0  0  0  0  0  0  0  0  # atno 8010 bound_to 7997
  139.4986  144.3731  151.9704 H   0  0  0  0  0  0  0  0  0  0  0  0  # atno 10167 bound_to 10162
  157.2801  130.7251  149.6552 H   0  0  0  0  0  0  0  0  0  0  0  0  # atno 10718 bound_to 10713
  154.6647  135.2930  154.9821 H   0  0  0  0  0  0  0  0  0  0  0  0  # atno 10763 bound_to 10752
  154.0869  135.6596  153.4850 H   0  0  0  0  0  0  0  0  0  0  0  0  # atno 10764 bound_to 10752
  153.0450  135.5210  154.7614 H   0  0  0  0  0  0  0  0  0  0  0  0  # atno 10765 bound_to 10752
  139.9098  134.7997  156.2043 H   0  0  0  0  0  0  0  0  0  0  0  0  # atno 11005 bound_to 11000
  145.3203  141.0242  143.3504 LP  0  0  0  0  0  0  0  0  0  0  0  0  # atno 17320 bound_to 7965
  144.8872  139.4824  143.6695 LP  0  0  0  0  0  0  0  0  0  0  0  0  # atno 17321 bound_to 7965
  140.3167  144.3475  150.6020 LP  0  0  0  0  0  0  0  0  0  0  0  0  # atno 17342 bound_to 10162
  140.5756  143.2177  151.7522 LP  0  0  0  0  0  0  0  0  0  0  0  0  # atno 17343 bound_to 10162
  155.9664  130.4340  150.5033 LP  0  0  0  0  0  0  0  0  0  0  0  0  # atno 17370 bound_to 10713
  157.2975  131.0638  151.2091 LP  0  0  0  0  0  0  0  0  0  0  0  0  # atno 17371 bound_to 10713
  141.0505  133.6891  156.1764 LP  0  0  0  0  0  0  0  0  0  0  0  0  # atno 17394 bound_to 11000
  140.6817  134.4760  157.5589 LP  0  0  0  0  0  0  0  0  0  0  0  0  # atno 17395 bound_to 11000

$$$$
