AV-unprocessed.smi:1641|AV-procd|sdf|6558|dock2
  -GOLD-   22720 7243D 1   1.00000     0.00000
 Structure written by MMmdl.
 41 42  0  0  0  0  0  0  0  0  1 V2000
  137.6896  137.2828  154.1955 C   0  0  0  0  0  0  0  0  0  0  0  0
  139.1756  137.3604  154.2811 C   0  0  0  0  0  0  0  0  0  0  0  0
  139.9108  136.4425  154.9201 N   0  0  0  0  0  0  0  0  0  0  0  0
  141.2689  136.7241  154.8643 N   0  0  0  0  0  0  0  0  0  0  0  0
  141.5179  137.8511  154.1832 C   0  0  0  0  0  0  0  0  0  0  0  0
  142.8205  138.3751  153.9721 N   0  0  0  0  0  0  0  0  0  0  0  0
  143.9755  137.9917  154.5435 C   0  0  0  0  0  0  0  0  0  0  0  0
  144.0962  137.0762  155.3579 O   0  0  0  0  0  0  0  0  0  0  0  0
  145.0013  138.7391  154.1095 N   0  0  0  0  0  0  0  0  0  0  0  0
  146.3886  138.6053  154.5441 C   0  0  0  0  0  0  0  0  0  0  0  0
  147.1736  139.9190  154.3563 C   0  0  0  0  0  0  0  0  0  0  0  0
  148.4975  139.9540  154.9769 N   0  0  0  0  0  0  0  0  0  0  0  0
  149.4238  138.9931  154.3865 C   0  0  0  0  0  0  0  0  0  0  0  0
  150.7921  139.0148  155.0908 C   0  0  1  0  0  0  0  0  0  0  0  0
  151.7985  138.0715  154.4241 C   0  0  0  0  0  0  0  0  0  0  0  0
  151.3263  140.3375  155.0506 O   0  0  0  0  0  0  0  0  0  0  0  0
  150.4718  141.3557  155.5749 C   0  0  2  0  0  0  0  0  0  0  0  0
  150.4042  141.3081  157.1111 C   0  0  0  0  0  0  0  0  0  0  0  0
  149.0865  141.2855  154.9021 C   0  0  0  0  0  0  0  0  0  0  0  0
  140.0985  138.6710  153.5555 S   0  0  0  0  0  0  0  0  0  0  0  0
  137.3713  136.2487  154.0606 H   0  0  0  0  0  0  0  0  0  0  0  0
  137.3283  137.8701  153.3509 H   0  0  0  0  0  0  0  0  0  0  0  0
  137.2429  137.6719  155.1103 H   0  0  0  0  0  0  0  0  0  0  0  0
  142.8797  139.1320  153.3073 H   0  0  0  0  0  0  0  0  0  0  0  0
  144.8067  139.4668  153.4376 H   0  0  0  0  0  0  0  0  0  0  0  0
  146.4493  138.2345  155.5675 H   0  0  0  0  0  0  0  0  0  0  0  0
  146.8452  137.8328  153.9251 H   0  0  0  0  0  0  0  0  0  0  0  0
  147.2689  140.1305  153.2903 H   0  0  0  0  0  0  0  0  0  0  0  0
  146.5660  140.7283  154.7639 H   0  0  0  0  0  0  0  0  0  0  0  0
  149.0183  137.9843  154.4504 H   0  0  0  0  0  0  0  0  0  0  0  0
  149.5536  139.2095  153.3250 H   0  0  0  0  0  0  0  0  0  0  0  0
  150.6699  138.7045  156.1291 H   0  0  0  0  0  0  0  0  0  0  0  0
  151.4427  137.0411  154.4457 H   0  0  0  0  0  0  0  0  0  0  0  0
  152.7600  138.1016  154.9373 H   0  0  0  0  0  0  0  0  0  0  0  0
  151.9670  138.3466  153.3824 H   0  0  0  0  0  0  0  0  0  0  0  0
  150.9283  142.3084  155.3050 H   0  0  0  0  0  0  0  0  0  0  0  0
  149.8415  142.1567  157.5002 H   0  0  0  0  0  0  0  0  0  0  0  0
  151.4032  141.3468  157.5455 H   0  0  0  0  0  0  0  0  0  0  0  0
  149.9170  140.4027  157.4732 H   0  0  0  0  0  0  0  0  0  0  0  0
  149.1852  141.5793  153.8558 H   0  0  0  0  0  0  0  0  0  0  0  0
  148.4208  142.0157  155.3640 H   0  0  0  0  0  0  0  0  0  0  0  0
  1  2  1  0  0  0  0
  1 21  1  0  0  0  0
  1 22  1  0  0  0  0
  1 23  1  0  0  0  0
  2 20  1  0  0  0  0
  2  3  2  0  0  0  0
  3  4  1  0  0  0  0
  4  5  2  0  0  0  0
  5  6  1  0  0  0  0
  5 20  1  0  0  0  0
  6  7  1  0  0  0  0
  6 24  1  0  0  0  0
  7  8  2  0  0  0  0
  7  9  1  0  0  0  0
  9 10  1  0  0  0  0
  9 25  1  0  0  0  0
 10 11  1  0  0  0  0
 10 26  1  0  0  0  0
 10 27  1  0  0  0  0
 11 12  1  0  0  0  0
 11 28  1  0  0  0  0
 11 29  1  0  0  0  0
 12 19  1  0  0  0  0
 12 13  1  0  0  0  0
 13 14  1  0  0  0  0
 13 30  1  0  0  0  0
 13 31  1  0  0  0  0
 14 15  1  0  0  0  0
 14 16  1  0  0  0  0
 14 32  1  0  0  0  0
 15 33  1  0  0  0  0
 15 34  1  0  0  0  0
 15 35  1  0  0  0  0
 16 17  1  0  0  0  0
 17 18  1  0  0  0  0
 17 19  1  0  0  0  0
 17 36  1  0  0  0  0
 18 37  1  0  0  0  0
 18 38  1  0  0  0  0
 18 39  1  0  0  0  0
 19 40  1  0  0  0  0
 19 41  1  0  0  0  0
M  END
> <s_m_source_file>
AV-unprocessed.smi

> <i_m_source_file_index>
1641

> <i_lp_mmshare_version>
43012

> <i_f3d_flags>
0

> <s_epik_input>
W0NIM11jMW5uYyhzMSlbTkhdQyg9TylbTkhdW0NIMl1bQ0gyXU4yW0NIMl1bQ0BASF0oW0NIM10pT1tDQEBIXShbQ0gzXSlbQ0gyXTI=

> <s_epik_cmdline>
J2VwaWtfcHl0aG9uJywgJy1waCcsICc3LjAnLCAnLXRuJywgJzgnLCAnLW1hJywgJzIwMCcsICctbWV0YWxfYmluZGluZycsICctaW1hZScsICc8aW5maWxlLm1hZT4nLCAnLW9tYWUnLCAnPG91dGZpbGUubWFlPic=

> <r_lp_tautomer_probability>
1

> <r_epik_Ionization_Penalty>
0.221104

> <r_epik_Ionization_Penalty_Charging>
0

> <r_epik_Ionization_Penalty_Neutral>
0.221104

> <r_epik_State_Penalty>
0.209349

> <r_epik_Charging_Adjusted_Penalty>
0.209349

> <i_epik_Tot_Q>
0

> <i_epik_Tot_abs_Q>
0

> <r_epik_Metal_State_Penalty>
0.560954

> <b_epik_Metal_Only>
0

> <s_lp_Force_Field>
OPLS_2005

> <r_lp_Energy>
25.2137

> <b_lp_Chiralities_Consistent>
1

> <s_lp_Variant>
AV-unprocessed.smi:1641-3

> <Gold.Version>
5.8.1

> <Gold.Id.Protein>
6NUR|6NUR_protein|mol2

> <Gold.PLP.Fitness>
43.7294

> <Gold.PLP.PLP>
-32.2027

> <Gold.PLP.part.hbond>
-4.1605

> <Gold.PLP.part.metal>
0.0000

> <Gold.PLP.part.buried>
-4.5644

> <Gold.PLP.part.nonpolar>
-22.8288

> <Gold.PLP.part.repulsive>
0.2123

> <Gold.PLP.ligand.clash>
0.0000

> <Gold.PLP.ligand.torsion>
0.2451

> <Gold.PLP.Chemscore.Hbond>
4.0000

> <Gold.PLP.Chemscore.CHOScore>
0.0000

> <Gold.PLP.Chemscore.Metal>
0.0000

> <Gold.Chemscore.Hbonds>
donor molecule, donor type, donor heavy atom, donor atom, acceptor molecule, acceptor atom, score
      L1  H     6    24       P1 10175  1.00
      L1  H     9    25       P1 10175  1.00
      P1  H  7989  7998       L1    16  1.00
      P1  H 11000 11005       L1     3  1.00

> <Gold.PLP.Chemscore.Internal.Correction>
0.0169

> <Gold.Rescore>
     Score         DG    S(hbond)    S(metal)    S(lipo)     H(rot)  DE(clash)    DE(int)     intcor
     18.17     -19.74       3.01        0.00      71.02       1.60       0.05       1.53       ----

> <Gold.Chemscore.Fitness>
18.1673

> <Gold.Chemscore.DG>
-19.7434

> <Gold.Chemscore.ZeroCoef>
-5.4800

> <Gold.Chemscore.Hbond>
3.0069

> <Gold.Chemscore.Metal>
0.0000

> <Gold.Chemscore.Lipo>
71.0246

> <Gold.Chemscore.Internal_Hbond>
0.0000

> <Gold.Chemscore.DEClash>
0.0468

> <Gold.Chemscore.DEInternal>
1.5292

> <Gold.Chemscore.Rot>
1.5975

> <Gold.Chemscore.Internal.Correction>
   9.000000E+99

> <Gold.Chemscore.Hbonds>
donor molecule, donor type, donor heavy atom, donor atom, acceptor molecule, acceptor atom, score
      L1  H     6    24       P1 10175  0.99
      L1  H     9    25       P1 10175  0.96
      P1  H  7989  7998       L1    16  0.34
      P1  H 11000 11005       L1     3  0.28

> <Gold.Chemscore.Hbond.Weighted>
-10.0430

> <Gold.Chemscore.Metal.Weighted>
-0.0000

> <Gold.Chemscore.Lipo.Weighted>
-8.3099

> <Gold.Chemscore.Internal_Hbond.Weighted>
0.0000

> <Gold.Chemscore.DEClash.Weighted>
0.0468

> <Gold.Chemscore.DEInternal.Weighted>
1.5292

> <Gold.Chemscore.Rot.Weighted>
4.0896

> <Gold.Chemscore.Internal.Correction.Weighted>
   9.000000E+99

> <Gold.Protein.RotatedTorsions>
[ 6907 6896 6895 6894 ] final   43.71 input  -60.11 | X-H torsion
[ 7974 7965 7964 7962 ] final   38.96 input  175.53 | X-H torsion
[ 8008 7997 7996 7995 ] final   20.10 input   59.86 | X-H torsion
[ 10167 10162 10161 10158 ] final  103.32 input  -65.29 | X-H torsion
[ 10718 10713 10712 10709 ] final  108.96 input   66.30 | X-H torsion
[ 10763 10752 10751 10750 ] final -151.72 input  -60.55 | X-H torsion
[ 11005 11000 10999 10996 ] final   82.74 input  -57.11 | X-H torsion

> <Gold.Protein.ActiveResidues>
 VAL166  LYS551  ARG553  GLY616  TRP617  ASP618  TYR619  PRO620  LYS621  CYS622 
 ASP623  PHE694  ASN695  SER759  ASP760  ASP761  ALA762  ILE779  LEU786  VAL792 
 PHE793  MET794  SER795  GLU796  ALA797  LYS798  CYS799  TRP800  GLU811  SER814 

> <Gold.Protein.RotatedAtoms>
  152.2237  134.8389  160.0482 H   0  0  0  0  0  0  0  0  0  0  0  0  # atno 6907 bound_to 6896
  151.9163  133.3569  159.3889 H   0  0  0  0  0  0  0  0  0  0  0  0  # atno 6908 bound_to 6896
  150.7006  134.4606  159.5423 H   0  0  0  0  0  0  0  0  0  0  0  0  # atno 6909 bound_to 6896
  146.1021  139.5709  142.9407 H   0  0  0  0  0  0  0  0  0  0  0  0  # atno 7974 bound_to 7965
  154.9306  140.3040  155.5170 H   0  0  0  0  0  0  0  0  0  0  0  0  # atno 8008 bound_to 7997
  156.3004  140.2354  156.4302 H   0  0  0  0  0  0  0  0  0  0  0  0  # atno 8009 bound_to 7997
  154.8241  140.0422  157.1420 H   0  0  0  0  0  0  0  0  0  0  0  0  # atno 8010 bound_to 7997
  139.7273  144.7044  151.0777 H   0  0  0  0  0  0  0  0  0  0  0  0  # atno 10167 bound_to 10162
  157.6563  131.0904  150.6383 H   0  0  0  0  0  0  0  0  0  0  0  0  # atno 10718 bound_to 10713
  154.8040  135.3253  154.7478 H   0  0  0  0  0  0  0  0  0  0  0  0  # atno 10763 bound_to 10752
  153.8140  135.6893  153.4841 H   0  0  0  0  0  0  0  0  0  0  0  0  # atno 10764 bound_to 10752
  153.1774  135.4600  154.9927 H   0  0  0  0  0  0  0  0  0  0  0  0  # atno 10765 bound_to 10752
  139.9054  134.8093  156.2215 H   0  0  0  0  0  0  0  0  0  0  0  0  # atno 11005 bound_to 11000
  145.5833  141.0379  143.2110 LP  0  0  0  0  0  0  0  0  0  0  0  0  # atno 17320 bound_to 7965
  144.7441  139.7367  143.7299 LP  0  0  0  0  0  0  0  0  0  0  0  0  # atno 17321 bound_to 7965
  140.7765  143.5088  150.9678 LP  0  0  0  0  0  0  0  0  0  0  0  0  # atno 17342 bound_to 10162
  139.8776  143.7113  152.3160 LP  0  0  0  0  0  0  0  0  0  0  0  0  # atno 17343 bound_to 10162
  156.6689  130.4534  149.5663 LP  0  0  0  0  0  0  0  0  0  0  0  0  # atno 17370 bound_to 10713
  156.2012  130.6621  151.1169 LP  0  0  0  0  0  0  0  0  0  0  0  0  # atno 17371 bound_to 10713
  141.0403  133.6941  156.1585 LP  0  0  0  0  0  0  0  0  0  0  0  0  # atno 17394 bound_to 11000
  140.6966  134.4609  157.5587 LP  0  0  0  0  0  0  0  0  0  0  0  0  # atno 17395 bound_to 11000

$$$$
