AV-unprocessed.smi:3070|AV-procd|sdf|11711|dock8
  -GOLD-   2272017113D 1   1.00000     0.00000
 Structure written by MMmdl.
 21 22  0  0  0  0  0  0  0  0  2 V2000
  151.6942  138.0105  154.4033 C   0  0  0  0  0  0  0  0  0  0  0  0
  152.3279  137.5654  155.5284 N   0  0  0  0  0  0  0  0  0  0  0  0
  152.2675  138.6645  156.2669 C   0  0  0  0  0  0  0  0  0  0  0  0
  151.6608  139.6887  155.6640 N   0  0  0  0  0  0  0  0  0  0  0  0
  151.4060  141.0397  156.1414 C   0  0  2  0  0  0  0  0  0  0  0  0
  151.7489  141.2547  157.6153 C   0  0  0  0  0  0  0  0  0  0  0  0
  150.9558  142.5151  157.9639 C   0  0  0  0  0  0  0  0  0  0  0  0
  149.7594  142.5044  157.0972 N   0  3  0  0  0  0  0  0  0  0  0  0
  149.9329  141.4599  156.0681 C   0  0  0  0  0  0  0  0  0  0  0  0
  151.2750  139.2758  154.4319 N   0  0  0  0  0  0  0  0  0  0  0  0
  151.5376  137.3840  153.5375 H   0  0  0  0  0  0  0  0  0  0  0  0
  152.6750  138.7231  157.2657 H   0  0  0  0  0  0  0  0  0  0  0  0
  151.9991  141.7324  155.5415 H   0  0  0  0  0  0  0  0  0  0  0  0
  151.3950  140.4218  158.2247 H   0  0  0  0  0  0  0  0  0  0  0  0
  152.8194  141.3672  157.7902 H   0  0  0  0  0  0  0  0  0  0  0  0
  150.6861  142.5610  159.0193 H   0  0  0  0  0  0  0  0  0  0  0  0
  151.5428  143.4036  157.7281 H   0  0  0  0  0  0  0  0  0  0  0  0
  148.9365  142.2969  157.6452 H   0  0  0  0  0  0  0  0  0  0  0  0
  149.6524  141.8226  155.0790 H   0  0  0  0  0  0  0  0  0  0  0  0
  149.2694  140.6319  156.3206 H   0  0  0  0  0  0  0  0  0  0  0  0
  149.6560  143.4089  156.6594 H   0  0  0  0  0  0  0  0  0  0  0  0
  1 10  2  0  0  0  0
  1  2  1  0  0  0  0
  1 11  1  0  0  0  0
  2  3  2  0  0  0  0
  3  4  1  0  0  0  0
  3 12  1  0  0  0  0
  4  5  1  0  0  0  0
  4 10  1  0  0  0  0
  5  9  1  0  0  0  0
  5  6  1  0  0  0  0
  5 13  1  0  0  0  0
  6  7  1  0  0  0  0
  6 14  1  0  0  0  0
  6 15  1  0  0  0  0
  7  8  1  0  0  0  0
  7 16  1  0  0  0  0
  7 17  1  0  0  0  0
  8  9  1  0  0  0  0
  8 18  1  0  0  0  0
  8 21  1  0  0  0  0
  9 19  1  0  0  0  0
  9 20  1  0  0  0  0
M  CHG  1   8   1
M  END
> <s_m_source_file>
AV-unprocessed.smi

> <i_m_source_file_index>
3070

> <i_lp_mmshare_version>
43012

> <i_f3d_flags>
0

> <s_epik_input>
bjFbY0hdbltjSF1uMVtDQEBIXTJbQ0gyXVtDSDJdW05IXVtDSDJdMg==

> <s_epik_cmdline>
J2VwaWtfcHl0aG9uJywgJy1waCcsICc3LjAnLCAnLXRuJywgJzgnLCAnLW1hJywgJzIwMCcsICctbWV0YWxfYmluZGluZycsICctaW1hZScsICc8aW5maWxlLm1hZT4nLCAnLW9tYWUnLCAnPG91dGZpbGUubWFlPic=

> <r_lp_tautomer_probability>
1

> <r_epik_Ionization_Penalty>
0.000421274

> <r_epik_Ionization_Penalty_Charging>
0.000420295

> <r_epik_Ionization_Penalty_Neutral>
9.79543e-07

> <r_epik_State_Penalty>
0.000258452

> <r_epik_Charging_Adjusted_Penalty>
0.000678746

> <i_epik_Tot_Q>
1

> <i_epik_Tot_abs_Q>
1

> <r_epik_Metal_State_Penalty>
-0

> <b_epik_Metal_Only>
0

> <s_lp_Force_Field>
OPLS_2005

> <r_lp_Energy>
29.098

> <b_lp_Chiralities_Consistent>
1

> <s_lp_Variant>
AV-unprocessed.smi:3070-1

> <Gold.Version>
5.8.1

> <Gold.Id.Protein>
6NUR|6NUR_protein|mol2

> <Gold.PLP.Fitness>
32.6360

> <Gold.PLP.PLP>
-19.7320

> <Gold.PLP.part.hbond>
-3.0000

> <Gold.PLP.part.metal>
0.0000

> <Gold.PLP.part.buried>
-2.6917

> <Gold.PLP.part.nonpolar>
-14.1828

> <Gold.PLP.part.repulsive>
0.1685

> <Gold.PLP.ligand.clash>
0.0000

> <Gold.PLP.ligand.torsion>
0.0871

> <Gold.PLP.Chemscore.Hbond>
3.3578

> <Gold.PLP.Chemscore.CHOScore>
1.0000

> <Gold.PLP.Chemscore.Metal>
0.0000

> <Gold.Chemscore.Hbonds>
donor molecule, donor type, donor heavy atom, donor atom, acceptor molecule, acceptor atom, score
      L1  H     8    21       P1  8028  2.00
      P1  H  7989  7998       L1    10  0.95
      P1  H 10752 10764       L1     2  0.33
      L1  C     1    11       P1  7949  1.00

> <Gold.PLP.Chemscore.Internal.Correction>
0.0050

> <Gold.Rescore>
     Score         DG    S(hbond)    S(metal)    S(lipo)     H(rot)  DE(clash)    DE(int)     intcor
     12.58     -12.59       1.89        0.00      28.64       1.00       0.01       0.00       ----

> <Gold.Chemscore.Fitness>
12.5776

> <Gold.Chemscore.DG>
-12.5911

> <Gold.Chemscore.ZeroCoef>
-5.4800

> <Gold.Chemscore.Hbond>
1.8922

> <Gold.Chemscore.Metal>
0.0000

> <Gold.Chemscore.Lipo>
28.6427

> <Gold.Chemscore.Internal_Hbond>
0.0000

> <Gold.Chemscore.DEClash>
0.0106

> <Gold.Chemscore.DEInternal>
0.0030

> <Gold.Chemscore.Rot>
1.0000

> <Gold.Chemscore.Internal.Correction>
   9.000000E+99

> <Gold.Chemscore.Hbonds>
donor molecule, donor type, donor heavy atom, donor atom, acceptor molecule, acceptor atom, score
      L1  H     8    21       P1  8028  0.99
      P1  H  7989  7998       L1    10  0.22
      P1  H 10752 10764       L1     2  0.08

> <Gold.Chemscore.Hbond.Weighted>
-6.3200

> <Gold.Chemscore.Metal.Weighted>
-0.0000

> <Gold.Chemscore.Lipo.Weighted>
-3.3512

> <Gold.Chemscore.Internal_Hbond.Weighted>
0.0000

> <Gold.Chemscore.DEClash.Weighted>
0.0106

> <Gold.Chemscore.DEInternal.Weighted>
0.0030

> <Gold.Chemscore.Rot.Weighted>
2.5600

> <Gold.Chemscore.Internal.Correction.Weighted>
   9.000000E+99

> <Gold.Protein.RotatedTorsions>
[ 6907 6896 6895 6894 ] final -143.22 input  -60.11 | X-H torsion
[ 7974 7965 7964 7962 ] final -125.42 input  175.53 | X-H torsion
[ 8008 7997 7996 7995 ] final  -23.83 input   59.86 | X-H torsion
[ 10167 10162 10161 10158 ] final  157.58 input  -65.29 | X-H torsion
[ 10718 10713 10712 10709 ] final  -55.39 input   66.30 | X-H torsion
[ 10763 10752 10751 10750 ] final  -49.02 input  -60.55 | X-H torsion
[ 11005 11000 10999 10996 ] final  -81.01 input  -57.11 | X-H torsion

> <Gold.Protein.ActiveResidues>
 VAL166  LYS551  ARG553  GLY616  TRP617  ASP618  TYR619  PRO620  LYS621  CYS622 
 ASP623  PHE694  ASN695  SER759  ASP760  ASP761  ALA762  ILE779  LEU786  VAL792 
 PHE793  MET794  SER795  GLU796  ALA797  LYS798  CYS799  TRP800  GLU811  SER814 

> <Gold.Protein.RotatedAtoms>
  151.0976  133.5268  159.2611 H   0  0  0  0  0  0  0  0  0  0  0  0  # atno 6907 bound_to 6896
  151.2111  135.0481  159.8921 H   0  0  0  0  0  0  0  0  0  0  0  0  # atno 6908 bound_to 6896
  152.5440  134.0791  159.8281 H   0  0  0  0  0  0  0  0  0  0  0  0  # atno 6909 bound_to 6896
  144.9978  140.7792  143.4515 H   0  0  0  0  0  0  0  0  0  0  0  0  # atno 7974 bound_to 7965
  154.4563  140.1970  156.0371 H   0  0  0  0  0  0  0  0  0  0  0  0  # atno 8008 bound_to 7997
  156.0752  140.3279  155.7597 H   0  0  0  0  0  0  0  0  0  0  0  0  # atno 8009 bound_to 7997
  155.5200  140.0569  157.2899 H   0  0  0  0  0  0  0  0  0  0  0  0  # atno 8010 bound_to 7997
  139.4823  144.4904  151.8316 H   0  0  0  0  0  0  0  0  0  0  0  0  # atno 10167 bound_to 10162
  156.1372  130.4156  150.0165 H   0  0  0  0  0  0  0  0  0  0  0  0  # atno 10718 bound_to 10713
  154.0872  135.6582  153.4847 H   0  0  0  0  0  0  0  0  0  0  0  0  # atno 10763 bound_to 10752
  153.0334  135.5194  154.7416 H   0  0  0  0  0  0  0  0  0  0  0  0  # atno 10764 bound_to 10752
  154.6529  135.3004  154.9933 H   0  0  0  0  0  0  0  0  0  0  0  0  # atno 10765 bound_to 10752
  141.1667  133.7177  156.8359 H   0  0  0  0  0  0  0  0  0  0  0  0  # atno 11005 bound_to 11000
  145.2196  139.2165  143.5100 LP  0  0  0  0  0  0  0  0  0  0  0  0  # atno 17320 bound_to 7965
  146.3445  140.2051  142.8589 LP  0  0  0  0  0  0  0  0  0  0  0  0  # atno 17321 bound_to 7965
  140.4388  144.2015  150.5890 LP  0  0  0  0  0  0  0  0  0  0  0  0  # atno 17342 bound_to 10162
  140.4704  143.2415  151.9096 LP  0  0  0  0  0  0  0  0  0  0  0  0  # atno 17343 bound_to 10162
  156.8061  130.9308  151.3645 LP  0  0  0  0  0  0  0  0  0  0  0  0  # atno 17370 bound_to 10713
  157.6543  130.8911  149.9697 LP  0  0  0  0  0  0  0  0  0  0  0  0  # atno 17371 bound_to 10713
  140.2018  134.8892  157.3177 LP  0  0  0  0  0  0  0  0  0  0  0  0  # atno 17394 bound_to 11000
  140.2180  134.4058  155.7580 LP  0  0  0  0  0  0  0  0  0  0  0  0  # atno 17395 bound_to 11000

$$$$
