AV-unprocessed.smi:1231|AV-procd|sdf|5161|dock9
  -GOLD-   22720 4233D 1   1.00000     0.00000
 Structure written by MMmdl.
 42 43  0  0  0  0  0  0  0  0  1 V2000
  150.8261  142.2899  156.2111 C   0  0  0  0  0  0  0  0  0  0  0  0
  150.2810  140.9038  155.8519 C   0  0  1  0  0  0  0  0  0  0  0  0
  149.1185  140.9787  154.8434 C   0  0  0  0  0  0  0  0  0  0  0  0
  148.6559  139.6525  154.4422 N   0  0  0  0  0  0  0  0  0  0  0  0
  147.5683  139.7073  153.4672 C   0  0  0  0  0  0  0  0  0  0  0  0
  146.4640  138.6520  153.6657 C   0  0  0  0  0  0  0  0  0  0  0  0
  146.7099  137.4680  152.8516 N   0  0  0  0  0  0  0  0  0  0  0  0
  145.7881  136.5467  152.5359 C   0  0  0  0  0  0  0  0  0  0  0  0
  144.6151  136.6066  152.9064 O   0  0  0  0  0  0  0  0  0  0  0  0
  146.3162  135.5700  151.7773 N   0  0  0  0  0  0  0  0  0  0  0  0
  145.6676  134.4236  151.2459 C   0  0  0  0  0  0  0  0  0  0  0  0
  146.5313  133.3812  150.8400 C   0  0  0  0  0  0  0  0  0  0  0  0
  145.9863  132.2009  150.2983 C   0  0  0  0  0  0  0  0  0  0  0  0
  144.5894  132.0928  150.1772 C   0  0  0  0  0  0  0  0  0  0  0  0
  143.8008  133.1762  150.6065 C   0  0  0  0  0  0  0  0  0  0  0  0
  144.3212  134.3084  151.1251 N   0  0  0  0  0  0  0  0  0  0  0  0
  149.7877  138.8970  153.9167 C   0  0  0  0  0  0  0  0  0  0  0  0
  150.9483  138.8161  154.9264 C   0  0  1  0  0  0  0  0  0  0  0  0
  152.1683  138.0893  154.3509 C   0  0  0  0  0  0  0  0  0  0  0  0
  151.3413  140.1371  155.2875 O   0  0  0  0  0  0  0  0  0  0  0  0
  150.0527  142.9104  156.6645 H   0  0  0  0  0  0  0  0  0  0  0  0
  151.1972  142.8091  155.3271 H   0  0  0  0  0  0  0  0  0  0  0  0
  151.6488  142.2118  156.9221 H   0  0  0  0  0  0  0  0  0  0  0  0
  149.9398  140.4144  156.7658 H   0  0  0  0  0  0  0  0  0  0  0  0
  148.3031  141.5418  155.2959 H   0  0  0  0  0  0  0  0  0  0  0  0
  149.4361  141.5399  153.9630 H   0  0  0  0  0  0  0  0  0  0  0  0
  147.1253  140.7045  153.4654 H   0  0  0  0  0  0  0  0  0  0  0  0
  147.9896  139.5666  152.4709 H   0  0  0  0  0  0  0  0  0  0  0  0
  146.3854  138.3739  154.7180 H   0  0  0  0  0  0  0  0  0  0  0  0
  145.4920  139.0475  153.3734 H   0  0  0  0  0  0  0  0  0  0  0  0
  147.6497  137.3415  152.5054 H   0  0  0  0  0  0  0  0  0  0  0  0
  147.2967  135.6559  151.5540 H   0  0  0  0  0  0  0  0  0  0  0  0
  147.6026  133.4806  150.9405 H   0  0  0  0  0  0  0  0  0  0  0  0
  146.6295  131.3931  149.9818 H   0  0  0  0  0  0  0  0  0  0  0  0
  144.1340  131.2038  149.7668 H   0  0  0  0  0  0  0  0  0  0  0  0
  142.7241  133.1336  150.5319 H   0  0  0  0  0  0  0  0  0  0  0  0
  149.4670  137.8875  153.6567 H   0  0  0  0  0  0  0  0  0  0  0  0
  150.1415  139.3583  152.9931 H   0  0  0  0  0  0  0  0  0  0  0  0
  150.6171  138.2881  155.8224 H   0  0  0  0  0  0  0  0  0  0  0  0
  151.9177  137.0667  154.0679 H   0  0  0  0  0  0  0  0  0  0  0  0
  152.9748  138.0430  155.0830 H   0  0  0  0  0  0  0  0  0  0  0  0
  152.5505  138.5985  153.4657 H   0  0  0  0  0  0  0  0  0  0  0  0
  1  2  1  0  0  0  0
  1 21  1  0  0  0  0
  1 22  1  0  0  0  0
  1 23  1  0  0  0  0
  2 20  1  0  0  0  0
  2  3  1  0  0  0  0
  2 24  1  0  0  0  0
  3  4  1  0  0  0  0
  3 25  1  0  0  0  0
  3 26  1  0  0  0  0
  4  5  1  0  0  0  0
  4 17  1  0  0  0  0
  5  6  1  0  0  0  0
  5 27  1  0  0  0  0
  5 28  1  0  0  0  0
  6  7  1  0  0  0  0
  6 29  1  0  0  0  0
  6 30  1  0  0  0  0
  7  8  1  0  0  0  0
  7 31  1  0  0  0  0
  8  9  2  0  0  0  0
  8 10  1  0  0  0  0
 10 11  1  0  0  0  0
 10 32  1  0  0  0  0
 11 16  1  0  0  0  0
 11 12  2  0  0  0  0
 12 13  1  0  0  0  0
 12 33  1  0  0  0  0
 13 14  2  0  0  0  0
 13 34  1  0  0  0  0
 14 15  1  0  0  0  0
 14 35  1  0  0  0  0
 15 16  2  0  0  0  0
 15 36  1  0  0  0  0
 17 18  1  0  0  0  0
 17 37  1  0  0  0  0
 17 38  1  0  0  0  0
 18 19  1  0  0  0  0
 18 20  1  0  0  0  0
 18 39  1  0  0  0  0
 19 40  1  0  0  0  0
 19 41  1  0  0  0  0
 19 42  1  0  0  0  0
M  END
> <s_m_source_file>
AV-unprocessed.smi

> <i_m_source_file_index>
1231

> <i_lp_mmshare_version>
43012

> <i_f3d_flags>
0

> <s_epik_input>
W0NIM11bQ0BASF0xW0NIMl1OKFtDSDJdW0NASF0oTzEpW0NIM10pW0NIMl1bQ0gyXVtOSF1DKD1PKVtOSF1jMltjSF1bY0hdW2NIXVtjSF1uMg==

> <s_epik_cmdline>
J2VwaWtfcHl0aG9uJywgJy1waCcsICc3LjAnLCAnLXRuJywgJzgnLCAnLW1hJywgJzIwMCcsICctbWV0YWxfYmluZGluZycsICctaW1hZScsICc8aW5maWxlLm1hZT4nLCAnLW9tYWUnLCAnPG91dGZpbGUubWFlPic=

> <r_epik_Ionization_Penalty>
0.266037

> <r_epik_Ionization_Penalty_Charging>
0

> <r_epik_Ionization_Penalty_Neutral>
0.266037

> <r_epik_State_Penalty>
0.257924

> <r_epik_Charging_Adjusted_Penalty>
0.257924

> <i_epik_Tot_Q>
0

> <i_epik_Tot_abs_Q>
0

> <r_epik_Metal_State_Penalty>
0.257923

> <b_epik_Metal_Only>
0

> <s_lp_Force_Field>
OPLS_2005

> <r_lp_Energy>
20.5827

> <b_lp_Chiralities_Consistent>
1

> <s_lp_Variant>
AV-unprocessed.smi:1231-2

> <Gold.Version>
5.8.1

> <Gold.Id.Protein>
6NUR|6NUR_protein|mol2

> <Gold.PLP.Fitness>
46.0962

> <Gold.PLP.PLP>
-35.9938

> <Gold.PLP.part.hbond>
-3.0000

> <Gold.PLP.part.metal>
0.0000

> <Gold.PLP.part.buried>
-3.1579

> <Gold.PLP.part.nonpolar>
-30.7118

> <Gold.PLP.part.repulsive>
0.5441

> <Gold.PLP.ligand.clash>
0.0000

> <Gold.PLP.ligand.torsion>
0.9510

> <Gold.PLP.Chemscore.Hbond>
3.0000

> <Gold.PLP.Chemscore.CHOScore>
1.0000

> <Gold.PLP.Chemscore.Metal>
0.0000

> <Gold.Chemscore.Hbonds>
donor molecule, donor type, donor heavy atom, donor atom, acceptor molecule, acceptor atom, score
      L1  H     7    31       P1  7948  0.99
      L1  H    10    32       P1  7948  1.00
      P1  H  7989  7998       L1    20  1.00
      L1  C    15    36       P1 10186  1.00

> <Gold.PLP.Chemscore.Internal.Correction>
0.0045

> <Gold.Rescore>
     Score         DG    S(hbond)    S(metal)    S(lipo)     H(rot)  DE(clash)    DE(int)     intcor
     17.21     -19.53       2.09        0.00      93.67       1.52       0.28       2.04       ----

> <Gold.Chemscore.Fitness>
17.2132

> <Gold.Chemscore.DG>
-19.5253

> <Gold.Chemscore.ZeroCoef>
-5.4800

> <Gold.Chemscore.Hbond>
2.0860

> <Gold.Chemscore.Metal>
0.0000

> <Gold.Chemscore.Lipo>
93.6718

> <Gold.Chemscore.Internal_Hbond>
0.0000

> <Gold.Chemscore.DEClash>
0.2760

> <Gold.Chemscore.DEInternal>
2.0360

> <Gold.Chemscore.Rot>
1.5162

> <Gold.Chemscore.Internal.Correction>
   9.000000E+99

> <Gold.Chemscore.Hbonds>
donor molecule, donor type, donor heavy atom, donor atom, acceptor molecule, acceptor atom, score
      L1  H     7    31       P1  7948  0.94
      L1  H    10    32       P1  7948  0.97
      P1  H  7989  7998       L1    20  0.14

> <Gold.Chemscore.Hbond.Weighted>
-6.9671

> <Gold.Chemscore.Metal.Weighted>
-0.0000

> <Gold.Chemscore.Lipo.Weighted>
-10.9596

> <Gold.Chemscore.Internal_Hbond.Weighted>
0.0000

> <Gold.Chemscore.DEClash.Weighted>
0.2760

> <Gold.Chemscore.DEInternal.Weighted>
2.0360

> <Gold.Chemscore.Rot.Weighted>
3.8814

> <Gold.Chemscore.Internal.Correction.Weighted>
   9.000000E+99

> <Gold.Protein.RotatedTorsions>
[ 6907 6896 6895 6894 ] final -141.05 input  -60.11 | X-H torsion
[ 7974 7965 7964 7962 ] final  142.21 input  175.53 | X-H torsion
[ 8008 7997 7996 7995 ] final -146.67 input   59.86 | X-H torsion
[ 10167 10162 10161 10158 ] final  -51.24 input  -65.29 | X-H torsion
[ 10718 10713 10712 10709 ] final -125.47 input   66.30 | X-H torsion
[ 10763 10752 10751 10750 ] final   24.18 input  -60.55 | X-H torsion
[ 11005 11000 10999 10996 ] final  -73.04 input  -57.11 | X-H torsion

> <Gold.Protein.ActiveResidues>
 VAL166  LYS551  ARG553  GLY616  TRP617  ASP618  TYR619  PRO620  LYS621  CYS622 
 ASP623  PHE694  ASN695  SER759  ASP760  ASP761  ALA762  ILE779  LEU786  VAL792 
 PHE793  MET794  SER795  GLU796  ALA797  LYS798  CYS799  TRP800  GLU811  SER814 

> <Gold.Protein.RotatedAtoms>
  151.0687  133.5484  159.2628 H   0  0  0  0  0  0  0  0  0  0  0  0  # atno 6907 bound_to 6896
  151.2431  135.0595  159.9042 H   0  0  0  0  0  0  0  0  0  0  0  0  # atno 6908 bound_to 6896
  152.5408  134.0459  159.8142 H   0  0  0  0  0  0  0  0  0  0  0  0  # atno 6909 bound_to 6896
  144.9028  139.5400  143.5746 H   0  0  0  0  0  0  0  0  0  0  0  0  # atno 7974 bound_to 7965
  155.5632  140.0627  157.2824 H   0  0  0  0  0  0  0  0  0  0  0  0  # atno 8008 bound_to 7997
  154.4384  140.1882  156.0849 H   0  0  0  0  0  0  0  0  0  0  0  0  # atno 8009 bound_to 7997
  156.0431  140.3293  155.7270 H   0  0  0  0  0  0  0  0  0  0  0  0  # atno 8010 bound_to 7997
  140.6598  143.2627  151.4474 H   0  0  0  0  0  0  0  0  0  0  0  0  # atno 10167 bound_to 10162
  156.1679  130.6647  151.0139 H   0  0  0  0  0  0  0  0  0  0  0  0  # atno 10718 bound_to 10713
  153.0783  135.6611  154.0099 H   0  0  0  0  0  0  0  0  0  0  0  0  # atno 10763 bound_to 10752
  153.9728  135.2963  155.3427 H   0  0  0  0  0  0  0  0  0  0  0  0  # atno 10764 bound_to 10752
  154.7176  135.5178  153.8833 H   0  0  0  0  0  0  0  0  0  0  0  0  # atno 10765 bound_to 10752
  141.1617  133.6865  156.7151 H   0  0  0  0  0  0  0  0  0  0  0  0  # atno 11005 bound_to 11000
  146.3117  139.7771  142.9014 LP  0  0  0  0  0  0  0  0  0  0  0  0  # atno 17320 bound_to 7965
  145.3587  141.0322  143.3297 LP  0  0  0  0  0  0  0  0  0  0  0  0  # atno 17321 bound_to 7965
  139.5829  144.1669  152.1992 LP  0  0  0  0  0  0  0  0  0  0  0  0  # atno 17342 bound_to 10162
  140.0999  144.5548  150.6996 LP  0  0  0  0  0  0  0  0  0  0  0  0  # atno 17343 bound_to 10162
  157.6781  131.0845  150.7442 LP  0  0  0  0  0  0  0  0  0  0  0  0  # atno 17370 bound_to 10713
  156.7502  130.4766  149.5458 LP  0  0  0  0  0  0  0  0  0  0  0  0  # atno 17371 bound_to 10713
  140.2858  134.8280  157.3973 LP  0  0  0  0  0  0  0  0  0  0  0  0  # atno 17394 bound_to 11000
  140.1391  134.4995  155.8045 LP  0  0  0  0  0  0  0  0  0  0  0  0  # atno 17395 bound_to 11000

$$$$
