AV-unprocessed.smi:686|AV-procd|sdf|3347|dock6
  -GOLD-   22720 0323D 1   1.00000     0.00000
 Structure written by MMmdl.
 40 41  0  0  0  0  0  0  0  0  3 V2000
  150.2094  140.4654  155.6012 C   0  0  0  0  0  0  0  0  0  0  0  0
  149.6666  139.1286  155.0598 C   0  0  2  0  0  0  0  0  0  0  0  0
  148.5075  139.2987  154.0757 C   0  0  0  0  0  0  0  0  0  0  0  0
  147.8626  137.9688  154.0125 N   0  3  2  0  0  0  0  0  0  0  0  0
  146.4665  137.9511  153.4901 C   0  0  0  0  0  0  0  0  0  0  0  0
  146.3849  138.6093  152.0997 C   0  0  0  0  0  0  0  0  0  0  0  0
  145.4901  138.6554  154.4511 C   0  0  0  0  0  0  0  0  0  0  0  0
  148.0516  137.3312  155.3400 C   0  0  0  0  0  0  0  0  0  0  0  0
  149.0801  138.1765  156.1152 C   0  0  1  0  0  0  0  0  0  0  0  0
  150.1197  137.3527  156.7202 N   0  5  0  0  0  0  0  0  0  0  0  0
  149.8426  136.4970  158.0770 S   0  0  0  0  0  0  0  0  0  0  0  0
  149.6706  135.0531  157.8401 O   0  0  0  0  0  0  0  0  0  0  0  0
  150.7828  136.8795  159.1410 O   0  0  0  0  0  0  0  0  0  0  0  0
  148.1941  137.1414  158.6187 C   0  0  0  0  0  0  0  0  0  0  0  0
  147.7708  136.4698  159.8956 C   0  0  0  0  0  0  0  0  0  0  0  0
  147.7151  135.0789  160.1900 C   0  0  0  0  0  0  0  0  0  0  0  0
  147.2611  135.0423  161.4767 C   0  0  0  0  0  0  0  0  0  0  0  0
  147.0430  136.2989  161.9394 O   0  0  0  0  0  0  0  0  0  0  0  0
  147.3679  137.2032  160.9219 N   0  0  0  0  0  0  0  0  0  0  0  0
  149.4437  141.0440  156.1216 H   0  0  0  0  0  0  0  0  0  0  0  0
  150.5803  141.0842  154.7840 H   0  0  0  0  0  0  0  0  0  0  0  0
  151.0414  140.3146  156.2915 H   0  0  0  0  0  0  0  0  0  0  0  0
  150.4733  138.6184  154.5287 H   0  0  0  0  0  0  0  0  0  0  0  0
  147.7934  140.0482  154.4283 H   0  0  0  0  0  0  0  0  0  0  0  0
  148.8600  139.6151  153.0934 H   0  0  0  0  0  0  0  0  0  0  0  0
  146.1547  136.9097  153.3950 H   0  0  0  0  0  0  0  0  0  0  0  0
  145.3591  138.6143  151.7298 H   0  0  0  0  0  0  0  0  0  0  0  0
  146.9848  138.0813  151.3585 H   0  0  0  0  0  0  0  0  0  0  0  0
  146.7291  139.6437  152.1309 H   0  0  0  0  0  0  0  0  0  0  0  0
  144.4822  138.6770  154.0357 H   0  0  0  0  0  0  0  0  0  0  0  0
  145.7916  139.6868  154.6377 H   0  0  0  0  0  0  0  0  0  0  0  0
  145.4224  138.1456  155.4121 H   0  0  0  0  0  0  0  0  0  0  0  0
  147.1183  137.2947  155.9040 H   0  0  0  0  0  0  0  0  0  0  0  0
  148.3803  136.3020  155.1862 H   0  0  0  0  0  0  0  0  0  0  0  0
  148.5450  138.7749  156.8538 H   0  0  0  0  0  0  0  0  0  0  0  0
  148.2792  138.2207  158.7496 H   0  0  0  0  0  0  0  0  0  0  0  0
  147.4665  136.9587  157.8291 H   0  0  0  0  0  0  0  0  0  0  0  0
  147.9754  134.2423  159.5587 H   0  0  0  0  0  0  0  0  0  0  0  0
  147.0501  134.2387  162.1665 H   0  0  0  0  0  0  0  0  0  0  0  0
  148.4252  137.4270  153.3724 H   0  0  0  0  0  0  0  0  0  0  0  0
  1  2  1  0  0  0  0
  1 20  1  0  0  0  0
  1 21  1  0  0  0  0
  1 22  1  0  0  0  0
  2  9  1  0  0  0  0
  2  3  1  0  0  0  0
  2 23  1  0  0  0  0
  3  4  1  0  0  0  0
  3 24  1  0  0  0  0
  3 25  1  0  0  0  0
  4  5  1  0  0  0  0
  4  8  1  0  0  0  0
  4 40  1  0  0  0  0
  5  6  1  0  0  0  0
  5  7  1  0  0  0  0
  5 26  1  0  0  0  0
  6 27  1  0  0  0  0
  6 28  1  0  0  0  0
  6 29  1  0  0  0  0
  7 30  1  0  0  0  0
  7 31  1  0  0  0  0
  7 32  1  0  0  0  0
  8  9  1  0  0  0  0
  8 33  1  0  0  0  0
  8 34  1  0  0  0  0
  9 10  1  0  0  0  0
  9 35  1  0  0  0  0
 10 11  1  0  0  0  0
 11 12  2  0  0  0  0
 11 13  2  0  0  0  0
 11 14  1  0  0  0  0
 14 15  1  0  0  0  0
 14 36  1  0  0  0  0
 14 37  1  0  0  0  0
 15 19  2  0  0  0  0
 15 16  1  0  0  0  0
 16 17  2  0  0  0  0
 16 38  1  0  0  0  0
 17 18  1  0  0  0  0
 17 39  1  0  0  0  0
 18 19  1  0  0  0  0
M  CHG  1   4   1
M  CHG  1  10  -1
M  END
> <s_m_source_file>
AV-unprocessed.smi

> <i_m_source_file_index>
686

> <i_lp_mmshare_version>
43012

> <i_f3d_flags>
0

> <s_epik_input>
W0NIM11bQ0BASF0xW0NIMl1OKFtDSF0oW0NIM10pW0NIM10pW0NIMl1bQ0BIXTFbTkhdUyg9TykoPU8pW0NIMl1jMltjSF1bY0hdb24y

> <s_epik_cmdline>
J2VwaWtfcHl0aG9uJywgJy1waCcsICc3LjAnLCAnLXRuJywgJzgnLCAnLW1hJywgJzIwMCcsICctbWV0YWxfYmluZGluZycsICctaW1hZScsICc8aW5maWxlLm1hZT4nLCAnLW9tYWUnLCAnPG91dGZpbGUubWFlPic=

> <r_epik_Ionization_Penalty>
3.62478

> <r_epik_Ionization_Penalty_Charging>
3.62478

> <r_epik_Ionization_Penalty_Neutral>
2.03645e-10

> <r_epik_State_Penalty>
3.6247

> <r_epik_Charging_Adjusted_Penalty>
7.24949

> <i_epik_Tot_Q>
0

> <i_epik_Tot_abs_Q>
2

> <r_epik_Metal_State_Penalty>
0.530836

> <b_epik_Metal_Only>
1

> <s_lp_Force_Field>
OPLS_2005

> <r_lp_Energy>
16.7108

> <b_lp_Chiralities_Consistent>
1

> <s_lp_Variant>
AV-unprocessed.smi:686-11

> <Gold.Version>
5.8.1

> <Gold.Id.Protein>
6NUR|6NUR_protein|mol2

> <Gold.PLP.Fitness>
39.8854

> <Gold.PLP.PLP>
-24.8569

> <Gold.PLP.part.hbond>
-5.0000

> <Gold.PLP.part.metal>
0.0000

> <Gold.PLP.part.buried>
-3.5669

> <Gold.PLP.part.nonpolar>
-17.6471

> <Gold.PLP.part.repulsive>
0.0000

> <Gold.PLP.ligand.clash>
0.0000

> <Gold.PLP.ligand.torsion>
0.9307

> <Gold.PLP.Chemscore.Hbond>
5.2800

> <Gold.PLP.Chemscore.CHOScore>
0.0000

> <Gold.PLP.Chemscore.Metal>
0.0000

> <Gold.Chemscore.Hbonds>
donor molecule, donor type, donor heavy atom, donor atom, acceptor molecule, acceptor atom, score
      L1  H     4    40       P1  7948  2.00
      P1  H  6896  6907       L1    12  0.50
      P1  H  6896  6908       L1    13  0.61
      P1  H  6931  6943       L1    19  0.45
      P1  H  6934  6947       L1    19  1.00

> <Gold.PLP.Chemscore.Internal.Correction>
1.0499

> <Gold.Rescore>
     Score         DG    S(hbond)    S(metal)    S(lipo)     H(rot)  DE(clash)    DE(int)     intcor
     18.16     -19.04       3.42        0.00      53.66       1.61       0.01       0.87       ----

> <Gold.Chemscore.Fitness>
18.1620

> <Gold.Chemscore.DG>
-19.0382

> <Gold.Chemscore.ZeroCoef>
-5.4800

> <Gold.Chemscore.Hbond>
3.4175

> <Gold.Chemscore.Metal>
0.0000

> <Gold.Chemscore.Lipo>
53.6580

> <Gold.Chemscore.Internal_Hbond>
0.0000

> <Gold.Chemscore.DEClash>
0.0103

> <Gold.Chemscore.DEInternal>
0.8659

> <Gold.Chemscore.Rot>
1.6149

> <Gold.Chemscore.Internal.Correction>
   9.000000E+99

> <Gold.Chemscore.Hbonds>
donor molecule, donor type, donor heavy atom, donor atom, acceptor molecule, acceptor atom, score
      L1  H     4    40       P1  7948  0.97
      P1  H  6896  6907       L1    12  0.40
      P1  H  6896  6908       L1    13  0.45
      P1  H  6931  6943       L1    19  0.09
      P1  H  6934  6947       L1    19  0.97

> <Gold.Chemscore.Hbond.Weighted>
-11.4143

> <Gold.Chemscore.Metal.Weighted>
-0.0000

> <Gold.Chemscore.Lipo.Weighted>
-6.2780

> <Gold.Chemscore.Internal_Hbond.Weighted>
0.0000

> <Gold.Chemscore.DEClash.Weighted>
0.0103

> <Gold.Chemscore.DEInternal.Weighted>
0.8659

> <Gold.Chemscore.Rot.Weighted>
4.1341

> <Gold.Chemscore.Internal.Correction.Weighted>
   9.000000E+99

> <Gold.Protein.RotatedTorsions>
[ 6907 6896 6895 6894 ] final -114.31 input  -60.11 | X-H torsion
[ 7974 7965 7964 7962 ] final  -43.87 input  175.53 | X-H torsion
[ 8008 7997 7996 7995 ] final  165.43 input   59.86 | X-H torsion
[ 10167 10162 10161 10158 ] final    5.09 input  -65.29 | X-H torsion
[ 10718 10713 10712 10709 ] final  -37.21 input   66.30 | X-H torsion
[ 10763 10752 10751 10750 ] final  -19.01 input  -60.55 | X-H torsion
[ 11005 11000 10999 10996 ] final   60.00 input  -57.11 | X-H torsion

> <Gold.Protein.ActiveResidues>
 VAL166  LYS551  ARG553  GLY616  TRP617  ASP618  TYR619  PRO620  LYS621  CYS622 
 ASP623  PHE694  ASN695  SER759  ASP760  ASP761  ALA762  ILE779  LEU786  VAL792 
 PHE793  MET794  SER795  GLU796  ALA797  LYS798  CYS799  TRP800  GLU811  SER814 

> <Gold.Protein.RotatedAtoms>
  150.7893  133.8819  159.3288 H   0  0  0  0  0  0  0  0  0  0  0  0  # atno 6907 bound_to 6896
  151.6662  135.0981  160.0198 H   0  0  0  0  0  0  0  0  0  0  0  0  # atno 6908 bound_to 6896
  152.3963  133.6713  159.6314 H   0  0  0  0  0  0  0  0  0  0  0  0  # atno 6909 bound_to 6896
  145.9977  140.7110  142.9286 H   0  0  0  0  0  0  0  0  0  0  0  0  # atno 7974 bound_to 7965
  156.1801  140.1670  156.8290 H   0  0  0  0  0  0  0  0  0  0  0  0  # atno 8008 bound_to 7997
  154.5350  140.0748  156.8445 H   0  0  0  0  0  0  0  0  0  0  0  0  # atno 8009 bound_to 7997
  155.3329  140.3380  155.4241 H   0  0  0  0  0  0  0  0  0  0  0  0  # atno 8010 bound_to 7997
  140.6501  143.7567  150.7560 H   0  0  0  0  0  0  0  0  0  0  0  0  # atno 10167 bound_to 10162
  156.3179  130.4261  149.7988 H   0  0  0  0  0  0  0  0  0  0  0  0  # atno 10718 bound_to 10713
  153.5981  135.7000  153.5395 H   0  0  0  0  0  0  0  0  0  0  0  0  # atno 10763 bound_to 10752
  153.3120  135.4098  155.1344 H   0  0  0  0  0  0  0  0  0  0  0  0  # atno 10764 bound_to 10752
  154.8588  135.3674  154.5516 H   0  0  0  0  0  0  0  0  0  0  0  0  # atno 10765 bound_to 10752
  140.0263  134.6077  155.9568 H   0  0  0  0  0  0  0  0  0  0  0  0  # atno 11005 bound_to 11000
  144.6909  140.3179  143.7237 LP  0  0  0  0  0  0  0  0  0  0  0  0  # atno 17320 bound_to 7965
  145.7535  139.1801  143.2308 LP  0  0  0  0  0  0  0  0  0  0  0  0  # atno 17321 bound_to 7965
  140.1216  143.4607  152.2310 LP  0  0  0  0  0  0  0  0  0  0  0  0  # atno 17342 bound_to 10162
  139.5715  144.7465  151.3879 LP  0  0  0  0  0  0  0  0  0  0  0  0  # atno 17343 bound_to 10162
  156.5307  130.8256  151.3236 LP  0  0  0  0  0  0  0  0  0  0  0  0  # atno 17370 bound_to 10713
  157.7405  130.9852  150.2384 LP  0  0  0  0  0  0  0  0  0  0  0  0  # atno 17371 bound_to 10713
  141.1805  133.6546  156.5000 LP  0  0  0  0  0  0  0  0  0  0  0  0  # atno 17394 bound_to 11000
  140.4300  134.7110  157.4937 LP  0  0  0  0  0  0  0  0  0  0  0  0  # atno 17395 bound_to 11000

$$$$
