AV-unprocessed.smi:171|AV-procd|sdf|1415|dock5
  -GOLD-   2262019183D 1   1.00000     0.00000
 Structure written by MMmdl.
 56 59  0  0  0  0  0  0  0  0  1 V2000
  151.6934  143.6912  158.3279 C   0  0  0  0  0  0  0  0  0  0  0  0
  151.5622  142.3297  159.0287 C   0  0  0  0  0  0  0  0  0  0  0  0
  152.6853  142.1554  160.0629 C   0  0  0  0  0  0  0  0  0  0  0  0
  151.5349  141.1306  158.0520 C   0  0  0  0  0  0  0  0  0  0  0  0
  150.2630  141.0297  157.1554 C   0  0  1  0  0  0  0  0  0  0  0  0
  150.5215  140.6347  155.6795 C   0  0  0  0  0  0  0  0  0  0  0  0
  151.5993  140.8769  155.1408 O   0  0  0  0  0  0  0  0  0  0  0  0
  149.5300  140.0243  155.0056 N   0  0  0  0  0  0  0  0  0  0  0  0
  148.2269  139.6398  155.5539 C   0  0  0  0  0  0  0  0  0  0  0  0
  147.9679  140.1820  156.9757 C   0  0  0  0  0  0  0  0  0  0  0  0
  149.2007  140.2048  157.7592 N   0  0  0  0  0  0  0  0  0  0  0  0
  149.4906  138.9947  158.3105 C   0  0  0  0  0  0  0  0  0  0  0  0
  150.7742  138.5504  158.3746 N   0  0  0  0  0  0  0  0  0  0  0  0
  151.0491  137.3562  158.9061 C   0  0  0  0  0  0  0  0  0  0  0  0
  150.2070  136.4614  159.4255 N   0  0  0  0  0  0  0  0  0  0  0  0
  148.9169  136.9015  159.3674 C   0  0  0  0  0  0  0  0  0  0  0  0
  148.4764  138.1399  158.8227 C   0  0  0  0  0  0  0  0  0  0  0  0
  147.0954  138.2375  158.9247 N   0  0  0  0  0  0  0  0  0  0  0  0
  146.7396  137.1197  159.4967 C   0  0  0  0  0  0  0  0  0  0  0  0
  147.7733  136.2696  159.8291 N   0  0  0  0  0  0  0  0  0  0  0  0
  147.6832  134.9583  160.4630 C   0  0  0  0  0  0  0  0  0  0  0  0
  146.9018  134.9043  161.8065 C   0  0  1  0  0  0  0  0  0  0  0  0
  147.5685  135.7354  162.7416 O   0  0  0  0  0  0  0  0  0  0  0  0
  145.4875  135.4514  161.6568 C   0  0  0  0  0  0  0  0  0  0  0  0
  144.7530  134.8133  162.8251 C   0  0  0  0  0  0  0  0  0  0  0  0
  145.2829  133.5003  162.8488 O   0  0  0  0  0  0  0  0  0  0  0  0
  146.6638  133.5227  162.4863 C   0  0  1  0  0  0  0  0  0  0  0  0
  146.8854  132.2651  161.6334 C   0  0  0  0  0  0  0  0  0  0  0  0
  152.5924  143.7354  157.7122 H   0  0  0  0  0  0  0  0  0  0  0  0
  151.7497  144.5021  159.0543 H   0  0  0  0  0  0  0  0  0  0  0  0
  150.8351  143.8961  157.6888 H   0  0  0  0  0  0  0  0  0  0  0  0
  150.6211  142.3324  159.5800 H   0  0  0  0  0  0  0  0  0  0  0  0
  153.6649  142.1386  159.5838 H   0  0  0  0  0  0  0  0  0  0  0  0
  152.5708  141.2245  160.6189 H   0  0  0  0  0  0  0  0  0  0  0  0
  152.6840  142.9698  160.7881 H   0  0  0  0  0  0  0  0  0  0  0  0
  152.4394  141.1251  157.4418 H   0  0  0  0  0  0  0  0  0  0  0  0
  151.6085  140.2347  158.6696 H   0  0  0  0  0  0  0  0  0  0  0  0
  149.8332  142.0312  157.1084 H   0  0  0  0  0  0  0  0  0  0  0  0
  149.7046  139.7800  154.0415 H   0  0  0  0  0  0  0  0  0  0  0  0
  147.4344  139.9548  154.8751 H   0  0  0  0  0  0  0  0  0  0  0  0
  148.2017  138.5499  155.5762 H   0  0  0  0  0  0  0  0  0  0  0  0
  147.5957  141.2054  156.9103 H   0  0  0  0  0  0  0  0  0  0  0  0
  147.1764  139.6110  157.4627 H   0  0  0  0  0  0  0  0  0  0  0  0
  152.0929  137.0791  158.9180 H   0  0  0  0  0  0  0  0  0  0  0  0
  145.7021  136.8922  159.6904 H   0  0  0  0  0  0  0  0  0  0  0  0
  147.2227  134.2790  159.7440 H   0  0  0  0  0  0  0  0  0  0  0  0
  148.6947  134.5809  160.6139 H   0  0  0  0  0  0  0  0  0  0  0  0
  147.9256  136.4783  162.2795 H   0  0  0  0  0  0  0  0  0  0  0  0
  145.4339  136.5409  161.6597 H   0  0  0  0  0  0  0  0  0  0  0  0
  145.0436  135.1003  160.7240 H   0  0  0  0  0  0  0  0  0  0  0  0
  144.9859  135.3196  163.7630 H   0  0  0  0  0  0  0  0  0  0  0  0
  143.6708  134.8080  162.6932 H   0  0  0  0  0  0  0  0  0  0  0  0
  147.2582  133.4327  163.3971 H   0  0  0  0  0  0  0  0  0  0  0  0
  147.9430  132.0848  161.4542 H   0  0  0  0  0  0  0  0  0  0  0  0
  146.3736  132.3319  160.6733 H   0  0  0  0  0  0  0  0  0  0  0  0
  146.5043  131.3825  162.1476 H   0  0  0  0  0  0  0  0  0  0  0  0
  1  2  1  0  0  0  0
  1 29  1  0  0  0  0
  1 30  1  0  0  0  0
  1 31  1  0  0  0  0
  2  3  1  0  0  0  0
  2  4  1  0  0  0  0
  2 32  1  0  0  0  0
  3 33  1  0  0  0  0
  3 34  1  0  0  0  0
  3 35  1  0  0  0  0
  4  5  1  0  0  0  0
  4 36  1  0  0  0  0
  4 37  1  0  0  0  0
  5 11  1  0  0  0  0
  5  6  1  0  0  0  0
  5 38  1  0  0  0  0
  6  7  2  0  0  0  0
  6  8  1  0  0  0  0
  8  9  1  0  0  0  0
  8 39  1  0  0  0  0
  9 10  1  0  0  0  0
  9 40  1  0  0  0  0
  9 41  1  0  0  0  0
 10 11  1  0  0  0  0
 10 42  1  0  0  0  0
 10 43  1  0  0  0  0
 11 12  1  0  0  0  0
 12 17  1  0  0  0  0
 12 13  2  0  0  0  0
 13 14  1  0  0  0  0
 14 15  2  0  0  0  0
 14 44  1  0  0  0  0
 15 16  1  0  0  0  0
 16 20  1  0  0  0  0
 16 17  2  0  0  0  0
 17 18  1  0  0  0  0
 18 19  2  0  0  0  0
 19 20  1  0  0  0  0
 19 45  1  0  0  0  0
 20 21  1  0  0  0  0
 21 22  1  0  0  0  0
 21 46  1  0  0  0  0
 21 47  1  0  0  0  0
 22 27  1  0  0  0  0
 22 23  1  0  0  0  0
 22 24  1  0  0  0  0
 23 48  1  0  0  0  0
 24 25  1  0  0  0  0
 24 49  1  0  0  0  0
 24 50  1  0  0  0  0
 25 26  1  0  0  0  0
 25 51  1  0  0  0  0
 25 52  1  0  0  0  0
 26 27  1  0  0  0  0
 27 28  1  0  0  0  0
 27 53  1  0  0  0  0
 28 54  1  0  0  0  0
 28 55  1  0  0  0  0
 28 56  1  0  0  0  0
M  END
> <s_m_source_file>
AV-unprocessed.smi

> <i_m_source_file_index>
171

> <i_lp_mmshare_version>
43012

> <i_f3d_flags>
0

> <s_epik_input>
W0NIM11bQ0hdKFtDSDNdKVtDSDJdW0NAQEhdMUMoPU8pW05IXVtDSDJdW0NIMl1OMWMobltjSF1uMiljKGMyMyluW2NIXW4zW0NIMl1bQ0BAXTQoW09IXSlbQ0gyXVtDSDJdT1tDQEhdNFtDSDNd

> <s_epik_cmdline>
J2VwaWtfcHl0aG9uJywgJy1waCcsICc3LjAnLCAnLXRuJywgJzgnLCAnLW1hJywgJzIwMCcsICctbWV0YWxfYmluZGluZycsICctaW1hZScsICc8aW5maWxlLm1hZT4nLCAnLW9tYWUnLCAnPG91dGZpbGUubWFlPic=

> <r_lp_tautomer_probability>
1

> <r_epik_Ionization_Penalty>
0.000670584

> <r_epik_Ionization_Penalty_Charging>
0

> <r_epik_Ionization_Penalty_Neutral>
0.000670584

> <r_epik_State_Penalty>
0.000304767

> <r_epik_Charging_Adjusted_Penalty>
0.000304767

> <i_epik_Tot_Q>
0

> <i_epik_Tot_abs_Q>
0

> <r_epik_Metal_State_Penalty>
-0

> <b_epik_Metal_Only>
0

> <s_lp_Force_Field>
OPLS_2005

> <r_lp_Energy>
47.4038

> <b_lp_Chiralities_Consistent>
1

> <s_lp_Variant>
AV-unprocessed.smi:171-2

> <Gold.Version>
5.8.1

> <Gold.Id.Protein>
6NUR|6NUR_protein|mol2

> <Gold.PLP.Fitness>
39.8027

> <Gold.PLP.PLP>
-37.6547

> <Gold.PLP.part.hbond>
-2.7817

> <Gold.PLP.part.metal>
0.0000

> <Gold.PLP.part.buried>
-3.1201

> <Gold.PLP.part.nonpolar>
-32.7763

> <Gold.PLP.part.repulsive>
0.2300

> <Gold.PLP.ligand.clash>
1.4684

> <Gold.PLP.ligand.torsion>
0.9457

> <Gold.PLP.Chemscore.Hbond>
1.7137

> <Gold.PLP.Chemscore.CHOScore>
0.0000

> <Gold.PLP.Chemscore.Metal>
0.0000

> <Gold.Chemscore.Hbonds>
donor molecule, donor type, donor heavy atom, donor atom, acceptor molecule, acceptor atom, score
      P1  H  6896  6907       L1    15  1.00
      P1  H  6934  6947       L1    18  0.07
      P1  H  7989  7998       L1     7  0.62

> <Gold.PLP.Chemscore.Internal.Correction>
0.3667

> <Gold.Rescore>
     Score         DG    S(hbond)    S(metal)    S(lipo)     H(rot)  DE(clash)    DE(int)     intcor
      9.22     -14.71       1.60        0.00      90.18       2.61       0.67       4.82       ----

> <Gold.Chemscore.Fitness>
9.2190

> <Gold.Chemscore.DG>
-14.7118

> <Gold.Chemscore.ZeroCoef>
-5.4800

> <Gold.Chemscore.Hbond>
1.6033

> <Gold.Chemscore.Metal>
0.0000

> <Gold.Chemscore.Lipo>
90.1837

> <Gold.Chemscore.Internal_Hbond>
0.0000

> <Gold.Chemscore.DEClash>
0.6731

> <Gold.Chemscore.DEInternal>
4.8197

> <Gold.Chemscore.Rot>
2.6074

> <Gold.Chemscore.Internal.Correction>
   9.000000E+99

> <Gold.Chemscore.Hbonds>
donor molecule, donor type, donor heavy atom, donor atom, acceptor molecule, acceptor atom, score
      P1  H  6896  6907       L1    15  0.90
      P1  H  7989  7998       L1     7  0.59

> <Gold.Chemscore.Hbond.Weighted>
-5.3551

> <Gold.Chemscore.Metal.Weighted>
-0.0000

> <Gold.Chemscore.Lipo.Weighted>
-10.5515

> <Gold.Chemscore.Internal_Hbond.Weighted>
0.0000

> <Gold.Chemscore.DEClash.Weighted>
0.6731

> <Gold.Chemscore.DEInternal.Weighted>
4.8197

> <Gold.Chemscore.Rot.Weighted>
6.6748

> <Gold.Chemscore.Internal.Correction.Weighted>
   9.000000E+99

> <Gold.Protein.RotatedTorsions>
[ 6907 6896 6895 6894 ] final  -56.29 input  -60.11 | X-H torsion
[ 7974 7965 7964 7962 ] final   76.46 input  175.53 | X-H torsion
[ 8008 7997 7996 7995 ] final -107.95 input   59.86 | X-H torsion
[ 10167 10162 10161 10158 ] final   89.24 input  -65.29 | X-H torsion
[ 10718 10713 10712 10709 ] final  -39.01 input   66.30 | X-H torsion
[ 10763 10752 10751 10750 ] final  110.54 input  -60.55 | X-H torsion
[ 11005 11000 10999 10996 ] final   89.31 input  -57.11 | X-H torsion

> <Gold.Protein.ActiveResidues>
 VAL166  LYS551  ARG553  GLY616  TRP617  ASP618  TYR619  PRO620  LYS621  CYS622 
 ASP623  PHE694  ASN695  SER759  ASP760  ASP761  ALA762  ILE779  LEU786  VAL792 
 PHE793  MET794  SER795  GLU796  ALA797  LYS798  CYS799  TRP800  GLU811  SER814 

> <Gold.Protein.RotatedAtoms>
  150.8180  134.7372  159.6746 H   0  0  0  0  0  0  0  0  0  0  0  0  # atno 6907 bound_to 6896
  152.4297  134.5797  159.9954 H   0  0  0  0  0  0  0  0  0  0  0  0  # atno 6908 bound_to 6896
  151.5988  133.3321  159.3079 H   0  0  0  0  0  0  0  0  0  0  0  0  # atno 6909 bound_to 6896
  145.7025  139.2587  143.1697 H   0  0  0  0  0  0  0  0  0  0  0  0  # atno 7974 bound_to 7965
  154.9369  140.0403  157.2077 H   0  0  0  0  0  0  0  0  0  0  0  0  # atno 8008 bound_to 7997
  154.8106  140.2867  155.5834 H   0  0  0  0  0  0  0  0  0  0  0  0  # atno 8009 bound_to 7997
  156.2971  140.2537  156.2994 H   0  0  0  0  0  0  0  0  0  0  0  0  # atno 8010 bound_to 7997
  139.8593  144.6552  150.9077 H   0  0  0  0  0  0  0  0  0  0  0  0  # atno 10167 bound_to 10162
  156.2973  130.4235  149.8178 H   0  0  0  0  0  0  0  0  0  0  0  0  # atno 10718 bound_to 10713
  153.4504  135.3745  155.2280 H   0  0  0  0  0  0  0  0  0  0  0  0  # atno 10763 bound_to 10752
  154.8756  135.3884  154.4045 H   0  0  0  0  0  0  0  0  0  0  0  0  # atno 10764 bound_to 10752
  153.4604  135.7086  153.6118 H   0  0  0  0  0  0  0  0  0  0  0  0  # atno 10765 bound_to 10752
  139.8878  134.8543  156.3124 H   0  0  0  0  0  0  0  0  0  0  0  0  # atno 11005 bound_to 11000
  146.0785  140.7791  142.9653 LP  0  0  0  0  0  0  0  0  0  0  0  0  # atno 17320 bound_to 7965
  144.6964  140.3452  143.7192 LP  0  0  0  0  0  0  0  0  0  0  0  0  # atno 17321 bound_to 7965
  140.7777  143.3758  151.1565 LP  0  0  0  0  0  0  0  0  0  0  0  0  # atno 17342 bound_to 10162
  139.7389  143.8955  152.3044 LP  0  0  0  0  0  0  0  0  0  0  0  0  # atno 17343 bound_to 10162
  156.5569  130.8366  151.3317 LP  0  0  0  0  0  0  0  0  0  0  0  0  # atno 17370 bound_to 10713
  157.7359  130.9769  150.2105 LP  0  0  0  0  0  0  0  0  0  0  0  0  # atno 17371 bound_to 10713
  140.9841  133.7249  156.0715 LP  0  0  0  0  0  0  0  0  0  0  0  0  # atno 17394 bound_to 11000
  140.7711  134.3831  157.5507 LP  0  0  0  0  0  0  0  0  0  0  0  0  # atno 17395 bound_to 11000

$$$$
