AV-unprocessed.smi:1196|AV-procd|sdf|5002|dock2
  -GOLD-   22720 4 13D 1   1.00000     0.00000
 Structure written by MMmdl.
 36 37  0  0  0  0  0  0  0  0  2 V2000
  150.3412  145.1737  159.6795 C   0  0  0  0  0  0  0  0  0  0  0  0
  151.0577  143.8358  159.9206 C   0  0  2  0  0  0  0  0  0  0  0  0
  152.5560  144.0447  160.2149 C   0  0  0  0  0  0  0  0  0  0  0  0
  153.2429  142.7973  160.5004 N   0  0  0  0  0  0  0  0  0  0  0  0
  153.5784  142.2648  161.7274 C   0  0  0  0  0  0  0  0  0  0  0  0
  154.2219  141.0832  161.4954 C   0  0  0  0  0  0  0  0  0  0  0  0
  154.2320  140.9774  160.0765 C   0  0  0  0  0  0  0  0  0  0  0  0
  153.6441  142.0040  159.4837 N   0  0  0  0  0  0  0  0  0  0  0  0
  150.8939  142.9633  158.7595 N   0  0  0  0  0  0  0  0  0  0  0  0
  149.7294  142.4660  158.3164 C   0  0  0  0  0  0  0  0  0  0  0  0
  148.6437  142.7272  158.8361 O   0  0  0  0  0  0  0  0  0  0  0  0
  149.8250  141.5365  157.1025 C   0  0  0  0  0  0  0  0  0  0  0  0
  151.2553  141.0405  156.8113 C   0  0  0  0  0  0  0  0  0  0  0  0
  151.5031  140.7587  155.3145 C   0  0  1  0  0  0  0  0  0  0  0  0
  152.6008  139.8264  155.1231 N   0  5  0  0  0  0  0  0  0  0  0  0
  152.1340  138.7445  154.4560 C   0  0  0  0  0  0  0  0  0  0  0  0
  152.7629  137.7484  154.1062 O   0  0  0  0  0  0  0  0  0  0  0  0
  150.8281  138.8737  154.1997 N   0  0  0  0  0  0  0  0  0  0  0  0
  150.3457  140.0187  154.6714 C   0  0  0  0  0  0  0  0  0  0  0  0
  149.1856  140.4235  154.6095 O   0  0  0  0  0  0  0  0  0  0  0  0
  150.4431  145.8322  160.5422 H   0  0  0  0  0  0  0  0  0  0  0  0
  149.2747  145.0267  159.5061 H   0  0  0  0  0  0  0  0  0  0  0  0
  150.7512  145.6937  158.8130 H   0  0  0  0  0  0  0  0  0  0  0  0
  150.6044  143.3605  160.7927 H   0  0  0  0  0  0  0  0  0  0  0  0
  153.0500  144.5314  159.3726 H   0  0  0  0  0  0  0  0  0  0  0  0
  152.6822  144.7068  161.0728 H   0  0  0  0  0  0  0  0  0  0  0  0
  153.3379  142.7679  162.6522 H   0  0  0  0  0  0  0  0  0  0  0  0
  154.6259  140.4001  162.2276 H   0  0  0  0  0  0  0  0  0  0  0  0
  154.6462  140.1902  159.4640 H   0  0  0  0  0  0  0  0  0  0  0  0
  151.7348  142.6969  158.2683 H   0  0  0  0  0  0  0  0  0  0  0  0
  149.1652  140.6839  157.2659 H   0  0  0  0  0  0  0  0  0  0  0  0
  149.4367  142.0709  156.2344 H   0  0  0  0  0  0  0  0  0  0  0  0
  151.9830  141.7667  157.1792 H   0  0  0  0  0  0  0  0  0  0  0  0
  151.4297  140.1243  157.3784 H   0  0  0  0  0  0  0  0  0  0  0  0
  151.6520  141.6957  154.7761 H   0  0  0  0  0  0  0  0  0  0  0  0
  150.2750  138.1810  153.7178 H   0  0  0  0  0  0  0  0  0  0  0  0
  1  2  1  0  0  0  0
  1 21  1  0  0  0  0
  1 22  1  0  0  0  0
  1 23  1  0  0  0  0
  2  3  1  0  0  0  0
  2  9  1  0  0  0  0
  2 24  1  0  0  0  0
  3  4  1  0  0  0  0
  3 25  1  0  0  0  0
  3 26  1  0  0  0  0
  4  8  1  0  0  0  0
  4  5  1  0  0  0  0
  5  6  2  0  0  0  0
  5 27  1  0  0  0  0
  6  7  1  0  0  0  0
  6 28  1  0  0  0  0
  7  8  2  0  0  0  0
  7 29  1  0  0  0  0
  9 10  1  0  0  0  0
  9 30  1  0  0  0  0
 10 11  2  0  0  0  0
 10 12  1  0  0  0  0
 12 13  1  0  0  0  0
 12 31  1  0  0  0  0
 12 32  1  0  0  0  0
 13 14  1  0  0  0  0
 13 33  1  0  0  0  0
 13 34  1  0  0  0  0
 14 19  1  0  0  0  0
 14 15  1  0  0  0  0
 14 35  1  0  0  0  0
 15 16  1  0  0  0  0
 16 17  2  0  0  0  0
 16 18  1  0  0  0  0
 18 19  1  0  0  0  0
 18 36  1  0  0  0  0
 19 20  2  0  0  0  0
M  CHG  1  15  -1
M  END
> <s_m_source_file>
AV-unprocessed.smi

> <i_m_source_file_index>
1196

> <i_lp_mmshare_version>
43012

> <i_f3d_flags>
0

> <s_epik_input>
bjFbY0hdW2NIXVtjSF1uMVtDSDJdW0NAQEhdKFtDSDNdKVtOSF1DKD1PKVtDSDJdW0NIMl1bQ0BASF0yW05IXUMoPU8pW05IXUMyPU8=

> <s_epik_cmdline>
J2VwaWtfcHl0aG9uJywgJy1waCcsICc3LjAnLCAnLXRuJywgJzgnLCAnLW1hJywgJzIwMCcsICctbWV0YWxfYmluZGluZycsICctaW1hZScsICc8aW5maWxlLm1hZT4nLCAnLW9tYWUnLCAnPG91dGZpbGUubWFlPic=

> <r_lp_tautomer_probability>
1

> <r_epik_Ionization_Penalty>
5.79547

> <r_epik_Ionization_Penalty_Charging>
5.79516

> <r_epik_Ionization_Penalty_Neutral>
0.000313087

> <r_epik_State_Penalty>
5.80096

> <r_epik_Charging_Adjusted_Penalty>
11.5961

> <i_epik_Tot_Q>
-1

> <i_epik_Tot_abs_Q>
1

> <r_epik_Metal_State_Penalty>
2.14443

> <b_epik_Metal_Only>
1

> <s_lp_Force_Field>
OPLS_2005

> <r_lp_Energy>
10.7967

> <b_lp_Chiralities_Consistent>
1

> <s_lp_Variant>
AV-unprocessed.smi:1196-7

> <Gold.Version>
5.8.1

> <Gold.Id.Protein>
6NUR|6NUR_protein|mol2

> <Gold.PLP.Fitness>
45.5112

> <Gold.PLP.PLP>
-39.6464

> <Gold.PLP.part.hbond>
-2.6337

> <Gold.PLP.part.metal>
0.0000

> <Gold.PLP.part.buried>
-5.6471

> <Gold.PLP.part.nonpolar>
-30.5852

> <Gold.PLP.part.repulsive>
0.4814

> <Gold.PLP.ligand.clash>
0.0000

> <Gold.PLP.ligand.torsion>
0.8801

> <Gold.PLP.Chemscore.Hbond>
2.5120

> <Gold.PLP.Chemscore.CHOScore>
0.0000

> <Gold.PLP.Chemscore.Metal>
0.0000

> <Gold.Chemscore.Hbonds>
donor molecule, donor type, donor heavy atom, donor atom, acceptor molecule, acceptor atom, score
      P1  H  7997  8008       L1    15  1.72
      P1  H 10752 10764       L1    17  0.29

> <Gold.PLP.Chemscore.Internal.Correction>
0.0889

> <Gold.Rescore>
     Score         DG    S(hbond)    S(metal)    S(lipo)     H(rot)  DE(clash)    DE(int)     intcor
     10.03     -12.17       1.51        0.00      77.42       2.89       0.01       2.13       ----

> <Gold.Chemscore.Fitness>
10.0301

> <Gold.Chemscore.DG>
-12.1665

> <Gold.Chemscore.ZeroCoef>
-5.4800

> <Gold.Chemscore.Hbond>
1.5084

> <Gold.Chemscore.Metal>
0.0000

> <Gold.Chemscore.Lipo>
77.4223

> <Gold.Chemscore.Internal_Hbond>
0.0000

> <Gold.Chemscore.DEClash>
0.0081

> <Gold.Chemscore.DEInternal>
2.1283

> <Gold.Chemscore.Rot>
2.8946

> <Gold.Chemscore.Internal.Correction>
   9.000000E+99

> <Gold.Chemscore.Hbonds>
donor molecule, donor type, donor heavy atom, donor atom, acceptor molecule, acceptor atom, score
      P1  H  7997  8008       L1    15  0.79
      P1  H 10752 10764       L1    17  0.28

> <Gold.Chemscore.Hbond.Weighted>
-5.0382

> <Gold.Chemscore.Metal.Weighted>
-0.0000

> <Gold.Chemscore.Lipo.Weighted>
-9.0584

> <Gold.Chemscore.Internal_Hbond.Weighted>
0.0000

> <Gold.Chemscore.DEClash.Weighted>
0.0081

> <Gold.Chemscore.DEInternal.Weighted>
2.1283

> <Gold.Chemscore.Rot.Weighted>
7.4101

> <Gold.Chemscore.Internal.Correction.Weighted>
   9.000000E+99

> <Gold.Protein.RotatedTorsions>
[ 6907 6896 6895 6894 ] final -131.73 input  -60.11 | X-H torsion
[ 7974 7965 7964 7962 ] final    6.03 input  175.53 | X-H torsion
[ 8008 7997 7996 7995 ] final  -37.35 input   59.86 | X-H torsion
[ 10167 10162 10161 10158 ] final  -49.97 input  -65.29 | X-H torsion
[ 10718 10713 10712 10709 ] final  171.73 input   66.30 | X-H torsion
[ 10763 10752 10751 10750 ] final  -68.64 input  -60.55 | X-H torsion
[ 11005 11000 10999 10996 ] final  128.63 input  -57.11 | X-H torsion

> <Gold.Protein.ActiveResidues>
 VAL166  LYS551  ARG553  GLY616  TRP617  ASP618  TYR619  PRO620  LYS621  CYS622 
 ASP623  PHE694  ASN695  SER759  ASP760  ASP761  ALA762  ILE779  LEU786  VAL792 
 PHE793  MET794  SER795  GLU796  ALA797  LYS798  CYS799  TRP800  GLU811  SER814 

> <Gold.Protein.RotatedAtoms>
  150.9542  133.6515  159.2765 H   0  0  0  0  0  0  0  0  0  0  0  0  # atno 6907 bound_to 6896
  151.3860  135.0947  159.9521 H   0  0  0  0  0  0  0  0  0  0  0  0  # atno 6908 bound_to 6896
  152.5122  133.9067  159.7522 H   0  0  0  0  0  0  0  0  0  0  0  0  # atno 6909 bound_to 6896
  146.2437  140.0294  142.8391 H   0  0  0  0  0  0  0  0  0  0  0  0  # atno 7974 bound_to 7965
  154.4055  140.1606  156.2522 H   0  0  0  0  0  0  0  0  0  0  0  0  # atno 8008 bound_to 7997
  155.9109  140.3427  155.6075 H   0  0  0  0  0  0  0  0  0  0  0  0  # atno 8009 bound_to 7997
  155.7337  140.0783  157.2268 H   0  0  0  0  0  0  0  0  0  0  0  0  # atno 8010 bound_to 7997
  140.6660  143.2676  151.4292 H   0  0  0  0  0  0  0  0  0  0  0  0  # atno 10167 bound_to 10162
  156.9893  131.0143  151.2861 H   0  0  0  0  0  0  0  0  0  0  0  0  # atno 10718 bound_to 10713
  154.3919  135.6051  153.5848 H   0  0  0  0  0  0  0  0  0  0  0  0  # atno 10763 bound_to 10752
  152.9787  135.5885  154.4287 H   0  0  0  0  0  0  0  0  0  0  0  0  # atno 10764 bound_to 10752
  154.4073  135.2843  155.2037 H   0  0  0  0  0  0  0  0  0  0  0  0  # atno 10765 bound_to 10752
  139.9571  134.9610  156.9030 H   0  0  0  0  0  0  0  0  0  0  0  0  # atno 11005 bound_to 11000
  145.1168  140.9439  143.4624 LP  0  0  0  0  0  0  0  0  0  0  0  0  # atno 17320 bound_to 7965
  145.0521  139.3173  143.5923 LP  0  0  0  0  0  0  0  0  0  0  0  0  # atno 17321 bound_to 7965
  139.5909  144.1502  152.2086 LP  0  0  0  0  0  0  0  0  0  0  0  0  # atno 17342 bound_to 10162
  140.0856  144.5664  150.7091 LP  0  0  0  0  0  0  0  0  0  0  0  0  # atno 17343 bound_to 10162
  157.5470  130.8157  149.8098 LP  0  0  0  0  0  0  0  0  0  0  0  0  # atno 17370 bound_to 10713
  156.0213  130.3794  150.1953 LP  0  0  0  0  0  0  0  0  0  0  0  0  # atno 17371 bound_to 10713
  140.5585  134.0558  155.7391 LP  0  0  0  0  0  0  0  0  0  0  0  0  # atno 17394 bound_to 11000
  141.1244  133.9408  157.2666 LP  0  0  0  0  0  0  0  0  0  0  0  0  # atno 17395 bound_to 11000

$$$$
