AV-unprocessed.smi:2749|AV-procd|sdf|10587|dock5
  -GOLD-   2272015 33D 1   1.00000     0.00000
 Structure written by MMmdl.
 32 34  0  0  0  0  0  0  0  0  1 V2000
  149.8075  140.8276  157.7218 O   0  0  0  0  0  0  0  0  0  0  0  0
  149.5357  141.9866  157.4132 C   0  0  0  0  0  0  0  0  0  0  0  0
  150.0212  143.0303  158.1186 N   0  0  0  0  0  0  0  0  0  0  0  0
  150.8620  143.0748  159.2694 C   0  0  0  0  0  0  0  0  0  0  0  0
  151.7818  142.0055  159.3670 C   0  0  0  0  0  0  0  0  0  0  0  0
  152.6547  141.9362  160.4703 C   0  0  0  0  0  0  0  0  0  0  0  0
  152.5808  142.9382  161.4538 C   0  0  0  0  0  0  0  0  0  0  0  0
  153.3985  142.9140  162.5327 F   0  0  0  0  0  0  0  0  0  0  0  0
  151.6344  143.9655  161.2879 C   0  0  0  0  0  0  0  0  0  0  0  0
  150.7987  144.0330  160.2298 N   0  0  0  0  0  0  0  0  0  0  0  0
  148.7583  142.2946  156.3633 N   0  0  0  0  0  0  0  0  0  0  0  0
  148.0991  141.3302  155.4890 C   0  0  2  0  0  0  0  0  0  0  0  0
  148.2998  141.6719  154.0098 C   0  0  0  0  0  0  0  0  0  0  0  0
  146.8543  141.8259  153.5185 C   0  0  2  0  0  0  0  0  0  0  0  0
  146.2031  143.1142  154.0418 C   0  0  0  0  0  0  0  0  0  0  0  0
  145.9546  142.7656  155.5082 C   0  0  0  0  0  0  0  0  0  0  0  0
  146.5604  141.3545  155.6012 C   0  0  1  0  0  0  0  0  0  0  0  0
  146.2051  140.8558  154.3224 O   0  0  0  0  0  0  0  0  0  0  0  0
  149.7949  143.9356  157.7332 H   0  0  0  0  0  0  0  0  0  0  0  0
  151.8232  141.2422  158.6032 H   0  0  0  0  0  0  0  0  0  0  0  0
  153.3661  141.1286  160.5594 H   0  0  0  0  0  0  0  0  0  0  0  0
  151.5443  144.7532  162.0212 H   0  0  0  0  0  0  0  0  0  0  0  0
  148.5845  143.2724  156.1776 H   0  0  0  0  0  0  0  0  0  0  0  0
  148.4751  140.3235  155.6810 H   0  0  0  0  0  0  0  0  0  0  0  0
  148.8892  142.5746  153.8415 H   0  0  0  0  0  0  0  0  0  0  0  0
  148.7939  140.8468  153.4956 H   0  0  0  0  0  0  0  0  0  0  0  0
  146.7346  141.6745  152.4455 H   0  0  0  0  0  0  0  0  0  0  0  0
  146.8497  143.9837  153.9175 H   0  0  0  0  0  0  0  0  0  0  0  0
  145.2605  143.3116  153.5305 H   0  0  0  0  0  0  0  0  0  0  0  0
  146.4011  143.4799  156.2003 H   0  0  0  0  0  0  0  0  0  0  0  0
  144.8836  142.7320  155.7105 H   0  0  0  0  0  0  0  0  0  0  0  0
  146.1712  140.7645  156.4313 H   0  0  0  0  0  0  0  0  0  0  0  0
  1  2  2  0  0  0  0
  2  3  1  0  0  0  0
  2 11  1  0  0  0  0
  3  4  1  0  0  0  0
  3 19  1  0  0  0  0
  4 10  1  0  0  0  0
  4  5  2  0  0  0  0
  5  6  1  0  0  0  0
  5 20  1  0  0  0  0
  6  7  2  0  0  0  0
  6 21  1  0  0  0  0
  7  8  1  0  0  0  0
  7  9  1  0  0  0  0
  9 10  2  0  0  0  0
  9 22  1  0  0  0  0
 11 12  1  0  0  0  0
 11 23  1  0  0  0  0
 12 17  1  0  0  0  0
 12 13  1  0  0  0  0
 12 24  1  0  0  0  0
 13 14  1  0  0  0  0
 13 25  1  0  0  0  0
 13 26  1  0  0  0  0
 14 18  1  0  0  0  0
 14 15  1  0  0  0  0
 14 27  1  0  0  0  0
 15 16  1  0  0  0  0
 15 28  1  0  0  0  0
 15 29  1  0  0  0  0
 16 17  1  0  0  0  0
 16 30  1  0  0  0  0
 16 31  1  0  0  0  0
 17 18  1  0  0  0  0
 17 32  1  0  0  0  0
M  END
> <s_m_source_file>
AV-unprocessed.smi

> <i_m_source_file_index>
2749

> <i_lp_mmshare_version>
43012

> <i_f3d_flags>
0

> <s_epik_input>
W0NIMl0xW0NIMl1bQ0BIXShPMilbQ0BASF0oW0NIMl1bQ0BASF0xMilbTkhdQyg9TylbTkhdYzNbY0hdW2NIXWMoRilbY0hdbjM=

> <s_epik_cmdline>
J2VwaWtfcHl0aG9uJywgJy1waCcsICc3LjAnLCAnLXRuJywgJzgnLCAnLW1hJywgJzIwMCcsICctbWV0YWxfYmluZGluZycsICctaW1hZScsICc8aW5maWxlLm1hZT4nLCAnLW9tYWUnLCAnPG91dGZpbGUubWFlPic=

> <r_lp_tautomer_probability>
1

> <r_epik_Ionization_Penalty>
3.37159e-05

> <r_epik_Ionization_Penalty_Charging>
0

> <r_epik_Ionization_Penalty_Neutral>
3.37159e-05

> <r_epik_State_Penalty>
-0

> <r_epik_Charging_Adjusted_Penalty>
0

> <i_epik_Tot_Q>
0

> <i_epik_Tot_abs_Q>
0

> <r_epik_Metal_State_Penalty>
-0

> <b_epik_Metal_Only>
0

> <s_lp_Force_Field>
OPLS_2005

> <r_lp_Energy>
40.3406

> <b_lp_Chiralities_Consistent>
1

> <s_lp_Variant>
AV-unprocessed.smi:2749-3

> <Gold.Version>
5.8.1

> <Gold.Id.Protein>
6NUR|6NUR_protein|mol2

> <Gold.PLP.Fitness>
37.2376

> <Gold.PLP.PLP>
-34.4684

> <Gold.PLP.part.hbond>
-1.4926

> <Gold.PLP.part.metal>
0.0000

> <Gold.PLP.part.buried>
-5.3333

> <Gold.PLP.part.nonpolar>
-27.8232

> <Gold.PLP.part.repulsive>
0.3757

> <Gold.PLP.ligand.clash>
0.0000

> <Gold.PLP.ligand.torsion>
0.3005

> <Gold.PLP.Chemscore.Hbond>
1.1170

> <Gold.PLP.Chemscore.CHOScore>
0.0000

> <Gold.PLP.Chemscore.Metal>
0.0000

> <Gold.Chemscore.Hbonds>
donor molecule, donor type, donor heavy atom, donor atom, acceptor molecule, acceptor atom, score
      L1  H     3    19       P1  8028  0.11
      L1  H    11    23       P1  8028  1.00

> <Gold.PLP.Chemscore.Internal.Correction>
0.0193

> <Gold.Rescore>
     Score         DG    S(hbond)    S(metal)    S(lipo)     H(rot)  DE(clash)    DE(int)     intcor
     14.81     -17.42       1.56        0.00      79.50       1.00       1.00       1.62       ----

> <Gold.Chemscore.Fitness>
14.8105

> <Gold.Chemscore.DG>
-17.4243

> <Gold.Chemscore.ZeroCoef>
-5.4800

> <Gold.Chemscore.Hbond>
1.5576

> <Gold.Chemscore.Metal>
0.0000

> <Gold.Chemscore.Lipo>
79.5045

> <Gold.Chemscore.Internal_Hbond>
0.0000

> <Gold.Chemscore.DEClash>
0.9976

> <Gold.Chemscore.DEInternal>
1.6162

> <Gold.Chemscore.Rot>
1.0000

> <Gold.Chemscore.Internal.Correction>
   9.000000E+99

> <Gold.Chemscore.Hbonds>
donor molecule, donor type, donor heavy atom, donor atom, acceptor molecule, acceptor atom, score
      L1  H     3    19       P1  8028  0.05
      L1  H    11    23       P1  8028  0.88

> <Gold.Chemscore.Hbond.Weighted>
-5.2023

> <Gold.Chemscore.Metal.Weighted>
-0.0000

> <Gold.Chemscore.Lipo.Weighted>
-9.3020

> <Gold.Chemscore.Internal_Hbond.Weighted>
0.0000

> <Gold.Chemscore.DEClash.Weighted>
0.9976

> <Gold.Chemscore.DEInternal.Weighted>
1.6162

> <Gold.Chemscore.Rot.Weighted>
2.5600

> <Gold.Chemscore.Internal.Correction.Weighted>
   9.000000E+99

> <Gold.Protein.RotatedTorsions>
[ 6907 6896 6895 6894 ] final   23.11 input  -60.11 | X-H torsion
[ 7974 7965 7964 7962 ] final   20.12 input  175.53 | X-H torsion
[ 8008 7997 7996 7995 ] final  127.96 input   59.86 | X-H torsion
[ 10167 10162 10161 10158 ] final  -62.17 input  -65.29 | X-H torsion
[ 10718 10713 10712 10709 ] final  168.97 input   66.30 | X-H torsion
[ 10763 10752 10751 10750 ] final   24.25 input  -60.55 | X-H torsion
[ 11005 11000 10999 10996 ] final   82.91 input  -57.11 | X-H torsion

> <Gold.Protein.ActiveResidues>
 VAL166  LYS551  ARG553  GLY616  TRP617  ASP618  TYR619  PRO620  LYS621  CYS622 
 ASP623  PHE694  ASN695  SER759  ASP760  ASP761  ALA762  ILE779  LEU786  VAL792 
 PHE793  MET794  SER795  GLU796  ALA797  LYS798  CYS799  TRP800  GLU811  SER814 

> <Gold.Protein.RotatedAtoms>
  151.9373  135.0229  160.0533 H   0  0  0  0  0  0  0  0  0  0  0  0  # atno 6907 bound_to 6896
  152.2067  133.4876  159.5096 H   0  0  0  0  0  0  0  0  0  0  0  0  # atno 6908 bound_to 6896
  150.6966  134.1437  159.4157 H   0  0  0  0  0  0  0  0  0  0  0  0  # atno 6909 bound_to 6896
  146.2123  139.8215  142.8679 H   0  0  0  0  0  0  0  0  0  0  0  0  # atno 7974 bound_to 7965
  156.2903  140.2656  156.2358 H   0  0  0  0  0  0  0  0  0  0  0  0  # atno 8008 bound_to 7997
  155.0026  140.0387  157.2385 H   0  0  0  0  0  0  0  0  0  0  0  0  # atno 8009 bound_to 7997
  154.7588  140.2757  155.6236 H   0  0  0  0  0  0  0  0  0  0  0  0  # atno 8010 bound_to 7997
  140.5957  143.2350  151.6041 H   0  0  0  0  0  0  0  0  0  0  0  0  # atno 10167 bound_to 10162
  157.0294  131.0255  151.2749 H   0  0  0  0  0  0  0  0  0  0  0  0  # atno 10718 bound_to 10713
  153.0778  135.6609  154.0109 H   0  0  0  0  0  0  0  0  0  0  0  0  # atno 10763 bound_to 10752
  153.9739  135.2962  155.3427 H   0  0  0  0  0  0  0  0  0  0  0  0  # atno 10764 bound_to 10752
  154.7170  135.5181  153.8824 H   0  0  0  0  0  0  0  0  0  0  0  0  # atno 10765 bound_to 10752
  139.9048  134.8106  156.2238 H   0  0  0  0  0  0  0  0  0  0  0  0  # atno 11005 bound_to 11000
  145.3092  141.0215  143.3564 LP  0  0  0  0  0  0  0  0  0  0  0  0  # atno 17320 bound_to 7965
  144.8949  139.4726  143.6660 LP  0  0  0  0  0  0  0  0  0  0  0  0  # atno 17321 bound_to 7965
  139.5257  144.3068  152.1027 LP  0  0  0  0  0  0  0  0  0  0  0  0  # atno 17342 bound_to 10162
  140.2240  144.4437  150.6329 LP  0  0  0  0  0  0  0  0  0  0  0  0  # atno 17343 bound_to 10162
  157.5189  130.7985  149.7787 LP  0  0  0  0  0  0  0  0  0  0  0  0  # atno 17370 bound_to 10713
  156.0075  130.3849  150.2381 LP  0  0  0  0  0  0  0  0  0  0  0  0  # atno 17371 bound_to 10713
  141.0388  133.6948  156.1561 LP  0  0  0  0  0  0  0  0  0  0  0  0  # atno 17394 bound_to 11000
  140.6986  134.4588  157.5587 LP  0  0  0  0  0  0  0  0  0  0  0  0  # atno 17395 bound_to 11000

$$$$
