AV-unprocessed.smi:1554|AV-procd|sdf|6243|dock6
  -GOLD-   22720 6423D 1   1.00000     0.00000
 Structure written by MMmdl.
 47 49  0  0  0  0  0  0  0  0  1 V2000
  154.9008  140.8715  163.0306 C   0  0  0  0  0  0  0  0  0  0  0  0
  154.0402  141.1547  161.8118 C   0  0  0  0  0  0  0  0  0  0  0  0
  154.1116  140.2823  160.7024 C   0  0  0  0  0  0  0  0  0  0  0  0
  153.3266  140.5093  159.5506 C   0  0  0  0  0  0  0  0  0  0  0  0
  153.2359  139.7930  158.3693 N   0  0  0  0  0  0  0  0  0  0  0  0
  152.3402  140.5057  157.6923 C   0  0  0  0  0  0  0  0  0  0  0  0
  151.8406  141.6017  158.2948 N   0  0  0  0  0  0  0  0  0  0  0  0
  150.8634  142.5280  157.7502 C   0  0  0  0  0  0  0  0  0  0  0  0
  149.5759  141.8246  157.2796 C   0  0  1  0  0  0  0  0  0  0  0  0
  148.5121  142.7564  157.2655 O   0  0  0  0  0  0  0  0  0  0  0  0
  149.7366  141.2487  155.8585 C   0  0  0  0  0  0  0  0  0  0  0  0
  150.4384  139.9666  155.7697 N   0  0  0  0  0  0  0  0  0  0  0  0
  150.4410  139.4136  154.4168 C   0  0  0  0  0  0  0  0  0  0  0  0
  151.1539  138.0519  154.3554 C   0  0  0  0  0  0  0  0  0  0  0  0
  150.5468  137.1509  155.2753 O   0  0  0  0  0  0  0  0  0  0  0  0
  150.5687  137.6285  156.6172 C   0  0  2  0  0  0  0  0  0  0  0  0
  149.9025  136.5794  157.5136 C   0  0  0  0  0  0  0  0  0  0  0  0
  149.8468  138.9887  156.6768 C   0  0  0  0  0  0  0  0  0  0  0  0
  152.4649  141.6449  159.5368 C   0  0  0  0  0  0  0  0  0  0  0  0
  152.3846  142.5195  160.6348 C   0  0  0  0  0  0  0  0  0  0  0  0
  153.1714  142.2750  161.7797 C   0  0  0  0  0  0  0  0  0  0  0  0
  153.0708  143.2218  162.9626 C   0  0  0  0  0  0  0  0  0  0  0  0
  155.5754  140.0331  162.8549 H   0  0  0  0  0  0  0  0  0  0  0  0
  154.2752  140.6255  163.8888 H   0  0  0  0  0  0  0  0  0  0  0  0
  155.5092  141.7402  163.2822 H   0  0  0  0  0  0  0  0  0  0  0  0
  154.7712  139.4275  160.7275 H   0  0  0  0  0  0  0  0  0  0  0  0
  152.0296  140.2154  156.6993 H   0  0  0  0  0  0  0  0  0  0  0  0
  150.6362  143.2807  158.5063 H   0  0  0  0  0  0  0  0  0  0  0  0
  151.3268  143.0570  156.9165 H   0  0  0  0  0  0  0  0  0  0  0  0
  149.3362  141.0366  157.9925 H   0  0  0  0  0  0  0  0  0  0  0  0
  148.6738  143.3808  156.5743 H   0  0  0  0  0  0  0  0  0  0  0  0
  148.7405  141.1430  155.4257 H   0  0  0  0  0  0  0  0  0  0  0  0
  150.2524  141.9790  155.2331 H   0  0  0  0  0  0  0  0  0  0  0  0
  149.4159  139.3001  154.0611 H   0  0  0  0  0  0  0  0  0  0  0  0
  150.9391  140.0925  153.7264 H   0  0  0  0  0  0  0  0  0  0  0  0
  151.0873  137.6341  153.3507 H   0  0  0  0  0  0  0  0  0  0  0  0
  152.2144  138.1606  154.5877 H   0  0  0  0  0  0  0  0  0  0  0  0
  151.6066  137.7509  156.9322 H   0  0  0  0  0  0  0  0  0  0  0  0
  149.9043  136.8961  158.5569 H   0  0  0  0  0  0  0  0  0  0  0  0
  150.4282  135.6262  157.4549 H   0  0  0  0  0  0  0  0  0  0  0  0
  148.8674  136.4078  157.2173 H   0  0  0  0  0  0  0  0  0  0  0  0
  149.8808  139.3684  157.6989 H   0  0  0  0  0  0  0  0  0  0  0  0
  148.7923  138.8503  156.4317 H   0  0  0  0  0  0  0  0  0  0  0  0
  151.7178  143.3682  160.5966 H   0  0  0  0  0  0  0  0  0  0  0  0
  152.3163  143.9905  162.7933 H   0  0  0  0  0  0  0  0  0  0  0  0
  154.0249  143.7202  163.1345 H   0  0  0  0  0  0  0  0  0  0  0  0
  152.7956  142.6775  163.8662 H   0  0  0  0  0  0  0  0  0  0  0  0
  1  2  1  0  0  0  0
  1 23  1  0  0  0  0
  1 24  1  0  0  0  0
  1 25  1  0  0  0  0
  2 21  1  0  0  0  0
  2  3  2  0  0  0  0
  3  4  1  0  0  0  0
  3 26  1  0  0  0  0
  4 19  2  0  0  0  0
  4  5  1  0  0  0  0
  5  6  2  0  0  0  0
  6  7  1  0  0  0  0
  6 27  1  0  0  0  0
  7  8  1  0  0  0  0
  7 19  1  0  0  0  0
  8  9  1  0  0  0  0
  8 28  1  0  0  0  0
  8 29  1  0  0  0  0
  9 10  1  0  0  0  0
  9 11  1  0  0  0  0
  9 30  1  0  0  0  0
 10 31  1  0  0  0  0
 11 12  1  0  0  0  0
 11 32  1  0  0  0  0
 11 33  1  0  0  0  0
 12 18  1  0  0  0  0
 12 13  1  0  0  0  0
 13 14  1  0  0  0  0
 13 34  1  0  0  0  0
 13 35  1  0  0  0  0
 14 15  1  0  0  0  0
 14 36  1  0  0  0  0
 14 37  1  0  0  0  0
 15 16  1  0  0  0  0
 16 17  1  0  0  0  0
 16 18  1  0  0  0  0
 16 38  1  0  0  0  0
 17 39  1  0  0  0  0
 17 40  1  0  0  0  0
 17 41  1  0  0  0  0
 18 42  1  0  0  0  0
 18 43  1  0  0  0  0
 19 20  1  0  0  0  0
 20 21  2  0  0  0  0
 20 44  1  0  0  0  0
 21 22  1  0  0  0  0
 22 45  1  0  0  0  0
 22 46  1  0  0  0  0
 22 47  1  0  0  0  0
M  END
> <s_m_source_file>
AV-unprocessed.smi

> <i_m_source_file_index>
1554

> <i_lp_mmshare_version>
43012

> <i_f3d_flags>
0

> <s_epik_input>
W0NIM11jKFtjSF0xKWMoW0NIM10pW2NIXWMoYzEyKW4oW2NIXW4yKVtDSDJdW0NASF0oW09IXSlbQ0gyXU4zW0NIMl1bQ0gyXU9bQ0BASF0oW0NIM10pW0NIMl0z

> <s_epik_cmdline>
J2VwaWtfcHl0aG9uJywgJy1waCcsICc3LjAnLCAnLXRuJywgJzgnLCAnLW1hJywgJzIwMCcsICctbWV0YWxfYmluZGluZycsICctaW1hZScsICc8aW5maWxlLm1hZT4nLCAnLW9tYWUnLCAnPG91dGZpbGUubWFlPic=

> <r_epik_Ionization_Penalty>
0.345108

> <r_epik_Ionization_Penalty_Charging>
0

> <r_epik_Ionization_Penalty_Neutral>
0.345108

> <r_epik_State_Penalty>
0.314544

> <r_epik_Charging_Adjusted_Penalty>
0.314544

> <i_epik_Tot_Q>
0

> <i_epik_Tot_abs_Q>
0

> <r_epik_Metal_State_Penalty>
0.239719

> <b_epik_Metal_Only>
0

> <s_lp_Force_Field>
OPLS_2005

> <r_lp_Energy>
29.2504

> <b_lp_Chiralities_Consistent>
1

> <s_lp_Variant>
AV-unprocessed.smi:1554-4

> <Gold.Version>
5.8.1

> <Gold.Id.Protein>
6NUR|6NUR_protein|mol2

> <Gold.PLP.Fitness>
45.7442

> <Gold.PLP.PLP>
-40.7127

> <Gold.PLP.part.hbond>
-2.0547

> <Gold.PLP.part.metal>
0.0000

> <Gold.PLP.part.buried>
-1.2834

> <Gold.PLP.part.nonpolar>
-36.5042

> <Gold.PLP.part.repulsive>
0.1296

> <Gold.PLP.ligand.clash>
0.0000

> <Gold.PLP.ligand.torsion>
0.4900

> <Gold.PLP.Chemscore.Hbond>
2.0000

> <Gold.PLP.Chemscore.CHOScore>
0.0000

> <Gold.PLP.Chemscore.Metal>
0.0000

> <Gold.Chemscore.Hbonds>
donor molecule, donor type, donor heavy atom, donor atom, acceptor molecule, acceptor atom, score
      L1  H    10    31       P1  8028  1.00
      P1  H  7997  8010       L1     5  0.90

> <Gold.PLP.Chemscore.Internal.Correction>
0.0115

> <Gold.Rescore>
     Score         DG    S(hbond)    S(metal)    S(lipo)     H(rot)  DE(clash)    DE(int)     intcor
     16.22     -18.41       1.25        0.00     118.15       1.98       0.29       1.90       ----

> <Gold.Chemscore.Fitness>
16.2182

> <Gold.Chemscore.DG>
-18.4069

> <Gold.Chemscore.ZeroCoef>
-5.4800

> <Gold.Chemscore.Hbond>
1.2527

> <Gold.Chemscore.Metal>
0.0000

> <Gold.Chemscore.Lipo>
118.1522

> <Gold.Chemscore.Internal_Hbond>
0.0000

> <Gold.Chemscore.DEClash>
0.2858

> <Gold.Chemscore.DEInternal>
1.9029

> <Gold.Chemscore.Rot>
1.9848

> <Gold.Chemscore.Internal.Correction>
   9.000000E+99

> <Gold.Chemscore.Hbonds>
donor molecule, donor type, donor heavy atom, donor atom, acceptor molecule, acceptor atom, score
      L1  H    10    31       P1  8028  0.74
      P1  H  7997  8010       L1     5  0.15

> <Gold.Chemscore.Hbond.Weighted>
-4.1841

> <Gold.Chemscore.Metal.Weighted>
-0.0000

> <Gold.Chemscore.Lipo.Weighted>
-13.8238

> <Gold.Chemscore.Internal_Hbond.Weighted>
0.0000

> <Gold.Chemscore.DEClash.Weighted>
0.2858

> <Gold.Chemscore.DEInternal.Weighted>
1.9029

> <Gold.Chemscore.Rot.Weighted>
5.0810

> <Gold.Chemscore.Internal.Correction.Weighted>
   9.000000E+99

> <Gold.Protein.RotatedTorsions>
[ 6907 6896 6895 6894 ] final  -34.61 input  -60.11 | X-H torsion
[ 7974 7965 7964 7962 ] final -173.31 input  175.53 | X-H torsion
[ 8008 7997 7996 7995 ] final   21.09 input   59.86 | X-H torsion
[ 10167 10162 10161 10158 ] final   -0.86 input  -65.29 | X-H torsion
[ 10718 10713 10712 10709 ] final  -75.18 input   66.30 | X-H torsion
[ 10763 10752 10751 10750 ] final   36.48 input  -60.55 | X-H torsion
[ 11005 11000 10999 10996 ] final  110.45 input  -57.11 | X-H torsion

> <Gold.Protein.ActiveResidues>
 VAL166  LYS551  ARG553  GLY616  TRP617  ASP618  TYR619  PRO620  LYS621  CYS622 
 ASP623  PHE694  ASN695  SER759  ASP760  ASP761  ALA762  ILE779  LEU786  VAL792 
 PHE793  MET794  SER795  GLU796  ALA797  LYS798  CYS799  TRP800  GLU811  SER814 

> <Gold.Protein.RotatedAtoms>
  151.0504  134.9669  159.8208 H   0  0  0  0  0  0  0  0  0  0  0  0  # atno 6907 bound_to 6896
  152.5380  134.2544  159.8921 H   0  0  0  0  0  0  0  0  0  0  0  0  # atno 6908 bound_to 6896
  151.2560  133.4283  159.2647 H   0  0  0  0  0  0  0  0  0  0  0  0  # atno 6909 bound_to 6896
  144.7139  140.1641  143.6373 H   0  0  0  0  0  0  0  0  0  0  0  0  # atno 7974 bound_to 7965
  154.9454  140.3058  155.5100 H   0  0  0  0  0  0  0  0  0  0  0  0  # atno 8008 bound_to 7997
  156.2992  140.2328  156.4464 H   0  0  0  0  0  0  0  0  0  0  0  0  # atno 8009 bound_to 7997
  154.8105  140.0429  157.1328 H   0  0  0  0  0  0  0  0  0  0  0  0  # atno 8010 bound_to 7997
  140.6785  143.6844  150.8079 H   0  0  0  0  0  0  0  0  0  0  0  0  # atno 10167 bound_to 10162
  156.0216  130.4434  150.3003 H   0  0  0  0  0  0  0  0  0  0  0  0  # atno 10718 bound_to 10713
  153.0075  135.6304  154.1992 H   0  0  0  0  0  0  0  0  0  0  0  0  # atno 10763 bound_to 10752
  154.1735  135.2817  155.3075 H   0  0  0  0  0  0  0  0  0  0  0  0  # atno 10764 bound_to 10752
  154.5890  135.5623  153.7320 H   0  0  0  0  0  0  0  0  0  0  0  0  # atno 10765 bound_to 10752
  139.8882  134.9484  156.6281 H   0  0  0  0  0  0  0  0  0  0  0  0  # atno 11005 bound_to 11000
  145.9003  139.2426  143.1497 LP  0  0  0  0  0  0  0  0  0  0  0  0  # atno 17320 bound_to 7965
  145.9817  140.8677  143.0111 LP  0  0  0  0  0  0  0  0  0  0  0  0  # atno 17321 bound_to 7965
  140.0541  143.5220  152.2659 LP  0  0  0  0  0  0  0  0  0  0  0  0  # atno 17342 bound_to 10162
  139.6093  144.7604  151.2989 LP  0  0  0  0  0  0  0  0  0  0  0  0  # atno 17343 bound_to 10162
  157.1106  131.0220  151.3049 LP  0  0  0  0  0  0  0  0  0  0  0  0  # atno 17370 bound_to 10713
  157.4707  130.7707  149.7321 LP  0  0  0  0  0  0  0  0  0  0  0  0  # atno 17371 bound_to 10713
  140.7687  133.8756  155.8475 LP  0  0  0  0  0  0  0  0  0  0  0  0  # atno 17394 bound_to 11000
  140.9860  134.1342  157.4451 LP  0  0  0  0  0  0  0  0  0  0  0  0  # atno 17395 bound_to 11000

$$$$
