AV-unprocessed.smi:2110|AV-procd|sdf|8608|dock2
  -GOLD-   2272011353D 1   1.00000     0.00000
 Structure written by MMmdl.
 46 47  0  0  0  0  0  0  0  0  1 V2000
  151.0015  134.2713  156.5348 C   0  0  0  0  0  0  0  0  0  0  0  0
  150.6290  135.2465  155.4065 C   0  0  0  0  0  0  0  0  0  0  0  0
  149.1894  135.2287  155.0790 N   0  0  0  0  0  0  0  0  0  0  0  0
  148.5702  133.9055  154.8696 C   0  0  0  0  0  0  0  0  0  0  0  0
  149.1428  133.1606  153.6547 C   0  0  0  0  0  0  0  0  0  0  0  0
  148.1962  136.6201  155.3962 S   0  0  0  0  0  0  0  0  0  0  0  0
  146.7800  136.2378  155.2876 O   0  0  0  0  0  0  0  0  0  0  0  0
  148.7010  137.3148  156.5904 O   0  0  0  0  0  0  0  0  0  0  0  0
  148.5982  137.5721  154.0219 N   0  0  0  0  0  0  0  0  0  0  0  0
  148.9713  138.9783  154.1567 C   0  0  0  0  0  0  0  0  0  0  0  0
  150.2976  139.2131  154.8650 C   0  0  0  0  0  0  0  0  0  0  0  0
  151.3940  138.3792  154.5722 C   0  0  0  0  0  0  0  0  0  0  0  0
  152.6107  138.6066  155.2415 C   0  0  0  0  0  0  0  0  0  0  0  0
  152.7836  139.5901  156.1488 N   0  0  0  0  0  0  0  0  0  0  0  0
  151.7395  140.4060  156.4356 C   0  0  0  0  0  0  0  0  0  0  0  0
  151.9324  141.4396  157.3769 N   0  0  0  0  0  0  0  0  0  0  0  0
  152.3299  141.0031  158.7133 C   0  0  0  0  0  0  0  0  0  0  0  0
  152.8018  142.2042  159.5502 C   0  0  0  0  0  0  0  0  0  0  0  0
  151.7885  143.2039  159.5730 O   0  0  0  0  0  0  0  0  0  0  0  0
  151.4964  143.6929  158.2681 C   0  0  0  0  0  0  0  0  0  0  0  0
  150.9748  142.5434  157.3893 C   0  0  0  0  0  0  0  0  0  0  0  0
  150.4768  140.2412  155.8190 C   0  0  0  0  0  0  0  0  0  0  0  0
  152.0809  134.2573  156.6848 H   0  0  0  0  0  0  0  0  0  0  0  0
  150.6877  133.2512  156.3171 H   0  0  0  0  0  0  0  0  0  0  0  0
  150.5501  134.5645  157.4824 H   0  0  0  0  0  0  0  0  0  0  0  0
  150.9069  136.2598  155.6971 H   0  0  0  0  0  0  0  0  0  0  0  0
  151.2117  135.0171  154.5136 H   0  0  0  0  0  0  0  0  0  0  0  0
  148.6995  133.2981  155.7650 H   0  0  0  0  0  0  0  0  0  0  0  0
  147.4941  134.0333  154.7477 H   0  0  0  0  0  0  0  0  0  0  0  0
  148.6928  132.1714  153.5696 H   0  0  0  0  0  0  0  0  0  0  0  0
  150.2197  133.0206  153.7360 H   0  0  0  0  0  0  0  0  0  0  0  0
  148.9354  133.6883  152.7241 H   0  0  0  0  0  0  0  0  0  0  0  0
  149.0236  137.0672  153.2454 H   0  0  0  0  0  0  0  0  0  0  0  0
  149.0054  139.4298  153.1648 H   0  0  0  0  0  0  0  0  0  0  0  0
  148.1905  139.4953  154.7156 H   0  0  0  0  0  0  0  0  0  0  0  0
  151.3061  137.5785  153.8526 H   0  0  0  0  0  0  0  0  0  0  0  0
  153.4691  137.9827  155.0420 H   0  0  0  0  0  0  0  0  0  0  0  0
  151.4753  140.5267  159.1953 H   0  0  0  0  0  0  0  0  0  0  0  0
  153.1261  140.2609  158.6770 H   0  0  0  0  0  0  0  0  0  0  0  0
  153.0116  141.8892  160.5724 H   0  0  0  0  0  0  0  0  0  0  0  0
  153.7280  142.6181  159.1481 H   0  0  0  0  0  0  0  0  0  0  0  0
  150.7447  144.4785  158.3427 H   0  0  0  0  0  0  0  0  0  0  0  0
  152.3877  144.1450  157.8298 H   0  0  0  0  0  0  0  0  0  0  0  0
  150.8077  142.9094  156.3754 H   0  0  0  0  0  0  0  0  0  0  0  0
  150.0168  142.1875  157.7711 H   0  0  0  0  0  0  0  0  0  0  0  0
  149.6583  140.8896  156.0905 H   0  0  0  0  0  0  0  0  0  0  0  0
  1  2  1  0  0  0  0
  1 23  1  0  0  0  0
  1 24  1  0  0  0  0
  1 25  1  0  0  0  0
  2  3  1  0  0  0  0
  2 26  1  0  0  0  0
  2 27  1  0  0  0  0
  3  4  1  0  0  0  0
  3  6  1  0  0  0  0
  4  5  1  0  0  0  0
  4 28  1  0  0  0  0
  4 29  1  0  0  0  0
  5 30  1  0  0  0  0
  5 31  1  0  0  0  0
  5 32  1  0  0  0  0
  6  7  2  0  0  0  0
  6  8  2  0  0  0  0
  6  9  1  0  0  0  0
  9 10  1  0  0  0  0
  9 33  1  0  0  0  0
 10 11  1  0  0  0  0
 10 34  1  0  0  0  0
 10 35  1  0  0  0  0
 11 22  1  0  0  0  0
 11 12  2  0  0  0  0
 12 13  1  0  0  0  0
 12 36  1  0  0  0  0
 13 14  2  0  0  0  0
 13 37  1  0  0  0  0
 14 15  1  0  0  0  0
 15 16  1  0  0  0  0
 15 22  2  0  0  0  0
 16 21  1  0  0  0  0
 16 17  1  0  0  0  0
 17 18  1  0  0  0  0
 17 38  1  0  0  0  0
 17 39  1  0  0  0  0
 18 19  1  0  0  0  0
 18 40  1  0  0  0  0
 18 41  1  0  0  0  0
 19 20  1  0  0  0  0
 20 21  1  0  0  0  0
 20 42  1  0  0  0  0
 20 43  1  0  0  0  0
 21 44  1  0  0  0  0
 21 45  1  0  0  0  0
 22 46  1  0  0  0  0
M  END
> <s_m_source_file>
AV-unprocessed.smi

> <i_m_source_file_index>
2110

> <i_lp_mmshare_version>
43012

> <i_f3d_flags>
0

> <s_epik_input>
W0NIM11bQ0gyXU4oW0NIMl1bQ0gzXSlTKD1PKSg9TylbTkhdW0NIMl1jMVtjSF1bY0hdbmMoW2NIXTEpTjJbQ0gyXVtDSDJdT1tDSDJdW0NIMl0y

> <s_epik_cmdline>
J2VwaWtfcHl0aG9uJywgJy1waCcsICc3LjAnLCAnLXRuJywgJzgnLCAnLW1hJywgJzIwMCcsICctbWV0YWxfYmluZGluZycsICctaW1hZScsICc8aW5maWxlLm1hZT4nLCAnLW9tYWUnLCAnPG91dGZpbGUubWFlPic=

> <r_lp_tautomer_probability>
1

> <r_epik_Ionization_Penalty>
0.0503757

> <r_epik_Ionization_Penalty_Charging>
0

> <r_epik_Ionization_Penalty_Neutral>
0.0503757

> <r_epik_State_Penalty>
0.0467666

> <r_epik_Charging_Adjusted_Penalty>
0.0467666

> <i_epik_Tot_Q>
0

> <i_epik_Tot_abs_Q>
0

> <r_epik_Metal_State_Penalty>
0.311919

> <b_epik_Metal_Only>
0

> <s_lp_Force_Field>
OPLS_2005

> <r_lp_Energy>
13.6867

> <b_lp_Chiralities_Consistent>
1

> <s_lp_Variant>
AV-unprocessed.smi:2110-1

> <Gold.Version>
5.8.1

> <Gold.Id.Protein>
6NUR|6NUR_protein|mol2

> <Gold.PLP.Fitness>
43.8150

> <Gold.PLP.PLP>
-38.6854

> <Gold.PLP.part.hbond>
-1.9268

> <Gold.PLP.part.metal>
0.0000

> <Gold.PLP.part.buried>
-2.7200

> <Gold.PLP.part.nonpolar>
-34.1370

> <Gold.PLP.part.repulsive>
0.0742

> <Gold.PLP.ligand.clash>
0.0000

> <Gold.PLP.ligand.torsion>
2.2637

> <Gold.PLP.Chemscore.Hbond>
2.0000

> <Gold.PLP.Chemscore.CHOScore>
0.0000

> <Gold.PLP.Chemscore.Metal>
0.0000

> <Gold.Chemscore.Hbonds>
donor molecule, donor type, donor heavy atom, donor atom, acceptor molecule, acceptor atom, score
      L1  H     9    33       P1  7948  1.00
      P1  H  7997  8008       L1    14  1.00

> <Gold.PLP.Chemscore.Internal.Correction>
3.6570

> <Gold.Rescore>
     Score         DG    S(hbond)    S(metal)    S(lipo)     H(rot)  DE(clash)    DE(int)     intcor
     15.83     -18.15       1.92        0.00      91.04       1.72       0.05       2.26       ----

> <Gold.Chemscore.Fitness>
15.8338

> <Gold.Chemscore.DG>
-18.1513

> <Gold.Chemscore.ZeroCoef>
-5.4800

> <Gold.Chemscore.Hbond>
1.9214

> <Gold.Chemscore.Metal>
0.0000

> <Gold.Chemscore.Lipo>
91.0355

> <Gold.Chemscore.Internal_Hbond>
0.0000

> <Gold.Chemscore.DEClash>
0.0536

> <Gold.Chemscore.DEInternal>
2.2638

> <Gold.Chemscore.Rot>
1.7177

> <Gold.Chemscore.Internal.Correction>
   9.000000E+99

> <Gold.Chemscore.Hbonds>
donor molecule, donor type, donor heavy atom, donor atom, acceptor molecule, acceptor atom, score
      L1  H     9    33       P1  7948  0.96
      P1  H  7997  8008       L1    14  0.73

> <Gold.Chemscore.Hbond.Weighted>
-6.4175

> <Gold.Chemscore.Metal.Weighted>
-0.0000

> <Gold.Chemscore.Lipo.Weighted>
-10.6512

> <Gold.Chemscore.Internal_Hbond.Weighted>
0.0000

> <Gold.Chemscore.DEClash.Weighted>
0.0536

> <Gold.Chemscore.DEInternal.Weighted>
2.2638

> <Gold.Chemscore.Rot.Weighted>
4.3974

> <Gold.Chemscore.Internal.Correction.Weighted>
   9.000000E+99

> <Gold.Protein.RotatedTorsions>
[ 6907 6896 6895 6894 ] final   24.01 input  -60.11 | X-H torsion
[ 7974 7965 7964 7962 ] final -162.02 input  175.53 | X-H torsion
[ 8008 7997 7996 7995 ] final  -27.32 input   59.86 | X-H torsion
[ 10167 10162 10161 10158 ] final    0.64 input  -65.29 | X-H torsion
[ 10718 10713 10712 10709 ] final  -37.90 input   66.30 | X-H torsion
[ 10763 10752 10751 10750 ] final  -69.72 input  -60.55 | X-H torsion
[ 11005 11000 10999 10996 ] final  128.87 input  -57.11 | X-H torsion

> <Gold.Protein.ActiveResidues>
 VAL166  LYS551  ARG553  GLY616  TRP617  ASP618  TYR619  PRO620  LYS621  CYS622 
 ASP623  PHE694  ASN695  SER759  ASP760  ASP761  ALA762  ILE779  LEU786  VAL792 
 PHE793  MET794  SER795  GLU796  ALA797  LYS798  CYS799  TRP800  GLU811  SER814 

> <Gold.Protein.RotatedAtoms>
  151.9511  135.0169  160.0541 H   0  0  0  0  0  0  0  0  0  0  0  0  # atno 6907 bound_to 6896
  152.1952  133.4797  159.5037 H   0  0  0  0  0  0  0  0  0  0  0  0  # atno 6908 bound_to 6896
  150.6943  134.1578  159.4207 H   0  0  0  0  0  0  0  0  0  0  0  0  # atno 6909 bound_to 6896
  144.7371  140.3313  143.6152 H   0  0  0  0  0  0  0  0  0  0  0  0  # atno 7974 bound_to 7965
  154.4383  140.1875  156.0914 H   0  0  0  0  0  0  0  0  0  0  0  0  # atno 8008 bound_to 7997
  156.0363  140.3325  155.7168 H   0  0  0  0  0  0  0  0  0  0  0  0  # atno 8009 bound_to 7997
  155.5766  140.0617  157.2784 H   0  0  0  0  0  0  0  0  0  0  0  0  # atno 8010 bound_to 7997
  140.6719  143.7024  150.7941 H   0  0  0  0  0  0  0  0  0  0  0  0  # atno 10167 bound_to 10162
  156.3099  130.4251  149.8060 H   0  0  0  0  0  0  0  0  0  0  0  0  # atno 10718 bound_to 10713
  154.4074  135.6017  153.5933 H   0  0  0  0  0  0  0  0  0  0  0  0  # atno 10763 bound_to 10752
  152.9789  135.5921  154.4111 H   0  0  0  0  0  0  0  0  0  0  0  0  # atno 10764 bound_to 10752
  154.3918  135.2842  155.2128 H   0  0  0  0  0  0  0  0  0  0  0  0  # atno 10765 bound_to 10752
  139.9584  134.9608  156.9065 H   0  0  0  0  0  0  0  0  0  0  0  0  # atno 11005 bound_to 11000
  145.7468  139.1781  143.2344 LP  0  0  0  0  0  0  0  0  0  0  0  0  # atno 17320 bound_to 7965
  146.1091  140.7450  142.9512 LP  0  0  0  0  0  0  0  0  0  0  0  0  # atno 17321 bound_to 7965
  140.0710  143.5061  152.2579 LP  0  0  0  0  0  0  0  0  0  0  0  0  # atno 17342 bound_to 10162
  139.5992  144.7577  151.3212 LP  0  0  0  0  0  0  0  0  0  0  0  0  # atno 17343 bound_to 10162
  156.5407  130.8299  151.3268 LP  0  0  0  0  0  0  0  0  0  0  0  0  # atno 17370 bound_to 10713
  157.7388  130.9821  150.2277 LP  0  0  0  0  0  0  0  0  0  0  0  0  # atno 17371 bound_to 10713
  140.5556  134.0584  155.7382 LP  0  0  0  0  0  0  0  0  0  0  0  0  # atno 17394 bound_to 11000
  141.1258  133.9385  157.2637 LP  0  0  0  0  0  0  0  0  0  0  0  0  # atno 17395 bound_to 11000

$$$$
