AV-unprocessed.smi:2095|AV-procd|sdf|8555|dock9
  -GOLD-   2272011283D 1   1.00000     0.00000
 Structure written by MMmdl.
 42 43  0  0  0  0  0  0  0  0  2 V2000
  145.9118  136.9500  151.4994 C   0  0  0  0  0  0  0  0  0  0  0  0
  145.1436  135.6939  151.9469 C   0  0  1  0  0  0  0  0  0  0  0  0
  145.1524  134.5799  150.8821 C   0  0  0  0  0  0  0  0  0  0  0  0
  146.5207  133.8856  150.8066 C   0  0  0  0  0  0  0  0  0  0  0  0
  146.9622  133.3897  152.1922 C   0  0  0  0  0  0  0  0  0  0  0  0
  146.9851  134.5139  153.1669 N   0  3  2  0  0  0  0  0  0  0  0  0
  147.6430  134.2187  154.4733 C   0  0  2  0  0  0  0  0  0  0  0  0
  146.9213  133.0599  155.1897 C   0  0  0  0  0  0  0  0  0  0  0  0
  147.8273  135.4763  155.3616 C   0  0  0  0  0  0  0  0  0  0  0  0
  148.3985  136.5909  154.6120 N   0  0  0  0  0  0  0  0  0  0  0  0
  148.8726  137.7276  155.1479 C   0  0  0  0  0  0  0  0  0  0  0  0
  148.8094  137.9917  156.3480 O   0  0  0  0  0  0  0  0  0  0  0  0
  149.5540  138.7010  154.1865 C   0  0  0  0  0  0  0  0  0  0  0  0
  150.9844  138.7379  154.4285 N   0  0  0  0  0  0  0  0  0  0  0  0
  151.9280  137.8107  154.2526 C   0  0  0  0  0  0  0  0  0  0  0  0
  153.1186  138.2458  154.6346 N   0  0  0  0  0  0  0  0  0  0  0  0
  152.8586  139.5352  155.0672 N   0  0  0  0  0  0  0  0  0  0  0  0
  151.5939  139.8329  154.9480 N   0  0  0  0  0  0  0  0  0  0  0  0
  145.6491  135.1543  153.3014 C   0  0  0  0  0  0  0  0  0  0  0  0
  146.9737  136.7503  151.3563 H   0  0  0  0  0  0  0  0  0  0  0  0
  145.8243  137.7457  152.2398 H   0  0  0  0  0  0  0  0  0  0  0  0
  145.5173  137.3352  150.5587 H   0  0  0  0  0  0  0  0  0  0  0  0
  144.1065  136.0024  152.0846 H   0  0  0  0  0  0  0  0  0  0  0  0
  144.3922  133.8389  151.1334 H   0  0  0  0  0  0  0  0  0  0  0  0
  144.8759  134.9798  149.9059 H   0  0  0  0  0  0  0  0  0  0  0  0
  146.4720  133.0476  150.1107 H   0  0  0  0  0  0  0  0  0  0  0  0
  147.2670  134.5717  150.4052 H   0  0  0  0  0  0  0  0  0  0  0  0
  146.2790  132.6111  152.5331 H   0  0  0  0  0  0  0  0  0  0  0  0
  147.9483  132.9343  152.1083 H   0  0  0  0  0  0  0  0  0  0  0  0
  148.6384  133.8375  154.2397 H   0  0  0  0  0  0  0  0  0  0  0  0
  147.5126  132.6765  156.0218 H   0  0  0  0  0  0  0  0  0  0  0  0
  146.7510  132.2236  154.5111 H   0  0  0  0  0  0  0  0  0  0  0  0
  145.9561  133.3669  155.5921 H   0  0  0  0  0  0  0  0  0  0  0  0
  146.8649  135.8091  155.7495 H   0  0  0  0  0  0  0  0  0  0  0  0
  148.4451  135.2542  156.2325 H   0  0  0  0  0  0  0  0  0  0  0  0
  148.4857  136.4689  153.6132 H   0  0  0  0  0  0  0  0  0  0  0  0
  149.3741  138.3983  153.1541 H   0  0  0  0  0  0  0  0  0  0  0  0
  149.1435  139.7046  154.3077 H   0  0  0  0  0  0  0  0  0  0  0  0
  151.7423  136.8221  153.8593 H   0  0  0  0  0  0  0  0  0  0  0  0
  145.6911  135.9699  154.0243 H   0  0  0  0  0  0  0  0  0  0  0  0
  144.9368  134.4271  153.6932 H   0  0  0  0  0  0  0  0  0  0  0  0
  147.5678  135.2230  152.7449 H   0  0  0  0  0  0  0  0  0  0  0  0
  1  2  1  0  0  0  0
  1 20  1  0  0  0  0
  1 21  1  0  0  0  0
  1 22  1  0  0  0  0
  2 19  1  0  0  0  0
  2  3  1  0  0  0  0
  2 23  1  0  0  0  0
  3  4  1  0  0  0  0
  3 24  1  0  0  0  0
  3 25  1  0  0  0  0
  4  5  1  0  0  0  0
  4 26  1  0  0  0  0
  4 27  1  0  0  0  0
  5  6  1  0  0  0  0
  5 28  1  0  0  0  0
  5 29  1  0  0  0  0
  6  7  1  0  0  0  0
  6 19  1  0  0  0  0
  6 42  1  0  0  0  0
  7  8  1  0  0  0  0
  7  9  1  0  0  0  0
  7 30  1  0  0  0  0
  8 31  1  0  0  0  0
  8 32  1  0  0  0  0
  8 33  1  0  0  0  0
  9 10  1  0  0  0  0
  9 34  1  0  0  0  0
  9 35  1  0  0  0  0
 10 11  1  0  0  0  0
 10 36  1  0  0  0  0
 11 12  2  0  0  0  0
 11 13  1  0  0  0  0
 13 14  1  0  0  0  0
 13 37  1  0  0  0  0
 13 38  1  0  0  0  0
 14 18  1  0  0  0  0
 14 15  1  0  0  0  0
 15 16  2  0  0  0  0
 15 39  1  0  0  0  0
 16 17  1  0  0  0  0
 17 18  2  0  0  0  0
 19 40  1  0  0  0  0
 19 41  1  0  0  0  0
M  CHG  1   6   1
M  END
> <s_m_source_file>
AV-unprocessed.smi

> <i_m_source_file_index>
2095

> <i_lp_mmshare_version>
43012

> <i_f3d_flags>
0

> <s_epik_input>
W0NIM11bQ0BASF0xW0NIMl1bQ0gyXVtDSDJdTihbQ0gyXTEpW0NASF0oW0NIM10pW0NIMl1bTkhdQyg9TylbQ0gyXW4yW2NIXW5ubjI=

> <s_epik_cmdline>
J2VwaWtfcHl0aG9uJywgJy1waCcsICc3LjAnLCAnLXRuJywgJzgnLCAnLW1hJywgJzIwMCcsICctbWV0YWxfYmluZGluZycsICctaW1hZScsICc8aW5maWxlLm1hZT4nLCAnLW9tYWUnLCAnPG91dGZpbGUubWFlPic=

> <r_lp_tautomer_probability>
1

> <r_epik_Ionization_Penalty>
0.00268321

> <r_epik_Ionization_Penalty_Charging>
0.00267875

> <r_epik_Ionization_Penalty_Neutral>
4.46125e-06

> <r_epik_State_Penalty>
0.00186642

> <r_epik_Charging_Adjusted_Penalty>
0.00454517

> <i_epik_Tot_Q>
1

> <i_epik_Tot_abs_Q>
1

> <r_epik_Metal_State_Penalty>
-0

> <b_epik_Metal_Only>
0

> <s_lp_Force_Field>
OPLS_2005

> <r_lp_Energy>
25.1095

> <b_lp_Chiralities_Consistent>
1

> <s_lp_Variant>
AV-unprocessed.smi:2095-2

> <Gold.Version>
5.8.1

> <Gold.Id.Protein>
6NUR|6NUR_protein|mol2

> <Gold.PLP.Fitness>
46.0336

> <Gold.PLP.PLP>
-28.5169

> <Gold.PLP.part.hbond>
-5.6594

> <Gold.PLP.part.metal>
0.0000

> <Gold.PLP.part.buried>
-3.5894

> <Gold.PLP.part.nonpolar>
-19.0302

> <Gold.PLP.part.repulsive>
0.1067

> <Gold.PLP.ligand.clash>
0.0000

> <Gold.PLP.ligand.torsion>
0.3016

> <Gold.PLP.Chemscore.Hbond>
5.0000

> <Gold.PLP.Chemscore.CHOScore>
1.0000

> <Gold.PLP.Chemscore.Metal>
0.0000

> <Gold.Chemscore.Hbonds>
donor molecule, donor type, donor heavy atom, donor atom, acceptor molecule, acceptor atom, score
      L1  H     6    42       P1  7948  2.00
      L1  H    10    36       P1  7948  1.00
      P1  H  7989  7998       L1    18  1.00
      P1  H  7997  8009       L1    17  1.00
      L1  C    15    39       P1  7949  0.89

> <Gold.PLP.Chemscore.Internal.Correction>
0.1198

> <Gold.Rescore>
     Score         DG    S(hbond)    S(metal)    S(lipo)     H(rot)  DE(clash)    DE(int)     intcor
     15.17     -16.22       3.67        0.00      44.83       2.64       0.74       0.31       ----

> <Gold.Chemscore.Fitness>
15.1718

> <Gold.Chemscore.DG>
-16.2185

> <Gold.Chemscore.ZeroCoef>
-5.4800

> <Gold.Chemscore.Hbond>
3.6714

> <Gold.Chemscore.Metal>
0.0000

> <Gold.Chemscore.Lipo>
44.8253

> <Gold.Chemscore.Internal_Hbond>
0.0000

> <Gold.Chemscore.DEClash>
0.7403

> <Gold.Chemscore.DEInternal>
0.3064

> <Gold.Chemscore.Rot>
2.6439

> <Gold.Chemscore.Internal.Correction>
   9.000000E+99

> <Gold.Chemscore.Hbonds>
donor molecule, donor type, donor heavy atom, donor atom, acceptor molecule, acceptor atom, score
      L1  H     6    42       P1  7948  1.00
      L1  H    10    36       P1  7948  1.00
      P1  H  7989  7998       L1    18  0.06
      P1  H  7997  8009       L1    17  0.65

> <Gold.Chemscore.Hbond.Weighted>
-12.2624

> <Gold.Chemscore.Metal.Weighted>
-0.0000

> <Gold.Chemscore.Lipo.Weighted>
-5.2446

> <Gold.Chemscore.Internal_Hbond.Weighted>
0.0000

> <Gold.Chemscore.DEClash.Weighted>
0.7403

> <Gold.Chemscore.DEInternal.Weighted>
0.3064

> <Gold.Chemscore.Rot.Weighted>
6.7685

> <Gold.Chemscore.Internal.Correction.Weighted>
   9.000000E+99

> <Gold.Protein.RotatedTorsions>
[ 6907 6896 6895 6894 ] final -169.78 input  -60.11 | X-H torsion
[ 7974 7965 7964 7962 ] final -115.13 input  175.53 | X-H torsion
[ 8008 7997 7996 7995 ] final -137.30 input   59.86 | X-H torsion
[ 10167 10162 10161 10158 ] final  123.23 input  -65.29 | X-H torsion
[ 10718 10713 10712 10709 ] final -123.56 input   66.30 | X-H torsion
[ 10763 10752 10751 10750 ] final  -93.02 input  -60.55 | X-H torsion
[ 11005 11000 10999 10996 ] final -159.26 input  -57.11 | X-H torsion

> <Gold.Protein.ActiveResidues>
 VAL166  LYS551  ARG553  GLY616  TRP617  ASP618  TYR619  PRO620  LYS621  CYS622 
 ASP623  PHE694  ASN695  SER759  ASP760  ASP761  ALA762  ILE779  LEU786  VAL792 
 PHE793  MET794  SER795  GLU796  ALA797  LYS798  CYS799  TRP800  GLU811  SER814 

> <Gold.Protein.RotatedAtoms>
  151.4970  133.3512  159.2862 H   0  0  0  0  0  0  0  0  0  0  0  0  # atno 6907 bound_to 6896
  150.8797  134.8188  159.7227 H   0  0  0  0  0  0  0  0  0  0  0  0  # atno 6908 bound_to 6896
  152.4754  134.4866  159.9734 H   0  0  0  0  0  0  0  0  0  0  0  0  # atno 6909 bound_to 6896
  145.1120  140.8617  143.3864 H   0  0  0  0  0  0  0  0  0  0  0  0  # atno 7974 bound_to 7965
  155.4095  140.0511  157.3032 H   0  0  0  0  0  0  0  0  0  0  0  0  # atno 8008 bound_to 7997
  154.4953  140.2136  155.9421 H   0  0  0  0  0  0  0  0  0  0  0  0  # atno 8009 bound_to 7997
  156.1397  140.3156  155.8481 H   0  0  0  0  0  0  0  0  0  0  0  0  # atno 8010 bound_to 7997
  139.5811  144.6986  151.3525 H   0  0  0  0  0  0  0  0  0  0  0  0  # atno 10167 bound_to 10162
  156.1513  130.6536  150.9917 H   0  0  0  0  0  0  0  0  0  0  0  0  # atno 10718 bound_to 10713
  154.6918  135.5210  153.8403 H   0  0  0  0  0  0  0  0  0  0  0  0  # atno 10763 bound_to 10752
  153.0638  135.6577  154.0411 H   0  0  0  0  0  0  0  0  0  0  0  0  # atno 10764 bound_to 10752
  154.0284  135.2987  155.3351 H   0  0  0  0  0  0  0  0  0  0  0  0  # atno 10765 bound_to 10752
  140.6446  134.4515  157.5234 H   0  0  0  0  0  0  0  0  0  0  0  0  # atno 11005 bound_to 11000
  145.0836  139.2941  143.5771 LP  0  0  0  0  0  0  0  0  0  0  0  0  # atno 17320 bound_to 7965
  146.3526  140.0350  142.8647 LP  0  0  0  0  0  0  0  0  0  0  0  0  # atno 17321 bound_to 7965
  140.7089  143.7441  150.7532 LP  0  0  0  0  0  0  0  0  0  0  0  0  # atno 17342 bound_to 10162
  140.0974  143.4820  152.2444 LP  0  0  0  0  0  0  0  0  0  0  0  0  # atno 17343 bound_to 10162
  157.6659  131.0872  150.7730 LP  0  0  0  0  0  0  0  0  0  0  0  0  # atno 17370 bound_to 10713
  156.7798  130.4855  149.5403 LP  0  0  0  0  0  0  0  0  0  0  0  0  # atno 17371 bound_to 10713
  139.9068  134.8432  156.1677 LP  0  0  0  0  0  0  0  0  0  0  0  0  # atno 17394 bound_to 11000
  141.0582  133.6855  156.1901 LP  0  0  0  0  0  0  0  0  0  0  0  0  # atno 17395 bound_to 11000

$$$$
