AV-unprocessed.smi:2781|AV-procd|sdf|10719|dock9
  -GOLD-   2272015153D 1   1.00000     0.00000
 Structure written by MMmdl.
 35 38  0  0  0  0  0  0  0  0  1 V2000
  148.6684  144.4245  161.4430 O   0  0  0  0  0  0  0  0  0  0  0  0
  148.5947  144.6678  160.2380 C   0  0  0  0  0  0  0  0  0  0  0  0
  147.5212  144.4356  159.4620 N   0  0  0  0  0  0  0  0  0  0  0  0
  146.2599  143.9055  159.8431 C   0  0  0  0  0  0  0  0  0  0  0  0
  145.9430  144.0438  161.2136 C   0  0  0  0  0  0  0  0  0  0  0  0
  144.7167  143.5458  161.6953 C   0  0  0  0  0  0  0  0  0  0  0  0
  143.8388  142.9223  160.7911 C   0  0  0  0  0  0  0  0  0  0  0  0
  142.6491  142.4281  161.2078 F   0  0  0  0  0  0  0  0  0  0  0  0
  144.2290  142.8253  159.4428 C   0  0  0  0  0  0  0  0  0  0  0  0
  145.4043  143.3021  158.9800 N   0  0  0  0  0  0  0  0  0  0  0  0
  149.5935  145.2071  159.5266 N   0  0  0  0  0  0  0  0  0  0  0  0
  150.8753  145.5777  160.0328 C   0  0  2  0  0  0  0  0  0  0  0  0
  152.1372  145.3745  159.2147 C   0  0  2  0  0  0  0  0  0  0  0  0
  152.4916  144.3253  158.1546 C   0  0  2  0  0  0  0  0  0  0  0  0
  151.2899  143.4589  157.7267 C   0  0  0  0  0  0  0  0  0  0  0  0
  151.0368  142.6003  158.9850 C   0  0  0  0  0  0  0  0  0  0  0  0
  152.1296  143.1005  159.9512 C   0  0  1  0  0  0  0  0  0  0  0  0
  153.2828  143.3144  158.9769 C   0  0  0  0  0  0  0  0  0  0  0  0
  151.8843  144.5264  160.4590 C   0  0  2  0  0  0  0  0  0  0  0  0
  147.6136  144.6766  158.4863 H   0  0  0  0  0  0  0  0  0  0  0  0
  146.6304  144.5259  161.8937 H   0  0  0  0  0  0  0  0  0  0  0  0
  144.4559  143.6406  162.7390 H   0  0  0  0  0  0  0  0  0  0  0  0
  143.5832  142.3532  158.7170 H   0  0  0  0  0  0  0  0  0  0  0  0
  149.4382  145.3703  158.5426 H   0  0  0  0  0  0  0  0  0  0  0  0
  150.8818  146.4734  160.6524 H   0  0  0  0  0  0  0  0  0  0  0  0
  152.8931  146.1506  159.3190 H   0  0  0  0  0  0  0  0  0  0  0  0
  153.0417  144.7598  157.3195 H   0  0  0  0  0  0  0  0  0  0  0  0
  150.4302  144.0463  157.4074 H   0  0  0  0  0  0  0  0  0  0  0  0
  151.5645  142.8192  156.8867 H   0  0  0  0  0  0  0  0  0  0  0  0
  150.0307  142.6910  159.3916 H   0  0  0  0  0  0  0  0  0  0  0  0
  151.1901  141.5452  158.7543 H   0  0  0  0  0  0  0  0  0  0  0  0
  152.3476  142.4099  160.7662 H   0  0  0  0  0  0  0  0  0  0  0  0
  153.5659  142.4176  158.4223 H   0  0  0  0  0  0  0  0  0  0  0  0
  154.1719  143.7401  159.4460 H   0  0  0  0  0  0  0  0  0  0  0  0
  152.4838  144.7797  161.3316 H   0  0  0  0  0  0  0  0  0  0  0  0
  1  2  2  0  0  0  0
  2  3  1  0  0  0  0
  2 11  1  0  0  0  0
  3  4  1  0  0  0  0
  3 20  1  0  0  0  0
  4 10  1  0  0  0  0
  4  5  2  0  0  0  0
  5  6  1  0  0  0  0
  5 21  1  0  0  0  0
  6  7  2  0  0  0  0
  6 22  1  0  0  0  0
  7  8  1  0  0  0  0
  7  9  1  0  0  0  0
  9 10  2  0  0  0  0
  9 23  1  0  0  0  0
 11 12  1  0  0  0  0
 11 24  1  0  0  0  0
 12 19  1  0  0  0  0
 12 13  1  0  0  0  0
 12 25  1  0  0  0  0
 13 19  1  0  0  0  0
 13 14  1  0  0  0  0
 13 26  1  0  0  0  0
 14 18  1  0  0  0  0
 14 15  1  0  0  0  0
 14 27  1  0  0  0  0
 15 16  1  0  0  0  0
 15 28  1  0  0  0  0
 15 29  1  0  0  0  0
 16 17  1  0  0  0  0
 16 30  1  0  0  0  0
 16 31  1  0  0  0  0
 17 18  1  0  0  0  0
 17 19  1  0  0  0  0
 17 32  1  0  0  0  0
 18 33  1  0  0  0  0
 18 34  1  0  0  0  0
 19 35  1  0  0  0  0
M  END
> <s_m_source_file>
AV-unprocessed.smi

> <i_m_source_file_index>
2781

> <i_lp_mmshare_version>
43012

> <i_f3d_flags>
0

> <s_epik_input>
bjFbY0hdYyhGKVtjSF1bY0hdYzFbTkhdQyg9TylbTkhdW0NASF0yW0NAQEhdM1tDQEhdKFtDSDJdNClbQ0gyXVtDSDJdW0NASF00W0NASF0yMw==

> <s_epik_cmdline>
J2VwaWtfcHl0aG9uJywgJy1waCcsICc3LjAnLCAnLXRuJywgJzgnLCAnLW1hJywgJzIwMCcsICctbWV0YWxfYmluZGluZycsICctaW1hZScsICc8aW5maWxlLm1hZT4nLCAnLW9tYWUnLCAnPG91dGZpbGUubWFlPic=

> <r_lp_tautomer_probability>
1

> <r_epik_Ionization_Penalty>
4.05776e-05

> <r_epik_Ionization_Penalty_Charging>
0

> <r_epik_Ionization_Penalty_Neutral>
4.05776e-05

> <r_epik_State_Penalty>
-0

> <r_epik_Charging_Adjusted_Penalty>
0

> <i_epik_Tot_Q>
0

> <i_epik_Tot_abs_Q>
0

> <r_epik_Metal_State_Penalty>
-0

> <b_epik_Metal_Only>
0

> <s_lp_Force_Field>
OPLS_2005

> <r_lp_Energy>
85.3989

> <b_lp_Chiralities_Consistent>
1

> <s_lp_Variant>
AV-unprocessed.smi:2781-3

> <Gold.Version>
5.8.1

> <Gold.Id.Protein>
6NUR|6NUR_protein|mol2

> <Gold.PLP.Fitness>
49.0071

> <Gold.PLP.PLP>
-42.2221

> <Gold.PLP.part.hbond>
-3.0000

> <Gold.PLP.part.metal>
0.0000

> <Gold.PLP.part.buried>
-5.8383

> <Gold.PLP.part.nonpolar>
-34.3617

> <Gold.PLP.part.repulsive>
0.6328

> <Gold.PLP.ligand.clash>
0.0000

> <Gold.PLP.ligand.torsion>
0.3138

> <Gold.PLP.Chemscore.Hbond>
2.4466

> <Gold.PLP.Chemscore.CHOScore>
0.0000

> <Gold.PLP.Chemscore.Metal>
0.0000

> <Gold.Chemscore.Hbonds>
donor molecule, donor type, donor heavy atom, donor atom, acceptor molecule, acceptor atom, score
      L1  H     3    20       P1  8029  0.96
      L1  H    11    24       P1  8029  0.71
      P1  H  6933  6944       L1     1  0.71

> <Gold.PLP.Chemscore.Internal.Correction>
0.0726

> <Gold.Rescore>
     Score         DG    S(hbond)    S(metal)    S(lipo)     H(rot)  DE(clash)    DE(int)     intcor
     22.27     -24.37       2.61        0.00     108.76       1.00       0.33       1.77       ----

> <Gold.Chemscore.Fitness>
22.2676

> <Gold.Chemscore.DG>
-24.3721

> <Gold.Chemscore.ZeroCoef>
-5.4800

> <Gold.Chemscore.Hbond>
2.6128

> <Gold.Chemscore.Metal>
0.0000

> <Gold.Chemscore.Lipo>
108.7648

> <Gold.Chemscore.Internal_Hbond>
0.0000

> <Gold.Chemscore.DEClash>
0.3319

> <Gold.Chemscore.DEInternal>
1.7726

> <Gold.Chemscore.Rot>
1.0000

> <Gold.Chemscore.Internal.Correction>
   9.000000E+99

> <Gold.Chemscore.Hbonds>
donor molecule, donor type, donor heavy atom, donor atom, acceptor molecule, acceptor atom, score
      L1  H     3    20       P1  8029  0.89
      L1  H    11    24       P1  8029  0.61
      P1  H  6933  6944       L1     1  0.23

> <Gold.Chemscore.Hbond.Weighted>
-8.7266

> <Gold.Chemscore.Metal.Weighted>
-0.0000

> <Gold.Chemscore.Lipo.Weighted>
-12.7255

> <Gold.Chemscore.Internal_Hbond.Weighted>
0.0000

> <Gold.Chemscore.DEClash.Weighted>
0.3319

> <Gold.Chemscore.DEInternal.Weighted>
1.7726

> <Gold.Chemscore.Rot.Weighted>
2.5600

> <Gold.Chemscore.Internal.Correction.Weighted>
   9.000000E+99

> <Gold.Protein.RotatedTorsions>
[ 6907 6896 6895 6894 ] final  160.49 input  -60.11 | X-H torsion
[ 7974 7965 7964 7962 ] final  100.42 input  175.53 | X-H torsion
[ 8008 7997 7996 7995 ] final  -71.77 input   59.86 | X-H torsion
[ 10167 10162 10161 10158 ] final -145.63 input  -65.29 | X-H torsion
[ 10718 10713 10712 10709 ] final   -0.05 input   66.30 | X-H torsion
[ 10763 10752 10751 10750 ] final   21.29 input  -60.55 | X-H torsion
[ 11005 11000 10999 10996 ] final   14.07 input  -57.11 | X-H torsion

> <Gold.Protein.ActiveResidues>
 VAL166  LYS551  ARG553  GLY616  TRP617  ASP618  TYR619  PRO620  LYS621  CYS622 
 ASP623  PHE694  ASN695  SER759  ASP760  ASP761  ALA762  ILE779  LEU786  VAL792 
 PHE793  MET794  SER795  GLU796  ALA797  LYS798  CYS799  TRP800  GLU811  SER814 

> <Gold.Protein.RotatedAtoms>
  151.9698  133.3722  159.4066 H   0  0  0  0  0  0  0  0  0  0  0  0  # atno 6907 bound_to 6896
  150.6950  134.4152  159.5189 H   0  0  0  0  0  0  0  0  0  0  0  0  # atno 6908 bound_to 6896
  152.1854  134.8718  160.0573 H   0  0  0  0  0  0  0  0  0  0  0  0  # atno 6909 bound_to 6896
  145.3859  139.2371  143.3378 H   0  0  0  0  0  0  0  0  0  0  0  0  # atno 7974 bound_to 7965
  154.5114  140.0809  156.7996 H   0  0  0  0  0  0  0  0  0  0  0  0  # atno 8008 bound_to 7997
  155.3778  140.3426  155.4227 H   0  0  0  0  0  0  0  0  0  0  0  0  # atno 8009 bound_to 7997
  156.1577  140.1578  156.8652 H   0  0  0  0  0  0  0  0  0  0  0  0  # atno 8010 bound_to 7997
  139.7788  143.8131  152.2636 H   0  0  0  0  0  0  0  0  0  0  0  0  # atno 10167 bound_to 10162
  156.8261  130.5473  149.5692 H   0  0  0  0  0  0  0  0  0  0  0  0  # atno 10718 bound_to 10713
  153.1007  135.6672  153.9678 H   0  0  0  0  0  0  0  0  0  0  0  0  # atno 10763 bound_to 10752
  153.9250  135.3010  155.3448 H   0  0  0  0  0  0  0  0  0  0  0  0  # atno 10764 bound_to 10752
  154.7428  135.5072  153.9226 H   0  0  0  0  0  0  0  0  0  0  0  0  # atno 10765 bound_to 10752
  140.4737  134.1005  155.7737 H   0  0  0  0  0  0  0  0  0  0  0  0  # atno 11005 bound_to 11000
  146.2820  140.4534  142.8772 LP  0  0  0  0  0  0  0  0  0  0  0  0  # atno 17320 bound_to 7965
  144.8475  140.6951  143.6190 LP  0  0  0  0  0  0  0  0  0  0  0  0  # atno 17321 bound_to 7965
  139.8187  144.7305  150.9601 LP  0  0  0  0  0  0  0  0  0  0  0  0  # atno 17342 bound_to 10162
  140.7817  143.4180  151.0887 LP  0  0  0  0  0  0  0  0  0  0  0  0  # atno 17343 bound_to 10162
  156.0960  130.5933  150.9815 LP  0  0  0  0  0  0  0  0  0  0  0  0  # atno 17370 bound_to 10713
  157.6431  131.0907  150.8210 LP  0  0  0  0  0  0  0  0  0  0  0  0  # atno 17371 bound_to 10713
  141.1565  133.8873  157.1964 LP  0  0  0  0  0  0  0  0  0  0  0  0  # atno 17394 bound_to 11000
  139.9869  135.0078  156.9884 LP  0  0  0  0  0  0  0  0  0  0  0  0  # atno 17395 bound_to 11000

$$$$
