AV-unprocessed.smi:181|AV-procd|sdf|1454|dock4
  -GOLD-   2262019253D 1   1.00000     0.00000
 Structure written by MMmdl.
 50 53  0  0  0  0  0  0  0  0  1 V2000
  150.5925  138.0850  155.2348 C   0  0  0  0  0  0  0  0  0  0  0  0
  149.3268  138.7481  155.7912 C   0  0  0  0  0  0  0  0  0  0  0  0
  148.2032  138.7145  154.8521 N   0  0  0  0  0  0  0  0  0  0  0  0
  147.5587  137.5271  154.7007 C   0  0  0  0  0  0  0  0  0  0  0  0
  148.0410  136.4157  155.3142 N   0  0  0  0  0  0  0  0  0  0  0  0
  147.4195  135.2416  155.1741 C   0  0  0  0  0  0  0  0  0  0  0  0
  146.3145  134.9604  154.4817 N   0  0  0  0  0  0  0  0  0  0  0  0
  145.8159  136.0742  153.8736 C   0  0  0  0  0  0  0  0  0  0  0  0
  146.3718  137.3839  153.9276 C   0  0  0  0  0  0  0  0  0  0  0  0
  145.5838  138.2620  153.1926 N   0  0  0  0  0  0  0  0  0  0  0  0
  144.6258  137.5122  152.7208 C   0  0  0  0  0  0  0  0  0  0  0  0
  144.6810  136.1870  153.0896 N   0  0  0  0  0  0  0  0  0  0  0  0
  143.7428  135.1397  152.7153 C   0  0  0  0  0  0  0  0  0  0  0  0
  144.2073  134.2712  151.5190 C   0  0  0  0  0  0  0  0  0  0  0  0
  143.9117  134.9794  150.3278 O   0  0  0  0  0  0  0  0  0  0  0  0
  145.7239  133.9786  151.5460 C   0  0  0  0  0  0  0  0  0  0  0  0
  146.1344  132.9461  150.4807 C   0  0  0  0  0  0  0  0  0  0  0  0
  145.3694  131.7564  150.6300 O   0  0  0  0  0  0  0  0  0  0  0  0
  143.9777  131.9695  150.4285 C   0  0  0  0  0  0  0  0  0  0  0  0
  143.4345  132.9370  151.4949 C   0  0  0  0  0  0  0  0  0  0  0  0
  147.6708  139.9678  154.2888 C   0  0  1  0  0  0  0  0  0  0  0  0
  146.3189  140.3908  154.8971 C   0  0  0  0  0  0  0  0  0  0  0  0
  146.3258  141.9250  154.8264 C   0  0  0  0  0  0  0  0  0  0  0  0
  147.7309  142.2740  154.7262 N   0  0  0  0  0  0  0  0  0  0  0  0
  148.5154  141.2307  154.4574 C   0  0  0  0  0  0  0  0  0  0  0  0
  149.7389  141.2679  154.3450 O   0  0  0  0  0  0  0  0  0  0  0  0
  151.4225  138.1931  155.9330 H   0  0  0  0  0  0  0  0  0  0  0  0
  150.8920  138.5380  154.2894 H   0  0  0  0  0  0  0  0  0  0  0  0
  150.4443  137.0182  155.0699 H   0  0  0  0  0  0  0  0  0  0  0  0
  149.0266  138.2495  156.7133 H   0  0  0  0  0  0  0  0  0  0  0  0
  149.5755  139.7699  156.0770 H   0  0  0  0  0  0  0  0  0  0  0  0
  147.8719  134.4089  155.6917 H   0  0  0  0  0  0  0  0  0  0  0  0
  143.8408  137.9103  152.0947 H   0  0  0  0  0  0  0  0  0  0  0  0
  143.5818  134.5095  153.5910 H   0  0  0  0  0  0  0  0  0  0  0  0
  142.7798  135.6036  152.4968 H   0  0  0  0  0  0  0  0  0  0  0  0
  143.0092  134.8195  150.0983 H   0  0  0  0  0  0  0  0  0  0  0  0
  146.3002  134.8937  151.4056 H   0  0  0  0  0  0  0  0  0  0  0  0
  145.9975  133.5906  152.5281 H   0  0  0  0  0  0  0  0  0  0  0  0
  146.0088  133.3485  149.4744 H   0  0  0  0  0  0  0  0  0  0  0  0
  147.1905  132.6993  150.5905 H   0  0  0  0  0  0  0  0  0  0  0  0
  143.7973  132.3500  149.4219 H   0  0  0  0  0  0  0  0  0  0  0  0
  143.4632  131.0111  150.4993 H   0  0  0  0  0  0  0  0  0  0  0  0
  143.5176  132.4544  152.4698 H   0  0  0  0  0  0  0  0  0  0  0  0
  142.3702  133.1137  151.3325 H   0  0  0  0  0  0  0  0  0  0  0  0
  147.5376  139.8342  153.2140 H   0  0  0  0  0  0  0  0  0  0  0  0
  145.4735  139.9590  154.3607 H   0  0  0  0  0  0  0  0  0  0  0  0
  146.2255  140.0883  155.9405 H   0  0  0  0  0  0  0  0  0  0  0  0
  145.8050  142.2809  153.9366 H   0  0  0  0  0  0  0  0  0  0  0  0
  145.8634  142.3796  155.7030 H   0  0  0  0  0  0  0  0  0  0  0  0
  148.0712  143.2124  154.8783 H   0  0  0  0  0  0  0  0  0  0  0  0
  1  2  1  0  0  0  0
  1 27  1  0  0  0  0
  1 28  1  0  0  0  0
  1 29  1  0  0  0  0
  2  3  1  0  0  0  0
  2 30  1  0  0  0  0
  2 31  1  0  0  0  0
  3  4  1  0  0  0  0
  3 21  1  0  0  0  0
  4  9  1  0  0  0  0
  4  5  2  0  0  0  0
  5  6  1  0  0  0  0
  6  7  2  0  0  0  0
  6 32  1  0  0  0  0
  7  8  1  0  0  0  0
  8 12  1  0  0  0  0
  8  9  2  0  0  0  0
  9 10  1  0  0  0  0
 10 11  2  0  0  0  0
 11 12  1  0  0  0  0
 11 33  1  0  0  0  0
 12 13  1  0  0  0  0
 13 14  1  0  0  0  0
 13 34  1  0  0  0  0
 13 35  1  0  0  0  0
 14 20  1  0  0  0  0
 14 15  1  0  0  0  0
 14 16  1  0  0  0  0
 15 36  1  0  0  0  0
 16 17  1  0  0  0  0
 16 37  1  0  0  0  0
 16 38  1  0  0  0  0
 17 18  1  0  0  0  0
 17 39  1  0  0  0  0
 17 40  1  0  0  0  0
 18 19  1  0  0  0  0
 19 20  1  0  0  0  0
 19 41  1  0  0  0  0
 19 42  1  0  0  0  0
 20 43  1  0  0  0  0
 20 44  1  0  0  0  0
 21 25  1  0  0  0  0
 21 22  1  0  0  0  0
 21 45  1  0  0  0  0
 22 23  1  0  0  0  0
 22 46  1  0  0  0  0
 22 47  1  0  0  0  0
 23 24  1  0  0  0  0
 23 48  1  0  0  0  0
 23 49  1  0  0  0  0
 24 25  1  0  0  0  0
 24 50  1  0  0  0  0
 25 26  2  0  0  0  0
M  END
> <s_m_source_file>
AV-unprocessed.smi

> <i_m_source_file_index>
181

> <i_lp_mmshare_version>
43012

> <i_f3d_flags>
0

> <s_epik_input>
Tz1DMVtOSF1bQ0gyXVtDSDJdW0NASF0xTihbQ0gyXVtDSDNdKWMobltjSF1uMiljKGMyMyluW2NIXW4zW0NIMl1DNChbT0hdKVtDSDJdW0NIMl1PW0NIMl1bQ0gyXTQ=

> <s_epik_cmdline>
J2VwaWtfcHl0aG9uJywgJy1waCcsICc3LjAnLCAnLXRuJywgJzgnLCAnLW1hJywgJzIwMCcsICctbWV0YWxfYmluZGluZycsICctaW1hZScsICc8aW5maWxlLm1hZT4nLCAnLW9tYWUnLCAnPG91dGZpbGUubWFlPic=

> <r_lp_tautomer_probability>
1

> <r_epik_Ionization_Penalty>
0.000985257

> <r_epik_Ionization_Penalty_Charging>
0

> <r_epik_Ionization_Penalty_Neutral>
0.000985257

> <r_epik_State_Penalty>
0.000517047

> <r_epik_Charging_Adjusted_Penalty>
0.000517047

> <i_epik_Tot_Q>
0

> <i_epik_Tot_abs_Q>
0

> <r_epik_Metal_State_Penalty>
-0

> <b_epik_Metal_Only>
0

> <s_lp_Force_Field>
OPLS_2005

> <r_lp_Energy>
36.1044

> <b_lp_Chiralities_Consistent>
1

> <s_lp_Variant>
AV-unprocessed.smi:181-2

> <Gold.Version>
5.8.1

> <Gold.Id.Protein>
6NUR|6NUR_protein|mol2

> <Gold.PLP.Fitness>
44.0915

> <Gold.PLP.PLP>
-32.1498

> <Gold.PLP.part.hbond>
-4.0000

> <Gold.PLP.part.metal>
0.0000

> <Gold.PLP.part.buried>
-3.9810

> <Gold.PLP.part.nonpolar>
-26.4359

> <Gold.PLP.part.repulsive>
1.8937

> <Gold.PLP.ligand.clash>
0.0000

> <Gold.PLP.ligand.torsion>
0.9184

> <Gold.PLP.Chemscore.Hbond>
3.0250

> <Gold.PLP.Chemscore.CHOScore>
1.4304

> <Gold.PLP.Chemscore.Metal>
0.0000

> <Gold.Chemscore.Hbonds>
donor molecule, donor type, donor heavy atom, donor atom, acceptor molecule, acceptor atom, score
      L1  H    15    36       P1 10186  0.83
      L1  H    24    50       P1  8028  1.00
      P1  H  7989  7998       L1    26  0.36
      P1  H  8011  8017       L1    26  0.16
      L1  C    11    33       P1 10171  1.00
      L1  C    11    33       P1 10175  0.57

> <Gold.PLP.Chemscore.Internal.Correction>
0.4125

> <Gold.Rescore>
     Score         DG    S(hbond)    S(metal)    S(lipo)     H(rot)  DE(clash)    DE(int)     intcor
     11.48     -15.49       2.61        0.00      65.44       2.49       0.61       3.40       ----

> <Gold.Chemscore.Fitness>
11.4769

> <Gold.Chemscore.DG>
-15.4883

> <Gold.Chemscore.ZeroCoef>
-5.4800

> <Gold.Chemscore.Hbond>
2.6123

> <Gold.Chemscore.Metal>
0.0000

> <Gold.Chemscore.Lipo>
65.4418

> <Gold.Chemscore.Internal_Hbond>
0.0000

> <Gold.Chemscore.DEClash>
0.6125

> <Gold.Chemscore.DEInternal>
3.3990

> <Gold.Chemscore.Rot>
2.4897

> <Gold.Chemscore.Internal.Correction>
   9.000000E+99

> <Gold.Chemscore.Hbonds>
donor molecule, donor type, donor heavy atom, donor atom, acceptor molecule, acceptor atom, score
      L1  H    15    36       P1 10186  0.40
      L1  H    24    50       P1  8028  0.93
      P1  H  7989  7998       L1    26  0.35
      P1  H  8011  8017       L1    26  0.03

> <Gold.Chemscore.Hbond.Weighted>
-8.7251

> <Gold.Chemscore.Metal.Weighted>
-0.0000

> <Gold.Chemscore.Lipo.Weighted>
-7.6567

> <Gold.Chemscore.Internal_Hbond.Weighted>
0.0000

> <Gold.Chemscore.DEClash.Weighted>
0.6125

> <Gold.Chemscore.DEInternal.Weighted>
3.3990

> <Gold.Chemscore.Rot.Weighted>
6.3735

> <Gold.Chemscore.Internal.Correction.Weighted>
   9.000000E+99

> <Gold.Protein.RotatedTorsions>
[ 6907 6896 6895 6894 ] final  -51.92 input  -60.11 | X-H torsion
[ 7974 7965 7964 7962 ] final -163.76 input  175.53 | X-H torsion
[ 8008 7997 7996 7995 ] final  -93.57 input   59.86 | X-H torsion
[ 10167 10162 10161 10158 ] final   49.60 input  -65.29 | X-H torsion
[ 10718 10713 10712 10709 ] final   85.65 input   66.30 | X-H torsion
[ 10763 10752 10751 10750 ] final   48.84 input  -60.55 | X-H torsion
[ 11005 11000 10999 10996 ] final  -76.06 input  -57.11 | X-H torsion

> <Gold.Protein.ActiveResidues>
 VAL166  LYS551  ARG553  GLY616  TRP617  ASP618  TYR619  PRO620  LYS621  CYS622 
 ASP623  PHE694  ASN695  SER759  ASP760  ASP761  ALA762  ILE779  LEU786  VAL792 
 PHE793  MET794  SER795  GLU796  ALA797  LYS798  CYS799  TRP800  GLU811  SER814 

> <Gold.Protein.RotatedAtoms>
  150.8566  134.7906  159.7049 H   0  0  0  0  0  0  0  0  0  0  0  0  # atno 6907 bound_to 6896
  152.4616  134.5169  159.9780 H   0  0  0  0  0  0  0  0  0  0  0  0  # atno 6908 bound_to 6896
  151.5280  133.3416  159.2948 H   0  0  0  0  0  0  0  0  0  0  0  0  # atno 6909 bound_to 6896
  144.7316  140.3060  143.6196 H   0  0  0  0  0  0  0  0  0  0  0  0  # atno 7974 bound_to 7965
  154.7374  140.0497  157.0780 H   0  0  0  0  0  0  0  0  0  0  0  0  # atno 8008 bound_to 7997
  155.0223  140.3148  155.4769 H   0  0  0  0  0  0  0  0  0  0  0  0  # atno 8009 bound_to 7997
  156.2856  140.2165  156.5341 H   0  0  0  0  0  0  0  0  0  0  0  0  # atno 8010 bound_to 7997
  140.2812  144.3154  150.6264 H   0  0  0  0  0  0  0  0  0  0  0  0  # atno 10167 bound_to 10162
  157.6918  131.0183  150.2854 H   0  0  0  0  0  0  0  0  0  0  0  0  # atno 10718 bound_to 10713
  152.9789  135.5931  154.3992 H   0  0  0  0  0  0  0  0  0  0  0  0  # atno 10763 bound_to 10752
  154.3639  135.2767  155.2306 H   0  0  0  0  0  0  0  0  0  0  0  0  # atno 10764 bound_to 10752
  154.4291  135.6040  153.6112 H   0  0  0  0  0  0  0  0  0  0  0  0  # atno 10765 bound_to 10752
  141.1651  133.6969  156.7611 H   0  0  0  0  0  0  0  0  0  0  0  0  # atno 11005 bound_to 11000
  145.7713  139.1858  143.2211 LP  0  0  0  0  0  0  0  0  0  0  0  0  # atno 17320 bound_to 7965
  146.0909  140.7657  142.9596 LP  0  0  0  0  0  0  0  0  0  0  0  0  # atno 17321 bound_to 7965
  140.5810  143.2173  151.7428 LP  0  0  0  0  0  0  0  0  0  0  0  0  # atno 17342 bound_to 10162
  139.4962  144.4080  152.0111 LP  0  0  0  0  0  0  0  0  0  0  0  0  # atno 17343 bound_to 10162
  156.3394  130.3813  149.7422 LP  0  0  0  0  0  0  0  0  0  0  0  0  # atno 17370 bound_to 10713
  156.4936  130.8096  151.3104 LP  0  0  0  0  0  0  0  0  0  0  0  0  # atno 17371 bound_to 10713
  140.2533  134.8523  157.3689 LP  0  0  0  0  0  0  0  0  0  0  0  0  # atno 17394 bound_to 11000
  140.1681  134.4643  155.7849 LP  0  0  0  0  0  0  0  0  0  0  0  0  # atno 17395 bound_to 11000

$$$$
