AV-unprocessed.smi:2521|AV-procd|sdf|9918|dock10
  -GOLD-   2272013553D 1   1.00000     0.00000
 Structure written by MMmdl.
 35 36  0  0  0  0  0  0  0  0  2 V2000
  152.6170  142.9694  161.5268 C   0  0  0  0  0  0  0  0  0  0  0  0
  152.8635  143.1802  160.0259 C   0  0  0  0  0  0  0  0  0  0  0  0
  151.9577  144.2572  159.4113 C   0  0  0  0  0  0  0  0  0  0  0  0
  152.8115  141.8953  159.2599 C   0  0  0  0  0  0  0  0  0  0  0  0
  153.6792  140.8963  159.4483 N   0  0  0  0  0  0  0  0  0  0  0  0
  153.4220  139.8142  158.6199 N   0  0  0  0  0  0  0  0  0  0  0  0
  152.3721  140.0100  157.8103 C   0  0  0  0  0  0  0  0  0  0  0  0
  151.9553  139.0821  156.9331 N   0  5  0  0  0  0  0  0  0  0  0  0
  151.2847  139.4571  155.8199 C   0  0  0  0  0  0  0  0  0  0  0  0
  151.6553  140.2884  154.9879 O   0  0  0  0  0  0  0  0  0  0  0  0
  150.1099  138.8335  155.6614 N   0  0  0  0  0  0  0  0  0  0  0  0
  149.1863  139.0501  154.5550 C   0  0  0  0  0  0  0  0  0  0  0  0
  148.7396  140.5195  154.4903 C   0  0  1  0  0  0  0  0  0  0  0  0
  147.6370  140.7846  153.4865 C   0  0  0  0  0  0  0  0  0  0  0  0
  147.1024  142.1323  153.9599 C   0  0  0  0  0  0  0  0  0  0  0  0
  147.2682  142.1386  155.3748 O   0  0  0  0  0  0  0  0  0  0  0  0
  148.1039  141.0555  155.7749 C   0  0  0  0  0  0  0  0  0  0  0  0
  151.5942  141.5762  158.0345 S   0  0  0  0  0  0  0  0  0  0  0  0
  153.3342  142.2629  161.9459 H   0  0  0  0  0  0  0  0  0  0  0  0
  151.6164  142.5783  161.7136 H   0  0  0  0  0  0  0  0  0  0  0  0
  152.7159  143.9056  162.0767 H   0  0  0  0  0  0  0  0  0  0  0  0
  153.8850  143.5510  159.9333 H   0  0  0  0  0  0  0  0  0  0  0  0
  152.2181  144.4396  158.3682 H   0  0  0  0  0  0  0  0  0  0  0  0
  152.0530  145.2026  159.9457 H   0  0  0  0  0  0  0  0  0  0  0  0
  150.9090  143.9603  159.4454 H   0  0  0  0  0  0  0  0  0  0  0  0
  149.8409  138.1582  156.3617 H   0  0  0  0  0  0  0  0  0  0  0  0
  149.6731  138.7727  153.6187 H   0  0  0  0  0  0  0  0  0  0  0  0
  148.3229  138.3939  154.6745 H   0  0  0  0  0  0  0  0  0  0  0  0
  149.5953  141.1470  154.2348 H   0  0  0  0  0  0  0  0  0  0  0  0
  147.9916  140.8067  152.4557 H   0  0  0  0  0  0  0  0  0  0  0  0
  146.8578  140.0249  153.5650 H   0  0  0  0  0  0  0  0  0  0  0  0
  147.6944  142.9454  153.5376 H   0  0  0  0  0  0  0  0  0  0  0  0
  146.0611  142.2902  153.6788 H   0  0  0  0  0  0  0  0  0  0  0  0
  147.4780  140.2944  156.2427 H   0  0  0  0  0  0  0  0  0  0  0  0
  148.8466  141.3762  156.5056 H   0  0  0  0  0  0  0  0  0  0  0  0
  1  2  1  0  0  0  0
  1 19  1  0  0  0  0
  1 20  1  0  0  0  0
  1 21  1  0  0  0  0
  2  3  1  0  0  0  0
  2  4  1  0  0  0  0
  2 22  1  0  0  0  0
  3 23  1  0  0  0  0
  3 24  1  0  0  0  0
  3 25  1  0  0  0  0
  4 18  1  0  0  0  0
  4  5  2  0  0  0  0
  5  6  1  0  0  0  0
  6  7  2  0  0  0  0
  7  8  1  0  0  0  0
  7 18  1  0  0  0  0
  8  9  1  0  0  0  0
  9 10  2  0  0  0  0
  9 11  1  0  0  0  0
 11 12  1  0  0  0  0
 11 26  1  0  0  0  0
 12 13  1  0  0  0  0
 12 27  1  0  0  0  0
 12 28  1  0  0  0  0
 13 17  1  0  0  0  0
 13 14  1  0  0  0  0
 13 29  1  0  0  0  0
 14 15  1  0  0  0  0
 14 30  1  0  0  0  0
 14 31  1  0  0  0  0
 15 16  1  0  0  0  0
 15 32  1  0  0  0  0
 15 33  1  0  0  0  0
 16 17  1  0  0  0  0
 17 34  1  0  0  0  0
 17 35  1  0  0  0  0
M  CHG  1   8  -1
M  END
> <s_m_source_file>
AV-unprocessed.smi

> <i_m_source_file_index>
2521

> <i_lp_mmshare_version>
43012

> <i_f3d_flags>
0

> <s_epik_input>
W0NIM11bQ0hdKFtDSDNdKWMxbm5jKHMxKVtOSF1DKD1PKVtOSF1bQ0gyXVtDQEBIXTJbQ0gyXVtDSDJdT1tDSDJdMg==

> <s_epik_cmdline>
J2VwaWtfcHl0aG9uJywgJy1waCcsICc3LjAnLCAnLXRuJywgJzgnLCAnLW1hJywgJzIwMCcsICctbWV0YWxfYmluZGluZycsICctaW1hZScsICc8aW5maWxlLm1hZT4nLCAnLW9tYWUnLCAnPG91dGZpbGUubWFlPic=

> <r_lp_tautomer_probability>
1

> <r_epik_Ionization_Penalty>
4.4451

> <r_epik_Ionization_Penalty_Charging>
4.28522

> <r_epik_Ionization_Penalty_Neutral>
0.159875

> <r_epik_State_Penalty>
4.28479

> <r_epik_Charging_Adjusted_Penalty>
8.57002

> <i_epik_Tot_Q>
-1

> <i_epik_Tot_abs_Q>
1

> <r_epik_Metal_State_Penalty>
0.721771

> <b_epik_Metal_Only>
1

> <s_lp_Force_Field>
OPLS_2005

> <r_lp_Energy>
10.1938

> <b_lp_Chiralities_Consistent>
1

> <s_lp_Variant>
AV-unprocessed.smi:2521-4

> <Gold.Version>
5.8.1

> <Gold.Id.Protein>
6NUR|6NUR_protein|mol2

> <Gold.PLP.Fitness>
39.3065

> <Gold.PLP.PLP>
-34.9929

> <Gold.PLP.part.hbond>
-1.8564

> <Gold.PLP.part.metal>
0.0000

> <Gold.PLP.part.buried>
-4.1893

> <Gold.PLP.part.nonpolar>
-29.8559

> <Gold.PLP.part.repulsive>
0.7039

> <Gold.PLP.ligand.clash>
0.0000

> <Gold.PLP.ligand.torsion>
0.8045

> <Gold.PLP.Chemscore.Hbond>
1.9360

> <Gold.PLP.Chemscore.CHOScore>
0.0000

> <Gold.PLP.Chemscore.Metal>
0.0000

> <Gold.Chemscore.Hbonds>
donor molecule, donor type, donor heavy atom, donor atom, acceptor molecule, acceptor atom, score
      P1  H  7989  7998       L1    10  0.93
      P1  H  7997  8010       L1     6  0.94

> <Gold.PLP.Chemscore.Internal.Correction>
0.1145

> <Gold.Rescore>
     Score         DG    S(hbond)    S(metal)    S(lipo)     H(rot)  DE(clash)    DE(int)     intcor
     13.44     -15.38       0.97        0.00      87.95       1.42       0.06       1.89       ----

> <Gold.Chemscore.Fitness>
13.4354

> <Gold.Chemscore.DG>
-15.3841

> <Gold.Chemscore.ZeroCoef>
-5.4800

> <Gold.Chemscore.Hbond>
0.9723

> <Gold.Chemscore.Metal>
0.0000

> <Gold.Chemscore.Lipo>
87.9486

> <Gold.Chemscore.Internal_Hbond>
0.0000

> <Gold.Chemscore.DEClash>
0.0584

> <Gold.Chemscore.DEInternal>
1.8903

> <Gold.Chemscore.Rot>
1.4193

> <Gold.Chemscore.Internal.Correction>
   9.000000E+99

> <Gold.Chemscore.Hbonds>
donor molecule, donor type, donor heavy atom, donor atom, acceptor molecule, acceptor atom, score
      P1  H  7989  7998       L1    10  0.88
      P1  H  7997  8010       L1     6  0.06

> <Gold.Chemscore.Hbond.Weighted>
-3.2475

> <Gold.Chemscore.Metal.Weighted>
-0.0000

> <Gold.Chemscore.Lipo.Weighted>
-10.2900

> <Gold.Chemscore.Internal_Hbond.Weighted>
0.0000

> <Gold.Chemscore.DEClash.Weighted>
0.0584

> <Gold.Chemscore.DEInternal.Weighted>
1.8903

> <Gold.Chemscore.Rot.Weighted>
3.6333

> <Gold.Chemscore.Internal.Correction.Weighted>
   9.000000E+99

> <Gold.Protein.RotatedTorsions>
[ 6907 6896 6895 6894 ] final  168.96 input  -60.11 | X-H torsion
[ 7974 7965 7964 7962 ] final   16.32 input  175.53 | X-H torsion
[ 8008 7997 7996 7995 ] final   11.60 input   59.86 | X-H torsion
[ 10167 10162 10161 10158 ] final -103.09 input  -65.29 | X-H torsion
[ 10718 10713 10712 10709 ] final -170.02 input   66.30 | X-H torsion
[ 10763 10752 10751 10750 ] final  -50.26 input  -60.55 | X-H torsion
[ 11005 11000 10999 10996 ] final   57.51 input  -57.11 | X-H torsion

> <Gold.Protein.ActiveResidues>
 VAL166  LYS551  ARG553  GLY616  TRP617  ASP618  TYR619  PRO620  LYS621  CYS622 
 ASP623  PHE694  ASN695  SER759  ASP760  ASP761  ALA762  ILE779  LEU786  VAL792 
 PHE793  MET794  SER795  GLU796  ALA797  LYS798  CYS799  TRP800  GLU811  SER814 

> <Gold.Protein.RotatedAtoms>
  151.8394  133.3421  159.3638 H   0  0  0  0  0  0  0  0  0  0  0  0  # atno 6907 bound_to 6896
  150.7239  134.5406  159.5754 H   0  0  0  0  0  0  0  0  0  0  0  0  # atno 6908 bound_to 6896
  152.2876  134.7759  160.0435 H   0  0  0  0  0  0  0  0  0  0  0  0  # atno 6909 bound_to 6896
  146.2253  139.8765  142.8578 H   0  0  0  0  0  0  0  0  0  0  0  0  # atno 7974 bound_to 7965
  154.8092  140.2865  155.5865 H   0  0  0  0  0  0  0  0  0  0  0  0  # atno 8008 bound_to 7997
  156.2986  140.2571  156.2906 H   0  0  0  0  0  0  0  0  0  0  0  0  # atno 8009 bound_to 7997
  154.9467  140.0380  157.2113 H   0  0  0  0  0  0  0  0  0  0  0  0  # atno 8010 bound_to 7997
  140.2237  143.3657  152.0947 H   0  0  0  0  0  0  0  0  0  0  0  0  # atno 10167 bound_to 10162
  156.7201  130.9267  151.3096 H   0  0  0  0  0  0  0  0  0  0  0  0  # atno 10718 bound_to 10713
  154.1074  135.6554  153.4879 H   0  0  0  0  0  0  0  0  0  0  0  0  # atno 10763 bound_to 10752
  153.0268  135.5239  154.7226 H   0  0  0  0  0  0  0  0  0  0  0  0  # atno 10764 bound_to 10752
  154.6396  135.2986  155.0089 H   0  0  0  0  0  0  0  0  0  0  0  0  # atno 10765 bound_to 10752
  140.0447  134.5823  155.9338 H   0  0  0  0  0  0  0  0  0  0  0  0  # atno 11005 bound_to 11000
  145.2556  141.0059  143.3856 LP  0  0  0  0  0  0  0  0  0  0  0  0  # atno 17320 bound_to 7965
  144.9340  139.4266  143.6481 LP  0  0  0  0  0  0  0  0  0  0  0  0  # atno 17321 bound_to 7965
  139.5135  144.6933  151.5700 LP  0  0  0  0  0  0  0  0  0  0  0  0  # atno 17342 bound_to 10162
  140.6236  143.9211  150.6546 LP  0  0  0  0  0  0  0  0  0  0  0  0  # atno 17343 bound_to 10162
  157.6901  130.9225  150.0492 LP  0  0  0  0  0  0  0  0  0  0  0  0  # atno 17370 bound_to 10713
  156.1600  130.3644  149.9312 LP  0  0  0  0  0  0  0  0  0  0  0  0  # atno 17371 bound_to 10713
  141.1901  133.6567  156.5396 LP  0  0  0  0  0  0  0  0  0  0  0  0  # atno 17394 bound_to 11000
  140.4013  134.7354  157.4781 LP  0  0  0  0  0  0  0  0  0  0  0  0  # atno 17395 bound_to 11000

$$$$
