AV-unprocessed.smi:3078|AV-procd|sdf|11731|dock1
  -GOLD-   2272017123D 1   1.00000     0.00000
 Structure written by MMmdl.
 23 23  0  0  0  0  0  0  0  0  2 V2000
  144.1178  132.8154  149.3805 C   0  0  0  0  0  0  0  0  0  0  0  0
  144.6916  133.7412  150.3335 N   0  0  0  0  0  0  0  0  0  0  0  0
  144.1595  134.9147  150.8221 C   0  0  0  0  0  0  0  0  0  0  0  0
  145.0657  135.4439  151.7001 C   0  0  0  0  0  0  0  0  0  0  0  0
  144.9893  136.7172  152.5008 C   0  0  2  0  0  0  0  0  0  0  0  0
  143.7753  137.4469  152.1804 N   0  0  0  0  0  0  0  0  0  0  0  0
  146.2031  137.6178  152.2090 C   0  0  0  0  0  0  0  0  0  0  0  0
  146.1442  138.8789  152.9681 N   0  3  0  0  0  0  0  0  0  0  0  0
  146.1359  134.5039  151.6712 C   0  0  0  0  0  0  0  0  0  0  0  0
  145.9084  133.4875  150.8561 N   0  0  0  0  0  0  0  0  0  0  0  0
  143.1752  133.2078  148.9978 H   0  0  0  0  0  0  0  0  0  0  0  0
  143.9329  131.8563  149.8648 H   0  0  0  0  0  0  0  0  0  0  0  0
  144.8052  132.6693  148.5465 H   0  0  0  0  0  0  0  0  0  0  0  0
  143.1905  135.2741  150.5077 H   0  0  0  0  0  0  0  0  0  0  0  0
  144.9632  136.4853  153.5665 H   0  0  0  0  0  0  0  0  0  0  0  0
  143.7747  138.3320  152.6683 H   0  0  0  0  0  0  0  0  0  0  0  0
  143.7577  137.6663  151.1942 H   0  0  0  0  0  0  0  0  0  0  0  0
  147.1224  137.1056  152.4954 H   0  0  0  0  0  0  0  0  0  0  0  0
  146.2821  137.8379  151.1432 H   0  0  0  0  0  0  0  0  0  0  0  0
  146.8969  139.4850  152.6751 H   0  0  0  0  0  0  0  0  0  0  0  0
  146.2314  138.6835  153.9550 H   0  0  0  0  0  0  0  0  0  0  0  0
  147.0675  134.5307  152.2169 H   0  0  0  0  0  0  0  0  0  0  0  0
  145.2582  139.3306  152.7906 H   0  0  0  0  0  0  0  0  0  0  0  0
  1  2  1  0  0  0  0
  1 11  1  0  0  0  0
  1 12  1  0  0  0  0
  1 13  1  0  0  0  0
  2 10  1  0  0  0  0
  2  3  1  0  0  0  0
  3  4  2  0  0  0  0
  3 14  1  0  0  0  0
  4  5  1  0  0  0  0
  4  9  1  0  0  0  0
  5  6  1  0  0  0  0
  5  7  1  0  0  0  0
  5 15  1  0  0  0  0
  6 16  1  0  0  0  0
  6 17  1  0  0  0  0
  7  8  1  0  0  0  0
  7 18  1  0  0  0  0
  7 19  1  0  0  0  0
  8 20  1  0  0  0  0
  8 21  1  0  0  0  0
  8 23  1  0  0  0  0
  9 10  2  0  0  0  0
  9 22  1  0  0  0  0
M  CHG  1   8   1
M  END
> <s_m_source_file>
AV-unprocessed.smi

> <i_m_source_file_index>
3078

> <i_lp_mmshare_version>
43012

> <i_f3d_flags>
0

> <s_epik_input>
W0NIM11uMVtjSF1jKFtjSF1uMSlbQ0BIXShbTkgyXSlbQ0gyXVtOSDJd

> <s_epik_cmdline>
J2VwaWtfcHl0aG9uJywgJy1waCcsICc3LjAnLCAnLXRuJywgJzgnLCAnLW1hJywgJzIwMCcsICctbWV0YWxfYmluZGluZycsICctaW1hZScsICc8aW5maWxlLm1hZT4nLCAnLW9tYWUnLCAnPG91dGZpbGUubWFlPic=

> <r_lp_tautomer_probability>
1

> <r_epik_Ionization_Penalty>
0.0498714

> <r_epik_Ionization_Penalty_Charging>
0.00651912

> <r_epik_Ionization_Penalty_Neutral>
0.0433523

> <r_epik_State_Penalty>
0.141593

> <r_epik_Charging_Adjusted_Penalty>
0.148112

> <i_epik_Tot_Q>
1

> <i_epik_Tot_abs_Q>
1

> <r_epik_Metal_State_Penalty>
0.141584

> <b_epik_Metal_Only>
0

> <s_lp_Force_Field>
OPLS_2005

> <r_lp_Energy>
-1.23343

> <b_lp_Chiralities_Consistent>
1

> <s_lp_Variant>
AV-unprocessed.smi:3078-1

> <Gold.Version>
5.8.1

> <Gold.Id.Protein>
6NUR|6NUR_protein|mol2

> <Gold.PLP.Fitness>
37.7645

> <Gold.PLP.PLP>
-20.5845

> <Gold.PLP.part.hbond>
-2.7584

> <Gold.PLP.part.metal>
0.0000

> <Gold.PLP.part.buried>
-1.8835

> <Gold.PLP.part.nonpolar>
-15.8150

> <Gold.PLP.part.repulsive>
0.1954

> <Gold.PLP.ligand.clash>
0.0000

> <Gold.PLP.ligand.torsion>
0.0345

> <Gold.PLP.Chemscore.Hbond>
4.0000

> <Gold.PLP.Chemscore.CHOScore>
1.7487

> <Gold.PLP.Chemscore.Metal>
0.0000

> <Gold.Chemscore.Hbonds>
donor molecule, donor type, donor heavy atom, donor atom, acceptor molecule, acceptor atom, score
      L1  H     6    16       P1 10175  0.70
      L1  H     6    17       P1 10171  1.00
      L1  H     8    23       P1 10175  2.00
      L1  C     3    14       P1 10186  0.68
      L1  C     9    22       P1  7948  0.91

> <Gold.PLP.Chemscore.Internal.Correction>
0.0031

> <Gold.Rescore>
     Score         DG    S(hbond)    S(metal)    S(lipo)     H(rot)  DE(clash)    DE(int)     intcor
     16.06     -16.13       2.90        0.00      39.06       1.41       0.06       0.00       ----

> <Gold.Chemscore.Fitness>
16.0614

> <Gold.Chemscore.DG>
-16.1270

> <Gold.Chemscore.ZeroCoef>
-5.4800

> <Gold.Chemscore.Hbond>
2.9017

> <Gold.Chemscore.Metal>
0.0000

> <Gold.Chemscore.Lipo>
39.0648

> <Gold.Chemscore.Internal_Hbond>
0.0000

> <Gold.Chemscore.DEClash>
0.0637

> <Gold.Chemscore.DEInternal>
0.0019

> <Gold.Chemscore.Rot>
1.4123

> <Gold.Chemscore.Internal.Correction>
   9.000000E+99

> <Gold.Chemscore.Hbonds>
donor molecule, donor type, donor heavy atom, donor atom, acceptor molecule, acceptor atom, score
      L1  H     6    16       P1 10175  0.68
      L1  H     6    17       P1 10171  0.99
      L1  H     8    23       P1 10175  0.98

> <Gold.Chemscore.Hbond.Weighted>
-9.6918

> <Gold.Chemscore.Metal.Weighted>
-0.0000

> <Gold.Chemscore.Lipo.Weighted>
-4.5706

> <Gold.Chemscore.Internal_Hbond.Weighted>
0.0000

> <Gold.Chemscore.DEClash.Weighted>
0.0637

> <Gold.Chemscore.DEInternal.Weighted>
0.0019

> <Gold.Chemscore.Rot.Weighted>
3.6154

> <Gold.Chemscore.Internal.Correction.Weighted>
   9.000000E+99

> <Gold.Protein.RotatedTorsions>
[ 6907 6896 6895 6894 ] final -173.75 input  -60.11 | X-H torsion
[ 7974 7965 7964 7962 ] final  -85.19 input  175.53 | X-H torsion
[ 8008 7997 7996 7995 ] final -158.67 input   59.86 | X-H torsion
[ 10167 10162 10161 10158 ] final  -92.40 input  -65.29 | X-H torsion
[ 10718 10713 10712 10709 ] final  145.22 input   66.30 | X-H torsion
[ 10763 10752 10751 10750 ] final -103.37 input  -60.55 | X-H torsion
[ 11005 11000 10999 10996 ] final  119.09 input  -57.11 | X-H torsion

> <Gold.Protein.ActiveResidues>
 VAL166  LYS551  ARG553  GLY616  TRP617  ASP618  TYR619  PRO620  LYS621  CYS622 
 ASP623  PHE694  ASN695  SER759  ASP760  ASP761  ALA762  ILE779  LEU786  VAL792 
 PHE793  MET794  SER795  GLU796  ALA797  LYS798  CYS799  TRP800  GLU811  SER814 

> <Gold.Protein.RotatedAtoms>
  151.5612  133.3403  159.2971 H   0  0  0  0  0  0  0  0  0  0  0  0  # atno 6907 bound_to 6896
  150.8421  134.7720  159.6952 H   0  0  0  0  0  0  0  0  0  0  0  0  # atno 6908 bound_to 6896
  152.4487  134.5448  159.9901 H   0  0  0  0  0  0  0  0  0  0  0  0  # atno 6909 bound_to 6896
  145.4966  140.9550  143.1783 H   0  0  0  0  0  0  0  0  0  0  0  0  # atno 7974 bound_to 7965
  155.7510  140.0826  157.2201 H   0  0  0  0  0  0  0  0  0  0  0  0  # atno 8008 bound_to 7997
  154.4012  140.1560  156.2780 H   0  0  0  0  0  0  0  0  0  0  0  0  # atno 8009 bound_to 7997
  155.8930  140.3414  155.5973 H   0  0  0  0  0  0  0  0  0  0  0  0  # atno 8010 bound_to 7997
  140.3352  143.2973  151.9898 H   0  0  0  0  0  0  0  0  0  0  0  0  # atno 10167 bound_to 10162
  157.3479  131.0946  151.1026 H   0  0  0  0  0  0  0  0  0  0  0  0  # atno 10718 bound_to 10713
  154.7802  135.4826  153.9829 H   0  0  0  0  0  0  0  0  0  0  0  0  # atno 10763 bound_to 10752
  153.1484  135.6786  153.8927 H   0  0  0  0  0  0  0  0  0  0  0  0  # atno 10764 bound_to 10752
  153.8579  135.3159  155.3414 H   0  0  0  0  0  0  0  0  0  0  0  0  # atno 10765 bound_to 10752
  139.9133  134.9626  156.7602 H   0  0  0  0  0  0  0  0  0  0  0  0  # atno 11005 bound_to 11000
  144.7804  139.6539  143.7157 LP  0  0  0  0  0  0  0  0  0  0  0  0  # atno 17320 bound_to 7965
  146.2252  139.5709  142.9592 LP  0  0  0  0  0  0  0  0  0  0  0  0  # atno 17321 bound_to 7965
  139.4849  144.6203  151.7269 LP  0  0  0  0  0  0  0  0  0  0  0  0  # atno 17342 bound_to 10162
  140.5361  144.0654  150.6071 LP  0  0  0  0  0  0  0  0  0  0  0  0  # atno 17343 bound_to 10162
  157.2213  130.6482  149.5812 LP  0  0  0  0  0  0  0  0  0  0  0  0  # atno 17370 bound_to 10713
  155.9717  130.4628  150.6159 LP  0  0  0  0  0  0  0  0  0  0  0  0  # atno 17371 bound_to 10713
  140.6703  133.9565  155.7853 LP  0  0  0  0  0  0  0  0  0  0  0  0  # atno 17394 bound_to 11000
  141.0582  134.0385  157.3694 LP  0  0  0  0  0  0  0  0  0  0  0  0  # atno 17395 bound_to 11000

$$$$
