AV-unprocessed.smi:2377|AV-procd|sdf|9446|dock7
  -GOLD-   2272013 73D 1   1.00000     0.00000
 Structure written by MMmdl.
 24 24  0  0  0  0  0  0  0  0  2 V2000
  149.9900  141.3344  155.3172 C   0  0  0  0  0  0  0  0  0  0  0  0
  150.5074  142.5464  155.9786 N   0  3  0  0  0  0  0  0  0  0  0  0
  150.8162  142.3622  157.4109 C   0  0  0  0  0  0  0  0  0  0  0  0
  151.6526  143.5297  157.9638 C   0  0  1  0  0  0  0  0  0  0  0  0
  150.8865  144.7166  157.8852 O   0  0  0  0  0  0  0  0  0  0  0  0
  152.1147  143.2484  159.3844 C   0  0  0  0  0  0  0  0  0  0  0  0
  151.7887  144.1147  160.4512 C   0  0  0  0  0  0  0  0  0  0  0  0
  152.2373  143.7973  161.7476 C   0  0  0  0  0  0  0  0  0  0  0  0
  152.9932  142.6219  161.9269 C   0  0  0  0  0  0  0  0  0  0  0  0
  153.3079  141.7829  160.9169 N   0  0  0  0  0  0  0  0  0  0  0  0
  152.8753  142.0951  159.6768 C   0  0  0  0  0  0  0  0  0  0  0  0
  149.7823  141.5422  154.2676 H   0  0  0  0  0  0  0  0  0  0  0  0
  149.0649  141.0009  155.7888 H   0  0  0  0  0  0  0  0  0  0  0  0
  150.7184  140.5243  155.3677 H   0  0  0  0  0  0  0  0  0  0  0  0
  151.3482  142.8415  155.5029 H   0  0  0  0  0  0  0  0  0  0  0  0
  149.8879  142.2577  157.9749 H   0  0  0  0  0  0  0  0  0  0  0  0
  151.3672  141.4276  157.5269 H   0  0  0  0  0  0  0  0  0  0  0  0
  152.5341  143.6697  157.3363 H   0  0  0  0  0  0  0  0  0  0  0  0
  150.2628  144.6266  157.1801 H   0  0  0  0  0  0  0  0  0  0  0  0
  151.2035  145.0068  160.2826 H   0  0  0  0  0  0  0  0  0  0  0  0
  152.0075  144.4393  162.5852 H   0  0  0  0  0  0  0  0  0  0  0  0
  153.3529  142.3475  162.9076 H   0  0  0  0  0  0  0  0  0  0  0  0
  153.1436  141.3999  158.8949 H   0  0  0  0  0  0  0  0  0  0  0  0
  149.8167  143.2794  155.8970 H   0  0  0  0  0  0  0  0  0  0  0  0
  1  2  1  0  0  0  0
  1 12  1  0  0  0  0
  1 13  1  0  0  0  0
  1 14  1  0  0  0  0
  2  3  1  0  0  0  0
  2 15  1  0  0  0  0
  2 24  1  0  0  0  0
  3  4  1  0  0  0  0
  3 16  1  0  0  0  0
  3 17  1  0  0  0  0
  4  5  1  0  0  0  0
  4  6  1  0  0  0  0
  4 18  1  0  0  0  0
  5 19  1  0  0  0  0
  6 11  1  0  0  0  0
  6  7  2  0  0  0  0
  7  8  1  0  0  0  0
  7 20  1  0  0  0  0
  8  9  2  0  0  0  0
  8 21  1  0  0  0  0
  9 10  1  0  0  0  0
  9 22  1  0  0  0  0
 10 11  2  0  0  0  0
 11 23  1  0  0  0  0
M  CHG  1   2   1
M  END
> <s_m_source_file>
AV-unprocessed.smi

> <i_m_source_file_index>
2377

> <i_lp_mmshare_version>
43012

> <i_f3d_flags>
0

> <s_epik_input>
W0NIM11bTkhdW0NIMl1bQ0BIXShbT0hdKWMxW2NIXVtjSF1bY0hdbltjSF0x

> <s_epik_cmdline>
J2VwaWtfcHl0aG9uJywgJy1waCcsICc3LjAnLCAnLXRuJywgJzgnLCAnLW1hJywgJzIwMCcsICctbWV0YWxfYmluZGluZycsICctaW1hZScsICc8aW5maWxlLm1hZT4nLCAnLW9tYWUnLCAnPG91dGZpbGUubWFlPic=

> <r_epik_Ionization_Penalty>
0.00990913

> <r_epik_Ionization_Penalty_Charging>
0.00939893

> <r_epik_Ionization_Penalty_Neutral>
0.000510194

> <r_epik_State_Penalty>
0.00713549

> <r_epik_Charging_Adjusted_Penalty>
0.0165344

> <i_epik_Tot_Q>
1

> <i_epik_Tot_abs_Q>
1

> <r_epik_Metal_State_Penalty>
0.00716299

> <b_epik_Metal_Only>
0

> <s_lp_Force_Field>
OPLS_2005

> <r_lp_Energy>
6.48909

> <b_lp_Chiralities_Consistent>
1

> <s_lp_Variant>
AV-unprocessed.smi:2377-2

> <Gold.Version>
5.8.1

> <Gold.Id.Protein>
6NUR|6NUR_protein|mol2

> <Gold.PLP.Fitness>
40.6312

> <Gold.PLP.PLP>
-31.7626

> <Gold.PLP.part.hbond>
-2.6388

> <Gold.PLP.part.metal>
0.0000

> <Gold.PLP.part.buried>
-4.5125

> <Gold.PLP.part.nonpolar>
-25.5974

> <Gold.PLP.part.repulsive>
0.1317

> <Gold.PLP.ligand.clash>
0.0000

> <Gold.PLP.ligand.torsion>
0.0694

> <Gold.PLP.Chemscore.Hbond>
3.0000

> <Gold.PLP.Chemscore.CHOScore>
0.0000

> <Gold.PLP.Chemscore.Metal>
0.0000

> <Gold.Chemscore.Hbonds>
donor molecule, donor type, donor heavy atom, donor atom, acceptor molecule, acceptor atom, score
      L1  H     2    24       P1  8028  2.00
      L1  H     5    19       P1  8028  1.00

> <Gold.PLP.Chemscore.Internal.Correction>
0.0073

> <Gold.Rescore>
     Score         DG    S(hbond)    S(metal)    S(lipo)     H(rot)  DE(clash)    DE(int)     intcor
     16.43     -16.54       1.92        0.00      84.31       2.03       0.06       0.06       ----

> <Gold.Chemscore.Fitness>
16.4274

> <Gold.Chemscore.DG>
-16.5441

> <Gold.Chemscore.ZeroCoef>
-5.4800

> <Gold.Chemscore.Hbond>
1.9186

> <Gold.Chemscore.Metal>
0.0000

> <Gold.Chemscore.Lipo>
84.3054

> <Gold.Chemscore.Internal_Hbond>
0.0000

> <Gold.Chemscore.DEClash>
0.0593

> <Gold.Chemscore.DEInternal>
0.0573

> <Gold.Chemscore.Rot>
2.0344

> <Gold.Chemscore.Internal.Correction>
   9.000000E+99

> <Gold.Chemscore.Hbonds>
donor molecule, donor type, donor heavy atom, donor atom, acceptor molecule, acceptor atom, score
      L1  H     2    24       P1  8028  1.00
      L1  H     5    19       P1  8028  0.47

> <Gold.Chemscore.Hbond.Weighted>
-6.4083

> <Gold.Chemscore.Metal.Weighted>
-0.0000

> <Gold.Chemscore.Lipo.Weighted>
-9.8637

> <Gold.Chemscore.Internal_Hbond.Weighted>
0.0000

> <Gold.Chemscore.DEClash.Weighted>
0.0593

> <Gold.Chemscore.DEInternal.Weighted>
0.0573

> <Gold.Chemscore.Rot.Weighted>
5.2080

> <Gold.Chemscore.Internal.Correction.Weighted>
   9.000000E+99

> <Gold.Protein.RotatedTorsions>
[ 6907 6896 6895 6894 ] final   82.67 input  -60.11 | X-H torsion
[ 7974 7965 7964 7962 ] final  -76.68 input  175.53 | X-H torsion
[ 8008 7997 7996 7995 ] final   88.21 input   59.86 | X-H torsion
[ 10167 10162 10161 10158 ] final  134.44 input  -65.29 | X-H torsion
[ 10718 10713 10712 10709 ] final  105.91 input   66.30 | X-H torsion
[ 10763 10752 10751 10750 ] final   22.88 input  -60.55 | X-H torsion
[ 11005 11000 10999 10996 ] final -117.70 input  -57.11 | X-H torsion

> <Gold.Protein.ActiveResidues>
 VAL166  LYS551  ARG553  GLY616  TRP617  ASP618  TYR619  PRO620  LYS621  CYS622 
 ASP623  PHE694  ASN695  SER759  ASP760  ASP761  ALA762  ILE779  LEU786  VAL792 
 PHE793  MET794  SER795  GLU796  ALA797  LYS798  CYS799  TRP800  GLU811  SER814 

> <Gold.Protein.RotatedAtoms>
  152.5305  134.3015  159.9079 H   0  0  0  0  0  0  0  0  0  0  0  0  # atno 6907 bound_to 6896
  151.2965  133.4135  159.2644 H   0  0  0  0  0  0  0  0  0  0  0  0  # atno 6908 bound_to 6896
  151.0155  134.9446  159.8088 H   0  0  0  0  0  0  0  0  0  0  0  0  # atno 6909 bound_to 6896
  145.6097  140.9389  143.1196 H   0  0  0  0  0  0  0  0  0  0  0  0  # atno 7974 bound_to 7965
  155.9849  140.3374  155.6698 H   0  0  0  0  0  0  0  0  0  0  0  0  # atno 8008 bound_to 7997
  155.6499  140.0704  157.2608 H   0  0  0  0  0  0  0  0  0  0  0  0  # atno 8009 bound_to 7997
  154.4202  140.1727  156.1650 H   0  0  0  0  0  0  0  0  0  0  0  0  # atno 8010 bound_to 7997
  139.5256  144.6567  151.5140 H   0  0  0  0  0  0  0  0  0  0  0  0  # atno 10167 bound_to 10162
  157.6688  131.0838  150.5927 H   0  0  0  0  0  0  0  0  0  0  0  0  # atno 10718 bound_to 10713
  153.0881  135.6639  153.9908 H   0  0  0  0  0  0  0  0  0  0  0  0  # atno 10763 bound_to 10752
  153.9512  135.2983  155.3440 H   0  0  0  0  0  0  0  0  0  0  0  0  # atno 10764 bound_to 10752
  154.7292  135.5130  153.9009 H   0  0  0  0  0  0  0  0  0  0  0  0  # atno 10765 bound_to 10752
  141.0336  133.9943  157.3105 H   0  0  0  0  0  0  0  0  0  0  0  0  # atno 11005 bound_to 11000
  144.7275  139.7829  143.7359 LP  0  0  0  0  0  0  0  0  0  0  0  0  # atno 17320 bound_to 7965
  146.1514  139.4598  143.0046 LP  0  0  0  0  0  0  0  0  0  0  0  0  # atno 17321 bound_to 7965
  140.6396  143.8916  150.6679 LP  0  0  0  0  0  0  0  0  0  0  0  0  # atno 17342 bound_to 10162
  140.2246  143.3782  152.1615 LP  0  0  0  0  0  0  0  0  0  0  0  0  # atno 17343 bound_to 10162
  156.6227  130.4410  149.5816 LP  0  0  0  0  0  0  0  0  0  0  0  0  # atno 17370 bound_to 10713
  156.2343  130.6813  151.1494 LP  0  0  0  0  0  0  0  0  0  0  0  0  # atno 17371 bound_to 10713
  139.9225  135.0201  156.8116 LP  0  0  0  0  0  0  0  0  0  0  0  0  # atno 17394 bound_to 11000
  140.6362  133.9860  155.7685 LP  0  0  0  0  0  0  0  0  0  0  0  0  # atno 17395 bound_to 11000

$$$$
