AV-unprocessed.smi:239|AV-procd|sdf|1822|dock6
  -GOLD-   2262020413D 1   1.00000     0.00000
 Structure written by MMmdl.
 54 58  0  0  0  0  0  0  0  0  1 V2000
  153.8712  141.2057  161.1127 C   0  0  0  0  0  0  0  0  0  0  0  0
  152.7603  141.1134  160.0616 C   0  0  2  0  0  0  0  0  0  0  0  0
  153.1587  140.2135  158.8766 C   0  0  0  0  0  0  0  0  0  0  0  0
  152.1249  140.2466  157.8447 N   0  0  0  0  0  0  0  0  0  0  0  0
  152.1934  139.3346  156.8409 C   0  0  0  0  0  0  0  0  0  0  0  0
  152.8651  139.6342  155.6963 N   0  0  0  0  0  0  0  0  0  0  0  0
  152.9296  138.7489  154.6975 C   0  0  0  0  0  0  0  0  0  0  0  0
  152.4074  137.5231  154.6345 N   0  0  0  0  0  0  0  0  0  0  0  0
  151.7424  137.2098  155.7830 C   0  0  0  0  0  0  0  0  0  0  0  0
  151.5863  138.0486  156.9231 C   0  0  0  0  0  0  0  0  0  0  0  0
  150.8538  137.3831  157.8994 N   0  0  0  0  0  0  0  0  0  0  0  0
  150.5810  136.2256  157.3623 C   0  0  0  0  0  0  0  0  0  0  0  0
  151.0887  136.0311  156.0977 N   0  0  0  0  0  0  0  0  0  0  0  0
  150.9408  134.8430  155.2714 C   0  0  0  0  0  0  0  0  0  0  0  0
  149.4787  134.5106  154.8782 C   0  0  0  0  0  0  0  0  0  0  0  0
  148.9455  135.7199  154.3688 O   0  0  0  0  0  0  0  0  0  0  0  0
  149.3771  133.4310  153.7788 C   0  0  0  0  0  0  0  0  0  0  0  0
  147.9147  133.0584  153.4748 C   0  0  0  0  0  0  0  0  0  0  0  0
  147.2611  132.6392  154.6673 O   0  0  0  0  0  0  0  0  0  0  0  0
  147.1975  133.6629  155.6536 C   0  0  0  0  0  0  0  0  0  0  0  0
  148.6186  134.0710  156.0828 C   0  0  0  0  0  0  0  0  0  0  0  0
  151.7824  141.6013  157.4248 C   0  0  0  0  0  0  0  0  0  0  0  0
  151.4115  142.4557  158.6497 C   0  0  2  0  0  0  0  0  0  0  0  0
  151.1469  143.8985  158.2714 C   0  0  0  0  0  0  0  0  0  0  0  0
  152.2133  144.9531  158.4552 C   0  0  0  0  0  0  0  0  0  0  0  0
  150.9879  144.9580  159.3370 C   0  0  0  0  0  0  0  0  0  0  0  0
  152.4903  142.4270  159.5799 O   0  0  0  0  0  0  0  0  0  0  0  0
  154.1016  140.2242  161.5274 H   0  0  0  0  0  0  0  0  0  0  0  0
  153.5739  141.8541  161.9373 H   0  0  0  0  0  0  0  0  0  0  0  0
  154.7876  141.6118  160.6833 H   0  0  0  0  0  0  0  0  0  0  0  0
  151.8623  140.7170  160.5386 H   0  0  0  0  0  0  0  0  0  0  0  0
  154.1046  140.5522  158.4509 H   0  0  0  0  0  0  0  0  0  0  0  0
  153.3052  139.1907  159.2267 H   0  0  0  0  0  0  0  0  0  0  0  0
  153.4772  139.0700  153.8238 H   0  0  0  0  0  0  0  0  0  0  0  0
  150.0052  135.4730  157.8811 H   0  0  0  0  0  0  0  0  0  0  0  0
  151.5479  134.9799  154.3751 H   0  0  0  0  0  0  0  0  0  0  0  0
  151.3836  134.0030  155.8092 H   0  0  0  0  0  0  0  0  0  0  0  0
  148.9029  135.6565  153.4269 H   0  0  0  0  0  0  0  0  0  0  0  0
  149.8801  133.7606  152.8689 H   0  0  0  0  0  0  0  0  0  0  0  0
  149.8895  132.5246  154.1011 H   0  0  0  0  0  0  0  0  0  0  0  0
  147.3780  133.8962  153.0273 H   0  0  0  0  0  0  0  0  0  0  0  0
  147.8810  132.2426  152.7526 H   0  0  0  0  0  0  0  0  0  0  0  0
  146.6388  134.5184  155.2712 H   0  0  0  0  0  0  0  0  0  0  0  0
  146.6437  133.2856  156.5133 H   0  0  0  0  0  0  0  0  0  0  0  0
  149.0767  133.2117  156.5720 H   0  0  0  0  0  0  0  0  0  0  0  0
  148.5733  134.8631  156.8312 H   0  0  0  0  0  0  0  0  0  0  0  0
  152.6392  142.0368  156.9085 H   0  0  0  0  0  0  0  0  0  0  0  0
  150.9543  141.6050  156.7177 H   0  0  0  0  0  0  0  0  0  0  0  0
  150.5149  142.0507  159.1231 H   0  0  0  0  0  0  0  0  0  0  0  0
  150.5117  144.0119  157.3946 H   0  0  0  0  0  0  0  0  0  0  0  0
  153.1557  144.6490  158.9067 H   0  0  0  0  0  0  0  0  0  0  0  0
  152.2898  145.7261  157.6935 H   0  0  0  0  0  0  0  0  0  0  0  0
  150.2473  145.7363  159.1647 H   0  0  0  0  0  0  0  0  0  0  0  0
  151.1151  144.6560  160.3750 H   0  0  0  0  0  0  0  0  0  0  0  0
  1  2  1  0  0  0  0
  1 28  1  0  0  0  0
  1 29  1  0  0  0  0
  1 30  1  0  0  0  0
  2 27  1  0  0  0  0
  2  3  1  0  0  0  0
  2 31  1  0  0  0  0
  3  4  1  0  0  0  0
  3 32  1  0  0  0  0
  3 33  1  0  0  0  0
  4  5  1  0  0  0  0
  4 22  1  0  0  0  0
  5 10  1  0  0  0  0
  5  6  2  0  0  0  0
  6  7  1  0  0  0  0
  7  8  2  0  0  0  0
  7 34  1  0  0  0  0
  8  9  1  0  0  0  0
  9 13  1  0  0  0  0
  9 10  2  0  0  0  0
 10 11  1  0  0  0  0
 11 12  2  0  0  0  0
 12 13  1  0  0  0  0
 12 35  1  0  0  0  0
 13 14  1  0  0  0  0
 14 15  1  0  0  0  0
 14 36  1  0  0  0  0
 14 37  1  0  0  0  0
 15 21  1  0  0  0  0
 15 16  1  0  0  0  0
 15 17  1  0  0  0  0
 16 38  1  0  0  0  0
 17 18  1  0  0  0  0
 17 39  1  0  0  0  0
 17 40  1  0  0  0  0
 18 19  1  0  0  0  0
 18 41  1  0  0  0  0
 18 42  1  0  0  0  0
 19 20  1  0  0  0  0
 20 21  1  0  0  0  0
 20 43  1  0  0  0  0
 20 44  1  0  0  0  0
 21 45  1  0  0  0  0
 21 46  1  0  0  0  0
 22 23  1  0  0  0  0
 22 47  1  0  0  0  0
 22 48  1  0  0  0  0
 23 24  1  0  0  0  0
 23 27  1  0  0  0  0
 23 49  1  0  0  0  0
 24 26  1  0  0  0  0
 24 25  1  0  0  0  0
 24 50  1  0  0  0  0
 25 26  1  0  0  0  0
 25 51  1  0  0  0  0
 25 52  1  0  0  0  0
 26 53  1  0  0  0  0
 26 54  1  0  0  0  0
M  END
> <s_m_source_file>
AV-unprocessed.smi

> <i_m_source_file_index>
239

> <i_lp_mmshare_version>
43012

> <i_f3d_flags>
0

> <s_epik_input>
W0NIMl0xW0NIMl1bQ0hdMVtDQEBIXShPMilbQ0gyXU4oW0NIMl1bQ0BIXTJbQ0gzXSljKG5bY0hdbjMpYyhjMzQpbltjSF1uNFtDSDJdQzUoW09IXSlbQ0gyXVtDSDJdT1tDSDJdW0NIMl01

> <s_epik_cmdline>
J2VwaWtfcHl0aG9uJywgJy1waCcsICc3LjAnLCAnLXRuJywgJzgnLCAnLW1hJywgJzIwMCcsICctbWV0YWxfYmluZGluZycsICctaW1hZScsICc8aW5maWxlLm1hZT4nLCAnLW9tYWUnLCAnPG91dGZpbGUubWFlPic=

> <r_lp_tautomer_probability>
1

> <r_epik_Ionization_Penalty>
9.13091e-05

> <r_epik_Ionization_Penalty_Charging>
0

> <r_epik_Ionization_Penalty_Neutral>
9.13091e-05

> <r_epik_State_Penalty>
-0

> <r_epik_Charging_Adjusted_Penalty>
0

> <i_epik_Tot_Q>
0

> <i_epik_Tot_abs_Q>
0

> <r_epik_Metal_State_Penalty>
-0

> <b_epik_Metal_Only>
0

> <s_lp_Force_Field>
OPLS_2005

> <r_lp_Energy>
38.8789

> <b_lp_Chiralities_Consistent>
1

> <s_lp_Variant>
AV-unprocessed.smi:239-3

> <Gold.Version>
5.8.1

> <Gold.Id.Protein>
6NUR|6NUR_protein|mol2

> <Gold.PLP.Fitness>
51.7739

> <Gold.PLP.PLP>
-44.7596

> <Gold.PLP.part.hbond>
-3.0000

> <Gold.PLP.part.metal>
0.0000

> <Gold.PLP.part.buried>
-7.3660

> <Gold.PLP.part.nonpolar>
-33.6488

> <Gold.PLP.part.repulsive>
0.1342

> <Gold.PLP.ligand.clash>
0.0000

> <Gold.PLP.ligand.torsion>
1.2149

> <Gold.PLP.Chemscore.Hbond>
2.6880

> <Gold.PLP.Chemscore.CHOScore>
0.0000

> <Gold.PLP.Chemscore.Metal>
0.0000

> <Gold.Chemscore.Hbonds>
donor molecule, donor type, donor heavy atom, donor atom, acceptor molecule, acceptor atom, score
      L1  H    16    38       P1  7948  1.00
      P1  H  7997  8008       L1     6  1.00
      P1  H 10752 10765       L1     8  0.56

> <Gold.PLP.Chemscore.Internal.Correction>
1.3801

> <Gold.Rescore>
     Score         DG    S(hbond)    S(metal)    S(lipo)     H(rot)  DE(clash)    DE(int)     intcor
     18.72     -19.93       2.44        0.00     102.71       2.24       0.00       1.21       ----

> <Gold.Chemscore.Fitness>
18.7209

> <Gold.Chemscore.DG>
-19.9319

> <Gold.Chemscore.ZeroCoef>
-5.4800

> <Gold.Chemscore.Hbond>
2.4449

> <Gold.Chemscore.Metal>
0.0000

> <Gold.Chemscore.Lipo>
102.7103

> <Gold.Chemscore.Internal_Hbond>
0.0000

> <Gold.Chemscore.DEClash>
0.0048

> <Gold.Chemscore.DEInternal>
1.2063

> <Gold.Chemscore.Rot>
2.2387

> <Gold.Chemscore.Internal.Correction>
   9.000000E+99

> <Gold.Chemscore.Hbonds>
donor molecule, donor type, donor heavy atom, donor atom, acceptor molecule, acceptor atom, score
      L1  H    16    38       P1  7948  0.87
      P1  H  7997  8008       L1     6  0.35
      P1  H 10752 10765       L1     8  0.11

> <Gold.Chemscore.Hbond.Weighted>
-8.1660

> <Gold.Chemscore.Metal.Weighted>
-0.0000

> <Gold.Chemscore.Lipo.Weighted>
-12.0171

> <Gold.Chemscore.Internal_Hbond.Weighted>
0.0000

> <Gold.Chemscore.DEClash.Weighted>
0.0048

> <Gold.Chemscore.DEInternal.Weighted>
1.2063

> <Gold.Chemscore.Rot.Weighted>
5.7311

> <Gold.Chemscore.Internal.Correction.Weighted>
   9.000000E+99

> <Gold.Protein.RotatedTorsions>
[ 6907 6896 6895 6894 ] final  -32.92 input  -60.11 | X-H torsion
[ 7974 7965 7964 7962 ] final   66.13 input  175.53 | X-H torsion
[ 8008 7997 7996 7995 ] final  -39.41 input   59.86 | X-H torsion
[ 10167 10162 10161 10158 ] final -145.59 input  -65.29 | X-H torsion
[ 10718 10713 10712 10709 ] final   -9.82 input   66.30 | X-H torsion
[ 10763 10752 10751 10750 ] final  152.91 input  -60.55 | X-H torsion
[ 11005 11000 10999 10996 ] final   -5.55 input  -57.11 | X-H torsion

> <Gold.Protein.ActiveResidues>
 VAL166  LYS551  ARG553  GLY616  TRP617  ASP618  TYR619  PRO620  LYS621  CYS622 
 ASP623  PHE694  ASN695  SER759  ASP760  ASP761  ALA762  ILE779  LEU786  VAL792 
 PHE793  MET794  SER795  GLU796  ALA797  LYS798  CYS799  TRP800  GLU811  SER814 

> <Gold.Protein.RotatedAtoms>
  151.0723  134.9806  159.8314 H   0  0  0  0  0  0  0  0  0  0  0  0  # atno 6907 bound_to 6896
  152.5410  134.2283  159.8825 H   0  0  0  0  0  0  0  0  0  0  0  0  # atno 6908 bound_to 6896
  151.2309  133.4407  159.2637 H   0  0  0  0  0  0  0  0  0  0  0  0  # atno 6909 bound_to 6896
  145.8303  139.3135  143.0991 H   0  0  0  0  0  0  0  0  0  0  0  0  # atno 7974 bound_to 7965
  154.4023  140.1552  156.2858 H   0  0  0  0  0  0  0  0  0  0  0  0  # atno 8008 bound_to 7997
  155.8829  140.3443  155.5879 H   0  0  0  0  0  0  0  0  0  0  0  0  # atno 8009 bound_to 7997
  155.7647  140.0822  157.2129 H   0  0  0  0  0  0  0  0  0  0  0  0  # atno 8010 bound_to 7997
  139.7792  143.8126  152.2636 H   0  0  0  0  0  0  0  0  0  0  0  0  # atno 10167 bound_to 10162
  156.6825  130.5041  149.5967 H   0  0  0  0  0  0  0  0  0  0  0  0  # atno 10718 bound_to 10713
  154.1277  135.2828  155.3193 H   0  0  0  0  0  0  0  0  0  0  0  0  # atno 10763 bound_to 10752
  154.6377  135.5413  153.7757 H   0  0  0  0  0  0  0  0  0  0  0  0  # atno 10764 bound_to 10752
  153.0291  135.6478  154.1429 H   0  0  0  0  0  0  0  0  0  0  0  0  # atno 10765 bound_to 10752
  140.6923  133.9060  155.8626 H   0  0  0  0  0  0  0  0  0  0  0  0  # atno 11005 bound_to 11000
  145.9578  140.8859  143.0226 LP  0  0  0  0  0  0  0  0  0  0  0  0  # atno 17320 bound_to 7965
  144.6740  140.1770  143.7409 LP  0  0  0  0  0  0  0  0  0  0  0  0  # atno 17321 bound_to 7965
  139.8183  144.7306  150.9606 LP  0  0  0  0  0  0  0  0  0  0  0  0  # atno 17342 bound_to 10162
  140.7817  143.4183  151.0881 LP  0  0  0  0  0  0  0  0  0  0  0  0  # atno 17343 bound_to 10162
  156.1857  130.6528  151.1003 LP  0  0  0  0  0  0  0  0  0  0  0  0  # atno 17370 bound_to 10713
  157.7038  131.0765  150.6733 LP  0  0  0  0  0  0  0  0  0  0  0  0  # atno 17371 bound_to 10713
  141.0231  134.0861  157.4098 LP  0  0  0  0  0  0  0  0  0  0  0  0  # atno 17394 bound_to 11000
  139.8920  135.0122  156.6821 LP  0  0  0  0  0  0  0  0  0  0  0  0  # atno 17395 bound_to 11000

$$$$
