AV-unprocessed.smi:705|AV-procd|sdf|3448|dock1
  -GOLD-   22720 0433D 1   1.00000     0.00000
 Structure written by MMmdl.
 29 30  0  0  0  0  0  0  0  0  2 V2000
  150.0478  138.4282  153.4992 N   0  0  0  0  0  0  0  0  0  0  0  0
  150.9544  138.0419  154.4008 C   0  0  0  0  0  0  0  0  0  0  0  0
  151.4558  136.9189  154.4019 O   0  0  0  0  0  0  0  0  0  0  0  0
  151.3326  139.0741  155.4220 C   0  0  0  0  0  0  0  0  0  0  0  0
  150.6521  140.3278  155.4758 C   0  0  0  0  0  0  0  0  0  0  0  0
  151.2514  140.9961  156.5073 C   0  0  0  0  0  0  0  0  0  0  0  0
  151.0090  142.3594  157.0746 C   0  0  2  0  0  0  0  0  0  0  0  0
  152.1713  142.8250  157.9735 C   0  0  0  0  0  0  0  0  0  0  0  0
  151.8840  144.2154  158.5606 C   0  0  0  0  0  0  0  0  0  0  0  0
  150.5371  144.2295  159.3007 C   0  0  0  0  0  0  0  0  0  0  0  0
  149.4481  143.7780  158.4079 N   0  3  0  0  0  0  0  0  0  0  0  0
  149.6789  142.4253  157.8540 C   0  0  0  0  0  0  0  0  0  0  0  0
  152.2229  140.1522  156.9970 N   0  0  0  0  0  0  0  0  0  0  0  0
  152.2816  138.9762  156.3447 N   0  0  0  0  0  0  0  0  0  0  0  0
  152.8415  140.3595  157.7684 H   0  0  0  0  0  0  0  0  0  0  0  0
  149.7464  137.7859  152.7811 H   0  0  0  0  0  0  0  0  0  0  0  0
  149.6696  139.3636  153.5415 H   0  0  0  0  0  0  0  0  0  0  0  0
  149.8454  140.6831  154.8515 H   0  0  0  0  0  0  0  0  0  0  0  0
  150.9371  143.0629  156.2434 H   0  0  0  0  0  0  0  0  0  0  0  0
  152.3229  142.1136  158.7866 H   0  0  0  0  0  0  0  0  0  0  0  0
  153.1011  142.8485  157.4041 H   0  0  0  0  0  0  0  0  0  0  0  0
  152.6865  144.5058  159.2395 H   0  0  0  0  0  0  0  0  0  0  0  0
  151.8717  144.9569  157.7607 H   0  0  0  0  0  0  0  0  0  0  0  0
  150.5778  143.5790  160.1754 H   0  0  0  0  0  0  0  0  0  0  0  0
  150.3120  145.2341  159.6592 H   0  0  0  0  0  0  0  0  0  0  0  0
  148.5800  143.7760  158.9245 H   0  0  0  0  0  0  0  0  0  0  0  0
  148.8443  142.1683  157.2009 H   0  0  0  0  0  0  0  0  0  0  0  0
  149.6769  141.7019  158.6707 H   0  0  0  0  0  0  0  0  0  0  0  0
  149.3691  144.4310  157.6415 H   0  0  0  0  0  0  0  0  0  0  0  0
  1  2  1  0  0  0  0
  1 16  1  0  0  0  0
  1 17  1  0  0  0  0
  2  3  2  0  0  0  0
  2  4  1  0  0  0  0
  4 14  2  0  0  0  0
  4  5  1  0  0  0  0
  5  6  2  0  0  0  0
  5 18  1  0  0  0  0
  6  7  1  0  0  0  0
  6 13  1  0  0  0  0
  7 12  1  0  0  0  0
  7  8  1  0  0  0  0
  7 19  1  0  0  0  0
  8  9  1  0  0  0  0
  8 20  1  0  0  0  0
  8 21  1  0  0  0  0
  9 10  1  0  0  0  0
  9 22  1  0  0  0  0
  9 23  1  0  0  0  0
 10 11  1  0  0  0  0
 10 24  1  0  0  0  0
 10 25  1  0  0  0  0
 11 12  1  0  0  0  0
 11 26  1  0  0  0  0
 11 29  1  0  0  0  0
 12 27  1  0  0  0  0
 12 28  1  0  0  0  0
 13 15  1  0  0  0  0
 13 14  1  0  0  0  0
M  CHG  1  11   1
M  END
> <s_m_source_file>
AV-unprocessed.smi

> <i_m_source_file_index>
705

> <i_lp_mmshare_version>
43012

> <i_f3d_flags>
0

> <s_epik_input>
W05IMl1DKD1PKWMxW2NIXWMoW25IXW4xKVtDQEBIXTJbQ0gyXVtDSDJdW0NIMl1bTkhdW0NIMl0y

> <s_epik_cmdline>
J2VwaWtfcHl0aG9uJywgJy1waCcsICc3LjAnLCAnLXRuJywgJzgnLCAnLW1hJywgJzIwMCcsICctbWV0YWxfYmluZGluZycsICctaW1hZScsICc8aW5maWxlLm1hZT4nLCAnLW9tYWUnLCAnPG91dGZpbGUubWFlPic=

> <r_lp_tautomer_probability>
0.5

> <r_epik_Ionization_Penalty>
0.000245231

> <r_epik_Ionization_Penalty_Charging>
0.000226378

> <r_epik_Ionization_Penalty_Neutral>
1.88531e-05

> <r_epik_State_Penalty>
0.41068

> <r_epik_Charging_Adjusted_Penalty>
0.410906

> <i_epik_Tot_Q>
1

> <i_epik_Tot_abs_Q>
1

> <r_epik_Metal_State_Penalty>
0.446108

> <b_epik_Metal_Only>
0

> <s_lp_Force_Field>
OPLS_2005

> <r_lp_Energy>
15.347

> <b_lp_Chiralities_Consistent>
1

> <s_lp_Variant>
AV-unprocessed.smi:705-3

> <Gold.Version>
5.8.1

> <Gold.Id.Protein>
6NUR|6NUR_protein|mol2

> <Gold.PLP.Fitness>
35.9681

> <Gold.PLP.PLP>
-27.9655

> <Gold.PLP.part.hbond>
-5.0000

> <Gold.PLP.part.metal>
0.0000

> <Gold.PLP.part.buried>
-3.7054

> <Gold.PLP.part.nonpolar>
-19.7002

> <Gold.PLP.part.repulsive>
0.9342

> <Gold.PLP.ligand.clash>
0.0000

> <Gold.PLP.ligand.torsion>
0.3247

> <Gold.PLP.Chemscore.Hbond>
2.8784

> <Gold.PLP.Chemscore.CHOScore>
0.0000

> <Gold.PLP.Chemscore.Metal>
0.0000

> <Gold.Chemscore.Hbonds>
donor molecule, donor type, donor heavy atom, donor atom, acceptor molecule, acceptor atom, score
      L1  H     1    16       P1  7948  1.00
      L1  H    11    29       P1  8028  0.88
      P1  H 10752 10765       L1     3  1.00

> <Gold.PLP.Chemscore.Internal.Correction>
0.0168

> <Gold.Rescore>
     Score         DG    S(hbond)    S(metal)    S(lipo)     H(rot)  DE(clash)    DE(int)     intcor
     15.75     -17.60       2.00        0.00      68.28       1.00       1.62       0.23       ----

> <Gold.Chemscore.Fitness>
15.7462

> <Gold.Chemscore.DG>
-17.6029

> <Gold.Chemscore.ZeroCoef>
-5.4800

> <Gold.Chemscore.Hbond>
2.0041

> <Gold.Chemscore.Metal>
0.0000

> <Gold.Chemscore.Lipo>
68.2844

> <Gold.Chemscore.Internal_Hbond>
0.0000

> <Gold.Chemscore.DEClash>
1.6225

> <Gold.Chemscore.DEInternal>
0.2342

> <Gold.Chemscore.Rot>
1.0000

> <Gold.Chemscore.Internal.Correction>
   9.000000E+99

> <Gold.Chemscore.Hbonds>
donor molecule, donor type, donor heavy atom, donor atom, acceptor molecule, acceptor atom, score
      L1  H     1    16       P1  7948  0.45
      L1  H    11    29       P1  8028  0.01
      P1  H 10752 10765       L1     3  0.98

> <Gold.Chemscore.Hbond.Weighted>
-6.6936

> <Gold.Chemscore.Metal.Weighted>
-0.0000

> <Gold.Chemscore.Lipo.Weighted>
-7.9893

> <Gold.Chemscore.Internal_Hbond.Weighted>
0.0000

> <Gold.Chemscore.DEClash.Weighted>
1.6225

> <Gold.Chemscore.DEInternal.Weighted>
0.2342

> <Gold.Chemscore.Rot.Weighted>
2.5600

> <Gold.Chemscore.Internal.Correction.Weighted>
   9.000000E+99

> <Gold.Protein.RotatedTorsions>
[ 6907 6896 6895 6894 ] final    3.73 input  -60.11 | X-H torsion
[ 7974 7965 7964 7962 ] final  160.33 input  175.53 | X-H torsion
[ 8008 7997 7996 7995 ] final  164.41 input   59.86 | X-H torsion
[ 10167 10162 10161 10158 ] final  172.24 input  -65.29 | X-H torsion
[ 10718 10713 10712 10709 ] final  -53.87 input   66.30 | X-H torsion
[ 10763 10752 10751 10750 ] final  156.50 input  -60.55 | X-H torsion
[ 11005 11000 10999 10996 ] final    0.93 input  -57.11 | X-H torsion

> <Gold.Protein.ActiveResidues>
 VAL166  LYS551  ARG553  GLY616  TRP617  ASP618  TYR619  PRO620  LYS621  CYS622 
 ASP623  PHE694  ASN695  SER759  ASP760  ASP761  ALA762  ILE779  LEU786  VAL792 
 PHE793  MET794  SER795  GLU796  ALA797  LYS798  CYS799  TRP800  GLU811  SER814 

> <Gold.Protein.RotatedAtoms>
  151.6299  135.1024  160.0119 H   0  0  0  0  0  0  0  0  0  0  0  0  # atno 6907 bound_to 6896
  152.4112  133.6962  159.6408 H   0  0  0  0  0  0  0  0  0  0  0  0  # atno 6908 bound_to 6896
  150.8002  133.8538  159.3253 H   0  0  0  0  0  0  0  0  0  0  0  0  # atno 6909 bound_to 6896
  144.7743  139.7742  143.6285 H   0  0  0  0  0  0  0  0  0  0  0  0  # atno 7974 bound_to 7965
  156.1882  140.1697  156.8144 H   0  0  0  0  0  0  0  0  0  0  0  0  # atno 8008 bound_to 7997
  154.5439  140.0731  156.8589 H   0  0  0  0  0  0  0  0  0  0  0  0  # atno 8009 bound_to 7997
  155.3160  140.3370  155.4245 H   0  0  0  0  0  0  0  0  0  0  0  0  # atno 8010 bound_to 7997
  139.5070  144.3396  152.0031 H   0  0  0  0  0  0  0  0  0  0  0  0  # atno 10167 bound_to 10162
  156.1498  130.4151  149.9963 H   0  0  0  0  0  0  0  0  0  0  0  0  # atno 10718 bound_to 10713
  154.1854  135.2797  155.3039 H   0  0  0  0  0  0  0  0  0  0  0  0  # atno 10763 bound_to 10752
  154.5970  135.5541  153.7339 H   0  0  0  0  0  0  0  0  0  0  0  0  # atno 10764 bound_to 10752
  153.0126  135.6382  154.1993 H   0  0  0  0  0  0  0  0  0  0  0  0  # atno 10765 bound_to 10752
  140.6211  133.9661  155.8225 H   0  0  0  0  0  0  0  0  0  0  0  0  # atno 11005 bound_to 11000
  146.1911  139.5152  142.9804 LP  0  0  0  0  0  0  0  0  0  0  0  0  # atno 17320 bound_to 7965
  145.6233  141.0318  143.1903 LP  0  0  0  0  0  0  0  0  0  0  0  0  # atno 17321 bound_to 7965
  140.2834  144.3834  150.6111 LP  0  0  0  0  0  0  0  0  0  0  0  0  # atno 17342 bound_to 10162
  140.6001  143.2167  151.7089 LP  0  0  0  0  0  0  0  0  0  0  0  0  # atno 17343 bound_to 10162
  156.7824  130.9226  151.3646 LP  0  0  0  0  0  0  0  0  0  0  0  0  # atno 17370 bound_to 10713
  157.6647  130.8997  149.9907 LP  0  0  0  0  0  0  0  0  0  0  0  0  # atno 17371 bound_to 10713
  141.0742  134.0160  157.3482 LP  0  0  0  0  0  0  0  0  0  0  0  0  # atno 17394 bound_to 11000
  139.9153  135.0196  156.7856 LP  0  0  0  0  0  0  0  0  0  0  0  0  # atno 17395 bound_to 11000

$$$$
