AV-unprocessed.smi:2809|AV-procd|sdf|10826|dock6
  -GOLD-   2272015263D 1   1.00000     0.00000
 Structure written by MMmdl.
 44 45  0  0  0  0  0  0  0  0  1 V2000
  152.9771  145.0051  157.8867 C   0  0  0  0  0  0  0  0  0  0  0  0
  152.3030  144.4461  159.1443 C   0  0  0  0  0  0  0  0  0  0  0  0
  152.5168  142.9520  159.2967 C   0  0  0  0  0  0  0  0  0  0  0  0
  151.8709  142.0499  158.4284 C   0  0  0  0  0  0  0  0  0  0  0  0
  152.0691  140.6636  158.5749 C   0  0  0  0  0  0  0  0  0  0  0  0
  152.9109  140.1568  159.5858 C   0  0  0  0  0  0  0  0  0  0  0  0
  153.0411  138.7870  159.6604 O   0  0  0  0  0  0  0  0  0  0  0  0
  153.9622  138.2452  160.5992 C   0  0  0  0  0  0  0  0  0  0  0  0
  153.6333  136.7643  160.8520 C   0  0  1  0  0  0  0  0  0  0  0  0
  153.5106  136.1342  159.5927 O   0  0  0  0  0  0  0  0  0  0  0  0
  154.6937  136.0444  161.7147 C   0  0  0  0  0  0  0  0  0  0  0  0
  154.2215  134.7340  162.1920 N   0  0  0  0  0  0  0  0  0  0  0  0
  154.4017  133.6516  161.3155 C   0  0  0  0  0  0  0  0  0  0  0  0
  154.0192  132.4559  161.6249 N   0  0  0  0  0  0  0  0  0  0  0  0
  153.4046  132.2180  162.8577 C   0  0  0  0  0  0  0  0  0  0  0  0
  152.9895  130.7806  163.1173 C   0  0  0  0  0  0  0  0  0  0  0  0
  153.1974  133.2243  163.7504 C   0  0  0  0  0  0  0  0  0  0  0  0
  152.5275  133.0259  165.1044 C   0  0  0  0  0  0  0  0  0  0  0  0
  153.6258  134.5909  163.4111 C   0  0  0  0  0  0  0  0  0  0  0  0
  153.4596  135.5507  164.1664 O   0  0  0  0  0  0  0  0  0  0  0  0
  153.5632  141.0693  160.4528 C   0  0  0  0  0  0  0  0  0  0  0  0
  153.3651  142.4563  160.3071 C   0  0  0  0  0  0  0  0  0  0  0  0
  152.8089  146.0788  157.8014 H   0  0  0  0  0  0  0  0  0  0  0  0
  152.5830  144.5340  156.9859 H   0  0  0  0  0  0  0  0  0  0  0  0
  154.0543  144.8378  157.9094 H   0  0  0  0  0  0  0  0  0  0  0  0
  152.6890  144.9549  160.0284 H   0  0  0  0  0  0  0  0  0  0  0  0
  151.2329  144.6551  159.1137 H   0  0  0  0  0  0  0  0  0  0  0  0
  151.2211  142.4175  157.6476 H   0  0  0  0  0  0  0  0  0  0  0  0
  151.5675  139.9811  157.9044 H   0  0  0  0  0  0  0  0  0  0  0  0
  154.9705  138.3180  160.1883 H   0  0  0  0  0  0  0  0  0  0  0  0
  153.9461  138.8008  161.5387 H   0  0  0  0  0  0  0  0  0  0  0  0
  152.6572  136.7178  161.3362 H   0  0  0  0  0  0  0  0  0  0  0  0
  153.2417  136.7826  158.9596 H   0  0  0  0  0  0  0  0  0  0  0  0
  155.6394  135.9668  161.1739 H   0  0  0  0  0  0  0  0  0  0  0  0
  154.9320  136.6630  162.5821 H   0  0  0  0  0  0  0  0  0  0  0  0
  154.8789  133.8918  160.3638 H   0  0  0  0  0  0  0  0  0  0  0  0
  153.5074  130.3856  163.9915 H   0  0  0  0  0  0  0  0  0  0  0  0
  153.2291  130.1379  162.2691 H   0  0  0  0  0  0  0  0  0  0  0  0
  151.9147  130.7185  163.2898 H   0  0  0  0  0  0  0  0  0  0  0  0
  151.5992  133.5960  165.1497 H   0  0  0  0  0  0  0  0  0  0  0  0
  153.1808  133.3770  165.9039 H   0  0  0  0  0  0  0  0  0  0  0  0
  152.2859  131.9854  165.3153 H   0  0  0  0  0  0  0  0  0  0  0  0
  154.2213  140.7313  161.2384 H   0  0  0  0  0  0  0  0  0  0  0  0
  153.8683  143.1398  160.9754 H   0  0  0  0  0  0  0  0  0  0  0  0
  1  2  1  0  0  0  0
  1 23  1  0  0  0  0
  1 24  1  0  0  0  0
  1 25  1  0  0  0  0
  2  3  1  0  0  0  0
  2 26  1  0  0  0  0
  2 27  1  0  0  0  0
  3 22  1  0  0  0  0
  3  4  2  0  0  0  0
  4  5  1  0  0  0  0
  4 28  1  0  0  0  0
  5  6  2  0  0  0  0
  5 29  1  0  0  0  0
  6  7  1  0  0  0  0
  6 21  1  0  0  0  0
  7  8  1  0  0  0  0
  8  9  1  0  0  0  0
  8 30  1  0  0  0  0
  8 31  1  0  0  0  0
  9 10  1  0  0  0  0
  9 11  1  0  0  0  0
  9 32  1  0  0  0  0
 10 33  1  0  0  0  0
 11 12  1  0  0  0  0
 11 34  1  0  0  0  0
 11 35  1  0  0  0  0
 12 19  1  0  0  0  0
 12 13  1  0  0  0  0
 13 14  2  0  0  0  0
 13 36  1  0  0  0  0
 14 15  1  0  0  0  0
 15 16  1  0  0  0  0
 15 17  2  0  0  0  0
 16 37  1  0  0  0  0
 16 38  1  0  0  0  0
 16 39  1  0  0  0  0
 17 18  1  0  0  0  0
 17 19  1  0  0  0  0
 18 40  1  0  0  0  0
 18 41  1  0  0  0  0
 18 42  1  0  0  0  0
 19 20  2  0  0  0  0
 21 22  2  0  0  0  0
 21 43  1  0  0  0  0
 22 44  1  0  0  0  0
M  END
> <s_m_source_file>
AV-unprocessed.smi

> <i_m_source_file_index>
2809

> <i_lp_mmshare_version>
43012

> <i_f3d_flags>
0

> <s_epik_input>
W0NIM11bQ0gyXWMxW2NIXVtjSF1jKFtjSF1bY0hdMSlPW0NIMl1bQ0BIXShbT0hdKVtDSDJdbjJbY0hdbmMoW0NIM10pYyhbQ0gzXSljMj1P

> <s_epik_cmdline>
J2VwaWtfcHl0aG9uJywgJy1waCcsICc3LjAnLCAnLXRuJywgJzgnLCAnLW1hJywgJzIwMCcsICctbWV0YWxfYmluZGluZycsICctaW1hZScsICc8aW5maWxlLm1hZT4nLCAnLW9tYWUnLCAnPG91dGZpbGUubWFlPic=

> <r_lp_tautomer_probability>
1

> <r_epik_Ionization_Penalty>
3.74127e-05

> <r_epik_Ionization_Penalty_Charging>
8.43242e-08

> <r_epik_Ionization_Penalty_Neutral>
3.73284e-05

> <r_epik_State_Penalty>
-0

> <r_epik_Charging_Adjusted_Penalty>
8.43242e-08

> <i_epik_Tot_Q>
0

> <i_epik_Tot_abs_Q>
0

> <r_epik_Metal_State_Penalty>
-0

> <b_epik_Metal_Only>
0

> <s_lp_Force_Field>
OPLS_2005

> <r_lp_Energy>
23.3526

> <b_lp_Chiralities_Consistent>
1

> <s_lp_Variant>
AV-unprocessed.smi:2809-2

> <Gold.Version>
5.8.1

> <Gold.Id.Protein>
6NUR|6NUR_protein|mol2

> <Gold.PLP.Fitness>
47.5859

> <Gold.PLP.PLP>
-45.8988

> <Gold.PLP.part.hbond>
-1.0000

> <Gold.PLP.part.metal>
0.0000

> <Gold.PLP.part.buried>
-5.7491

> <Gold.PLP.part.nonpolar>
-38.9926

> <Gold.PLP.part.repulsive>
0.0884

> <Gold.PLP.ligand.clash>
0.0000

> <Gold.PLP.ligand.torsion>
0.6846

> <Gold.PLP.Chemscore.Hbond>
1.0000

> <Gold.PLP.Chemscore.CHOScore>
0.0000

> <Gold.PLP.Chemscore.Metal>
0.0000

> <Gold.Chemscore.Hbonds>
donor molecule, donor type, donor heavy atom, donor atom, acceptor molecule, acceptor atom, score
      P1  H  6896  6907       L1    10  0.90

> <Gold.PLP.Chemscore.Internal.Correction>
0.0562

> <Gold.Rescore>
     Score         DG    S(hbond)    S(metal)    S(lipo)     H(rot)  DE(clash)    DE(int)     intcor
     16.03     -17.56       0.87        0.00     132.24       2.47       0.57       0.96       ----

> <Gold.Chemscore.Fitness>
16.0291

> <Gold.Chemscore.DG>
-17.5569

> <Gold.Chemscore.ZeroCoef>
-5.4800

> <Gold.Chemscore.Hbond>
0.8735

> <Gold.Chemscore.Metal>
0.0000

> <Gold.Chemscore.Lipo>
132.2358

> <Gold.Chemscore.Internal_Hbond>
0.0000

> <Gold.Chemscore.DEClash>
0.5656

> <Gold.Chemscore.DEInternal>
0.9622

> <Gold.Chemscore.Rot>
2.4657

> <Gold.Chemscore.Internal.Correction>
   9.000000E+99

> <Gold.Chemscore.Hbonds>
donor molecule, donor type, donor heavy atom, donor atom, acceptor molecule, acceptor atom, score
      P1  H  6896  6907       L1    10  0.16

> <Gold.Chemscore.Hbond.Weighted>
-2.9174

> <Gold.Chemscore.Metal.Weighted>
-0.0000

> <Gold.Chemscore.Lipo.Weighted>
-15.4716

> <Gold.Chemscore.Internal_Hbond.Weighted>
0.0000

> <Gold.Chemscore.DEClash.Weighted>
0.5656

> <Gold.Chemscore.DEInternal.Weighted>
0.9622

> <Gold.Chemscore.Rot.Weighted>
6.3121

> <Gold.Chemscore.Internal.Correction.Weighted>
   9.000000E+99

> <Gold.Protein.RotatedTorsions>
[ 6907 6896 6895 6894 ] final   40.58 input  -60.11 | X-H torsion
[ 7974 7965 7964 7962 ] final  -68.85 input  175.53 | X-H torsion
[ 8008 7997 7996 7995 ] final -147.05 input   59.86 | X-H torsion
[ 10167 10162 10161 10158 ] final   74.62 input  -65.29 | X-H torsion
[ 10718 10713 10712 10709 ] final   61.43 input   66.30 | X-H torsion
[ 10763 10752 10751 10750 ] final   18.12 input  -60.55 | X-H torsion
[ 11005 11000 10999 10996 ] final  -21.53 input  -57.11 | X-H torsion

> <Gold.Protein.ActiveResidues>
 VAL166  LYS551  ARG553  GLY616  TRP617  ASP618  TYR619  PRO620  LYS621  CYS622 
 ASP623  PHE694  ASN695  SER759  ASP760  ASP761  ALA762  ILE779  LEU786  VAL792 
 PHE793  MET794  SER795  GLU796  ALA797  LYS798  CYS799  TRP800  GLU811  SER814 

> <Gold.Protein.RotatedAtoms>
  152.1843  134.8727  160.0523 H   0  0  0  0  0  0  0  0  0  0  0  0  # atno 6907 bound_to 6896
  151.9640  133.3699  159.4054 H   0  0  0  0  0  0  0  0  0  0  0  0  # atno 6908 bound_to 6896
  150.6923  134.4134  159.5216 H   0  0  0  0  0  0  0  0  0  0  0  0  # atno 6909 bound_to 6896
  145.7113  140.9077  143.0679 H   0  0  0  0  0  0  0  0  0  0  0  0  # atno 7974 bound_to 7965
  155.5692  140.0632  157.2810 H   0  0  0  0  0  0  0  0  0  0  0  0  # atno 8008 bound_to 7997
  154.4366  140.1872  156.0908 H   0  0  0  0  0  0  0  0  0  0  0  0  # atno 8009 bound_to 7997
  156.0389  140.3298  155.7225 H   0  0  0  0  0  0  0  0  0  0  0  0  # atno 8010 bound_to 7997
  140.0118  144.5608  150.7652 H   0  0  0  0  0  0  0  0  0  0  0  0  # atno 10167 bound_to 10162
  157.5827  130.8994  149.9460 H   0  0  0  0  0  0  0  0  0  0  0  0  # atno 10718 bound_to 10713
  153.1277  135.6733  153.9229 H   0  0  0  0  0  0  0  0  0  0  0  0  # atno 10763 bound_to 10752
  153.8725  135.3068  155.3444 H   0  0  0  0  0  0  0  0  0  0  0  0  # atno 10764 bound_to 10752
  154.7680  135.4954  153.9673 H   0  0  0  0  0  0  0  0  0  0  0  0  # atno 10765 bound_to 10752
  140.8570  133.7815  156.0030 H   0  0  0  0  0  0  0  0  0  0  0  0  # atno 11005 bound_to 11000
  144.6941  139.9078  143.7462 LP  0  0  0  0  0  0  0  0  0  0  0  0  # atno 17320 bound_to 7965
  146.0710  139.3699  143.0523 LP  0  0  0  0  0  0  0  0  0  0  0  0  # atno 17321 bound_to 7965
  140.7378  143.2770  151.3711 LP  0  0  0  0  0  0  0  0  0  0  0  0  # atno 17342 bound_to 10162
  139.6200  144.0926  152.2382 LP  0  0  0  0  0  0  0  0  0  0  0  0  # atno 17343 bound_to 10162
  156.0874  130.3666  150.0461 LP  0  0  0  0  0  0  0  0  0  0  0  0  # atno 17370 bound_to 10713
  156.8598  130.9487  151.3619 LP  0  0  0  0  0  0  0  0  0  0  0  0  # atno 17371 bound_to 10713
  140.8726  134.2708  157.5183 LP  0  0  0  0  0  0  0  0  0  0  0  0  # atno 17394 bound_to 11000
  139.8705  134.9575  156.4270 LP  0  0  0  0  0  0  0  0  0  0  0  0  # atno 17395 bound_to 11000

$$$$
