AV-unprocessed.smi:1584|AV-procd|sdf|6365|dock10
  -GOLD-   22720 6593D 1   1.00000     0.00000
 Structure written by MMmdl.
 39 40  0  0  0  0  0  0  0  0  1 V2000
  143.7011  136.0009  152.4317 C   0  0  0  0  0  0  0  0  0  0  0  0
  145.1810  136.0434  152.0213 C   0  0  2  0  0  0  0  0  0  0  0  0
  145.8478  134.6615  152.1641 C   0  0  0  0  0  0  0  0  0  0  0  0
  145.2376  133.6616  151.3057 N   0  0  0  0  0  0  0  0  0  0  0  0
  145.8494  132.8195  150.4007 C   0  0  0  0  0  0  0  0  0  0  0  0
  144.8698  132.0640  149.8227 C   0  0  0  0  0  0  0  0  0  0  0  0
  143.6766  132.5214  150.4487 C   0  0  0  0  0  0  0  0  0  0  0  0
  143.9002  133.4767  151.3368 N   0  0  0  0  0  0  0  0  0  0  0  0
  145.8940  137.0267  152.8342 N   0  0  0  0  0  0  0  0  0  0  0  0
  146.4740  138.1463  152.3754 C   0  0  0  0  0  0  0  0  0  0  0  0
  146.4408  138.4901  151.1933 O   0  0  0  0  0  0  0  0  0  0  0  0
  147.2030  139.0085  153.4144 C   0  0  2  0  0  0  0  0  0  0  0  0
  146.7596  140.4729  153.3134 C   0  0  0  0  0  0  0  0  0  0  0  0
  147.4445  141.3031  154.4067 C   0  0  0  0  0  0  0  0  0  0  0  0
  148.8925  141.0693  154.5026 N   0  0  0  0  0  0  0  0  0  0  0  0
  149.6365  142.0997  155.2292 C   0  0  0  0  0  0  0  0  0  0  0  0
  149.5259  139.9679  154.0306 C   0  0  0  0  0  0  0  0  0  0  0  0
  150.7333  139.7829  154.1869 O   0  0  0  0  0  0  0  0  0  0  0  0
  148.7320  138.9164  153.2371 C   0  0  0  0  0  0  0  0  0  0  0  0
  143.1476  135.2837  151.8250 H   0  0  0  0  0  0  0  0  0  0  0  0
  143.2269  136.9743  152.3011 H   0  0  0  0  0  0  0  0  0  0  0  0
  143.5866  135.7113  153.4767 H   0  0  0  0  0  0  0  0  0  0  0  0
  145.2309  136.3358  150.9705 H   0  0  0  0  0  0  0  0  0  0  0  0
  146.9118  134.7216  151.9301 H   0  0  0  0  0  0  0  0  0  0  0  0
  145.7759  134.3130  153.1955 H   0  0  0  0  0  0  0  0  0  0  0  0
  146.9179  132.8311  150.2426 H   0  0  0  0  0  0  0  0  0  0  0  0
  144.9872  131.3013  149.0673 H   0  0  0  0  0  0  0  0  0  0  0  0
  142.6618  132.1896  150.2861 H   0  0  0  0  0  0  0  0  0  0  0  0
  145.9693  136.8287  153.8214 H   0  0  0  0  0  0  0  0  0  0  0  0
  146.9480  138.6406  154.4103 H   0  0  0  0  0  0  0  0  0  0  0  0
  147.0191  140.8789  152.3340 H   0  0  0  0  0  0  0  0  0  0  0  0
  145.6763  140.5586  153.4093 H   0  0  0  0  0  0  0  0  0  0  0  0
  147.2464  142.3605  154.2252 H   0  0  0  0  0  0  0  0  0  0  0  0
  147.0022  141.0645  155.3749 H   0  0  0  0  0  0  0  0  0  0  0  0
  150.2293  141.6618  156.0339 H   0  0  0  0  0  0  0  0  0  0  0  0
  148.9765  142.8399  155.6833 H   0  0  0  0  0  0  0  0  0  0  0  0
  150.3121  142.6265  154.5539 H   0  0  0  0  0  0  0  0  0  0  0  0
  149.0765  137.9230  153.5279 H   0  0  0  0  0  0  0  0  0  0  0  0
  149.0029  139.0406  152.1875 H   0  0  0  0  0  0  0  0  0  0  0  0
  1  2  1  0  0  0  0
  1 20  1  0  0  0  0
  1 21  1  0  0  0  0
  1 22  1  0  0  0  0
  2  3  1  0  0  0  0
  2  9  1  0  0  0  0
  2 23  1  0  0  0  0
  3  4  1  0  0  0  0
  3 24  1  0  0  0  0
  3 25  1  0  0  0  0
  4  8  1  0  0  0  0
  4  5  1  0  0  0  0
  5  6  2  0  0  0  0
  5 26  1  0  0  0  0
  6  7  1  0  0  0  0
  6 27  1  0  0  0  0
  7  8  2  0  0  0  0
  7 28  1  0  0  0  0
  9 10  1  0  0  0  0
  9 29  1  0  0  0  0
 10 11  2  0  0  0  0
 10 12  1  0  0  0  0
 12 19  1  0  0  0  0
 12 13  1  0  0  0  0
 12 30  1  0  0  0  0
 13 14  1  0  0  0  0
 13 31  1  0  0  0  0
 13 32  1  0  0  0  0
 14 15  1  0  0  0  0
 14 33  1  0  0  0  0
 14 34  1  0  0  0  0
 15 16  1  0  0  0  0
 15 17  1  0  0  0  0
 16 35  1  0  0  0  0
 16 36  1  0  0  0  0
 16 37  1  0  0  0  0
 17 18  2  0  0  0  0
 17 19  1  0  0  0  0
 19 38  1  0  0  0  0
 19 39  1  0  0  0  0
M  END
> <s_m_source_file>
AV-unprocessed.smi

> <i_m_source_file_index>
1584

> <i_lp_mmshare_version>
43012

> <i_f3d_flags>
0

> <s_epik_input>
bjFbY0hdW2NIXVtjSF1uMVtDSDJdW0NAQEhdKFtDSDNdKVtOSF1DKD1PKVtDQEBIXTJbQ0gyXVtDSDJdTihbQ0gzXSlDKD1PKVtDSDJdMg==

> <s_epik_cmdline>
J2VwaWtfcHl0aG9uJywgJy1waCcsICc3LjAnLCAnLXRuJywgJzgnLCAnLW1hJywgJzIwMCcsICctbWV0YWxfYmluZGluZycsICctaW1hZScsICc8aW5maWxlLm1hZT4nLCAnLW9tYWUnLCAnPG91dGZpbGUubWFlPic=

> <r_lp_tautomer_probability>
1

> <r_epik_Ionization_Penalty>
0.000299422

> <r_epik_Ionization_Penalty_Charging>
0

> <r_epik_Ionization_Penalty_Neutral>
0.000299422

> <r_epik_State_Penalty>
-0

> <r_epik_Charging_Adjusted_Penalty>
0

> <i_epik_Tot_Q>
0

> <i_epik_Tot_abs_Q>
0

> <r_epik_Metal_State_Penalty>
-0

> <b_epik_Metal_Only>
0

> <s_lp_Force_Field>
OPLS_2005

> <r_lp_Energy>
13.4891

> <b_lp_Chiralities_Consistent>
1

> <s_lp_Variant>
AV-unprocessed.smi:1584-1

> <Gold.Version>
5.8.1

> <Gold.Id.Protein>
6NUR|6NUR_protein|mol2

> <Gold.PLP.Fitness>
42.0620

> <Gold.PLP.PLP>
-32.9816

> <Gold.PLP.part.hbond>
-2.5746

> <Gold.PLP.part.metal>
0.0000

> <Gold.PLP.part.buried>
5.4561

> <Gold.PLP.part.nonpolar>
-37.0684

> <Gold.PLP.part.repulsive>
0.6548

> <Gold.PLP.ligand.clash>
0.0000

> <Gold.PLP.ligand.torsion>
0.2953

> <Gold.PLP.Chemscore.Hbond>
2.0000

> <Gold.PLP.Chemscore.CHOScore>
1.2170

> <Gold.PLP.Chemscore.Metal>
0.0000

> <Gold.Chemscore.Hbonds>
donor molecule, donor type, donor heavy atom, donor atom, acceptor molecule, acceptor atom, score
      P1  H  7954  7966       L1    11  0.47
      P1  H  7989  7998       L1    18  1.00
      L1  C     5    26       P1 10747  0.22
      L1  C     7    28       P1 10186  0.10
      L1  C     7    28       P1 10952  0.59

> <Gold.PLP.Chemscore.Internal.Correction>
0.0202

> <Gold.Rescore>
     Score         DG    S(hbond)    S(metal)    S(lipo)     H(rot)  DE(clash)    DE(int)     intcor
     11.82     -16.10       1.85        0.00      74.55       1.67       2.75       1.54       ----

> <Gold.Chemscore.Fitness>
11.8162

> <Gold.Chemscore.DG>
-16.0997

> <Gold.Chemscore.ZeroCoef>
-5.4800

> <Gold.Chemscore.Hbond>
1.8508

> <Gold.Chemscore.Metal>
0.0000

> <Gold.Chemscore.Lipo>
74.5480

> <Gold.Chemscore.Internal_Hbond>
0.0000

> <Gold.Chemscore.DEClash>
2.7481

> <Gold.Chemscore.DEInternal>
1.5354

> <Gold.Chemscore.Rot>
1.6734

> <Gold.Chemscore.Internal.Correction>
   9.000000E+99

> <Gold.Chemscore.Hbonds>
donor molecule, donor type, donor heavy atom, donor atom, acceptor molecule, acceptor atom, score
      P1  H  7954  7966       L1    11  0.45
      P1  H  7989  7998       L1    18  0.83

> <Gold.Chemscore.Hbond.Weighted>
-6.1816

> <Gold.Chemscore.Metal.Weighted>
-0.0000

> <Gold.Chemscore.Lipo.Weighted>
-8.7221

> <Gold.Chemscore.Internal_Hbond.Weighted>
0.0000

> <Gold.Chemscore.DEClash.Weighted>
2.7481

> <Gold.Chemscore.DEInternal.Weighted>
1.5354

> <Gold.Chemscore.Rot.Weighted>
4.2840

> <Gold.Chemscore.Internal.Correction.Weighted>
   9.000000E+99

> <Gold.Protein.RotatedTorsions>
[ 6907 6896 6895 6894 ] final   54.66 input  -60.11 | X-H torsion
[ 7974 7965 7964 7962 ] final -172.98 input  175.53 | X-H torsion
[ 8008 7997 7996 7995 ] final  151.54 input   59.86 | X-H torsion
[ 10167 10162 10161 10158 ] final  177.80 input  -65.29 | X-H torsion
[ 10718 10713 10712 10709 ] final  -70.34 input   66.30 | X-H torsion
[ 10763 10752 10751 10750 ] final  -24.29 input  -60.55 | X-H torsion
[ 11005 11000 10999 10996 ] final  177.88 input  -57.11 | X-H torsion

> <Gold.Protein.ActiveResidues>
 VAL166  LYS551  ARG553  GLY616  TRP617  ASP618  TYR619  PRO620  LYS621  CYS622 
 ASP623  PHE694  ASN695  SER759  ASP760  ASP761  ALA762  ILE779  LEU786  VAL792 
 PHE793  MET794  SER795  GLU796  ALA797  LYS798  CYS799  TRP800  GLU811  SER814 

> <Gold.Protein.RotatedAtoms>
  152.3461  134.7070  160.0249 H   0  0  0  0  0  0  0  0  0  0  0  0  # atno 6907 bound_to 6896
  151.7439  133.3318  159.3381 H   0  0  0  0  0  0  0  0  0  0  0  0  # atno 6908 bound_to 6896
  150.7510  134.6186  159.6168 H   0  0  0  0  0  0  0  0  0  0  0  0  # atno 6909 bound_to 6896
  144.7141  140.1690  143.6369 H   0  0  0  0  0  0  0  0  0  0  0  0  # atno 7974 bound_to 7965
  156.2669  140.2045  156.6191 H   0  0  0  0  0  0  0  0  0  0  0  0  # atno 8008 bound_to 7997
  154.6771  140.0544  157.0251 H   0  0  0  0  0  0  0  0  0  0  0  0  # atno 8009 bound_to 7997
  155.1054  140.3210  155.4539 H   0  0  0  0  0  0  0  0  0  0  0  0  # atno 8010 bound_to 7997
  139.5268  144.2755  152.0591 H   0  0  0  0  0  0  0  0  0  0  0  0  # atno 10167 bound_to 10162
  156.0412  130.4330  150.2281 H   0  0  0  0  0  0  0  0  0  0  0  0  # atno 10718 bound_to 10713
  153.6814  135.6966  153.5117 H   0  0  0  0  0  0  0  0  0  0  0  0  # atno 10763 bound_to 10752
  153.2482  135.4284  155.0769 H   0  0  0  0  0  0  0  0  0  0  0  0  # atno 10764 bound_to 10752
  154.8399  135.3524  154.6358 H   0  0  0  0  0  0  0  0  0  0  0  0  # atno 10765 bound_to 10752
  140.3889  134.6880  157.4496 H   0  0  0  0  0  0  0  0  0  0  0  0  # atno 11005 bound_to 11000
  145.8960  139.2403  143.1521 LP  0  0  0  0  0  0  0  0  0  0  0  0  # atno 17320 bound_to 7965
  145.9857  140.8645  143.0092 LP  0  0  0  0  0  0  0  0  0  0  0  0  # atno 17321 bound_to 7965
  140.2213  144.4464  150.6341 LP  0  0  0  0  0  0  0  0  0  0  0  0  # atno 17342 bound_to 10162
  140.6417  143.2205  151.6276 LP  0  0  0  0  0  0  0  0  0  0  0  0  # atno 17343 bound_to 10162
  157.0376  131.0026  151.3293 LP  0  0  0  0  0  0  0  0  0  0  0  0  # atno 17370 bound_to 10713
  157.5232  130.8011  149.7833 LP  0  0  0  0  0  0  0  0  0  0  0  0  # atno 17371 bound_to 10713
  140.0421  134.6252  155.8967 LP  0  0  0  0  0  0  0  0  0  0  0  0  # atno 17394 bound_to 11000
  141.1898  133.6566  156.5382 LP  0  0  0  0  0  0  0  0  0  0  0  0  # atno 17395 bound_to 11000

$$$$
