AV-unprocessed.smi:2474|AV-procd|sdf|9754|dock4
  -GOLD-   2272013393D 1   1.00000     0.00000
 Structure written by MMmdl.
 40 41  0  0  0  0  0  0  0  0  1 V2000
  144.0130  144.7897  154.5958 C   0  0  0  0  0  0  0  0  0  0  0  0
  144.8538  143.5722  154.7783 C   0  0  0  0  0  0  0  0  0  0  0  0
  144.8145  142.6713  155.8134 C   0  0  0  0  0  0  0  0  0  0  0  0
  145.7243  141.6204  155.6819 N   0  0  0  0  0  0  0  0  0  0  0  0
  146.4531  141.7106  154.5656 C   0  0  0  0  0  0  0  0  0  0  0  0
  147.4490  140.6752  154.1342 C   0  0  1  0  0  0  0  0  0  0  0  0
  147.0240  139.9700  152.8381 C   0  0  0  0  0  0  0  0  0  0  0  0
  148.8992  141.2081  154.0834 C   0  0  0  0  0  0  0  0  0  0  0  0
  149.2073  142.0639  155.2277 N   0  0  0  0  0  0  0  0  0  0  0  0
  150.1709  141.8335  156.1308 C   0  0  0  0  0  0  0  0  0  0  0  0
  150.8393  140.8011  156.1827 O   0  0  0  0  0  0  0  0  0  0  0  0
  150.3614  142.8908  156.9312 N   0  0  0  0  0  0  0  0  0  0  0  0
  151.4483  143.0221  157.8964 C   0  0  1  0  0  0  0  0  0  0  0  0
  151.2596  144.3090  158.7292 C   0  0  0  0  0  0  0  0  0  0  0  0
  152.3963  144.5356  159.7374 C   0  0  0  0  0  0  0  0  0  0  0  0
  152.5095  143.3939  160.7571 C   0  0  0  0  0  0  0  0  0  0  0  0
  152.8894  141.8199  159.9409 S   0  0  0  0  0  0  0  0  0  0  0  0
  151.4914  141.7679  158.7862 C   0  0  0  0  0  0  0  0  0  0  0  0
  146.0617  143.1306  153.6006 S   0  0  0  0  0  0  0  0  0  0  0  0
  143.2941  144.8959  155.4087 H   0  0  0  0  0  0  0  0  0  0  0  0
  143.4560  144.7374  153.6600 H   0  0  0  0  0  0  0  0  0  0  0  0
  144.6315  145.6870  154.5733 H   0  0  0  0  0  0  0  0  0  0  0  0
  144.1665  142.6957  156.6771 H   0  0  0  0  0  0  0  0  0  0  0  0
  147.4342  139.9067  154.9083 H   0  0  0  0  0  0  0  0  0  0  0  0
  146.0354  139.5219  152.9411 H   0  0  0  0  0  0  0  0  0  0  0  0
  147.7220  139.1741  152.5777 H   0  0  0  0  0  0  0  0  0  0  0  0
  146.9888  140.6672  152.0004 H   0  0  0  0  0  0  0  0  0  0  0  0
  149.6006  140.3734  154.0903 H   0  0  0  0  0  0  0  0  0  0  0  0
  149.0721  141.7416  153.1471 H   0  0  0  0  0  0  0  0  0  0  0  0
  148.7122  142.9421  155.2801 H   0  0  0  0  0  0  0  0  0  0  0  0
  149.7603  143.6927  156.8116 H   0  0  0  0  0  0  0  0  0  0  0  0
  152.3929  143.0844  157.3524 H   0  0  0  0  0  0  0  0  0  0  0  0
  151.2068  145.1736  158.0662 H   0  0  0  0  0  0  0  0  0  0  0  0
  150.3052  144.2743  159.2564 H   0  0  0  0  0  0  0  0  0  0  0  0
  153.3421  144.6534  159.2073 H   0  0  0  0  0  0  0  0  0  0  0  0
  152.2237  145.4737  160.2656 H   0  0  0  0  0  0  0  0  0  0  0  0
  153.2958  143.6106  161.4804 H   0  0  0  0  0  0  0  0  0  0  0  0
  151.5795  143.2894  161.3167 H   0  0  0  0  0  0  0  0  0  0  0  0
  150.5668  141.6694  159.3565 H   0  0  0  0  0  0  0  0  0  0  0  0
  151.5876  140.8701  158.1749 H   0  0  0  0  0  0  0  0  0  0  0  0
  1  2  1  0  0  0  0
  1 20  1  0  0  0  0
  1 21  1  0  0  0  0
  1 22  1  0  0  0  0
  2 19  1  0  0  0  0
  2  3  2  0  0  0  0
  3  4  1  0  0  0  0
  3 23  1  0  0  0  0
  4  5  2  0  0  0  0
  5  6  1  0  0  0  0
  5 19  1  0  0  0  0
  6  7  1  0  0  0  0
  6  8  1  0  0  0  0
  6 24  1  0  0  0  0
  7 25  1  0  0  0  0
  7 26  1  0  0  0  0
  7 27  1  0  0  0  0
  8  9  1  0  0  0  0
  8 28  1  0  0  0  0
  8 29  1  0  0  0  0
  9 10  1  0  0  0  0
  9 30  1  0  0  0  0
 10 11  2  0  0  0  0
 10 12  1  0  0  0  0
 12 13  1  0  0  0  0
 12 31  1  0  0  0  0
 13 18  1  0  0  0  0
 13 14  1  0  0  0  0
 13 32  1  0  0  0  0
 14 15  1  0  0  0  0
 14 33  1  0  0  0  0
 14 34  1  0  0  0  0
 15 16  1  0  0  0  0
 15 35  1  0  0  0  0
 15 36  1  0  0  0  0
 16 17  1  0  0  0  0
 16 37  1  0  0  0  0
 16 38  1  0  0  0  0
 17 18  1  0  0  0  0
 18 39  1  0  0  0  0
 18 40  1  0  0  0  0
M  END
> <s_m_source_file>
AV-unprocessed.smi

> <i_m_source_file_index>
2474

> <i_lp_mmshare_version>
43012

> <i_f3d_flags>
0

> <s_epik_input>
W0NIM11jMVtjSF1uYyhzMSlbQ0BIXShbQ0gzXSlbQ0gyXVtOSF1DKD1PKVtOSF1bQ0BASF0yW0NIMl1bQ0gyXVtDSDJdU1tDSDJdMg==

> <s_epik_cmdline>
J2VwaWtfcHl0aG9uJywgJy1waCcsICc3LjAnLCAnLXRuJywgJzgnLCAnLW1hJywgJzIwMCcsICctbWV0YWxfYmluZGluZycsICctaW1hZScsICc8aW5maWxlLm1hZT4nLCAnLW9tYWUnLCAnPG91dGZpbGUubWFlPic=

> <r_epik_Ionization_Penalty>
0.000644338

> <r_epik_Ionization_Penalty_Charging>
0

> <r_epik_Ionization_Penalty_Neutral>
0.000644338

> <r_epik_State_Penalty>
0.000374131

> <r_epik_Charging_Adjusted_Penalty>
0.000374131

> <i_epik_Tot_Q>
0

> <i_epik_Tot_abs_Q>
0

> <r_epik_Metal_State_Penalty>
-0

> <b_epik_Metal_Only>
0

> <s_lp_Force_Field>
OPLS_2005

> <r_lp_Energy>
-6.83814

> <b_lp_Chiralities_Consistent>
1

> <s_lp_Variant>
AV-unprocessed.smi:2474-4

> <Gold.Version>
5.8.1

> <Gold.Id.Protein>
6NUR|6NUR_protein|mol2

> <Gold.PLP.Fitness>
48.8344

> <Gold.PLP.PLP>
-43.2269

> <Gold.PLP.part.hbond>
-2.0000

> <Gold.PLP.part.metal>
0.0000

> <Gold.PLP.part.buried>
-5.6813

> <Gold.PLP.part.nonpolar>
-35.5873

> <Gold.PLP.part.repulsive>
0.3435

> <Gold.PLP.ligand.clash>
0.0000

> <Gold.PLP.ligand.torsion>
0.2009

> <Gold.PLP.Chemscore.Hbond>
1.9600

> <Gold.PLP.Chemscore.CHOScore>
0.0000

> <Gold.PLP.Chemscore.Metal>
0.0000

> <Gold.Chemscore.Hbonds>
donor molecule, donor type, donor heavy atom, donor atom, acceptor molecule, acceptor atom, score
      L1  H     9    30       P1  8028  0.91
      L1  H    12    31       P1  8028  0.94

> <Gold.PLP.Chemscore.Internal.Correction>
0.1293

> <Gold.Rescore>
     Score         DG    S(hbond)    S(metal)    S(lipo)     H(rot)  DE(clash)    DE(int)     intcor
     19.97     -21.80       1.88        0.00     117.76       1.46       0.19       1.65       ----

> <Gold.Chemscore.Fitness>
19.9702

> <Gold.Chemscore.DG>
-21.8046

> <Gold.Chemscore.ZeroCoef>
-5.4800

> <Gold.Chemscore.Hbond>
1.8826

> <Gold.Chemscore.Metal>
0.0000

> <Gold.Chemscore.Lipo>
117.7622

> <Gold.Chemscore.Internal_Hbond>
0.0000

> <Gold.Chemscore.DEClash>
0.1865

> <Gold.Chemscore.DEInternal>
1.6478

> <Gold.Chemscore.Rot>
1.4616

> <Gold.Chemscore.Internal.Correction>
   9.000000E+99

> <Gold.Chemscore.Hbonds>
donor molecule, donor type, donor heavy atom, donor atom, acceptor molecule, acceptor atom, score
      L1  H     9    30       P1  8028  0.88
      L1  H    12    31       P1  8028  0.90

> <Gold.Chemscore.Hbond.Weighted>
-6.2880

> <Gold.Chemscore.Metal.Weighted>
-0.0000

> <Gold.Chemscore.Lipo.Weighted>
-13.7782

> <Gold.Chemscore.Internal_Hbond.Weighted>
0.0000

> <Gold.Chemscore.DEClash.Weighted>
0.1865

> <Gold.Chemscore.DEInternal.Weighted>
1.6478

> <Gold.Chemscore.Rot.Weighted>
3.7416

> <Gold.Chemscore.Internal.Correction.Weighted>
   9.000000E+99

> <Gold.Protein.RotatedTorsions>
[ 6907 6896 6895 6894 ] final   93.60 input  -60.11 | X-H torsion
[ 7974 7965 7964 7962 ] final  -45.36 input  175.53 | X-H torsion
[ 8008 7997 7996 7995 ] final  179.90 input   59.86 | X-H torsion
[ 10167 10162 10161 10158 ] final   86.92 input  -65.29 | X-H torsion
[ 10718 10713 10712 10709 ] final  159.73 input   66.30 | X-H torsion
[ 10763 10752 10751 10750 ] final -104.40 input  -60.55 | X-H torsion
[ 11005 11000 10999 10996 ] final  -40.44 input  -57.11 | X-H torsion

> <Gold.Protein.ActiveResidues>
 VAL166  LYS551  ARG553  GLY616  TRP617  ASP618  TYR619  PRO620  LYS621  CYS622 
 ASP623  PHE694  ASN695  SER759  ASP760  ASP761  ALA762  ILE779  LEU786  VAL792 
 PHE793  MET794  SER795  GLU796  ALA797  LYS798  CYS799  TRP800  GLU811  SER814 

> <Gold.Protein.RotatedAtoms>
  152.5452  134.1322  159.8443 H   0  0  0  0  0  0  0  0  0  0  0  0  # atno 6907 bound_to 6896
  151.1367  133.4992  159.2605 H   0  0  0  0  0  0  0  0  0  0  0  0  # atno 6908 bound_to 6896
  151.1617  135.0286  159.8768 H   0  0  0  0  0  0  0  0  0  0  0  0  # atno 6909 bound_to 6896
  145.9828  140.7265  142.9355 H   0  0  0  0  0  0  0  0  0  0  0  0  # atno 7974 bound_to 7965
  156.0381  140.1297  157.0185 H   0  0  0  0  0  0  0  0  0  0  0  0  # atno 8008 bound_to 7997
  154.4379  140.1036  156.6268 H   0  0  0  0  0  0  0  0  0  0  0  0  # atno 8009 bound_to 7997
  155.5707  140.3466  155.4516 H   0  0  0  0  0  0  0  0  0  0  0  0  # atno 8010 bound_to 7997
  139.8826  144.6431  150.8826 H   0  0  0  0  0  0  0  0  0  0  0  0  # atno 10167 bound_to 10162
  157.1602  131.0585  151.2236 H   0  0  0  0  0  0  0  0  0  0  0  0  # atno 10718 bound_to 10713
  154.7875  135.4788  153.9979 H   0  0  0  0  0  0  0  0  0  0  0  0  # atno 10763 bound_to 10752
  153.1582  135.6804  153.8788 H   0  0  0  0  0  0  0  0  0  0  0  0  # atno 10764 bound_to 10752
  153.8411  135.3179  155.3404 H   0  0  0  0  0  0  0  0  0  0  0  0  # atno 10765 bound_to 10752
  141.0175  133.6878  156.2322 H   0  0  0  0  0  0  0  0  0  0  0  0  # atno 11005 bound_to 11000
  144.6866  140.2938  143.7274 LP  0  0  0  0  0  0  0  0  0  0  0  0  # atno 17320 bound_to 7965
  145.7744  139.1868  143.2194 LP  0  0  0  0  0  0  0  0  0  0  0  0  # atno 17321 bound_to 7965
  140.7741  143.3573  151.1896 LP  0  0  0  0  0  0  0  0  0  0  0  0  # atno 17342 bound_to 10162
  139.7182  143.9267  152.2975 LP  0  0  0  0  0  0  0  0  0  0  0  0  # atno 17343 bound_to 10162
  157.4139  130.7400  149.6860 LP  0  0  0  0  0  0  0  0  0  0  0  0  # atno 17370 bound_to 10713
  155.9755  130.4088  150.3845 LP  0  0  0  0  0  0  0  0  0  0  0  0  # atno 17371 bound_to 10713
  140.6630  134.4948  157.5584 LP  0  0  0  0  0  0  0  0  0  0  0  0  # atno 17394 bound_to 11000
  139.9126  134.8313  156.1476 LP  0  0  0  0  0  0  0  0  0  0  0  0  # atno 17395 bound_to 11000

$$$$
