AV-unprocessed.smi:69|AV-procd|sdf|658|dock3
  -GOLD-   2262016563D 1   1.00000     0.00000
 Structure written by MMmdl.
 32 34  0  0  0  0  0  0  0  0  1 V2000
  152.7821  139.4696  158.7098 N   0  0  0  0  0  0  0  0  0  0  0  0
  152.3220  139.5994  157.4577 C   0  0  0  0  0  0  0  0  0  0  0  0
  153.0254  139.0283  156.4519 N   0  0  0  0  0  0  0  0  0  0  0  0
  152.5883  139.1451  155.1938 C   0  0  0  0  0  0  0  0  0  0  0  0
  151.4996  139.7736  154.7425 N   0  0  0  0  0  0  0  0  0  0  0  0
  150.7906  140.3480  155.7582 C   0  0  0  0  0  0  0  0  0  0  0  0
  151.1353  140.3065  157.1377 C   0  0  0  0  0  0  0  0  0  0  0  0
  150.1898  140.9980  157.8826 N   0  0  0  0  0  0  0  0  0  0  0  0
  149.3366  141.4234  156.9896 C   0  0  0  0  0  0  0  0  0  0  0  0
  149.6190  141.0745  155.6865 N   0  0  0  0  0  0  0  0  0  0  0  0
  148.8359  141.4149  154.4591 C   0  0  1  0  0  0  0  0  0  0  0  0
  148.5888  140.2313  153.7651 O   0  0  0  0  0  0  0  0  0  0  0  0
  147.2544  140.2325  153.2727 C   0  0  1  0  0  0  0  0  0  0  0  0
  146.7825  138.7871  153.0526 C   0  0  0  0  0  0  0  0  0  0  0  0
  147.4014  138.2444  151.9059 O   0  0  0  0  0  0  0  0  0  0  0  0
  146.4930  140.9626  154.3806 C   0  0  2  0  0  0  0  0  0  0  0  0
  145.2503  141.4801  153.9417 O   0  0  0  0  0  0  0  0  0  0  0  0
  147.4791  142.0416  154.8261 C   0  0  2  0  0  0  0  0  0  0  0  0
  147.2822  143.2637  154.1374 O   0  0  0  0  0  0  0  0  0  0  0  0
  149.4876  142.0731  153.8815 H   0  0  0  0  0  0  0  0  0  0  0  0
  147.2093  140.8134  152.3491 H   0  0  0  0  0  0  0  0  0  0  0  0
  146.3086  140.2800  155.2102 H   0  0  0  0  0  0  0  0  0  0  0  0
  147.4096  142.2317  155.8982 H   0  0  0  0  0  0  0  0  0  0  0  0
  152.2755  139.8871  159.4773 H   0  0  0  0  0  0  0  0  0  0  0  0
  153.6349  138.9577  158.8830 H   0  0  0  0  0  0  0  0  0  0  0  0
  153.1969  138.6662  154.4411 H   0  0  0  0  0  0  0  0  0  0  0  0
  148.4686  142.0068  157.2607 H   0  0  0  0  0  0  0  0  0  0  0  0
  146.9855  138.1663  153.9263 H   0  0  0  0  0  0  0  0  0  0  0  0
  145.7057  138.7652  152.8834 H   0  0  0  0  0  0  0  0  0  0  0  0
  147.9365  137.5121  152.1712 H   0  0  0  0  0  0  0  0  0  0  0  0
  144.8425  140.8405  153.3777 H   0  0  0  0  0  0  0  0  0  0  0  0
  147.9083  143.8931  154.4619 H   0  0  0  0  0  0  0  0  0  0  0  0
  1  2  1  0  0  0  0
  1 24  1  0  0  0  0
  1 25  1  0  0  0  0
  2  7  1  0  0  0  0
  2  3  2  0  0  0  0
  3  4  1  0  0  0  0
  4  5  2  0  0  0  0
  4 26  1  0  0  0  0
  5  6  1  0  0  0  0
  6 10  1  0  0  0  0
  6  7  2  0  0  0  0
  7  8  1  0  0  0  0
  8  9  2  0  0  0  0
  9 10  1  0  0  0  0
  9 27  1  0  0  0  0
 10 11  1  0  0  0  0
 11 20  1  0  0  0  0
 11 18  1  0  0  0  0
 11 12  1  0  0  0  0
 12 13  1  0  0  0  0
 13 21  1  0  0  0  0
 13 14  1  0  0  0  0
 13 16  1  0  0  0  0
 14 15  1  0  0  0  0
 14 28  1  0  0  0  0
 14 29  1  0  0  0  0
 15 30  1  0  0  0  0
 16 22  1  0  0  0  0
 16 17  1  0  0  0  0
 16 18  1  0  0  0  0
 17 31  1  0  0  0  0
 18 23  1  0  0  0  0
 18 19  1  0  0  0  0
 19 32  1  0  0  0  0
M  END
> <s_m_source_file>
AV-unprocessed.smi

> <i_m_source_file_index>
69

> <i_lp_mmshare_version>
43012

> <i_f3d_flags>
0

> <s_epik_input>
bjFbY0hdbmMoW05IMl0pYyhjMTIpbltjSF1uMltDQEBIXTNPW0NASF0oW0NIMl1bT0hdKVtDQEBIXShbT0hdKVtDQEhdM1tPSF0=

> <s_epik_cmdline>
J2VwaWtfcHl0aG9uJywgJy1waCcsICc3LjAnLCAnLXRuJywgJzgnLCAnLW1hJywgJzIwMCcsICctbWV0YWxfYmluZGluZycsICctaW1hZScsICc8aW5maWxlLm1hZT4nLCAnLW9tYWUnLCAnPG91dGZpbGUubWFlPic=

> <r_lp_tautomer_probability>
1

> <r_epik_Ionization_Penalty>
0.000428445

> <r_epik_Ionization_Penalty_Charging>
0

> <r_epik_Ionization_Penalty_Neutral>
0.000428445

> <r_epik_State_Penalty>
-0

> <r_epik_Charging_Adjusted_Penalty>
0

> <i_epik_Tot_Q>
0

> <i_epik_Tot_abs_Q>
0

> <r_epik_Metal_State_Penalty>
-0

> <b_epik_Metal_Only>
0

> <s_epik_Chemistry_Notes>
This compound contains an acetal/aminal-like group ( X-CH(R)-Y where X, Y are N, S, or O) that may be acid/base labile, releasing an aldehyde.

> <s_lp_Force_Field>
OPLS_2005

> <r_lp_Energy>
38.6546

> <b_lp_Chiralities_Consistent>
1

> <s_lp_Variant>
AV-unprocessed.smi:69-16

> <Gold.Version>
5.8.1

> <Gold.Id.Protein>
6NUR|6NUR_protein|mol2

> <Gold.PLP.Fitness>
41.6094

> <Gold.PLP.PLP>
-26.7239

> <Gold.PLP.part.hbond>
-7.0374

> <Gold.PLP.part.metal>
0.0000

> <Gold.PLP.part.buried>
0.9913

> <Gold.PLP.part.nonpolar>
-22.6291

> <Gold.PLP.part.repulsive>
2.2864

> <Gold.PLP.ligand.clash>
0.0000

> <Gold.PLP.ligand.torsion>
0.1999

> <Gold.PLP.Chemscore.Hbond>
5.0908

> <Gold.PLP.Chemscore.CHOScore>
0.0000

> <Gold.PLP.Chemscore.Metal>
0.0000

> <Gold.Chemscore.Hbonds>
donor molecule, donor type, donor heavy atom, donor atom, acceptor molecule, acceptor atom, score
      L1  H    15    30       P1  7948  1.00
      L1  H    17    31       P1 10175  0.86
      L1  H    19    32       P1  8028  1.00
      P1  H  7954  7966       L1    15  0.19
      P1  H  7989  7998       L1     5  1.00
      P1  H  7997  8009       L1     3  0.90

> <Gold.PLP.Chemscore.Internal.Correction>
0.0131

> <Gold.Rescore>
     Score         DG    S(hbond)    S(metal)    S(lipo)     H(rot)  DE(clash)    DE(int)     intcor
      7.73      -8.69       3.10        0.00      27.09       4.03       0.80       0.17       ----

> <Gold.Chemscore.Fitness>
7.7286

> <Gold.Chemscore.DG>
-8.6916

> <Gold.Chemscore.ZeroCoef>
-5.4800

> <Gold.Chemscore.Hbond>
3.0997

> <Gold.Chemscore.Metal>
0.0000

> <Gold.Chemscore.Lipo>
27.0897

> <Gold.Chemscore.Internal_Hbond>
0.0000

> <Gold.Chemscore.DEClash>
0.7962

> <Gold.Chemscore.DEInternal>
0.1668

> <Gold.Chemscore.Rot>
4.0277

> <Gold.Chemscore.Internal.Correction>
   9.000000E+99

> <Gold.Chemscore.Hbonds>
donor molecule, donor type, donor heavy atom, donor atom, acceptor molecule, acceptor atom, score
      L1  H    15    30       P1  7948  0.95
      L1  H    17    31       P1 10175  0.63
      L1  H    19    32       P1  8028  0.34
      P1  H  7989  7998       L1     5  0.67
      P1  H  7997  8009       L1     3  0.06

> <Gold.Chemscore.Hbond.Weighted>
-10.3531

> <Gold.Chemscore.Metal.Weighted>
-0.0000

> <Gold.Chemscore.Lipo.Weighted>
-3.1695

> <Gold.Chemscore.Internal_Hbond.Weighted>
0.0000

> <Gold.Chemscore.DEClash.Weighted>
0.7962

> <Gold.Chemscore.DEInternal.Weighted>
0.1668

> <Gold.Chemscore.Rot.Weighted>
10.3110

> <Gold.Chemscore.Internal.Correction.Weighted>
   9.000000E+99

> <Gold.Protein.RotatedTorsions>
[ 6907 6896 6895 6894 ] final  -78.16 input  -60.11 | X-H torsion
[ 7974 7965 7964 7962 ] final  140.33 input  175.53 | X-H torsion
[ 8008 7997 7996 7995 ] final -169.54 input   59.86 | X-H torsion
[ 10167 10162 10161 10158 ] final   74.65 input  -65.29 | X-H torsion
[ 10718 10713 10712 10709 ] final  -58.48 input   66.30 | X-H torsion
[ 10763 10752 10751 10750 ] final -171.14 input  -60.55 | X-H torsion
[ 11005 11000 10999 10996 ] final -163.80 input  -57.11 | X-H torsion

> <Gold.Protein.ActiveResidues>
 VAL166  LYS551  ARG553  GLY616  TRP617  ASP618  TYR619  PRO620  LYS621  CYS622 
 ASP623  PHE694  ASN695  SER759  ASP760  ASP761  ALA762  ILE779  LEU786  VAL792 
 PHE793  MET794  SER795  GLU796  ALA797  LYS798  CYS799  TRP800  GLU811  SER814 

> <Gold.Protein.RotatedAtoms>
  150.6980  134.4314  159.5249 H   0  0  0  0  0  0  0  0  0  0  0  0  # atno 6907 bound_to 6896
  152.2040  134.8559  160.0514 H   0  0  0  0  0  0  0  0  0  0  0  0  # atno 6908 bound_to 6896
  151.9469  133.3619  159.4022 H   0  0  0  0  0  0  0  0  0  0  0  0  # atno 6909 bound_to 6896
  144.9197  139.5184  143.5669 H   0  0  0  0  0  0  0  0  0  0  0  0  # atno 7974 bound_to 7965
  155.9064  140.1050  157.1312 H   0  0  0  0  0  0  0  0  0  0  0  0  # atno 8008 bound_to 7997
  154.4033  140.1283  156.4565 H   0  0  0  0  0  0  0  0  0  0  0  0  # atno 8009 bound_to 7997
  155.7362  140.3467  155.5085 H   0  0  0  0  0  0  0  0  0  0  0  0  # atno 8010 bound_to 7997
  140.0114  144.5611  150.7655 H   0  0  0  0  0  0  0  0  0  0  0  0  # atno 10167 bound_to 10162
  156.1132  130.4173  150.0583 H   0  0  0  0  0  0  0  0  0  0  0  0  # atno 10718 bound_to 10713
  154.6338  135.2890  155.0185 H   0  0  0  0  0  0  0  0  0  0  0  0  # atno 10763 bound_to 10752
  154.1337  135.6529  153.4931 H   0  0  0  0  0  0  0  0  0  0  0  0  # atno 10764 bound_to 10752
  153.0292  135.5316  154.7176 H   0  0  0  0  0  0  0  0  0  0  0  0  # atno 10765 bound_to 10752
  140.5940  134.5015  157.5197 H   0  0  0  0  0  0  0  0  0  0  0  0  # atno 11005 bound_to 11000
  146.3198  139.8066  142.8954 LP  0  0  0  0  0  0  0  0  0  0  0  0  # atno 17320 bound_to 7965
  145.3317  141.0268  143.3442 LP  0  0  0  0  0  0  0  0  0  0  0  0  # atno 17321 bound_to 7965
  140.7380  143.2772  151.3705 LP  0  0  0  0  0  0  0  0  0  0  0  0  # atno 17342 bound_to 10162
  139.6202  144.0921  152.2384 LP  0  0  0  0  0  0  0  0  0  0  0  0  # atno 17343 bound_to 10162
  156.8540  130.9469  151.3623 LP  0  0  0  0  0  0  0  0  0  0  0  0  # atno 17370 bound_to 10713
  157.6314  130.8732  149.9281 LP  0  0  0  0  0  0  0  0  0  0  0  0  # atno 17371 bound_to 10713
  139.9261  134.8053  156.1064 LP  0  0  0  0  0  0  0  0  0  0  0  0  # atno 17394 bound_to 11000
  141.0916  133.6712  156.2553 LP  0  0  0  0  0  0  0  0  0  0  0  0  # atno 17395 bound_to 11000

$$$$
