AV-unprocessed.smi:86|AV-procd|sdf|816|dock7
  -GOLD-   2262017213D 1   1.00000     0.00000
 Structure written by MMmdl.
 51 55  0  0  0  0  0  0  0  0  1 V2000
  153.0870  136.7479  165.3441 O   0  0  0  0  0  0  0  0  0  0  0  0
  152.9378  136.7570  163.9387 C   0  0  0  0  0  0  0  0  0  0  0  0
  153.9162  135.7805  163.2617 C   0  0  0  0  0  0  0  0  0  0  0  0
  153.7951  135.8525  161.7248 C   0  0  0  0  0  0  0  0  0  0  0  0
  153.7315  137.2047  161.1904 N   0  0  0  0  0  0  0  0  0  0  0  0
  154.6430  138.2127  161.4045 C   0  0  0  0  0  0  0  0  0  0  0  0
  154.3669  139.3441  160.8179 N   0  0  0  0  0  0  0  0  0  0  0  0
  153.1815  139.1007  160.1318 C   0  0  0  0  0  0  0  0  0  0  0  0
  152.3302  139.8797  159.2908 C   0  0  0  0  0  0  0  0  0  0  0  0
  152.5419  141.1820  158.9659 N   0  0  0  0  0  0  0  0  0  0  0  0
  153.6092  141.9732  159.5737 C   0  0  0  0  0  0  0  0  0  0  0  0
  153.1362  143.4333  159.5022 C   0  0  2  0  0  0  0  0  0  0  0  0
  152.4397  143.8582  160.8141 C   0  0  0  0  0  0  0  0  0  0  0  0
  151.6258  145.1480  160.6482 C   0  0  0  0  0  0  0  0  0  0  0  0
  150.5691  144.9750  159.5468 C   0  0  1  0  0  0  0  0  0  0  0  0
  149.8312  146.1708  159.4101 O   0  0  0  0  0  0  0  0  0  0  0  0
  151.2316  144.6264  158.2038 C   0  0  0  0  0  0  0  0  0  0  0  0
  152.1768  143.4128  158.3002 C   0  0  2  0  0  0  0  0  0  0  0  0
  151.5076  142.0417  158.4122 C   0  0  0  0  0  0  0  0  0  0  0  0
  151.2223  139.2681  158.7948 N   0  0  0  0  0  0  0  0  0  0  0  0
  150.9626  137.9904  159.0834 C   0  0  0  0  0  0  0  0  0  0  0  0
  151.6644  137.1491  159.8426 N   0  0  0  0  0  0  0  0  0  0  0  0
  152.7735  137.7528  160.3549 C   0  0  0  0  0  0  0  0  0  0  0  0
  155.3466  135.8159  163.8176 C   0  0  0  0  0  0  0  0  0  0  0  0
  155.1208  134.6432  164.6275 O   0  0  0  0  0  0  0  0  0  0  0  0
  153.9227  134.3710  163.8711 C   0  0  0  0  0  0  0  0  0  0  0  0
  153.3275  137.6176  165.6255 H   0  0  0  0  0  0  0  0  0  0  0  0
  151.9068  136.4827  163.7126 H   0  0  0  0  0  0  0  0  0  0  0  0
  153.0634  137.7753  163.5702 H   0  0  0  0  0  0  0  0  0  0  0  0
  154.6366  135.3418  161.2552 H   0  0  0  0  0  0  0  0  0  0  0  0
  152.9071  135.3185  161.3844 H   0  0  0  0  0  0  0  0  0  0  0  0
  155.5210  138.0839  162.0206 H   0  0  0  0  0  0  0  0  0  0  0  0
  153.8229  141.6738  160.6006 H   0  0  0  0  0  0  0  0  0  0  0  0
  154.5184  141.8353  158.9877 H   0  0  0  0  0  0  0  0  0  0  0  0
  153.9729  144.1068  159.3123 H   0  0  0  0  0  0  0  0  0  0  0  0
  151.7720  143.0657  161.1552 H   0  0  0  0  0  0  0  0  0  0  0  0
  153.1829  143.9865  161.6016 H   0  0  0  0  0  0  0  0  0  0  0  0
  151.1436  145.4009  161.5933 H   0  0  0  0  0  0  0  0  0  0  0  0
  152.2931  145.9763  160.4057 H   0  0  0  0  0  0  0  0  0  0  0  0
  149.8723  144.1856  159.8300 H   0  0  0  0  0  0  0  0  0  0  0  0
  149.3413  146.1309  158.6030 H   0  0  0  0  0  0  0  0  0  0  0  0
  150.4735  144.4489  157.4400 H   0  0  0  0  0  0  0  0  0  0  0  0
  151.8112  145.4854  157.8622 H   0  0  0  0  0  0  0  0  0  0  0  0
  152.7830  143.3943  157.3928 H   0  0  0  0  0  0  0  0  0  0  0  0
  151.1682  141.6881  157.4383 H   0  0  0  0  0  0  0  0  0  0  0  0
  150.6544  142.0685  159.0907 H   0  0  0  0  0  0  0  0  0  0  0  0
  150.0634  137.5849  158.6437 H   0  0  0  0  0  0  0  0  0  0  0  0
  156.1186  135.6459  163.0652 H   0  0  0  0  0  0  0  0  0  0  0  0
  155.5728  136.7011  164.4131 H   0  0  0  0  0  0  0  0  0  0  0  0
  153.0620  134.1564  164.5056 H   0  0  0  0  0  0  0  0  0  0  0  0
  154.0827  133.5701  163.1483 H   0  0  0  0  0  0  0  0  0  0  0  0
  1  2  1  0  0  0  0
  1 27  1  0  0  0  0
  2  3  1  0  0  0  0
  2 28  1  0  0  0  0
  2 29  1  0  0  0  0
  3 26  1  0  0  0  0
  3  4  1  0  0  0  0
  3 24  1  0  0  0  0
  4  5  1  0  0  0  0
  4 30  1  0  0  0  0
  4 31  1  0  0  0  0
  5 23  1  0  0  0  0
  5  6  1  0  0  0  0
  6  7  2  0  0  0  0
  6 32  1  0  0  0  0
  7  8  1  0  0  0  0
  8 23  2  0  0  0  0
  8  9  1  0  0  0  0
  9 10  1  0  0  0  0
  9 20  2  0  0  0  0
 10 19  1  0  0  0  0
 10 11  1  0  0  0  0
 11 12  1  0  0  0  0
 11 33  1  0  0  0  0
 11 34  1  0  0  0  0
 12 18  1  0  0  0  0
 12 13  1  0  0  0  0
 12 35  1  0  0  0  0
 13 14  1  0  0  0  0
 13 36  1  0  0  0  0
 13 37  1  0  0  0  0
 14 15  1  0  0  0  0
 14 38  1  0  0  0  0
 14 39  1  0  0  0  0
 15 16  1  0  0  0  0
 15 17  1  0  0  0  0
 15 40  1  0  0  0  0
 16 41  1  0  0  0  0
 17 18  1  0  0  0  0
 17 42  1  0  0  0  0
 17 43  1  0  0  0  0
 18 19  1  0  0  0  0
 18 44  1  0  0  0  0
 19 45  1  0  0  0  0
 19 46  1  0  0  0  0
 20 21  1  0  0  0  0
 21 22  2  0  0  0  0
 21 47  1  0  0  0  0
 22 23  1  0  0  0  0
 24 25  1  0  0  0  0
 24 48  1  0  0  0  0
 24 49  1  0  0  0  0
 25 26  1  0  0  0  0
 26 50  1  0  0  0  0
 26 51  1  0  0  0  0
M  END
> <s_m_source_file>
AV-unprocessed.smi

> <i_m_source_file_index>
86

> <i_lp_mmshare_version>
43012

> <i_f3d_flags>
0

> <s_epik_input>
W0NIMl0xT1tDSDJdQzEoW0NIMl1bT0hdKVtDSDJdbihbY0hdbjIpYyhjMjMpbltjSF1uYzNOKFtDSDJdNClbQ0gyXVtDQEBIXShbQ0BIXTQ1KVtDSDJdW0NASF0oW09IXSlbQ0gyXVtDSDJdNQ==

> <s_epik_cmdline>
J2VwaWtfcHl0aG9uJywgJy1waCcsICc3LjAnLCAnLXRuJywgJzgnLCAnLW1hJywgJzIwMCcsICctbWV0YWxfYmluZGluZycsICctaW1hZScsICc8aW5maWxlLm1hZT4nLCAnLW9tYWUnLCAnPG91dGZpbGUubWFlPic=

> <r_lp_tautomer_probability>
1

> <r_epik_Ionization_Penalty>
0.00425795

> <r_epik_Ionization_Penalty_Charging>
0

> <r_epik_Ionization_Penalty_Neutral>
0.00425795

> <r_epik_State_Penalty>
0.00299946

> <r_epik_Charging_Adjusted_Penalty>
0.00299946

> <i_epik_Tot_Q>
0

> <i_epik_Tot_abs_Q>
0

> <r_epik_Metal_State_Penalty>
-0

> <b_epik_Metal_Only>
0

> <s_lp_Force_Field>
OPLS_2005

> <r_lp_Energy>
53.5956

> <b_lp_Chiralities_Consistent>
1

> <s_lp_Variant>
AV-unprocessed.smi:86-5

> <Gold.Version>
5.8.1

> <Gold.Id.Protein>
6NUR|6NUR_protein|mol2

> <Gold.PLP.Fitness>
56.7717

> <Gold.PLP.PLP>
-51.1450

> <Gold.PLP.part.hbond>
-6.2356

> <Gold.PLP.part.metal>
0.0000

> <Gold.PLP.part.buried>
-3.1540

> <Gold.PLP.part.nonpolar>
-41.9590

> <Gold.PLP.part.repulsive>
0.0815

> <Gold.PLP.ligand.clash>
0.0000

> <Gold.PLP.ligand.torsion>
0.4203

> <Gold.PLP.Chemscore.Hbond>
2.0000

> <Gold.PLP.Chemscore.CHOScore>
0.0000

> <Gold.PLP.Chemscore.Metal>
0.0000

> <Gold.Chemscore.Hbonds>
donor molecule, donor type, donor heavy atom, donor atom, acceptor molecule, acceptor atom, score
      L1  H    16    41       P1  8029  1.00
      P1  H  6896  6908       L1    22  1.00

> <Gold.PLP.Chemscore.Internal.Correction>
0.4673

> <Gold.Rescore>
     Score         DG    S(hbond)    S(metal)    S(lipo)     H(rot)  DE(clash)    DE(int)     intcor
     13.37     -20.09       1.97        0.00     129.12       2.76       4.27       2.45       ----

> <Gold.Chemscore.Fitness>
13.3713

> <Gold.Chemscore.DG>
-20.0879

> <Gold.Chemscore.ZeroCoef>
-5.4800

> <Gold.Chemscore.Hbond>
1.9682

> <Gold.Chemscore.Metal>
0.0000

> <Gold.Chemscore.Lipo>
129.1244

> <Gold.Chemscore.Internal_Hbond>
0.0000

> <Gold.Chemscore.DEClash>
4.2663

> <Gold.Chemscore.DEInternal>
2.4503

> <Gold.Chemscore.Rot>
2.7630

> <Gold.Chemscore.Internal.Correction>
   9.000000E+99

> <Gold.Chemscore.Hbonds>
donor molecule, donor type, donor heavy atom, donor atom, acceptor molecule, acceptor atom, score
      L1  H    16    41       P1  8029  0.98
      P1  H  6896  6908       L1    22  0.88

> <Gold.Chemscore.Hbond.Weighted>
-6.5737

> <Gold.Chemscore.Metal.Weighted>
-0.0000

> <Gold.Chemscore.Lipo.Weighted>
-15.1076

> <Gold.Chemscore.Internal_Hbond.Weighted>
0.0000

> <Gold.Chemscore.DEClash.Weighted>
4.2663

> <Gold.Chemscore.DEInternal.Weighted>
2.4503

> <Gold.Chemscore.Rot.Weighted>
7.0734

> <Gold.Chemscore.Internal.Correction.Weighted>
   9.000000E+99

> <Gold.Protein.RotatedTorsions>
[ 6907 6896 6895 6894 ] final -116.46 input  -60.11 | X-H torsion
[ 7974 7965 7964 7962 ] final  -24.12 input  175.53 | X-H torsion
[ 8008 7997 7996 7995 ] final  -77.17 input   59.86 | X-H torsion
[ 10167 10162 10161 10158 ] final  112.60 input  -65.29 | X-H torsion
[ 10718 10713 10712 10709 ] final -176.02 input   66.30 | X-H torsion
[ 10763 10752 10751 10750 ] final   29.13 input  -60.55 | X-H torsion
[ 11005 11000 10999 10996 ] final   31.55 input  -57.11 | X-H torsion

> <Gold.Protein.ActiveResidues>
 VAL166  LYS551  ARG553  GLY616  TRP617  ASP618  TYR619  PRO620  LYS621  CYS622 
 ASP623  PHE694  ASN695  SER759  ASP760  ASP761  ALA762  ILE779  LEU786  VAL792 
 PHE793  MET794  SER795  GLU796  ALA797  LYS798  CYS799  TRP800  GLU811  SER814 

> <Gold.Protein.RotatedAtoms>
  150.8058  133.8513  159.3206 H   0  0  0  0  0  0  0  0  0  0  0  0  # atno 6907 bound_to 6896
  151.6313  135.1021  160.0132 H   0  0  0  0  0  0  0  0  0  0  0  0  # atno 6908 bound_to 6896
  152.4148  133.6981  159.6464 H   0  0  0  0  0  0  0  0  0  0  0  0  # atno 6909 bound_to 6896
  146.1574  140.4709  142.8586 H   0  0  0  0  0  0  0  0  0  0  0  0  # atno 7974 bound_to 7965
  154.5572  140.0715  156.8761 H   0  0  0  0  0  0  0  0  0  0  0  0  # atno 8008 bound_to 7997
  155.2881  140.3376  155.4236 H   0  0  0  0  0  0  0  0  0  0  0  0  # atno 8009 bound_to 7997
  156.2012  140.1722  156.7882 H   0  0  0  0  0  0  0  0  0  0  0  0  # atno 8010 bound_to 7997
  139.6524  144.7128  151.2023 H   0  0  0  0  0  0  0  0  0  0  0  0  # atno 10167 bound_to 10162
  156.8085  130.9578  151.3116 H   0  0  0  0  0  0  0  0  0  0  0  0  # atno 10718 bound_to 10713
  153.0449  135.6496  154.0844 H   0  0  0  0  0  0  0  0  0  0  0  0  # atno 10763 bound_to 10752
  154.0544  135.2893  155.3337 H   0  0  0  0  0  0  0  0  0  0  0  0  # atno 10764 bound_to 10752
  154.6699  135.5360  153.8190 H   0  0  0  0  0  0  0  0  0  0  0  0  # atno 10765 bound_to 10752
  140.2827  134.2954  155.7796 H   0  0  0  0  0  0  0  0  0  0  0  0  # atno 11005 bound_to 11000
  144.7981  140.6162  143.6496 LP  0  0  0  0  0  0  0  0  0  0  0  0  # atno 17320 bound_to 7965
  145.4674  139.1506  143.3833 LP  0  0  0  0  0  0  0  0  0  0  0  0  # atno 17321 bound_to 7965
  140.7543  143.6128  150.8588 LP  0  0  0  0  0  0  0  0  0  0  0  0  # atno 17342 bound_to 10162
  139.9778  143.5985  152.2953 LP  0  0  0  0  0  0  0  0  0  0  0  0  # atno 17343 bound_to 10162
  157.6518  130.8890  149.9648 LP  0  0  0  0  0  0  0  0  0  0  0  0  # atno 17370 bound_to 10713
  156.1058  130.3653  150.0136 LP  0  0  0  0  0  0  0  0  0  0  0  0  # atno 17371 bound_to 10713
  141.2160  133.7535  156.9505 LP  0  0  0  0  0  0  0  0  0  0  0  0  # atno 17394 bound_to 11000
  140.1268  134.9381  157.2281 LP  0  0  0  0  0  0  0  0  0  0  0  0  # atno 17395 bound_to 11000

$$$$
