AV-unprocessed.smi:2457|AV-procd|sdf|9704|dock3
  -GOLD-   2272013343D 1   1.00000     0.00000
 Structure written by MMmdl.
 40 41  0  0  0  0  0  0  0  0  1 V2000
  144.3982  144.7451  154.3374 C   0  0  0  0  0  0  0  0  0  0  0  0
  145.1094  143.5029  154.7720 C   0  0  0  0  0  0  0  0  0  0  0  0
  144.9326  142.8178  155.9478 C   0  0  0  0  0  0  0  0  0  0  0  0
  145.9567  141.4120  156.0396 S   0  0  0  0  0  0  0  0  0  0  0  0
  146.5975  141.8106  154.4485 C   0  0  0  0  0  0  0  0  0  0  0  0
  147.5943  140.9535  153.7271 C   0  0  2  0  0  0  0  0  0  0  0  0
  146.9703  139.6452  153.2207 C   0  0  0  0  0  0  0  0  0  0  0  0
  148.8983  140.7286  154.5252 C   0  0  0  0  0  0  0  0  0  0  0  0
  149.2628  141.8972  155.3250 N   0  0  0  0  0  0  0  0  0  0  0  0
  150.3683  142.0077  156.0758 C   0  0  0  0  0  0  0  0  0  0  0  0
  151.2715  141.1717  156.1069 O   0  0  0  0  0  0  0  0  0  0  0  0
  150.3499  143.1180  156.8256 N   0  0  0  0  0  0  0  0  0  0  0  0
  151.3470  143.4602  157.8353 C   0  0  2  0  0  0  0  0  0  0  0  0
  151.6525  142.2296  158.7161 C   0  0  0  0  0  0  0  0  0  0  0  0
  152.7432  142.5104  159.7620 C   0  0  0  0  0  0  0  0  0  0  0  0
  152.3465  143.6292  160.7358 C   0  0  0  0  0  0  0  0  0  0  0  0
  152.0897  145.1993  159.8653 S   0  0  0  0  0  0  0  0  0  0  0  0
  150.8398  144.6475  158.6717 C   0  0  0  0  0  0  0  0  0  0  0  0
  146.0642  142.9225  153.9330 N   0  0  0  0  0  0  0  0  0  0  0  0
  143.8147  145.1757  155.1514 H   0  0  0  0  0  0  0  0  0  0  0  0
  143.7139  144.5367  153.5146 H   0  0  0  0  0  0  0  0  0  0  0  0
  145.1025  145.5053  153.9986 H   0  0  0  0  0  0  0  0  0  0  0  0
  144.2614  143.0510  156.7612 H   0  0  0  0  0  0  0  0  0  0  0  0
  147.8776  141.5138  152.8350 H   0  0  0  0  0  0  0  0  0  0  0  0
  146.1103  139.8429  152.5802 H   0  0  0  0  0  0  0  0  0  0  0  0
  146.6328  139.0209  154.0488 H   0  0  0  0  0  0  0  0  0  0  0  0
  147.6890  139.0661  152.6408 H   0  0  0  0  0  0  0  0  0  0  0  0
  148.7994  139.8464  155.1602 H   0  0  0  0  0  0  0  0  0  0  0  0
  149.7197  140.5165  153.8402 H   0  0  0  0  0  0  0  0  0  0  0  0
  148.5850  142.6438  155.3695 H   0  0  0  0  0  0  0  0  0  0  0  0
  149.5639  143.7442  156.7310 H   0  0  0  0  0  0  0  0  0  0  0  0
  152.2634  143.7708  157.3297 H   0  0  0  0  0  0  0  0  0  0  0  0
  150.7429  141.8948  159.2167 H   0  0  0  0  0  0  0  0  0  0  0  0
  151.9761  141.3975  158.0893 H   0  0  0  0  0  0  0  0  0  0  0  0
  152.9429  141.5983  160.3255 H   0  0  0  0  0  0  0  0  0  0  0  0
  153.6764  142.7709  159.2610 H   0  0  0  0  0  0  0  0  0  0  0  0
  151.4326  143.3640  161.2684 H   0  0  0  0  0  0  0  0  0  0  0  0
  153.1245  143.7701  161.4864 H   0  0  0  0  0  0  0  0  0  0  0  0
  150.5905  145.4900  158.0257 H   0  0  0  0  0  0  0  0  0  0  0  0
  149.9314  144.3775  159.2114 H   0  0  0  0  0  0  0  0  0  0  0  0
  1  2  1  0  0  0  0
  1 20  1  0  0  0  0
  1 21  1  0  0  0  0
  1 22  1  0  0  0  0
  2 19  1  0  0  0  0
  2  3  2  0  0  0  0
  3  4  1  0  0  0  0
  3 23  1  0  0  0  0
  4  5  1  0  0  0  0
  5  6  1  0  0  0  0
  5 19  2  0  0  0  0
  6  7  1  0  0  0  0
  6  8  1  0  0  0  0
  6 24  1  0  0  0  0
  7 25  1  0  0  0  0
  7 26  1  0  0  0  0
  7 27  1  0  0  0  0
  8  9  1  0  0  0  0
  8 28  1  0  0  0  0
  8 29  1  0  0  0  0
  9 10  1  0  0  0  0
  9 30  1  0  0  0  0
 10 11  2  0  0  0  0
 10 12  1  0  0  0  0
 12 13  1  0  0  0  0
 12 31  1  0  0  0  0
 13 18  1  0  0  0  0
 13 14  1  0  0  0  0
 13 32  1  0  0  0  0
 14 15  1  0  0  0  0
 14 33  1  0  0  0  0
 14 34  1  0  0  0  0
 15 16  1  0  0  0  0
 15 35  1  0  0  0  0
 15 36  1  0  0  0  0
 16 17  1  0  0  0  0
 16 37  1  0  0  0  0
 16 38  1  0  0  0  0
 17 18  1  0  0  0  0
 18 39  1  0  0  0  0
 18 40  1  0  0  0  0
M  END
> <s_m_source_file>
AV-unprocessed.smi

> <i_m_source_file_index>
2457

> <i_lp_mmshare_version>
43012

> <i_f3d_flags>
0

> <s_epik_input>
W0NIM11jMVtjSF1zYyhuMSlbQ0BIXShbQ0gzXSlbQ0gyXVtOSF1DKD1PKVtOSF1bQ0BASF0yW0NIMl1bQ0gyXVtDSDJdU1tDSDJdMg==

> <s_epik_cmdline>
J2VwaWtfcHl0aG9uJywgJy1waCcsICc3LjAnLCAnLXRuJywgJzgnLCAnLW1hJywgJzIwMCcsICctbWV0YWxfYmluZGluZycsICctaW1hZScsICc8aW5maWxlLm1hZT4nLCAnLW9tYWUnLCAnPG91dGZpbGUubWFlPic=

> <r_epik_Ionization_Penalty>
0.00154805

> <r_epik_Ionization_Penalty_Charging>
0

> <r_epik_Ionization_Penalty_Neutral>
0.00154805

> <r_epik_State_Penalty>
0.00100357

> <r_epik_Charging_Adjusted_Penalty>
0.00100357

> <i_epik_Tot_Q>
0

> <i_epik_Tot_abs_Q>
0

> <r_epik_Metal_State_Penalty>
-0

> <b_epik_Metal_Only>
0

> <s_lp_Force_Field>
OPLS_2005

> <r_lp_Energy>
-7.34104

> <b_lp_Chiralities_Consistent>
1

> <s_lp_Variant>
AV-unprocessed.smi:2457-1

> <Gold.Version>
5.8.1

> <Gold.Id.Protein>
6NUR|6NUR_protein|mol2

> <Gold.PLP.Fitness>
46.6748

> <Gold.PLP.PLP>
-43.2660

> <Gold.PLP.part.hbond>
-1.7275

> <Gold.PLP.part.metal>
0.0000

> <Gold.PLP.part.buried>
-4.8642

> <Gold.PLP.part.nonpolar>
-36.8418

> <Gold.PLP.part.repulsive>
0.4621

> <Gold.PLP.ligand.clash>
0.0000

> <Gold.PLP.ligand.torsion>
0.5260

> <Gold.PLP.Chemscore.Hbond>
1.4420

> <Gold.PLP.Chemscore.CHOScore>
0.0000

> <Gold.PLP.Chemscore.Metal>
0.0000

> <Gold.Chemscore.Hbonds>
donor molecule, donor type, donor heavy atom, donor atom, acceptor molecule, acceptor atom, score
      L1  H     9    30       P1  8028  0.49
      L1  H    12    31       P1  8028  0.82

> <Gold.PLP.Chemscore.Internal.Correction>
0.1348

> <Gold.Rescore>
     Score         DG    S(hbond)    S(metal)    S(lipo)     H(rot)  DE(clash)    DE(int)     intcor
     16.18     -18.10       1.00        0.00     111.30       1.46       0.01       1.91       ----

> <Gold.Chemscore.Fitness>
16.1787

> <Gold.Chemscore.DG>
-18.1001

> <Gold.Chemscore.ZeroCoef>
-5.4800

> <Gold.Chemscore.Hbond>
0.9998

> <Gold.Chemscore.Metal>
0.0000

> <Gold.Chemscore.Lipo>
111.3028

> <Gold.Chemscore.Internal_Hbond>
0.0000

> <Gold.Chemscore.DEClash>
0.0130

> <Gold.Chemscore.DEInternal>
1.9084

> <Gold.Chemscore.Rot>
1.4616

> <Gold.Chemscore.Internal.Correction>
   9.000000E+99

> <Gold.Chemscore.Hbonds>
donor molecule, donor type, donor heavy atom, donor atom, acceptor molecule, acceptor atom, score
      L1  H     9    30       P1  8028  0.48
      L1  H    12    31       P1  8028  0.78

> <Gold.Chemscore.Hbond.Weighted>
-3.3392

> <Gold.Chemscore.Metal.Weighted>
-0.0000

> <Gold.Chemscore.Lipo.Weighted>
-13.0224

> <Gold.Chemscore.Internal_Hbond.Weighted>
0.0000

> <Gold.Chemscore.DEClash.Weighted>
0.0130

> <Gold.Chemscore.DEInternal.Weighted>
1.9084

> <Gold.Chemscore.Rot.Weighted>
3.7416

> <Gold.Chemscore.Internal.Correction.Weighted>
   9.000000E+99

> <Gold.Protein.RotatedTorsions>
[ 6907 6896 6895 6894 ] final  -91.84 input  -60.11 | X-H torsion
[ 7974 7965 7964 7962 ] final -156.50 input  175.53 | X-H torsion
[ 8008 7997 7996 7995 ] final   74.48 input   59.86 | X-H torsion
[ 10167 10162 10161 10158 ] final -124.02 input  -65.29 | X-H torsion
[ 10718 10713 10712 10709 ] final -112.09 input   66.30 | X-H torsion
[ 10763 10752 10751 10750 ] final  131.76 input  -60.55 | X-H torsion
[ 11005 11000 10999 10996 ] final   65.87 input  -57.11 | X-H torsion

> <Gold.Protein.ActiveResidues>
 VAL166  LYS551  ARG553  GLY616  TRP617  ASP618  TYR619  PRO620  LYS621  CYS622 
 ASP623  PHE694  ASN695  SER759  ASP760  ASP761  ALA762  ILE779  LEU786  VAL792 
 PHE793  MET794  SER795  GLU796  ALA797  LYS798  CYS799  TRP800  GLU811  SER814 

> <Gold.Protein.RotatedAtoms>
  150.6898  134.2215  159.4398 H   0  0  0  0  0  0  0  0  0  0  0  0  # atno 6907 bound_to 6896
  152.0171  134.9841  160.0579 H   0  0  0  0  0  0  0  0  0  0  0  0  # atno 6908 bound_to 6896
  152.1433  133.4442  159.4814 H   0  0  0  0  0  0  0  0  0  0  0  0  # atno 6909 bound_to 6896
  144.7590  140.4101  143.5990 H   0  0  0  0  0  0  0  0  0  0  0  0  # atno 7974 bound_to 7965
  155.7989  140.3477  155.5391 H   0  0  0  0  0  0  0  0  0  0  0  0  # atno 8008 bound_to 7997
  155.8558  140.0963  157.1666 H   0  0  0  0  0  0  0  0  0  0  0  0  # atno 8009 bound_to 7997
  154.4009  140.1368  156.3887 H   0  0  0  0  0  0  0  0  0  0  0  0  # atno 8010 bound_to 7997
  139.9973  143.5577  152.2318 H   0  0  0  0  0  0  0  0  0  0  0  0  # atno 10167 bound_to 10162
  156.0685  130.5902  150.8461 H   0  0  0  0  0  0  0  0  0  0  0  0  # atno 10718 bound_to 10713
  153.7796  135.3170  155.3364 H   0  0  0  0  0  0  0  0  0  0  0  0  # atno 10763 bound_to 10752
  154.8166  135.4632  154.0665 H   0  0  0  0  0  0  0  0  0  0  0  0  # atno 10764 bound_to 10752
  153.1949  135.6914  153.8390 H   0  0  0  0  0  0  0  0  0  0  0  0  # atno 10765 bound_to 10752
  139.9867  134.6656  156.0163 H   0  0  0  0  0  0  0  0  0  0  0  0  # atno 11005 bound_to 11000
  145.6682  139.1594  143.2770 LP  0  0  0  0  0  0  0  0  0  0  0  0  # atno 17320 bound_to 7965
  146.1633  140.6756  142.9267 LP  0  0  0  0  0  0  0  0  0  0  0  0  # atno 17321 bound_to 7965
  139.6297  144.7642  151.2563 LP  0  0  0  0  0  0  0  0  0  0  0  0  # atno 17342 bound_to 10162
  140.7432  143.6502  150.8256 LP  0  0  0  0  0  0  0  0  0  0  0  0  # atno 17343 bound_to 10162
  157.5742  131.0946  150.9372 LP  0  0  0  0  0  0  0  0  0  0  0  0  # atno 17370 bound_to 10713
  156.9581  130.5445  149.5285 LP  0  0  0  0  0  0  0  0  0  0  0  0  # atno 17371 bound_to 10713
  141.1531  133.6546  156.4075 LP  0  0  0  0  0  0  0  0  0  0  0  0  # atno 17394 bound_to 11000
  140.4988  134.6505  157.5240 LP  0  0  0  0  0  0  0  0  0  0  0  0  # atno 17395 bound_to 11000

$$$$
