AV-unprocessed.smi:1791|AV-procd|sdf|7219|dock7
  -GOLD-   22720 8463D 1   1.00000     0.00000
 Structure written by MMmdl.
 38 39  0  0  0  0  0  0  0  0  1 V2000
  150.7206  141.9509  157.9741 C   0  0  0  0  0  0  0  0  0  0  0  0
  151.0384  141.6752  156.6141 O   0  0  0  0  0  0  0  0  0  0  0  0
  150.2932  140.7241  155.9475 C   0  0  0  0  0  0  0  0  0  0  0  0
  149.0730  140.3036  156.5131 C   0  0  0  0  0  0  0  0  0  0  0  0
  148.3052  139.3356  155.8374 C   0  0  0  0  0  0  0  0  0  0  0  0
  148.7814  138.8216  154.6074 C   0  0  0  0  0  0  0  0  0  0  0  0
  148.1140  137.8344  153.8322 N   0  0  0  0  0  0  0  0  0  0  0  0
  146.8160  137.4854  153.8459 C   0  0  0  0  0  0  0  0  0  0  0  0
  145.9529  137.9802  154.5702 O   0  0  0  0  0  0  0  0  0  0  0  0
  146.5692  136.5250  152.9432 N   0  0  0  0  0  0  0  0  0  0  0  0
  145.2705  135.9081  152.6806 C   0  0  1  0  0  0  0  0  0  0  0  0
  144.2050  137.0132  152.6108 C   0  0  0  0  0  0  0  0  0  0  0  0
  145.3476  135.0847  151.3800 C   0  0  2  0  0  0  0  0  0  0  0  0
  144.0722  134.3132  151.0343 C   0  0  0  0  0  0  0  0  0  0  0  0
  144.5693  133.1402  150.2028 C   0  0  0  0  0  0  0  0  0  0  0  0
  146.0842  133.1429  150.4202 C   0  0  0  0  0  0  0  0  0  0  0  0
  146.2980  134.0373  151.5021 O   0  0  0  0  0  0  0  0  0  0  0  0
  150.0213  139.2986  154.1346 C   0  0  0  0  0  0  0  0  0  0  0  0
  150.7617  140.2264  154.7766 N   0  0  0  0  0  0  0  0  0  0  0  0
  151.3945  142.7181  158.3545 H   0  0  0  0  0  0  0  0  0  0  0  0
  150.8424  141.0651  158.5992 H   0  0  0  0  0  0  0  0  0  0  0  0
  149.7014  142.3254  158.0784 H   0  0  0  0  0  0  0  0  0  0  0  0
  148.7324  140.7148  157.4521 H   0  0  0  0  0  0  0  0  0  0  0  0
  147.3802  139.0044  156.2825 H   0  0  0  0  0  0  0  0  0  0  0  0
  148.6849  137.3772  153.1365 H   0  0  0  0  0  0  0  0  0  0  0  0
  147.3454  136.1844  152.3955 H   0  0  0  0  0  0  0  0  0  0  0  0
  144.9989  135.2370  153.4971 H   0  0  0  0  0  0  0  0  0  0  0  0
  143.2085  136.5958  152.4643 H   0  0  0  0  0  0  0  0  0  0  0  0
  144.4006  137.7037  151.7898 H   0  0  0  0  0  0  0  0  0  0  0  0
  144.1809  137.5921  153.5345 H   0  0  0  0  0  0  0  0  0  0  0  0
  145.6338  135.7218  150.5405 H   0  0  0  0  0  0  0  0  0  0  0  0
  143.5991  133.9386  151.9430 H   0  0  0  0  0  0  0  0  0  0  0  0
  143.3423  134.9262  150.5045 H   0  0  0  0  0  0  0  0  0  0  0  0
  144.1168  132.2077  150.5420 H   0  0  0  0  0  0  0  0  0  0  0  0
  144.3303  133.2644  149.1463 H   0  0  0  0  0  0  0  0  0  0  0  0
  146.4784  132.1516  150.6444 H   0  0  0  0  0  0  0  0  0  0  0  0
  146.5976  133.5217  149.5353 H   0  0  0  0  0  0  0  0  0  0  0  0
  150.4329  138.9284  153.2069 H   0  0  0  0  0  0  0  0  0  0  0  0
  1  2  1  0  0  0  0
  1 20  1  0  0  0  0
  1 21  1  0  0  0  0
  1 22  1  0  0  0  0
  2  3  1  0  0  0  0
  3 19  1  0  0  0  0
  3  4  2  0  0  0  0
  4  5  1  0  0  0  0
  4 23  1  0  0  0  0
  5  6  2  0  0  0  0
  5 24  1  0  0  0  0
  6  7  1  0  0  0  0
  6 18  1  0  0  0  0
  7  8  1  0  0  0  0
  7 25  1  0  0  0  0
  8  9  2  0  0  0  0
  8 10  1  0  0  0  0
 10 11  1  0  0  0  0
 10 26  1  0  0  0  0
 11 12  1  0  0  0  0
 11 13  1  0  0  0  0
 11 27  1  0  0  0  0
 12 28  1  0  0  0  0
 12 29  1  0  0  0  0
 12 30  1  0  0  0  0
 13 17  1  0  0  0  0
 13 14  1  0  0  0  0
 13 31  1  0  0  0  0
 14 15  1  0  0  0  0
 14 32  1  0  0  0  0
 14 33  1  0  0  0  0
 15 16  1  0  0  0  0
 15 34  1  0  0  0  0
 15 35  1  0  0  0  0
 16 17  1  0  0  0  0
 16 36  1  0  0  0  0
 16 37  1  0  0  0  0
 18 19  2  0  0  0  0
 18 38  1  0  0  0  0
M  END
> <s_m_source_file>
AV-unprocessed.smi

> <i_m_source_file_index>
1791

> <i_lp_mmshare_version>
43012

> <i_f3d_flags>
0

> <s_epik_input>
W0NIM11PYzFbY0hdW2NIXWMoW2NIXW4xKVtOSF1DKD1PKVtOSF1bQ0BIXShbQ0gzXSlbQ0BASF0yW0NIMl1bQ0gyXVtDSDJdTzI=

> <s_epik_cmdline>
J2VwaWtfcHl0aG9uJywgJy1waCcsICc3LjAnLCAnLXRuJywgJzgnLCAnLW1hJywgJzIwMCcsICctbWV0YWxfYmluZGluZycsICctaW1hZScsICc8aW5maWxlLm1hZT4nLCAnLW9tYWUnLCAnPG91dGZpbGUubWFlPic=

> <r_lp_tautomer_probability>
1

> <r_epik_Ionization_Penalty>
9.18737e-05

> <r_epik_Ionization_Penalty_Charging>
0

> <r_epik_Ionization_Penalty_Neutral>
9.18737e-05

> <r_epik_State_Penalty>
-0

> <r_epik_Charging_Adjusted_Penalty>
0

> <i_epik_Tot_Q>
0

> <i_epik_Tot_abs_Q>
0

> <r_epik_Metal_State_Penalty>
-0

> <b_epik_Metal_Only>
0

> <s_lp_Force_Field>
OPLS_2005

> <r_lp_Energy>
20.9022

> <b_lp_Chiralities_Consistent>
1

> <s_lp_Variant>
AV-unprocessed.smi:1791-2

> <Gold.Version>
5.8.1

> <Gold.Id.Protein>
6NUR|6NUR_protein|mol2

> <Gold.PLP.Fitness>
35.9179

> <Gold.PLP.PLP>
-25.6917

> <Gold.PLP.part.hbond>
-3.0000

> <Gold.PLP.part.metal>
0.0000

> <Gold.PLP.part.buried>
-4.1581

> <Gold.PLP.part.nonpolar>
-19.1278

> <Gold.PLP.part.repulsive>
0.4024

> <Gold.PLP.ligand.clash>
0.0007

> <Gold.PLP.ligand.torsion>
0.4534

> <Gold.PLP.Chemscore.Hbond>
3.0000

> <Gold.PLP.Chemscore.CHOScore>
0.6977

> <Gold.PLP.Chemscore.Metal>
0.0000

> <Gold.Chemscore.Hbonds>
donor molecule, donor type, donor heavy atom, donor atom, acceptor molecule, acceptor atom, score
      L1  H     7    25       P1  7948  1.00
      L1  H    10    26       P1  7948  1.00
      P1  H  7989  7998       L1    19  1.00
      L1  C    18    38       P1  7957  0.73

> <Gold.PLP.Chemscore.Internal.Correction>
0.0404

> <Gold.Rescore>
     Score         DG    S(hbond)    S(metal)    S(lipo)     H(rot)  DE(clash)    DE(int)     intcor
     13.85     -16.53       2.50        0.00      55.30       1.47       0.02       2.66       ----

> <Gold.Chemscore.Fitness>
13.8456

> <Gold.Chemscore.DG>
-16.5321

> <Gold.Chemscore.ZeroCoef>
-5.4800

> <Gold.Chemscore.Hbond>
2.4979

> <Gold.Chemscore.Metal>
0.0000

> <Gold.Chemscore.Lipo>
55.3026

> <Gold.Chemscore.Internal_Hbond>
0.0000

> <Gold.Chemscore.DEClash>
0.0240

> <Gold.Chemscore.DEInternal>
2.6624

> <Gold.Chemscore.Rot>
1.4693

> <Gold.Chemscore.Internal.Correction>
   9.000000E+99

> <Gold.Chemscore.Hbonds>
donor molecule, donor type, donor heavy atom, donor atom, acceptor molecule, acceptor atom, score
      L1  H     7    25       P1  7948  0.98
      L1  H    10    26       P1  7948  0.97
      P1  H  7989  7998       L1    19  0.30

> <Gold.Chemscore.Hbond.Weighted>
-8.3430

> <Gold.Chemscore.Metal.Weighted>
-0.0000

> <Gold.Chemscore.Lipo.Weighted>
-6.4704

> <Gold.Chemscore.Internal_Hbond.Weighted>
0.0000

> <Gold.Chemscore.DEClash.Weighted>
0.0240

> <Gold.Chemscore.DEInternal.Weighted>
2.6624

> <Gold.Chemscore.Rot.Weighted>
3.7613

> <Gold.Chemscore.Internal.Correction.Weighted>
   9.000000E+99

> <Gold.Protein.RotatedTorsions>
[ 6907 6896 6895 6894 ] final   10.12 input  -60.11 | X-H torsion
[ 7974 7965 7964 7962 ] final  163.55 input  175.53 | X-H torsion
[ 8008 7997 7996 7995 ] final  -97.87 input   59.86 | X-H torsion
[ 10167 10162 10161 10158 ] final -120.31 input  -65.29 | X-H torsion
[ 10718 10713 10712 10709 ] final  -83.57 input   66.30 | X-H torsion
[ 10763 10752 10751 10750 ] final  164.42 input  -60.55 | X-H torsion
[ 11005 11000 10999 10996 ] final  137.68 input  -57.11 | X-H torsion

> <Gold.Protein.ActiveResidues>
 VAL166  LYS551  ARG553  GLY616  TRP617  ASP618  TYR619  PRO620  LYS621  CYS622 
 ASP623  PHE694  ASN695  SER759  ASP760  ASP761  ALA762  ILE779  LEU786  VAL792 
 PHE793  MET794  SER795  GLU796  ALA797  LYS798  CYS799  TRP800  GLU811  SER814 

> <Gold.Protein.RotatedAtoms>
  151.7332  135.0870  160.0303 H   0  0  0  0  0  0  0  0  0  0  0  0  # atno 6907 bound_to 6896
  152.3528  133.6196  159.5965 H   0  0  0  0  0  0  0  0  0  0  0  0  # atno 6908 bound_to 6896
  150.7551  133.9464  159.3513 H   0  0  0  0  0  0  0  0  0  0  0  0  # atno 6909 bound_to 6896
  144.7584  139.8199  143.6341 H   0  0  0  0  0  0  0  0  0  0  0  0  # atno 7974 bound_to 7965
  154.7936  140.0459  157.1220 H   0  0  0  0  0  0  0  0  0  0  0  0  # atno 8008 bound_to 7997
  154.9561  140.3071  155.5032 H   0  0  0  0  0  0  0  0  0  0  0  0  # atno 8009 bound_to 7997
  156.2953  140.2279  156.4643 H   0  0  0  0  0  0  0  0  0  0  0  0  # atno 8010 bound_to 7997
  140.0372  143.5189  152.2148 H   0  0  0  0  0  0  0  0  0  0  0  0  # atno 10167 bound_to 10162
  156.0017  130.4670  150.4277 H   0  0  0  0  0  0  0  0  0  0  0  0  # atno 10718 bound_to 10713
  154.3086  135.2757  155.2577 H   0  0  0  0  0  0  0  0  0  0  0  0  # atno 10763 bound_to 10752
  154.4982  135.5815  153.6514 H   0  0  0  0  0  0  0  0  0  0  0  0  # atno 10764 bound_to 10752
  152.9891  135.6151  154.3262 H   0  0  0  0  0  0  0  0  0  0  0  0  # atno 10765 bound_to 10752
  140.0131  134.9430  157.0319 H   0  0  0  0  0  0  0  0  0  0  0  0  # atno 11005 bound_to 11000
  146.1621  139.4739  142.9981 LP  0  0  0  0  0  0  0  0  0  0  0  0  # atno 17320 bound_to 7965
  145.6700  141.0219  143.1663 LP  0  0  0  0  0  0  0  0  0  0  0  0  # atno 17321 bound_to 7965
  139.6037  144.7590  151.3112 LP  0  0  0  0  0  0  0  0  0  0  0  0  # atno 17342 bound_to 10162
  140.7276  143.6959  150.7884 LP  0  0  0  0  0  0  0  0  0  0  0  0  # atno 17343 bound_to 10162
  157.2328  131.0508  151.2482 LP  0  0  0  0  0  0  0  0  0  0  0  0  # atno 17370 bound_to 10713
  157.3695  130.7173  149.6555 LP  0  0  0  0  0  0  0  0  0  0  0  0  # atno 17371 bound_to 10713
  140.4519  134.1573  155.7182 LP  0  0  0  0  0  0  0  0  0  0  0  0  # atno 17394 bound_to 11000
  141.1724  133.8581  157.1528 LP  0  0  0  0  0  0  0  0  0  0  0  0  # atno 17395 bound_to 11000

$$$$
