AV-unprocessed.smi:964|AV-procd|sdf|4279|dock9
  -GOLD-   22720 2183D 1   1.00000     0.00000
 Structure written by MMmdl.
 20 20  0  0  0  0  0  0  0  0  2 V2000
  151.8485  138.2645  153.8029 C   0  0  0  0  0  0  0  0  0  0  0  0
  150.6354  139.1205  153.9437 C   0  0  0  0  0  0  0  0  0  0  0  0
  149.4560  138.7686  153.4121 N   0  0  0  0  0  0  0  0  0  0  0  0
  148.6544  139.7839  153.7669 C   0  0  0  0  0  0  0  0  0  0  0  0
  147.2120  139.8338  153.3818 C   0  0  0  0  0  0  0  0  0  0  0  0
  146.7795  138.6080  152.5656 C   0  0  0  0  0  0  0  0  0  0  0  0
  145.7586  138.9619  151.5651 N   0  3  0  0  0  0  0  0  0  0  0  0
  149.2841  140.7277  154.4728 N   0  0  0  0  0  0  0  0  0  0  0  0
  150.5922  140.2890  154.5906 N   0  0  0  0  0  0  0  0  0  0  0  0
  149.2300  137.9399  152.8813 H   0  0  0  0  0  0  0  0  0  0  0  0
  152.6771  138.6798  154.3774 H   0  0  0  0  0  0  0  0  0  0  0  0
  152.1455  138.2049  152.7557 H   0  0  0  0  0  0  0  0  0  0  0  0
  151.6423  137.2585  154.1688 H   0  0  0  0  0  0  0  0  0  0  0  0
  147.0421  140.7454  152.8072 H   0  0  0  0  0  0  0  0  0  0  0  0
  146.6064  139.9178  154.2856 H   0  0  0  0  0  0  0  0  0  0  0  0
  147.6367  138.1748  152.0488 H   0  0  0  0  0  0  0  0  0  0  0  0
  146.3763  137.8371  153.2229 H   0  0  0  0  0  0  0  0  0  0  0  0
  145.0845  139.5897  151.9799 H   0  0  0  0  0  0  0  0  0  0  0  0
  145.2878  138.1243  151.2534 H   0  0  0  0  0  0  0  0  0  0  0  0
  146.1981  139.4142  150.7762 H   0  0  0  0  0  0  0  0  0  0  0  0
  1 11  1  0  0  0  0
  1 12  1  0  0  0  0
  1 13  1  0  0  0  0
  1  2  1  0  0  0  0
  2  3  1  0  0  0  0
  2  9  2  0  0  0  0
  3 10  1  0  0  0  0
  3  4  1  0  0  0  0
  4  8  2  0  0  0  0
  4  5  1  0  0  0  0
  5  6  1  0  0  0  0
  5 14  1  0  0  0  0
  5 15  1  0  0  0  0
  6  7  1  0  0  0  0
  6 16  1  0  0  0  0
  6 17  1  0  0  0  0
  7 18  1  0  0  0  0
  7 19  1  0  0  0  0
  7 20  1  0  0  0  0
  8  9  1  0  0  0  0
M  CHG  1   7   1
M  END
> <s_m_source_file>
AV-unprocessed.smi

> <i_m_source_file_index>
964

> <i_lp_mmshare_version>
43012

> <i_f3d_flags>
0

> <s_epik_input>
W0NIM11jMW5jKG5bbkhdMSlbQ0gyXVtDSDJdW05IMl0=

> <s_epik_cmdline>
J2VwaWtfcHl0aG9uJywgJy1waCcsICc3LjAnLCAnLXRuJywgJzgnLCAnLW1hJywgJzIwMCcsICctbWV0YWxfYmluZGluZycsICctaW1hZScsICc8aW5maWxlLm1hZT4nLCAnLW9tYWUnLCAnPG91dGZpbGUubWFlPic=

> <r_lp_tautomer_probability>
0.0517155

> <r_epik_Ionization_Penalty>
0.0139864

> <r_epik_Ionization_Penalty_Charging>
0.00465044

> <r_epik_Ionization_Penalty_Neutral>
0.00933595

> <r_epik_State_Penalty>
2.23303

> <r_epik_Charging_Adjusted_Penalty>
2.23768

> <i_epik_Tot_Q>
1

> <i_epik_Tot_abs_Q>
1

> <r_epik_Metal_State_Penalty>
2.43351

> <b_epik_Metal_Only>
0

> <s_lp_Force_Field>
OPLS_2005

> <r_lp_Energy>
2.69796

> <b_lp_Chiralities_Consistent>
1

> <s_lp_Variant>
AV-unprocessed.smi:964-3

> <Gold.Version>
5.8.1

> <Gold.Id.Protein>
6NUR|6NUR_protein|mol2

> <Gold.PLP.Fitness>
31.8993

> <Gold.PLP.PLP>
-19.5355

> <Gold.PLP.part.hbond>
-5.6244

> <Gold.PLP.part.metal>
0.0000

> <Gold.PLP.part.buried>
-0.2670

> <Gold.PLP.part.nonpolar>
-14.4577

> <Gold.PLP.part.repulsive>
0.3477

> <Gold.PLP.ligand.clash>
0.0000

> <Gold.PLP.ligand.torsion>
0.2263

> <Gold.PLP.Chemscore.Hbond>
4.2720

> <Gold.PLP.Chemscore.CHOScore>
0.0000

> <Gold.PLP.Chemscore.Metal>
0.0000

> <Gold.Chemscore.Hbonds>
donor molecule, donor type, donor heavy atom, donor atom, acceptor molecule, acceptor atom, score
      L1  H     3    10       P1  7948  1.00
      L1  H     7    18       P1 10175  2.00
      L1  H     7    19       P1 10171  0.17
      P1  H  7989  7998       L1     9  0.40

> <Gold.PLP.Chemscore.Internal.Correction>
0.0004

> <Gold.Rescore>
     Score         DG    S(hbond)    S(metal)    S(lipo)     H(rot)  DE(clash)    DE(int)     intcor
     11.99     -12.52       2.40        0.00      24.58       1.51       0.40       0.12       ----

> <Gold.Chemscore.Fitness>
11.9902

> <Gold.Chemscore.DG>
-12.5160

> <Gold.Chemscore.ZeroCoef>
-5.4800

> <Gold.Chemscore.Hbond>
2.4016

> <Gold.Chemscore.Metal>
0.0000

> <Gold.Chemscore.Lipo>
24.5786

> <Gold.Chemscore.Internal_Hbond>
0.0000

> <Gold.Chemscore.DEClash>
0.4029

> <Gold.Chemscore.DEInternal>
0.1230

> <Gold.Chemscore.Rot>
1.5082

> <Gold.Chemscore.Internal.Correction>
   9.000000E+99

> <Gold.Chemscore.Hbonds>
donor molecule, donor type, donor heavy atom, donor atom, acceptor molecule, acceptor atom, score
      L1  H     3    10       P1  7948  0.95
      L1  H     7    18       P1 10175  0.93
      L1  H     7    19       P1 10171  0.18
      P1  H  7989  7998       L1     9  0.01

> <Gold.Chemscore.Hbond.Weighted>
-8.0214

> <Gold.Chemscore.Metal.Weighted>
-0.0000

> <Gold.Chemscore.Lipo.Weighted>
-2.8757

> <Gold.Chemscore.Internal_Hbond.Weighted>
0.0000

> <Gold.Chemscore.DEClash.Weighted>
0.4029

> <Gold.Chemscore.DEInternal.Weighted>
0.1230

> <Gold.Chemscore.Rot.Weighted>
3.8611

> <Gold.Chemscore.Internal.Correction.Weighted>
   9.000000E+99

> <Gold.Protein.RotatedTorsions>
[ 6907 6896 6895 6894 ] final  121.46 input  -60.11 | X-H torsion
[ 7974 7965 7964 7962 ] final  -14.76 input  175.53 | X-H torsion
[ 8008 7997 7996 7995 ] final  -62.50 input   59.86 | X-H torsion
[ 10167 10162 10161 10158 ] final   89.83 input  -65.29 | X-H torsion
[ 10718 10713 10712 10709 ] final  -58.72 input   66.30 | X-H torsion
[ 10763 10752 10751 10750 ] final -166.97 input  -60.55 | X-H torsion
[ 11005 11000 10999 10996 ] final  -77.74 input  -57.11 | X-H torsion

> <Gold.Protein.ActiveResidues>
 VAL166  LYS551  ARG553  GLY616  TRP617  ASP618  TYR619  PRO620  LYS621  CYS622 
 ASP623  PHE694  ASN695  SER759  ASP760  ASP761  ALA762  ILE779  LEU786  VAL792 
 PHE793  MET794  SER795  GLU796  ALA797  LYS798  CYS799  TRP800  GLU811  SER814 

> <Gold.Protein.RotatedAtoms>
  152.4320  133.7294  159.6578 H   0  0  0  0  0  0  0  0  0  0  0  0  # atno 6907 bound_to 6896
  150.8200  133.8259  159.3149 H   0  0  0  0  0  0  0  0  0  0  0  0  # atno 6908 bound_to 6896
  151.5944  135.1053  160.0098 H   0  0  0  0  0  0  0  0  0  0  0  0  # atno 6909 bound_to 6896
  146.2061  140.3395  142.8406 H   0  0  0  0  0  0  0  0  0  0  0  0  # atno 7974 bound_to 7965
  154.4503  140.0995  156.6597 H   0  0  0  0  0  0  0  0  0  0  0  0  # atno 8008 bound_to 7997
  155.5306  140.3481  155.4407 H   0  0  0  0  0  0  0  0  0  0  0  0  # atno 8009 bound_to 7997
  156.0667  140.1339  156.9867 H   0  0  0  0  0  0  0  0  0  0  0  0  # atno 8010 bound_to 7997
  139.8533  144.6582  150.9143 H   0  0  0  0  0  0  0  0  0  0  0  0  # atno 10167 bound_to 10162
  156.1114  130.4174  150.0617 H   0  0  0  0  0  0  0  0  0  0  0  0  # atno 10718 bound_to 10713
  154.6779  135.2950  154.9653 H   0  0  0  0  0  0  0  0  0  0  0  0  # atno 10763 bound_to 10752
  154.0658  135.6625  153.4821 H   0  0  0  0  0  0  0  0  0  0  0  0  # atno 10764 bound_to 10752
  153.0528  135.5163  154.7808 H   0  0  0  0  0  0  0  0  0  0  0  0  # atno 10765 bound_to 10752
  141.1662  133.7035  156.7866 H   0  0  0  0  0  0  0  0  0  0  0  0  # atno 11005 bound_to 11000
  144.8795  140.7382  143.5995 LP  0  0  0  0  0  0  0  0  0  0  0  0  # atno 17320 bound_to 7965
  145.3315  139.1758  143.4534 LP  0  0  0  0  0  0  0  0  0  0  0  0  # atno 17321 bound_to 7965
  140.7785  143.3808  151.1481 LP  0  0  0  0  0  0  0  0  0  0  0  0  # atno 17342 bound_to 10162
  139.7444  143.8875  152.3059 LP  0  0  0  0  0  0  0  0  0  0  0  0  # atno 17343 bound_to 10162
  156.8579  130.9481  151.3620 LP  0  0  0  0  0  0  0  0  0  0  0  0  # atno 17370 bound_to 10713
  157.6295  130.8718  149.9249 LP  0  0  0  0  0  0  0  0  0  0  0  0  # atno 17371 bound_to 10713
  140.2355  134.8653  157.3521 LP  0  0  0  0  0  0  0  0  0  0  0  0  # atno 17394 bound_to 11000
  140.1848  134.4445  155.7750 LP  0  0  0  0  0  0  0  0  0  0  0  0  # atno 17395 bound_to 11000

$$$$
