AV-unprocessed.smi:837|AV-procd|sdf|3899|dock6
  -GOLD-   22720 1353D 1   1.00000     0.00000
 Structure written by MMmdl.
 50 52  0  0  0  0  0  0  0  0  2 V2000
  148.8965  137.1287  157.8059 C   0  0  0  0  0  0  0  0  0  0  0  0
  149.1562  135.9262  156.8728 C   0  0  1  0  0  0  0  0  0  0  0  0
  147.8204  135.2555  156.4850 C   0  0  0  0  0  0  0  0  0  0  0  0
  148.0334  134.0094  155.6112 C   0  0  0  0  0  0  0  0  0  0  0  0
  148.8508  134.3386  154.3546 C   0  0  0  0  0  0  0  0  0  0  0  0
  150.1906  134.9943  154.7259 C   0  0  0  0  0  0  0  0  0  0  0  0
  149.9950  136.2569  155.5993 C   0  0  1  0  0  0  0  0  0  0  0  0
  149.4142  137.3396  154.8222 N   0  0  0  0  0  0  0  0  0  0  0  0
  150.2323  138.3923  154.7022 C   0  0  0  0  0  0  0  0  0  0  0  0
  149.9672  139.4313  154.0990 O   0  0  0  0  0  0  0  0  0  0  0  0
  151.3742  138.1188  155.3591 N   0  0  0  0  0  0  0  0  0  0  0  0
  152.4928  139.0604  155.4930 C   0  0  0  0  0  0  0  0  0  0  0  0
  152.5698  139.6967  156.8877 C   0  0  0  0  0  0  0  0  0  0  0  0
  153.4156  139.3291  157.7040 O   0  0  0  0  0  0  0  0  0  0  0  0
  151.6697  140.6566  157.1466 N   0  0  0  0  0  0  0  0  0  0  0  0
  151.5328  141.3617  158.4178 C   0  0  0  0  0  0  0  0  0  0  0  0
  152.8308  142.0699  158.8587 C   0  0  0  0  0  0  0  0  0  0  0  0
  152.8131  142.5274  160.3077 C   0  0  0  0  0  0  0  0  0  0  0  0
  153.6960  141.9584  161.2528 C   0  0  0  0  0  0  0  0  0  0  0  0
  153.6471  142.3916  162.5938 C   0  0  0  0  0  0  0  0  0  0  0  0
  152.7171  143.3857  162.9602 C   0  0  0  0  0  0  0  0  0  0  0  0
  151.8898  143.9085  162.0286 N   0  3  0  0  0  0  0  0  0  0  0  0
  151.9057  143.5210  160.7341 C   0  0  0  0  0  0  0  0  0  0  0  0
  151.3376  136.9023  155.9203 C   0  0  0  0  0  0  0  0  0  0  0  0
  152.2155  136.3687  156.5988 O   0  0  0  0  0  0  0  0  0  0  0  0
  148.3318  137.9149  157.3043 H   0  0  0  0  0  0  0  0  0  0  0  0
  149.8244  137.5672  158.1728 H   0  0  0  0  0  0  0  0  0  0  0  0
  148.3232  136.8231  158.6813 H   0  0  0  0  0  0  0  0  0  0  0  0
  149.7210  135.1954  157.4544 H   0  0  0  0  0  0  0  0  0  0  0  0
  147.2727  134.9722  157.3845 H   0  0  0  0  0  0  0  0  0  0  0  0
  147.1871  135.9677  155.9544 H   0  0  0  0  0  0  0  0  0  0  0  0
  148.5479  133.2418  156.1906 H   0  0  0  0  0  0  0  0  0  0  0  0
  147.0696  133.5869  155.3259 H   0  0  0  0  0  0  0  0  0  0  0  0
  149.0301  133.4292  153.7806 H   0  0  0  0  0  0  0  0  0  0  0  0
  148.2784  135.0031  153.7064 H   0  0  0  0  0  0  0  0  0  0  0  0
  150.8013  134.2669  155.2634 H   0  0  0  0  0  0  0  0  0  0  0  0
  150.7410  135.2376  153.8157 H   0  0  0  0  0  0  0  0  0  0  0  0
  148.4884  137.2879  154.4225 H   0  0  0  0  0  0  0  0  0  0  0  0
  153.4417  138.5628  155.2875 H   0  0  0  0  0  0  0  0  0  0  0  0
  152.3976  139.8431  154.7381 H   0  0  0  0  0  0  0  0  0  0  0  0
  151.0210  140.9063  156.4140 H   0  0  0  0  0  0  0  0  0  0  0  0
  150.7069  142.0732  158.3687 H   0  0  0  0  0  0  0  0  0  0  0  0
  151.2545  140.6199  159.1668 H   0  0  0  0  0  0  0  0  0  0  0  0
  153.6816  141.4038  158.7089 H   0  0  0  0  0  0  0  0  0  0  0  0
  153.0138  142.9338  158.2186 H   0  0  0  0  0  0  0  0  0  0  0  0
  154.3972  141.1909  160.9578 H   0  0  0  0  0  0  0  0  0  0  0  0
  154.3113  141.9627  163.3302 H   0  0  0  0  0  0  0  0  0  0  0  0
  152.6103  143.7745  163.9625 H   0  0  0  0  0  0  0  0  0  0  0  0
  151.1939  144.0105  160.0850 H   0  0  0  0  0  0  0  0  0  0  0  0
  151.2234  144.6261  162.3151 H   0  0  0  0  0  0  0  0  0  0  0  0
  1  2  1  0  0  0  0
  1 26  1  0  0  0  0
  1 27  1  0  0  0  0
  1 28  1  0  0  0  0
  2  7  1  0  0  0  0
  2  3  1  0  0  0  0
  2 29  1  0  0  0  0
  3  4  1  0  0  0  0
  3 30  1  0  0  0  0
  3 31  1  0  0  0  0
  4  5  1  0  0  0  0
  4 32  1  0  0  0  0
  4 33  1  0  0  0  0
  5  6  1  0  0  0  0
  5 34  1  0  0  0  0
  5 35  1  0  0  0  0
  6  7  1  0  0  0  0
  6 36  1  0  0  0  0
  6 37  1  0  0  0  0
  7 24  1  0  0  0  0
  7  8  1  0  0  0  0
  8  9  1  0  0  0  0
  8 38  1  0  0  0  0
  9 10  2  0  0  0  0
  9 11  1  0  0  0  0
 11 12  1  0  0  0  0
 11 24  1  0  0  0  0
 12 13  1  0  0  0  0
 12 39  1  0  0  0  0
 12 40  1  0  0  0  0
 13 14  2  0  0  0  0
 13 15  1  0  0  0  0
 15 16  1  0  0  0  0
 15 41  1  0  0  0  0
 16 17  1  0  0  0  0
 16 42  1  0  0  0  0
 16 43  1  0  0  0  0
 17 18  1  0  0  0  0
 17 44  1  0  0  0  0
 17 45  1  0  0  0  0
 18 23  1  0  0  0  0
 18 19  2  0  0  0  0
 19 20  1  0  0  0  0
 19 46  1  0  0  0  0
 20 21  2  0  0  0  0
 20 47  1  0  0  0  0
 21 22  1  0  0  0  0
 21 48  1  0  0  0  0
 22 23  2  0  0  0  0
 22 50  1  0  0  0  0
 23 49  1  0  0  0  0
 24 25  2  0  0  0  0
M  CHG  1  22   1
M  END
> <s_m_source_file>
AV-unprocessed.smi

> <i_m_source_file_index>
837

> <i_lp_mmshare_version>
43012

> <i_f3d_flags>
0

> <s_epik_input>
W0NIMl0xW0NIMl1bQ0gyXVtDSDJdW0NAQEhdKFtDSDNdKVtDQEBdMTJbTkhdQyg9TylOKEMyPU8pW0NIMl1DKD1PKVtOSF1bQ0gyXVtDSDJdYzNbY0hdW2NIXVtjSF1uW2NIXTM=

> <s_epik_cmdline>
J2VwaWtfcHl0aG9uJywgJy1waCcsICc3LjAnLCAnLXRuJywgJzgnLCAnLW1hJywgJzIwMCcsICctbWV0YWxfYmluZGluZycsICctaW1hZScsICc8aW5maWxlLm1hZT4nLCAnLW9tYWUnLCAnPG91dGZpbGUubWFlPic=

> <r_lp_tautomer_probability>
1

> <r_epik_Ionization_Penalty>
2.28139

> <r_epik_Ionization_Penalty_Charging>
2.28135

> <r_epik_Ionization_Penalty_Neutral>
4.65525e-05

> <r_epik_State_Penalty>
2.43066

> <r_epik_Charging_Adjusted_Penalty>
4.71201

> <i_epik_Tot_Q>
1

> <i_epik_Tot_abs_Q>
1

> <r_epik_Metal_State_Penalty>
2.4646

> <b_epik_Metal_Only>
0

> <s_lp_Force_Field>
OPLS_2005

> <r_lp_Energy>
30.2127

> <b_lp_Chiralities_Consistent>
1

> <s_lp_Variant>
AV-unprocessed.smi:837-8

> <Gold.Version>
5.8.1

> <Gold.Id.Protein>
6NUR|6NUR_protein|mol2

> <Gold.PLP.Fitness>
48.0326

> <Gold.PLP.PLP>
-41.4499

> <Gold.PLP.part.hbond>
-4.5956

> <Gold.PLP.part.metal>
0.0000

> <Gold.PLP.part.buried>
-0.2978

> <Gold.PLP.part.nonpolar>
-35.9677

> <Gold.PLP.part.repulsive>
1.1464

> <Gold.PLP.ligand.clash>
0.0000

> <Gold.PLP.ligand.torsion>
0.4603

> <Gold.PLP.Chemscore.Hbond>
2.4875

> <Gold.PLP.Chemscore.CHOScore>
0.0000

> <Gold.PLP.Chemscore.Metal>
0.0000

> <Gold.Chemscore.Hbonds>
donor molecule, donor type, donor heavy atom, donor atom, acceptor molecule, acceptor atom, score
      P1  H  7989  7998       L1    10  0.41
      P1  H  7997  8009       L1    14  1.00
      P1  H 10752 10763       L1    25  0.95

> <Gold.PLP.Chemscore.Internal.Correction>
0.0408

> <Gold.Rescore>
     Score         DG    S(hbond)    S(metal)    S(lipo)     H(rot)  DE(clash)    DE(int)     intcor
     15.85     -17.49       1.75        0.00      95.64       1.96       0.42       1.21       ----

> <Gold.Chemscore.Fitness>
15.8535

> <Gold.Chemscore.DG>
-17.4912

> <Gold.Chemscore.ZeroCoef>
-5.4800

> <Gold.Chemscore.Hbond>
1.7511

> <Gold.Chemscore.Metal>
0.0000

> <Gold.Chemscore.Lipo>
95.6399

> <Gold.Chemscore.Internal_Hbond>
0.0000

> <Gold.Chemscore.DEClash>
0.4241

> <Gold.Chemscore.DEInternal>
1.2136

> <Gold.Chemscore.Rot>
1.9638

> <Gold.Chemscore.Internal.Correction>
   9.000000E+99

> <Gold.Chemscore.Hbonds>
donor molecule, donor type, donor heavy atom, donor atom, acceptor molecule, acceptor atom, score
      P1  H  7989  7998       L1    10  0.37
      P1  H  7997  8009       L1    14  0.29
      P1  H 10752 10763       L1    25  0.21

> <Gold.Chemscore.Hbond.Weighted>
-5.8488

> <Gold.Chemscore.Metal.Weighted>
-0.0000

> <Gold.Chemscore.Lipo.Weighted>
-11.1899

> <Gold.Chemscore.Internal_Hbond.Weighted>
0.0000

> <Gold.Chemscore.DEClash.Weighted>
0.4241

> <Gold.Chemscore.DEInternal.Weighted>
1.2136

> <Gold.Chemscore.Rot.Weighted>
5.0274

> <Gold.Chemscore.Internal.Correction.Weighted>
   9.000000E+99

> <Gold.Protein.RotatedTorsions>
[ 6907 6896 6895 6894 ] final   49.91 input  -60.11 | X-H torsion
[ 7974 7965 7964 7962 ] final   77.17 input  175.53 | X-H torsion
[ 8008 7997 7996 7995 ] final  143.77 input   59.86 | X-H torsion
[ 10167 10162 10161 10158 ] final    1.39 input  -65.29 | X-H torsion
[ 10718 10713 10712 10709 ] final -158.61 input   66.30 | X-H torsion
[ 10763 10752 10751 10750 ] final   97.13 input  -60.55 | X-H torsion
[ 11005 11000 10999 10996 ] final  -31.50 input  -57.11 | X-H torsion

> <Gold.Protein.ActiveResidues>
 VAL166  LYS551  ARG553  GLY616  TRP617  ASP618  TYR619  PRO620  LYS621  CYS622 
 ASP623  PHE694  ASN695  SER759  ASP760  ASP761  ALA762  ILE779  LEU786  VAL792 
 PHE793  MET794  SER795  GLU796  ALA797  LYS798  CYS799  TRP800  GLU811  SER814 

> <Gold.Protein.RotatedAtoms>
  152.2959  134.7667  160.0367 H   0  0  0  0  0  0  0  0  0  0  0  0  # atno 6907 bound_to 6896
  151.8197  133.3387  159.3588 H   0  0  0  0  0  0  0  0  0  0  0  0  # atno 6908 bound_to 6896
  150.7251  134.5515  159.5841 H   0  0  0  0  0  0  0  0  0  0  0  0  # atno 6909 bound_to 6896
  145.6935  139.2560  143.1746 H   0  0  0  0  0  0  0  0  0  0  0  0  # atno 7974 bound_to 7965
  156.2923  140.2253  156.4945 H   0  0  0  0  0  0  0  0  0  0  0  0  # atno 8008 bound_to 7997
  154.7742  140.0464  157.1097 H   0  0  0  0  0  0  0  0  0  0  0  0  # atno 8009 bound_to 7997
  154.9836  140.3081  155.4939 H   0  0  0  0  0  0  0  0  0  0  0  0  # atno 8010 bound_to 7997
  140.6685  143.7114  150.7875 H   0  0  0  0  0  0  0  0  0  0  0  0  # atno 10167 bound_to 10162
  156.5565  130.8628  151.2796 H   0  0  0  0  0  0  0  0  0  0  0  0  # atno 10718 bound_to 10713
  153.2732  135.4194  155.1008 H   0  0  0  0  0  0  0  0  0  0  0  0  # atno 10763 bound_to 10752
  154.8463  135.3477  154.6215 H   0  0  0  0  0  0  0  0  0  0  0  0  # atno 10764 bound_to 10752
  153.6635  135.7047  153.5227 H   0  0  0  0  0  0  0  0  0  0  0  0  # atno 10765 bound_to 10752
  140.9473  133.7242  156.1166 H   0  0  0  0  0  0  0  0  0  0  0  0  # atno 11005 bound_to 11000
  146.0861  140.7709  142.9618 LP  0  0  0  0  0  0  0  0  0  0  0  0  # atno 17320 bound_to 7965
  144.6989  140.3564  143.7172 LP  0  0  0  0  0  0  0  0  0  0  0  0  # atno 17321 bound_to 7965
  140.0795  143.4982  152.2537 LP  0  0  0  0  0  0  0  0  0  0  0  0  # atno 17342 bound_to 10162
  139.5943  144.7561  151.3324 LP  0  0  0  0  0  0  0  0  0  0  0  0  # atno 17343 bound_to 10162
  157.7377  130.9800  150.2209 LP  0  0  0  0  0  0  0  0  0  0  0  0  # atno 17370 bound_to 10713
  156.2837  130.3736  149.7909 LP  0  0  0  0  0  0  0  0  0  0  0  0  # atno 17371 bound_to 10713
  140.7651  134.3895  157.5518 LP  0  0  0  0  0  0  0  0  0  0  0  0  # atno 17394 bound_to 11000
  139.8837  134.8986  156.2749 LP  0  0  0  0  0  0  0  0  0  0  0  0  # atno 17395 bound_to 11000

$$$$
