AV-unprocessed.smi:555|AV-procd|sdf|2910|dock1
  -GOLD-   2262023403D 1   1.00000     0.00000
 Structure written by MMmdl.
 50 51  0  0  0  0  0  0  0  0  2 V2000
  138.0263  135.9556  161.7099 C   0  0  0  0  0  0  0  0  0  0  0  0
  137.8229  134.9565  160.7266 O   0  0  0  0  0  0  0  0  0  0  0  0
  137.2715  135.4770  159.5271 C   0  0  0  0  0  0  0  0  0  0  0  0
  138.2153  136.5457  158.9514 C   0  0  0  0  0  0  0  0  0  0  0  0
  137.8664  136.8911  157.5688 N   0  0  0  0  0  0  0  0  0  0  0  0
  138.8951  136.6929  156.6630 N   0  0  0  0  0  0  0  0  0  0  0  0
  138.7072  136.9251  155.4043 C   0  0  0  0  0  0  0  0  0  0  0  0
  139.7840  136.7103  154.3980 C   0  0  0  0  0  0  0  0  0  0  0  0
  139.6304  136.9954  153.2092 O   0  0  0  0  0  0  0  0  0  0  0  0
  140.9243  136.1825  154.8789 N   0  0  0  0  0  0  0  0  0  0  0  0
  142.1119  135.8740  154.0890 C   0  0  2  0  0  0  0  0  0  0  0  0
  141.8162  134.7478  153.0817 C   0  0  0  0  0  0  0  0  0  0  0  0
  143.0859  134.3270  152.3226 C   0  0  0  0  0  0  0  0  0  0  0  0
  144.1638  133.9282  153.2660 N   0  3  1  0  0  0  0  0  0  0  0  0
  145.3323  133.2860  152.5961 C   0  0  0  0  0  0  0  0  0  0  0  0
  146.1192  134.3020  151.7513 C   0  0  0  0  0  0  0  0  0  0  0  0
  144.9617  132.0327  151.7792 C   0  0  0  0  0  0  0  0  0  0  0  0
  144.4985  135.0282  154.2112 C   0  0  0  0  0  0  0  0  0  0  0  0
  143.2597  135.4485  155.0187 C   0  0  0  0  0  0  0  0  0  0  0  0
  137.4247  137.4063  154.9198 C   0  0  0  0  0  0  0  0  0  0  0  0
  136.4328  137.6022  155.8161 C   0  0  0  0  0  0  0  0  0  0  0  0
  136.6163  137.3397  157.2445 C   0  0  0  0  0  0  0  0  0  0  0  0
  135.7260  137.5010  158.0786 O   0  0  0  0  0  0  0  0  0  0  0  0
  138.4503  135.5048  162.6072 H   0  0  0  0  0  0  0  0  0  0  0  0
  137.0859  136.4340  161.9865 H   0  0  0  0  0  0  0  0  0  0  0  0
  138.7189  136.7212  161.3577 H   0  0  0  0  0  0  0  0  0  0  0  0
  137.1080  134.6774  158.8028 H   0  0  0  0  0  0  0  0  0  0  0  0
  136.2995  135.9250  159.7380 H   0  0  0  0  0  0  0  0  0  0  0  0
  138.1857  137.4385  159.5783 H   0  0  0  0  0  0  0  0  0  0  0  0
  139.2458  136.1904  159.0056 H   0  0  0  0  0  0  0  0  0  0  0  0
  140.9656  135.9787  155.8675 H   0  0  0  0  0  0  0  0  0  0  0  0
  142.4271  136.7668  153.5451 H   0  0  0  0  0  0  0  0  0  0  0  0
  141.4042  133.8831  153.6043 H   0  0  0  0  0  0  0  0  0  0  0  0
  141.0543  135.0695  152.3706 H   0  0  0  0  0  0  0  0  0  0  0  0
  142.8438  133.4954  151.6600 H   0  0  0  0  0  0  0  0  0  0  0  0
  143.4290  135.1469  151.6907 H   0  0  0  0  0  0  0  0  0  0  0  0
  146.0139  132.9675  153.3860 H   0  0  0  0  0  0  0  0  0  0  0  0
  147.0491  133.8642  151.3868 H   0  0  0  0  0  0  0  0  0  0  0  0
  146.3813  135.1834  152.3374 H   0  0  0  0  0  0  0  0  0  0  0  0
  145.5570  134.6345  150.8787 H   0  0  0  0  0  0  0  0  0  0  0  0
  145.8589  131.5477  151.3933 H   0  0  0  0  0  0  0  0  0  0  0  0
  144.3342  132.2743  150.9211 H   0  0  0  0  0  0  0  0  0  0  0  0
  144.4352  131.2955  152.3849 H   0  0  0  0  0  0  0  0  0  0  0  0
  145.2807  134.7151  154.9017 H   0  0  0  0  0  0  0  0  0  0  0  0
  144.8840  135.8886  153.6625 H   0  0  0  0  0  0  0  0  0  0  0  0
  143.5196  136.2675  155.6907 H   0  0  0  0  0  0  0  0  0  0  0  0
  142.9405  134.6179  155.6506 H   0  0  0  0  0  0  0  0  0  0  0  0
  137.2609  137.6077  153.8710 H   0  0  0  0  0  0  0  0  0  0  0  0
  135.4746  137.9611  155.4701 H   0  0  0  0  0  0  0  0  0  0  0  0
  143.7575  133.1961  153.8313 H   0  0  0  0  0  0  0  0  0  0  0  0
  1  2  1  0  0  0  0
  1 24  1  0  0  0  0
  1 25  1  0  0  0  0
  1 26  1  0  0  0  0
  2  3  1  0  0  0  0
  3  4  1  0  0  0  0
  3 27  1  0  0  0  0
  3 28  1  0  0  0  0
  4  5  1  0  0  0  0
  4 29  1  0  0  0  0
  4 30  1  0  0  0  0
  5 22  1  0  0  0  0
  5  6  1  0  0  0  0
  6  7  2  0  0  0  0
  7  8  1  0  0  0  0
  7 20  1  0  0  0  0
  8  9  2  0  0  0  0
  8 10  1  0  0  0  0
 10 11  1  0  0  0  0
 10 31  1  0  0  0  0
 11 19  1  0  0  0  0
 11 12  1  0  0  0  0
 11 32  1  0  0  0  0
 12 13  1  0  0  0  0
 12 33  1  0  0  0  0
 12 34  1  0  0  0  0
 13 14  1  0  0  0  0
 13 35  1  0  0  0  0
 13 36  1  0  0  0  0
 14 15  1  0  0  0  0
 14 18  1  0  0  0  0
 14 50  1  0  0  0  0
 15 16  1  0  0  0  0
 15 17  1  0  0  0  0
 15 37  1  0  0  0  0
 16 38  1  0  0  0  0
 16 39  1  0  0  0  0
 16 40  1  0  0  0  0
 17 41  1  0  0  0  0
 17 42  1  0  0  0  0
 17 43  1  0  0  0  0
 18 19  1  0  0  0  0
 18 44  1  0  0  0  0
 18 45  1  0  0  0  0
 19 46  1  0  0  0  0
 19 47  1  0  0  0  0
 20 21  2  0  0  0  0
 20 48  1  0  0  0  0
 21 22  1  0  0  0  0
 21 49  1  0  0  0  0
 22 23  2  0  0  0  0
M  CHG  1  14   1
M  END
> <s_m_source_file>
AV-unprocessed.smi

> <i_m_source_file_index>
555

> <i_lp_mmshare_version>
43012

> <i_f3d_flags>
0

> <s_epik_input>
W0NIM11PW0NIMl1bQ0gyXW4xbmMoW2NIXVtjSF1jMT1PKUMoPU8pW05IXVtDSF0yW0NIMl1bQ0gyXU4oW0NIXShbQ0gzXSlbQ0gzXSlbQ0gyXVtDSDJdMg==

> <s_epik_cmdline>
J2VwaWtfcHl0aG9uJywgJy1waCcsICc3LjAnLCAnLXRuJywgJzgnLCAnLW1hJywgJzIwMCcsICctbWV0YWxfYmluZGluZycsICctaW1hZScsICc8aW5maWxlLm1hZT4nLCAnLW9tYWUnLCAnPG91dGZpbGUubWFlPic=

> <r_lp_tautomer_probability>
1

> <r_epik_Ionization_Penalty>
0.00560205

> <r_epik_Ionization_Penalty_Charging>
0.00559911

> <r_epik_Ionization_Penalty_Neutral>
2.94673e-06

> <r_epik_State_Penalty>
0.00410202

> <r_epik_Charging_Adjusted_Penalty>
0.00970113

> <i_epik_Tot_Q>
1

> <i_epik_Tot_abs_Q>
1

> <r_epik_Metal_State_Penalty>
-0

> <b_epik_Metal_Only>
0

> <s_lp_Force_Field>
OPLS_2005

> <r_lp_Energy>
40.4253

> <b_lp_Chiralities_Consistent>
1

> <s_lp_Variant>
AV-unprocessed.smi:555-1

> <Gold.Version>
5.8.1

> <Gold.Id.Protein>
6NUR|6NUR_protein|mol2

> <Gold.PLP.Fitness>
41.1240

> <Gold.PLP.PLP>
-32.2693

> <Gold.PLP.part.hbond>
-3.5248

> <Gold.PLP.part.metal>
0.0000

> <Gold.PLP.part.buried>
-7.4053

> <Gold.PLP.part.nonpolar>
-22.1492

> <Gold.PLP.part.repulsive>
0.5303

> <Gold.PLP.ligand.clash>
0.0000

> <Gold.PLP.ligand.torsion>
0.1399

> <Gold.PLP.Chemscore.Hbond>
3.0000

> <Gold.PLP.Chemscore.CHOScore>
0.0000

> <Gold.PLP.Chemscore.Metal>
0.0000

> <Gold.Chemscore.Hbonds>
donor molecule, donor type, donor heavy atom, donor atom, acceptor molecule, acceptor atom, score
      L1  H    14    50       P1 10957  1.98
      P1  H 11000 11005       L1     6  1.00

> <Gold.PLP.Chemscore.Internal.Correction>
0.1345

> <Gold.Rescore>
     Score         DG    S(hbond)    S(metal)    S(lipo)     H(rot)  DE(clash)    DE(int)     intcor
     14.03     -14.36       1.82        0.00      62.08       1.74       0.04       0.28       ----

> <Gold.Chemscore.Fitness>
14.0311

> <Gold.Chemscore.DG>
-14.3574

> <Gold.Chemscore.ZeroCoef>
-5.4800

> <Gold.Chemscore.Hbond>
1.8199

> <Gold.Chemscore.Metal>
0.0000

> <Gold.Chemscore.Lipo>
62.0767

> <Gold.Chemscore.Internal_Hbond>
0.0000

> <Gold.Chemscore.DEClash>
0.0441

> <Gold.Chemscore.DEInternal>
0.2821

> <Gold.Chemscore.Rot>
1.7438

> <Gold.Chemscore.Internal.Correction>
   9.000000E+99

> <Gold.Chemscore.Hbonds>
donor molecule, donor type, donor heavy atom, donor atom, acceptor molecule, acceptor atom, score
      L1  H    14    50       P1 10957  0.91
      P1  H 11000 11005       L1     6  0.66

> <Gold.Chemscore.Hbond.Weighted>
-6.0786

> <Gold.Chemscore.Metal.Weighted>
-0.0000

> <Gold.Chemscore.Lipo.Weighted>
-7.2630

> <Gold.Chemscore.Internal_Hbond.Weighted>
0.0000

> <Gold.Chemscore.DEClash.Weighted>
0.0441

> <Gold.Chemscore.DEInternal.Weighted>
0.2821

> <Gold.Chemscore.Rot.Weighted>
4.4642

> <Gold.Chemscore.Internal.Correction.Weighted>
   9.000000E+99

> <Gold.Protein.RotatedTorsions>
[ 6907 6896 6895 6894 ] final  108.81 input  -60.11 | X-H torsion
[ 7974 7965 7964 7962 ] final  -47.51 input  175.53 | X-H torsion
[ 8008 7997 7996 7995 ] final  -19.13 input   59.86 | X-H torsion
[ 10167 10162 10161 10158 ] final   37.27 input  -65.29 | X-H torsion
[ 10718 10713 10712 10709 ] final   34.20 input   66.30 | X-H torsion
[ 10763 10752 10751 10750 ] final   98.63 input  -60.55 | X-H torsion
[ 11005 11000 10999 10996 ] final  134.01 input  -57.11 | X-H torsion

> <Gold.Protein.ActiveResidues>
 VAL166  LYS551  ARG553  GLY616  TRP617  ASP618  TYR619  PRO620  LYS621  CYS622 
 ASP623  PHE694  ASN695  SER759  ASP760  ASP761  ALA762  ILE779  LEU786  VAL792 
 PHE793  MET794  SER795  GLU796  ALA797  LYS798  CYS799  TRP800  GLU811  SER814 

> <Gold.Protein.RotatedAtoms>
  152.5095  133.9035  159.7452 H   0  0  0  0  0  0  0  0  0  0  0  0  # atno 6907 bound_to 6896
  150.9445  133.6610  159.2791 H   0  0  0  0  0  0  0  0  0  0  0  0  # atno 6908 bound_to 6896
  151.3910  135.0961  159.9579 H   0  0  0  0  0  0  0  0  0  0  0  0  # atno 6909 bound_to 6896
  145.9608  140.7481  142.9458 H   0  0  0  0  0  0  0  0  0  0  0  0  # atno 7974 bound_to 7965
  154.4858  140.2097  155.9660 H   0  0  0  0  0  0  0  0  0  0  0  0  # atno 8008 bound_to 7997
  156.1233  140.3209  155.8209 H   0  0  0  0  0  0  0  0  0  0  0  0  # atno 8009 bound_to 7997
  155.4429  140.0511  157.2999 H   0  0  0  0  0  0  0  0  0  0  0  0  # atno 8010 bound_to 7997
  140.4049  144.1673  150.6135 H   0  0  0  0  0  0  0  0  0  0  0  0  # atno 10167 bound_to 10162
  157.3074  130.7381  149.6704 H   0  0  0  0  0  0  0  0  0  0  0  0  # atno 10718 bound_to 10713
  153.2914  135.4141  155.1170 H   0  0  0  0  0  0  0  0  0  0  0  0  # atno 10763 bound_to 10752
  154.8521  135.3519  154.5976 H   0  0  0  0  0  0  0  0  0  0  0  0  # atno 10764 bound_to 10752
  153.6398  135.7057  153.5303 H   0  0  0  0  0  0  0  0  0  0  0  0  # atno 10765 bound_to 10752
  139.9888  134.9522  156.9807 H   0  0  0  0  0  0  0  0  0  0  0  0  # atno 11005 bound_to 11000
  144.6814  140.2588  143.7322 LP  0  0  0  0  0  0  0  0  0  0  0  0  # atno 17320 bound_to 7965
  145.8042  139.1977  143.2030 LP  0  0  0  0  0  0  0  0  0  0  0  0  # atno 17321 bound_to 7965
  140.4701  143.2416  151.9101 LP  0  0  0  0  0  0  0  0  0  0  0  0  # atno 17342 bound_to 10162
  139.4783  144.5379  151.8571 LP  0  0  0  0  0  0  0  0  0  0  0  0  # atno 17343 bound_to 10162
  155.9675  130.4261  150.4686 LP  0  0  0  0  0  0  0  0  0  0  0  0  # atno 17370 bound_to 10713
  157.2678  131.0581  151.2279 LP  0  0  0  0  0  0  0  0  0  0  0  0  # atno 17371 bound_to 10713
  140.4949  134.1155  155.7239 LP  0  0  0  0  0  0  0  0  0  0  0  0  # atno 17394 bound_to 11000
  141.1548  133.8903  157.2006 LP  0  0  0  0  0  0  0  0  0  0  0  0  # atno 17395 bound_to 11000

$$$$
