AV-unprocessed.smi:2888|AV-procd|sdf|11105|dock10
  -GOLD-   2272015573D 1   1.00000     0.00000
 Structure written by MMmdl.
 34 36  0  0  0  0  0  0  0  0  2 V2000
  152.7847  140.2984  159.4459 C   0  0  0  0  0  0  0  0  0  0  0  0
  152.0698  141.4824  158.8302 C   0  0  0  0  0  0  0  0  0  0  0  0
  152.4027  142.8050  159.1698 C   0  0  0  0  0  0  0  0  0  0  0  0
  151.6688  143.8248  158.5334 C   0  0  0  0  0  0  0  0  0  0  0  0
  151.9272  145.2914  158.8051 C   0  0  0  0  0  0  0  0  0  0  0  0
  150.6968  143.5082  157.6413 N   0  3  0  0  0  0  0  0  0  0  0  0
  150.4342  142.2220  157.3631 C   0  0  0  0  0  0  0  0  0  0  0  0
  149.4365  141.9595  156.4420 N   0  0  0  0  0  0  0  0  0  0  0  0
  149.0332  140.6191  156.0335 C   0  0  1  0  0  0  0  0  0  0  0  0
  147.6222  140.2453  156.4942 C   0  0  0  0  0  0  0  0  0  0  0  0
  146.9644  139.8158  155.1748 C   0  0  1  0  0  0  0  0  0  0  0  0
  146.6297  141.0258  154.2930 C   0  0  0  0  0  0  0  0  0  0  0  0
  148.0155  141.4527  153.8126 C   0  0  0  0  0  0  0  0  0  0  0  0
  148.9248  140.4248  154.5082 C   0  0  2  0  0  0  0  0  0  0  0  0
  148.0794  139.2875  154.4755 O   0  0  0  0  0  0  0  0  0  0  0  0
  151.0978  141.2080  157.9375 N   0  0  0  0  0  0  0  0  0  0  0  0
  153.4851  140.6189  160.2174 H   0  0  0  0  0  0  0  0  0  0  0  0
  153.3427  139.7540  158.6836 H   0  0  0  0  0  0  0  0  0  0  0  0
  152.0676  139.6147  159.9010 H   0  0  0  0  0  0  0  0  0  0  0  0
  153.1825  143.0287  159.8835 H   0  0  0  0  0  0  0  0  0  0  0  0
  152.6258  145.4203  159.6324 H   0  0  0  0  0  0  0  0  0  0  0  0
  150.9986  145.8018  159.0622 H   0  0  0  0  0  0  0  0  0  0  0  0
  152.3514  145.7704  157.9222 H   0  0  0  0  0  0  0  0  0  0  0  0
  149.0841  142.7399  155.9072 H   0  0  0  0  0  0  0  0  0  0  0  0
  149.7387  139.8947  156.4427 H   0  0  0  0  0  0  0  0  0  0  0  0
  147.6636  139.4133  157.1979 H   0  0  0  0  0  0  0  0  0  0  0  0
  147.0820  141.0641  156.9715 H   0  0  0  0  0  0  0  0  0  0  0  0
  146.1368  139.1168  155.2985 H   0  0  0  0  0  0  0  0  0  0  0  0
  146.0063  140.7309  153.4479 H   0  0  0  0  0  0  0  0  0  0  0  0
  146.1103  141.8111  154.8436 H   0  0  0  0  0  0  0  0  0  0  0  0
  148.0863  141.3524  152.7288 H   0  0  0  0  0  0  0  0  0  0  0  0
  148.2576  142.4843  154.0690 H   0  0  0  0  0  0  0  0  0  0  0  0
  149.8840  140.2785  154.0108 H   0  0  0  0  0  0  0  0  0  0  0  0
  150.1744  144.2569  157.1860 H   0  0  0  0  0  0  0  0  0  0  0  0
  1  2  1  0  0  0  0
  1 17  1  0  0  0  0
  1 18  1  0  0  0  0
  1 19  1  0  0  0  0
  2 16  1  0  0  0  0
  2  3  2  0  0  0  0
  3  4  1  0  0  0  0
  3 20  1  0  0  0  0
  4  5  1  0  0  0  0
  4  6  2  0  0  0  0
  5 21  1  0  0  0  0
  5 22  1  0  0  0  0
  5 23  1  0  0  0  0
  6  7  1  0  0  0  0
  6 34  1  0  0  0  0
  7  8  1  0  0  0  0
  7 16  2  0  0  0  0
  8  9  1  0  0  0  0
  8 24  1  0  0  0  0
  9 14  1  0  0  0  0
  9 10  1  0  0  0  0
  9 25  1  0  0  0  0
 10 11  1  0  0  0  0
 10 26  1  0  0  0  0
 10 27  1  0  0  0  0
 11 15  1  0  0  0  0
 11 12  1  0  0  0  0
 11 28  1  0  0  0  0
 12 13  1  0  0  0  0
 12 29  1  0  0  0  0
 12 30  1  0  0  0  0
 13 14  1  0  0  0  0
 13 31  1  0  0  0  0
 13 32  1  0  0  0  0
 14 15  1  0  0  0  0
 14 33  1  0  0  0  0
M  CHG  1   6   1
M  END
> <s_m_source_file>
AV-unprocessed.smi

> <i_m_source_file_index>
2888

> <i_lp_mmshare_version>
43012

> <i_f3d_flags>
0

> <s_epik_input>
W0NIM11jMVtjSF1jKFtDSDNdKW5jKG4xKVtOSF1bQ0BIXShbQ0gyXVtDQEBIXTIzKVtDQEBIXShPMylbQ0gyXVtDSDJdMg==

> <s_epik_cmdline>
J2VwaWtfcHl0aG9uJywgJy1waCcsICc3LjAnLCAnLXRuJywgJzgnLCAnLW1hJywgJzIwMCcsICctbWV0YWxfYmluZGluZycsICctaW1hZScsICc8aW5maWxlLm1hZT4nLCAnLW9tYWUnLCAnPG91dGZpbGUubWFlPic=

> <r_lp_tautomer_probability>
0.505494

> <r_epik_Ionization_Penalty>
2.49163

> <r_epik_Ionization_Penalty_Charging>
2.49163

> <r_epik_Ionization_Penalty_Neutral>
3.7631e-06

> <r_epik_State_Penalty>
2.656

> <r_epik_Charging_Adjusted_Penalty>
5.14762

> <i_epik_Tot_Q>
1

> <i_epik_Tot_abs_Q>
1

> <r_epik_Metal_State_Penalty>
2.66479

> <b_epik_Metal_Only>
0

> <s_lp_Force_Field>
OPLS_2005

> <r_lp_Energy>
36.4531

> <b_lp_Chiralities_Consistent>
1

> <s_lp_Variant>
AV-unprocessed.smi:2888-6

> <Gold.Version>
5.8.1

> <Gold.Id.Protein>
6NUR|6NUR_protein|mol2

> <Gold.PLP.Fitness>
40.6667

> <Gold.PLP.PLP>
-29.1765

> <Gold.PLP.part.hbond>
-2.0000

> <Gold.PLP.part.metal>
0.0000

> <Gold.PLP.part.buried>
-4.9414

> <Gold.PLP.part.nonpolar>
-23.4152

> <Gold.PLP.part.repulsive>
0.1829

> <Gold.PLP.ligand.clash>
0.0000

> <Gold.PLP.ligand.torsion>
0.0913

> <Gold.PLP.Chemscore.Hbond>
3.8880

> <Gold.PLP.Chemscore.CHOScore>
0.0000

> <Gold.PLP.Chemscore.Metal>
0.0000

> <Gold.Chemscore.Hbonds>
donor molecule, donor type, donor heavy atom, donor atom, acceptor molecule, acceptor atom, score
      L1  H     6    34       P1  8028  1.86
      L1  H     8    24       P1  8028  2.00

> <Gold.PLP.Chemscore.Internal.Correction>
0.0088

> <Gold.Rescore>
     Score         DG    S(hbond)    S(metal)    S(lipo)     H(rot)  DE(clash)    DE(int)     intcor
     17.98     -18.14       1.70        0.00      81.41       1.00       0.07       0.08       ----

> <Gold.Chemscore.Fitness>
17.9839

> <Gold.Chemscore.DG>
-18.1379

> <Gold.Chemscore.ZeroCoef>
-5.4800

> <Gold.Chemscore.Hbond>
1.7043

> <Gold.Chemscore.Metal>
0.0000

> <Gold.Chemscore.Lipo>
81.4145

> <Gold.Chemscore.Internal_Hbond>
0.0000

> <Gold.Chemscore.DEClash>
0.0722

> <Gold.Chemscore.DEInternal>
0.0817

> <Gold.Chemscore.Rot>
1.0000

> <Gold.Chemscore.Internal.Correction>
   9.000000E+99

> <Gold.Chemscore.Hbonds>
donor molecule, donor type, donor heavy atom, donor atom, acceptor molecule, acceptor atom, score
      L1  H     6    34       P1  8028  0.67
      L1  H     8    24       P1  8028  0.91

> <Gold.Chemscore.Hbond.Weighted>
-5.6924

> <Gold.Chemscore.Metal.Weighted>
-0.0000

> <Gold.Chemscore.Lipo.Weighted>
-9.5255

> <Gold.Chemscore.Internal_Hbond.Weighted>
0.0000

> <Gold.Chemscore.DEClash.Weighted>
0.0722

> <Gold.Chemscore.DEInternal.Weighted>
0.0817

> <Gold.Chemscore.Rot.Weighted>
2.5600

> <Gold.Chemscore.Internal.Correction.Weighted>
   9.000000E+99

> <Gold.Protein.RotatedTorsions>
[ 6907 6896 6895 6894 ] final   -0.66 input  -60.11 | X-H torsion
[ 7974 7965 7964 7962 ] final  -68.38 input  175.53 | X-H torsion
[ 8008 7997 7996 7995 ] final   86.24 input   59.86 | X-H torsion
[ 10167 10162 10161 10158 ] final -159.95 input  -65.29 | X-H torsion
[ 10718 10713 10712 10709 ] final -161.53 input   66.30 | X-H torsion
[ 10763 10752 10751 10750 ] final  -49.79 input  -60.55 | X-H torsion
[ 11005 11000 10999 10996 ] final -126.40 input  -57.11 | X-H torsion

> <Gold.Protein.ActiveResidues>
 VAL166  LYS551  ARG553  GLY616  TRP617  ASP618  TYR619  PRO620  LYS621  CYS622 
 ASP623  PHE694  ASN695  SER759  ASP760  ASP761  ALA762  ILE779  LEU786  VAL792 
 PHE793  MET794  SER795  GLU796  ALA797  LYS798  CYS799  TRP800  GLU811  SER814 

> <Gold.Protein.RotatedAtoms>
  151.5587  135.1066  159.9967 H   0  0  0  0  0  0  0  0  0  0  0  0  # atno 6907 bound_to 6896
  152.4457  133.7527  159.6714 H   0  0  0  0  0  0  0  0  0  0  0  0  # atno 6908 bound_to 6896
  150.8372  133.7926  159.3099 H   0  0  0  0  0  0  0  0  0  0  0  0  # atno 6909 bound_to 6896
  145.7172  140.9053  143.0649 H   0  0  0  0  0  0  0  0  0  0  0  0  # atno 7974 bound_to 7965
  155.9602  140.3394  155.6484 H   0  0  0  0  0  0  0  0  0  0  0  0  # atno 8008 bound_to 7997
  155.6808  140.0737  157.2504 H   0  0  0  0  0  0  0  0  0  0  0  0  # atno 8009 bound_to 7997
  154.4141  140.1675  156.1967 H   0  0  0  0  0  0  0  0  0  0  0  0  # atno 8010 bound_to 7997
  139.6576  143.9970  152.2204 H   0  0  0  0  0  0  0  0  0  0  0  0  # atno 10167 bound_to 10162
  156.5975  130.8796  151.2905 H   0  0  0  0  0  0  0  0  0  0  0  0  # atno 10718 bound_to 10713
  154.0999  135.6565  153.4866 H   0  0  0  0  0  0  0  0  0  0  0  0  # atno 10763 bound_to 10752
  153.0292  135.5222  154.7297 H   0  0  0  0  0  0  0  0  0  0  0  0  # atno 10764 bound_to 10752
  154.6446  135.2993  155.0031 H   0  0  0  0  0  0  0  0  0  0  0  0  # atno 10765 bound_to 10752
  140.9684  134.0839  157.3895 H   0  0  0  0  0  0  0  0  0  0  0  0  # atno 11005 bound_to 11000
  144.6926  139.9154  143.7465 LP  0  0  0  0  0  0  0  0  0  0  0  0  # atno 17320 bound_to 7965
  146.0658  139.3649  143.0553 LP  0  0  0  0  0  0  0  0  0  0  0  0  # atno 17321 bound_to 7965
  139.9701  144.6499  150.7997 LP  0  0  0  0  0  0  0  0  0  0  0  0  # atno 17342 bound_to 10162
  140.7566  143.3069  151.2940 LP  0  0  0  0  0  0  0  0  0  0  0  0  # atno 17343 bound_to 10162
  157.7288  130.9662  150.1759 LP  0  0  0  0  0  0  0  0  0  0  0  0  # atno 17370 bound_to 10713
  156.2497  130.3699  149.8246 LP  0  0  0  0  0  0  0  0  0  0  0  0  # atno 17371 bound_to 10713
  139.8903  135.0111  156.6728 LP  0  0  0  0  0  0  0  0  0  0  0  0  # atno 17394 bound_to 11000
  140.7365  133.9014  155.8247 LP  0  0  0  0  0  0  0  0  0  0  0  0  # atno 17395 bound_to 11000

$$$$
