AV-unprocessed.smi:3193|AV-procd|sdf|12206|dock9
  -GOLD-   2272018 43D 1   1.00000     0.00000
 Structure written by MMmdl.
 41 42  0  0  0  0  0  0  0  0  3 V2000
  149.9433  144.2749  159.1511 C   0  0  0  0  0  0  0  0  0  0  0  0
  151.2392  143.9169  158.3946 C   0  0  1  0  0  0  0  0  0  0  0  0
  152.4925  144.4025  159.1533 C   0  0  0  0  0  0  0  0  0  0  0  0
  152.7864  143.5543  160.4022 C   0  0  0  0  0  0  0  0  0  0  0  0
  152.9032  142.0649  160.0473 C   0  0  0  0  0  0  0  0  0  0  0  0
  151.6572  141.5640  159.2990 C   0  0  0  0  0  0  0  0  0  0  0  0
  151.3742  142.4119  158.0383 C   0  0  1  0  0  0  0  0  0  0  0  0
  150.1721  141.8832  157.2299 C   0  0  0  0  0  0  0  0  0  0  0  0
  150.0972  142.5065  155.8929 N   0  3  0  0  0  0  0  0  0  0  0  0
  149.7069  141.5733  154.8175 C   0  0  0  0  0  0  0  0  0  0  0  0
  148.2122  141.2302  154.8950 C   0  0  0  0  0  0  0  0  0  0  0  0
  147.8514  140.1489  153.9746 N   0  0  0  0  0  0  0  0  0  0  0  0
  146.8251  140.1397  153.0645 C   0  0  0  0  0  0  0  0  0  0  0  0
  146.8739  138.9241  152.4321 C   0  0  0  0  0  0  0  0  0  0  0  0
  147.9263  138.2428  152.9829 N   0  3  0  0  0  0  0  0  0  0  0  0
  148.5201  138.9893  153.9201 C   0  0  0  0  0  0  0  0  0  0  0  0
  149.8552  143.7392  160.0959 H   0  0  0  0  0  0  0  0  0  0  0  0
  149.0566  144.0501  158.5591 H   0  0  0  0  0  0  0  0  0  0  0  0
  149.9095  145.3411  159.3768 H   0  0  0  0  0  0  0  0  0  0  0  0
  151.2064  144.4721  157.4561 H   0  0  0  0  0  0  0  0  0  0  0  0
  153.3542  144.3593  158.4857 H   0  0  0  0  0  0  0  0  0  0  0  0
  152.3834  145.4510  159.4325 H   0  0  0  0  0  0  0  0  0  0  0  0
  153.7097  143.8954  160.8717 H   0  0  0  0  0  0  0  0  0  0  0  0
  151.9991  143.6956  161.1431 H   0  0  0  0  0  0  0  0  0  0  0  0
  153.7872  141.9079  159.4280 H   0  0  0  0  0  0  0  0  0  0  0  0
  153.0548  141.4783  160.9539 H   0  0  0  0  0  0  0  0  0  0  0  0
  151.8062  140.5191  159.0263 H   0  0  0  0  0  0  0  0  0  0  0  0
  150.7959  141.5818  159.9675 H   0  0  0  0  0  0  0  0  0  0  0  0
  152.2498  142.3289  157.3916 H   0  0  0  0  0  0  0  0  0  0  0  0
  150.2292  140.7995  157.1195 H   0  0  0  0  0  0  0  0  0  0  0  0
  149.2455  142.1033  157.7621 H   0  0  0  0  0  0  0  0  0  0  0  0
  149.4218  143.2568  155.9301 H   0  0  0  0  0  0  0  0  0  0  0  0
  149.9386  142.0229  153.8508 H   0  0  0  0  0  0  0  0  0  0  0  0
  150.3026  140.6631  154.9010 H   0  0  0  0  0  0  0  0  0  0  0  0
  147.9413  140.9126  155.9029 H   0  0  0  0  0  0  0  0  0  0  0  0
  147.5990  142.1006  154.6561 H   0  0  0  0  0  0  0  0  0  0  0  0
  146.1528  140.9760  152.9354 H   0  0  0  0  0  0  0  0  0  0  0  0
  146.2553  138.5039  151.6522 H   0  0  0  0  0  0  0  0  0  0  0  0
  149.3712  138.7081  154.5148 H   0  0  0  0  0  0  0  0  0  0  0  0
  151.0019  142.8980  155.6724 H   0  0  0  0  0  0  0  0  0  0  0  0
  148.2157  137.3091  152.7185 H   0  0  0  0  0  0  0  0  0  0  0  0
  1  2  1  0  0  0  0
  1 17  1  0  0  0  0
  1 18  1  0  0  0  0
  1 19  1  0  0  0  0
  2  7  1  0  0  0  0
  2  3  1  0  0  0  0
  2 20  1  0  0  0  0
  3  4  1  0  0  0  0
  3 21  1  0  0  0  0
  3 22  1  0  0  0  0
  4  5  1  0  0  0  0
  4 23  1  0  0  0  0
  4 24  1  0  0  0  0
  5  6  1  0  0  0  0
  5 25  1  0  0  0  0
  5 26  1  0  0  0  0
  6  7  1  0  0  0  0
  6 27  1  0  0  0  0
  6 28  1  0  0  0  0
  7  8  1  0  0  0  0
  7 29  1  0  0  0  0
  8  9  1  0  0  0  0
  8 30  1  0  0  0  0
  8 31  1  0  0  0  0
  9 10  1  0  0  0  0
  9 32  1  0  0  0  0
  9 40  1  0  0  0  0
 10 11  1  0  0  0  0
 10 33  1  0  0  0  0
 10 34  1  0  0  0  0
 11 12  1  0  0  0  0
 11 35  1  0  0  0  0
 11 36  1  0  0  0  0
 12 16  1  0  0  0  0
 12 13  1  0  0  0  0
 13 14  2  0  0  0  0
 13 37  1  0  0  0  0
 14 15  1  0  0  0  0
 14 38  1  0  0  0  0
 15 16  2  0  0  0  0
 15 41  1  0  0  0  0
 16 39  1  0  0  0  0
M  CHG  1   9   1
M  CHG  1  15   1
M  END
> <s_m_source_file>
AV-unprocessed.smi

> <i_m_source_file_index>
3193

> <i_lp_mmshare_version>
43012

> <i_f3d_flags>
0

> <s_epik_input>
W0NIM11bQ0BASF0xW0NIMl1bQ0gyXVtDSDJdW0NIMl1bQ0BIXTFbQ0gyXVtOSF1bQ0gyXVtDSDJdbjJbY0hdW2NIXW5bY0hdMg==

> <s_epik_cmdline>
J2VwaWtfcHl0aG9uJywgJy1waCcsICc3LjAnLCAnLXRuJywgJzgnLCAnLW1hJywgJzIwMCcsICctbWV0YWxfYmluZGluZycsICctaW1hZScsICc8aW5maWxlLm1hZT4nLCAnLW9tYWUnLCAnPG91dGZpbGUubWFlPic=

> <r_lp_tautomer_probability>
1

> <r_epik_Ionization_Penalty>
1.50262

> <r_epik_Ionization_Penalty_Charging>
0.00193432

> <r_epik_Ionization_Penalty_Neutral>
1.50068

> <r_epik_State_Penalty>
1.11854

> <r_epik_Charging_Adjusted_Penalty>
1.12048

> <i_epik_Tot_Q>
2

> <i_epik_Tot_abs_Q>
2

> <r_epik_Metal_State_Penalty>
5.11322

> <b_epik_Metal_Only>
0

> <s_lp_Force_Field>
OPLS_2005

> <r_lp_Energy>
27.2728

> <b_lp_Chiralities_Consistent>
1

> <s_lp_Variant>
AV-unprocessed.smi:3193-6

> <Gold.Version>
5.8.1

> <Gold.Id.Protein>
6NUR|6NUR_protein|mol2

> <Gold.PLP.Fitness>
50.9540

> <Gold.PLP.PLP>
-37.5903

> <Gold.PLP.part.hbond>
-2.8265

> <Gold.PLP.part.metal>
0.0000

> <Gold.PLP.part.buried>
-0.3948

> <Gold.PLP.part.nonpolar>
-34.2226

> <Gold.PLP.part.repulsive>
0.2044

> <Gold.PLP.ligand.clash>
0.0000

> <Gold.PLP.ligand.torsion>
0.4824

> <Gold.PLP.Chemscore.Hbond>
4.0000

> <Gold.PLP.Chemscore.CHOScore>
0.7675

> <Gold.PLP.Chemscore.Metal>
0.0000

> <Gold.Chemscore.Hbonds>
donor molecule, donor type, donor heavy atom, donor atom, acceptor molecule, acceptor atom, score
      L1  H     9    32       P1  8028  2.00
      L1  H    15    41       P1  7948  2.00
      L1  C    13    37       P1 10175  0.74

> <Gold.PLP.Chemscore.Internal.Correction>
0.0259

> <Gold.Rescore>
     Score         DG    S(hbond)    S(metal)    S(lipo)     H(rot)  DE(clash)    DE(int)     intcor
     19.25     -19.68       1.94        0.00     109.37       1.98       0.04       0.39       ----

> <Gold.Chemscore.Fitness>
19.2479

> <Gold.Chemscore.DG>
-19.6776

> <Gold.Chemscore.ZeroCoef>
-5.4800

> <Gold.Chemscore.Hbond>
1.9353

> <Gold.Chemscore.Metal>
0.0000

> <Gold.Chemscore.Lipo>
109.3678

> <Gold.Chemscore.Internal_Hbond>
0.0000

> <Gold.Chemscore.DEClash>
0.0406

> <Gold.Chemscore.DEInternal>
0.3892

> <Gold.Chemscore.Rot>
1.9774

> <Gold.Chemscore.Internal.Correction>
   9.000000E+99

> <Gold.Chemscore.Hbonds>
donor molecule, donor type, donor heavy atom, donor atom, acceptor molecule, acceptor atom, score
      L1  H     9    32       P1  8028  0.96
      L1  H    15    41       P1  7948  0.93

> <Gold.Chemscore.Hbond.Weighted>
-6.4638

> <Gold.Chemscore.Metal.Weighted>
-0.0000

> <Gold.Chemscore.Lipo.Weighted>
-12.7960

> <Gold.Chemscore.Internal_Hbond.Weighted>
0.0000

> <Gold.Chemscore.DEClash.Weighted>
0.0406

> <Gold.Chemscore.DEInternal.Weighted>
0.3892

> <Gold.Chemscore.Rot.Weighted>
5.0622

> <Gold.Chemscore.Internal.Correction.Weighted>
   9.000000E+99

> <Gold.Protein.RotatedTorsions>
[ 6907 6896 6895 6894 ] final -101.23 input  -60.11 | X-H torsion
[ 7974 7965 7964 7962 ] final   13.18 input  175.53 | X-H torsion
[ 8008 7997 7996 7995 ] final    4.62 input   59.86 | X-H torsion
[ 10167 10162 10161 10158 ] final  -67.18 input  -65.29 | X-H torsion
[ 10718 10713 10712 10709 ] final  -63.76 input   66.30 | X-H torsion
[ 10763 10752 10751 10750 ] final -128.33 input  -60.55 | X-H torsion
[ 11005 11000 10999 10996 ] final   30.79 input  -57.11 | X-H torsion

> <Gold.Protein.ActiveResidues>
 VAL166  LYS551  ARG553  GLY616  TRP617  ASP618  TYR619  PRO620  LYS621  CYS622 
 ASP623  PHE694  ASN695  SER759  ASP760  ASP761  ALA762  ILE779  LEU786  VAL792 
 PHE793  MET794  SER795  GLU796  ALA797  LYS798  CYS799  TRP800  GLU811  SER814 

> <Gold.Protein.RotatedAtoms>
  150.7146  134.0766  159.3882 H   0  0  0  0  0  0  0  0  0  0  0  0  # atno 6907 bound_to 6896
  151.8749  135.0473  160.0492 H   0  0  0  0  0  0  0  0  0  0  0  0  # atno 6908 bound_to 6896
  152.2614  133.5265  159.5420 H   0  0  0  0  0  0  0  0  0  0  0  0  # atno 6909 bound_to 6896
  146.2335  139.9227  142.8508 H   0  0  0  0  0  0  0  0  0  0  0  0  # atno 7974 bound_to 7965
  154.7182  140.2706  155.6565 H   0  0  0  0  0  0  0  0  0  0  0  0  # atno 8008 bound_to 7997
  156.2816  140.2739  156.1770 H   0  0  0  0  0  0  0  0  0  0  0  0  # atno 8009 bound_to 7997
  155.0542  140.0371  157.2544 H   0  0  0  0  0  0  0  0  0  0  0  0  # atno 8010 bound_to 7997
  140.5602  143.2312  151.6742 H   0  0  0  0  0  0  0  0  0  0  0  0  # atno 10167 bound_to 10162
  156.0771  130.4225  150.1323 H   0  0  0  0  0  0  0  0  0  0  0  0  # atno 10718 bound_to 10713
  154.8756  135.3932  154.3740 H   0  0  0  0  0  0  0  0  0  0  0  0  # atno 10763 bound_to 10752
  153.4496  135.7028  153.6123 H   0  0  0  0  0  0  0  0  0  0  0  0  # atno 10764 bound_to 10752
  153.4668  135.3799  155.2338 H   0  0  0  0  0  0  0  0  0  0  0  0  # atno 10765 bound_to 10752
  140.2907  134.2868  155.7777 H   0  0  0  0  0  0  0  0  0  0  0  0  # atno 11005 bound_to 11000
  145.2121  140.9900  143.4094 LP  0  0  0  0  0  0  0  0  0  0  0  0  # atno 17320 bound_to 7965
  144.9682  139.3908  143.6322 LP  0  0  0  0  0  0  0  0  0  0  0  0  # atno 17321 bound_to 7965
  139.5067  144.3674  152.0504 LP  0  0  0  0  0  0  0  0  0  0  0  0  # atno 17342 bound_to 10162
  140.2799  144.3871  150.6122 LP  0  0  0  0  0  0  0  0  0  0  0  0  # atno 17343 bound_to 10162
  156.9363  130.9730  151.3524 LP  0  0  0  0  0  0  0  0  0  0  0  0  # atno 17370 bound_to 10713
  157.5871  130.8417  149.8605 LP  0  0  0  0  0  0  0  0  0  0  0  0  # atno 17371 bound_to 10713
  141.2147  133.7583  156.9620 LP  0  0  0  0  0  0  0  0  0  0  0  0  # atno 17394 bound_to 11000
  140.1198  134.9424  157.2187 LP  0  0  0  0  0  0  0  0  0  0  0  0  # atno 17395 bound_to 11000

$$$$
