AV-unprocessed.smi:1451|AV-procd|sdf|5900|dock6
  -GOLD-   22720 5583D 1   1.00000     0.00000
 Structure written by MMmdl.
 47 48  0  0  0  0  0  0  0  0  2 V2000
  147.0791  132.7684  161.5343 C   0  0  0  0  0  0  0  0  0  0  0  0
  146.1704  133.9273  161.0878 C   0  0  1  0  0  0  0  0  0  0  0  0
  145.8564  134.9111  162.2301 C   0  0  0  0  0  0  0  0  0  0  0  0
  147.0727  135.7883  162.5575 C   0  0  0  0  0  0  0  0  0  0  0  0
  147.6011  136.4907  161.2971 C   0  0  0  0  0  0  0  0  0  0  0  0
  147.9219  135.5063  160.2328 N   0  3  2  0  0  0  0  0  0  0  0  0
  148.5838  136.1323  159.0586 C   0  0  0  0  0  0  0  0  0  0  0  0
  147.8612  137.3993  158.5609 C   0  0  0  0  0  0  0  0  0  0  0  0
  148.7996  138.3412  157.9576 N   0  0  0  0  0  0  0  0  0  0  0  0
  150.0301  138.6307  158.4150 C   0  0  0  0  0  0  0  0  0  0  0  0
  150.5315  138.0630  159.3839 O   0  0  0  0  0  0  0  0  0  0  0  0
  150.8186  139.7534  157.7200 C   0  0  0  0  0  0  0  0  0  0  0  0
  151.6277  140.5872  158.6269 N   0  0  0  0  0  0  0  0  0  0  0  0
  151.2829  141.9509  158.7074 C   0  0  0  0  0  0  0  0  0  0  0  0
  151.9396  142.8283  159.4890 C   0  0  0  0  0  0  0  0  0  0  0  0
  151.5693  144.3027  159.5033 C   0  0  0  0  0  0  0  0  0  0  0  0
  150.2875  144.4812  159.8228 F   0  0  0  0  0  0  0  0  0  0  0  0
  152.3171  144.9643  160.3875 F   0  0  0  0  0  0  0  0  0  0  0  0
  151.7809  144.8375  158.3015 F   0  0  0  0  0  0  0  0  0  0  0  0
  153.0533  142.3028  160.2549 C   0  0  0  0  0  0  0  0  0  0  0  0
  153.4056  141.0045  160.1775 C   0  0  0  0  0  0  0  0  0  0  0  0
  152.6827  140.0629  159.3195 C   0  0  0  0  0  0  0  0  0  0  0  0
  153.0110  138.8810  159.2207 O   0  0  0  0  0  0  0  0  0  0  0  0
  146.7393  134.6810  159.8676 C   0  0  0  0  0  0  0  0  0  0  0  0
  148.0720  133.1145  161.8214 H   0  0  0  0  0  0  0  0  0  0  0  0
  147.2042  132.0400  160.7330 H   0  0  0  0  0  0  0  0  0  0  0  0
  146.6520  132.2418  162.3880 H   0  0  0  0  0  0  0  0  0  0  0  0
  145.2262  133.4749  160.7814 H   0  0  0  0  0  0  0  0  0  0  0  0
  145.0251  135.5522  161.9338 H   0  0  0  0  0  0  0  0  0  0  0  0
  145.5253  134.3743  163.1198 H   0  0  0  0  0  0  0  0  0  0  0  0
  146.8034  136.5298  163.3101 H   0  0  0  0  0  0  0  0  0  0  0  0
  147.8620  135.1790  162.9984 H   0  0  0  0  0  0  0  0  0  0  0  0
  146.8651  137.2052  160.9248 H   0  0  0  0  0  0  0  0  0  0  0  0
  148.4946  137.0597  161.5572 H   0  0  0  0  0  0  0  0  0  0  0  0
  149.6292  136.3464  159.2842 H   0  0  0  0  0  0  0  0  0  0  0  0
  148.5908  135.4160  158.2358 H   0  0  0  0  0  0  0  0  0  0  0  0
  147.0617  137.1345  157.8676 H   0  0  0  0  0  0  0  0  0  0  0  0
  147.3734  137.8944  159.4008 H   0  0  0  0  0  0  0  0  0  0  0  0
  148.4744  138.8422  157.1430 H   0  0  0  0  0  0  0  0  0  0  0  0
  151.4698  139.2973  156.9723 H   0  0  0  0  0  0  0  0  0  0  0  0
  150.1176  140.3613  157.1455 H   0  0  0  0  0  0  0  0  0  0  0  0
  150.4540  142.2425  158.0782 H   0  0  0  0  0  0  0  0  0  0  0  0
  153.6144  142.9575  160.9056 H   0  0  0  0  0  0  0  0  0  0  0  0
  154.2398  140.6472  160.7638 H   0  0  0  0  0  0  0  0  0  0  0  0
  147.0005  133.9646  159.0889 H   0  0  0  0  0  0  0  0  0  0  0  0
  145.9712  135.3303  159.4444 H   0  0  0  0  0  0  0  0  0  0  0  0
  148.6016  134.8753  160.6326 H   0  0  0  0  0  0  0  0  0  0  0  0
  1  2  1  0  0  0  0
  1 25  1  0  0  0  0
  1 26  1  0  0  0  0
  1 27  1  0  0  0  0
  2 24  1  0  0  0  0
  2  3  1  0  0  0  0
  2 28  1  0  0  0  0
  3  4  1  0  0  0  0
  3 29  1  0  0  0  0
  3 30  1  0  0  0  0
  4  5  1  0  0  0  0
  4 31  1  0  0  0  0
  4 32  1  0  0  0  0
  5  6  1  0  0  0  0
  5 33  1  0  0  0  0
  5 34  1  0  0  0  0
  6  7  1  0  0  0  0
  6 24  1  0  0  0  0
  6 47  1  0  0  0  0
  7  8  1  0  0  0  0
  7 35  1  0  0  0  0
  7 36  1  0  0  0  0
  8  9  1  0  0  0  0
  8 37  1  0  0  0  0
  8 38  1  0  0  0  0
  9 10  1  0  0  0  0
  9 39  1  0  0  0  0
 10 11  2  0  0  0  0
 10 12  1  0  0  0  0
 12 13  1  0  0  0  0
 12 40  1  0  0  0  0
 12 41  1  0  0  0  0
 13 22  1  0  0  0  0
 13 14  1  0  0  0  0
 14 15  2  0  0  0  0
 14 42  1  0  0  0  0
 15 16  1  0  0  0  0
 15 20  1  0  0  0  0
 16 17  1  0  0  0  0
 16 18  1  0  0  0  0
 16 19  1  0  0  0  0
 20 21  2  0  0  0  0
 20 43  1  0  0  0  0
 21 22  1  0  0  0  0
 21 44  1  0  0  0  0
 22 23  2  0  0  0  0
 24 45  1  0  0  0  0
 24 46  1  0  0  0  0
M  CHG  1   6   1
M  END
> <s_m_source_file>
AV-unprocessed.smi

> <i_m_source_file_index>
1451

> <i_lp_mmshare_version>
43012

> <i_f3d_flags>
0

> <s_epik_input>
W0NIM11bQ0BASF0xW0NIMl1bQ0gyXVtDSDJdTihbQ0gyXTEpW0NIMl1bQ0gyXVtOSF1DKD1PKVtDSDJdbjJbY0hdYyhDKEYpKEYpRilbY0hdW2NIXWMyPU8=

> <s_epik_cmdline>
J2VwaWtfcHl0aG9uJywgJy1waCcsICc3LjAnLCAnLXRuJywgJzgnLCAnLW1hJywgJzIwMCcsICctbWV0YWxfYmluZGluZycsICctaW1hZScsICc8aW5maWxlLm1hZT4nLCAnLW9tYWUnLCAnPG91dGZpbGUubWFlPic=

> <r_lp_tautomer_probability>
1

> <r_epik_Ionization_Penalty>
0.00192452

> <r_epik_Ionization_Penalty_Charging>
0.00192444

> <r_epik_Ionization_Penalty_Neutral>
8.16761e-08

> <r_epik_State_Penalty>
0.00131115

> <r_epik_Charging_Adjusted_Penalty>
0.00323559

> <i_epik_Tot_Q>
1

> <i_epik_Tot_abs_Q>
1

> <r_epik_Metal_State_Penalty>
-0

> <b_epik_Metal_Only>
0

> <s_lp_Force_Field>
OPLS_2005

> <r_lp_Energy>
37.139

> <b_lp_Chiralities_Consistent>
1

> <s_lp_Variant>
AV-unprocessed.smi:1451-2

> <Gold.Version>
5.8.1

> <Gold.Id.Protein>
6NUR|6NUR_protein|mol2

> <Gold.PLP.Fitness>
50.4582

> <Gold.PLP.PLP>
-52.1584

> <Gold.PLP.part.hbond>
-1.0000

> <Gold.PLP.part.metal>
0.0000

> <Gold.PLP.part.buried>
-6.7622

> <Gold.PLP.part.nonpolar>
-45.0555

> <Gold.PLP.part.repulsive>
0.2639

> <Gold.PLP.ligand.clash>
0.0000

> <Gold.PLP.ligand.torsion>
0.8713

> <Gold.PLP.Chemscore.Hbond>
0.0000

> <Gold.PLP.Chemscore.CHOScore>
0.0000

> <Gold.PLP.Chemscore.Metal>
0.0000

> <Gold.PLP.Chemscore.Internal.Correction>
0.0424

> <Gold.Rescore>
     Score         DG    S(hbond)    S(metal)    S(lipo)     H(rot)  DE(clash)    DE(int)     intcor
     12.73     -15.34       0.85        0.00     105.45       2.08       0.19       2.42       ----

> <Gold.Chemscore.Fitness>
12.7296

> <Gold.Chemscore.DG>
-15.3370

> <Gold.Chemscore.ZeroCoef>
-5.4800

> <Gold.Chemscore.Hbond>
0.8484

> <Gold.Chemscore.Metal>
0.0000

> <Gold.Chemscore.Lipo>
105.4545

> <Gold.Chemscore.Internal_Hbond>
0.0000

> <Gold.Chemscore.DEClash>
0.1852

> <Gold.Chemscore.DEInternal>
2.4221

> <Gold.Chemscore.Rot>
2.0762

> <Gold.Chemscore.Internal.Correction>
   9.000000E+99

> <Gold.Chemscore.Hbond.Weighted>
-2.8338

> <Gold.Chemscore.Metal.Weighted>
-0.0000

> <Gold.Chemscore.Lipo.Weighted>
-12.3382

> <Gold.Chemscore.Internal_Hbond.Weighted>
0.0000

> <Gold.Chemscore.DEClash.Weighted>
0.1852

> <Gold.Chemscore.DEInternal.Weighted>
2.4221

> <Gold.Chemscore.Rot.Weighted>
5.3150

> <Gold.Chemscore.Internal.Correction.Weighted>
   9.000000E+99

> <Gold.Protein.RotatedTorsions>
[ 6907 6896 6895 6894 ] final   85.77 input  -60.11 | X-H torsion
[ 7974 7965 7964 7962 ] final  143.29 input  175.53 | X-H torsion
[ 8008 7997 7996 7995 ] final  130.82 input   59.86 | X-H torsion
[ 10167 10162 10161 10158 ] final -176.24 input  -65.29 | X-H torsion
[ 10718 10713 10712 10709 ] final  -85.39 input   66.30 | X-H torsion
[ 10763 10752 10751 10750 ] final  -34.58 input  -60.55 | X-H torsion
[ 11005 11000 10999 10996 ] final   56.94 input  -57.11 | X-H torsion

> <Gold.Protein.ActiveResidues>
 VAL166  LYS551  ARG553  GLY616  TRP617  ASP618  TYR619  PRO620  LYS621  CYS622 
 ASP623  PHE694  ASN695  SER759  ASP760  ASP761  ALA762  ILE779  LEU786  VAL792 
 PHE793  MET794  SER795  GLU796  ALA797  LYS798  CYS799  TRP800  GLU811  SER814 

> <Gold.Protein.RotatedAtoms>
  152.5381  134.2534  159.8907 H   0  0  0  0  0  0  0  0  0  0  0  0  # atno 6907 bound_to 6896
  151.2497  133.4350  159.2618 H   0  0  0  0  0  0  0  0  0  0  0  0  # atno 6908 bound_to 6896
  151.0551  134.9713  159.8288 H   0  0  0  0  0  0  0  0  0  0  0  0  # atno 6909 bound_to 6896
  144.8933  139.5527  143.5788 H   0  0  0  0  0  0  0  0  0  0  0  0  # atno 7974 bound_to 7965
  156.2961  140.2586  156.2825 H   0  0  0  0  0  0  0  0  0  0  0  0  # atno 8008 bound_to 7997
  154.9588  140.0393  157.2198 H   0  0  0  0  0  0  0  0  0  0  0  0  # atno 8009 bound_to 7997
  154.7966  140.2821  155.5956 H   0  0  0  0  0  0  0  0  0  0  0  0  # atno 8010 bound_to 7997
  139.5540  144.2037  152.1126 H   0  0  0  0  0  0  0  0  0  0  0  0  # atno 10167 bound_to 10162
  155.9997  130.4729  150.4554 H   0  0  0  0  0  0  0  0  0  0  0  0  # atno 10718 bound_to 10713
  153.8490  135.6850  153.4794 H   0  0  0  0  0  0  0  0  0  0  0  0  # atno 10763 bound_to 10752
  153.1408  135.4658  154.9491 H   0  0  0  0  0  0  0  0  0  0  0  0  # atno 10764 bound_to 10752
  154.7811  135.3269  154.7936 H   0  0  0  0  0  0  0  0  0  0  0  0  # atno 10765 bound_to 10752
  140.0490  134.5764  155.9287 H   0  0  0  0  0  0  0  0  0  0  0  0  # atno 11005 bound_to 11000
  146.3067  139.7603  142.9051 LP  0  0  0  0  0  0  0  0  0  0  0  0  # atno 17320 bound_to 7965
  145.3744  141.0348  143.3213 LP  0  0  0  0  0  0  0  0  0  0  0  0  # atno 17321 bound_to 7965
  140.1538  144.5090  150.6672 LP  0  0  0  0  0  0  0  0  0  0  0  0  # atno 17342 bound_to 10162
  140.6809  143.2326  151.5388 LP  0  0  0  0  0  0  0  0  0  0  0  0  # atno 17343 bound_to 10162
  157.2584  131.0561  151.2336 LP  0  0  0  0  0  0  0  0  0  0  0  0  # atno 17370 bound_to 10713
  157.3460  130.7057  149.6411 LP  0  0  0  0  0  0  0  0  0  0  0  0  # atno 17371 bound_to 10713
  141.1921  133.6574  156.5487 LP  0  0  0  0  0  0  0  0  0  0  0  0  # atno 17394 bound_to 11000
  140.3947  134.7409  157.4743 LP  0  0  0  0  0  0  0  0  0  0  0  0  # atno 17395 bound_to 11000

$$$$
