AV-unprocessed.smi:1485|AV-procd|sdf|6004|dock9
  -GOLD-   22720 6103D 1   1.00000     0.00000
 Structure written by MMmdl.
 44 45  0  0  0  0  0  0  0  0  1 V2000
  149.0205  141.1566  154.9344 C   0  0  0  0  0  0  0  0  0  0  0  0
  150.2838  140.7394  155.4211 O   0  0  0  0  0  0  0  0  0  0  0  0
  150.4012  140.8904  156.8267 C   0  0  0  0  0  0  0  0  0  0  0  0
  151.8768  140.7222  157.2438 C   0  0  0  0  0  0  0  0  0  0  0  0
  152.2629  141.5313  158.4142 N   0  0  0  0  0  0  0  0  0  0  0  0
  153.0330  140.8612  159.3514 N   0  0  0  0  0  0  0  0  0  0  0  0
  153.4719  141.4743  160.4017 C   0  0  0  0  0  0  0  0  0  0  0  0
  154.3538  140.7939  161.3884 C   0  0  0  0  0  0  0  0  0  0  0  0
  154.8324  141.3876  162.3560 O   0  0  0  0  0  0  0  0  0  0  0  0
  154.6033  139.4991  161.1242 N   0  0  0  0  0  0  0  0  0  0  0  0
  155.5243  138.6318  161.8531 C   0  0  1  0  0  0  0  0  0  0  0  0
  154.9266  138.2535  163.2218 C   0  0  0  0  0  0  0  0  0  0  0  0
  153.7152  137.3143  163.0863 C   0  0  0  0  0  0  0  0  0  0  0  0
  154.0656  136.0631  162.2658 C   0  0  0  0  0  0  0  0  0  0  0  0
  154.6280  136.4330  160.8802 C   0  0  2  0  0  0  0  0  0  0  0  0
  154.9743  135.1811  160.0623 C   0  0  0  0  0  0  0  0  0  0  0  0
  155.8472  137.3692  161.0258 C   0  0  0  0  0  0  0  0  0  0  0  0
  153.1320  142.8644  160.6464 C   0  0  0  0  0  0  0  0  0  0  0  0
  152.3518  143.4990  159.7445 C   0  0  0  0  0  0  0  0  0  0  0  0
  151.8531  142.8310  158.5402 C   0  0  0  0  0  0  0  0  0  0  0  0
  151.1266  143.3910  157.7198 O   0  0  0  0  0  0  0  0  0  0  0  0
  148.9834  141.0277  153.8529 H   0  0  0  0  0  0  0  0  0  0  0  0
  148.8399  142.2093  155.1550 H   0  0  0  0  0  0  0  0  0  0  0  0
  148.2155  140.5636  155.3707 H   0  0  0  0  0  0  0  0  0  0  0  0
  150.0533  141.8837  157.1144 H   0  0  0  0  0  0  0  0  0  0  0  0
  149.7627  140.1735  157.3462 H   0  0  0  0  0  0  0  0  0  0  0  0
  152.0496  139.6590  157.4171 H   0  0  0  0  0  0  0  0  0  0  0  0
  152.5230  141.0006  156.4107 H   0  0  0  0  0  0  0  0  0  0  0  0
  154.1596  139.0986  160.3100 H   0  0  0  0  0  0  0  0  0  0  0  0
  156.4513  139.1785  162.0339 H   0  0  0  0  0  0  0  0  0  0  0  0
  155.6932  137.7605  163.8212 H   0  0  0  0  0  0  0  0  0  0  0  0
  154.6438  139.1521  163.7717 H   0  0  0  0  0  0  0  0  0  0  0  0
  153.3636  137.0211  164.0759 H   0  0  0  0  0  0  0  0  0  0  0  0
  152.8875  137.8426  162.6115 H   0  0  0  0  0  0  0  0  0  0  0  0
  154.7954  135.4640  162.8119 H   0  0  0  0  0  0  0  0  0  0  0  0
  153.1773  135.4406  162.1544 H   0  0  0  0  0  0  0  0  0  0  0  0
  153.8493  136.9681  160.3348 H   0  0  0  0  0  0  0  0  0  0  0  0
  155.7623  134.5991  160.5413 H   0  0  0  0  0  0  0  0  0  0  0  0
  155.3178  135.4489  159.0628 H   0  0  0  0  0  0  0  0  0  0  0  0
  154.1041  134.5339  159.9483 H   0  0  0  0  0  0  0  0  0  0  0  0
  156.2205  137.6546  160.0414 H   0  0  0  0  0  0  0  0  0  0  0  0
  156.6609  136.8279  161.5103 H   0  0  0  0  0  0  0  0  0  0  0  0
  153.4863  143.3820  161.5263 H   0  0  0  0  0  0  0  0  0  0  0  0
  152.0881  144.5328  159.9141 H   0  0  0  0  0  0  0  0  0  0  0  0
  1  2  1  0  0  0  0
  1 22  1  0  0  0  0
  1 23  1  0  0  0  0
  1 24  1  0  0  0  0
  2  3  1  0  0  0  0
  3  4  1  0  0  0  0
  3 25  1  0  0  0  0
  3 26  1  0  0  0  0
  4  5  1  0  0  0  0
  4 27  1  0  0  0  0
  4 28  1  0  0  0  0
  5 20  1  0  0  0  0
  5  6  1  0  0  0  0
  6  7  2  0  0  0  0
  7  8  1  0  0  0  0
  7 18  1  0  0  0  0
  8  9  2  0  0  0  0
  8 10  1  0  0  0  0
 10 11  1  0  0  0  0
 10 29  1  0  0  0  0
 11 17  1  0  0  0  0
 11 12  1  0  0  0  0
 11 30  1  0  0  0  0
 12 13  1  0  0  0  0
 12 31  1  0  0  0  0
 12 32  1  0  0  0  0
 13 14  1  0  0  0  0
 13 33  1  0  0  0  0
 13 34  1  0  0  0  0
 14 15  1  0  0  0  0
 14 35  1  0  0  0  0
 14 36  1  0  0  0  0
 15 16  1  0  0  0  0
 15 17  1  0  0  0  0
 15 37  1  0  0  0  0
 16 38  1  0  0  0  0
 16 39  1  0  0  0  0
 16 40  1  0  0  0  0
 17 41  1  0  0  0  0
 17 42  1  0  0  0  0
 18 19  2  0  0  0  0
 18 43  1  0  0  0  0
 19 20  1  0  0  0  0
 19 44  1  0  0  0  0
 20 21  2  0  0  0  0
M  END
> <s_m_source_file>
AV-unprocessed.smi

> <i_m_source_file_index>
1485

> <i_lp_mmshare_version>
43012

> <i_f3d_flags>
0

> <s_epik_input>
W0NIM11PW0NIMl1bQ0gyXW4xbmMoW2NIXVtjSF1jMT1PKUMoPU8pW05IXVtDQEBIXTJbQ0gyXVtDSDJdW0NIMl1bQ0BASF0oW0NIM10pW0NIMl0y

> <s_epik_cmdline>
J2VwaWtfcHl0aG9uJywgJy1waCcsICc3LjAnLCAnLXRuJywgJzgnLCAnLW1hJywgJzIwMCcsICctbWV0YWxfYmluZGluZycsICctaW1hZScsICc8aW5maWxlLm1hZT4nLCAnLW9tYWUnLCAnPG91dGZpbGUubWFlPic=

> <r_lp_tautomer_probability>
1

> <r_epik_Ionization_Penalty>
6.4688e-07

> <r_epik_Ionization_Penalty_Charging>
6.63567e-09

> <r_epik_Ionization_Penalty_Neutral>
6.40245e-07

> <r_epik_State_Penalty>
-0

> <r_epik_Charging_Adjusted_Penalty>
6.63567e-09

> <i_epik_Tot_Q>
0

> <i_epik_Tot_abs_Q>
0

> <r_epik_Metal_State_Penalty>
-0

> <b_epik_Metal_Only>
0

> <s_lp_Force_Field>
OPLS_2005

> <r_lp_Energy>
30.8996

> <b_lp_Chiralities_Consistent>
1

> <s_lp_Variant>
AV-unprocessed.smi:1485-4

> <Gold.Version>
5.8.1

> <Gold.Id.Protein>
6NUR|6NUR_protein|mol2

> <Gold.PLP.Fitness>
37.7536

> <Gold.PLP.PLP>
-36.7465

> <Gold.PLP.part.hbond>
-2.0000

> <Gold.PLP.part.metal>
0.0000

> <Gold.PLP.part.buried>
-4.8485

> <Gold.PLP.part.nonpolar>
-29.0297

> <Gold.PLP.part.repulsive>
0.2194

> <Gold.PLP.ligand.clash>
0.0000

> <Gold.PLP.ligand.torsion>
0.6571

> <Gold.PLP.Chemscore.Hbond>
0.7632

> <Gold.PLP.Chemscore.CHOScore>
0.0000

> <Gold.PLP.Chemscore.Metal>
0.0000

> <Gold.Chemscore.Hbonds>
donor molecule, donor type, donor heavy atom, donor atom, acceptor molecule, acceptor atom, score
      P1  H  7989  7998       L1     2  0.18

> <Gold.PLP.Chemscore.Internal.Correction>
0.0318

> <Gold.Rescore>
     Score         DG    S(hbond)    S(metal)    S(lipo)     H(rot)  DE(clash)    DE(int)     intcor
     10.50     -12.87       0.23        0.00      90.34       1.55       0.37       2.00       ----

> <Gold.Chemscore.Fitness>
10.4996

> <Gold.Chemscore.DG>
-12.8693

> <Gold.Chemscore.ZeroCoef>
-5.4800

> <Gold.Chemscore.Hbond>
0.2342

> <Gold.Chemscore.Metal>
0.0000

> <Gold.Chemscore.Lipo>
90.3364

> <Gold.Chemscore.Internal_Hbond>
0.0000

> <Gold.Chemscore.DEClash>
0.3693

> <Gold.Chemscore.DEInternal>
2.0004

> <Gold.Chemscore.Rot>
1.5478

> <Gold.Chemscore.Internal.Correction>
   9.000000E+99

> <Gold.Chemscore.Hbonds>
donor molecule, donor type, donor heavy atom, donor atom, acceptor molecule, acceptor atom, score
      P1  H  7989  7998       L1     2  0.07

> <Gold.Chemscore.Hbond.Weighted>
-0.7822

> <Gold.Chemscore.Metal.Weighted>
-0.0000

> <Gold.Chemscore.Lipo.Weighted>
-10.5694

> <Gold.Chemscore.Internal_Hbond.Weighted>
0.0000

> <Gold.Chemscore.DEClash.Weighted>
0.3693

> <Gold.Chemscore.DEInternal.Weighted>
2.0004

> <Gold.Chemscore.Rot.Weighted>
3.9623

> <Gold.Chemscore.Internal.Correction.Weighted>
   9.000000E+99

> <Gold.Protein.RotatedTorsions>
[ 6907 6896 6895 6894 ] final   81.62 input  -60.11 | X-H torsion
[ 7974 7965 7964 7962 ] final   33.46 input  175.53 | X-H torsion
[ 8008 7997 7996 7995 ] final -166.87 input   59.86 | X-H torsion
[ 10167 10162 10161 10158 ] final -113.77 input  -65.29 | X-H torsion
[ 10718 10713 10712 10709 ] final  -48.21 input   66.30 | X-H torsion
[ 10763 10752 10751 10750 ] final  -92.21 input  -60.55 | X-H torsion
[ 11005 11000 10999 10996 ] final  175.14 input  -57.11 | X-H torsion

> <Gold.Protein.ActiveResidues>
 VAL166  LYS551  ARG553  GLY616  TRP617  ASP618  TYR619  PRO620  LYS621  CYS622 
 ASP623  PHE694  ASN695  SER759  ASP760  ASP761  ALA762  ILE779  LEU786  VAL792 
 PHE793  MET794  SER795  GLU796  ALA797  LYS798  CYS799  TRP800  GLU811  SER814 

> <Gold.Protein.RotatedAtoms>
  152.5274  134.3176  159.9136 H   0  0  0  0  0  0  0  0  0  0  0  0  # atno 6907 bound_to 6896
  151.3125  133.4068  159.2655 H   0  0  0  0  0  0  0  0  0  0  0  0  # atno 6908 bound_to 6896
  151.0026  134.9351  159.8020 H   0  0  0  0  0  0  0  0  0  0  0  0  # atno 6909 bound_to 6896
  146.1419  139.6394  142.9157 H   0  0  0  0  0  0  0  0  0  0  0  0  # atno 7974 bound_to 7965
  155.8698  140.0991  157.1558 H   0  0  0  0  0  0  0  0  0  0  0  0  # atno 8008 bound_to 7997
  154.3996  140.1349  156.4127 H   0  0  0  0  0  0  0  0  0  0  0  0  # atno 8009 bound_to 7997
  155.7763  140.3459  155.5276 H   0  0  0  0  0  0  0  0  0  0  0  0  # atno 8010 bound_to 7997
  140.1082  143.4551  152.1769 H   0  0  0  0  0  0  0  0  0  0  0  0  # atno 10167 bound_to 10162
  156.2009  130.4156  149.9242 H   0  0  0  0  0  0  0  0  0  0  0  0  # atno 10718 bound_to 10713
  154.6838  135.5239  153.8299 H   0  0  0  0  0  0  0  0  0  0  0  0  # atno 10763 bound_to 10752
  153.0583  135.6559  154.0532 H   0  0  0  0  0  0  0  0  0  0  0  0  # atno 10764 bound_to 10752
  154.0416  135.2977  155.3334 H   0  0  0  0  0  0  0  0  0  0  0  0  # atno 10765 bound_to 10752
  140.3589  134.7130  157.4318 H   0  0  0  0  0  0  0  0  0  0  0  0  # atno 11005 bound_to 11000
  145.5027  141.0437  143.2531 LP  0  0  0  0  0  0  0  0  0  0  0  0  # atno 17320 bound_to 7965
  144.7802  139.6543  143.7157 LP  0  0  0  0  0  0  0  0  0  0  0  0  # atno 17321 bound_to 7965
  139.5633  144.7420  151.4092 LP  0  0  0  0  0  0  0  0  0  0  0  0  # atno 17342 bound_to 10162
  140.6940  143.7793  150.7298 LP  0  0  0  0  0  0  0  0  0  0  0  0  # atno 17343 bound_to 10162
  156.6952  130.8911  151.3593 LP  0  0  0  0  0  0  0  0  0  0  0  0  # atno 17370 bound_to 10713
  157.6985  130.9307  150.0715 LP  0  0  0  0  0  0  0  0  0  0  0  0  # atno 17371 bound_to 10713
  140.0642  134.5952  155.8714 LP  0  0  0  0  0  0  0  0  0  0  0  0  # atno 17394 bound_to 11000
  141.1990  133.6604  156.5821 LP  0  0  0  0  0  0  0  0  0  0  0  0  # atno 17395 bound_to 11000

$$$$
