AV-unprocessed.smi:662|AV-procd|sdf|3245|dock10
  -GOLD-   22720 0193D 1   1.00000     0.00000
 Structure written by MMmdl.
 33 34  0  0  0  0  0  0  0  0  1 V2000
  144.0270  136.1953  151.6799 O   0  0  0  0  0  0  0  0  0  0  0  0
  145.2097  135.8780  151.5465 C   0  0  0  0  0  0  0  0  0  0  0  0
  146.2244  136.5948  152.0533 N   0  0  0  0  0  0  0  0  0  0  0  0
  146.0796  137.8330  152.8095 C   0  0  0  0  0  0  0  0  0  0  0  0
  146.8732  138.9845  152.1706 C   0  0  0  0  0  0  0  0  0  0  0  0
  147.7145  139.7154  153.1617 C   0  0  0  0  0  0  0  0  0  0  0  0
  148.7122  139.1473  153.8440 N   0  0  0  0  0  0  0  0  0  0  0  0
  149.3310  140.0307  154.7354 C   0  0  0  0  0  0  0  0  0  0  0  0
  150.4857  139.5598  155.5713 C   0  0  0  0  0  0  0  0  0  0  0  0
  150.1006  138.6640  156.4805 F   0  0  0  0  0  0  0  0  0  0  0  0
  151.4241  138.9879  154.8170 F   0  0  0  0  0  0  0  0  0  0  0  0
  151.0515  140.5754  156.2226 F   0  0  0  0  0  0  0  0  0  0  0  0
  148.7687  141.2842  154.7253 C   0  0  0  0  0  0  0  0  0  0  0  0
  147.4451  141.3979  153.5984 S   0  0  0  0  0  0  0  0  0  0  0  0
  145.5912  134.6121  150.7697 C   0  0  2  0  0  0  0  0  0  0  0  0
  144.3683  133.8745  150.2002 C   0  0  0  0  0  0  0  0  0  0  0  0
  144.5716  132.4274  150.6321 C   0  0  0  0  0  0  0  0  0  0  0  0
  146.0525  132.3556  150.9983 C   0  0  0  0  0  0  0  0  0  0  0  0
  146.3107  133.6475  151.6114 N   0  0  0  0  0  0  0  0  0  0  0  0
  147.1646  136.2603  151.9000 H   0  0  0  0  0  0  0  0  0  0  0  0
  145.0237  138.0959  152.8945 H   0  0  0  0  0  0  0  0  0  0  0  0
  146.4374  137.6532  153.8238 H   0  0  0  0  0  0  0  0  0  0  0  0
  147.5174  138.6023  151.3774 H   0  0  0  0  0  0  0  0  0  0  0  0
  146.1965  139.7009  151.7036 H   0  0  0  0  0  0  0  0  0  0  0  0
  149.0515  142.1452  155.3127 H   0  0  0  0  0  0  0  0  0  0  0  0
  146.2481  134.8813  149.9402 H   0  0  0  0  0  0  0  0  0  0  0  0
  143.4149  134.2589  150.5671 H   0  0  0  0  0  0  0  0  0  0  0  0
  144.3559  133.9545  149.1125 H   0  0  0  0  0  0  0  0  0  0  0  0
  143.9629  132.2145  151.5121 H   0  0  0  0  0  0  0  0  0  0  0  0
  144.2960  131.7141  149.8548 H   0  0  0  0  0  0  0  0  0  0  0  0
  146.2816  131.5339  151.6772 H   0  0  0  0  0  0  0  0  0  0  0  0
  146.6681  132.2462  150.1040 H   0  0  0  0  0  0  0  0  0  0  0  0
  147.2997  133.8413  151.6764 H   0  0  0  0  0  0  0  0  0  0  0  0
  1  2  2  0  0  0  0
  2  3  1  0  0  0  0
  2 15  1  0  0  0  0
  3  4  1  0  0  0  0
  3 20  1  0  0  0  0
  4  5  1  0  0  0  0
  4 21  1  0  0  0  0
  4 22  1  0  0  0  0
  5  6  1  0  0  0  0
  5 23  1  0  0  0  0
  5 24  1  0  0  0  0
  6 14  1  0  0  0  0
  6  7  2  0  0  0  0
  7  8  1  0  0  0  0
  8  9  1  0  0  0  0
  8 13  2  0  0  0  0
  9 10  1  0  0  0  0
  9 11  1  0  0  0  0
  9 12  1  0  0  0  0
 13 14  1  0  0  0  0
 13 25  1  0  0  0  0
 15 19  1  0  0  0  0
 15 16  1  0  0  0  0
 15 26  1  0  0  0  0
 16 17  1  0  0  0  0
 16 27  1  0  0  0  0
 16 28  1  0  0  0  0
 17 18  1  0  0  0  0
 17 29  1  0  0  0  0
 17 30  1  0  0  0  0
 18 19  1  0  0  0  0
 18 31  1  0  0  0  0
 18 32  1  0  0  0  0
 19 33  1  0  0  0  0
M  END
> <s_m_source_file>
AV-unprocessed.smi

> <i_m_source_file_index>
662

> <i_lp_mmshare_version>
43012

> <i_f3d_flags>
0

> <s_epik_input>
W05IXTFbQ0gyXVtDSDJdW0NIMl1bQ0BIXTFDKD1PKVtOSF1bQ0gyXVtDSDJdYzJuYyhDKEYpKEYpRilbY0hdczI=

> <s_epik_cmdline>
J2VwaWtfcHl0aG9uJywgJy1waCcsICc3LjAnLCAnLXRuJywgJzgnLCAnLW1hJywgJzIwMCcsICctbWV0YWxfYmluZGluZycsICctaW1hZScsICc8aW5maWxlLm1hZT4nLCAnLW9tYWUnLCAnPG91dGZpbGUubWFlPic=

> <r_epik_Ionization_Penalty>
1.64272

> <r_epik_Ionization_Penalty_Charging>
0

> <r_epik_Ionization_Penalty_Neutral>
1.64272

> <r_epik_State_Penalty>
1.74416

> <r_epik_Charging_Adjusted_Penalty>
1.74416

> <i_epik_Tot_Q>
0

> <i_epik_Tot_abs_Q>
0

> <r_epik_Metal_State_Penalty>
1.74416

> <b_epik_Metal_Only>
0

> <s_lp_Force_Field>
OPLS_2005

> <r_lp_Energy>
16.594

> <b_lp_Chiralities_Consistent>
1

> <s_lp_Variant>
AV-unprocessed.smi:662-3

> <Gold.Version>
5.8.1

> <Gold.Id.Protein>
6NUR|6NUR_protein|mol2

> <Gold.PLP.Fitness>
41.3407

> <Gold.PLP.PLP>
-36.4339

> <Gold.PLP.part.hbond>
-1.0000

> <Gold.PLP.part.metal>
0.0000

> <Gold.PLP.part.buried>
-1.6086

> <Gold.PLP.part.nonpolar>
-34.1797

> <Gold.PLP.part.repulsive>
2.1390

> <Gold.PLP.ligand.clash>
0.0000

> <Gold.PLP.ligand.torsion>
0.5597

> <Gold.PLP.Chemscore.Hbond>
1.0000

> <Gold.PLP.Chemscore.CHOScore>
1.0000

> <Gold.PLP.Chemscore.Metal>
0.0000

> <Gold.Chemscore.Hbonds>
donor molecule, donor type, donor heavy atom, donor atom, acceptor molecule, acceptor atom, score
      L1  H     3    20       P1  7948  1.00
      L1  C    13    25       P1  8028  0.83

> <Gold.PLP.Chemscore.Internal.Correction>
0.0263

> <Gold.Rescore>
     Score         DG    S(hbond)    S(metal)    S(lipo)     H(rot)  DE(clash)    DE(int)     intcor
     12.28     -12.95       1.00        0.00      77.08       1.91       0.11       0.55       ----

> <Gold.Chemscore.Fitness>
12.2809

> <Gold.Chemscore.DG>
-12.9474

> <Gold.Chemscore.ZeroCoef>
-5.4800

> <Gold.Chemscore.Hbond>
0.9992

> <Gold.Chemscore.Metal>
0.0000

> <Gold.Chemscore.Lipo>
77.0811

> <Gold.Chemscore.Internal_Hbond>
0.0000

> <Gold.Chemscore.DEClash>
0.1148

> <Gold.Chemscore.DEInternal>
0.5516

> <Gold.Chemscore.Rot>
1.9095

> <Gold.Chemscore.Internal.Correction>
   9.000000E+99

> <Gold.Chemscore.Hbonds>
donor molecule, donor type, donor heavy atom, donor atom, acceptor molecule, acceptor atom, score
      L1  H     3    20       P1  7948  1.00

> <Gold.Chemscore.Hbond.Weighted>
-3.3372

> <Gold.Chemscore.Metal.Weighted>
-0.0000

> <Gold.Chemscore.Lipo.Weighted>
-9.0185

> <Gold.Chemscore.Internal_Hbond.Weighted>
0.0000

> <Gold.Chemscore.DEClash.Weighted>
0.1148

> <Gold.Chemscore.DEInternal.Weighted>
0.5516

> <Gold.Chemscore.Rot.Weighted>
4.8883

> <Gold.Chemscore.Internal.Correction.Weighted>
   9.000000E+99

> <Gold.Protein.RotatedTorsions>
[ 6907 6896 6895 6894 ] final -145.15 input  -60.11 | X-H torsion
[ 7974 7965 7964 7962 ] final -122.87 input  175.53 | X-H torsion
[ 8008 7997 7996 7995 ] final   52.81 input   59.86 | X-H torsion
[ 10167 10162 10161 10158 ] final  -59.19 input  -65.29 | X-H torsion
[ 10718 10713 10712 10709 ] final -120.57 input   66.30 | X-H torsion
[ 10763 10752 10751 10750 ] final    2.76 input  -60.55 | X-H torsion
[ 11005 11000 10999 10996 ] final  114.79 input  -57.11 | X-H torsion

> <Gold.Protein.ActiveResidues>
 VAL166  LYS551  ARG553  GLY616  TRP617  ASP618  TYR619  PRO620  LYS621  CYS622 
 ASP623  PHE694  ASN695  SER759  ASP760  ASP761  ALA762  ILE779  LEU786  VAL792 
 PHE793  MET794  SER795  GLU796  ALA797  LYS798  CYS799  TRP800  GLU811  SER814 

> <Gold.Protein.RotatedAtoms>
  151.1239  133.5085  159.2600 H   0  0  0  0  0  0  0  0  0  0  0  0  # atno 6907 bound_to 6896
  151.1832  135.0369  159.8811 H   0  0  0  0  0  0  0  0  0  0  0  0  # atno 6908 bound_to 6896
  152.5457  134.1088  159.8403 H   0  0  0  0  0  0  0  0  0  0  0  0  # atno 6909 bound_to 6896
  145.0248  140.8018  143.4359 H   0  0  0  0  0  0  0  0  0  0  0  0  # atno 7974 bound_to 7965
  155.4579  140.3460  155.4309 H   0  0  0  0  0  0  0  0  0  0  0  0  # atno 8008 bound_to 7997
  156.1179  140.1479  156.9275 H   0  0  0  0  0  0  0  0  0  0  0  0  # atno 8009 bound_to 7997
  154.4802  140.0872  156.7339 H   0  0  0  0  0  0  0  0  0  0  0  0  # atno 8010 bound_to 7997
  140.6151  143.2399  151.5617 H   0  0  0  0  0  0  0  0  0  0  0  0  # atno 10167 bound_to 10162
  156.1268  130.6365  150.9556 H   0  0  0  0  0  0  0  0  0  0  0  0  # atno 10718 bound_to 10713
  153.2916  135.6949  153.7287 H   0  0  0  0  0  0  0  0  0  0  0  0  # atno 10763 bound_to 10752
  153.6236  135.3423  155.3020 H   0  0  0  0  0  0  0  0  0  0  0  0  # atno 10764 bound_to 10752
  154.8525  135.4392  154.2000 H   0  0  0  0  0  0  0  0  0  0  0  0  # atno 10765 bound_to 10752
  139.8991  134.9573  156.6946 H   0  0  0  0  0  0  0  0  0  0  0  0  # atno 11005 bound_to 11000
  145.1848  139.2332  143.5273 LP  0  0  0  0  0  0  0  0  0  0  0  0  # atno 17320 bound_to 7965
  146.3490  140.1630  142.8590 LP  0  0  0  0  0  0  0  0  0  0  0  0  # atno 17321 bound_to 7965
  139.5392  144.2696  152.1315 LP  0  0  0  0  0  0  0  0  0  0  0  0  # atno 17342 bound_to 10162
  140.1903  144.4758  150.6482 LP  0  0  0  0  0  0  0  0  0  0  0  0  # atno 17343 bound_to 10162
  157.6449  131.0905  150.8173 LP  0  0  0  0  0  0  0  0  0  0  0  0  # atno 17370 bound_to 10713
  156.8263  130.5001  149.5337 LP  0  0  0  0  0  0  0  0  0  0  0  0  # atno 17371 bound_to 10713
  140.7198  133.9150  155.8139 LP  0  0  0  0  0  0  0  0  0  0  0  0  # atno 17394 bound_to 11000
  141.0236  134.0855  157.4093 LP  0  0  0  0  0  0  0  0  0  0  0  0  # atno 17395 bound_to 11000

$$$$
