AV-unprocessed.smi:767|AV-procd|sdf|3666|dock8
  -GOLD-   22720 1 73D 1   1.00000     0.00000
 Structure written by MMmdl.
 48 50  0  0  0  0  0  0  0  0  2 V2000
  151.2276  144.2028  158.4876 C   0  0  0  0  0  0  0  0  0  0  0  0
  151.3318  142.8662  157.7842 C   0  0  0  0  0  0  0  0  0  0  0  0
  152.0731  141.7892  158.3161 C   0  0  0  0  0  0  0  0  0  0  0  0
  152.1294  140.5733  157.6033 C   0  0  0  0  0  0  0  0  0  0  0  0
  151.4433  140.4586  156.3744 C   0  0  0  0  0  0  0  0  0  0  0  0
  151.4952  139.1687  155.5800 C   0  0  0  0  0  0  0  0  0  0  0  0
  150.4997  139.1745  154.4088 C   0  0  0  0  0  0  0  0  0  0  0  0
  149.9041  137.8601  154.2024 N   0  0  0  0  0  0  0  0  0  0  0  0
  149.5497  137.0197  155.1839 C   0  0  0  0  0  0  0  0  0  0  0  0
  149.6722  137.2701  156.3831 O   0  0  0  0  0  0  0  0  0  0  0  0
  149.0550  135.8715  154.7037 N   0  0  0  0  0  0  0  0  0  0  0  0
  148.6003  134.7537  155.5371 C   0  0  1  0  0  0  0  0  0  0  0  0
  148.1758  133.5351  154.7129 C   0  0  1  0  0  0  0  0  0  0  0  0
  147.8011  133.2841  153.2971 C   0  0  0  0  0  0  0  0  0  0  0  0
  148.5748  131.9483  153.1261 C   0  0  0  0  0  0  0  0  0  0  0  0
  149.4068  131.8143  154.3072 O   0  0  0  0  0  0  0  0  0  0  0  0
  149.6403  133.1489  154.7115 C   0  0  2  0  0  0  0  0  0  0  0  0
  149.7420  133.8172  156.1009 C   0  0  0  0  0  0  0  0  0  0  0  0
  151.0920  134.4709  156.4175 C   0  0  0  0  0  0  0  0  0  0  0  0
  149.3986  132.9511  157.3263 C   0  0  0  0  0  0  0  0  0  0  0  0
  150.7170  141.5684  155.8923 C   0  0  0  0  0  0  0  0  0  0  0  0
  150.6882  142.7160  156.6046 N   0  3  0  0  0  0  0  0  0  0  0  0
  151.7660  144.1911  159.4356 H   0  0  0  0  0  0  0  0  0  0  0  0
  150.1842  144.4447  158.6921 H   0  0  0  0  0  0  0  0  0  0  0  0
  151.6499  144.9933  157.8663 H   0  0  0  0  0  0  0  0  0  0  0  0
  152.5946  141.8904  159.2567 H   0  0  0  0  0  0  0  0  0  0  0  0
  152.6958  139.7411  157.9957 H   0  0  0  0  0  0  0  0  0  0  0  0
  152.5122  139.0214  155.2137 H   0  0  0  0  0  0  0  0  0  0  0  0
  151.2852  138.3313  156.2470 H   0  0  0  0  0  0  0  0  0  0  0  0
  149.6950  139.8832  154.6066 H   0  0  0  0  0  0  0  0  0  0  0  0
  150.9892  139.5091  153.4921 H   0  0  0  0  0  0  0  0  0  0  0  0
  149.7653  137.5644  153.2469 H   0  0  0  0  0  0  0  0  0  0  0  0
  148.9935  135.7538  153.7032 H   0  0  0  0  0  0  0  0  0  0  0  0
  147.8593  135.0335  156.2878 H   0  0  0  0  0  0  0  0  0  0  0  0
  147.5688  132.8875  155.3503 H   0  0  0  0  0  0  0  0  0  0  0  0
  146.7263  133.1675  153.1561 H   0  0  0  0  0  0  0  0  0  0  0  0
  148.1706  134.0608  152.6261 H   0  0  0  0  0  0  0  0  0  0  0  0
  147.9018  131.0936  153.0554 H   0  0  0  0  0  0  0  0  0  0  0  0
  149.1914  131.9686  152.2266 H   0  0  0  0  0  0  0  0  0  0  0  0
  150.2394  133.6733  153.9599 H   0  0  0  0  0  0  0  0  0  0  0  0
  151.8379  133.7311  156.7100 H   0  0  0  0  0  0  0  0  0  0  0  0
  151.0041  135.1912  157.2315 H   0  0  0  0  0  0  0  0  0  0  0  0
  151.5005  135.0034  155.5585 H   0  0  0  0  0  0  0  0  0  0  0  0
  150.1162  132.1394  157.4486 H   0  0  0  0  0  0  0  0  0  0  0  0
  148.4127  132.4926  157.2733 H   0  0  0  0  0  0  0  0  0  0  0  0
  149.4156  133.5412  158.2432 H   0  0  0  0  0  0  0  0  0  0  0  0
  150.1657  141.5752  154.9631 H   0  0  0  0  0  0  0  0  0  0  0  0
  150.1583  143.5054  156.2344 H   0  0  0  0  0  0  0  0  0  0  0  0
  1  2  1  0  0  0  0
  1 23  1  0  0  0  0
  1 24  1  0  0  0  0
  1 25  1  0  0  0  0
  2 22  1  0  0  0  0
  2  3  2  0  0  0  0
  3  4  1  0  0  0  0
  3 26  1  0  0  0  0
  4  5  2  0  0  0  0
  4 27  1  0  0  0  0
  5  6  1  0  0  0  0
  5 21  1  0  0  0  0
  6  7  1  0  0  0  0
  6 28  1  0  0  0  0
  6 29  1  0  0  0  0
  7  8  1  0  0  0  0
  7 30  1  0  0  0  0
  7 31  1  0  0  0  0
  8  9  1  0  0  0  0
  8 32  1  0  0  0  0
  9 10  2  0  0  0  0
  9 11  1  0  0  0  0
 11 12  1  0  0  0  0
 11 33  1  0  0  0  0
 12 18  1  0  0  0  0
 12 13  1  0  0  0  0
 12 34  1  0  0  0  0
 13 17  1  0  0  0  0
 13 14  1  0  0  0  0
 13 35  1  0  0  0  0
 14 15  1  0  0  0  0
 14 36  1  0  0  0  0
 14 37  1  0  0  0  0
 15 16  1  0  0  0  0
 15 38  1  0  0  0  0
 15 39  1  0  0  0  0
 16 17  1  0  0  0  0
 17 18  1  0  0  0  0
 17 40  1  0  0  0  0
 18 19  1  0  0  0  0
 18 20  1  0  0  0  0
 19 41  1  0  0  0  0
 19 42  1  0  0  0  0
 19 43  1  0  0  0  0
 20 44  1  0  0  0  0
 20 45  1  0  0  0  0
 20 46  1  0  0  0  0
 21 22  2  0  0  0  0
 21 47  1  0  0  0  0
 22 48  1  0  0  0  0
M  CHG  1  22   1
M  END
> <s_m_source_file>
AV-unprocessed.smi

> <i_m_source_file_index>
767

> <i_lp_mmshare_version>
43012

> <i_f3d_flags>
0

> <s_epik_input>
W0NIM11jMVtjSF1bY0hdYyhbY0hdbjEpW0NIMl1bQ0gyXVtOSF1DKD1PKVtOSF1bQ0BIXTJDKFtDSDNdKShbQ0gzXSlbQ0BIXShbQ0BASF0yMylPW0NIMl1bQ0gyXTM=

> <s_epik_cmdline>
J2VwaWtfcHl0aG9uJywgJy1waCcsICc3LjAnLCAnLXRuJywgJzgnLCAnLW1hJywgJzIwMCcsICctbWV0YWxfYmluZGluZycsICctaW1hZScsICc8aW5maWxlLm1hZT4nLCAnLW9tYWUnLCAnPG91dGZpbGUubWFlPic=

> <r_epik_Ionization_Penalty>
1.41853

> <r_epik_Ionization_Penalty_Charging>
1.41848

> <r_epik_Ionization_Penalty_Neutral>
5.17407e-05

> <r_epik_State_Penalty>
1.50205

> <r_epik_Charging_Adjusted_Penalty>
2.92053

> <i_epik_Tot_Q>
1

> <i_epik_Tot_abs_Q>
1

> <r_epik_Metal_State_Penalty>
1.5544

> <b_epik_Metal_Only>
0

> <s_lp_Force_Field>
OPLS_2005

> <r_lp_Energy>
64.9812

> <b_lp_Chiralities_Consistent>
1

> <s_lp_Variant>
AV-unprocessed.smi:767-10

> <Gold.Version>
5.8.1

> <Gold.Id.Protein>
6NUR|6NUR_protein|mol2

> <Gold.PLP.Fitness>
47.5110

> <Gold.PLP.PLP>
-36.6142

> <Gold.PLP.part.hbond>
-3.0000

> <Gold.PLP.part.metal>
0.0000

> <Gold.PLP.part.buried>
-4.1336

> <Gold.PLP.part.nonpolar>
-29.9127

> <Gold.PLP.part.repulsive>
0.1672

> <Gold.PLP.ligand.clash>
0.0000

> <Gold.PLP.ligand.torsion>
0.6472

> <Gold.PLP.Chemscore.Hbond>
3.9750

> <Gold.PLP.Chemscore.CHOScore>
0.0000

> <Gold.PLP.Chemscore.Metal>
0.0000

> <Gold.Chemscore.Hbonds>
donor molecule, donor type, donor heavy atom, donor atom, acceptor molecule, acceptor atom, score
      L1  H     8    32       P1  7948  0.96
      L1  H    11    33       P1  7948  1.00
      L1  H    22    48       P1  8028  2.00

> <Gold.PLP.Chemscore.Internal.Correction>
0.2662

> <Gold.Rescore>
     Score         DG    S(hbond)    S(metal)    S(lipo)     H(rot)  DE(clash)    DE(int)     intcor
     20.97     -23.17       2.88        0.00     102.22       1.52       0.14       2.07       ----

> <Gold.Chemscore.Fitness>
20.9674

> <Gold.Chemscore.DG>
-23.1729

> <Gold.Chemscore.ZeroCoef>
-5.4800

> <Gold.Chemscore.Hbond>
2.8839

> <Gold.Chemscore.Metal>
0.0000

> <Gold.Chemscore.Lipo>
102.2239

> <Gold.Chemscore.Internal_Hbond>
0.0000

> <Gold.Chemscore.DEClash>
0.1354

> <Gold.Chemscore.DEInternal>
2.0701

> <Gold.Chemscore.Rot>
1.5233

> <Gold.Chemscore.Internal.Correction>
   9.000000E+99

> <Gold.Chemscore.Hbonds>
donor molecule, donor type, donor heavy atom, donor atom, acceptor molecule, acceptor atom, score
      L1  H     8    32       P1  7948  0.57
      L1  H    11    33       P1  7948  0.90
      L1  H    22    48       P1  8028  1.00

> <Gold.Chemscore.Hbond.Weighted>
-9.6322

> <Gold.Chemscore.Metal.Weighted>
-0.0000

> <Gold.Chemscore.Lipo.Weighted>
-11.9602

> <Gold.Chemscore.Internal_Hbond.Weighted>
0.0000

> <Gold.Chemscore.DEClash.Weighted>
0.1354

> <Gold.Chemscore.DEInternal.Weighted>
2.0701

> <Gold.Chemscore.Rot.Weighted>
3.8995

> <Gold.Chemscore.Internal.Correction.Weighted>
   9.000000E+99

> <Gold.Protein.RotatedTorsions>
[ 6907 6896 6895 6894 ] final -167.41 input  -60.11 | X-H torsion
[ 7974 7965 7964 7962 ] final   35.37 input  175.53 | X-H torsion
[ 8008 7997 7996 7995 ] final  103.03 input   59.86 | X-H torsion
[ 10167 10162 10161 10158 ] final  161.19 input  -65.29 | X-H torsion
[ 10718 10713 10712 10709 ] final  -97.60 input   66.30 | X-H torsion
[ 10763 10752 10751 10750 ] final   54.18 input  -60.55 | X-H torsion
[ 11005 11000 10999 10996 ] final   -0.45 input  -57.11 | X-H torsion

> <Gold.Protein.ActiveResidues>
 VAL166  LYS551  ARG553  GLY616  TRP617  ASP618  TYR619  PRO620  LYS621  CYS622 
 ASP623  PHE694  ASN695  SER759  ASP760  ASP761  ALA762  ILE779  LEU786  VAL792 
 PHE793  MET794  SER795  GLU796  ALA797  LYS798  CYS799  TRP800  GLU811  SER814 

> <Gold.Protein.RotatedAtoms>
  151.4590  133.3597  159.2806 H   0  0  0  0  0  0  0  0  0  0  0  0  # atno 6907 bound_to 6896
  150.9038  134.8454  159.7389 H   0  0  0  0  0  0  0  0  0  0  0  0  # atno 6908 bound_to 6896
  152.4894  134.4513  159.9627 H   0  0  0  0  0  0  0  0  0  0  0  0  # atno 6909 bound_to 6896
  146.1288  139.6152  142.9240 H   0  0  0  0  0  0  0  0  0  0  0  0  # atno 7974 bound_to 7965
  156.1447  140.3171  155.8551 H   0  0  0  0  0  0  0  0  0  0  0  0  # atno 8008 bound_to 7997
  155.4087  140.0504  157.3050 H   0  0  0  0  0  0  0  0  0  0  0  0  # atno 8009 bound_to 7997
  154.5006  140.2128  155.9367 H   0  0  0  0  0  0  0  0  0  0  0  0  # atno 8010 bound_to 7997
  139.4847  144.4561  151.8767 H   0  0  0  0  0  0  0  0  0  0  0  0  # atno 10167 bound_to 10162
  156.0087  130.5201  150.6399 H   0  0  0  0  0  0  0  0  0  0  0  0  # atno 10718 bound_to 10713
  152.9802  135.5753  154.4863 H   0  0  0  0  0  0  0  0  0  0  0  0  # atno 10763 bound_to 10752
  154.4404  135.2775  155.1853 H   0  0  0  0  0  0  0  0  0  0  0  0  # atno 10764 bound_to 10752
  154.3524  135.6206  153.5703 H   0  0  0  0  0  0  0  0  0  0  0  0  # atno 10765 bound_to 10752
  140.6364  133.9529  155.8302 H   0  0  0  0  0  0  0  0  0  0  0  0  # atno 11005 bound_to 11000
  145.5307  141.0427  143.2385 LP  0  0  0  0  0  0  0  0  0  0  0  0  # atno 17320 bound_to 7965
  144.7669  139.6824  143.7211 LP  0  0  0  0  0  0  0  0  0  0  0  0  # atno 17321 bound_to 7965
  140.4020  144.2481  150.5892 LP  0  0  0  0  0  0  0  0  0  0  0  0  # atno 17342 bound_to 10162
  140.5048  143.2307  151.8625 LP  0  0  0  0  0  0  0  0  0  0  0  0  # atno 17343 bound_to 10162
  157.4181  131.0833  151.1157 LP  0  0  0  0  0  0  0  0  0  0  0  0  # atno 17370 bound_to 10713
  157.1768  130.6291  149.5658 LP  0  0  0  0  0  0  0  0  0  0  0  0  # atno 17371 bound_to 10713
  141.0638  134.0307  157.3622 LP  0  0  0  0  0  0  0  0  0  0  0  0  # atno 17394 bound_to 11000
  139.9096  135.0187  156.7637 LP  0  0  0  0  0  0  0  0  0  0  0  0  # atno 17395 bound_to 11000

$$$$
