AV-unprocessed.smi:2573|AV-procd|sdf|10113|dock7
  -GOLD-   2272014133D 1   1.00000     0.00000
 Structure written by MMmdl.
 38 39  0  0  0  0  0  0  0  0  1 V2000
  151.1853  136.0902  156.0066 C   0  0  0  0  0  0  0  0  0  0  0  0
  150.4842  136.7805  154.8322 C   0  0  0  0  0  0  0  0  0  0  0  0
  151.3058  137.9466  154.2610 C   0  0  0  0  0  0  0  0  0  0  0  0
  150.7974  139.2328  154.7313 N   0  0  0  0  0  0  0  0  0  0  0  0
  151.4314  140.1001  155.5548 C   0  0  0  0  0  0  0  0  0  0  0  0
  152.5464  139.9421  156.0514 O   0  0  0  0  0  0  0  0  0  0  0  0
  150.6276  141.1752  155.7336 N   0  0  0  0  0  0  0  0  0  0  0  0
  150.9270  142.3560  156.5440 C   0  0  0  0  0  0  0  0  0  0  0  0
  150.6819  142.1171  158.0482 C   0  0  1  0  0  0  0  0  0  0  0  0
  151.8050  141.4210  158.5492 O   0  0  0  0  0  0  0  0  0  0  0  0
  150.4765  143.4212  158.8507 C   0  0  0  0  0  0  0  0  0  0  0  0
  151.7693  144.2001  159.1531 C   0  0  0  0  0  0  0  0  0  0  0  0
  151.4675  145.2743  159.8816 F   0  0  0  0  0  0  0  0  0  0  0  0
  152.6156  143.4404  159.8481 F   0  0  0  0  0  0  0  0  0  0  0  0
  152.3633  144.6056  158.0309 F   0  0  0  0  0  0  0  0  0  0  0  0
  149.4492  140.9949  154.9930 C   0  0  0  0  0  0  0  0  0  0  0  0
  148.3125  141.8093  154.8448 C   0  0  0  0  0  0  0  0  0  0  0  0
  147.2758  141.3285  154.0112 C   0  0  0  0  0  0  0  0  0  0  0  0
  147.3916  140.0749  153.3565 C   0  0  0  0  0  0  0  0  0  0  0  0
  148.5449  139.2737  153.5247 C   0  0  0  0  0  0  0  0  0  0  0  0
  149.5580  139.7735  154.3615 C   0  0  0  0  0  0  0  0  0  0  0  0
  150.5804  135.2693  156.3922 H   0  0  0  0  0  0  0  0  0  0  0  0
  151.3592  136.7883  156.8258 H   0  0  0  0  0  0  0  0  0  0  0  0
  152.1491  135.6803  155.7041 H   0  0  0  0  0  0  0  0  0  0  0  0
  150.2917  136.0474  154.0478 H   0  0  0  0  0  0  0  0  0  0  0  0
  149.5096  137.1435  155.1610 H   0  0  0  0  0  0  0  0  0  0  0  0
  152.3534  137.8455  154.5459 H   0  0  0  0  0  0  0  0  0  0  0  0
  151.2869  137.9185  153.1703 H   0  0  0  0  0  0  0  0  0  0  0  0
  151.9721  142.6245  156.3799 H   0  0  0  0  0  0  0  0  0  0  0  0
  150.3464  143.2107  156.1965 H   0  0  0  0  0  0  0  0  0  0  0  0
  149.8118  141.4715  158.1710 H   0  0  0  0  0  0  0  0  0  0  0  0
  152.5629  141.6650  158.0395 H   0  0  0  0  0  0  0  0  0  0  0  0
  149.7694  144.0671  158.3283 H   0  0  0  0  0  0  0  0  0  0  0  0
  150.0108  143.1823  159.8069 H   0  0  0  0  0  0  0  0  0  0  0  0
  148.2257  142.7619  155.3456 H   0  0  0  0  0  0  0  0  0  0  0  0
  146.3854  141.9233  153.8709 H   0  0  0  0  0  0  0  0  0  0  0  0
  146.5889  139.7273  152.7229 H   0  0  0  0  0  0  0  0  0  0  0  0
  148.6384  138.3188  153.0290 H   0  0  0  0  0  0  0  0  0  0  0  0
  1  2  1  0  0  0  0
  1 22  1  0  0  0  0
  1 23  1  0  0  0  0
  1 24  1  0  0  0  0
  2  3  1  0  0  0  0
  2 25  1  0  0  0  0
  2 26  1  0  0  0  0
  3  4  1  0  0  0  0
  3 27  1  0  0  0  0
  3 28  1  0  0  0  0
  4 21  1  0  0  0  0
  4  5  1  0  0  0  0
  5  6  2  0  0  0  0
  5  7  1  0  0  0  0
  7  8  1  0  0  0  0
  7 16  1  0  0  0  0
  8  9  1  0  0  0  0
  8 29  1  0  0  0  0
  8 30  1  0  0  0  0
  9 10  1  0  0  0  0
  9 11  1  0  0  0  0
  9 31  1  0  0  0  0
 10 32  1  0  0  0  0
 11 12  1  0  0  0  0
 11 33  1  0  0  0  0
 11 34  1  0  0  0  0
 12 13  1  0  0  0  0
 12 14  1  0  0  0  0
 12 15  1  0  0  0  0
 16 21  2  0  0  0  0
 16 17  1  0  0  0  0
 17 18  2  0  0  0  0
 17 35  1  0  0  0  0
 18 19  1  0  0  0  0
 18 36  1  0  0  0  0
 19 20  2  0  0  0  0
 19 37  1  0  0  0  0
 20 21  1  0  0  0  0
 20 38  1  0  0  0  0
M  END
> <s_m_source_file>
AV-unprocessed.smi

> <i_m_source_file_index>
2573

> <i_lp_mmshare_version>
43012

> <i_f3d_flags>
0

> <s_epik_input>
W2NIXTFbY0hdW2NIXVtjSF1jKGMxMiluKFtDSDJdW0NIMl1bQ0gzXSljKD1PKW4yW0NIMl1bQ0BIXShbT0hdKVtDSDJdQyhGKShGKUY=

> <s_epik_cmdline>
J2VwaWtfcHl0aG9uJywgJy1waCcsICc3LjAnLCAnLXRuJywgJzgnLCAnLW1hJywgJzIwMCcsICctbWV0YWxfYmluZGluZycsICctaW1hZScsICc8aW5maWxlLm1hZT4nLCAnLW9tYWUnLCAnPG91dGZpbGUubWFlPic=

> <r_lp_tautomer_probability>
1

> <r_epik_Ionization_Penalty>
2.4024e-06

> <r_epik_Ionization_Penalty_Charging>
3.10219e-09

> <r_epik_Ionization_Penalty_Neutral>
2.3993e-06

> <r_epik_State_Penalty>
-0

> <r_epik_Charging_Adjusted_Penalty>
3.10219e-09

> <i_epik_Tot_Q>
0

> <i_epik_Tot_abs_Q>
0

> <r_epik_Metal_State_Penalty>
-0

> <b_epik_Metal_Only>
0

> <s_lp_Force_Field>
OPLS_2005

> <r_lp_Energy>
39.6684

> <b_lp_Chiralities_Consistent>
1

> <s_lp_Variant>
AV-unprocessed.smi:2573-2

> <Gold.Version>
5.8.1

> <Gold.Id.Protein>
6NUR|6NUR_protein|mol2

> <Gold.PLP.Fitness>
54.2068

> <Gold.PLP.PLP>
-53.0579

> <Gold.PLP.part.hbond>
-1.0000

> <Gold.PLP.part.metal>
0.0000

> <Gold.PLP.part.buried>
-0.6663

> <Gold.PLP.part.nonpolar>
-50.7598

> <Gold.PLP.part.repulsive>
0.0000

> <Gold.PLP.ligand.clash>
0.0000

> <Gold.PLP.ligand.torsion>
0.9685

> <Gold.PLP.Chemscore.Hbond>
1.0000

> <Gold.PLP.Chemscore.CHOScore>
0.0000

> <Gold.PLP.Chemscore.Metal>
0.0000

> <Gold.Chemscore.Hbonds>
donor molecule, donor type, donor heavy atom, donor atom, acceptor molecule, acceptor atom, score
      P1  H  7997  8010       L1     6  1.00

> <Gold.PLP.Chemscore.Internal.Correction>
0.0858

> <Gold.Rescore>
     Score         DG    S(hbond)    S(metal)    S(lipo)     H(rot)  DE(clash)    DE(int)     intcor
      9.90     -13.11       1.00        0.00      90.99       2.48       0.30       2.90       ----

> <Gold.Chemscore.Fitness>
9.9012

> <Gold.Chemscore.DG>
-13.1054

> <Gold.Chemscore.ZeroCoef>
-5.4800

> <Gold.Chemscore.Hbond>
0.9975

> <Gold.Chemscore.Metal>
0.0000

> <Gold.Chemscore.Lipo>
90.9866

> <Gold.Chemscore.Internal_Hbond>
0.0000

> <Gold.Chemscore.DEClash>
0.3046

> <Gold.Chemscore.DEInternal>
2.8996

> <Gold.Chemscore.Rot>
2.4812

> <Gold.Chemscore.Internal.Correction>
   9.000000E+99

> <Gold.Chemscore.Hbonds>
donor molecule, donor type, donor heavy atom, donor atom, acceptor molecule, acceptor atom, score
      P1  H  7997  8010       L1     6  0.99

> <Gold.Chemscore.Hbond.Weighted>
-3.3318

> <Gold.Chemscore.Metal.Weighted>
-0.0000

> <Gold.Chemscore.Lipo.Weighted>
-10.6454

> <Gold.Chemscore.Internal_Hbond.Weighted>
0.0000

> <Gold.Chemscore.DEClash.Weighted>
0.3046

> <Gold.Chemscore.DEInternal.Weighted>
2.8996

> <Gold.Chemscore.Rot.Weighted>
6.3518

> <Gold.Chemscore.Internal.Correction.Weighted>
   9.000000E+99

> <Gold.Protein.RotatedTorsions>
[ 6907 6896 6895 6894 ] final  127.65 input  -60.11 | X-H torsion
[ 7974 7965 7964 7962 ] final  -20.93 input  175.53 | X-H torsion
[ 8008 7997 7996 7995 ] final   93.29 input   59.86 | X-H torsion
[ 10167 10162 10161 10158 ] final  151.03 input  -65.29 | X-H torsion
[ 10718 10713 10712 10709 ] final   99.92 input   66.30 | X-H torsion
[ 10763 10752 10751 10750 ] final -149.09 input  -60.55 | X-H torsion
[ 11005 11000 10999 10996 ] final  -46.74 input  -57.11 | X-H torsion

> <Gold.Protein.ActiveResidues>
 VAL166  LYS551  ARG553  GLY616  TRP617  ASP618  TYR619  PRO620  LYS621  CYS622 
 ASP623  PHE694  ASN695  SER759  ASP760  ASP761  ALA762  ILE779  LEU786  VAL792 
 PHE793  MET794  SER795  GLU796  ALA797  LYS798  CYS799  TRP800  GLU811  SER814 

> <Gold.Protein.RotatedAtoms>
  152.3792  133.6523  159.6147 H   0  0  0  0  0  0  0  0  0  0  0  0  # atno 6907 bound_to 6896
  150.7728  133.9142  159.3387 H   0  0  0  0  0  0  0  0  0  0  0  0  # atno 6908 bound_to 6896
  151.6950  135.0941  160.0292 H   0  0  0  0  0  0  0  0  0  0  0  0  # atno 6909 bound_to 6896
  146.1761  140.4270  142.8513 H   0  0  0  0  0  0  0  0  0  0  0  0  # atno 7974 bound_to 7965
  156.0450  140.3315  155.7287 H   0  0  0  0  0  0  0  0  0  0  0  0  # atno 8008 bound_to 7997
  155.5687  140.0626  157.2829 H   0  0  0  0  0  0  0  0  0  0  0  0  # atno 8009 bound_to 7997
  154.4410  140.1864  156.0845 H   0  0  0  0  0  0  0  0  0  0  0  0  # atno 8010 bound_to 7997
  139.4844  144.5474  151.7459 H   0  0  0  0  0  0  0  0  0  0  0  0  # atno 10167 bound_to 10162
  157.6865  131.0683  150.5021 H   0  0  0  0  0  0  0  0  0  0  0  0  # atno 10718 bound_to 10713
  154.8197  135.3318  154.7075 H   0  0  0  0  0  0  0  0  0  0  0  0  # atno 10763 bound_to 10752
  153.7710  135.6925  153.4911 H   0  0  0  0  0  0  0  0  0  0  0  0  # atno 10764 bound_to 10752
  153.2045  135.4504  155.0254 H   0  0  0  0  0  0  0  0  0  0  0  0  # atno 10765 bound_to 10752
  141.0597  133.6713  156.3197 H   0  0  0  0  0  0  0  0  0  0  0  0  # atno 11005 bound_to 11000
  144.8239  140.6595  143.6335 LP  0  0  0  0  0  0  0  0  0  0  0  0  # atno 17320 bound_to 7965
  145.4207  139.1564  143.4075 LP  0  0  0  0  0  0  0  0  0  0  0  0  # atno 17321 bound_to 7965
  140.5023  144.1150  150.5974 LP  0  0  0  0  0  0  0  0  0  0  0  0  # atno 17342 bound_to 10162
  140.4048  143.2686  151.9905 LP  0  0  0  0  0  0  0  0  0  0  0  0  # atno 17343 bound_to 10162
  156.5342  130.4192  149.6186 LP  0  0  0  0  0  0  0  0  0  0  0  0  # atno 17370 bound_to 10713
  156.3042  130.7193  151.2072 LP  0  0  0  0  0  0  0  0  0  0  0  0  # atno 17371 bound_to 10713
  140.5893  134.5667  157.5496 LP  0  0  0  0  0  0  0  0  0  0  0  0  # atno 17394 bound_to 11000
  139.9422  134.7767  156.0651 LP  0  0  0  0  0  0  0  0  0  0  0  0  # atno 17395 bound_to 11000

$$$$
