AV-unprocessed.smi:40|AV-procd|sdf|369|dock2
  -GOLD-   2262016213D 1   1.00000     0.00000
 Structure written by MMmdl.
 47 48  0  0  0  0  0  0  0  0  1 V2000
  152.5565  143.6418  159.3074 C   0  0  0  0  0  0  0  0  0  0  0  0
  153.1242  143.0887  160.6190 C   0  0  0  0  0  0  0  0  0  0  0  0
  153.0126  141.5602  160.7120 C   0  0  0  0  0  0  0  0  0  0  0  0
  154.0609  140.8400  159.8538 C   0  0  0  0  0  0  0  0  0  0  0  0
  153.7187  139.3579  159.6371 C   0  0  0  0  0  0  0  0  0  0  0  0
  152.6184  139.2200  158.7486 O   0  0  0  0  0  0  0  0  0  0  0  0
  152.0846  138.0054  158.4882 C   0  0  0  0  0  0  0  0  0  0  0  0
  152.4171  136.9645  159.0543 O   0  0  0  0  0  0  0  0  0  0  0  0
  151.0478  138.1011  157.4810 N   0  0  0  0  0  0  0  0  0  0  0  0
  150.3107  137.0832  156.9868 C   0  0  0  0  0  0  0  0  0  0  0  0
  150.2651  135.9668  157.6902 N   0  0  0  0  0  0  0  0  0  0  0  0
  149.5482  134.8621  157.3148 C   0  0  0  0  0  0  0  0  0  0  0  0
  149.5144  133.8608  158.0287 O   0  0  0  0  0  0  0  0  0  0  0  0
  148.8435  134.9286  156.0901 N   0  0  0  0  0  0  0  0  0  0  0  0
  148.0207  133.7401  155.6538 C   0  0  2  0  0  0  0  0  0  0  0  0
  148.8471  132.8500  154.9564 O   0  0  0  0  0  0  0  0  0  0  0  0
  148.2631  132.4949  153.7066 C   0  0  1  0  0  0  0  0  0  0  0  0
  147.5150  131.1592  153.8704 C   0  0  0  0  0  0  0  0  0  0  0  0
  147.3917  133.7075  153.3633 C   0  0  1  0  0  0  0  0  0  0  0  0
  146.3646  133.4551  152.4237 O   0  0  0  0  0  0  0  0  0  0  0  0
  146.8899  134.1968  154.7161 C   0  0  1  0  0  0  0  0  0  0  0  0
  145.6512  133.6203  155.0878 O   0  0  0  0  0  0  0  0  0  0  0  0
  148.8829  136.0913  155.3350 C   0  0  0  0  0  0  0  0  0  0  0  0
  149.5905  137.1714  155.7286 C   0  0  0  0  0  0  0  0  0  0  0  0
  149.6253  138.2765  154.9635 F   0  0  0  0  0  0  0  0  0  0  0  0
  147.6718  133.2514  156.5650 H   0  0  0  0  0  0  0  0  0  0  0  0
  149.0491  132.3677  152.9614 H   0  0  0  0  0  0  0  0  0  0  0  0
  148.0406  134.4774  152.9432 H   0  0  0  0  0  0  0  0  0  0  0  0
  146.7775  135.2819  154.7322 H   0  0  0  0  0  0  0  0  0  0  0  0
  152.6457  144.7278  159.2731 H   0  0  0  0  0  0  0  0  0  0  0  0
  151.5011  143.3911  159.1981 H   0  0  0  0  0  0  0  0  0  0  0  0
  153.0890  143.2370  158.4463 H   0  0  0  0  0  0  0  0  0  0  0  0
  154.1697  143.3855  160.7107 H   0  0  0  0  0  0  0  0  0  0  0  0
  152.5989  143.5458  161.4583 H   0  0  0  0  0  0  0  0  0  0  0  0
  153.1221  141.2506  161.7523 H   0  0  0  0  0  0  0  0  0  0  0  0
  152.0145  141.2496  160.4002 H   0  0  0  0  0  0  0  0  0  0  0  0
  154.1428  141.3362  158.8860 H   0  0  0  0  0  0  0  0  0  0  0  0
  155.0385  140.9261  160.3295 H   0  0  0  0  0  0  0  0  0  0  0  0
  154.5864  138.8059  159.2724 H   0  0  0  0  0  0  0  0  0  0  0  0
  153.4398  138.9053  160.5889 H   0  0  0  0  0  0  0  0  0  0  0  0
  150.9177  139.0222  157.0888 H   0  0  0  0  0  0  0  0  0  0  0  0
  147.0462  130.8507  152.9358 H   0  0  0  0  0  0  0  0  0  0  0  0
  146.7380  131.2142  154.6322 H   0  0  0  0  0  0  0  0  0  0  0  0
  148.2048  130.3682  154.1654 H   0  0  0  0  0  0  0  0  0  0  0  0
  146.7318  132.9495  151.7144 H   0  0  0  0  0  0  0  0  0  0  0  0
  144.9641  134.0469  154.5984 H   0  0  0  0  0  0  0  0  0  0  0  0
  148.3389  136.1536  154.4038 H   0  0  0  0  0  0  0  0  0  0  0  0
  1  2  1  0  0  0  0
  1 30  1  0  0  0  0
  1 31  1  0  0  0  0
  1 32  1  0  0  0  0
  2  3  1  0  0  0  0
  2 33  1  0  0  0  0
  2 34  1  0  0  0  0
  3  4  1  0  0  0  0
  3 35  1  0  0  0  0
  3 36  1  0  0  0  0
  4  5  1  0  0  0  0
  4 37  1  0  0  0  0
  4 38  1  0  0  0  0
  5  6  1  0  0  0  0
  5 39  1  0  0  0  0
  5 40  1  0  0  0  0
  6  7  1  0  0  0  0
  7  8  2  0  0  0  0
  7  9  1  0  0  0  0
  9 10  1  0  0  0  0
  9 41  1  0  0  0  0
 10 24  1  0  0  0  0
 10 11  2  0  0  0  0
 11 12  1  0  0  0  0
 12 13  2  0  0  0  0
 12 14  1  0  0  0  0
 14 15  1  0  0  0  0
 14 23  1  0  0  0  0
 15 26  1  0  0  0  0
 15 21  1  0  0  0  0
 15 16  1  0  0  0  0
 16 17  1  0  0  0  0
 17 27  1  0  0  0  0
 17 18  1  0  0  0  0
 17 19  1  0  0  0  0
 18 42  1  0  0  0  0
 18 43  1  0  0  0  0
 18 44  1  0  0  0  0
 19 28  1  0  0  0  0
 19 20  1  0  0  0  0
 19 21  1  0  0  0  0
 20 45  1  0  0  0  0
 21 29  1  0  0  0  0
 21 22  1  0  0  0  0
 22 46  1  0  0  0  0
 23 24  2  0  0  0  0
 23 47  1  0  0  0  0
 24 25  1  0  0  0  0
M  END
> <s_m_source_file>
AV-unprocessed.smi

> <i_m_source_file_index>
40

> <i_lp_mmshare_version>
43012

> <i_f3d_flags>
0

> <s_epik_input>
W0NIM11bQ0gyXVtDSDJdW0NIMl1bQ0gyXU9DKD1PKVtOSF1jMW5jKD1PKW4oW2NIXWMxRilbQ0BASF0yT1tDQEhdKFtDSDNdKVtDQEBIXShbT0hdKVtDQEhdMltPSF0=

> <s_epik_cmdline>
J2VwaWtfcHl0aG9uJywgJy1waCcsICc3LjAnLCAnLXRuJywgJzgnLCAnLW1hJywgJzIwMCcsICctbWV0YWxfYmluZGluZycsICctaW1hZScsICc8aW5maWxlLm1hZT4nLCAnLW9tYWUnLCAnPG91dGZpbGUubWFlPic=

> <r_lp_tautomer_probability>
1

> <r_epik_Ionization_Penalty>
2.29506e-06

> <r_epik_Ionization_Penalty_Charging>
8.26867e-09

> <r_epik_Ionization_Penalty_Neutral>
2.2868e-06

> <r_epik_State_Penalty>
-0

> <r_epik_Charging_Adjusted_Penalty>
8.26867e-09

> <i_epik_Tot_Q>
0

> <i_epik_Tot_abs_Q>
0

> <r_epik_Metal_State_Penalty>
-0

> <b_epik_Metal_Only>
0

> <s_epik_Chemistry_Notes>
This compound has an ester and may undergo hydrolysis at high or low pH. This compound contains an acetal/aminal-like group ( X-CH(R)-Y where X, Y are N, S, or O) that may be acid/base labile, releasing an aldehyde.

> <s_lp_Force_Field>
OPLS_2005

> <r_lp_Energy>
36.9864

> <b_lp_Chiralities_Consistent>
1

> <s_lp_Variant>
AV-unprocessed.smi:40-3

> <Gold.Version>
5.8.1

> <Gold.Id.Protein>
6NUR|6NUR_protein|mol2

> <Gold.PLP.Fitness>
50.0141

> <Gold.PLP.PLP>
-39.7542

> <Gold.PLP.part.hbond>
-3.7591

> <Gold.PLP.part.metal>
0.0000

> <Gold.PLP.part.buried>
-5.7239

> <Gold.PLP.part.nonpolar>
-31.3101

> <Gold.PLP.part.repulsive>
0.0423

> <Gold.PLP.ligand.clash>
0.0000

> <Gold.PLP.ligand.torsion>
0.9689

> <Gold.PLP.Chemscore.Hbond>
2.9913

> <Gold.PLP.Chemscore.CHOScore>
0.9972

> <Gold.PLP.Chemscore.Metal>
0.0000

> <Gold.Chemscore.Hbonds>
donor molecule, donor type, donor heavy atom, donor atom, acceptor molecule, acceptor atom, score
      P1  H  6896  6908       L1    13  1.00
      P1  H  6896  6909       L1     8  0.60
      L1  C    23    47       P1  7948  0.81

> <Gold.PLP.Chemscore.Internal.Correction>
0.2323

> <Gold.Rescore>
     Score         DG    S(hbond)    S(metal)    S(lipo)     H(rot)  DE(clash)    DE(int)     intcor
     11.65     -14.27       2.54        0.00      83.45       3.70       0.05       2.57       ----

> <Gold.Chemscore.Fitness>
11.6521

> <Gold.Chemscore.DG>
-14.2718

> <Gold.Chemscore.ZeroCoef>
-5.4800

> <Gold.Chemscore.Hbond>
2.5418

> <Gold.Chemscore.Metal>
0.0000

> <Gold.Chemscore.Lipo>
83.4470

> <Gold.Chemscore.Internal_Hbond>
0.0000

> <Gold.Chemscore.DEClash>
0.0530

> <Gold.Chemscore.DEInternal>
2.5667

> <Gold.Chemscore.Rot>
3.6957

> <Gold.Chemscore.Internal.Correction>
   9.000000E+99

> <Gold.Chemscore.Hbonds>
donor molecule, donor type, donor heavy atom, donor atom, acceptor molecule, acceptor atom, score
      P1  H  6896  6908       L1    13  0.85
      P1  H  6896  6909       L1     8  0.59

> <Gold.Chemscore.Hbond.Weighted>
-8.4895

> <Gold.Chemscore.Metal.Weighted>
-0.0000

> <Gold.Chemscore.Lipo.Weighted>
-9.7633

> <Gold.Chemscore.Internal_Hbond.Weighted>
0.0000

> <Gold.Chemscore.DEClash.Weighted>
0.0530

> <Gold.Chemscore.DEInternal.Weighted>
2.5667

> <Gold.Chemscore.Rot.Weighted>
9.4610

> <Gold.Chemscore.Internal.Correction.Weighted>
   9.000000E+99

> <Gold.Protein.RotatedTorsions>
[ 6907 6896 6895 6894 ] final  123.82 input  -60.11 | X-H torsion
[ 7974 7965 7964 7962 ] final -122.87 input  175.53 | X-H torsion
[ 8008 7997 7996 7995 ] final  -27.14 input   59.86 | X-H torsion
[ 10167 10162 10161 10158 ] final   26.93 input  -65.29 | X-H torsion
[ 10718 10713 10712 10709 ] final  -82.87 input   66.30 | X-H torsion
[ 10763 10752 10751 10750 ] final -141.57 input  -60.55 | X-H torsion
[ 11005 11000 10999 10996 ] final   60.66 input  -57.11 | X-H torsion

> <Gold.Protein.ActiveResidues>
 VAL166  LYS551  ARG553  GLY616  TRP617  ASP618  TYR619  PRO620  LYS621  CYS622 
 ASP623  PHE694  ASN695  SER759  ASP760  ASP761  ALA762  ILE779  LEU786  VAL792 
 PHE793  MET794  SER795  GLU796  ALA797  LYS798  CYS799  TRP800  GLU811  SER814 

> <Gold.Protein.RotatedAtoms>
  152.4130  133.6993  159.6413 H   0  0  0  0  0  0  0  0  0  0  0  0  # atno 6907 bound_to 6896
  150.8008  133.8591  159.3235 H   0  0  0  0  0  0  0  0  0  0  0  0  # atno 6908 bound_to 6896
  151.6328  135.1023  160.0177 H   0  0  0  0  0  0  0  0  0  0  0  0  # atno 6909 bound_to 6896
  145.0248  140.8018  143.4359 H   0  0  0  0  0  0  0  0  0  0  0  0  # atno 7974 bound_to 7965
  154.4391  140.1880  156.0885 H   0  0  0  0  0  0  0  0  0  0  0  0  # atno 8008 bound_to 7997
  156.0384  140.3322  155.7190 H   0  0  0  0  0  0  0  0  0  0  0  0  # atno 8009 bound_to 7997
  155.5736  140.0615  157.2791 H   0  0  0  0  0  0  0  0  0  0  0  0  # atno 8010 bound_to 7997
  140.4981  144.0359  150.6322 H   0  0  0  0  0  0  0  0  0  0  0  0  # atno 10167 bound_to 10162
  156.0026  130.4648  150.4171 H   0  0  0  0  0  0  0  0  0  0  0  0  # atno 10718 bound_to 10713
  154.8540  135.3520  154.5890 H   0  0  0  0  0  0  0  0  0  0  0  0  # atno 10763 bound_to 10752
  153.6499  135.6994  153.5217 H   0  0  0  0  0  0  0  0  0  0  0  0  # atno 10764 bound_to 10752
  153.2902  135.4237  155.1118 H   0  0  0  0  0  0  0  0  0  0  0  0  # atno 10765 bound_to 10752
  140.0216  134.6145  155.9632 H   0  0  0  0  0  0  0  0  0  0  0  0  # atno 11005 bound_to 11000
  145.1848  139.2332  143.5273 LP  0  0  0  0  0  0  0  0  0  0  0  0  # atno 17320 bound_to 7965
  146.3490  140.1630  142.8590 LP  0  0  0  0  0  0  0  0  0  0  0  0  # atno 17321 bound_to 7965
  140.3647  143.2888  152.0345 LP  0  0  0  0  0  0  0  0  0  0  0  0  # atno 17342 bound_to 10162
  139.4866  144.6276  151.7134 LP  0  0  0  0  0  0  0  0  0  0  0  0  # atno 17343 bound_to 10162
  157.2229  131.0486  151.2536 LP  0  0  0  0  0  0  0  0  0  0  0  0  # atno 17370 bound_to 10713
  157.3783  130.7217  149.6612 LP  0  0  0  0  0  0  0  0  0  0  0  0  # atno 17371 bound_to 10713
  141.1777  133.6542  156.4894 LP  0  0  0  0  0  0  0  0  0  0  0  0  # atno 17394 bound_to 11000
  140.4378  134.7043  157.4976 LP  0  0  0  0  0  0  0  0  0  0  0  0  # atno 17395 bound_to 11000

$$$$
