AV-unprocessed.smi:2754|AV-procd|sdf|10616|dock8
  -GOLD-   2272015 63D 1   1.00000     0.00000
 Structure written by MMmdl.
 28 29  0  0  0  0  0  0  0  0  2 V2000
  149.3300  138.1859  153.5143 N   0  0  0  0  0  0  0  0  0  0  0  0
  150.3846  138.4883  154.3396 C   0  0  0  0  0  0  0  0  0  0  0  0
  151.5139  137.8061  154.1407 N   0  0  0  0  0  0  0  0  0  0  0  0
  152.5542  138.1026  154.9495 C   0  0  0  0  0  0  0  0  0  0  0  0
  152.4549  139.0832  155.9578 C   0  0  0  0  0  0  0  0  0  0  0  0
  151.2090  139.7373  156.0739 C   0  0  0  0  0  0  0  0  0  0  0  0
  150.9745  140.8127  157.1253 C   0  0  1  0  0  0  0  0  0  0  0  0
  152.2193  141.0529  158.0021 C   0  0  0  0  0  0  0  0  0  0  0  0
  151.9412  142.1492  159.0423 C   0  0  0  0  0  0  0  0  0  0  0  0
  151.4344  143.4336  158.3655 C   0  0  0  0  0  0  0  0  0  0  0  0
  150.2343  143.1548  157.5469 N   0  3  0  0  0  0  0  0  0  0  0  0
  150.4697  142.1321  156.5037 C   0  0  0  0  0  0  0  0  0  0  0  0
  150.1726  139.4336  155.2580 N   0  0  0  0  0  0  0  0  0  0  0  0
  148.4492  138.6688  153.6177 H   0  0  0  0  0  0  0  0  0  0  0  0
  149.3891  137.4074  152.8744 H   0  0  0  0  0  0  0  0  0  0  0  0
  153.4708  137.5534  154.7922 H   0  0  0  0  0  0  0  0  0  0  0  0
  153.2913  139.3149  156.6007 H   0  0  0  0  0  0  0  0  0  0  0  0
  150.1852  140.4444  157.7829 H   0  0  0  0  0  0  0  0  0  0  0  0
  152.5124  140.1299  158.5034 H   0  0  0  0  0  0  0  0  0  0  0  0
  153.0645  141.3522  157.3806 H   0  0  0  0  0  0  0  0  0  0  0  0
  151.1996  141.7950  159.7597 H   0  0  0  0  0  0  0  0  0  0  0  0
  152.8464  142.3599  159.6124 H   0  0  0  0  0  0  0  0  0  0  0  0
  151.1862  144.1844  159.1162 H   0  0  0  0  0  0  0  0  0  0  0  0
  152.2116  143.8616  157.7308 H   0  0  0  0  0  0  0  0  0  0  0  0
  149.4986  142.8285  158.1574 H   0  0  0  0  0  0  0  0  0  0  0  0
  151.1921  142.5229  155.7857 H   0  0  0  0  0  0  0  0  0  0  0  0
  149.5393  141.9641  155.9603 H   0  0  0  0  0  0  0  0  0  0  0  0
  149.9333  144.0111  157.1036 H   0  0  0  0  0  0  0  0  0  0  0  0
  1  2  1  0  0  0  0
  1 14  1  0  0  0  0
  1 15  1  0  0  0  0
  2 13  1  0  0  0  0
  2  3  2  0  0  0  0
  3  4  1  0  0  0  0
  4  5  2  0  0  0  0
  4 16  1  0  0  0  0
  5  6  1  0  0  0  0
  5 17  1  0  0  0  0
  6  7  1  0  0  0  0
  6 13  2  0  0  0  0
  7 12  1  0  0  0  0
  7  8  1  0  0  0  0
  7 18  1  0  0  0  0
  8  9  1  0  0  0  0
  8 19  1  0  0  0  0
  8 20  1  0  0  0  0
  9 10  1  0  0  0  0
  9 21  1  0  0  0  0
  9 22  1  0  0  0  0
 10 11  1  0  0  0  0
 10 23  1  0  0  0  0
 10 24  1  0  0  0  0
 11 12  1  0  0  0  0
 11 25  1  0  0  0  0
 11 28  1  0  0  0  0
 12 26  1  0  0  0  0
 12 27  1  0  0  0  0
M  CHG  1  11   1
M  END
> <s_m_source_file>
AV-unprocessed.smi

> <i_m_source_file_index>
2754

> <i_lp_mmshare_version>
43012

> <i_f3d_flags>
0

> <s_epik_input>
W05IMl1jMW5bY0hdW2NIXWMobjEpW0NAQEhdMltDSDJdW0NIMl1bQ0gyXVtOSF1bQ0gyXTI=

> <s_epik_cmdline>
J2VwaWtfcHl0aG9uJywgJy1waCcsICc3LjAnLCAnLXRuJywgJzgnLCAnLW1hJywgJzIwMCcsICctbWV0YWxfYmluZGluZycsICctaW1hZScsICc8aW5maWxlLm1hZT4nLCAnLW9tYWUnLCAnPG91dGZpbGUubWFlPic=

> <r_lp_tautomer_probability>
1

> <r_epik_Ionization_Penalty>
0.000528025

> <r_epik_Ionization_Penalty_Charging>
0.000372054

> <r_epik_Ionization_Penalty_Neutral>
0.000155972

> <r_epik_State_Penalty>
-0

> <r_epik_Charging_Adjusted_Penalty>
0.000372054

> <i_epik_Tot_Q>
1

> <i_epik_Tot_abs_Q>
1

> <r_epik_Metal_State_Penalty>
-0

> <b_epik_Metal_Only>
0

> <s_lp_Force_Field>
OPLS_2005

> <r_lp_Energy>
4.9837

> <b_lp_Chiralities_Consistent>
1

> <s_lp_Variant>
AV-unprocessed.smi:2754-2

> <Gold.Version>
5.8.1

> <Gold.Id.Protein>
6NUR|6NUR_protein|mol2

> <Gold.PLP.Fitness>
31.7207

> <Gold.PLP.PLP>
-23.3639

> <Gold.PLP.part.hbond>
-3.0000

> <Gold.PLP.part.metal>
0.0000

> <Gold.PLP.part.buried>
-1.9503

> <Gold.PLP.part.nonpolar>
-19.6735

> <Gold.PLP.part.repulsive>
0.3419

> <Gold.PLP.ligand.clash>
0.0000

> <Gold.PLP.ligand.torsion>
0.0271

> <Gold.PLP.Chemscore.Hbond>
2.7920

> <Gold.PLP.Chemscore.CHOScore>
0.0000

> <Gold.PLP.Chemscore.Metal>
0.0000

> <Gold.Chemscore.Hbonds>
donor molecule, donor type, donor heavy atom, donor atom, acceptor molecule, acceptor atom, score
      L1  H     1    15       P1  7948  1.00
      L1  H    11    28       P1  8028  1.79

> <Gold.PLP.Chemscore.Internal.Correction>
0.0351

> <Gold.Rescore>
     Score         DG    S(hbond)    S(metal)    S(lipo)     H(rot)  DE(clash)    DE(int)     intcor
     16.36     -16.52       1.83        0.00      63.90       1.00       0.13       0.03       ----

> <Gold.Chemscore.Fitness>
16.3580

> <Gold.Chemscore.DG>
-16.5181

> <Gold.Chemscore.ZeroCoef>
-5.4800

> <Gold.Chemscore.Hbond>
1.8330

> <Gold.Chemscore.Metal>
0.0000

> <Gold.Chemscore.Lipo>
63.8966

> <Gold.Chemscore.Internal_Hbond>
0.0000

> <Gold.Chemscore.DEClash>
0.1349

> <Gold.Chemscore.DEInternal>
0.0253

> <Gold.Chemscore.Rot>
1.0000

> <Gold.Chemscore.Internal.Correction>
   9.000000E+99

> <Gold.Chemscore.Hbonds>
donor molecule, donor type, donor heavy atom, donor atom, acceptor molecule, acceptor atom, score
      L1  H     1    15       P1  7948  0.86
      L1  H    11    28       P1  8028  0.75

> <Gold.Chemscore.Hbond.Weighted>
-6.1222

> <Gold.Chemscore.Metal.Weighted>
-0.0000

> <Gold.Chemscore.Lipo.Weighted>
-7.4759

> <Gold.Chemscore.Internal_Hbond.Weighted>
0.0000

> <Gold.Chemscore.DEClash.Weighted>
0.1349

> <Gold.Chemscore.DEInternal.Weighted>
0.0253

> <Gold.Chemscore.Rot.Weighted>
2.5600

> <Gold.Chemscore.Internal.Correction.Weighted>
   9.000000E+99

> <Gold.Protein.RotatedTorsions>
[ 6907 6896 6895 6894 ] final  -29.47 input  -60.11 | X-H torsion
[ 7974 7965 7964 7962 ] final  -77.34 input  175.53 | X-H torsion
[ 8008 7997 7996 7995 ] final  174.49 input   59.86 | X-H torsion
[ 10167 10162 10161 10158 ] final -108.05 input  -65.29 | X-H torsion
[ 10718 10713 10712 10709 ] final  174.37 input   66.30 | X-H torsion
[ 10763 10752 10751 10750 ] final   47.14 input  -60.55 | X-H torsion
[ 11005 11000 10999 10996 ] final  -23.64 input  -57.11 | X-H torsion

> <Gold.Protein.ActiveResidues>
 VAL166  LYS551  ARG553  GLY616  TRP617  ASP618  TYR619  PRO620  LYS621  CYS622 
 ASP623  PHE694  ASN695  SER759  ASP760  ASP761  ALA762  ILE779  LEU786  VAL792 
 PHE793  MET794  SER795  GLU796  ALA797  LYS798  CYS799  TRP800  GLU811  SER814 

> <Gold.Protein.RotatedAtoms>
  151.1187  135.0067  159.8528 H   0  0  0  0  0  0  0  0  0  0  0  0  # atno 6907 bound_to 6896
  152.5447  134.1748  159.8622 H   0  0  0  0  0  0  0  0  0  0  0  0  # atno 6908 bound_to 6896
  151.1805  133.4683  159.2627 H   0  0  0  0  0  0  0  0  0  0  0  0  # atno 6909 bound_to 6896
  145.6010  140.9409  143.1241 H   0  0  0  0  0  0  0  0  0  0  0  0  # atno 7974 bound_to 7965
  156.0969  140.1433  156.9519 H   0  0  0  0  0  0  0  0  0  0  0  0  # atno 8008 bound_to 7997
  154.4677  140.0920  156.7109 H   0  0  0  0  0  0  0  0  0  0  0  0  # atno 8009 bound_to 7997
  155.4826  140.3445  155.4344 H   0  0  0  0  0  0  0  0  0  0  0  0  # atno 8010 bound_to 7997
  140.1703  143.4048  152.1359 H   0  0  0  0  0  0  0  0  0  0  0  0  # atno 10167 bound_to 10162
  156.9505  131.0030  151.2949 H   0  0  0  0  0  0  0  0  0  0  0  0  # atno 10718 bound_to 10713
  152.9803  135.5985  154.3715 H   0  0  0  0  0  0  0  0  0  0  0  0  # atno 10763 bound_to 10752
  154.3388  135.2768  155.2435 H   0  0  0  0  0  0  0  0  0  0  0  0  # atno 10764 bound_to 10752
  154.4526  135.5986  153.6257 H   0  0  0  0  0  0  0  0  0  0  0  0  # atno 10765 bound_to 10752
  140.8770  133.7680  156.0256 H   0  0  0  0  0  0  0  0  0  0  0  0  # atno 11005 bound_to 11000
  144.7310  139.7726  143.7347 LP  0  0  0  0  0  0  0  0  0  0  0  0  # atno 17320 bound_to 7965
  146.1576  139.4679  143.0009 LP  0  0  0  0  0  0  0  0  0  0  0  0  # atno 17321 bound_to 7965
  139.5341  144.7190  151.4955 LP  0  0  0  0  0  0  0  0  0  0  0  0  # atno 17342 bound_to 10162
  140.6586  143.8546  150.6862 LP  0  0  0  0  0  0  0  0  0  0  0  0  # atno 17343 bound_to 10162
  157.5725  130.8320  149.8410 LP  0  0  0  0  0  0  0  0  0  0  0  0  # atno 17370 bound_to 10713
  156.0365  130.3750  150.1548 LP  0  0  0  0  0  0  0  0  0  0  0  0  # atno 17371 bound_to 10713
  140.8506  134.2959  157.5277 LP  0  0  0  0  0  0  0  0  0  0  0  0  # atno 17394 bound_to 11000
  139.8716  134.9465  156.3941 LP  0  0  0  0  0  0  0  0  0  0  0  0  # atno 17395 bound_to 11000

$$$$
