AV-unprocessed.smi:2124|AV-procd|sdf|8653|dock1
  -GOLD-   2272011403D 1   1.00000     0.00000
 Structure written by MMmdl.
 47 49  0  0  0  0  0  0  0  0  1 V2000
  142.9354  135.2553  162.7772 C   0  0  0  0  0  0  0  0  0  0  0  0
  144.3790  135.3953  162.3429 C   0  0  0  0  0  0  0  0  0  0  0  0
  145.2900  134.5068  162.5694 N   0  0  0  0  0  0  0  0  0  0  0  0
  146.5954  134.7506  162.1198 C   0  0  0  0  0  0  0  0  0  0  0  0
  147.6113  133.6651  162.4317 C   0  0  0  0  0  0  0  0  0  0  0  0
  146.9190  135.8943  161.4482 C   0  0  0  0  0  0  0  0  0  0  0  0
  148.3323  136.1928  160.9493 C   0  0  0  0  0  0  0  0  0  0  0  0
  148.5627  136.0494  159.4426 C   0  0  0  0  0  0  0  0  0  0  0  0
  148.7288  134.9388  158.9378 O   0  0  0  0  0  0  0  0  0  0  0  0
  148.5611  137.1954  158.7410 N   0  0  0  0  0  0  0  0  0  0  0  0
  148.7223  137.3553  157.2927 C   0  0  1  0  0  0  0  0  0  0  0  0
  147.4961  136.7938  156.5452 C   0  0  0  0  0  0  0  0  0  0  0  0
  149.0705  138.8179  156.8996 C   0  0  1  0  0  0  0  0  0  0  0  0
  150.4303  139.3123  157.4555 C   0  0  0  0  0  0  0  0  0  0  0  0
  151.1630  139.8219  156.2023 C   0  0  2  0  0  0  0  0  0  0  0  0
  150.4784  141.1011  155.6880 C   0  0  0  0  0  0  0  0  0  0  0  0
  149.1652  140.5634  155.0896 C   0  0  0  0  0  0  0  0  0  0  0  0
  149.2526  139.0523  155.3787 C   0  0  1  0  0  0  0  0  0  0  0  0
  150.7403  138.7922  155.1635 C   0  0  0  0  0  0  0  0  0  0  0  0
  145.8714  136.9021  161.1959 C   0  0  0  0  0  0  0  0  0  0  0  0
  146.0553  137.9677  160.6095 O   0  0  0  0  0  0  0  0  0  0  0  0
  144.6447  136.5852  161.6673 N   0  0  0  0  0  0  0  0  0  0  0  0
  143.8939  137.2443  161.5225 H   0  0  0  0  0  0  0  0  0  0  0  0
  142.8782  135.1458  163.8603 H   0  0  0  0  0  0  0  0  0  0  0  0
  142.4893  134.3724  162.3190 H   0  0  0  0  0  0  0  0  0  0  0  0
  142.3422  136.1250  162.4907 H   0  0  0  0  0  0  0  0  0  0  0  0
  147.9703  133.2027  161.5121 H   0  0  0  0  0  0  0  0  0  0  0  0
  147.1753  132.8814  163.0523 H   0  0  0  0  0  0  0  0  0  0  0  0
  148.4650  134.0776  162.9696 H   0  0  0  0  0  0  0  0  0  0  0  0
  148.5917  137.2133  161.2321 H   0  0  0  0  0  0  0  0  0  0  0  0
  149.0580  135.5675  161.4705 H   0  0  0  0  0  0  0  0  0  0  0  0
  148.4201  138.0483  159.2627 H   0  0  0  0  0  0  0  0  0  0  0  0
  149.5723  136.7238  157.0332 H   0  0  0  0  0  0  0  0  0  0  0  0
  147.6782  136.7177  155.4741 H   0  0  0  0  0  0  0  0  0  0  0  0
  146.6152  137.4210  156.6831 H   0  0  0  0  0  0  0  0  0  0  0  0
  147.2485  135.7918  156.8972 H   0  0  0  0  0  0  0  0  0  0  0  0
  148.2741  139.4681  157.2634 H   0  0  0  0  0  0  0  0  0  0  0  0
  150.3092  140.0890  158.2116 H   0  0  0  0  0  0  0  0  0  0  0  0
  151.0004  138.4999  157.9079 H   0  0  0  0  0  0  0  0  0  0  0  0
  152.2401  139.9248  156.3376 H   0  0  0  0  0  0  0  0  0  0  0  0
  150.3077  141.8261  156.4848 H   0  0  0  0  0  0  0  0  0  0  0  0
  151.0809  141.5839  154.9177 H   0  0  0  0  0  0  0  0  0  0  0  0
  148.2828  141.0259  155.5331 H   0  0  0  0  0  0  0  0  0  0  0  0
  149.1322  140.7485  154.0152 H   0  0  0  0  0  0  0  0  0  0  0  0
  148.5917  138.4646  154.7430 H   0  0  0  0  0  0  0  0  0  0  0  0
  151.0796  139.0317  154.1540 H   0  0  0  0  0  0  0  0  0  0  0  0
  151.0476  137.7748  155.4098 H   0  0  0  0  0  0  0  0  0  0  0  0
  1  2  1  0  0  0  0
  1 24  1  0  0  0  0
  1 25  1  0  0  0  0
  1 26  1  0  0  0  0
  2 22  1  0  0  0  0
  2  3  2  0  0  0  0
  3  4  1  0  0  0  0
  4  5  1  0  0  0  0
  4  6  2  0  0  0  0
  5 27  1  0  0  0  0
  5 28  1  0  0  0  0
  5 29  1  0  0  0  0
  6  7  1  0  0  0  0
  6 20  1  0  0  0  0
  7  8  1  0  0  0  0
  7 30  1  0  0  0  0
  7 31  1  0  0  0  0
  8  9  2  0  0  0  0
  8 10  1  0  0  0  0
 10 11  1  0  0  0  0
 10 32  1  0  0  0  0
 11 12  1  0  0  0  0
 11 13  1  0  0  0  0
 11 33  1  0  0  0  0
 12 34  1  0  0  0  0
 12 35  1  0  0  0  0
 12 36  1  0  0  0  0
 13 18  1  0  0  0  0
 13 14  1  0  0  0  0
 13 37  1  0  0  0  0
 14 15  1  0  0  0  0
 14 38  1  0  0  0  0
 14 39  1  0  0  0  0
 15 19  1  0  0  0  0
 15 16  1  0  0  0  0
 15 40  1  0  0  0  0
 16 17  1  0  0  0  0
 16 41  1  0  0  0  0
 16 42  1  0  0  0  0
 17 18  1  0  0  0  0
 17 43  1  0  0  0  0
 17 44  1  0  0  0  0
 18 19  1  0  0  0  0
 18 45  1  0  0  0  0
 19 46  1  0  0  0  0
 19 47  1  0  0  0  0
 20 21  2  0  0  0  0
 20 22  1  0  0  0  0
 22 23  1  0  0  0  0
M  END
> <s_m_source_file>
AV-unprocessed.smi

> <i_m_source_file_index>
2124

> <i_lp_mmshare_version>
43012

> <i_f3d_flags>
0

> <s_epik_input>
W0NIM11jMW5jKFtDSDNdKWMoYyg9TylbbkhdMSlbQ0gyXUMoPU8pW05IXVtDQEhdKFtDSDNdKVtDQEhdKFtDSDJdW0NASF0yMylbQ0BIXShbQ0gyXTMpW0NIMl1bQ0gyXTI=

> <s_epik_cmdline>
J2VwaWtfcHl0aG9uJywgJy1waCcsICc3LjAnLCAnLXRuJywgJzgnLCAnLW1hJywgJzIwMCcsICctbWV0YWxfYmluZGluZycsICctaW1hZScsICc8aW5maWxlLm1hZT4nLCAnLW9tYWUnLCAnPG91dGZpbGUubWFlPic=

> <r_lp_tautomer_probability>
0.839158

> <r_epik_Ionization_Penalty>
0.000383628

> <r_epik_Ionization_Penalty_Charging>
0.00035045

> <r_epik_Ionization_Penalty_Neutral>
3.31781e-05

> <r_epik_State_Penalty>
0.09125

> <r_epik_Charging_Adjusted_Penalty>
0.0916005

> <i_epik_Tot_Q>
0

> <i_epik_Tot_abs_Q>
0

> <r_epik_Metal_State_Penalty>
0.255229

> <b_epik_Metal_Only>
0

> <s_lp_Force_Field>
OPLS_2005

> <r_lp_Energy>
52.6925

> <b_lp_Chiralities_Consistent>
1

> <s_lp_Variant>
AV-unprocessed.smi:2124-4

> <Gold.Version>
5.8.1

> <Gold.Id.Protein>
6NUR|6NUR_protein|mol2

> <Gold.PLP.Fitness>
36.9570

> <Gold.PLP.PLP>
-32.1568

> <Gold.PLP.part.hbond>
-1.8215

> <Gold.PLP.part.metal>
0.0000

> <Gold.PLP.part.buried>
-5.1765

> <Gold.PLP.part.nonpolar>
-25.3621

> <Gold.PLP.part.repulsive>
0.2539

> <Gold.PLP.ligand.clash>
0.0000

> <Gold.PLP.ligand.torsion>
0.6332

> <Gold.PLP.Chemscore.Hbond>
2.0000

> <Gold.PLP.Chemscore.CHOScore>
0.0000

> <Gold.PLP.Chemscore.Metal>
0.0000

> <Gold.Chemscore.Hbonds>
donor molecule, donor type, donor heavy atom, donor atom, acceptor molecule, acceptor atom, score
      P1  H  6896  6907       L1     9  0.96
      P1  H  6934  6947       L1    21  1.00

> <Gold.PLP.Chemscore.Internal.Correction>
0.0665

> <Gold.Rescore>
     Score         DG    S(hbond)    S(metal)    S(lipo)     H(rot)  DE(clash)    DE(int)     intcor
     15.94     -16.53       1.96        0.00      74.67       1.65       0.02       0.57       ----

> <Gold.Chemscore.Fitness>
15.9392

> <Gold.Chemscore.DG>
-16.5310

> <Gold.Chemscore.ZeroCoef>
-5.4800

> <Gold.Chemscore.Hbond>
1.9603

> <Gold.Chemscore.Metal>
0.0000

> <Gold.Chemscore.Lipo>
74.6674

> <Gold.Chemscore.Internal_Hbond>
0.0000

> <Gold.Chemscore.DEClash>
0.0237

> <Gold.Chemscore.DEInternal>
0.5681

> <Gold.Chemscore.Rot>
1.6534

> <Gold.Chemscore.Internal.Correction>
   9.000000E+99

> <Gold.Chemscore.Hbonds>
donor molecule, donor type, donor heavy atom, donor atom, acceptor molecule, acceptor atom, score
      P1  H  6896  6907       L1     9  0.41
      P1  H  6934  6947       L1    21  0.93

> <Gold.Chemscore.Hbond.Weighted>
-6.5475

> <Gold.Chemscore.Metal.Weighted>
-0.0000

> <Gold.Chemscore.Lipo.Weighted>
-8.7361

> <Gold.Chemscore.Internal_Hbond.Weighted>
0.0000

> <Gold.Chemscore.DEClash.Weighted>
0.0237

> <Gold.Chemscore.DEInternal.Weighted>
0.5681

> <Gold.Chemscore.Rot.Weighted>
4.2326

> <Gold.Chemscore.Internal.Correction.Weighted>
   9.000000E+99

> <Gold.Protein.RotatedTorsions>
[ 6907 6896 6895 6894 ] final  -80.07 input  -60.11 | X-H torsion
[ 7974 7965 7964 7962 ] final    9.84 input  175.53 | X-H torsion
[ 8008 7997 7996 7995 ] final  -12.85 input   59.86 | X-H torsion
[ 10167 10162 10161 10158 ] final  116.49 input  -65.29 | X-H torsion
[ 10718 10713 10712 10709 ] final  133.62 input   66.30 | X-H torsion
[ 10763 10752 10751 10750 ] final  -43.91 input  -60.55 | X-H torsion
[ 11005 11000 10999 10996 ] final -130.09 input  -57.11 | X-H torsion

> <Gold.Protein.ActiveResidues>
 VAL166  LYS551  ARG553  GLY616  TRP617  ASP618  TYR619  PRO620  LYS621  CYS622 
 ASP623  PHE694  ASN695  SER759  ASP760  ASP761  ALA762  ILE779  LEU786  VAL792 
 PHE793  MET794  SER795  GLU796  ALA797  LYS798  CYS799  TRP800  GLU811  SER814 

> <Gold.Protein.RotatedAtoms>
  150.6937  134.4026  159.5125 H   0  0  0  0  0  0  0  0  0  0  0  0  # atno 6907 bound_to 6896
  152.1797  134.8762  160.0536 H   0  0  0  0  0  0  0  0  0  0  0  0  # atno 6908 bound_to 6896
  151.9757  133.3706  159.4125 H   0  0  0  0  0  0  0  0  0  0  0  0  # atno 6909 bound_to 6896
  146.2397  139.9723  142.8445 H   0  0  0  0  0  0  0  0  0  0  0  0  # atno 7974 bound_to 7965
  154.5342  140.2265  155.8751 H   0  0  0  0  0  0  0  0  0  0  0  0  # atno 8008 bound_to 7997
  156.1795  140.3103  155.9085 H   0  0  0  0  0  0  0  0  0  0  0  0  # atno 8009 bound_to 7997
  155.3388  140.0449  157.3035 H   0  0  0  0  0  0  0  0  0  0  0  0  # atno 8010 bound_to 7997
  139.6244  144.7106  151.2566 H   0  0  0  0  0  0  0  0  0  0  0  0  # atno 10167 bound_to 10162
  157.4755  131.1083  150.9749 H   0  0  0  0  0  0  0  0  0  0  0  0  # atno 10718 bound_to 10713
  154.0033  135.6690  153.4760 H   0  0  0  0  0  0  0  0  0  0  0  0  # atno 10763 bound_to 10752
  153.0652  135.5005  154.8181 H   0  0  0  0  0  0  0  0  0  0  0  0  # atno 10764 bound_to 10752
  154.7039  135.3084  154.9262 H   0  0  0  0  0  0  0  0  0  0  0  0  # atno 10765 bound_to 10752
  140.9376  134.1237  157.4180 H   0  0  0  0  0  0  0  0  0  0  0  0  # atno 11005 bound_to 11000
  145.1669  140.9701  143.4344 LP  0  0  0  0  0  0  0  0  0  0  0  0  # atno 17320 bound_to 7965
  145.0064  139.3550  143.6142 LP  0  0  0  0  0  0  0  0  0  0  0  0  # atno 17321 bound_to 7965
  140.7402  143.6596  150.8176 LP  0  0  0  0  0  0  0  0  0  0  0  0  # atno 17342 bound_to 10162
  140.0212  143.5541  152.2800 LP  0  0  0  0  0  0  0  0  0  0  0  0  # atno 17343 bound_to 10162
  157.0499  130.5783  149.5369 LP  0  0  0  0  0  0  0  0  0  0  0  0  # atno 17370 bound_to 10713
  156.0095  130.5185  150.7940 LP  0  0  0  0  0  0  0  0  0  0  0  0  # atno 17371 bound_to 10713
  139.8812  135.0026  156.6135 LP  0  0  0  0  0  0  0  0  0  0  0  0  # atno 17394 bound_to 11000
  140.7778  133.8685  155.8543 LP  0  0  0  0  0  0  0  0  0  0  0  0  # atno 17395 bound_to 11000

$$$$
