AV-unprocessed.smi:3056|AV-procd|sdf|11654|dock5
  -GOLD-   2272017 53D 1   1.00000     0.00000
 Structure written by MMmdl.
 47 48  0  0  0  0  0  0  0  0  1 V2000
  151.3635  145.4028  159.8472 C   0  0  0  0  0  0  0  0  0  0  0  0
  152.0518  144.1487  160.3036 C   0  0  0  0  0  0  0  0  0  0  0  0
  152.3378  143.7475  161.6387 C   0  0  0  0  0  0  0  0  0  0  0  0
  152.9530  142.5786  161.7039 N   0  0  0  0  0  0  0  0  0  0  0  0
  153.0891  142.1925  160.4149 N   0  0  0  0  0  0  0  0  0  0  0  0
  153.7122  140.9130  160.0874 C   0  0  1  0  0  0  0  0  0  0  0  0
  154.3277  140.2877  161.3545 C   0  0  0  0  0  0  0  0  0  0  0  0
  152.7119  139.9714  159.3635 C   0  0  2  0  0  0  0  0  0  0  0  0
  153.2492  138.5385  159.1840 C   0  0  0  0  0  0  0  0  0  0  0  0
  152.4359  140.5205  158.0379 N   0  0  0  0  0  0  0  0  0  0  0  0
  150.9989  140.6578  157.7632 C   0  0  0  0  0  0  0  0  0  0  0  0
  150.6775  140.7148  156.2602 C   0  0  0  0  0  0  0  0  0  0  0  0
  151.5418  140.3752  155.4492 O   0  0  0  0  0  0  0  0  0  0  0  0
  149.4520  141.1394  155.8696 N   0  0  0  0  0  0  0  0  0  0  0  0
  148.3752  141.4603  156.8095 C   0  0  0  0  0  0  0  0  0  0  0  0
  147.2512  140.4271  156.6156 C   0  0  0  0  0  0  0  0  0  0  0  0
  146.8066  140.4473  155.2601 O   0  0  0  0  0  0  0  0  0  0  0  0
  147.8428  140.1759  154.3163 C   0  0  1  0  0  0  0  0  0  0  0  0
  147.2325  140.2068  152.9111 C   0  0  0  0  0  0  0  0  0  0  0  0
  148.9639  141.2204  154.4899 C   0  0  0  0  0  0  0  0  0  0  0  0
  152.5481  143.1221  159.5511 C   0  0  0  0  0  0  0  0  0  0  0  0
  151.9486  146.2911  160.0852 H   0  0  0  0  0  0  0  0  0  0  0  0
  150.3892  145.5217  160.3214 H   0  0  0  0  0  0  0  0  0  0  0  0
  151.1979  145.4064  158.7695 H   0  0  0  0  0  0  0  0  0  0  0  0
  152.1148  144.2681  162.5582 H   0  0  0  0  0  0  0  0  0  0  0  0
  154.5360  141.1282  159.4046 H   0  0  0  0  0  0  0  0  0  0  0  0
  154.9588  139.4327  161.1143 H   0  0  0  0  0  0  0  0  0  0  0  0
  153.5582  139.9494  162.0491 H   0  0  0  0  0  0  0  0  0  0  0  0
  154.9561  141.0084  161.8790 H   0  0  0  0  0  0  0  0  0  0  0  0
  151.7928  139.9339  159.9512 H   0  0  0  0  0  0  0  0  0  0  0  0
  153.4008  138.0458  160.1440 H   0  0  0  0  0  0  0  0  0  0  0  0
  154.2020  138.5344  158.6535 H   0  0  0  0  0  0  0  0  0  0  0  0
  152.5549  137.9143  158.6215 H   0  0  0  0  0  0  0  0  0  0  0  0
  152.9046  139.9687  157.3336 H   0  0  0  0  0  0  0  0  0  0  0  0
  150.4566  139.8231  158.2077 H   0  0  0  0  0  0  0  0  0  0  0  0
  150.6429  141.5781  158.2288 H   0  0  0  0  0  0  0  0  0  0  0  0
  148.7020  141.4606  157.8500 H   0  0  0  0  0  0  0  0  0  0  0  0
  148.0031  142.4661  156.6086 H   0  0  0  0  0  0  0  0  0  0  0  0
  147.5956  139.4256  156.8785 H   0  0  0  0  0  0  0  0  0  0  0  0
  146.4084  140.6567  157.2675 H   0  0  0  0  0  0  0  0  0  0  0  0
  148.2401  139.1763  154.5023 H   0  0  0  0  0  0  0  0  0  0  0  0
  147.9848  139.9909  152.1520 H   0  0  0  0  0  0  0  0  0  0  0  0
  146.8021  141.1835  152.6888 H   0  0  0  0  0  0  0  0  0  0  0  0
  146.4409  139.4635  152.8141 H   0  0  0  0  0  0  0  0  0  0  0  0
  148.5743  142.2231  154.3074 H   0  0  0  0  0  0  0  0  0  0  0  0
  149.7391  141.0678  153.7406 H   0  0  0  0  0  0  0  0  0  0  0  0
  152.5569  142.9753  158.4812 H   0  0  0  0  0  0  0  0  0  0  0  0
  1  2  1  0  0  0  0
  1 22  1  0  0  0  0
  1 23  1  0  0  0  0
  1 24  1  0  0  0  0
  2 21  2  0  0  0  0
  2  3  1  0  0  0  0
  3  4  2  0  0  0  0
  3 25  1  0  0  0  0
  4  5  1  0  0  0  0
  5  6  1  0  0  0  0
  5 21  1  0  0  0  0
  6  7  1  0  0  0  0
  6  8  1  0  0  0  0
  6 26  1  0  0  0  0
  7 27  1  0  0  0  0
  7 28  1  0  0  0  0
  7 29  1  0  0  0  0
  8  9  1  0  0  0  0
  8 10  1  0  0  0  0
  8 30  1  0  0  0  0
  9 31  1  0  0  0  0
  9 32  1  0  0  0  0
  9 33  1  0  0  0  0
 10 11  1  0  0  0  0
 10 34  1  0  0  0  0
 11 12  1  0  0  0  0
 11 35  1  0  0  0  0
 11 36  1  0  0  0  0
 12 13  2  0  0  0  0
 12 14  1  0  0  0  0
 14 20  1  0  0  0  0
 14 15  1  0  0  0  0
 15 16  1  0  0  0  0
 15 37  1  0  0  0  0
 15 38  1  0  0  0  0
 16 17  1  0  0  0  0
 16 39  1  0  0  0  0
 16 40  1  0  0  0  0
 17 18  1  0  0  0  0
 18 19  1  0  0  0  0
 18 20  1  0  0  0  0
 18 41  1  0  0  0  0
 19 42  1  0  0  0  0
 19 43  1  0  0  0  0
 19 44  1  0  0  0  0
 20 45  1  0  0  0  0
 20 46  1  0  0  0  0
 21 47  1  0  0  0  0
M  END
> <s_m_source_file>
AV-unprocessed.smi

> <i_m_source_file_index>
3056

> <i_lp_mmshare_version>
43012

> <i_f3d_flags>
0

> <s_epik_input>
W0NIM11jMVtjSF1ubihbY0hdMSlbQ0BIXShbQ0gzXSlbQ0BIXShbQ0gzXSlbTkhdW0NIMl1DKD1PKU4yW0NIMl1bQ0gyXU9bQ0BASF0oW0NIM10pW0NIMl0y

> <s_epik_cmdline>
J2VwaWtfcHl0aG9uJywgJy1waCcsICc3LjAnLCAnLXRuJywgJzgnLCAnLW1hJywgJzIwMCcsICctbWV0YWxfYmluZGluZycsICctaW1hZScsICc8aW5maWxlLm1hZT4nLCAnLW9tYWUnLCAnPG91dGZpbGUubWFlPic=

> <r_lp_tautomer_probability>
1

> <r_epik_Ionization_Penalty>
0.667689

> <r_epik_Ionization_Penalty_Charging>
0

> <r_epik_Ionization_Penalty_Neutral>
0.667689

> <r_epik_State_Penalty>
0.684601

> <r_epik_Charging_Adjusted_Penalty>
0.684601

> <i_epik_Tot_Q>
0

> <i_epik_Tot_abs_Q>
0

> <r_epik_Metal_State_Penalty>
0.681448

> <b_epik_Metal_Only>
0

> <s_lp_Force_Field>
OPLS_2005

> <r_lp_Energy>
29.4013

> <b_lp_Chiralities_Consistent>
1

> <s_lp_Variant>
AV-unprocessed.smi:3056-10

> <Gold.Version>
5.8.1

> <Gold.Id.Protein>
6NUR|6NUR_protein|mol2

> <Gold.PLP.Fitness>
46.5066

> <Gold.PLP.PLP>
-46.1864

> <Gold.PLP.part.hbond>
-1.1497

> <Gold.PLP.part.metal>
0.0000

> <Gold.PLP.part.buried>
-6.0627

> <Gold.PLP.part.nonpolar>
-38.6478

> <Gold.PLP.part.repulsive>
0.1330

> <Gold.PLP.ligand.clash>
0.0000

> <Gold.PLP.ligand.torsion>
1.1877

> <Gold.PLP.Chemscore.Hbond>
0.8640

> <Gold.PLP.Chemscore.CHOScore>
0.0000

> <Gold.PLP.Chemscore.Metal>
0.0000

> <Gold.Chemscore.Hbonds>
donor molecule, donor type, donor heavy atom, donor atom, acceptor molecule, acceptor atom, score
      P1  H  7989  7998       L1    13  0.86

> <Gold.PLP.Chemscore.Internal.Correction>
0.1037

> <Gold.Rescore>
     Score         DG    S(hbond)    S(metal)    S(lipo)     H(rot)  DE(clash)    DE(int)     intcor
     15.56     -16.95       0.92        0.00     108.49       1.68       0.10       1.29       ----

> <Gold.Chemscore.Fitness>
15.5619

> <Gold.Chemscore.DG>
-16.9541

> <Gold.Chemscore.ZeroCoef>
-5.4800

> <Gold.Chemscore.Hbond>
0.9221

> <Gold.Chemscore.Metal>
0.0000

> <Gold.Chemscore.Lipo>
108.4917

> <Gold.Chemscore.Internal_Hbond>
0.0000

> <Gold.Chemscore.DEClash>
0.1016

> <Gold.Chemscore.DEInternal>
1.2907

> <Gold.Chemscore.Rot>
1.6793

> <Gold.Chemscore.Internal.Correction>
   9.000000E+99

> <Gold.Chemscore.Hbonds>
donor molecule, donor type, donor heavy atom, donor atom, acceptor molecule, acceptor atom, score
      P1  H  7989  7998       L1    13  0.81

> <Gold.Chemscore.Hbond.Weighted>
-3.0797

> <Gold.Chemscore.Metal.Weighted>
-0.0000

> <Gold.Chemscore.Lipo.Weighted>
-12.6935

> <Gold.Chemscore.Internal_Hbond.Weighted>
0.0000

> <Gold.Chemscore.DEClash.Weighted>
0.1016

> <Gold.Chemscore.DEInternal.Weighted>
1.2907

> <Gold.Chemscore.Rot.Weighted>
4.2990

> <Gold.Chemscore.Internal.Correction.Weighted>
   9.000000E+99

> <Gold.Protein.RotatedTorsions>
[ 6907 6896 6895 6894 ] final  134.92 input  -60.11 | X-H torsion
[ 7974 7965 7964 7962 ] final   26.32 input  175.53 | X-H torsion
[ 8008 7997 7996 7995 ] final   95.76 input   59.86 | X-H torsion
[ 10167 10162 10161 10158 ] final   40.42 input  -65.29 | X-H torsion
[ 10718 10713 10712 10709 ] final   49.15 input   66.30 | X-H torsion
[ 10763 10752 10751 10750 ] final -103.14 input  -60.55 | X-H torsion
[ 11005 11000 10999 10996 ] final  106.68 input  -57.11 | X-H torsion

> <Gold.Protein.ActiveResidues>
 VAL166  LYS551  ARG553  GLY616  TRP617  ASP618  TYR619  PRO620  LYS621  CYS622 
 ASP623  PHE694  ASN695  SER759  ASP760  ASP761  ALA762  ILE779  LEU786  VAL792 
 PHE793  MET794  SER795  GLU796  ALA797  LYS798  CYS799  TRP800  GLU811  SER814 

> <Gold.Protein.RotatedAtoms>
  152.3061  133.5704  159.5649 H   0  0  0  0  0  0  0  0  0  0  0  0  # atno 6907 bound_to 6896
  150.7300  134.0221  159.3714 H   0  0  0  0  0  0  0  0  0  0  0  0  # atno 6908 bound_to 6896
  151.8118  135.0679  160.0464 H   0  0  0  0  0  0  0  0  0  0  0  0  # atno 6909 bound_to 6896
  146.1843  139.7344  142.8877 H   0  0  0  0  0  0  0  0  0  0  0  0  # atno 7974 bound_to 7965
  156.0724  140.3282  155.7592 H   0  0  0  0  0  0  0  0  0  0  0  0  # atno 8008 bound_to 7997
  155.5284  140.0591  157.2911 H   0  0  0  0  0  0  0  0  0  0  0  0  # atno 8009 bound_to 7997
  154.4537  140.1931  156.0460 H   0  0  0  0  0  0  0  0  0  0  0  0  # atno 8010 bound_to 7997
  140.3743  144.2063  150.6132 H   0  0  0  0  0  0  0  0  0  0  0  0  # atno 10167 bound_to 10162
  157.4758  130.8284  149.8038 H   0  0  0  0  0  0  0  0  0  0  0  0  # atno 10718 bound_to 10713
  154.7785  135.4834  153.9795 H   0  0  0  0  0  0  0  0  0  0  0  0  # atno 10763 bound_to 10752
  153.1462  135.6782  153.8959 H   0  0  0  0  0  0  0  0  0  0  0  0  # atno 10764 bound_to 10752
  153.8618  135.3154  155.3416 H   0  0  0  0  0  0  0  0  0  0  0  0  # atno 10765 bound_to 10752
  139.8817  134.9377  156.5703 H   0  0  0  0  0  0  0  0  0  0  0  0  # atno 11005 bound_to 11000
  145.3983  141.0382  143.3085 LP  0  0  0  0  0  0  0  0  0  0  0  0  # atno 17320 bound_to 7965
  144.8370  139.5534  143.6917 LP  0  0  0  0  0  0  0  0  0  0  0  0  # atno 17321 bound_to 7965
  140.5001  143.2320  151.8691 LP  0  0  0  0  0  0  0  0  0  0  0  0  # atno 17342 bound_to 10162
  139.4801  144.5069  151.8986 LP  0  0  0  0  0  0  0  0  0  0  0  0  # atno 17343 bound_to 10162
  156.0096  130.3839  150.2311 LP  0  0  0  0  0  0  0  0  0  0  0  0  # atno 17370 bound_to 10713
  157.0495  131.0058  151.3258 LP  0  0  0  0  0  0  0  0  0  0  0  0  # atno 17371 bound_to 10713
  140.8103  133.8434  155.8804 LP  0  0  0  0  0  0  0  0  0  0  0  0  # atno 17394 bound_to 11000
  140.9512  134.1776  157.4726 LP  0  0  0  0  0  0  0  0  0  0  0  0  # atno 17395 bound_to 11000

$$$$
