AV-unprocessed.smi:2726|AV-procd|sdf|10519|dock6
  -GOLD-   2272014563D 1   1.00000     0.00000
 Structure written by MMmdl.
 41 42  0  0  0  0  0  0  0  0  1 V2000
  148.0600  133.0064  152.7544 C   0  0  0  0  0  0  0  0  0  0  0  0
  148.5533  133.3755  154.1648 C   0  0  0  0  0  0  0  0  0  0  0  0
  147.3590  133.3293  155.1410 C   0  0  0  0  0  0  0  0  0  0  0  0
  149.6431  132.3700  154.5922 C   0  0  0  0  0  0  0  0  0  0  0  0
  149.1030  134.7345  154.0832 N   0  0  0  0  0  0  0  0  0  0  0  0
  149.6808  135.4614  155.0545 C   0  0  0  0  0  0  0  0  0  0  0  0
  149.8419  135.0661  156.2087 O   0  0  0  0  0  0  0  0  0  0  0  0
  150.0334  136.6752  154.5980 N   0  0  0  0  0  0  0  0  0  0  0  0
  150.6658  137.7332  155.3039 C   0  0  0  0  0  0  0  0  0  0  0  0
  151.1607  138.9108  154.6952 C   0  0  0  0  0  0  0  0  0  0  0  0
  151.7511  139.8992  155.5059 C   0  0  0  0  0  0  0  0  0  0  0  0
  151.8235  139.6863  156.8978 C   0  0  0  0  0  0  0  0  0  0  0  0
  152.4163  140.6718  157.7017 N   0  0  0  0  0  0  0  0  0  0  0  0
  151.6235  141.8746  157.8955 C   0  0  0  0  0  0  0  0  0  0  0  0
  152.2685  142.6019  159.0778 C   0  0  0  0  0  0  0  0  0  0  0  0
  153.0427  141.5150  159.8338 C   0  0  0  0  0  0  0  0  0  0  0  0
  152.8066  140.2327  159.0314 C   0  0  0  0  0  0  0  0  0  0  0  0
  151.3390  138.5674  157.4878 N   0  0  0  0  0  0  0  0  0  0  0  0
  150.7728  137.6244  156.7055 C   0  0  0  0  0  0  0  0  0  0  0  0
  147.6300  132.0042  152.7339 H   0  0  0  0  0  0  0  0  0  0  0  0
  148.8744  133.0277  152.0292 H   0  0  0  0  0  0  0  0  0  0  0  0
  147.2922  133.6988  152.4066 H   0  0  0  0  0  0  0  0  0  0  0  0
  146.5945  134.0579  154.8686 H   0  0  0  0  0  0  0  0  0  0  0  0
  147.6598  133.5355  156.1682 H   0  0  0  0  0  0  0  0  0  0  0  0
  146.8890  132.3453  155.1387 H   0  0  0  0  0  0  0  0  0  0  0  0
  149.2648  131.3476  154.5642 H   0  0  0  0  0  0  0  0  0  0  0  0
  149.9939  132.5510  155.6081 H   0  0  0  0  0  0  0  0  0  0  0  0
  150.5088  132.4168  153.9307 H   0  0  0  0  0  0  0  0  0  0  0  0
  149.0274  135.1746  153.1779 H   0  0  0  0  0  0  0  0  0  0  0  0
  149.7590  136.8901  153.6504 H   0  0  0  0  0  0  0  0  0  0  0  0
  151.0873  139.0819  153.6326 H   0  0  0  0  0  0  0  0  0  0  0  0
  152.1370  140.8063  155.0640 H   0  0  0  0  0  0  0  0  0  0  0  0
  151.6209  142.4924  156.9970 H   0  0  0  0  0  0  0  0  0  0  0  0
  150.5895  141.6199  158.1322 H   0  0  0  0  0  0  0  0  0  0  0  0
  152.9583  143.3673  158.7203 H   0  0  0  0  0  0  0  0  0  0  0  0
  151.5222  143.0923  159.7034 H   0  0  0  0  0  0  0  0  0  0  0  0
  154.1051  141.7607  159.8528 H   0  0  0  0  0  0  0  0  0  0  0  0
  152.7072  141.4085  160.8660 H   0  0  0  0  0  0  0  0  0  0  0  0
  152.0109  139.6451  159.4916 H   0  0  0  0  0  0  0  0  0  0  0  0
  153.7030  139.6131  158.9924 H   0  0  0  0  0  0  0  0  0  0  0  0
  150.3976  136.7501  157.2175 H   0  0  0  0  0  0  0  0  0  0  0  0
  1  2  1  0  0  0  0
  1 20  1  0  0  0  0
  1 21  1  0  0  0  0
  1 22  1  0  0  0  0
  2  3  1  0  0  0  0
  2  4  1  0  0  0  0
  2  5  1  0  0  0  0
  3 23  1  0  0  0  0
  3 24  1  0  0  0  0
  3 25  1  0  0  0  0
  4 26  1  0  0  0  0
  4 27  1  0  0  0  0
  4 28  1  0  0  0  0
  5  6  1  0  0  0  0
  5 29  1  0  0  0  0
  6  7  2  0  0  0  0
  6  8  1  0  0  0  0
  8  9  1  0  0  0  0
  8 30  1  0  0  0  0
  9 19  1  0  0  0  0
  9 10  2  0  0  0  0
 10 11  1  0  0  0  0
 10 31  1  0  0  0  0
 11 12  2  0  0  0  0
 11 32  1  0  0  0  0
 12 13  1  0  0  0  0
 12 18  1  0  0  0  0
 13 17  1  0  0  0  0
 13 14  1  0  0  0  0
 14 15  1  0  0  0  0
 14 33  1  0  0  0  0
 14 34  1  0  0  0  0
 15 16  1  0  0  0  0
 15 35  1  0  0  0  0
 15 36  1  0  0  0  0
 16 17  1  0  0  0  0
 16 37  1  0  0  0  0
 16 38  1  0  0  0  0
 17 39  1  0  0  0  0
 17 40  1  0  0  0  0
 18 19  2  0  0  0  0
 19 41  1  0  0  0  0
M  END
> <s_m_source_file>
AV-unprocessed.smi

> <i_m_source_file_index>
2726

> <i_lp_mmshare_version>
43012

> <i_f3d_flags>
0

> <s_epik_input>
W0NIM11DKFtDSDNdKShbQ0gzXSlbTkhdQyg9TylbTkhdYzFbY0hdW2NIXWMobltjSF0xKU4yW0NIMl1bQ0gyXVtDSDJdW0NIMl0y

> <s_epik_cmdline>
J2VwaWtfcHl0aG9uJywgJy1waCcsICc3LjAnLCAnLXRuJywgJzgnLCAnLW1hJywgJzIwMCcsICctbWV0YWxfYmluZGluZycsICctaW1hZScsICc8aW5maWxlLm1hZT4nLCAnLW9tYWUnLCAnPG91dGZpbGUubWFlPic=

> <r_lp_tautomer_probability>
1

> <r_epik_Ionization_Penalty>
0.105331

> <r_epik_Ionization_Penalty_Charging>
0

> <r_epik_Ionization_Penalty_Neutral>
0.105331

> <r_epik_State_Penalty>
0.0946433

> <r_epik_Charging_Adjusted_Penalty>
0.0946433

> <i_epik_Tot_Q>
0

> <i_epik_Tot_abs_Q>
0

> <r_epik_Metal_State_Penalty>
0.0802816

> <b_epik_Metal_Only>
0

> <s_lp_Force_Field>
OPLS_2005

> <r_lp_Energy>
34.5725

> <b_lp_Chiralities_Consistent>
1

> <s_lp_Variant>
AV-unprocessed.smi:2726-1

> <Gold.Version>
5.8.1

> <Gold.Id.Protein>
6NUR|6NUR_protein|mol2

> <Gold.PLP.Fitness>
37.0475

> <Gold.PLP.PLP>
-31.7099

> <Gold.PLP.part.hbond>
-2.7054

> <Gold.PLP.part.metal>
0.0000

> <Gold.PLP.part.buried>
-1.5066

> <Gold.PLP.part.nonpolar>
-26.9517

> <Gold.PLP.part.repulsive>
0.0792

> <Gold.PLP.ligand.clash>
0.0000

> <Gold.PLP.ligand.torsion>
0.4184

> <Gold.PLP.Chemscore.Hbond>
2.0512

> <Gold.PLP.Chemscore.CHOScore>
0.0000

> <Gold.PLP.Chemscore.Metal>
0.0000

> <Gold.Chemscore.Hbonds>
donor molecule, donor type, donor heavy atom, donor atom, acceptor molecule, acceptor atom, score
      L1  H     5    29       P1  7948  1.00
      L1  H     8    30       P1  7948  0.95
      P1  H  7997  8010       L1    13  0.08

> <Gold.PLP.Chemscore.Internal.Correction>
0.0209

> <Gold.Rescore>
     Score         DG    S(hbond)    S(metal)    S(lipo)     H(rot)  DE(clash)    DE(int)     intcor
     15.62     -17.31       1.88        0.00      73.01       1.17       0.02       1.67       ----

> <Gold.Chemscore.Fitness>
15.6219

> <Gold.Chemscore.DG>
-17.3128

> <Gold.Chemscore.ZeroCoef>
-5.4800

> <Gold.Chemscore.Hbond>
1.8827

> <Gold.Chemscore.Metal>
0.0000

> <Gold.Chemscore.Lipo>
73.0104

> <Gold.Chemscore.Internal_Hbond>
0.0000

> <Gold.Chemscore.DEClash>
0.0228

> <Gold.Chemscore.DEInternal>
1.6681

> <Gold.Chemscore.Rot>
1.1710

> <Gold.Chemscore.Internal.Correction>
   9.000000E+99

> <Gold.Chemscore.Hbonds>
donor molecule, donor type, donor heavy atom, donor atom, acceptor molecule, acceptor atom, score
      L1  H     5    29       P1  7948  0.26
      L1  H     8    30       P1  7948  0.51

> <Gold.Chemscore.Hbond.Weighted>
-6.2884

> <Gold.Chemscore.Metal.Weighted>
-0.0000

> <Gold.Chemscore.Lipo.Weighted>
-8.5422

> <Gold.Chemscore.Internal_Hbond.Weighted>
0.0000

> <Gold.Chemscore.DEClash.Weighted>
0.0228

> <Gold.Chemscore.DEInternal.Weighted>
1.6681

> <Gold.Chemscore.Rot.Weighted>
2.9978

> <Gold.Chemscore.Internal.Correction.Weighted>
   9.000000E+99

> <Gold.Protein.RotatedTorsions>
[ 6907 6896 6895 6894 ] final   22.20 input  -60.11 | X-H torsion
[ 7974 7965 7964 7962 ] final -133.97 input  175.53 | X-H torsion
[ 8008 7997 7996 7995 ] final   53.01 input   59.86 | X-H torsion
[ 10167 10162 10161 10158 ] final -160.85 input  -65.29 | X-H torsion
[ 10718 10713 10712 10709 ] final  147.68 input   66.30 | X-H torsion
[ 10763 10752 10751 10750 ] final  141.96 input  -60.55 | X-H torsion
[ 11005 11000 10999 10996 ] final  -66.18 input  -57.11 | X-H torsion

> <Gold.Protein.ActiveResidues>
 VAL166  LYS551  ARG553  GLY616  TRP617  ASP618  TYR619  PRO620  LYS621  CYS622 
 ASP623  PHE694  ASN695  SER759  ASP760  ASP761  ALA762  ILE779  LEU786  VAL792 
 PHE793  MET794  SER795  GLU796  ALA797  LYS798  CYS799  TRP800  GLU811  SER814 

> <Gold.Protein.RotatedAtoms>
  151.9235  135.0288  160.0523 H   0  0  0  0  0  0  0  0  0  0  0  0  # atno 6907 bound_to 6896
  152.2179  133.4956  159.5154 H   0  0  0  0  0  0  0  0  0  0  0  0  # atno 6908 bound_to 6896
  150.6992  134.1298  159.4108 H   0  0  0  0  0  0  0  0  0  0  0  0  # atno 6909 bound_to 6896
  144.9145  140.6937  143.5004 H   0  0  0  0  0  0  0  0  0  0  0  0  # atno 7974 bound_to 7965
  155.4612  140.3462  155.4313 H   0  0  0  0  0  0  0  0  0  0  0  0  # atno 8008 bound_to 7997
  156.1159  140.1474  156.9302 H   0  0  0  0  0  0  0  0  0  0  0  0  # atno 8009 bound_to 7997
  154.4789  140.0876  156.7308 H   0  0  0  0  0  0  0  0  0  0  0  0  # atno 8010 bound_to 7997
  139.6508  144.0087  152.2160 H   0  0  0  0  0  0  0  0  0  0  0  0  # atno 10167 bound_to 10162
  157.3180  131.0899  151.1263 H   0  0  0  0  0  0  0  0  0  0  0  0  # atno 10718 bound_to 10713
  153.9478  135.2973  155.3440 H   0  0  0  0  0  0  0  0  0  0  0  0  # atno 10763 bound_to 10752
  154.7442  135.5010  153.9179 H   0  0  0  0  0  0  0  0  0  0  0  0  # atno 10764 bound_to 10752
  153.1009  135.6734  153.9782 H   0  0  0  0  0  0  0  0  0  0  0  0  # atno 10765 bound_to 10752
  141.1475  133.6694  156.6099 H   0  0  0  0  0  0  0  0  0  0  0  0  # atno 11005 bound_to 11000
  145.3398  139.1735  143.4492 LP  0  0  0  0  0  0  0  0  0  0  0  0  # atno 17320 bound_to 7965
  146.3175  140.3438  142.8650 LP  0  0  0  0  0  0  0  0  0  0  0  0  # atno 17321 bound_to 7965
  139.9801  144.6434  150.7909 LP  0  0  0  0  0  0  0  0  0  0  0  0  # atno 17342 bound_to 10162
  140.7537  143.3013  151.3074 LP  0  0  0  0  0  0  0  0  0  0  0  0  # atno 17343 bound_to 10162
  157.2559  130.6636  149.5952 LP  0  0  0  0  0  0  0  0  0  0  0  0  # atno 17370 bound_to 10713
  155.9683  130.4523  150.5771 LP  0  0  0  0  0  0  0  0  0  0  0  0  # atno 17371 bound_to 10713
  140.3622  134.7677  157.4542 LP  0  0  0  0  0  0  0  0  0  0  0  0  # atno 17394 bound_to 11000
  140.0776  134.5776  155.8575 LP  0  0  0  0  0  0  0  0  0  0  0  0  # atno 17395 bound_to 11000

$$$$
