AV-unprocessed.smi:1212|AV-procd|sdf|5083|dock2
  -GOLD-   22720 4133D 1   1.00000     0.00000
 Structure written by MMmdl.
 38 39  0  0  0  0  0  0  0  0  2 V2000
  138.5021  137.9384  153.7330 C   0  0  0  0  0  0  0  0  0  0  0  0
  139.3469  137.8569  154.9578 C   0  0  0  0  0  0  0  0  0  0  0  0
  140.4717  137.1393  155.0107 N   0  0  0  0  0  0  0  0  0  0  0  0
  141.0841  137.2184  156.2531 N   0  0  0  0  0  0  0  0  0  0  0  0
  140.4207  137.9991  157.1177 C   0  0  0  0  0  0  0  0  0  0  0  0
  140.8461  138.2052  158.3751 N   0  5  0  0  0  0  0  0  0  0  0  0
  141.3940  137.1878  159.0782 C   0  0  0  0  0  0  0  0  0  0  0  0
  141.0577  136.0020  159.0291 O   0  0  0  0  0  0  0  0  0  0  0  0
  142.3960  137.5655  159.8854 N   0  0  0  0  0  0  0  0  0  0  0  0
  143.1672  136.6851  160.7557 C   0  0  0  0  0  0  0  0  0  0  0  0
  144.4111  137.3960  161.3197 C   0  0  0  0  0  0  0  0  0  0  0  0
  145.2383  136.4783  162.1111 N   0  0  0  0  0  0  0  0  0  0  0  0
  144.5084  135.4695  162.8948 C   0  0  0  0  0  0  0  0  0  0  0  0
  144.6619  134.0306  162.3510 C   0  0  0  0  0  0  0  0  0  0  0  0
  145.9976  133.7066  161.6526 C   0  0  0  0  0  0  0  0  0  0  0  0
  147.2625  134.0692  162.4593 C   0  0  0  0  0  0  0  0  0  0  0  0
  147.3763  135.5328  162.9508 C   0  0  0  0  0  0  0  0  0  0  0  0
  146.5917  136.5530  162.1090 C   0  0  0  0  0  0  0  0  0  0  0  0
  147.2172  137.3973  161.4670 O   0  0  0  0  0  0  0  0  0  0  0  0
  138.9442  138.6933  156.4479 S   0  0  0  0  0  0  0  0  0  0  0  0
  139.0823  138.3467  152.9051 H   0  0  0  0  0  0  0  0  0  0  0  0
  137.6410  138.5838  153.9073 H   0  0  0  0  0  0  0  0  0  0  0  0
  138.1451  136.9459  153.4575 H   0  0  0  0  0  0  0  0  0  0  0  0
  142.6396  138.5452  159.8952 H   0  0  0  0  0  0  0  0  0  0  0  0
  142.5175  136.3603  161.5686 H   0  0  0  0  0  0  0  0  0  0  0  0
  143.4543  135.7837  160.2110 H   0  0  0  0  0  0  0  0  0  0  0  0
  145.0036  137.8210  160.5083 H   0  0  0  0  0  0  0  0  0  0  0  0
  144.1086  138.2510  161.9268 H   0  0  0  0  0  0  0  0  0  0  0  0
  144.8446  135.5098  163.9309 H   0  0  0  0  0  0  0  0  0  0  0  0
  143.4477  135.7175  162.9559 H   0  0  0  0  0  0  0  0  0  0  0  0
  144.4946  133.3268  163.1669 H   0  0  0  0  0  0  0  0  0  0  0  0
  143.8605  133.8447  161.6351 H   0  0  0  0  0  0  0  0  0  0  0  0
  146.0218  132.6418  161.4189 H   0  0  0  0  0  0  0  0  0  0  0  0
  146.0299  134.2077  160.6840 H   0  0  0  0  0  0  0  0  0  0  0  0
  147.3321  133.4074  163.3232 H   0  0  0  0  0  0  0  0  0  0  0  0
  148.1338  133.8386  161.8454 H   0  0  0  0  0  0  0  0  0  0  0  0
  147.0483  135.6061  163.9876 H   0  0  0  0  0  0  0  0  0  0  0  0
  148.4280  135.8215  162.9710 H   0  0  0  0  0  0  0  0  0  0  0  0
  1  2  1  0  0  0  0
  1 21  1  0  0  0  0
  1 22  1  0  0  0  0
  1 23  1  0  0  0  0
  2 20  1  0  0  0  0
  2  3  2  0  0  0  0
  3  4  1  0  0  0  0
  4  5  2  0  0  0  0
  5  6  1  0  0  0  0
  5 20  1  0  0  0  0
  6  7  1  0  0  0  0
  7  8  2  0  0  0  0
  7  9  1  0  0  0  0
  9 10  1  0  0  0  0
  9 24  1  0  0  0  0
 10 11  1  0  0  0  0
 10 25  1  0  0  0  0
 10 26  1  0  0  0  0
 11 12  1  0  0  0  0
 11 27  1  0  0  0  0
 11 28  1  0  0  0  0
 12 18  1  0  0  0  0
 12 13  1  0  0  0  0
 13 14  1  0  0  0  0
 13 29  1  0  0  0  0
 13 30  1  0  0  0  0
 14 15  1  0  0  0  0
 14 31  1  0  0  0  0
 14 32  1  0  0  0  0
 15 16  1  0  0  0  0
 15 33  1  0  0  0  0
 15 34  1  0  0  0  0
 16 17  1  0  0  0  0
 16 35  1  0  0  0  0
 16 36  1  0  0  0  0
 17 18  1  0  0  0  0
 17 37  1  0  0  0  0
 17 38  1  0  0  0  0
 18 19  2  0  0  0  0
M  CHG  1   6  -1
M  END
> <s_m_source_file>
AV-unprocessed.smi

> <i_m_source_file_index>
1212

> <i_lp_mmshare_version>
43012

> <i_f3d_flags>
0

> <s_epik_input>
W0NIM11jMW5uYyhzMSlbTkhdQyg9TylbTkhdW0NIMl1bQ0gyXU4yW0NIMl1bQ0gyXVtDSDJdW0NIMl1bQ0gyXUMyPU8=

> <s_epik_cmdline>
J2VwaWtfcHl0aG9uJywgJy1waCcsICc3LjAnLCAnLXRuJywgJzgnLCAnLW1hJywgJzIwMCcsICctbWV0YWxfYmluZGluZycsICctaW1hZScsICc8aW5maWxlLm1hZT4nLCAnLW9tYWUnLCAnPG91dGZpbGUubWFlPic=

> <r_lp_tautomer_probability>
1

> <r_epik_Ionization_Penalty>
3.37178

> <r_epik_Ionization_Penalty_Charging>
3.23409

> <r_epik_Ionization_Penalty_Neutral>
0.137695

> <r_epik_State_Penalty>
3.23156

> <r_epik_Charging_Adjusted_Penalty>
6.46564

> <i_epik_Tot_Q>
-1

> <i_epik_Tot_abs_Q>
1

> <r_epik_Metal_State_Penalty>
0.474775

> <b_epik_Metal_Only>
1

> <s_lp_Force_Field>
OPLS_2005

> <r_lp_Energy>
19.6793

> <b_lp_Chiralities_Consistent>
1

> <s_lp_Variant>
AV-unprocessed.smi:1212-2

> <Gold.Version>
5.8.1

> <Gold.Id.Protein>
6NUR|6NUR_protein|mol2

> <Gold.PLP.Fitness>
38.9351

> <Gold.PLP.PLP>
-33.1168

> <Gold.PLP.part.hbond>
-4.8811

> <Gold.PLP.part.metal>
0.0000

> <Gold.PLP.part.buried>
-4.4126

> <Gold.PLP.part.nonpolar>
-23.5594

> <Gold.PLP.part.repulsive>
0.0392

> <Gold.PLP.ligand.clash>
0.0000

> <Gold.PLP.ligand.torsion>
0.9586

> <Gold.PLP.Chemscore.Hbond>
2.5434

> <Gold.PLP.Chemscore.CHOScore>
0.0000

> <Gold.PLP.Chemscore.Metal>
0.0000

> <Gold.Chemscore.Hbonds>
donor molecule, donor type, donor heavy atom, donor atom, acceptor molecule, acceptor atom, score
      P1  H  6931  6943       L1    19  0.74
      P1  H  6934  6947       L1    19  0.96
      P1  H 11000 11005       L1     8  0.76

> <Gold.PLP.Chemscore.Internal.Correction>
0.1050

> <Gold.Rescore>
     Score         DG    S(hbond)    S(metal)    S(lipo)     H(rot)  DE(clash)    DE(int)     intcor
     15.93     -16.95       2.59        0.00      59.62       1.63       0.03       0.99       ----

> <Gold.Chemscore.Fitness>
15.9277

> <Gold.Chemscore.DG>
-16.9469

> <Gold.Chemscore.ZeroCoef>
-5.4800

> <Gold.Chemscore.Hbond>
2.5905

> <Gold.Chemscore.Metal>
0.0000

> <Gold.Chemscore.Lipo>
59.6243

> <Gold.Chemscore.Internal_Hbond>
0.0000

> <Gold.Chemscore.DEClash>
0.0255

> <Gold.Chemscore.DEInternal>
0.9937

> <Gold.Chemscore.Rot>
1.6255

> <Gold.Chemscore.Internal.Correction>
   9.000000E+99

> <Gold.Chemscore.Hbonds>
donor molecule, donor type, donor heavy atom, donor atom, acceptor molecule, acceptor atom, score
      P1  H  6931  6943       L1    19  0.69
      P1  H  6934  6947       L1    19  0.92
      P1  H 11000 11005       L1     8  0.76

> <Gold.Chemscore.Hbond.Weighted>
-8.6521

> <Gold.Chemscore.Metal.Weighted>
-0.0000

> <Gold.Chemscore.Lipo.Weighted>
-6.9760

> <Gold.Chemscore.Internal_Hbond.Weighted>
0.0000

> <Gold.Chemscore.DEClash.Weighted>
0.0255

> <Gold.Chemscore.DEInternal.Weighted>
0.9937

> <Gold.Chemscore.Rot.Weighted>
4.1613

> <Gold.Chemscore.Internal.Correction.Weighted>
   9.000000E+99

> <Gold.Protein.RotatedTorsions>
[ 6907 6896 6895 6894 ] final  152.56 input  -60.11 | X-H torsion
[ 7974 7965 7964 7962 ] final  140.90 input  175.53 | X-H torsion
[ 8008 7997 7996 7995 ] final   24.83 input   59.86 | X-H torsion
[ 10167 10162 10161 10158 ] final -144.05 input  -65.29 | X-H torsion
[ 10718 10713 10712 10709 ] final  152.50 input   66.30 | X-H torsion
[ 10763 10752 10751 10750 ] final -174.95 input  -60.55 | X-H torsion
[ 11005 11000 10999 10996 ] final  169.06 input  -57.11 | X-H torsion

> <Gold.Protein.ActiveResidues>
 VAL166  LYS551  ARG553  GLY616  TRP617  ASP618  TYR619  PRO620  LYS621  CYS622 
 ASP623  PHE694  ASN695  SER759  ASP760  ASP761  ALA762  ILE779  LEU786  VAL792 
 PHE793  MET794  SER795  GLU796  ALA797  LYS798  CYS799  TRP800  GLU811  SER814 

> <Gold.Protein.RotatedAtoms>
  152.0850  133.4172  159.4517 H   0  0  0  0  0  0  0  0  0  0  0  0  # atno 6907 bound_to 6896
  150.6862  134.2938  159.4687 H   0  0  0  0  0  0  0  0  0  0  0  0  # atno 6908 bound_to 6896
  152.0783  134.9487  160.0624 H   0  0  0  0  0  0  0  0  0  0  0  0  # atno 6909 bound_to 6896
  144.9144  139.5250  143.5693 H   0  0  0  0  0  0  0  0  0  0  0  0  # atno 7974 bound_to 7965
  155.0023  140.3127  155.4862 H   0  0  0  0  0  0  0  0  0  0  0  0  # atno 8008 bound_to 7997
  156.2923  140.2229  156.5075 H   0  0  0  0  0  0  0  0  0  0  0  0  # atno 8009 bound_to 7997
  154.7607  140.0459  157.0959 H   0  0  0  0  0  0  0  0  0  0  0  0  # atno 8010 bound_to 7997
  139.7935  143.7933  152.2652 H   0  0  0  0  0  0  0  0  0  0  0  0  # atno 10167 bound_to 10162
  157.2570  131.0790  151.1692 H   0  0  0  0  0  0  0  0  0  0  0  0  # atno 10718 bound_to 10713
  154.5902  135.2844  155.0644 H   0  0  0  0  0  0  0  0  0  0  0  0  # atno 10763 bound_to 10752
  154.1947  135.6434  153.5074 H   0  0  0  0  0  0  0  0  0  0  0  0  # atno 10764 bound_to 10752
  153.0118  135.5454  154.6585 H   0  0  0  0  0  0  0  0  0  0  0  0  # atno 10765 bound_to 10752
  140.2938  134.7652  157.3860 H   0  0  0  0  0  0  0  0  0  0  0  0  # atno 11005 bound_to 11000
  146.3174  139.7976  142.8972 LP  0  0  0  0  0  0  0  0  0  0  0  0  # atno 17320 bound_to 7965
  145.3400  141.0285  143.3398 LP  0  0  0  0  0  0  0  0  0  0  0  0  # atno 17321 bound_to 7965
  139.8031  144.7366  150.9797 LP  0  0  0  0  0  0  0  0  0  0  0  0  # atno 17342 bound_to 10162
  140.7820  143.4325  151.0673 LP  0  0  0  0  0  0  0  0  0  0  0  0  # atno 17343 bound_to 10162
  157.3217  130.6940  149.6273 LP  0  0  0  0  0  0  0  0  0  0  0  0  # atno 17370 bound_to 10713
  155.9665  130.4333  150.5002 LP  0  0  0  0  0  0  0  0  0  0  0  0  # atno 17371 bound_to 10713
  140.1171  134.5268  155.8215 LP  0  0  0  0  0  0  0  0  0  0  0  0  # atno 17394 bound_to 11000
  141.2141  133.6744  156.6798 LP  0  0  0  0  0  0  0  0  0  0  0  0  # atno 17395 bound_to 11000

$$$$
