AV-unprocessed.smi:1115|AV-procd|sdf|4806|dock3
  -GOLD-   22720 3353D 1   1.00000     0.00000
 Structure written by MMmdl.
 51 52  0  0  0  0  0  0  0  0  4 V2000
  150.4012  144.5384  159.7753 C   0  0  0  0  0  0  0  0  0  0  0  0
  151.2234  144.1657  158.6318 N   0  0  0  0  0  0  0  0  0  0  0  0
  152.0815  145.1557  157.9910 C   0  0  0  0  0  0  0  0  0  0  0  0
  151.0680  142.8908  158.0457 C   0  0  0  0  0  0  0  0  0  0  0  0
  151.7209  141.7305  158.5293 C   0  0  0  0  0  0  0  0  0  0  0  0
  151.5136  140.4910  157.8900 C   0  0  0  0  0  0  0  0  0  0  0  0
  150.6655  140.4138  156.7666 C   0  0  0  0  0  0  0  0  0  0  0  0
  150.4692  139.1382  156.1714 N   0  0  0  0  0  0  0  0  0  0  0  0
  150.1374  138.8320  154.9042 C   0  0  0  0  0  0  0  0  0  0  0  0
  150.0027  139.7244  154.0598 O   0  0  0  0  0  0  0  0  0  0  0  0
  150.0071  137.4911  154.7209 N   0  5  0  0  0  0  0  0  0  0  0  0
  149.1682  136.6181  155.5498 C   0  0  0  0  0  0  0  0  0  0  0  0
  149.4665  135.1049  155.2582 C   0  0  0  0  0  0  0  0  0  0  0  0
  150.9715  134.9091  154.9217 C   0  0  0  0  0  0  0  0  0  0  0  0
  149.2180  134.2912  156.5669 C   0  0  0  0  0  0  0  0  0  0  0  0
  148.5898  134.6383  154.1123 N   0  3  0  0  0  0  0  0  0  0  0  0
  148.9088  133.2959  153.5364 C   0  0  0  0  0  0  0  0  0  0  0  0
  148.1248  133.0672  152.2366 C   0  0  0  0  0  0  0  0  0  0  0  0
  146.7340  133.1497  152.5120 O   0  0  0  0  0  0  0  0  0  0  0  0
  146.3720  134.4366  152.9916 C   0  0  0  0  0  0  0  0  0  0  0  0
  147.1154  134.7483  154.3028 C   0  0  0  0  0  0  0  0  0  0  0  0
  150.0262  141.5972  156.3284 C   0  0  0  0  0  0  0  0  0  0  0  0
  150.2526  142.7638  156.9702 N   0  3  0  0  0  0  0  0  0  0  0  0
  149.3423  144.4463  159.5331 H   0  0  0  0  0  0  0  0  0  0  0  0
  150.5852  145.5697  160.0769 H   0  0  0  0  0  0  0  0  0  0  0  0
  150.6210  143.8977  160.6295 H   0  0  0  0  0  0  0  0  0  0  0  0
  151.7055  145.4020  156.9977 H   0  0  0  0  0  0  0  0  0  0  0  0
  153.0989  144.7762  157.8937 H   0  0  0  0  0  0  0  0  0  0  0  0
  152.1256  146.0773  158.5716 H   0  0  0  0  0  0  0  0  0  0  0  0
  152.3801  141.7684  159.3834 H   0  0  0  0  0  0  0  0  0  0  0  0
  152.0097  139.6057  158.2605 H   0  0  0  0  0  0  0  0  0  0  0  0
  150.6568  138.3469  156.7693 H   0  0  0  0  0  0  0  0  0  0  0  0
  149.3374  136.8109  156.6097 H   0  0  0  0  0  0  0  0  0  0  0  0
  148.1068  136.8119  155.3905 H   0  0  0  0  0  0  0  0  0  0  0  0
  151.6158  135.1528  155.7691 H   0  0  0  0  0  0  0  0  0  0  0  0
  151.3160  135.5174  154.0831 H   0  0  0  0  0  0  0  0  0  0  0  0
  151.1779  133.8692  154.6663 H   0  0  0  0  0  0  0  0  0  0  0  0
  149.8096  134.6600  157.4081 H   0  0  0  0  0  0  0  0  0  0  0  0
  149.5088  133.2467  156.4490 H   0  0  0  0  0  0  0  0  0  0  0  0
  148.1732  134.3003  156.8846 H   0  0  0  0  0  0  0  0  0  0  0  0
  149.9725  133.1958  153.3215 H   0  0  0  0  0  0  0  0  0  0  0  0
  148.6516  132.5107  154.2485 H   0  0  0  0  0  0  0  0  0  0  0  0
  148.4087  133.7939  151.4735 H   0  0  0  0  0  0  0  0  0  0  0  0
  148.3454  132.0781  151.8345 H   0  0  0  0  0  0  0  0  0  0  0  0
  146.5914  135.1914  152.2348 H   0  0  0  0  0  0  0  0  0  0  0  0
  145.2950  134.4598  153.1576 H   0  0  0  0  0  0  0  0  0  0  0  0
  146.7947  134.0690  155.0937 H   0  0  0  0  0  0  0  0  0  0  0  0
  146.8210  135.7547  154.5954 H   0  0  0  0  0  0  0  0  0  0  0  0
  149.3340  141.6599  155.5024 H   0  0  0  0  0  0  0  0  0  0  0  0
  149.7769  143.5977  156.6258 H   0  0  0  0  0  0  0  0  0  0  0  0
  148.8023  135.3042  153.3816 H   0  0  0  0  0  0  0  0  0  0  0  0
  1  2  1  0  0  0  0
  1 24  1  0  0  0  0
  1 25  1  0  0  0  0
  1 26  1  0  0  0  0
  2  3  1  0  0  0  0
  2  4  1  0  0  0  0
  3 27  1  0  0  0  0
  3 28  1  0  0  0  0
  3 29  1  0  0  0  0
  4 23  1  0  0  0  0
  4  5  2  0  0  0  0
  5  6  1  0  0  0  0
  5 30  1  0  0  0  0
  6  7  2  0  0  0  0
  6 31  1  0  0  0  0
  7  8  1  0  0  0  0
  7 22  1  0  0  0  0
  8  9  1  0  0  0  0
  8 32  1  0  0  0  0
  9 10  2  0  0  0  0
  9 11  1  0  0  0  0
 11 12  1  0  0  0  0
 12 13  1  0  0  0  0
 12 33  1  0  0  0  0
 12 34  1  0  0  0  0
 13 14  1  0  0  0  0
 13 15  1  0  0  0  0
 13 16  1  0  0  0  0
 14 35  1  0  0  0  0
 14 36  1  0  0  0  0
 14 37  1  0  0  0  0
 15 38  1  0  0  0  0
 15 39  1  0  0  0  0
 15 40  1  0  0  0  0
 16 21  1  0  0  0  0
 16 17  1  0  0  0  0
 16 51  1  0  0  0  0
 17 18  1  0  0  0  0
 17 41  1  0  0  0  0
 17 42  1  0  0  0  0
 18 19  1  0  0  0  0
 18 43  1  0  0  0  0
 18 44  1  0  0  0  0
 19 20  1  0  0  0  0
 20 21  1  0  0  0  0
 20 45  1  0  0  0  0
 20 46  1  0  0  0  0
 21 47  1  0  0  0  0
 21 48  1  0  0  0  0
 22 23  2  0  0  0  0
 22 49  1  0  0  0  0
 23 50  1  0  0  0  0
M  CHG  1  11  -1
M  CHG  1  16   1
M  CHG  1  23   1
M  END
> <s_m_source_file>
AV-unprocessed.smi

> <i_m_source_file_index>
1115

> <i_lp_mmshare_version>
43012

> <i_f3d_flags>
0

> <s_epik_input>
W0NIM11OKFtDSDNdKWMxW2NIXVtjSF1jKFtjSF1uMSlbTkhdQyg9TylbTkhdW0NIMl1DKFtDSDNdKShbQ0gzXSlOMltDSDJdW0NIMl1PW0NIMl1bQ0gyXTI=

> <s_epik_cmdline>
J2VwaWtfcHl0aG9uJywgJy1waCcsICc3LjAnLCAnLXRuJywgJzgnLCAnLW1hJywgJzIwMCcsICctbWV0YWxfYmluZGluZycsICctaW1hZScsICc8aW5maWxlLm1hZT4nLCAnLW9tYWUnLCAnPG91dGZpbGUubWFlPic=

> <r_lp_tautomer_probability>
0.999994

> <r_epik_Ionization_Penalty>
7.4335

> <r_epik_Ionization_Penalty_Charging>
7.4335

> <r_epik_Ionization_Penalty_Neutral>
3.43851e-06

> <r_epik_State_Penalty>
7.6346

> <r_epik_Charging_Adjusted_Penalty>
15.0681

> <i_epik_Tot_Q>
1

> <i_epik_Tot_abs_Q>
3

> <r_epik_Metal_State_Penalty>
3.83601

> <b_epik_Metal_Only>
1

> <s_lp_Force_Field>
OPLS_2005

> <r_lp_Energy>
31.3993

> <b_lp_Chiralities_Consistent>
1

> <s_lp_Variant>
AV-unprocessed.smi:1115-5

> <Gold.Version>
5.8.1

> <Gold.Id.Protein>
6NUR|6NUR_protein|mol2

> <Gold.PLP.Fitness>
47.2526

> <Gold.PLP.PLP>
-37.4551

> <Gold.PLP.part.hbond>
-3.0000

> <Gold.PLP.part.metal>
0.0000

> <Gold.PLP.part.buried>
-6.0742

> <Gold.PLP.part.nonpolar>
-30.0536

> <Gold.PLP.part.repulsive>
1.1230

> <Gold.PLP.ligand.clash>
0.0000

> <Gold.PLP.ligand.torsion>
2.7386

> <Gold.PLP.Chemscore.Hbond>
5.0000

> <Gold.PLP.Chemscore.CHOScore>
0.0000

> <Gold.PLP.Chemscore.Metal>
0.0000

> <Gold.Chemscore.Hbonds>
donor molecule, donor type, donor heavy atom, donor atom, acceptor molecule, acceptor atom, score
      L1  H    16    51       P1  7948  2.00
      L1  H    23    50       P1  8028  2.00
      P1  H  7989  7998       L1    10  0.92

> <Gold.PLP.Chemscore.Internal.Correction>
0.2747

> <Gold.Rescore>
     Score         DG    S(hbond)    S(metal)    S(lipo)     H(rot)  DE(clash)    DE(int)     intcor
     16.45     -20.42       2.91        0.00      76.73       1.46       0.34       3.63       ----

> <Gold.Chemscore.Fitness>
16.4468

> <Gold.Chemscore.DG>
-20.4219

> <Gold.Chemscore.ZeroCoef>
-5.4800

> <Gold.Chemscore.Hbond>
2.9087

> <Gold.Chemscore.Metal>
0.0000

> <Gold.Chemscore.Lipo>
76.7261

> <Gold.Chemscore.Internal_Hbond>
0.0000

> <Gold.Chemscore.DEClash>
0.3444

> <Gold.Chemscore.DEInternal>
3.6307

> <Gold.Chemscore.Rot>
1.4648

> <Gold.Chemscore.Internal.Correction>
   9.000000E+99

> <Gold.Chemscore.Hbonds>
donor molecule, donor type, donor heavy atom, donor atom, acceptor molecule, acceptor atom, score
      L1  H    16    51       P1  7948  0.74
      L1  H    23    50       P1  8028  1.00
      P1  H  7989  7998       L1    10  0.82

> <Gold.Chemscore.Hbond.Weighted>
-9.7149

> <Gold.Chemscore.Metal.Weighted>
-0.0000

> <Gold.Chemscore.Lipo.Weighted>
-8.9770

> <Gold.Chemscore.Internal_Hbond.Weighted>
0.0000

> <Gold.Chemscore.DEClash.Weighted>
0.3444

> <Gold.Chemscore.DEInternal.Weighted>
3.6307

> <Gold.Chemscore.Rot.Weighted>
3.7499

> <Gold.Chemscore.Internal.Correction.Weighted>
   9.000000E+99

> <Gold.Protein.RotatedTorsions>
[ 6907 6896 6895 6894 ] final   74.66 input  -60.11 | X-H torsion
[ 7974 7965 7964 7962 ] final  -55.01 input  175.53 | X-H torsion
[ 8008 7997 7996 7995 ] final  -91.63 input   59.86 | X-H torsion
[ 10167 10162 10161 10158 ] final    8.95 input  -65.29 | X-H torsion
[ 10718 10713 10712 10709 ] final  -79.20 input   66.30 | X-H torsion
[ 10763 10752 10751 10750 ] final  -33.48 input  -60.55 | X-H torsion
[ 11005 11000 10999 10996 ] final   69.15 input  -57.11 | X-H torsion

> <Gold.Protein.ActiveResidues>
 VAL166  LYS551  ARG553  GLY616  TRP617  ASP618  TYR619  PRO620  LYS621  CYS622 
 ASP623  PHE694  ASN695  SER759  ASP760  ASP761  ALA762  ILE779  LEU786  VAL792 
 PHE793  MET794  SER795  GLU796  ALA797  LYS798  CYS799  TRP800  GLU811  SER814 

> <Gold.Protein.RotatedAtoms>
  152.4987  134.4238  159.9489 H   0  0  0  0  0  0  0  0  0  0  0  0  # atno 6907 bound_to 6896
  151.4212  133.3691  159.2764 H   0  0  0  0  0  0  0  0  0  0  0  0  # atno 6908 bound_to 6896
  150.9221  134.8661  159.7555 H   0  0  0  0  0  0  0  0  0  0  0  0  # atno 6909 bound_to 6896
  145.8791  140.8158  142.9849 H   0  0  0  0  0  0  0  0  0  0  0  0  # atno 7974 bound_to 7965
  154.7131  140.0517  157.0569 H   0  0  0  0  0  0  0  0  0  0  0  0  # atno 8008 bound_to 7997
  155.0527  140.3181  155.4667 H   0  0  0  0  0  0  0  0  0  0  0  0  # atno 8009 bound_to 7997
  156.2795  140.2113  156.5653 H   0  0  0  0  0  0  0  0  0  0  0  0  # atno 8010 bound_to 7997
  140.6284  143.8049  150.7263 H   0  0  0  0  0  0  0  0  0  0  0  0  # atno 10167 bound_to 10162
  156.0098  130.4539  150.3612 H   0  0  0  0  0  0  0  0  0  0  0  0  # atno 10718 bound_to 10713
  153.8309  135.6866  153.4815 H   0  0  0  0  0  0  0  0  0  0  0  0  # atno 10763 bound_to 10752
  153.1512  135.4617  154.9637 H   0  0  0  0  0  0  0  0  0  0  0  0  # atno 10764 bound_to 10752
  154.7887  135.3294  154.7772 H   0  0  0  0  0  0  0  0  0  0  0  0  # atno 10765 bound_to 10752
  139.9670  134.6964  156.0524 H   0  0  0  0  0  0  0  0  0  0  0  0  # atno 11005 bound_to 11000
  144.6727  140.1355  143.7441 LP  0  0  0  0  0  0  0  0  0  0  0  0  # atno 17320 bound_to 7965
  145.9046  139.2450  143.1473 LP  0  0  0  0  0  0  0  0  0  0  0  0  # atno 17321 bound_to 7965
  140.1655  143.4239  152.2037 LP  0  0  0  0  0  0  0  0  0  0  0  0  # atno 17342 bound_to 10162
  139.5501  144.7331  151.4461 LP  0  0  0  0  0  0  0  0  0  0  0  0  # atno 17343 bound_to 10162
  157.1700  131.0366  151.2800 LP  0  0  0  0  0  0  0  0  0  0  0  0  # atno 17370 bound_to 10713
  157.4237  130.7451  149.6933 LP  0  0  0  0  0  0  0  0  0  0  0  0  # atno 17371 bound_to 10713
  141.1350  133.6577  156.3569 LP  0  0  0  0  0  0  0  0  0  0  0  0  # atno 17394 bound_to 11000
  140.5374  134.6153  157.5369 LP  0  0  0  0  0  0  0  0  0  0  0  0  # atno 17395 bound_to 11000

$$$$
