AV-unprocessed.smi:3018|AV-procd|sdf|11480|dock4
  -GOLD-   2272016413D 1   1.00000     0.00000
 Structure written by MMmdl.
 45 46  0  0  0  0  0  0  0  0  1 V2000
  148.9723  140.1652  157.7617 C   0  0  0  0  0  0  0  0  0  0  0  0
  149.4890  141.1909  156.7386 C   0  0  0  0  0  0  0  0  0  0  0  0
  151.0031  141.1369  156.4402 C   0  0  1  0  0  0  0  0  0  0  0  0
  151.7035  141.2287  157.6835 O   0  0  0  0  0  0  0  0  0  0  0  0
  151.4154  142.3362  158.5392 C   0  0  0  0  0  0  0  0  0  0  0  0
  151.6615  143.6117  157.7146 C   0  0  0  0  0  0  0  0  0  0  0  0
  151.4487  144.8809  158.5548 C   0  0  0  0  0  0  0  0  0  0  0  0
  152.3254  144.8665  159.8163 C   0  0  0  0  0  0  0  0  0  0  0  0
  152.0855  143.5949  160.6449 C   0  0  0  0  0  0  0  0  0  0  0  0
  152.3017  142.3275  159.8021 C   0  0  0  0  0  0  0  0  0  0  0  0
  151.4222  139.8750  155.6651 C   0  0  0  0  0  0  0  0  0  0  0  0
  152.5968  139.7034  155.3386 O   0  0  0  0  0  0  0  0  0  0  0  0
  150.4319  139.0365  155.3221 N   0  0  0  0  0  0  0  0  0  0  0  0
  150.5706  137.8622  154.4642 C   0  0  0  0  0  0  0  0  0  0  0  0
  150.2903  136.5557  155.2376 C   0  0  0  0  0  0  0  0  0  0  0  0
  148.8279  136.2956  155.5755 C   0  0  0  0  0  0  0  0  0  0  0  0
  148.2856  136.2311  156.7407 N   0  0  0  0  0  0  0  0  0  0  0  0
  146.9886  136.0036  156.4171 N   0  0  0  0  0  0  0  0  0  0  0  0
  146.7504  135.9403  155.1018 C   0  0  0  0  0  0  0  0  0  0  0  0
  145.6724  135.7646  154.5396 O   0  0  0  0  0  0  0  0  0  0  0  0
  147.9402  136.1191  154.5428 N   0  0  0  0  0  0  0  0  0  0  0  0
  146.3051  135.9113  157.1549 H   0  0  0  0  0  0  0  0  0  0  0  0
  148.1565  136.1498  153.5570 H   0  0  0  0  0  0  0  0  0  0  0  0
  147.9186  140.3404  157.9794 H   0  0  0  0  0  0  0  0  0  0  0  0
  149.5181  140.2326  158.7032 H   0  0  0  0  0  0  0  0  0  0  0  0
  149.0587  139.1436  157.3930 H   0  0  0  0  0  0  0  0  0  0  0  0
  148.9327  141.0732  155.8077 H   0  0  0  0  0  0  0  0  0  0  0  0
  149.2469  142.1903  157.1013 H   0  0  0  0  0  0  0  0  0  0  0  0
  151.2394  142.0135  155.8368 H   0  0  0  0  0  0  0  0  0  0  0  0
  150.3685  142.3360  158.8384 H   0  0  0  0  0  0  0  0  0  0  0  0
  152.6787  143.6037  157.3207 H   0  0  0  0  0  0  0  0  0  0  0  0
  150.9958  143.6272  156.8510 H   0  0  0  0  0  0  0  0  0  0  0  0
  151.6729  145.7643  157.9565 H   0  0  0  0  0  0  0  0  0  0  0  0
  150.3994  144.9606  158.8391 H   0  0  0  0  0  0  0  0  0  0  0  0
  153.3765  144.9234  159.5309 H   0  0  0  0  0  0  0  0  0  0  0  0
  152.1203  145.7498  160.4216 H   0  0  0  0  0  0  0  0  0  0  0  0
  152.7498  143.5836  161.5092 H   0  0  0  0  0  0  0  0  0  0  0  0
  151.0684  143.6023  161.0380 H   0  0  0  0  0  0  0  0  0  0  0  0
  152.0858  141.4559  160.4190 H   0  0  0  0  0  0  0  0  0  0  0  0
  153.3510  142.2539  159.5138 H   0  0  0  0  0  0  0  0  0  0  0  0
  149.4978  139.2630  155.6323 H   0  0  0  0  0  0  0  0  0  0  0  0
  149.9436  137.9294  153.5736 H   0  0  0  0  0  0  0  0  0  0  0  0
  151.5982  137.8455  154.1007 H   0  0  0  0  0  0  0  0  0  0  0  0
  150.6614  135.7073  154.6622 H   0  0  0  0  0  0  0  0  0  0  0  0
  150.8640  136.5623  156.1655 H   0  0  0  0  0  0  0  0  0  0  0  0
  1  2  1  0  0  0  0
  1 24  1  0  0  0  0
  1 25  1  0  0  0  0
  1 26  1  0  0  0  0
  2  3  1  0  0  0  0
  2 27  1  0  0  0  0
  2 28  1  0  0  0  0
  3  4  1  0  0  0  0
  3 11  1  0  0  0  0
  3 29  1  0  0  0  0
  4  5  1  0  0  0  0
  5 10  1  0  0  0  0
  5  6  1  0  0  0  0
  5 30  1  0  0  0  0
  6  7  1  0  0  0  0
  6 31  1  0  0  0  0
  6 32  1  0  0  0  0
  7  8  1  0  0  0  0
  7 33  1  0  0  0  0
  7 34  1  0  0  0  0
  8  9  1  0  0  0  0
  8 35  1  0  0  0  0
  8 36  1  0  0  0  0
  9 10  1  0  0  0  0
  9 37  1  0  0  0  0
  9 38  1  0  0  0  0
 10 39  1  0  0  0  0
 10 40  1  0  0  0  0
 11 12  2  0  0  0  0
 11 13  1  0  0  0  0
 13 14  1  0  0  0  0
 13 41  1  0  0  0  0
 14 15  1  0  0  0  0
 14 42  1  0  0  0  0
 14 43  1  0  0  0  0
 15 16  1  0  0  0  0
 15 44  1  0  0  0  0
 15 45  1  0  0  0  0
 16 21  1  0  0  0  0
 16 17  2  0  0  0  0
 17 18  1  0  0  0  0
 18 22  1  0  0  0  0
 18 19  1  0  0  0  0
 19 20  2  0  0  0  0
 19 21  1  0  0  0  0
 21 23  1  0  0  0  0
M  END
> <s_m_source_file>
AV-unprocessed.smi

> <i_m_source_file_index>
3018

> <i_lp_mmshare_version>
43012

> <i_f3d_flags>
0

> <s_epik_input>
W0NIMl0xW0NIMl1bQ0gyXVtDSDJdW0NIMl1bQ0hdMU9bQ0BASF0oW0NIMl1bQ0gzXSlDKD1PKVtOSF1bQ0gyXVtDSDJdYzJuW25IXWMoPU8pW25IXTI=

> <s_epik_cmdline>
J2VwaWtfcHl0aG9uJywgJy1waCcsICc3LjAnLCAnLXRuJywgJzgnLCAnLW1hJywgJzIwMCcsICctbWV0YWxfYmluZGluZycsICctaW1hZScsICc8aW5maWxlLm1hZT4nLCAnLW9tYWUnLCAnPG91dGZpbGUubWFlPic=

> <r_lp_tautomer_probability>
1

> <r_epik_Ionization_Penalty>
0.000773817

> <r_epik_Ionization_Penalty_Charging>
0.000773741

> <r_epik_Ionization_Penalty_Neutral>
7.58514e-08

> <r_epik_State_Penalty>
-0

> <r_epik_Charging_Adjusted_Penalty>
0.000773741

> <i_epik_Tot_Q>
0

> <i_epik_Tot_abs_Q>
0

> <r_epik_Metal_State_Penalty>
0.495152

> <b_epik_Metal_Only>
0

> <s_lp_Force_Field>
OPLS_2005

> <r_lp_Energy>
29.5576

> <b_lp_Chiralities_Consistent>
1

> <s_lp_Variant>
AV-unprocessed.smi:3018-2

> <Gold.Version>
5.8.1

> <Gold.Id.Protein>
6NUR|6NUR_protein|mol2

> <Gold.PLP.Fitness>
42.8242

> <Gold.PLP.PLP>
-37.0871

> <Gold.PLP.part.hbond>
-3.0000

> <Gold.PLP.part.metal>
0.0000

> <Gold.PLP.part.buried>
-3.4943

> <Gold.PLP.part.nonpolar>
-30.4580

> <Gold.PLP.part.repulsive>
0.1491

> <Gold.PLP.ligand.clash>
0.1700

> <Gold.PLP.ligand.torsion>
0.1271

> <Gold.PLP.Chemscore.Hbond>
2.0000

> <Gold.PLP.Chemscore.CHOScore>
0.0000

> <Gold.PLP.Chemscore.Metal>
0.0000

> <Gold.Chemscore.Hbonds>
donor molecule, donor type, donor heavy atom, donor atom, acceptor molecule, acceptor atom, score
      L1  H    21    23       P1  7948  1.00
      P1  H  7997  8008       L1    12  1.00

> <Gold.PLP.Chemscore.Internal.Correction>
0.1614

> <Gold.Rescore>
     Score         DG    S(hbond)    S(metal)    S(lipo)     H(rot)  DE(clash)    DE(int)     intcor
     15.44     -15.74       2.00        0.00      97.05       3.04       0.15       0.14       ----

> <Gold.Chemscore.Fitness>
15.4380

> <Gold.Chemscore.DG>
-15.7362

> <Gold.Chemscore.ZeroCoef>
-5.4800

> <Gold.Chemscore.Hbond>
1.9986

> <Gold.Chemscore.Metal>
0.0000

> <Gold.Chemscore.Lipo>
97.0511

> <Gold.Chemscore.Internal_Hbond>
0.0000

> <Gold.Chemscore.DEClash>
0.1550

> <Gold.Chemscore.DEInternal>
0.1433

> <Gold.Chemscore.Rot>
3.0367

> <Gold.Chemscore.Internal.Correction>
   9.000000E+99

> <Gold.Chemscore.Hbonds>
donor molecule, donor type, donor heavy atom, donor atom, acceptor molecule, acceptor atom, score
      L1  H    21    23       P1  7948  1.00
      P1  H  7997  8008       L1    12  0.93

> <Gold.Chemscore.Hbond.Weighted>
-6.6752

> <Gold.Chemscore.Metal.Weighted>
-0.0000

> <Gold.Chemscore.Lipo.Weighted>
-11.3550

> <Gold.Chemscore.Internal_Hbond.Weighted>
0.0000

> <Gold.Chemscore.DEClash.Weighted>
0.1550

> <Gold.Chemscore.DEInternal.Weighted>
0.1433

> <Gold.Chemscore.Rot.Weighted>
7.7739

> <Gold.Chemscore.Internal.Correction.Weighted>
   9.000000E+99

> <Gold.Protein.RotatedTorsions>
[ 6907 6896 6895 6894 ] final   86.26 input  -60.11 | X-H torsion
[ 7974 7965 7964 7962 ] final  145.47 input  175.53 | X-H torsion
[ 8008 7997 7996 7995 ] final  -10.04 input   59.86 | X-H torsion
[ 10167 10162 10161 10158 ] final   45.05 input  -65.29 | X-H torsion
[ 10718 10713 10712 10709 ] final -149.64 input   66.30 | X-H torsion
[ 10763 10752 10751 10750 ] final   78.89 input  -60.55 | X-H torsion
[ 11005 11000 10999 10996 ] final   99.42 input  -57.11 | X-H torsion

> <Gold.Protein.ActiveResidues>
 VAL166  LYS551  ARG553  GLY616  TRP617  ASP618  TYR619  PRO620  LYS621  CYS622 
 ASP623  PHE694  ASN695  SER759  ASP760  ASP761  ALA762  ILE779  LEU786  VAL792 
 PHE793  MET794  SER795  GLU796  ALA797  LYS798  CYS799  TRP800  GLU811  SER814 

> <Gold.Protein.RotatedAtoms>
  152.5391  134.2459  159.8879 H   0  0  0  0  0  0  0  0  0  0  0  0  # atno 6907 bound_to 6896
  151.2424  133.4386  159.2615 H   0  0  0  0  0  0  0  0  0  0  0  0  # atno 6908 bound_to 6896
  151.0614  134.9753  159.8318 H   0  0  0  0  0  0  0  0  0  0  0  0  # atno 6909 bound_to 6896
  144.8750  139.5787  143.5869 H   0  0  0  0  0  0  0  0  0  0  0  0  # atno 7974 bound_to 7965
  154.5591  140.2339  155.8364 H   0  0  0  0  0  0  0  0  0  0  0  0  # atno 8008 bound_to 7997
  156.2014  140.3051  155.9494 H   0  0  0  0  0  0  0  0  0  0  0  0  # atno 8009 bound_to 7997
  155.2923  140.0427  157.3014 H   0  0  0  0  0  0  0  0  0  0  0  0  # atno 8010 bound_to 7997
  140.3280  144.2623  150.6172 H   0  0  0  0  0  0  0  0  0  0  0  0  # atno 10167 bound_to 10162
  156.4358  130.8098  151.2326 H   0  0  0  0  0  0  0  0  0  0  0  0  # atno 10718 bound_to 10713
  153.0909  135.4860  154.8689 H   0  0  0  0  0  0  0  0  0  0  0  0  # atno 10763 bound_to 10752
  154.7268  135.3051  154.8959 H   0  0  0  0  0  0  0  0  0  0  0  0  # atno 10764 bound_to 10752
  153.9607  135.6812  153.4798 H   0  0  0  0  0  0  0  0  0  0  0  0  # atno 10765 bound_to 10752
  139.8771  134.9095  156.4604 H   0  0  0  0  0  0  0  0  0  0  0  0  # atno 11005 bound_to 11000
  146.2956  139.7269  142.9129 LP  0  0  0  0  0  0  0  0  0  0  0  0  # atno 17320 bound_to 7965
  145.4060  141.0391  143.3044 LP  0  0  0  0  0  0  0  0  0  0  0  0  # atno 17321 bound_to 7965
  140.5423  143.2221  151.8065 LP  0  0  0  0  0  0  0  0  0  0  0  0  # atno 17342 bound_to 10162
  139.4861  144.4584  151.9570 LP  0  0  0  0  0  0  0  0  0  0  0  0  # atno 17343 bound_to 10162
  157.7507  131.0184  150.3623 LP  0  0  0  0  0  0  0  0  0  0  0  0  # atno 17370 bound_to 10713
  156.3970  130.3908  149.6987 LP  0  0  0  0  0  0  0  0  0  0  0  0  # atno 17371 bound_to 10713
  140.8868  133.7877  155.9527 LP  0  0  0  0  0  0  0  0  0  0  0  0  # atno 17394 bound_to 11000
  140.8796  134.2628  157.5151 LP  0  0  0  0  0  0  0  0  0  0  0  0  # atno 17395 bound_to 11000

$$$$
