AV-unprocessed.smi:3241|AV-procd|sdf|12387|dock6
  -GOLD-   2272018253D 1   1.00000     0.00000
 Structure written by MMmdl.
 44 45  0  0  0  0  0  0  0  0  2 V2000
  145.5152  136.0185  151.4114 C   0  0  0  0  0  0  0  0  0  0  0  0
  145.2128  134.6026  150.8951 C   0  0  2  0  0  0  0  0  0  0  0  0
  143.9748  133.9926  151.5824 C   0  0  0  0  0  0  0  0  0  0  0  0
  143.6629  132.5898  151.0371 C   0  0  0  0  0  0  0  0  0  0  0  0
  144.8774  131.6576  151.1658 C   0  0  0  0  0  0  0  0  0  0  0  0
  146.1171  132.2589  150.4828 C   0  0  0  0  0  0  0  0  0  0  0  0
  146.4373  133.6693  151.0193 C   0  0  2  0  0  0  0  0  0  0  0  0
  146.8074  133.5913  152.3911 O   0  0  0  0  0  0  0  0  0  0  0  0
  147.8199  132.6386  152.6740 C   0  0  0  0  0  0  0  0  0  0  0  0
  148.8377  133.2818  153.6205 C   0  0  0  0  0  0  0  0  0  0  0  0
  148.4779  134.6857  153.8981 N   0  3  0  0  0  0  0  0  0  0  0  0
  149.0579  135.2296  155.1421 C   0  0  0  0  0  0  0  0  0  0  0  0
  150.5704  135.4681  155.0043 C   0  0  0  0  0  0  0  0  0  0  0  0
  150.9305  136.8632  155.1854 N   0  0  0  0  0  0  0  0  0  0  0  0
  150.4925  137.9617  154.4761 C   0  0  0  0  0  0  0  0  0  0  0  0
  151.1028  139.0597  155.0115 C   0  0  0  0  0  0  0  0  0  0  0  0
  151.9069  138.5251  156.0565 C   0  0  0  0  0  0  0  0  0  0  0  0
  151.7990  137.2103  156.1603 N   0  0  0  0  0  0  0  0  0  0  0  0
  145.7379  136.0172  152.4790 H   0  0  0  0  0  0  0  0  0  0  0  0
  144.6658  136.6831  151.2517 H   0  0  0  0  0  0  0  0  0  0  0  0
  146.3722  136.4500  150.8937 H   0  0  0  0  0  0  0  0  0  0  0  0
  144.9816  134.6962  149.8330 H   0  0  0  0  0  0  0  0  0  0  0  0
  144.1366  133.9379  152.6598 H   0  0  0  0  0  0  0  0  0  0  0  0
  143.1098  134.6403  151.4349 H   0  0  0  0  0  0  0  0  0  0  0  0
  142.8107  132.1657  151.5686 H   0  0  0  0  0  0  0  0  0  0  0  0
  143.3684  132.6629  149.9896 H   0  0  0  0  0  0  0  0  0  0  0  0
  145.0898  131.4775  152.2205 H   0  0  0  0  0  0  0  0  0  0  0  0
  144.6468  130.6859  150.7282 H   0  0  0  0  0  0  0  0  0  0  0  0
  146.9712  131.5945  150.6115 H   0  0  0  0  0  0  0  0  0  0  0  0
  145.9394  132.3164  149.4082 H   0  0  0  0  0  0  0  0  0  0  0  0
  147.2525  134.1005  150.4349 H   0  0  0  0  0  0  0  0  0  0  0  0
  147.3882  131.7525  153.1402 H   0  0  0  0  0  0  0  0  0  0  0  0
  148.3122  132.3205  151.7536 H   0  0  0  0  0  0  0  0  0  0  0  0
  148.8887  132.7239  154.5564 H   0  0  0  0  0  0  0  0  0  0  0  0
  149.8298  133.2482  153.1684 H   0  0  0  0  0  0  0  0  0  0  0  0
  148.7859  135.2602  153.1263 H   0  0  0  0  0  0  0  0  0  0  0  0
  148.5638  136.1725  155.3802 H   0  0  0  0  0  0  0  0  0  0  0  0
  148.8566  134.5453  155.9673 H   0  0  0  0  0  0  0  0  0  0  0  0
  151.1224  134.8603  155.7231 H   0  0  0  0  0  0  0  0  0  0  0  0
  150.9043  135.1569  154.0138 H   0  0  0  0  0  0  0  0  0  0  0  0
  149.7913  137.8726  153.6595 H   0  0  0  0  0  0  0  0  0  0  0  0
  150.9932  140.0889  154.7028 H   0  0  0  0  0  0  0  0  0  0  0  0
  152.5599  139.0493  156.7386 H   0  0  0  0  0  0  0  0  0  0  0  0
  147.4713  134.7475  153.9585 H   0  0  0  0  0  0  0  0  0  0  0  0
  1  2  1  0  0  0  0
  1 19  1  0  0  0  0
  1 20  1  0  0  0  0
  1 21  1  0  0  0  0
  2  7  1  0  0  0  0
  2  3  1  0  0  0  0
  2 22  1  0  0  0  0
  3  4  1  0  0  0  0
  3 23  1  0  0  0  0
  3 24  1  0  0  0  0
  4  5  1  0  0  0  0
  4 25  1  0  0  0  0
  4 26  1  0  0  0  0
  5  6  1  0  0  0  0
  5 27  1  0  0  0  0
  5 28  1  0  0  0  0
  6  7  1  0  0  0  0
  6 29  1  0  0  0  0
  6 30  1  0  0  0  0
  7  8  1  0  0  0  0
  7 31  1  0  0  0  0
  8  9  1  0  0  0  0
  9 10  1  0  0  0  0
  9 32  1  0  0  0  0
  9 33  1  0  0  0  0
 10 11  1  0  0  0  0
 10 34  1  0  0  0  0
 10 35  1  0  0  0  0
 11 12  1  0  0  0  0
 11 36  1  0  0  0  0
 11 44  1  0  0  0  0
 12 13  1  0  0  0  0
 12 37  1  0  0  0  0
 12 38  1  0  0  0  0
 13 14  1  0  0  0  0
 13 39  1  0  0  0  0
 13 40  1  0  0  0  0
 14 18  1  0  0  0  0
 14 15  1  0  0  0  0
 15 16  2  0  0  0  0
 15 41  1  0  0  0  0
 16 17  1  0  0  0  0
 16 42  1  0  0  0  0
 17 18  2  0  0  0  0
 17 43  1  0  0  0  0
M  CHG  1  11   1
M  END
> <s_m_source_file>
AV-unprocessed.smi

> <i_m_source_file_index>
3241

> <i_lp_mmshare_version>
43012

> <i_f3d_flags>
0

> <s_epik_input>
W0NIM11bQ0BASF0xW0NIMl1bQ0gyXVtDSDJdW0NIMl1bQ0BIXTFPW0NIMl1bQ0gyXVtOSF1bQ0gyXVtDSDJdbjJbY0hdW2NIXVtjSF1uMg==

> <s_epik_cmdline>
J2VwaWtfcHl0aG9uJywgJy1waCcsICc3LjAnLCAnLXRuJywgJzgnLCAnLW1hJywgJzIwMCcsICctbWV0YWxfYmluZGluZycsICctaW1hZScsICc8aW5maWxlLm1hZT4nLCAnLW9tYWUnLCAnPG91dGZpbGUubWFlPic=

> <r_lp_tautomer_probability>
1

> <r_epik_Ionization_Penalty>
0.00924946

> <r_epik_Ionization_Penalty_Charging>
0.00924645

> <r_epik_Ionization_Penalty_Neutral>
3.00629e-06

> <r_epik_State_Penalty>
0.0070118

> <r_epik_Charging_Adjusted_Penalty>
0.0162583

> <i_epik_Tot_Q>
1

> <i_epik_Tot_abs_Q>
1

> <r_epik_Metal_State_Penalty>
0.00702523

> <b_epik_Metal_Only>
0

> <s_lp_Force_Field>
OPLS_2005

> <r_lp_Energy>
14.6648

> <b_lp_Chiralities_Consistent>
1

> <s_lp_Variant>
AV-unprocessed.smi:3241-3

> <Gold.Version>
5.8.1

> <Gold.Id.Protein>
6NUR|6NUR_protein|mol2

> <Gold.PLP.Fitness>
45.0911

> <Gold.PLP.PLP>
-38.4361

> <Gold.PLP.part.hbond>
-1.5763

> <Gold.PLP.part.metal>
0.0000

> <Gold.PLP.part.buried>
-4.1232

> <Gold.PLP.part.nonpolar>
-33.7404

> <Gold.PLP.part.repulsive>
0.1390

> <Gold.PLP.ligand.clash>
0.0000

> <Gold.PLP.ligand.torsion>
1.2474

> <Gold.PLP.Chemscore.Hbond>
2.0000

> <Gold.PLP.Chemscore.CHOScore>
1.0016

> <Gold.PLP.Chemscore.Metal>
0.0000

> <Gold.Chemscore.Hbonds>
donor molecule, donor type, donor heavy atom, donor atom, acceptor molecule, acceptor atom, score
      L1  H    11    36       P1  7948  2.00
      L1  C    15    41       P1  7948  0.98

> <Gold.PLP.Chemscore.Internal.Correction>
0.1449

> <Gold.Rescore>
     Score         DG    S(hbond)    S(metal)    S(lipo)     H(rot)  DE(clash)    DE(int)     intcor
     13.83     -15.30       0.95        0.00      98.14       1.89       0.12       1.34       ----

> <Gold.Chemscore.Fitness>
13.8342

> <Gold.Chemscore.DG>
-15.2988

> <Gold.Chemscore.ZeroCoef>
-5.4800

> <Gold.Chemscore.Hbond>
0.9511

> <Gold.Chemscore.Metal>
0.0000

> <Gold.Chemscore.Lipo>
98.1379

> <Gold.Chemscore.Internal_Hbond>
0.0000

> <Gold.Chemscore.DEClash>
0.1219

> <Gold.Chemscore.DEInternal>
1.3428

> <Gold.Chemscore.Rot>
1.8906

> <Gold.Chemscore.Internal.Correction>
   9.000000E+99

> <Gold.Chemscore.Hbonds>
donor molecule, donor type, donor heavy atom, donor atom, acceptor molecule, acceptor atom, score
      L1  H    11    36       P1  7948  0.63

> <Gold.Chemscore.Hbond.Weighted>
-3.1767

> <Gold.Chemscore.Metal.Weighted>
-0.0000

> <Gold.Chemscore.Lipo.Weighted>
-11.4821

> <Gold.Chemscore.Internal_Hbond.Weighted>
0.0000

> <Gold.Chemscore.DEClash.Weighted>
0.1219

> <Gold.Chemscore.DEInternal.Weighted>
1.3428

> <Gold.Chemscore.Rot.Weighted>
4.8400

> <Gold.Chemscore.Internal.Correction.Weighted>
   9.000000E+99

> <Gold.Protein.RotatedTorsions>
[ 6907 6896 6895 6894 ] final -119.66 input  -60.11 | X-H torsion
[ 7974 7965 7964 7962 ] final -106.71 input  175.53 | X-H torsion
[ 8008 7997 7996 7995 ] final  111.16 input   59.86 | X-H torsion
[ 10167 10162 10161 10158 ] final   82.15 input  -65.29 | X-H torsion
[ 10718 10713 10712 10709 ] final  118.62 input   66.30 | X-H torsion
[ 10763 10752 10751 10750 ] final   34.44 input  -60.55 | X-H torsion
[ 11005 11000 10999 10996 ] final  -82.33 input  -57.11 | X-H torsion

> <Gold.Protein.ActiveResidues>
 VAL166  LYS551  ARG553  GLY616  TRP617  ASP618  TYR619  PRO620  LYS621  CYS622 
 ASP623  PHE694  ASN695  SER759  ASP760  ASP761  ALA762  ILE779  LEU786  VAL792 
 PHE793  MET794  SER795  GLU796  ALA797  LYS798  CYS799  TRP800  GLU811  SER814 

> <Gold.Protein.RotatedAtoms>
  150.8325  133.8068  159.3092 H   0  0  0  0  0  0  0  0  0  0  0  0  # atno 6907 bound_to 6896
  151.5793  135.1057  160.0023 H   0  0  0  0  0  0  0  0  0  0  0  0  # atno 6908 bound_to 6896
  152.4402  133.7393  159.6688 H   0  0  0  0  0  0  0  0  0  0  0  0  # atno 6909 bound_to 6896
  145.2144  140.9109  143.3295 H   0  0  0  0  0  0  0  0  0  0  0  0  # atno 7974 bound_to 7965
  156.2104  140.3024  155.9720 H   0  0  0  0  0  0  0  0  0  0  0  0  # atno 8008 bound_to 7997
  155.2737  140.0435  157.3026 H   0  0  0  0  0  0  0  0  0  0  0  0  # atno 8009 bound_to 7997
  154.5692  140.2343  155.8226 H   0  0  0  0  0  0  0  0  0  0  0  0  # atno 8010 bound_to 7997
  139.9318  144.6147  150.8337 H   0  0  0  0  0  0  0  0  0  0  0  0  # atno 10167 bound_to 10162
  157.6017  131.1050  150.7782 H   0  0  0  0  0  0  0  0  0  0  0  0  # atno 10718 bound_to 10713
  153.0164  135.6360  154.1670 H   0  0  0  0  0  0  0  0  0  0  0  0  # atno 10763 bound_to 10752
  154.1408  135.2835  155.3163 H   0  0  0  0  0  0  0  0  0  0  0  0  # atno 10764 bound_to 10752
  154.6126  135.5551  153.7550 H   0  0  0  0  0  0  0  0  0  0  0  0  # atno 10765 bound_to 10752
  141.1663  133.7239  156.8556 H   0  0  0  0  0  0  0  0  0  0  0  0  # atno 11005 bound_to 11000
  144.9825  139.3769  143.6255 LP  0  0  0  0  0  0  0  0  0  0  0  0  # atno 17320 bound_to 7965
  146.3390  139.8972  142.8800 LP  0  0  0  0  0  0  0  0  0  0  0  0  # atno 17321 bound_to 7965
  140.7635  143.3225  151.2590 LP  0  0  0  0  0  0  0  0  0  0  0  0  # atno 17342 bound_to 10162
  139.6776  143.9911  152.2790 LP  0  0  0  0  0  0  0  0  0  0  0  0  # atno 17343 bound_to 10162
  156.8179  130.4974  149.5347 LP  0  0  0  0  0  0  0  0  0  0  0  0  # atno 17370 bound_to 10713
  156.1093  130.6028  151.0021 LP  0  0  0  0  0  0  0  0  0  0  0  0  # atno 17371 bound_to 10713
  140.1885  134.8983  157.3032 LP  0  0  0  0  0  0  0  0  0  0  0  0  # atno 17394 bound_to 11000
  140.2317  134.3901  155.7519 LP  0  0  0  0  0  0  0  0  0  0  0  0  # atno 17395 bound_to 11000

$$$$
