AV-unprocessed.smi:48|AV-procd|sdf|449|dock6
  -GOLD-   2262016313D 1   1.00000     0.00000
 Structure written by MMmdl.
 30 32  0  0  0  0  0  0  0  0  1 V2000
  147.0167  142.7659  154.5093 O   0  0  0  0  0  0  0  0  0  0  0  0
  146.9973  141.6233  155.3379 C   0  0  0  0  0  0  0  0  0  0  0  0
  148.4267  141.0989  155.5396 C   0  0  1  0  0  0  0  0  0  0  0  0
  148.4385  140.1140  156.5674 O   0  0  0  0  0  0  0  0  0  0  0  0
  149.5752  139.3121  156.4405 C   0  0  2  0  0  0  0  0  0  0  0  0
  150.5797  139.7502  157.4644 N   0  0  0  0  0  0  0  0  0  0  0  0
  151.2763  139.0102  158.3541 C   0  0  0  0  0  0  0  0  0  0  0  0
  152.1210  139.6550  159.1590 N   0  0  0  0  0  0  0  0  0  0  0  0
  151.9551  140.9652  158.7420 C   0  0  0  0  0  0  0  0  0  0  0  0
  152.5351  142.1885  159.1569 C   0  0  0  0  0  0  0  0  0  0  0  0
  153.7042  142.2335  160.4254 Cl  0  0  0  0  0  0  0  0  0  0  0  0
  152.1498  143.3282  158.5339 N   0  0  0  0  0  0  0  0  0  0  0  0
  151.2403  143.2651  157.5530 C   0  0  0  0  0  0  0  0  0  0  0  0
  150.6101  142.1934  157.0576 N   0  0  0  0  0  0  0  0  0  0  0  0
  151.0028  141.0473  157.6877 C   0  0  0  0  0  0  0  0  0  0  0  0
  150.0889  139.4787  154.9896 C   0  0  2  0  0  0  0  0  0  0  0  0
  151.3475  140.1299  154.8946 O   0  0  0  0  0  0  0  0  0  0  0  0
  148.9634  140.2945  154.3560 C   0  0  2  0  0  0  0  0  0  0  0  0
  149.3892  141.1101  153.2802 O   0  0  0  0  0  0  0  0  0  0  0  0
  149.1172  141.9092  155.7818 H   0  0  0  0  0  0  0  0  0  0  0  0
  149.3407  138.2815  156.7090 H   0  0  0  0  0  0  0  0  0  0  0  0
  150.1733  138.4982  154.5200 H   0  0  0  0  0  0  0  0  0  0  0  0
  148.1885  139.6148  153.9982 H   0  0  0  0  0  0  0  0  0  0  0  0
  147.7159  143.3332  154.7963 H   0  0  0  0  0  0  0  0  0  0  0  0
  146.5189  141.8517  156.2906 H   0  0  0  0  0  0  0  0  0  0  0  0
  146.3870  140.8690  154.8408 H   0  0  0  0  0  0  0  0  0  0  0  0
  151.1624  137.9381  158.4171 H   0  0  0  0  0  0  0  0  0  0  0  0
  150.9787  144.2098  157.0995 H   0  0  0  0  0  0  0  0  0  0  0  0
  152.0058  139.5658  155.2708 H   0  0  0  0  0  0  0  0  0  0  0  0
  149.6551  140.5504  152.5669 H   0  0  0  0  0  0  0  0  0  0  0  0
  1  2  1  0  0  0  0
  1 24  1  0  0  0  0
  2  3  1  0  0  0  0
  2 25  1  0  0  0  0
  2 26  1  0  0  0  0
  3 20  1  0  0  0  0
  3 18  1  0  0  0  0
  3  4  1  0  0  0  0
  4  5  1  0  0  0  0
  5 21  1  0  0  0  0
  5  6  1  0  0  0  0
  5 16  1  0  0  0  0
  6 15  1  0  0  0  0
  6  7  1  0  0  0  0
  7  8  2  0  0  0  0
  7 27  1  0  0  0  0
  8  9  1  0  0  0  0
  9 15  2  0  0  0  0
  9 10  1  0  0  0  0
 10 11  1  0  0  0  0
 10 12  2  0  0  0  0
 12 13  1  0  0  0  0
 13 14  2  0  0  0  0
 13 28  1  0  0  0  0
 14 15  1  0  0  0  0
 16 22  1  0  0  0  0
 16 17  1  0  0  0  0
 16 18  1  0  0  0  0
 17 29  1  0  0  0  0
 18 23  1  0  0  0  0
 18 19  1  0  0  0  0
 19 30  1  0  0  0  0
M  END
> <s_m_source_file>
AV-unprocessed.smi

> <i_m_source_file_index>
48

> <i_lp_mmshare_version>
43012

> <i_f3d_flags>
0

> <s_epik_input>
W09IXVtDSDJdW0NASF0xT1tDQEhdKFtDQEhdKFtPSF0pW0NAQEhdMVtPSF0pbihbY0hdbjIpYyhjMjMpbltjSF1uYzNDbA==

> <s_epik_cmdline>
J2VwaWtfcHl0aG9uJywgJy1waCcsICc3LjAnLCAnLXRuJywgJzgnLCAnLW1hJywgJzIwMCcsICctbWV0YWxfYmluZGluZycsICctaW1hZScsICc8aW5maWxlLm1hZT4nLCAnLW9tYWUnLCAnPG91dGZpbGUubWFlPic=

> <r_lp_tautomer_probability>
1

> <r_epik_Ionization_Penalty>
3.45505e-06

> <r_epik_Ionization_Penalty_Charging>
0

> <r_epik_Ionization_Penalty_Neutral>
3.45505e-06

> <r_epik_State_Penalty>
-0

> <r_epik_Charging_Adjusted_Penalty>
0

> <i_epik_Tot_Q>
0

> <i_epik_Tot_abs_Q>
0

> <r_epik_Metal_State_Penalty>
-0

> <b_epik_Metal_Only>
0

> <s_epik_Chemistry_Notes>
This compound contains an acetal/aminal-like group ( X-CH(R)-Y where X, Y are N, S, or O) that may be acid/base labile, releasing an aldehyde.

> <s_lp_Force_Field>
OPLS_2005

> <r_lp_Energy>
41.4935

> <b_lp_Chiralities_Consistent>
1

> <s_lp_Variant>
AV-unprocessed.smi:48-3

> <Gold.Version>
5.8.1

> <Gold.Id.Protein>
6NUR|6NUR_protein|mol2

> <Gold.PLP.Fitness>
42.4563

> <Gold.PLP.PLP>
-31.1464

> <Gold.PLP.part.hbond>
-4.3703

> <Gold.PLP.part.metal>
0.0000

> <Gold.PLP.part.buried>
-6.5848

> <Gold.PLP.part.nonpolar>
-21.2851

> <Gold.PLP.part.repulsive>
0.1484

> <Gold.PLP.ligand.clash>
1.3218

> <Gold.PLP.ligand.torsion>
0.2702

> <Gold.PLP.Chemscore.Hbond>
3.4223

> <Gold.PLP.Chemscore.CHOScore>
0.9432

> <Gold.PLP.Chemscore.Metal>
0.0000

> <Gold.Chemscore.Hbonds>
donor molecule, donor type, donor heavy atom, donor atom, acceptor molecule, acceptor atom, score
      L1  H     1    24       P1  8028  1.00
      L1  H    19    30       P1  7957  0.89
      P1  H  7989  7998       L1    17  1.00
      P1  H  8011  8017       L1    19  0.40
      L1  C    13    28       P1  8028  0.89

> <Gold.PLP.Chemscore.Internal.Correction>
0.0757

> <Gold.Rescore>
     Score         DG    S(hbond)    S(metal)    S(lipo)     H(rot)  DE(clash)    DE(int)     intcor
      6.49     -10.03       2.56        0.00      49.09       3.80       0.01       3.54       ----

> <Gold.Chemscore.Fitness>
6.4867

> <Gold.Chemscore.DG>
-10.0336

> <Gold.Chemscore.ZeroCoef>
-5.4800

> <Gold.Chemscore.Hbond>
2.5575

> <Gold.Chemscore.Metal>
0.0000

> <Gold.Chemscore.Lipo>
49.0930

> <Gold.Chemscore.Internal_Hbond>
0.0000

> <Gold.Chemscore.DEClash>
0.0073

> <Gold.Chemscore.DEInternal>
3.5395

> <Gold.Chemscore.Rot>
3.8017

> <Gold.Chemscore.Internal.Correction>
   9.000000E+99

> <Gold.Chemscore.Hbonds>
donor molecule, donor type, donor heavy atom, donor atom, acceptor molecule, acceptor atom, score
      L1  H     1    24       P1  8028  0.49
      L1  H    19    30       P1  7957  0.85
      P1  H  7989  7998       L1    17  0.88
      P1  H  8011  8017       L1    19  0.01

> <Gold.Chemscore.Hbond.Weighted>
-8.5421

> <Gold.Chemscore.Metal.Weighted>
-0.0000

> <Gold.Chemscore.Lipo.Weighted>
-5.7439

> <Gold.Chemscore.Internal_Hbond.Weighted>
0.0000

> <Gold.Chemscore.DEClash.Weighted>
0.0073

> <Gold.Chemscore.DEInternal.Weighted>
3.5395

> <Gold.Chemscore.Rot.Weighted>
9.7324

> <Gold.Chemscore.Internal.Correction.Weighted>
   9.000000E+99

> <Gold.Protein.RotatedTorsions>
[ 6907 6896 6895 6894 ] final   50.88 input  -60.11 | X-H torsion
[ 7974 7965 7964 7962 ] final -169.03 input  175.53 | X-H torsion
[ 8008 7997 7996 7995 ] final  163.68 input   59.86 | X-H torsion
[ 10167 10162 10161 10158 ] final   41.79 input  -65.29 | X-H torsion
[ 10718 10713 10712 10709 ] final  156.18 input   66.30 | X-H torsion
[ 10763 10752 10751 10750 ] final   38.28 input  -60.55 | X-H torsion
[ 11005 11000 10999 10996 ] final  -52.13 input  -57.11 | X-H torsion

> <Gold.Protein.ActiveResidues>
 VAL166  LYS551  ARG553  GLY616  TRP617  ASP618  TYR619  PRO620  LYS621  CYS622 
 ASP623  PHE694  ASN695  SER759  ASP760  ASP761  ALA762  ILE779  LEU786  VAL792 
 PHE793  MET794  SER795  GLU796  ALA797  LYS798  CYS799  TRP800  GLU811  SER814 

> <Gold.Protein.RotatedAtoms>
  152.3067  134.7547  160.0345 H   0  0  0  0  0  0  0  0  0  0  0  0  # atno 6907 bound_to 6896
  151.8042  133.3368  159.3544 H   0  0  0  0  0  0  0  0  0  0  0  0  # atno 6908 bound_to 6896
  150.7300  134.5655  159.5908 H   0  0  0  0  0  0  0  0  0  0  0  0  # atno 6909 bound_to 6896
  144.7192  140.2282  143.6307 H   0  0  0  0  0  0  0  0  0  0  0  0  # atno 7974 bound_to 7965
  156.1939  140.1717  156.8038 H   0  0  0  0  0  0  0  0  0  0  0  0  # atno 8008 bound_to 7997
  154.5505  140.0718  156.8691 H   0  0  0  0  0  0  0  0  0  0  0  0  # atno 8009 bound_to 7997
  155.3038  140.3363  155.4249 H   0  0  0  0  0  0  0  0  0  0  0  0  # atno 8010 bound_to 7997
  140.3608  144.2231  150.6138 H   0  0  0  0  0  0  0  0  0  0  0  0  # atno 10167 bound_to 10162
  157.2085  131.0692  151.1984 H   0  0  0  0  0  0  0  0  0  0  0  0  # atno 10718 bound_to 10713
  153.0006  135.6254  154.2280 H   0  0  0  0  0  0  0  0  0  0  0  0  # atno 10763 bound_to 10752
  154.2022  135.2803  155.2988 H   0  0  0  0  0  0  0  0  0  0  0  0  # atno 10764 bound_to 10752
  154.5674  135.5687  153.7122 H   0  0  0  0  0  0  0  0  0  0  0  0  # atno 10765 bound_to 10752
  141.0908  133.6633  156.3979 H   0  0  0  0  0  0  0  0  0  0  0  0  # atno 11005 bound_to 11000
  145.8436  139.2141  143.1813 LP  0  0  0  0  0  0  0  0  0  0  0  0  # atno 17320 bound_to 7965
  146.0324  140.8245  142.9869 LP  0  0  0  0  0  0  0  0  0  0  0  0  # atno 17321 bound_to 7965
  140.5129  143.2286  151.8508 LP  0  0  0  0  0  0  0  0  0  0  0  0  # atno 17342 bound_to 10162
  139.4814  144.4929  151.9162 LP  0  0  0  0  0  0  0  0  0  0  0  0  # atno 17343 bound_to 10162
  157.3696  130.7174  149.6556 LP  0  0  0  0  0  0  0  0  0  0  0  0  # atno 17370 bound_to 10713
  155.9693  130.4202  150.4413 LP  0  0  0  0  0  0  0  0  0  0  0  0  # atno 17371 bound_to 10713
  140.5256  134.6262  157.5333 LP  0  0  0  0  0  0  0  0  0  0  0  0  # atno 17394 bound_to 11000
  139.9734  134.7256  155.9997 LP  0  0  0  0  0  0  0  0  0  0  0  0  # atno 17395 bound_to 11000

$$$$
