AV-unprocessed.smi:626|AV-procd|sdf|3110|dock4
  -GOLD-   22720 0 33D 1   1.00000     0.00000
 Structure written by MMmdl.
 34 36  0  0  0  0  0  0  0  0  1 V2000
  146.8427  139.6583  153.7360 C   0  0  0  0  0  0  0  0  0  0  0  0
  148.1145  139.3482  154.3702 N   0  0  0  0  0  0  0  0  0  0  0  0
  149.1544  140.1933  154.4312 C   0  0  0  0  0  0  0  0  0  0  0  0
  149.1317  141.3285  153.9554 O   0  0  0  0  0  0  0  0  0  0  0  0
  150.4108  139.6852  155.1414 C   0  0  0  0  0  0  0  0  0  0  0  0
  150.7949  140.6020  156.2586 C   0  0  0  0  0  0  0  0  0  0  0  0
  151.2602  140.1314  157.4096 N   0  0  0  0  0  0  0  0  0  0  0  0
  151.4750  141.2898  158.1693 O   0  0  0  0  0  0  0  0  0  0  0  0
  151.1442  142.3313  157.3675 C   0  0  0  0  0  0  0  0  0  0  0  0
  151.1750  143.7131  157.9527 C   0  0  1  0  0  0  0  0  0  0  0  0
  150.3645  143.8984  159.2557 C   0  0  0  0  0  0  0  0  0  0  0  0
  151.3897  144.5607  160.1965 C   0  0  1  0  0  0  0  0  0  0  0  0
  152.4369  143.5150  160.6262 C   0  0  0  0  0  0  0  0  0  0  0  0
  153.2817  143.3329  159.3507 C   0  0  0  0  0  0  0  0  0  0  0  0
  152.5710  144.2558  158.3397 C   0  0  2  0  0  0  0  0  0  0  0  0
  152.1922  145.4314  159.2357 C   0  0  0  0  0  0  0  0  0  0  0  0
  150.6721  141.9553  156.1791 N   0  0  0  0  0  0  0  0  0  0  0  0
  146.1685  138.8058  153.8182 H   0  0  0  0  0  0  0  0  0  0  0  0
  146.9810  139.8828  152.6776 H   0  0  0  0  0  0  0  0  0  0  0  0
  146.3687  140.5159  154.2155 H   0  0  0  0  0  0  0  0  0  0  0  0
  148.2142  138.4317  154.7824 H   0  0  0  0  0  0  0  0  0  0  0  0
  150.2310  138.6843  155.5366 H   0  0  0  0  0  0  0  0  0  0  0  0
  151.2332  139.6006  154.4295 H   0  0  0  0  0  0  0  0  0  0  0  0
  150.7527  144.3818  157.2006 H   0  0  0  0  0  0  0  0  0  0  0  0
  149.5088  144.5520  159.0832 H   0  0  0  0  0  0  0  0  0  0  0  0
  149.9836  142.9659  159.6736 H   0  0  0  0  0  0  0  0  0  0  0  0
  150.9357  145.0928  161.0329 H   0  0  0  0  0  0  0  0  0  0  0  0
  153.0539  143.8912  161.4432 H   0  0  0  0  0  0  0  0  0  0  0  0
  151.9772  142.5827  160.9563 H   0  0  0  0  0  0  0  0  0  0  0  0
  154.3024  143.6763  159.5233 H   0  0  0  0  0  0  0  0  0  0  0  0
  153.3433  142.2951  159.0260 H   0  0  0  0  0  0  0  0  0  0  0  0
  153.1907  144.5131  157.4801 H   0  0  0  0  0  0  0  0  0  0  0  0
  151.5885  146.1877  158.7304 H   0  0  0  0  0  0  0  0  0  0  0  0
  153.0513  145.9152  159.7042 H   0  0  0  0  0  0  0  0  0  0  0  0
  1  2  1  0  0  0  0
  1 18  1  0  0  0  0
  1 19  1  0  0  0  0
  1 20  1  0  0  0  0
  2  3  1  0  0  0  0
  2 21  1  0  0  0  0
  3  4  2  0  0  0  0
  3  5  1  0  0  0  0
  5  6  1  0  0  0  0
  5 22  1  0  0  0  0
  5 23  1  0  0  0  0
  6 17  1  0  0  0  0
  6  7  2  0  0  0  0
  7  8  1  0  0  0  0
  8  9  1  0  0  0  0
  9 10  1  0  0  0  0
  9 17  2  0  0  0  0
 10 15  1  0  0  0  0
 10 11  1  0  0  0  0
 10 24  1  0  0  0  0
 11 12  1  0  0  0  0
 11 25  1  0  0  0  0
 11 26  1  0  0  0  0
 12 16  1  0  0  0  0
 12 13  1  0  0  0  0
 12 27  1  0  0  0  0
 13 14  1  0  0  0  0
 13 28  1  0  0  0  0
 13 29  1  0  0  0  0
 14 15  1  0  0  0  0
 14 30  1  0  0  0  0
 14 31  1  0  0  0  0
 15 16  1  0  0  0  0
 15 32  1  0  0  0  0
 16 33  1  0  0  0  0
 16 34  1  0  0  0  0
M  END
> <s_m_source_file>
AV-unprocessed.smi

> <i_m_source_file_index>
626

> <i_lp_mmshare_version>
43012

> <i_f3d_flags>
0

> <s_epik_input>
W0NIM11bTkhdQyg9TylbQ0gyXWMxbm9jKG4xKVtDQEhdKFtDSDJdW0NAQEhdMjMpW0NAQEhdKFtDSDJdMylbQ0gyXVtDSDJdMg==

> <s_epik_cmdline>
J2VwaWtfcHl0aG9uJywgJy1waCcsICc3LjAnLCAnLXRuJywgJzgnLCAnLW1hJywgJzIwMCcsICctbWV0YWxfYmluZGluZycsICctaW1hZScsICc8aW5maWxlLm1hZT4nLCAnLW9tYWUnLCAnPG91dGZpbGUubWFlPic=

> <r_lp_tautomer_probability>
1

> <r_epik_Ionization_Penalty>
1.02916e-07

> <r_epik_Ionization_Penalty_Charging>
0

> <r_epik_Ionization_Penalty_Neutral>
1.02916e-07

> <r_epik_State_Penalty>
-0

> <r_epik_Charging_Adjusted_Penalty>
0

> <i_epik_Tot_Q>
0

> <i_epik_Tot_abs_Q>
0

> <r_epik_Metal_State_Penalty>
-0

> <b_epik_Metal_Only>
0

> <s_lp_Force_Field>
OPLS_2005

> <r_lp_Energy>
49.0627

> <b_lp_Chiralities_Consistent>
1

> <s_lp_Variant>
AV-unprocessed.smi:626-2

> <Gold.Version>
5.8.1

> <Gold.Id.Protein>
6NUR|6NUR_protein|mol2

> <Gold.PLP.Fitness>
41.0354

> <Gold.PLP.PLP>
-39.4063

> <Gold.PLP.part.hbond>
-2.0000

> <Gold.PLP.part.metal>
0.0000

> <Gold.PLP.part.buried>
-4.3302

> <Gold.PLP.part.nonpolar>
-33.8235

> <Gold.PLP.part.repulsive>
0.7809

> <Gold.PLP.ligand.clash>
0.0000

> <Gold.PLP.ligand.torsion>
0.3789

> <Gold.PLP.Chemscore.Hbond>
0.7680

> <Gold.PLP.Chemscore.CHOScore>
0.0000

> <Gold.PLP.Chemscore.Metal>
0.0000

> <Gold.Chemscore.Hbonds>
donor molecule, donor type, donor heavy atom, donor atom, acceptor molecule, acceptor atom, score
      P1  H  8011  8017       L1     4  0.73

> <Gold.PLP.Chemscore.Internal.Correction>
0.0828

> <Gold.Rescore>
     Score         DG    S(hbond)    S(metal)    S(lipo)     H(rot)  DE(clash)    DE(int)     intcor
     13.00     -15.01       0.72        0.00      96.26       1.61       0.10       1.91       ----

> <Gold.Chemscore.Fitness>
12.9965

> <Gold.Chemscore.DG>
-15.0126

> <Gold.Chemscore.ZeroCoef>
-5.4800

> <Gold.Chemscore.Hbond>
0.7177

> <Gold.Chemscore.Metal>
0.0000

> <Gold.Chemscore.Lipo>
96.2559

> <Gold.Chemscore.Internal_Hbond>
0.0000

> <Gold.Chemscore.DEClash>
0.1037

> <Gold.Chemscore.DEInternal>
1.9124

> <Gold.Chemscore.Rot>
1.6119

> <Gold.Chemscore.Internal.Correction>
   9.000000E+99

> <Gold.Chemscore.Hbonds>
donor molecule, donor type, donor heavy atom, donor atom, acceptor molecule, acceptor atom, score
      P1  H  8011  8017       L1     4  0.69

> <Gold.Chemscore.Hbond.Weighted>
-2.3972

> <Gold.Chemscore.Metal.Weighted>
-0.0000

> <Gold.Chemscore.Lipo.Weighted>
-11.2619

> <Gold.Chemscore.Internal_Hbond.Weighted>
0.0000

> <Gold.Chemscore.DEClash.Weighted>
0.1037

> <Gold.Chemscore.DEInternal.Weighted>
1.9124

> <Gold.Chemscore.Rot.Weighted>
4.1266

> <Gold.Chemscore.Internal.Correction.Weighted>
   9.000000E+99

> <Gold.Protein.RotatedTorsions>
[ 6907 6896 6895 6894 ] final  162.14 input  -60.11 | X-H torsion
[ 7974 7965 7964 7962 ] final  177.18 input  175.53 | X-H torsion
[ 8008 7997 7996 7995 ] final   48.08 input   59.86 | X-H torsion
[ 10167 10162 10161 10158 ] final  -49.82 input  -65.29 | X-H torsion
[ 10718 10713 10712 10709 ] final -163.86 input   66.30 | X-H torsion
[ 10763 10752 10751 10750 ] final   46.93 input  -60.55 | X-H torsion
[ 11005 11000 10999 10996 ] final  171.81 input  -57.11 | X-H torsion

> <Gold.Protein.ActiveResidues>
 VAL166  LYS551  ARG553  GLY616  TRP617  ASP618  TYR619  PRO620  LYS621  CYS622 
 ASP623  PHE694  ASN695  SER759  ASP760  ASP761  ALA762  ILE779  LEU786  VAL792 
 PHE793  MET794  SER795  GLU796  ALA797  LYS798  CYS799  TRP800  GLU811  SER814 

> <Gold.Protein.RotatedAtoms>
  151.9450  133.3649  159.3978 H   0  0  0  0  0  0  0  0  0  0  0  0  # atno 6907 bound_to 6896
  150.6991  134.4400  159.5297 H   0  0  0  0  0  0  0  0  0  0  0  0  # atno 6908 bound_to 6896
  152.2063  134.8542  160.0553 H   0  0  0  0  0  0  0  0  0  0  0  0  # atno 6909 bound_to 6896
  144.7173  140.0208  143.6440 H   0  0  0  0  0  0  0  0  0  0  0  0  # atno 7974 bound_to 7965
  155.3797  140.3428  155.4246 H   0  0  0  0  0  0  0  0  0  0  0  0  # atno 8008 bound_to 7997
  156.1617  140.1603  156.8634 H   0  0  0  0  0  0  0  0  0  0  0  0  # atno 8009 bound_to 7997
  154.5146  140.0781  156.8038 H   0  0  0  0  0  0  0  0  0  0  0  0  # atno 8010 bound_to 7997
  140.6667  143.2682  151.4270 H   0  0  0  0  0  0  0  0  0  0  0  0  # atno 10167 bound_to 10162
  156.6307  130.8928  151.2977 H   0  0  0  0  0  0  0  0  0  0  0  0  # atno 10718 bound_to 10713
  152.9805  135.5992  154.3680 H   0  0  0  0  0  0  0  0  0  0  0  0  # atno 10763 bound_to 10752
  154.3356  135.2768  155.2451 H   0  0  0  0  0  0  0  0  0  0  0  0  # atno 10764 bound_to 10752
  154.4556  135.5979  153.6276 H   0  0  0  0  0  0  0  0  0  0  0  0  # atno 10765 bound_to 10752
  140.3229  134.7422  157.4078 H   0  0  0  0  0  0  0  0  0  0  0  0  # atno 11005 bound_to 11000
  146.0182  139.3228  143.0829 LP  0  0  0  0  0  0  0  0  0  0  0  0  # atno 17320 bound_to 7965
  145.8600  140.9480  143.0705 LP  0  0  0  0  0  0  0  0  0  0  0  0  # atno 17321 bound_to 7965
  139.5919  144.1481  152.2098 LP  0  0  0  0  0  0  0  0  0  0  0  0  # atno 17342 bound_to 10162
  140.0838  144.5678  150.7103 LP  0  0  0  0  0  0  0  0  0  0  0  0  # atno 17343 bound_to 10162
  157.7201  130.9547  150.1404 LP  0  0  0  0  0  0  0  0  0  0  0  0  # atno 17370 bound_to 10713
  156.2237  130.3676  149.8526 LP  0  0  0  0  0  0  0  0  0  0  0  0  # atno 17371 bound_to 10713
  140.0926  134.5580  155.8429 LP  0  0  0  0  0  0  0  0  0  0  0  0  # atno 17394 bound_to 11000
  141.2082  133.6671  156.6356 LP  0  0  0  0  0  0  0  0  0  0  0  0  # atno 17395 bound_to 11000

$$$$
