AV-unprocessed.smi:3343|AV-procd|sdf|12896|dock3
  -GOLD-   2272019303D 1   1.00000     0.00000
 Structure written by MMmdl.
 42 43  0  0  0  0  0  0  0  0  2 V2000
  153.5340  138.3328  154.9499 C   0  0  0  0  0  0  0  0  0  0  0  0
  152.2845  138.4256  155.8455 C   0  0  1  0  0  0  0  0  0  0  0  0
  151.3231  139.5396  155.4050 C   0  0  0  0  0  0  0  0  0  0  0  0
  150.7362  139.4735  154.3240 O   0  0  0  0  0  0  0  0  0  0  0  0
  151.1687  140.5636  156.2592 N   0  0  0  0  0  0  0  0  0  0  0  0
  150.2987  141.7130  156.0410 C   0  0  0  0  0  0  0  0  0  0  0  0
  149.6030  142.1524  157.3437 C   0  0  0  0  0  0  0  0  0  0  0  0
  150.1389  143.4336  157.8663 N   0  3  0  0  0  0  0  0  0  0  0  0
  151.6216  143.4617  157.8867 C   0  0  0  0  0  0  0  0  0  0  0  0
  152.1334  144.8442  158.3433 C   0  0  0  0  0  0  0  0  0  0  0  0
  151.6102  145.2193  159.6580 N   0  0  0  0  0  0  0  0  0  0  0  0
  152.1949  144.4474  160.7493 C   0  0  0  0  0  0  0  0  0  0  0  0
  150.1471  145.1779  159.6426 C   0  0  0  0  0  0  0  0  0  0  0  0
  149.6065  143.8008  159.2025 C   0  0  0  0  0  0  0  0  0  0  0  0
  151.5826  137.1512  155.9051 N   0  0  0  0  0  0  0  0  0  0  0  0
  151.1788  136.4202  156.9481 C   0  0  0  0  0  0  0  0  0  0  0  0
  150.5777  135.2882  156.6103 N   0  0  0  0  0  0  0  0  0  0  0  0
  150.6520  135.3880  155.2499 C   0  0  0  0  0  0  0  0  0  0  0  0
  151.2492  136.4816  154.7757 N   0  0  0  0  0  0  0  0  0  0  0  0
  154.0636  139.2854  154.9112 H   0  0  0  0  0  0  0  0  0  0  0  0
  153.2826  138.0506  153.9267 H   0  0  0  0  0  0  0  0  0  0  0  0
  154.2312  137.5878  155.3344 H   0  0  0  0  0  0  0  0  0  0  0  0
  152.6273  138.6683  156.8534 H   0  0  0  0  0  0  0  0  0  0  0  0
  151.6818  140.5352  157.1291 H   0  0  0  0  0  0  0  0  0  0  0  0
  150.8722  142.5385  155.6157 H   0  0  0  0  0  0  0  0  0  0  0  0
  149.5662  141.4239  155.2881 H   0  0  0  0  0  0  0  0  0  0  0  0
  148.5242  142.2319  157.2005 H   0  0  0  0  0  0  0  0  0  0  0  0
  149.7566  141.3764  158.0950 H   0  0  0  0  0  0  0  0  0  0  0  0
  152.0031  142.6674  158.5295 H   0  0  0  0  0  0  0  0  0  0  0  0
  152.0017  143.2591  156.8848 H   0  0  0  0  0  0  0  0  0  0  0  0
  153.2238  144.8595  158.3642 H   0  0  0  0  0  0  0  0  0  0  0  0
  151.8285  145.6022  157.6204 H   0  0  0  0  0  0  0  0  0  0  0  0
  151.8198  144.8071  161.7079 H   0  0  0  0  0  0  0  0  0  0  0  0
  153.2790  144.5646  160.7547 H   0  0  0  0  0  0  0  0  0  0  0  0
  151.9716  143.3838  160.6783 H   0  0  0  0  0  0  0  0  0  0  0  0
  149.7630  145.4403  160.6290 H   0  0  0  0  0  0  0  0  0  0  0  0
  149.7864  145.9461  158.9571 H   0  0  0  0  0  0  0  0  0  0  0  0
  148.5188  143.8511  159.1702 H   0  0  0  0  0  0  0  0  0  0  0  0
  149.8581  143.0297  159.9318 H   0  0  0  0  0  0  0  0  0  0  0  0
  151.3294  136.7213  157.9746 H   0  0  0  0  0  0  0  0  0  0  0  0
  150.2573  134.6301  154.5892 H   0  0  0  0  0  0  0  0  0  0  0  0
  149.8518  144.1558  157.2214 H   0  0  0  0  0  0  0  0  0  0  0  0
  1  2  1  0  0  0  0
  1 20  1  0  0  0  0
  1 21  1  0  0  0  0
  1 22  1  0  0  0  0
  2  3  1  0  0  0  0
  2 15  1  0  0  0  0
  2 23  1  0  0  0  0
  3  4  2  0  0  0  0
  3  5  1  0  0  0  0
  5  6  1  0  0  0  0
  5 24  1  0  0  0  0
  6  7  1  0  0  0  0
  6 25  1  0  0  0  0
  6 26  1  0  0  0  0
  7  8  1  0  0  0  0
  7 27  1  0  0  0  0
  7 28  1  0  0  0  0
  8 14  1  0  0  0  0
  8  9  1  0  0  0  0
  8 42  1  0  0  0  0
  9 10  1  0  0  0  0
  9 29  1  0  0  0  0
  9 30  1  0  0  0  0
 10 11  1  0  0  0  0
 10 31  1  0  0  0  0
 10 32  1  0  0  0  0
 11 12  1  0  0  0  0
 11 13  1  0  0  0  0
 12 33  1  0  0  0  0
 12 34  1  0  0  0  0
 12 35  1  0  0  0  0
 13 14  1  0  0  0  0
 13 36  1  0  0  0  0
 13 37  1  0  0  0  0
 14 38  1  0  0  0  0
 14 39  1  0  0  0  0
 15 19  1  0  0  0  0
 15 16  1  0  0  0  0
 16 17  2  0  0  0  0
 16 40  1  0  0  0  0
 17 18  1  0  0  0  0
 18 19  2  0  0  0  0
 18 41  1  0  0  0  0
M  CHG  1   8   1
M  END
> <s_m_source_file>
AV-unprocessed.smi

> <i_m_source_file_index>
3343

> <i_lp_mmshare_version>
43012

> <i_f3d_flags>
0

> <s_epik_input>
bjFbY0hdbltjSF1uMVtDQEhdKFtDSDNdKUMoPU8pW05IXVtDSDJdW0NIMl1OMltDSDJdW0NIMl1OKFtDSDNdKVtDSDJdW0NIMl0y

> <s_epik_cmdline>
J2VwaWtfcHl0aG9uJywgJy1waCcsICc3LjAnLCAnLXRuJywgJzgnLCAnLW1hJywgJzIwMCcsICctbWV0YWxfYmluZGluZycsICctaW1hZScsICc8aW5maWxlLm1hZT4nLCAnLW9tYWUnLCAnPG91dGZpbGUubWFlPic=

> <r_epik_Ionization_Penalty>
0.559944

> <r_epik_Ionization_Penalty_Charging>
0.558624

> <r_epik_Ionization_Penalty_Neutral>
0.00131959

> <r_epik_State_Penalty>
2.08679

> <r_epik_Charging_Adjusted_Penalty>
2.64542

> <i_epik_Tot_Q>
1

> <i_epik_Tot_abs_Q>
1

> <r_epik_Metal_State_Penalty>
2.0868

> <b_epik_Metal_Only>
0

> <s_lp_Force_Field>
OPLS_2005

> <r_lp_Energy>
21.6118

> <b_lp_Chiralities_Consistent>
1

> <s_lp_Variant>
AV-unprocessed.smi:3343-6

> <Gold.Version>
5.8.1

> <Gold.Id.Protein>
6NUR|6NUR_protein|mol2

> <Gold.PLP.Fitness>
43.5487

> <Gold.PLP.PLP>
-33.1156

> <Gold.PLP.part.hbond>
-3.0000

> <Gold.PLP.part.metal>
0.0000

> <Gold.PLP.part.buried>
-3.9117

> <Gold.PLP.part.nonpolar>
-28.8424

> <Gold.PLP.part.repulsive>
0.5805

> <Gold.PLP.ligand.clash>
0.0000

> <Gold.PLP.ligand.torsion>
0.8131

> <Gold.PLP.Chemscore.Hbond>
3.9840

> <Gold.PLP.Chemscore.CHOScore>
0.0000

> <Gold.PLP.Chemscore.Metal>
0.0000

> <Gold.Chemscore.Hbonds>
donor molecule, donor type, donor heavy atom, donor atom, acceptor molecule, acceptor atom, score
      L1  H     8    42       P1  8028  2.00
      P1  H  7989  7998       L1     4  0.90
      P1  H 10752 10764       L1    19  0.95

> <Gold.PLP.Chemscore.Internal.Correction>
0.1074

> <Gold.Rescore>
     Score         DG    S(hbond)    S(metal)    S(lipo)     H(rot)  DE(clash)    DE(int)     intcor
     13.91     -15.89       2.35        0.00      79.41       2.63       0.71       1.27       ----

> <Gold.Chemscore.Fitness>
13.9085

> <Gold.Chemscore.DG>
-15.8896

> <Gold.Chemscore.ZeroCoef>
-5.4800

> <Gold.Chemscore.Hbond>
2.3489

> <Gold.Chemscore.Metal>
0.0000

> <Gold.Chemscore.Lipo>
79.4136

> <Gold.Chemscore.Internal_Hbond>
0.0000

> <Gold.Chemscore.DEClash>
0.7107

> <Gold.Chemscore.DEInternal>
1.2705

> <Gold.Chemscore.Rot>
2.6278

> <Gold.Chemscore.Internal.Correction>
   9.000000E+99

> <Gold.Chemscore.Hbonds>
donor molecule, donor type, donor heavy atom, donor atom, acceptor molecule, acceptor atom, score
      L1  H     8    42       P1  8028  0.58
      P1  H  7989  7998       L1     4  0.18
      P1  H 10752 10764       L1    19  0.09

> <Gold.Chemscore.Hbond.Weighted>
-7.8453

> <Gold.Chemscore.Metal.Weighted>
-0.0000

> <Gold.Chemscore.Lipo.Weighted>
-9.2914

> <Gold.Chemscore.Internal_Hbond.Weighted>
0.0000

> <Gold.Chemscore.DEClash.Weighted>
0.7107

> <Gold.Chemscore.DEInternal.Weighted>
1.2705

> <Gold.Chemscore.Rot.Weighted>
6.7271

> <Gold.Chemscore.Internal.Correction.Weighted>
   9.000000E+99

> <Gold.Protein.RotatedTorsions>
[ 6907 6896 6895 6894 ] final -164.85 input  -60.11 | X-H torsion
[ 7974 7965 7964 7962 ] final  148.36 input  175.53 | X-H torsion
[ 8008 7997 7996 7995 ] final  -25.21 input   59.86 | X-H torsion
[ 10167 10162 10161 10158 ] final -159.63 input  -65.29 | X-H torsion
[ 10718 10713 10712 10709 ] final -167.37 input   66.30 | X-H torsion
[ 10763 10752 10751 10750 ] final  -86.16 input  -60.55 | X-H torsion
[ 11005 11000 10999 10996 ] final   98.40 input  -57.11 | X-H torsion

> <Gold.Protein.ActiveResidues>
 VAL166  LYS551  ARG553  GLY616  TRP617  ASP618  TYR619  PRO620  LYS621  CYS622 
 ASP623  PHE694  ASN695  SER759  ASP760  ASP761  ALA762  ILE779  LEU786  VAL792 
 PHE793  MET794  SER795  GLU796  ALA797  LYS798  CYS799  TRP800  GLU811  SER814 

> <Gold.Protein.RotatedAtoms>
  151.4183  133.3706  159.2752 H   0  0  0  0  0  0  0  0  0  0  0  0  # atno 6907 bound_to 6896
  150.9312  134.8728  159.7563 H   0  0  0  0  0  0  0  0  0  0  0  0  # atno 6908 bound_to 6896
  152.5029  134.4128  159.9506 H   0  0  0  0  0  0  0  0  0  0  0  0  # atno 6909 bound_to 6896
  144.8519  139.6145  143.5970 H   0  0  0  0  0  0  0  0  0  0  0  0  # atno 7974 bound_to 7965
  154.4488  140.1932  156.0584 H   0  0  0  0  0  0  0  0  0  0  0  0  # atno 8008 bound_to 7997
  156.0601  140.3298  155.7424 H   0  0  0  0  0  0  0  0  0  0  0  0  # atno 8009 bound_to 7997
  155.5425  140.0587  157.2858 H   0  0  0  0  0  0  0  0  0  0  0  0  # atno 8010 bound_to 7997
  139.6601  143.9929  152.2219 H   0  0  0  0  0  0  0  0  0  0  0  0  # atno 10167 bound_to 10162
  156.6814  130.9123  151.3057 H   0  0  0  0  0  0  0  0  0  0  0  0  # atno 10718 bound_to 10713
  154.6193  135.5459  153.7557 H   0  0  0  0  0  0  0  0  0  0  0  0  # atno 10763 bound_to 10752
  153.0231  135.6408  154.1464 H   0  0  0  0  0  0  0  0  0  0  0  0  # atno 10764 bound_to 10752
  154.1399  135.2909  155.3143 H   0  0  0  0  0  0  0  0  0  0  0  0  # atno 10765 bound_to 10752
  139.8772  134.9047  156.4450 H   0  0  0  0  0  0  0  0  0  0  0  0  # atno 11005 bound_to 11000
  146.2792  139.6832  142.9241 LP  0  0  0  0  0  0  0  0  0  0  0  0  # atno 17320 bound_to 7965
  145.4482  141.0427  143.2819 LP  0  0  0  0  0  0  0  0  0  0  0  0  # atno 17321 bound_to 7965
  139.9665  144.6522  150.8029 LP  0  0  0  0  0  0  0  0  0  0  0  0  # atno 17342 bound_to 10162
  140.7576  143.3090  151.2892 LP  0  0  0  0  0  0  0  0  0  0  0  0  # atno 17343 bound_to 10162
  157.7042  130.9367  150.0879 LP  0  0  0  0  0  0  0  0  0  0  0  0  # atno 17370 bound_to 10713
  156.1865  130.3652  149.8966 LP  0  0  0  0  0  0  0  0  0  0  0  0  # atno 17371 bound_to 10713
  140.8972  133.7805  155.9639 LP  0  0  0  0  0  0  0  0  0  0  0  0  # atno 17394 bound_to 11000
  140.8690  134.2750  157.5200 LP  0  0  0  0  0  0  0  0  0  0  0  0  # atno 17395 bound_to 11000

$$$$
