AV-unprocessed.smi:1969|AV-procd|sdf|7957|dock1
  -GOLD-   2272010123D 1   1.00000     0.00000
 Structure written by MMmdl.
 44 45  0  0  0  0  0  0  0  0  1 V2000
  150.9475  144.5361  159.8140 C   0  0  0  0  0  0  0  0  0  0  0  0
  152.1210  144.1640  158.8902 C   0  0  2  0  0  0  0  0  0  0  0  0
  151.6759  143.5076  157.5686 C   0  0  0  0  0  0  0  0  0  0  0  0
  151.2646  142.1231  157.7832 N   0  0  0  0  0  0  0  0  0  0  0  0
  150.5695  141.5237  156.7111 C   0  0  0  0  0  0  0  0  0  0  0  0
  151.1150  140.3960  156.0543 C   0  0  0  0  0  0  0  0  0  0  0  0
  150.4015  139.8079  154.9932 C   0  0  0  0  0  0  0  0  0  0  0  0
  149.1584  140.3502  154.6149 C   0  0  0  0  0  0  0  0  0  0  0  0
  148.4682  139.7447  153.5305 N   0  0  0  0  0  0  0  0  0  0  0  0
  147.4000  140.2016  152.8491 C   0  0  0  0  0  0  0  0  0  0  0  0
  146.8184  141.2573  153.0952 O   0  0  0  0  0  0  0  0  0  0  0  0
  146.8752  139.3212  151.7099 C   0  0  0  0  0  0  0  0  0  0  0  0
  146.3305  138.1140  152.2257 O   0  0  0  0  0  0  0  0  0  0  0  0
  145.8335  137.2566  151.2106 C   0  0  0  0  0  0  0  0  0  0  0  0
  144.9704  136.1606  151.8470 C   0  0  0  0  0  0  0  0  0  0  0  0
  144.5863  135.3004  150.9050 F   0  0  0  0  0  0  0  0  0  0  0  0
  145.6709  135.5016  152.7695 F   0  0  0  0  0  0  0  0  0  0  0  0
  143.8852  136.6952  152.4063 F   0  0  0  0  0  0  0  0  0  0  0  0
  148.7014  141.4918  155.3147 C   0  0  0  0  0  0  0  0  0  0  0  0
  149.3842  142.0600  156.3311 N   0  0  0  0  0  0  0  0  0  0  0  0
  152.2695  141.3274  158.4829 C   0  0  0  0  0  0  0  0  0  0  0  0
  152.6643  142.0068  159.8063 C   0  0  1  0  0  0  0  0  0  0  0  0
  153.8116  141.2715  160.5068 C   0  0  0  0  0  0  0  0  0  0  0  0
  153.0892  143.3445  159.5490 O   0  0  0  0  0  0  0  0  0  0  0  0
  150.2962  145.2670  159.3344 H   0  0  0  0  0  0  0  0  0  0  0  0
  151.3093  144.9767  160.7431 H   0  0  0  0  0  0  0  0  0  0  0  0
  150.3312  143.6742  160.0687 H   0  0  0  0  0  0  0  0  0  0  0  0
  152.6311  145.0949  158.6413 H   0  0  0  0  0  0  0  0  0  0  0  0
  150.8855  144.1048  157.1161 H   0  0  0  0  0  0  0  0  0  0  0  0
  152.5078  143.5084  156.8633 H   0  0  0  0  0  0  0  0  0  0  0  0
  152.0723  139.9869  156.3416 H   0  0  0  0  0  0  0  0  0  0  0  0
  150.8070  138.9486  154.4791 H   0  0  0  0  0  0  0  0  0  0  0  0
  148.7876  138.8219  153.2727 H   0  0  0  0  0  0  0  0  0  0  0  0
  146.1142  139.8732  151.1564 H   0  0  0  0  0  0  0  0  0  0  0  0
  147.6954  139.1029  151.0245 H   0  0  0  0  0  0  0  0  0  0  0  0
  145.2408  137.8294  150.4953 H   0  0  0  0  0  0  0  0  0  0  0  0
  146.6622  136.8056  150.6623 H   0  0  0  0  0  0  0  0  0  0  0  0
  147.7801  141.9901  155.0571 H   0  0  0  0  0  0  0  0  0  0  0  0
  151.8825  140.3290  158.6914 H   0  0  0  0  0  0  0  0  0  0  0  0
  153.1447  141.2110  157.8419 H   0  0  0  0  0  0  0  0  0  0  0  0
  151.8087  142.0162  160.4817 H   0  0  0  0  0  0  0  0  0  0  0  0
  153.5354  140.2425  160.7377 H   0  0  0  0  0  0  0  0  0  0  0  0
  154.0742  141.7630  161.4439 H   0  0  0  0  0  0  0  0  0  0  0  0
  154.7048  141.2469  159.8820 H   0  0  0  0  0  0  0  0  0  0  0  0
  1  2  1  0  0  0  0
  1 25  1  0  0  0  0
  1 26  1  0  0  0  0
  1 27  1  0  0  0  0
  2 24  1  0  0  0  0
  2  3  1  0  0  0  0
  2 28  1  0  0  0  0
  3  4  1  0  0  0  0
  3 29  1  0  0  0  0
  3 30  1  0  0  0  0
  4  5  1  0  0  0  0
  4 21  1  0  0  0  0
  5 20  1  0  0  0  0
  5  6  2  0  0  0  0
  6  7  1  0  0  0  0
  6 31  1  0  0  0  0
  7  8  2  0  0  0  0
  7 32  1  0  0  0  0
  8  9  1  0  0  0  0
  8 19  1  0  0  0  0
  9 10  1  0  0  0  0
  9 33  1  0  0  0  0
 10 11  2  0  0  0  0
 10 12  1  0  0  0  0
 12 13  1  0  0  0  0
 12 34  1  0  0  0  0
 12 35  1  0  0  0  0
 13 14  1  0  0  0  0
 14 15  1  0  0  0  0
 14 36  1  0  0  0  0
 14 37  1  0  0  0  0
 15 16  1  0  0  0  0
 15 17  1  0  0  0  0
 15 18  1  0  0  0  0
 19 20  2  0  0  0  0
 19 38  1  0  0  0  0
 21 22  1  0  0  0  0
 21 39  1  0  0  0  0
 21 40  1  0  0  0  0
 22 23  1  0  0  0  0
 22 24  1  0  0  0  0
 22 41  1  0  0  0  0
 23 42  1  0  0  0  0
 23 43  1  0  0  0  0
 23 44  1  0  0  0  0
M  END
> <s_m_source_file>
AV-unprocessed.smi

> <i_m_source_file_index>
1969

> <i_lp_mmshare_version>
43012

> <i_f3d_flags>
0

> <s_epik_input>
W0NIM11bQ0BASF0xW0NIMl1OKFtDSDJdW0NASF0oTzEpW0NIM10pYzJbY0hdW2NIXWMoW2NIXW4yKVtOSF1DKD1PKVtDSDJdT1tDSDJdQyhGKShGKUY=

> <s_epik_cmdline>
J2VwaWtfcHl0aG9uJywgJy1waCcsICc3LjAnLCAnLXRuJywgJzgnLCAnLW1hJywgJzIwMCcsICctbWV0YWxfYmluZGluZycsICctaW1hZScsICc8aW5maWxlLm1hZT4nLCAnLW9tYWUnLCAnPG91dGZpbGUubWFlPic=

> <r_lp_tautomer_probability>
1

> <r_epik_Ionization_Penalty>
0.000531129

> <r_epik_Ionization_Penalty_Charging>
0

> <r_epik_Ionization_Penalty_Neutral>
0.000531129

> <r_epik_State_Penalty>
0.000331002

> <r_epik_Charging_Adjusted_Penalty>
0.000331002

> <i_epik_Tot_Q>
0

> <i_epik_Tot_abs_Q>
0

> <r_epik_Metal_State_Penalty>
-0

> <b_epik_Metal_Only>
0

> <s_lp_Force_Field>
OPLS_2005

> <r_lp_Energy>
25.1949

> <b_lp_Chiralities_Consistent>
1

> <s_lp_Variant>
AV-unprocessed.smi:1969-1

> <Gold.Version>
5.8.1

> <Gold.Id.Protein>
6NUR|6NUR_protein|mol2

> <Gold.PLP.Fitness>
46.3726

> <Gold.PLP.PLP>
-46.8601

> <Gold.PLP.part.hbond>
-1.0000

> <Gold.PLP.part.metal>
0.0000

> <Gold.PLP.part.buried>
0.8588

> <Gold.PLP.part.nonpolar>
-48.8902

> <Gold.PLP.part.repulsive>
2.5711

> <Gold.PLP.ligand.clash>
0.0000

> <Gold.PLP.ligand.torsion>
0.4370

> <Gold.PLP.Chemscore.Hbond>
0.0000

> <Gold.PLP.Chemscore.CHOScore>
0.0000

> <Gold.PLP.Chemscore.Metal>
0.0000

> <Gold.PLP.Chemscore.Internal.Correction>
0.3866

> <Gold.Rescore>
     Score         DG    S(hbond)    S(metal)    S(lipo)     H(rot)  DE(clash)    DE(int)     intcor
     10.56     -13.41       0.00        0.00     110.34       1.94       1.11       1.75       ----

> <Gold.Chemscore.Fitness>
10.5557

> <Gold.Chemscore.DG>
-13.4142

> <Gold.Chemscore.ZeroCoef>
-5.4800

> <Gold.Chemscore.Hbond>
0.0000

> <Gold.Chemscore.Metal>
0.0000

> <Gold.Chemscore.Lipo>
110.3446

> <Gold.Chemscore.Internal_Hbond>
0.0000

> <Gold.Chemscore.DEClash>
1.1135

> <Gold.Chemscore.DEInternal>
1.7451

> <Gold.Chemscore.Rot>
1.9438

> <Gold.Chemscore.Internal.Correction>
   9.000000E+99

> <Gold.Chemscore.Hbond.Weighted>
-0.0000

> <Gold.Chemscore.Metal.Weighted>
-0.0000

> <Gold.Chemscore.Lipo.Weighted>
-12.9103

> <Gold.Chemscore.Internal_Hbond.Weighted>
0.0000

> <Gold.Chemscore.DEClash.Weighted>
1.1135

> <Gold.Chemscore.DEInternal.Weighted>
1.7451

> <Gold.Chemscore.Rot.Weighted>
4.9761

> <Gold.Chemscore.Internal.Correction.Weighted>
   9.000000E+99

> <Gold.Protein.RotatedTorsions>
[ 6907 6896 6895 6894 ] final -166.24 input  -60.11 | X-H torsion
[ 7974 7965 7964 7962 ] final   88.37 input  175.53 | X-H torsion
[ 8008 7997 7996 7995 ] final  -35.22 input   59.86 | X-H torsion
[ 10167 10162 10161 10158 ] final   85.67 input  -65.29 | X-H torsion
[ 10718 10713 10712 10709 ] final  114.87 input   66.30 | X-H torsion
[ 10763 10752 10751 10750 ] final  124.40 input  -60.55 | X-H torsion
[ 11005 11000 10999 10996 ] final  -27.01 input  -57.11 | X-H torsion

> <Gold.Protein.ActiveResidues>
 VAL166  LYS551  ARG553  GLY616  TRP617  ASP618  TYR619  PRO620  LYS621  CYS622 
 ASP623  PHE694  ASN695  SER759  ASP760  ASP761  ALA762  ILE779  LEU786  VAL792 
 PHE793  MET794  SER795  GLU796  ALA797  LYS798  CYS799  TRP800  GLU811  SER814 

> <Gold.Protein.RotatedAtoms>
  151.4404  133.3645  159.2780 H   0  0  0  0  0  0  0  0  0  0  0  0  # atno 6907 bound_to 6896
  150.9161  134.8580  159.7469 H   0  0  0  0  0  0  0  0  0  0  0  0  # atno 6908 bound_to 6896
  152.4958  134.4338  159.9573 H   0  0  0  0  0  0  0  0  0  0  0  0  # atno 6909 bound_to 6896
  145.5465  139.2292  143.2536 H   0  0  0  0  0  0  0  0  0  0  0  0  # atno 7974 bound_to 7965
  154.4101  140.1663  156.2176 H   0  0  0  0  0  0  0  0  0  0  0  0  # atno 8008 bound_to 7997
  155.9391  140.3409  155.6289 H   0  0  0  0  0  0  0  0  0  0  0  0  # atno 8009 bound_to 7997
  155.7011  140.0745  157.2400 H   0  0  0  0  0  0  0  0  0  0  0  0  # atno 8010 bound_to 7997
  139.8954  144.6361  150.8694 H   0  0  0  0  0  0  0  0  0  0  0  0  # atno 10167 bound_to 10162
  157.6256  131.1005  150.7248 H   0  0  0  0  0  0  0  0  0  0  0  0  # atno 10718 bound_to 10713
  153.6608  135.3347  155.3126 H   0  0  0  0  0  0  0  0  0  0  0  0  # atno 10763 bound_to 10752
  154.8515  135.4363  154.1807 H   0  0  0  0  0  0  0  0  0  0  0  0  # atno 10764 bound_to 10752
  153.2773  135.7006  153.7496 H   0  0  0  0  0  0  0  0  0  0  0  0  # atno 10765 bound_to 10752
  140.9081  133.7479  156.0633 H   0  0  0  0  0  0  0  0  0  0  0  0  # atno 11005 bound_to 11000
  146.1946  140.6287  142.9130 LP  0  0  0  0  0  0  0  0  0  0  0  0  # atno 17320 bound_to 7965
  144.7550  140.5286  143.6775 LP  0  0  0  0  0  0  0  0  0  0  0  0  # atno 17321 bound_to 7965
  140.7718  143.3478  151.2076 LP  0  0  0  0  0  0  0  0  0  0  0  0  # atno 17342 bound_to 10162
  139.7073  143.9435  152.2932 LP  0  0  0  0  0  0  0  0  0  0  0  0  # atno 17343 bound_to 10162
  156.7597  130.4795  149.5439 LP  0  0  0  0  0  0  0  0  0  0  0  0  # atno 17370 bound_to 10713
  156.1425  130.6255  151.0487 LP  0  0  0  0  0  0  0  0  0  0  0  0  # atno 17371 bound_to 10713
  140.8145  134.3360  157.5401 LP  0  0  0  0  0  0  0  0  0  0  0  0  # atno 17394 bound_to 11000
  139.8753  134.9273  156.3423 LP  0  0  0  0  0  0  0  0  0  0  0  0  # atno 17395 bound_to 11000

$$$$
