AV-unprocessed.smi:976|AV-procd|sdf|4303|dock9
  -GOLD-   22720 2213D 1   1.00000     0.00000
 Structure written by MMmdl.
 41 42  0  0  0  0  0  0  0  0  1 V2000
  154.7400  137.8177  158.7058 C   0  0  0  0  0  0  0  0  0  0  0  0
  153.8531  138.2453  159.8847 C   0  0  1  0  0  0  0  0  0  0  0  0
  154.5340  137.8901  161.0855 O   0  0  0  0  0  0  0  0  0  0  0  0
  153.7008  137.4947  162.1709 C   0  0  0  0  0  0  0  0  0  0  0  0
  154.5758  136.9872  163.3233 C   0  0  0  0  0  0  0  0  0  0  0  0
  153.7944  136.5999  164.3307 F   0  0  0  0  0  0  0  0  0  0  0  0
  155.3060  135.9465  162.9238 F   0  0  0  0  0  0  0  0  0  0  0  0
  155.3789  137.9594  163.7546 F   0  0  0  0  0  0  0  0  0  0  0  0
  153.5731  139.7566  159.8546 C   0  0  0  0  0  0  0  0  0  0  0  0
  154.1012  140.4937  160.6871 O   0  0  0  0  0  0  0  0  0  0  0  0
  152.7439  140.1769  158.8826 N   0  0  0  0  0  0  0  0  0  0  0  0
  152.3059  141.5038  158.6087 C   0  0  0  0  0  0  0  0  0  0  0  0
  152.5856  142.5872  159.4765 C   0  0  0  0  0  0  0  0  0  0  0  0
  152.0784  143.8623  159.1688 C   0  0  0  0  0  0  0  0  0  0  0  0
  151.2976  144.0077  158.0089 C   0  0  0  0  0  0  0  0  0  0  0  0
  151.0098  142.9835  157.1802 N   0  0  0  0  0  0  0  0  0  0  0  0
  151.4976  141.7516  157.4663 C   0  0  0  0  0  0  0  0  0  0  0  0
  151.1933  140.7089  156.5681 N   0  0  0  0  0  0  0  0  0  0  0  0
  150.0775  140.9209  155.6511 C   0  0  0  0  0  0  0  0  0  0  0  0
  149.7509  139.6114  154.9128 C   0  0  0  0  0  0  0  0  0  0  0  0
  150.9175  139.1322  154.2493 O   0  0  0  0  0  0  0  0  0  0  0  0
  151.9789  138.8583  155.1596 C   0  0  0  0  0  0  0  0  0  0  0  0
  152.3653  140.1460  155.9071 C   0  0  0  0  0  0  0  0  0  0  0  0
  154.2800  138.0722  157.7503 H   0  0  0  0  0  0  0  0  0  0  0  0
  154.9020  136.7396  158.7158 H   0  0  0  0  0  0  0  0  0  0  0  0
  155.7196  138.2961  158.7449 H   0  0  0  0  0  0  0  0  0  0  0  0
  152.9140  137.6915  159.8241 H   0  0  0  0  0  0  0  0  0  0  0  0
  153.0908  138.3285  162.5201 H   0  0  0  0  0  0  0  0  0  0  0  0
  153.0200  136.7052  161.8489 H   0  0  0  0  0  0  0  0  0  0  0  0
  152.4637  139.4810  158.2065 H   0  0  0  0  0  0  0  0  0  0  0  0
  153.1618  142.4584  160.3798 H   0  0  0  0  0  0  0  0  0  0  0  0
  152.2763  144.7069  159.8119 H   0  0  0  0  0  0  0  0  0  0  0  0
  150.8875  144.9704  157.7416 H   0  0  0  0  0  0  0  0  0  0  0  0
  149.2031  141.2672  156.2034 H   0  0  0  0  0  0  0  0  0  0  0  0
  150.3352  141.6962  154.9281 H   0  0  0  0  0  0  0  0  0  0  0  0
  149.3786  138.8561  155.6066 H   0  0  0  0  0  0  0  0  0  0  0  0
  148.9667  139.7818  154.1750 H   0  0  0  0  0  0  0  0  0  0  0  0
  151.6794  138.0773  155.8605 H   0  0  0  0  0  0  0  0  0  0  0  0
  152.8346  138.4759  154.6031 H   0  0  0  0  0  0  0  0  0  0  0  0
  152.7644  140.8799  155.2054 H   0  0  0  0  0  0  0  0  0  0  0  0
  153.1552  139.9328  156.6274 H   0  0  0  0  0  0  0  0  0  0  0  0
  1  2  1  0  0  0  0
  1 24  1  0  0  0  0
  1 25  1  0  0  0  0
  1 26  1  0  0  0  0
  2  3  1  0  0  0  0
  2  9  1  0  0  0  0
  2 27  1  0  0  0  0
  3  4  1  0  0  0  0
  4  5  1  0  0  0  0
  4 28  1  0  0  0  0
  4 29  1  0  0  0  0
  5  6  1  0  0  0  0
  5  7  1  0  0  0  0
  5  8  1  0  0  0  0
  9 10  2  0  0  0  0
  9 11  1  0  0  0  0
 11 12  1  0  0  0  0
 11 30  1  0  0  0  0
 12 17  1  0  0  0  0
 12 13  2  0  0  0  0
 13 14  1  0  0  0  0
 13 31  1  0  0  0  0
 14 15  2  0  0  0  0
 14 32  1  0  0  0  0
 15 16  1  0  0  0  0
 15 33  1  0  0  0  0
 16 17  2  0  0  0  0
 17 18  1  0  0  0  0
 18 23  1  0  0  0  0
 18 19  1  0  0  0  0
 19 20  1  0  0  0  0
 19 34  1  0  0  0  0
 19 35  1  0  0  0  0
 20 21  1  0  0  0  0
 20 36  1  0  0  0  0
 20 37  1  0  0  0  0
 21 22  1  0  0  0  0
 22 23  1  0  0  0  0
 22 38  1  0  0  0  0
 22 39  1  0  0  0  0
 23 40  1  0  0  0  0
 23 41  1  0  0  0  0
M  END
> <s_m_source_file>
AV-unprocessed.smi

> <i_m_source_file_index>
976

> <i_lp_mmshare_version>
43012

> <i_f3d_flags>
0

> <s_epik_input>
RkMoRikoRilbQ0gyXU9bQ0BASF0oW0NIM10pQyg9TylbTkhdYzFbY0hdW2NIXVtjSF1uYzFOMltDSDJdW0NIMl1PW0NIMl1bQ0gyXTI=

> <s_epik_cmdline>
J2VwaWtfcHl0aG9uJywgJy1waCcsICc3LjAnLCAnLXRuJywgJzgnLCAnLW1hJywgJzIwMCcsICctbWV0YWxfYmluZGluZycsICctaW1hZScsICc8aW5maWxlLm1hZT4nLCAnLW9tYWUnLCAnPG91dGZpbGUubWFlPic=

> <r_lp_tautomer_probability>
1

> <r_epik_Ionization_Penalty>
0.000443367

> <r_epik_Ionization_Penalty_Charging>
0

> <r_epik_Ionization_Penalty_Neutral>
0.000443367

> <r_epik_State_Penalty>
0.00027288

> <r_epik_Charging_Adjusted_Penalty>
0.00027288

> <i_epik_Tot_Q>
0

> <i_epik_Tot_abs_Q>
0

> <r_epik_Metal_State_Penalty>
-0

> <b_epik_Metal_Only>
0

> <s_lp_Force_Field>
OPLS_2005

> <r_lp_Energy>
26.1197

> <b_lp_Chiralities_Consistent>
1

> <s_lp_Variant>
AV-unprocessed.smi:976-2

> <Gold.Version>
5.8.1

> <Gold.Id.Protein>
6NUR|6NUR_protein|mol2

> <Gold.PLP.Fitness>
43.0945

> <Gold.PLP.PLP>
-41.4878

> <Gold.PLP.part.hbond>
-1.0000

> <Gold.PLP.part.metal>
0.0000

> <Gold.PLP.part.buried>
-4.3545

> <Gold.PLP.part.nonpolar>
-36.2980

> <Gold.PLP.part.repulsive>
0.4355

> <Gold.PLP.ligand.clash>
0.0106

> <Gold.PLP.ligand.torsion>
0.9242

> <Gold.PLP.Chemscore.Hbond>
0.9500

> <Gold.PLP.Chemscore.CHOScore>
0.1262

> <Gold.PLP.Chemscore.Metal>
0.0000

> <Gold.Chemscore.Hbonds>
donor molecule, donor type, donor heavy atom, donor atom, acceptor molecule, acceptor atom, score
      P1  H  7989  7998       L1    21  0.90
      L1  C    15    33       P1  8028  0.13

> <Gold.PLP.Chemscore.Internal.Correction>
0.2371

> <Gold.Rescore>
     Score         DG    S(hbond)    S(metal)    S(lipo)     H(rot)  DE(clash)    DE(int)     intcor
      8.98     -11.51       0.00        0.00      94.18       1.95       0.01       2.52       ----

> <Gold.Chemscore.Fitness>
8.9813

> <Gold.Chemscore.DG>
-11.5094

> <Gold.Chemscore.ZeroCoef>
-5.4800

> <Gold.Chemscore.Hbond>
0.0000

> <Gold.Chemscore.Metal>
0.0000

> <Gold.Chemscore.Lipo>
94.1790

> <Gold.Chemscore.Internal_Hbond>
0.0000

> <Gold.Chemscore.DEClash>
0.0102

> <Gold.Chemscore.DEInternal>
2.5179

> <Gold.Chemscore.Rot>
1.9491

> <Gold.Chemscore.Internal.Correction>
   9.000000E+99

> <Gold.Chemscore.Hbonds>
donor molecule, donor type, donor heavy atom, donor atom, acceptor molecule, acceptor atom, score
      P1  H  7989  7998       L1    21  0.05

> <Gold.Chemscore.Hbond.Weighted>
-0.0002

> <Gold.Chemscore.Metal.Weighted>
-0.0000

> <Gold.Chemscore.Lipo.Weighted>
-11.0189

> <Gold.Chemscore.Internal_Hbond.Weighted>
0.0000

> <Gold.Chemscore.DEClash.Weighted>
0.0102

> <Gold.Chemscore.DEInternal.Weighted>
2.5179

> <Gold.Chemscore.Rot.Weighted>
4.9897

> <Gold.Chemscore.Internal.Correction.Weighted>
   9.000000E+99

> <Gold.Protein.RotatedTorsions>
[ 6907 6896 6895 6894 ] final -128.80 input  -60.11 | X-H torsion
[ 7974 7965 7964 7962 ] final  -41.51 input  175.53 | X-H torsion
[ 8008 7997 7996 7995 ] final -116.34 input   59.86 | X-H torsion
[ 10167 10162 10161 10158 ] final   41.12 input  -65.29 | X-H torsion
[ 10718 10713 10712 10709 ] final  177.87 input   66.30 | X-H torsion
[ 10763 10752 10751 10750 ] final  137.49 input  -60.55 | X-H torsion
[ 11005 11000 10999 10996 ] final  153.75 input  -57.11 | X-H torsion

> <Gold.Protein.ActiveResidues>
 VAL166  LYS551  ARG553  GLY616  TRP617  ASP618  TYR619  PRO620  LYS621  CYS622 
 ASP623  PHE694  ASN695  SER759  ASP760  ASP761  ALA762  ILE779  LEU786  VAL792 
 PHE793  MET794  SER795  GLU796  ALA797  LYS798  CYS799  TRP800  GLU811  SER814 

> <Gold.Protein.RotatedAtoms>
  150.9218  133.6871  159.2830 H   0  0  0  0  0  0  0  0  0  0  0  0  # atno 6907 bound_to 6896
  151.4323  135.1009  159.9655 H   0  0  0  0  0  0  0  0  0  0  0  0  # atno 6908 bound_to 6896
  152.4983  133.8646  159.7322 H   0  0  0  0  0  0  0  0  0  0  0  0  # atno 6909 bound_to 6896
  146.0204  140.6857  142.9181 H   0  0  0  0  0  0  0  0  0  0  0  0  # atno 7974 bound_to 7965
  155.0663  140.0393  157.2594 H   0  0  0  0  0  0  0  0  0  0  0  0  # atno 8008 bound_to 7997
  154.7018  140.2675  155.6687 H   0  0  0  0  0  0  0  0  0  0  0  0  # atno 8009 bound_to 7997
  156.2763  140.2739  156.1632 H   0  0  0  0  0  0  0  0  0  0  0  0  # atno 8010 bound_to 7997
  140.3675  144.2149  150.6134 H   0  0  0  0  0  0  0  0  0  0  0  0  # atno 10167 bound_to 10162
  156.8990  130.9872  151.3038 H   0  0  0  0  0  0  0  0  0  0  0  0  # atno 10718 bound_to 10713
  153.8740  135.3052  155.3443 H   0  0  0  0  0  0  0  0  0  0  0  0  # atno 10763 bound_to 10752
  154.7792  135.4844  153.9812 H   0  0  0  0  0  0  0  0  0  0  0  0  # atno 10764 bound_to 10752
  153.1390  135.6820  153.9154 H   0  0  0  0  0  0  0  0  0  0  0  0  # atno 10765 bound_to 10752
  140.1426  134.8728  157.2351 H   0  0  0  0  0  0  0  0  0  0  0  0  # atno 11005 bound_to 11000
  144.6987  140.3555  143.7173 LP  0  0  0  0  0  0  0  0  0  0  0  0  # atno 17320 bound_to 7965
  145.7202  139.1708  143.2489 LP  0  0  0  0  0  0  0  0  0  0  0  0  # atno 17321 bound_to 7965
  140.5067  143.2302  151.8598 LP  0  0  0  0  0  0  0  0  0  0  0  0  # atno 17342 bound_to 10162
  139.4807  144.4998  151.9076 LP  0  0  0  0  0  0  0  0  0  0  0  0  # atno 17343 bound_to 10162
  157.6038  130.8532  149.8842 LP  0  0  0  0  0  0  0  0  0  0  0  0  # atno 17370 bound_to 10713
  156.0591  130.3703  150.1023 LP  0  0  0  0  0  0  0  0  0  0  0  0  # atno 17371 bound_to 10713
  140.2703  134.3468  155.7376 LP  0  0  0  0  0  0  0  0  0  0  0  0  # atno 17394 bound_to 11000
  141.2188  133.7419  156.9213 LP  0  0  0  0  0  0  0  0  0  0  0  0  # atno 17395 bound_to 11000

$$$$
