AV-unprocessed.smi:2639|AV-procd|sdf|10267|dock1
  -GOLD-   2272014273D 1   1.00000     0.00000
 Structure written by MMmdl.
 44 45  0  0  0  0  0  0  0  0  2 V2000
  147.8058  138.4261  156.1922 C   0  0  0  0  0  0  0  0  0  0  0  0
  148.1910  138.8762  154.7590 C   0  0  2  0  0  0  0  0  0  0  0  0
  147.4198  140.1771  154.4048 C   0  0  0  0  0  0  0  0  0  0  0  0
  147.4334  140.4446  153.0153 O   0  0  0  0  0  0  0  0  0  0  0  0
  147.7489  137.8590  153.7903 N   0  0  0  0  0  0  0  0  0  0  0  0
  146.5221  137.3393  153.6139 C   0  0  0  0  0  0  0  0  0  0  0  0
  145.5378  137.6505  154.2833 O   0  0  0  0  0  0  0  0  0  0  0  0
  146.5185  136.4545  152.6022 N   0  0  0  0  0  0  0  0  0  0  0  0
  145.4397  135.6660  152.1173 C   0  0  0  0  0  0  0  0  0  0  0  0
  144.2127  135.7381  152.8140 C   0  0  0  0  0  0  0  0  0  0  0  0
  143.1092  134.9878  152.3594 C   0  0  0  0  0  0  0  0  0  0  0  0
  143.2288  134.2154  151.2583 N   0  3  0  0  0  0  0  0  0  0  0  0
  144.3756  134.1254  150.5511 C   0  0  0  0  0  0  0  0  0  0  0  0
  145.5130  134.8524  150.9578 C   0  0  0  0  0  0  0  0  0  0  0  0
  149.7442  139.0908  154.6449 C   0  0  0  0  0  0  0  0  0  0  0  0
  150.5674  137.7811  154.5399 C   0  0  0  0  0  0  0  0  0  0  0  0
  152.0604  138.0628  154.3043 C   0  0  0  0  0  0  0  0  0  0  0  0
  152.6391  138.9594  155.4075 C   0  0  0  0  0  0  0  0  0  0  0  0
  151.8405  140.2645  155.5266 C   0  0  0  0  0  0  0  0  0  0  0  0
  150.3470  139.9861  155.7604 C   0  0  0  0  0  0  0  0  0  0  0  0
  147.8876  139.2450  156.9067 H   0  0  0  0  0  0  0  0  0  0  0  0
  148.4430  137.6186  156.5528 H   0  0  0  0  0  0  0  0  0  0  0  0
  146.7760  138.0698  156.2384 H   0  0  0  0  0  0  0  0  0  0  0  0
  146.3753  140.1096  154.7062 H   0  0  0  0  0  0  0  0  0  0  0  0
  147.8425  141.0424  154.9151 H   0  0  0  0  0  0  0  0  0  0  0  0
  148.2784  140.1987  152.6708 H   0  0  0  0  0  0  0  0  0  0  0  0
  148.4716  137.5289  153.1675 H   0  0  0  0  0  0  0  0  0  0  0  0
  147.3822  136.3719  152.0859 H   0  0  0  0  0  0  0  0  0  0  0  0
  144.1156  136.3583  153.6936 H   0  0  0  0  0  0  0  0  0  0  0  0
  142.1412  134.9844  152.8388 H   0  0  0  0  0  0  0  0  0  0  0  0
  144.3480  133.4842  149.6821 H   0  0  0  0  0  0  0  0  0  0  0  0
  146.4125  134.7811  150.3659 H   0  0  0  0  0  0  0  0  0  0  0  0
  149.9201  139.6178  153.7067 H   0  0  0  0  0  0  0  0  0  0  0  0
  150.4645  137.1911  155.4502 H   0  0  0  0  0  0  0  0  0  0  0  0
  150.2041  137.1583  153.7236 H   0  0  0  0  0  0  0  0  0  0  0  0
  152.6126  137.1236  154.2621 H   0  0  0  0  0  0  0  0  0  0  0  0
  152.1944  138.5430  153.3339 H   0  0  0  0  0  0  0  0  0  0  0  0
  152.6193  138.4285  156.3601 H   0  0  0  0  0  0  0  0  0  0  0  0
  153.6858  139.1809  155.1978 H   0  0  0  0  0  0  0  0  0  0  0  0
  152.2374  140.8683  156.3431 H   0  0  0  0  0  0  0  0  0  0  0  0
  151.9647  140.8542  154.6175 H   0  0  0  0  0  0  0  0  0  0  0  0
  149.8261  140.9412  155.8211 H   0  0  0  0  0  0  0  0  0  0  0  0
  150.2280  139.5090  156.7330 H   0  0  0  0  0  0  0  0  0  0  0  0
  142.4176  133.6817  150.9443 H   0  0  0  0  0  0  0  0  0  0  0  0
  1  2  1  0  0  0  0
  1 21  1  0  0  0  0
  1 22  1  0  0  0  0
  1 23  1  0  0  0  0
  2  3  1  0  0  0  0
  2  5  1  0  0  0  0
  2 15  1  0  0  0  0
  3  4  1  0  0  0  0
  3 24  1  0  0  0  0
  3 25  1  0  0  0  0
  4 26  1  0  0  0  0
  5  6  1  0  0  0  0
  5 27  1  0  0  0  0
  6  7  2  0  0  0  0
  6  8  1  0  0  0  0
  8  9  1  0  0  0  0
  8 28  1  0  0  0  0
  9 14  1  0  0  0  0
  9 10  2  0  0  0  0
 10 11  1  0  0  0  0
 10 29  1  0  0  0  0
 11 12  2  0  0  0  0
 11 30  1  0  0  0  0
 12 13  1  0  0  0  0
 12 44  1  0  0  0  0
 13 14  2  0  0  0  0
 13 31  1  0  0  0  0
 14 32  1  0  0  0  0
 15 20  1  0  0  0  0
 15 16  1  0  0  0  0
 15 33  1  0  0  0  0
 16 17  1  0  0  0  0
 16 34  1  0  0  0  0
 16 35  1  0  0  0  0
 17 18  1  0  0  0  0
 17 36  1  0  0  0  0
 17 37  1  0  0  0  0
 18 19  1  0  0  0  0
 18 38  1  0  0  0  0
 18 39  1  0  0  0  0
 19 20  1  0  0  0  0
 19 40  1  0  0  0  0
 19 41  1  0  0  0  0
 20 42  1  0  0  0  0
 20 43  1  0  0  0  0
M  CHG  1  12   1
M  END
> <s_m_source_file>
AV-unprocessed.smi

> <i_m_source_file_index>
2639

> <i_lp_mmshare_version>
43012

> <i_f3d_flags>
0

> <s_epik_input>
W0NIMl0xW0NIMl1bQ0gyXVtDSDJdW0NIMl1bQ0hdMVtDQF0oW0NIM10pKFtDSDJdW09IXSlbTkhdQyg9TylbTkhdYzJbY0hdW2NIXW5bY0hdW2NIXTI=

> <s_epik_cmdline>
J2VwaWtfcHl0aG9uJywgJy1waCcsICc3LjAnLCAnLXRuJywgJzgnLCAnLW1hJywgJzIwMCcsICctbWV0YWxfYmluZGluZycsICctaW1hZScsICc8aW5maWxlLm1hZT4nLCAnLW9tYWUnLCAnPG91dGZpbGUubWFlPic=

> <r_epik_Ionization_Penalty>
1.0096

> <r_epik_Ionization_Penalty_Charging>
1.00958

> <r_epik_Ionization_Penalty_Neutral>
2.00022e-05

> <r_epik_State_Penalty>
1.05889

> <r_epik_Charging_Adjusted_Penalty>
2.06847

> <i_epik_Tot_Q>
1

> <i_epik_Tot_abs_Q>
1

> <r_epik_Metal_State_Penalty>
1.15945

> <b_epik_Metal_Only>
0

> <s_lp_Force_Field>
OPLS_2005

> <r_lp_Energy>
31.9269

> <b_lp_Chiralities_Consistent>
1

> <s_lp_Variant>
AV-unprocessed.smi:2639-4

> <Gold.Version>
5.8.1

> <Gold.Id.Protein>
6NUR|6NUR_protein|mol2

> <Gold.PLP.Fitness>
41.6378

> <Gold.PLP.PLP>
-30.5164

> <Gold.PLP.part.hbond>
-4.0000

> <Gold.PLP.part.metal>
0.0000

> <Gold.PLP.part.buried>
-3.4365

> <Gold.PLP.part.nonpolar>
-24.5800

> <Gold.PLP.part.repulsive>
0.1337

> <Gold.PLP.ligand.clash>
0.0000

> <Gold.PLP.ligand.torsion>
0.4671

> <Gold.PLP.Chemscore.Hbond>
3.9600

> <Gold.PLP.Chemscore.CHOScore>
0.0000

> <Gold.PLP.Chemscore.Metal>
0.0000

> <Gold.Chemscore.Hbonds>
donor molecule, donor type, donor heavy atom, donor atom, acceptor molecule, acceptor atom, score
      L1  H     4    26       P1  7957  1.00
      L1  H     5    27       P1  7948  0.94
      L1  H     8    28       P1  7948  1.00
      L1  H    12    44       P1 10186  0.75

> <Gold.PLP.Chemscore.Internal.Correction>
0.1755

> <Gold.Rescore>
     Score         DG    S(hbond)    S(metal)    S(lipo)     H(rot)  DE(clash)    DE(int)     intcor
     18.70     -20.91       3.43        0.00      78.18       2.02       0.16       2.05       ----

> <Gold.Chemscore.Fitness>
18.6950

> <Gold.Chemscore.DG>
-20.9087

> <Gold.Chemscore.ZeroCoef>
-5.4800

> <Gold.Chemscore.Hbond>
3.4264

> <Gold.Chemscore.Metal>
0.0000

> <Gold.Chemscore.Lipo>
78.1778

> <Gold.Chemscore.Internal_Hbond>
0.0000

> <Gold.Chemscore.DEClash>
0.1629

> <Gold.Chemscore.DEInternal>
2.0508

> <Gold.Chemscore.Rot>
2.0165

> <Gold.Chemscore.Internal.Correction>
   9.000000E+99

> <Gold.Chemscore.Hbonds>
donor molecule, donor type, donor heavy atom, donor atom, acceptor molecule, acceptor atom, score
      L1  H     4    26       P1  7957  0.91
      L1  H     5    27       P1  7948  0.91
      L1  H     8    28       P1  7948  0.97
      L1  H    12    44       P1 10186  0.27

> <Gold.Chemscore.Hbond.Weighted>
-11.4441

> <Gold.Chemscore.Metal.Weighted>
-0.0000

> <Gold.Chemscore.Lipo.Weighted>
-9.1468

> <Gold.Chemscore.Internal_Hbond.Weighted>
0.0000

> <Gold.Chemscore.DEClash.Weighted>
0.1629

> <Gold.Chemscore.DEInternal.Weighted>
2.0508

> <Gold.Chemscore.Rot.Weighted>
5.1622

> <Gold.Chemscore.Internal.Correction.Weighted>
   9.000000E+99

> <Gold.Protein.RotatedTorsions>
[ 6907 6896 6895 6894 ] final -167.67 input  -60.11 | X-H torsion
[ 7974 7965 7964 7962 ] final  -53.74 input  175.53 | X-H torsion
[ 8008 7997 7996 7995 ] final   88.92 input   59.86 | X-H torsion
[ 10167 10162 10161 10158 ] final -112.09 input  -65.29 | X-H torsion
[ 10718 10713 10712 10709 ] final   -3.73 input   66.30 | X-H torsion
[ 10763 10752 10751 10750 ] final -174.12 input  -60.55 | X-H torsion
[ 11005 11000 10999 10996 ] final  -41.67 input  -57.11 | X-H torsion

> <Gold.Protein.ActiveResidues>
 VAL166  LYS551  ARG553  GLY616  TRP617  ASP618  TYR619  PRO620  LYS621  CYS622 
 ASP623  PHE694  ASN695  SER759  ASP760  ASP761  ALA762  ILE779  LEU786  VAL792 
 PHE793  MET794  SER795  GLU796  ALA797  LYS798  CYS799  TRP800  GLU811  SER814 

> <Gold.Protein.RotatedAtoms>
  151.4633  133.3587  159.2812 H   0  0  0  0  0  0  0  0  0  0  0  0  # atno 6907 bound_to 6896
  150.9011  134.8424  159.7371 H   0  0  0  0  0  0  0  0  0  0  0  0  # atno 6908 bound_to 6896
  152.4879  134.4553  159.9639 H   0  0  0  0  0  0  0  0  0  0  0  0  # atno 6909 bound_to 6896
  145.8935  140.8052  142.9779 H   0  0  0  0  0  0  0  0  0  0  0  0  # atno 7974 bound_to 7965
  155.9937  140.3366  155.6778 H   0  0  0  0  0  0  0  0  0  0  0  0  # atno 8008 bound_to 7997
  155.6386  140.0692  157.2644 H   0  0  0  0  0  0  0  0  0  0  0  0  # atno 8009 bound_to 7997
  154.4227  140.1747  156.1536 H   0  0  0  0  0  0  0  0  0  0  0  0  # atno 8010 bound_to 7997
  140.1265  143.4398  152.1656 H   0  0  0  0  0  0  0  0  0  0  0  0  # atno 10167 bound_to 10162
  156.7718  130.5302  149.5766 H   0  0  0  0  0  0  0  0  0  0  0  0  # atno 10718 bound_to 10713
  154.6000  135.2853  155.0546 H   0  0  0  0  0  0  0  0  0  0  0  0  # atno 10763 bound_to 10752
  154.1814  135.6456  153.5039 H   0  0  0  0  0  0  0  0  0  0  0  0  # atno 10764 bound_to 10752
  153.0153  135.5424  154.6715 H   0  0  0  0  0  0  0  0  0  0  0  0  # atno 10765 bound_to 10752
  141.0262  133.6840  156.2489 H   0  0  0  0  0  0  0  0  0  0  0  0  # atno 11005 bound_to 11000
  144.6731  140.1566  143.7426 LP  0  0  0  0  0  0  0  0  0  0  0  0  # atno 17320 bound_to 7965
  145.8879  139.2359  143.1566 LP  0  0  0  0  0  0  0  0  0  0  0  0  # atno 17321 bound_to 7965
  139.5542  144.7360  151.4345 LP  0  0  0  0  0  0  0  0  0  0  0  0  # atno 17342 bound_to 10162
  140.6842  143.8012  150.7163 LP  0  0  0  0  0  0  0  0  0  0  0  0  # atno 17343 bound_to 10162
  156.1273  130.6153  151.0282 LP  0  0  0  0  0  0  0  0  0  0  0  0  # atno 17370 bound_to 10713
  157.6687  131.0866  150.7664 LP  0  0  0  0  0  0  0  0  0  0  0  0  # atno 17371 bound_to 10713
  140.6487  134.5090  157.5576 LP  0  0  0  0  0  0  0  0  0  0  0  0  # atno 17394 bound_to 11000
  139.9177  134.8211  156.1310 LP  0  0  0  0  0  0  0  0  0  0  0  0  # atno 17395 bound_to 11000

$$$$
