AV-unprocessed.smi:772|AV-procd|sdf|3685|dock4
  -GOLD-   22720 1103D 1   1.00000     0.00000
 Structure written by MMmdl.
 46 47  0  0  0  0  0  0  0  0  1 V2000
  152.4548  143.2994  161.8841 C   0  0  0  0  0  0  0  0  0  0  0  0
  152.3961  142.3474  160.7081 C   0  0  0  0  0  0  0  0  0  0  0  0
  153.4416  141.4317  160.4654 C   0  0  0  0  0  0  0  0  0  0  0  0
  153.3412  140.5804  159.3484 C   0  0  0  0  0  0  0  0  0  0  0  0
  152.2046  140.6769  158.5200 C   0  0  0  0  0  0  0  0  0  0  0  0
  152.0710  139.8101  157.2801 C   0  0  0  0  0  0  0  0  0  0  0  0
  152.1612  138.3001  157.5740 C   0  0  0  0  0  0  0  0  0  0  0  0
  150.8417  137.6790  157.6672 N   0  0  0  0  0  0  0  0  0  0  0  0
  150.3236  137.0907  158.7602 C   0  0  0  0  0  0  0  0  0  0  0  0
  150.9224  137.0598  159.8365 O   0  0  0  0  0  0  0  0  0  0  0  0
  149.1241  136.4873  158.5636 N   0  0  0  0  0  0  0  0  0  0  0  0
  148.2326  136.6952  157.4114 C   0  0  0  0  0  0  0  0  0  0  0  0
  147.1722  137.7427  157.7846 C   0  0  0  0  0  0  0  0  0  0  0  0
  146.1341  137.1572  159.1595 S   0  0  0  0  0  0  0  0  0  0  0  0
  147.4271  136.6331  160.3413 C   0  0  1  0  0  0  0  0  0  0  0  0
  146.8324  135.9837  161.6165 C   0  0  0  0  0  0  0  0  0  0  0  0
  145.6049  136.7232  162.1810 C   0  0  0  0  0  0  0  0  0  0  0  0
  147.8979  135.7765  162.7066 C   0  0  0  0  0  0  0  0  0  0  0  0
  148.4621  135.7309  159.6331 C   0  0  0  0  0  0  0  0  0  0  0  0
  151.2115  141.6217  158.8560 C   0  0  0  0  0  0  0  0  0  0  0  0
  151.3001  142.4433  159.9235 N   0  0  0  0  0  0  0  0  0  0  0  0
  153.2766  143.0484  162.5553 H   0  0  0  0  0  0  0  0  0  0  0  0
  151.5267  143.2597  162.4552 H   0  0  0  0  0  0  0  0  0  0  0  0
  152.6004  144.3215  161.5335 H   0  0  0  0  0  0  0  0  0  0  0  0
  154.3048  141.3858  161.1128 H   0  0  0  0  0  0  0  0  0  0  0  0
  154.1289  139.8760  159.1251 H   0  0  0  0  0  0  0  0  0  0  0  0
  151.1192  140.0342  156.7973 H   0  0  0  0  0  0  0  0  0  0  0  0
  152.8460  140.0907  156.5655 H   0  0  0  0  0  0  0  0  0  0  0  0
  152.7664  137.8065  156.8117 H   0  0  0  0  0  0  0  0  0  0  0  0
  152.6801  138.1423  158.5195 H   0  0  0  0  0  0  0  0  0  0  0  0
  150.2938  137.6538  156.8197 H   0  0  0  0  0  0  0  0  0  0  0  0
  148.7606  137.0065  156.5102 H   0  0  0  0  0  0  0  0  0  0  0  0
  147.7490  135.7554  157.1410 H   0  0  0  0  0  0  0  0  0  0  0  0
  147.6475  138.6814  158.0716 H   0  0  0  0  0  0  0  0  0  0  0  0
  146.5308  137.9568  156.9295 H   0  0  0  0  0  0  0  0  0  0  0  0
  147.9461  137.5411  160.6528 H   0  0  0  0  0  0  0  0  0  0  0  0
  146.4935  134.9863  161.3329 H   0  0  0  0  0  0  0  0  0  0  0  0
  145.8549  137.7319  162.5100 H   0  0  0  0  0  0  0  0  0  0  0  0
  145.1962  136.1925  163.0412 H   0  0  0  0  0  0  0  0  0  0  0  0
  144.8055  136.7996  161.4447 H   0  0  0  0  0  0  0  0  0  0  0  0
  148.2803  136.7253  163.0832 H   0  0  0  0  0  0  0  0  0  0  0  0
  148.7441  135.2032  162.3268 H   0  0  0  0  0  0  0  0  0  0  0  0
  147.4875  135.2286  163.5552 H   0  0  0  0  0  0  0  0  0  0  0  0
  147.9808  134.8485  159.2101 H   0  0  0  0  0  0  0  0  0  0  0  0
  149.1849  135.3449  160.3537 H   0  0  0  0  0  0  0  0  0  0  0  0
  150.3295  141.7345  158.2428 H   0  0  0  0  0  0  0  0  0  0  0  0
  1  2  1  0  0  0  0
  1 22  1  0  0  0  0
  1 23  1  0  0  0  0
  1 24  1  0  0  0  0
  2 21  1  0  0  0  0
  2  3  2  0  0  0  0
  3  4  1  0  0  0  0
  3 25  1  0  0  0  0
  4  5  2  0  0  0  0
  4 26  1  0  0  0  0
  5  6  1  0  0  0  0
  5 20  1  0  0  0  0
  6  7  1  0  0  0  0
  6 27  1  0  0  0  0
  6 28  1  0  0  0  0
  7  8  1  0  0  0  0
  7 29  1  0  0  0  0
  7 30  1  0  0  0  0
  8  9  1  0  0  0  0
  8 31  1  0  0  0  0
  9 10  2  0  0  0  0
  9 11  1  0  0  0  0
 11 19  1  0  0  0  0
 11 12  1  0  0  0  0
 12 13  1  0  0  0  0
 12 32  1  0  0  0  0
 12 33  1  0  0  0  0
 13 14  1  0  0  0  0
 13 34  1  0  0  0  0
 13 35  1  0  0  0  0
 14 15  1  0  0  0  0
 15 16  1  0  0  0  0
 15 19  1  0  0  0  0
 15 36  1  0  0  0  0
 16 17  1  0  0  0  0
 16 18  1  0  0  0  0
 16 37  1  0  0  0  0
 17 38  1  0  0  0  0
 17 39  1  0  0  0  0
 17 40  1  0  0  0  0
 18 41  1  0  0  0  0
 18 42  1  0  0  0  0
 18 43  1  0  0  0  0
 19 44  1  0  0  0  0
 19 45  1  0  0  0  0
 20 21  2  0  0  0  0
 20 46  1  0  0  0  0
M  END
> <s_m_source_file>
AV-unprocessed.smi

> <i_m_source_file_index>
772

> <i_lp_mmshare_version>
43012

> <i_f3d_flags>
0

> <s_epik_input>
W0NIM11jMVtjSF1bY0hdYyhbY0hdbjEpW0NIMl1bQ0gyXVtOSF1DKD1PKU4yW0NIMl1bQ0gyXVNbQ0BIXShbQ0gyXTIpW0NIXShbQ0gzXSlbQ0gzXQ==

> <s_epik_cmdline>
J2VwaWtfcHl0aG9uJywgJy1waCcsICc3LjAnLCAnLXRuJywgJzgnLCAnLW1hJywgJzIwMCcsICctbWV0YWxfYmluZGluZycsICctaW1hZScsICc8aW5maWxlLm1hZT4nLCAnLW9tYWUnLCAnPG91dGZpbGUubWFlPic=

> <r_epik_Ionization_Penalty>
0.0566916

> <r_epik_Ionization_Penalty_Charging>
0

> <r_epik_Ionization_Penalty_Neutral>
0.0566916

> <r_epik_State_Penalty>
0.0488669

> <r_epik_Charging_Adjusted_Penalty>
0.0488669

> <i_epik_Tot_Q>
0

> <i_epik_Tot_abs_Q>
0

> <r_epik_Metal_State_Penalty>
0.0445784

> <b_epik_Metal_Only>
0

> <s_lp_Force_Field>
OPLS_2005

> <r_lp_Energy>
25.3974

> <b_lp_Chiralities_Consistent>
1

> <s_lp_Variant>
AV-unprocessed.smi:772-1

> <Gold.Version>
5.8.1

> <Gold.Id.Protein>
6NUR|6NUR_protein|mol2

> <Gold.PLP.Fitness>
40.6037

> <Gold.PLP.PLP>
-38.6152

> <Gold.PLP.part.hbond>
-2.2000

> <Gold.PLP.part.metal>
0.0000

> <Gold.PLP.part.buried>
-5.4604

> <Gold.PLP.part.nonpolar>
-31.2935

> <Gold.PLP.part.repulsive>
0.0607

> <Gold.PLP.ligand.clash>
0.0000

> <Gold.PLP.ligand.torsion>
0.4691

> <Gold.PLP.Chemscore.Hbond>
0.9425

> <Gold.PLP.Chemscore.CHOScore>
0.0000

> <Gold.PLP.Chemscore.Metal>
0.0000

> <Gold.Chemscore.Hbonds>
donor molecule, donor type, donor heavy atom, donor atom, acceptor molecule, acceptor atom, score
      P1  H  6896  6907       L1    10  0.90

> <Gold.PLP.Chemscore.Internal.Correction>
0.0993

> <Gold.Rescore>
     Score         DG    S(hbond)    S(metal)    S(lipo)     H(rot)  DE(clash)    DE(int)     intcor
     16.25     -16.95       1.02        0.00      97.89       1.32       0.00       0.70       ----

> <Gold.Chemscore.Fitness>
16.2495

> <Gold.Chemscore.DG>
-16.9526

> <Gold.Chemscore.ZeroCoef>
-5.4800

> <Gold.Chemscore.Hbond>
1.0202

> <Gold.Chemscore.Metal>
0.0000

> <Gold.Chemscore.Lipo>
97.8883

> <Gold.Chemscore.Internal_Hbond>
0.0000

> <Gold.Chemscore.DEClash>
0.0038

> <Gold.Chemscore.DEInternal>
0.6994

> <Gold.Chemscore.Rot>
1.3233

> <Gold.Chemscore.Internal.Correction>
   9.000000E+99

> <Gold.Chemscore.Hbonds>
donor molecule, donor type, donor heavy atom, donor atom, acceptor molecule, acceptor atom, score
      P1  H  6896  6907       L1    10  0.18

> <Gold.Chemscore.Hbond.Weighted>
-3.4073

> <Gold.Chemscore.Metal.Weighted>
-0.0000

> <Gold.Chemscore.Lipo.Weighted>
-11.4529

> <Gold.Chemscore.Internal_Hbond.Weighted>
0.0000

> <Gold.Chemscore.DEClash.Weighted>
0.0038

> <Gold.Chemscore.DEInternal.Weighted>
0.6994

> <Gold.Chemscore.Rot.Weighted>
3.3876

> <Gold.Chemscore.Internal.Correction.Weighted>
   9.000000E+99

> <Gold.Protein.RotatedTorsions>
[ 6907 6896 6895 6894 ] final  -19.50 input  -60.11 | X-H torsion
[ 7974 7965 7964 7962 ] final -106.73 input  175.53 | X-H torsion
[ 8008 7997 7996 7995 ] final  135.43 input   59.86 | X-H torsion
[ 10167 10162 10161 10158 ] final -127.21 input  -65.29 | X-H torsion
[ 10718 10713 10712 10709 ] final   25.21 input   66.30 | X-H torsion
[ 10763 10752 10751 10750 ] final -117.45 input  -60.55 | X-H torsion
[ 11005 11000 10999 10996 ] final -165.65 input  -57.11 | X-H torsion

> <Gold.Protein.ActiveResidues>
 VAL166  LYS551  ARG553  GLY616  TRP617  ASP618  TYR619  PRO620  LYS621  CYS622 
 ASP623  PHE694  ASN695  SER759  ASP760  ASP761  ALA762  ILE779  LEU786  VAL792 
 PHE793  MET794  SER795  GLU796  ALA797  LYS798  CYS799  TRP800  GLU811  SER814 

> <Gold.Protein.RotatedAtoms>
  151.2622  135.0657  159.9102 H   0  0  0  0  0  0  0  0  0  0  0  0  # atno 6907 bound_to 6896
  152.5364  134.0219  159.7996 H   0  0  0  0  0  0  0  0  0  0  0  0  # atno 6908 bound_to 6896
  151.0444  133.5628  159.2679 H   0  0  0  0  0  0  0  0  0  0  0  0  # atno 6909 bound_to 6896
  145.2141  140.9108  143.3297 H   0  0  0  0  0  0  0  0  0  0  0  0  # atno 7974 bound_to 7965
  156.3003  140.2471  156.3581 H   0  0  0  0  0  0  0  0  0  0  0  0  # atno 8008 bound_to 7997
  154.8903  140.0409  157.1854 H   0  0  0  0  0  0  0  0  0  0  0  0  # atno 8009 bound_to 7997
  154.8605  140.2920  155.5546 H   0  0  0  0  0  0  0  0  0  0  0  0  # atno 8010 bound_to 7997
  139.9633  143.5926  152.2438 H   0  0  0  0  0  0  0  0  0  0  0  0  # atno 10167 bound_to 10162
  157.1902  130.6842  149.6147 H   0  0  0  0  0  0  0  0  0  0  0  0  # atno 10718 bound_to 10713
  154.8555  135.4309  154.1981 H   0  0  0  0  0  0  0  0  0  0  0  0  # atno 10763 bound_to 10752
  153.3034  135.6970  153.7188 H   0  0  0  0  0  0  0  0  0  0  0  0  # atno 10764 bound_to 10752
  153.6308  135.3485  155.3015 H   0  0  0  0  0  0  0  0  0  0  0  0  # atno 10765 bound_to 10752
  140.5733  134.5216  157.5165 H   0  0  0  0  0  0  0  0  0  0  0  0  # atno 11005 bound_to 11000
  144.9827  139.3767  143.6254 LP  0  0  0  0  0  0  0  0  0  0  0  0  # atno 17320 bound_to 7965
  146.3391  139.8975  142.8799 LP  0  0  0  0  0  0  0  0  0  0  0  0  # atno 17321 bound_to 7965
  139.6537  144.7661  151.2097 LP  0  0  0  0  0  0  0  0  0  0  0  0  # atno 17342 bound_to 10162
  140.7546  143.6119  150.8597 LP  0  0  0  0  0  0  0  0  0  0  0  0  # atno 17343 bound_to 10162
  155.9713  130.4617  150.6119 LP  0  0  0  0  0  0  0  0  0  0  0  0  # atno 17370 bound_to 10713
  157.3868  131.0789  151.1429 LP  0  0  0  0  0  0  0  0  0  0  0  0  # atno 17371 bound_to 10713
  139.9351  134.7889  156.0823 LP  0  0  0  0  0  0  0  0  0  0  0  0  # atno 17394 bound_to 11000
  141.1042  133.6666  156.2826 LP  0  0  0  0  0  0  0  0  0  0  0  0  # atno 17395 bound_to 11000

$$$$
