AV-unprocessed.smi:2015|AV-procd|sdf|8163|dock1
  -GOLD-   2272010413D 1   1.00000     0.00000
 Structure written by MMmdl.
 47 48  0  0  0  0  0  0  0  0  1 V2000
  145.8150  134.1210  150.8806 C   0  0  0  0  0  0  0  0  0  0  0  0
  146.0713  135.2032  151.7581 O   0  0  0  0  0  0  0  0  0  0  0  0
  145.0804  136.2149  151.6795 C   0  0  0  0  0  0  0  0  0  0  0  0
  145.4727  137.3853  152.5899 C   0  0  0  0  0  0  0  0  0  0  0  0
  146.6950  138.1643  152.0676 C   0  0  0  0  0  0  0  0  0  0  0  0
  147.3297  139.0768  153.1226 C   0  0  0  0  0  0  0  0  0  0  0  0
  146.6934  140.0244  153.5836 O   0  0  0  0  0  0  0  0  0  0  0  0
  148.5922  138.7643  153.4684 N   0  0  0  0  0  0  0  0  0  0  0  0
  149.4474  139.4152  154.3983 C   0  0  0  0  0  0  0  0  0  0  0  0
  150.7918  139.0507  154.6408 C   0  0  0  0  0  0  0  0  0  0  0  0
  151.5380  139.7844  155.5829 C   0  0  0  0  0  0  0  0  0  0  0  0
  150.9291  140.8687  156.2572 C   0  0  0  0  0  0  0  0  0  0  0  0
  151.6571  141.6068  157.2153 N   0  0  0  0  0  0  0  0  0  0  0  0
  152.0912  140.8510  158.3869 C   0  0  0  0  0  0  0  0  0  0  0  0
  153.1168  141.6609  159.2023 C   0  0  2  0  0  0  0  0  0  0  0  0
  153.5029  140.9529  160.5053 C   0  0  0  0  0  0  0  0  0  0  0  0
  152.5584  142.9298  159.5321 O   0  0  0  0  0  0  0  0  0  0  0  0
  152.2429  143.7023  158.3771 C   0  0  2  0  0  0  0  0  0  0  0  0
  151.7406  145.0743  158.8386 C   0  0  0  0  0  0  0  0  0  0  0  0
  151.1891  142.9525  157.5411 C   0  0  0  0  0  0  0  0  0  0  0  0
  149.6476  141.2304  156.0034 N   0  0  0  0  0  0  0  0  0  0  0  0
  148.9359  140.5242  155.1007 C   0  0  0  0  0  0  0  0  0  0  0  0
  146.6035  133.3750  150.9795 H   0  0  0  0  0  0  0  0  0  0  0  0
  145.7932  134.4520  149.8416 H   0  0  0  0  0  0  0  0  0  0  0  0
  144.8649  133.6396  151.1155 H   0  0  0  0  0  0  0  0  0  0  0  0
  144.9961  136.5653  150.6496 H   0  0  0  0  0  0  0  0  0  0  0  0
  144.1059  135.8196  151.9707 H   0  0  0  0  0  0  0  0  0  0  0  0
  144.6192  138.0554  152.7035 H   0  0  0  0  0  0  0  0  0  0  0  0
  145.6903  136.9929  153.5842 H   0  0  0  0  0  0  0  0  0  0  0  0
  147.4557  137.4685  151.7123 H   0  0  0  0  0  0  0  0  0  0  0  0
  146.4009  138.7699  151.2090 H   0  0  0  0  0  0  0  0  0  0  0  0
  149.0136  138.0049  152.9530 H   0  0  0  0  0  0  0  0  0  0  0  0
  151.2704  138.2381  154.1170 H   0  0  0  0  0  0  0  0  0  0  0  0
  152.5685  139.5178  155.7646 H   0  0  0  0  0  0  0  0  0  0  0  0
  151.2171  140.6261  158.9998 H   0  0  0  0  0  0  0  0  0  0  0  0
  152.5346  139.8964  158.1065 H   0  0  0  0  0  0  0  0  0  0  0  0
  154.0207  141.8109  158.6091 H   0  0  0  0  0  0  0  0  0  0  0  0
  153.9440  139.9762  160.3052 H   0  0  0  0  0  0  0  0  0  0  0  0
  152.6331  140.8031  161.1454 H   0  0  0  0  0  0  0  0  0  0  0  0
  154.2321  141.5383  161.0658 H   0  0  0  0  0  0  0  0  0  0  0  0
  153.1480  143.8458  157.7840 H   0  0  0  0  0  0  0  0  0  0  0  0
  151.4991  145.7103  157.9867 H   0  0  0  0  0  0  0  0  0  0  0  0
  152.4976  145.5869  159.4322 H   0  0  0  0  0  0  0  0  0  0  0  0
  150.8437  144.9803  159.4514 H   0  0  0  0  0  0  0  0  0  0  0  0
  150.9881  143.5111  156.6258 H   0  0  0  0  0  0  0  0  0  0  0  0
  150.2509  142.8827  158.0939 H   0  0  0  0  0  0  0  0  0  0  0  0
  147.9201  140.8546  154.9399 H   0  0  0  0  0  0  0  0  0  0  0  0
  1  2  1  0  0  0  0
  1 23  1  0  0  0  0
  1 24  1  0  0  0  0
  1 25  1  0  0  0  0
  2  3  1  0  0  0  0
  3  4  1  0  0  0  0
  3 26  1  0  0  0  0
  3 27  1  0  0  0  0
  4  5  1  0  0  0  0
  4 28  1  0  0  0  0
  4 29  1  0  0  0  0
  5  6  1  0  0  0  0
  5 30  1  0  0  0  0
  5 31  1  0  0  0  0
  6  7  2  0  0  0  0
  6  8  1  0  0  0  0
  8  9  1  0  0  0  0
  8 32  1  0  0  0  0
  9 22  1  0  0  0  0
  9 10  2  0  0  0  0
 10 11  1  0  0  0  0
 10 33  1  0  0  0  0
 11 12  2  0  0  0  0
 11 34  1  0  0  0  0
 12 13  1  0  0  0  0
 12 21  1  0  0  0  0
 13 20  1  0  0  0  0
 13 14  1  0  0  0  0
 14 15  1  0  0  0  0
 14 35  1  0  0  0  0
 14 36  1  0  0  0  0
 15 16  1  0  0  0  0
 15 17  1  0  0  0  0
 15 37  1  0  0  0  0
 16 38  1  0  0  0  0
 16 39  1  0  0  0  0
 16 40  1  0  0  0  0
 17 18  1  0  0  0  0
 18 19  1  0  0  0  0
 18 20  1  0  0  0  0
 18 41  1  0  0  0  0
 19 42  1  0  0  0  0
 19 43  1  0  0  0  0
 19 44  1  0  0  0  0
 20 45  1  0  0  0  0
 20 46  1  0  0  0  0
 21 22  2  0  0  0  0
 22 47  1  0  0  0  0
M  END
> <s_m_source_file>
AV-unprocessed.smi

> <i_m_source_file_index>
2015

> <i_lp_mmshare_version>
43012

> <i_f3d_flags>
0

> <s_epik_input>
W0NIM11PW0NIMl1bQ0gyXVtDSDJdQyg9TylbTkhdYzFbY0hdW2NIXWMobltjSF0xKU4yW0NIMl1bQ0BASF0oW0NIM10pT1tDQEBIXShbQ0gzXSlbQ0gyXTI=

> <s_epik_cmdline>
J2VwaWtfcHl0aG9uJywgJy1waCcsICc3LjAnLCAnLXRuJywgJzgnLCAnLW1hJywgJzIwMCcsICctbWV0YWxfYmluZGluZycsICctaW1hZScsICc8aW5maWxlLm1hZT4nLCAnLW9tYWUnLCAnPG91dGZpbGUubWFlPic=

> <r_lp_tautomer_probability>
1

> <r_epik_Ionization_Penalty>
0.000816358

> <r_epik_Ionization_Penalty_Charging>
0

> <r_epik_Ionization_Penalty_Neutral>
0.000816358

> <r_epik_State_Penalty>
0.000521115

> <r_epik_Charging_Adjusted_Penalty>
0.000521115

> <i_epik_Tot_Q>
0

> <i_epik_Tot_abs_Q>
0

> <r_epik_Metal_State_Penalty>
-0

> <b_epik_Metal_Only>
0

> <s_lp_Force_Field>
OPLS_2005

> <r_lp_Energy>
22.1268

> <b_lp_Chiralities_Consistent>
1

> <s_lp_Variant>
AV-unprocessed.smi:2015-1

> <Gold.Version>
5.8.1

> <Gold.Id.Protein>
6NUR|6NUR_protein|mol2

> <Gold.PLP.Fitness>
46.7789

> <Gold.PLP.PLP>
-44.1886

> <Gold.PLP.part.hbond>
-2.0000

> <Gold.PLP.part.metal>
0.0000

> <Gold.PLP.part.buried>
-3.2029

> <Gold.PLP.part.nonpolar>
-41.3382

> <Gold.PLP.part.repulsive>
1.4853

> <Gold.PLP.ligand.clash>
0.0000

> <Gold.PLP.ligand.torsion>
0.4006

> <Gold.PLP.Chemscore.Hbond>
1.0000

> <Gold.PLP.Chemscore.CHOScore>
0.0000

> <Gold.PLP.Chemscore.Metal>
0.0000

> <Gold.Chemscore.Hbonds>
donor molecule, donor type, donor heavy atom, donor atom, acceptor molecule, acceptor atom, score
      L1  H     8    32       P1  7948  0.94

> <Gold.PLP.Chemscore.Internal.Correction>
0.3916

> <Gold.Rescore>
     Score         DG    S(hbond)    S(metal)    S(lipo)     H(rot)  DE(clash)    DE(int)     intcor
     15.14     -17.48       0.91        0.00     113.35       1.68       0.56       1.78       ----

> <Gold.Chemscore.Fitness>
15.1442

> <Gold.Chemscore.DG>
-17.4830

> <Gold.Chemscore.ZeroCoef>
-5.4800

> <Gold.Chemscore.Hbond>
0.9127

> <Gold.Chemscore.Metal>
0.0000

> <Gold.Chemscore.Lipo>
113.3540

> <Gold.Chemscore.Internal_Hbond>
0.0000

> <Gold.Chemscore.DEClash>
0.5602

> <Gold.Chemscore.DEInternal>
1.7786

> <Gold.Chemscore.Rot>
1.6827

> <Gold.Chemscore.Internal.Correction>
   9.000000E+99

> <Gold.Chemscore.Hbonds>
donor molecule, donor type, donor heavy atom, donor atom, acceptor molecule, acceptor atom, score
      L1  H     8    32       P1  7948  0.88

> <Gold.Chemscore.Hbond.Weighted>
-3.0484

> <Gold.Chemscore.Metal.Weighted>
-0.0000

> <Gold.Chemscore.Lipo.Weighted>
-13.2624

> <Gold.Chemscore.Internal_Hbond.Weighted>
0.0000

> <Gold.Chemscore.DEClash.Weighted>
0.5602

> <Gold.Chemscore.DEInternal.Weighted>
1.7786

> <Gold.Chemscore.Rot.Weighted>
4.3078

> <Gold.Chemscore.Internal.Correction.Weighted>
   9.000000E+99

> <Gold.Protein.RotatedTorsions>
[ 6907 6896 6895 6894 ] final  -18.65 input  -60.11 | X-H torsion
[ 7974 7965 7964 7962 ] final  -43.18 input  175.53 | X-H torsion
[ 8008 7997 7996 7995 ] final   41.98 input   59.86 | X-H torsion
[ 10167 10162 10161 10158 ] final -162.29 input  -65.29 | X-H torsion
[ 10718 10713 10712 10709 ] final   46.68 input   66.30 | X-H torsion
[ 10763 10752 10751 10750 ] final   87.84 input  -60.55 | X-H torsion
[ 11005 11000 10999 10996 ] final   37.10 input  -57.11 | X-H torsion

> <Gold.Protein.ActiveResidues>
 VAL166  LYS551  ARG553  GLY616  TRP617  ASP618  TYR619  PRO620  LYS621  CYS622 
 ASP623  PHE694  ASN695  SER759  ASP760  ASP761  ALA762  ILE779  LEU786  VAL792 
 PHE793  MET794  SER795  GLU796  ALA797  LYS798  CYS799  TRP800  GLU811  SER814 

> <Gold.Protein.RotatedAtoms>
  151.2750  135.0696  159.9147 H   0  0  0  0  0  0  0  0  0  0  0  0  # atno 6907 bound_to 6896
  152.5344  134.0091  159.7940 H   0  0  0  0  0  0  0  0  0  0  0  0  # atno 6908 bound_to 6896
  151.0335  133.5719  159.2689 H   0  0  0  0  0  0  0  0  0  0  0  0  # atno 6909 bound_to 6896
  146.0043  140.7038  142.9255 H   0  0  0  0  0  0  0  0  0  0  0  0  # atno 7974 bound_to 7965
  155.2787  140.3371  155.4260 H   0  0  0  0  0  0  0  0  0  0  0  0  # atno 8008 bound_to 7997
  156.2100  140.1766  156.7757 H   0  0  0  0  0  0  0  0  0  0  0  0  # atno 8009 bound_to 7997
  154.5673  140.0676  156.8895 H   0  0  0  0  0  0  0  0  0  0  0  0  # atno 8010 bound_to 7997
  139.6403  144.0273  152.2086 H   0  0  0  0  0  0  0  0  0  0  0  0  # atno 10167 bound_to 10162
  157.4506  130.8136  149.7785 H   0  0  0  0  0  0  0  0  0  0  0  0  # atno 10718 bound_to 10713
  153.1709  135.4529  154.9900 H   0  0  0  0  0  0  0  0  0  0  0  0  # atno 10763 bound_to 10752
  154.7965  135.3239  154.7657 H   0  0  0  0  0  0  0  0  0  0  0  0  # atno 10764 bound_to 10752
  153.8133  135.6953  153.4892 H   0  0  0  0  0  0  0  0  0  0  0  0  # atno 10765 bound_to 10752
  140.2259  134.3585  155.7984 H   0  0  0  0  0  0  0  0  0  0  0  0  # atno 11005 bound_to 11000
  144.6930  140.3288  143.7219 LP  0  0  0  0  0  0  0  0  0  0  0  0  # atno 17320 bound_to 7965
  145.7439  139.1772  143.2360 LP  0  0  0  0  0  0  0  0  0  0  0  0  # atno 17321 bound_to 7965
  139.9960  144.6327  150.7771 LP  0  0  0  0  0  0  0  0  0  0  0  0  # atno 17342 bound_to 10162
  140.7487  143.2927  151.3288 LP  0  0  0  0  0  0  0  0  0  0  0  0  # atno 17343 bound_to 10162
  155.9985  130.3893  150.2697 LP  0  0  0  0  0  0  0  0  0  0  0  0  # atno 17370 bound_to 10713
  157.0869  131.0159  151.3136 LP  0  0  0  0  0  0  0  0  0  0  0  0  # atno 17371 bound_to 10713
  141.2220  133.7219  156.8652 LP  0  0  0  0  0  0  0  0  0  0  0  0  # atno 17394 bound_to 11000
  140.1801  134.9039  157.2938 LP  0  0  0  0  0  0  0  0  0  0  0  0  # atno 17395 bound_to 11000

$$$$
