AV-unprocessed.smi:2322|AV-procd|sdf|9285|dock9
  -GOLD-   2272012513D 1   1.00000     0.00000
 Structure written by MMmdl.
 38 40  0  0  0  0  0  0  0  0  1 V2000
  146.8457  133.2871  151.1419 C   0  0  0  0  0  0  0  0  0  0  0  0
  145.5793  133.8986  151.4960 N   0  0  0  0  0  0  0  0  0  0  0  0
  144.4083  133.2703  151.2381 N   0  0  0  0  0  0  0  0  0  0  0  0
  143.5044  134.1328  151.7011 C   0  0  0  0  0  0  0  0  0  0  0  0
  143.9998  135.2829  152.2462 N   0  0  0  0  0  0  0  0  0  0  0  0
  145.3029  135.0670  152.0841 C   0  0  0  0  0  0  0  0  0  0  0  0
  146.3704  135.9338  152.4643 N   0  0  0  0  0  0  0  0  0  0  0  0
  146.3664  137.1224  153.1034 C   0  0  0  0  0  0  0  0  0  0  0  0
  145.3131  137.6418  153.4684 O   0  0  0  0  0  0  0  0  0  0  0  0
  147.5664  137.6885  153.3114 N   0  0  0  0  0  0  0  0  0  0  0  0
  147.7987  138.9617  153.9852 C   0  0  2  0  0  0  0  0  0  0  0  0
  147.1069  140.0910  153.2105 C   0  0  0  0  0  0  0  0  0  0  0  0
  147.4387  141.4571  153.8298 C   0  0  0  0  0  0  0  0  0  0  0  0
  148.8504  141.6532  153.8731 O   0  0  0  0  0  0  0  0  0  0  0  0
  149.5780  140.6791  154.6230 C   0  0  1  0  0  0  0  0  0  0  0  0
  149.3267  140.8120  156.1188 C   0  0  0  0  0  0  0  0  0  0  0  0
  150.0859  141.8289  156.9374 C   0  0  0  0  0  0  0  0  0  0  0  0
  150.3619  140.3552  157.1200 C   0  0  0  0  0  0  0  0  0  0  0  0
  149.3052  139.2619  154.0809 C   0  0  0  0  0  0  0  0  0  0  0  0
  147.4003  133.0435  152.0483 H   0  0  0  0  0  0  0  0  0  0  0  0
  147.4328  133.9804  150.5394 H   0  0  0  0  0  0  0  0  0  0  0  0
  146.6838  132.3730  150.5688 H   0  0  0  0  0  0  0  0  0  0  0  0
  142.4460  133.9251  151.6442 H   0  0  0  0  0  0  0  0  0  0  0  0
  147.2874  135.6063  152.1977 H   0  0  0  0  0  0  0  0  0  0  0  0
  148.3822  137.1937  152.9781 H   0  0  0  0  0  0  0  0  0  0  0  0
  147.3698  138.9182  154.9877 H   0  0  0  0  0  0  0  0  0  0  0  0
  147.4325  140.0813  152.1690 H   0  0  0  0  0  0  0  0  0  0  0  0
  146.0272  139.9376  153.2017 H   0  0  0  0  0  0  0  0  0  0  0  0
  146.9983  142.2524  153.2285 H   0  0  0  0  0  0  0  0  0  0  0  0
  147.0061  141.5483  154.8262 H   0  0  0  0  0  0  0  0  0  0  0  0
  150.6332  140.8986  154.4553 H   0  0  0  0  0  0  0  0  0  0  0  0
  148.2924  140.6541  156.4165 H   0  0  0  0  0  0  0  0  0  0  0  0
  150.8436  142.4231  156.4302 H   0  0  0  0  0  0  0  0  0  0  0  0
  149.5430  142.3419  157.7283 H   0  0  0  0  0  0  0  0  0  0  0  0
  150.0023  139.8842  158.0325 H   0  0  0  0  0  0  0  0  0  0  0  0
  151.3046  139.9695  156.7367 H   0  0  0  0  0  0  0  0  0  0  0  0
  149.8069  138.5194  154.7029 H   0  0  0  0  0  0  0  0  0  0  0  0
  149.7499  139.1786  153.0881 H   0  0  0  0  0  0  0  0  0  0  0  0
  1  2  1  0  0  0  0
  1 20  1  0  0  0  0
  1 21  1  0  0  0  0
  1 22  1  0  0  0  0
  2  6  1  0  0  0  0
  2  3  1  0  0  0  0
  3  4  2  0  0  0  0
  4  5  1  0  0  0  0
  4 23  1  0  0  0  0
  5  6  2  0  0  0  0
  6  7  1  0  0  0  0
  7  8  1  0  0  0  0
  7 24  1  0  0  0  0
  8  9  2  0  0  0  0
  8 10  1  0  0  0  0
 10 11  1  0  0  0  0
 10 25  1  0  0  0  0
 11 19  1  0  0  0  0
 11 12  1  0  0  0  0
 11 26  1  0  0  0  0
 12 13  1  0  0  0  0
 12 27  1  0  0  0  0
 12 28  1  0  0  0  0
 13 14  1  0  0  0  0
 13 29  1  0  0  0  0
 13 30  1  0  0  0  0
 14 15  1  0  0  0  0
 15 16  1  0  0  0  0
 15 19  1  0  0  0  0
 15 31  1  0  0  0  0
 16 18  1  0  0  0  0
 16 17  1  0  0  0  0
 16 32  1  0  0  0  0
 17 18  1  0  0  0  0
 17 33  1  0  0  0  0
 17 34  1  0  0  0  0
 18 35  1  0  0  0  0
 18 36  1  0  0  0  0
 19 37  1  0  0  0  0
 19 38  1  0  0  0  0
M  END
> <s_m_source_file>
AV-unprocessed.smi

> <i_m_source_file_index>
2322

> <i_lp_mmshare_version>
43012

> <i_f3d_flags>
0

> <s_epik_input>
W0NIM11uMW5bY0hdbmMxW05IXUMoPU8pW05IXVtDQEBIXTJbQ0gyXVtDSDJdT1tDQEhdKFtDSDJdMilbQ0hdM1tDSDJdW0NIMl0z

> <s_epik_cmdline>
J2VwaWtfcHl0aG9uJywgJy1waCcsICc3LjAnLCAnLXRuJywgJzgnLCAnLW1hJywgJzIwMCcsICctbWV0YWxfYmluZGluZycsICctaW1hZScsICc8aW5maWxlLm1hZT4nLCAnLW9tYWUnLCAnPG91dGZpbGUubWFlPic=

> <r_lp_tautomer_probability>
1

> <r_epik_Ionization_Penalty>
2.16399e-05

> <r_epik_Ionization_Penalty_Charging>
0

> <r_epik_Ionization_Penalty_Neutral>
2.16399e-05

> <r_epik_State_Penalty>
-0

> <r_epik_Charging_Adjusted_Penalty>
0

> <i_epik_Tot_Q>
0

> <i_epik_Tot_abs_Q>
0

> <r_epik_Metal_State_Penalty>
-0

> <b_epik_Metal_Only>
0

> <s_lp_Force_Field>
OPLS_2005

> <r_lp_Energy>
22.5256

> <b_lp_Chiralities_Consistent>
1

> <s_lp_Variant>
AV-unprocessed.smi:2322-1

> <Gold.Version>
5.8.1

> <Gold.Id.Protein>
6NUR|6NUR_protein|mol2

> <Gold.PLP.Fitness>
36.7738

> <Gold.PLP.PLP>
-27.4819

> <Gold.PLP.part.hbond>
-2.8111

> <Gold.PLP.part.metal>
0.0000

> <Gold.PLP.part.buried>
-1.9527

> <Gold.PLP.part.nonpolar>
-23.0729

> <Gold.PLP.part.repulsive>
0.6650

> <Gold.PLP.ligand.clash>
0.0000

> <Gold.PLP.ligand.torsion>
0.5431

> <Gold.PLP.Chemscore.Hbond>
2.4000

> <Gold.PLP.Chemscore.CHOScore>
0.7002

> <Gold.PLP.Chemscore.Metal>
0.0000

> <Gold.Chemscore.Hbonds>
donor molecule, donor type, donor heavy atom, donor atom, acceptor molecule, acceptor atom, score
      L1  H     7    24       P1  7948  0.83
      L1  H    10    25       P1  7948  0.91
      P1  H  8011  8017       L1    14  0.62
      L1  C     4    23       P1 10186  0.63

> <Gold.PLP.Chemscore.Internal.Correction>
1.0775

> <Gold.Rescore>
     Score         DG    S(hbond)    S(metal)    S(lipo)     H(rot)  DE(clash)    DE(int)     intcor
     14.92     -16.79       2.43        0.00      55.96       1.31       0.14       1.73       ----

> <Gold.Chemscore.Fitness>
14.9187

> <Gold.Chemscore.DG>
-16.7859

> <Gold.Chemscore.ZeroCoef>
-5.4800

> <Gold.Chemscore.Hbond>
2.4266

> <Gold.Chemscore.Metal>
0.0000

> <Gold.Chemscore.Lipo>
55.9601

> <Gold.Chemscore.Internal_Hbond>
0.0000

> <Gold.Chemscore.DEClash>
0.1393

> <Gold.Chemscore.DEInternal>
1.7279

> <Gold.Chemscore.Rot>
1.3072

> <Gold.Chemscore.Internal.Correction>
   9.000000E+99

> <Gold.Chemscore.Hbonds>
donor molecule, donor type, donor heavy atom, donor atom, acceptor molecule, acceptor atom, score
      L1  H     7    24       P1  7948  0.83
      L1  H    10    25       P1  7948  0.87
      P1  H  8011  8017       L1    14  0.55

> <Gold.Chemscore.Hbond.Weighted>
-8.1050

> <Gold.Chemscore.Metal.Weighted>
-0.0000

> <Gold.Chemscore.Lipo.Weighted>
-6.5473

> <Gold.Chemscore.Internal_Hbond.Weighted>
0.0000

> <Gold.Chemscore.DEClash.Weighted>
0.1393

> <Gold.Chemscore.DEInternal.Weighted>
1.7279

> <Gold.Chemscore.Rot.Weighted>
3.3464

> <Gold.Chemscore.Internal.Correction.Weighted>
   9.000000E+99

> <Gold.Protein.RotatedTorsions>
[ 6907 6896 6895 6894 ] final -123.75 input  -60.11 | X-H torsion
[ 7974 7965 7964 7962 ] final   59.74 input  175.53 | X-H torsion
[ 8008 7997 7996 7995 ] final  150.58 input   59.86 | X-H torsion
[ 10167 10162 10161 10158 ] final  110.69 input  -65.29 | X-H torsion
[ 10718 10713 10712 10709 ] final  -14.69 input   66.30 | X-H torsion
[ 10763 10752 10751 10750 ] final  108.60 input  -60.55 | X-H torsion
[ 11005 11000 10999 10996 ] final  126.19 input  -57.11 | X-H torsion

> <Gold.Protein.ActiveResidues>
 VAL166  LYS551  ARG553  GLY616  TRP617  ASP618  TYR619  PRO620  LYS621  CYS622 
 ASP623  PHE694  ASN695  SER759  ASP760  ASP761  ALA762  ILE779  LEU786  VAL792 
 PHE793  MET794  SER795  GLU796  ALA797  LYS798  CYS799  TRP800  GLU811  SER814 

> <Gold.Protein.RotatedAtoms>
  150.8701  133.7517  159.2963 H   0  0  0  0  0  0  0  0  0  0  0  0  # atno 6907 bound_to 6896
  151.5132  135.1064  159.9869 H   0  0  0  0  0  0  0  0  0  0  0  0  # atno 6908 bound_to 6896
  152.4689  133.7940  159.6973 H   0  0  0  0  0  0  0  0  0  0  0  0  # atno 6909 bound_to 6896
  145.9038  139.3601  143.0576 H   0  0  0  0  0  0  0  0  0  0  0  0  # atno 7974 bound_to 7965
  156.2710  140.2071  156.6040 H   0  0  0  0  0  0  0  0  0  0  0  0  # atno 8008 bound_to 7997
  154.6884  140.0533  157.0362 H   0  0  0  0  0  0  0  0  0  0  0  0  # atno 8009 bound_to 7997
  155.0901  140.3195  155.4579 H   0  0  0  0  0  0  0  0  0  0  0  0  # atno 8010 bound_to 7997
  139.6668  144.7127  151.1761 H   0  0  0  0  0  0  0  0  0  0  0  0  # atno 10167 bound_to 10162
  156.6123  130.4853  149.6196 H   0  0  0  0  0  0  0  0  0  0  0  0  # atno 10718 bound_to 10713
  153.4229  135.3807  155.2122 H   0  0  0  0  0  0  0  0  0  0  0  0  # atno 10763 bound_to 10752
  154.8746  135.3821  154.4362 H   0  0  0  0  0  0  0  0  0  0  0  0  # atno 10764 bound_to 10752
  153.4884  135.7088  153.5961 H   0  0  0  0  0  0  0  0  0  0  0  0  # atno 10765 bound_to 10752
  139.9443  134.9631  156.8669 H   0  0  0  0  0  0  0  0  0  0  0  0  # atno 11005 bound_to 11000
  145.8758  140.9393  143.0627 LP  0  0  0  0  0  0  0  0  0  0  0  0  # atno 17320 bound_to 7965
  144.6738  140.0714  143.7473 LP  0  0  0  0  0  0  0  0  0  0  0  0  # atno 17321 bound_to 7965
  140.7602  143.5906  150.8800 LP  0  0  0  0  0  0  0  0  0  0  0  0  # atno 17342 bound_to 10162
  139.9568  143.6209  152.3013 LP  0  0  0  0  0  0  0  0  0  0  0  0  # atno 17343 bound_to 10162
  156.2379  130.6834  151.1528 LP  0  0  0  0  0  0  0  0  0  0  0  0  # atno 17370 bound_to 10713
  157.7251  131.0655  150.5968 LP  0  0  0  0  0  0  0  0  0  0  0  0  # atno 17371 bound_to 10713
  140.5872  134.0296  155.7486 LP  0  0  0  0  0  0  0  0  0  0  0  0  # atno 17394 bound_to 11000
  141.1089  133.9649  157.2947 LP  0  0  0  0  0  0  0  0  0  0  0  0  # atno 17395 bound_to 11000

$$$$
