AV-unprocessed.smi:1081|AV-procd|sdf|4710|dock2
  -GOLD-   22720 3233D 1   1.00000     0.00000
 Structure written by MMmdl.
 52 54  0  0  0  0  0  0  0  0  1 V2000
  147.8288  135.9046  156.1090 O   0  0  0  0  0  0  0  0  0  0  0  0
  148.0457  136.1924  154.9325 C   0  0  0  0  0  0  0  0  0  0  0  0
  147.6273  135.4416  153.9025 N   0  0  0  0  0  0  0  0  0  0  0  0
  146.8747  134.1934  154.0228 C   0  0  0  0  0  0  0  0  0  0  0  0
  147.0835  133.2271  152.8400 C   0  0  0  0  0  0  0  0  0  0  0  0
  147.7856  132.2269  153.0020 O   0  0  0  0  0  0  0  0  0  0  0  0
  146.4961  133.5085  151.6511 N   0  0  0  0  0  0  0  0  0  0  0  0
  146.5263  132.6507  150.4571 C   0  0  0  0  0  0  0  0  0  0  0  0
  145.1118  132.0975  150.2032 C   0  0  0  0  0  0  0  0  0  0  0  0
  144.0881  133.2400  150.0686 C   0  0  0  0  0  0  0  0  0  0  0  0
  144.1911  134.2328  151.2410 C   0  0  0  0  0  0  0  0  0  0  0  0
  145.6463  134.6901  151.4476 C   0  0  0  0  0  0  0  0  0  0  0  0
  148.7285  137.2673  154.5020 N   0  0  0  0  0  0  0  0  0  0  0  0
  149.3470  138.3021  155.2566 C   0  0  0  0  0  0  0  0  0  0  0  0
  149.2351  138.4599  156.6582 C   0  0  0  0  0  0  0  0  0  0  0  0
  149.8949  139.5382  157.2780 C   0  0  0  0  0  0  0  0  0  0  0  0
  150.6467  140.4377  156.4873 C   0  0  0  0  0  0  0  0  0  0  0  0
  151.3173  141.5207  157.0945 N   0  0  0  0  0  0  0  0  0  0  0  0
  150.8713  142.8473  156.6648 C   0  0  0  0  0  0  0  0  0  0  0  0
  151.8945  143.9296  157.0505 C   0  0  0  0  0  0  0  0  0  0  0  0
  152.2234  143.8720  158.5497 C   0  0  0  0  0  0  0  0  0  0  0  0
  152.6894  142.4593  158.9315 C   0  0  0  0  0  0  0  0  0  0  0  0
  151.6502  141.4039  158.5164 C   0  0  0  0  0  0  0  0  0  0  0  0
  150.7403  140.2929  155.1431 N   0  0  0  0  0  0  0  0  0  0  0  0
  150.1083  139.2569  154.5535 C   0  0  0  0  0  0  0  0  0  0  0  0
  147.8573  135.7447  152.9677 H   0  0  0  0  0  0  0  0  0  0  0  0
  147.1497  133.7007  154.9569 H   0  0  0  0  0  0  0  0  0  0  0  0
  145.8160  134.4455  154.0910 H   0  0  0  0  0  0  0  0  0  0  0  0
  146.8536  133.2433  149.6016 H   0  0  0  0  0  0  0  0  0  0  0  0
  147.2311  131.8238  150.5232 H   0  0  0  0  0  0  0  0  0  0  0  0
  145.1050  131.4834  149.3024 H   0  0  0  0  0  0  0  0  0  0  0  0
  144.8239  131.4429  151.0268 H   0  0  0  0  0  0  0  0  0  0  0  0
  144.2690  133.7723  149.1339 H   0  0  0  0  0  0  0  0  0  0  0  0
  143.0773  132.8366  150.0029 H   0  0  0  0  0  0  0  0  0  0  0  0
  143.5484  135.0945  151.0586 H   0  0  0  0  0  0  0  0  0  0  0  0
  143.8254  133.7609  152.1541 H   0  0  0  0  0  0  0  0  0  0  0  0
  145.6959  135.3985  152.2754 H   0  0  0  0  0  0  0  0  0  0  0  0
  145.9957  135.2368  150.5706 H   0  0  0  0  0  0  0  0  0  0  0  0
  148.8564  137.3334  153.5029 H   0  0  0  0  0  0  0  0  0  0  0  0
  148.6529  137.7928  157.2731 H   0  0  0  0  0  0  0  0  0  0  0  0
  149.8046  139.6732  158.3456 H   0  0  0  0  0  0  0  0  0  0  0  0
  150.7043  142.8869  155.5891 H   0  0  0  0  0  0  0  0  0  0  0  0
  149.9109  143.0595  157.1366 H   0  0  0  0  0  0  0  0  0  0  0  0
  152.8078  143.7894  156.4707 H   0  0  0  0  0  0  0  0  0  0  0  0
  151.5095  144.9157  156.7891 H   0  0  0  0  0  0  0  0  0  0  0  0
  152.9946  144.6028  158.7949 H   0  0  0  0  0  0  0  0  0  0  0  0
  151.3404  144.1387  159.1319 H   0  0  0  0  0  0  0  0  0  0  0  0
  153.6411  142.2451  158.4433 H   0  0  0  0  0  0  0  0  0  0  0  0
  152.8722  142.4014  160.0048 H   0  0  0  0  0  0  0  0  0  0  0  0
  150.7411  141.5226  159.1078 H   0  0  0  0  0  0  0  0  0  0  0  0
  152.0471  140.4104  158.7294 H   0  0  0  0  0  0  0  0  0  0  0  0
  150.2174  139.1890  153.4808 H   0  0  0  0  0  0  0  0  0  0  0  0
  1  2  2  0  0  0  0
  2  3  1  0  0  0  0
  2 13  1  0  0  0  0
  3  4  1  0  0  0  0
  3 26  1  0  0  0  0
  4  5  1  0  0  0  0
  4 27  1  0  0  0  0
  4 28  1  0  0  0  0
  5  6  2  0  0  0  0
  5  7  1  0  0  0  0
  7 12  1  0  0  0  0
  7  8  1  0  0  0  0
  8  9  1  0  0  0  0
  8 29  1  0  0  0  0
  8 30  1  0  0  0  0
  9 10  1  0  0  0  0
  9 31  1  0  0  0  0
  9 32  1  0  0  0  0
 10 11  1  0  0  0  0
 10 33  1  0  0  0  0
 10 34  1  0  0  0  0
 11 12  1  0  0  0  0
 11 35  1  0  0  0  0
 11 36  1  0  0  0  0
 12 37  1  0  0  0  0
 12 38  1  0  0  0  0
 13 14  1  0  0  0  0
 13 39  1  0  0  0  0
 14 25  1  0  0  0  0
 14 15  2  0  0  0  0
 15 16  1  0  0  0  0
 15 40  1  0  0  0  0
 16 17  2  0  0  0  0
 16 41  1  0  0  0  0
 17 18  1  0  0  0  0
 17 24  1  0  0  0  0
 18 23  1  0  0  0  0
 18 19  1  0  0  0  0
 19 20  1  0  0  0  0
 19 42  1  0  0  0  0
 19 43  1  0  0  0  0
 20 21  1  0  0  0  0
 20 44  1  0  0  0  0
 20 45  1  0  0  0  0
 21 22  1  0  0  0  0
 21 46  1  0  0  0  0
 21 47  1  0  0  0  0
 22 23  1  0  0  0  0
 22 48  1  0  0  0  0
 22 49  1  0  0  0  0
 23 50  1  0  0  0  0
 23 51  1  0  0  0  0
 24 25  2  0  0  0  0
 25 52  1  0  0  0  0
M  END
> <s_m_source_file>
AV-unprocessed.smi

> <i_m_source_file_index>
1081

> <i_lp_mmshare_version>
43012

> <i_f3d_flags>
0

> <s_epik_input>
W0NIMl0xW0NIMl1bQ0gyXVtDSDJdW0NIMl1OMUMoPU8pW0NIMl1bTkhdQyg9TylbTkhdYzJbY0hdW2NIXWMobltjSF0yKU4zW0NIMl1bQ0gyXVtDSDJdW0NIMl1bQ0gyXTM=

> <s_epik_cmdline>
J2VwaWtfcHl0aG9uJywgJy1waCcsICc3LjAnLCAnLXRuJywgJzgnLCAnLW1hJywgJzIwMCcsICctbWV0YWxfYmluZGluZycsICctaW1hZScsICc8aW5maWxlLm1hZT4nLCAnLW9tYWUnLCAnPG91dGZpbGUubWFlPic=

> <r_lp_tautomer_probability>
1

> <r_epik_Ionization_Penalty>
0.2566

> <r_epik_Ionization_Penalty_Charging>
0

> <r_epik_Ionization_Penalty_Neutral>
0.2566

> <r_epik_State_Penalty>
0.242651

> <r_epik_Charging_Adjusted_Penalty>
0.242651

> <i_epik_Tot_Q>
0

> <i_epik_Tot_abs_Q>
0

> <r_epik_Metal_State_Penalty>
0.169478

> <b_epik_Metal_Only>
0

> <s_lp_Force_Field>
OPLS_2005

> <r_lp_Energy>
36.1946

> <b_lp_Chiralities_Consistent>
1

> <s_lp_Variant>
AV-unprocessed.smi:1081-1

> <Gold.Version>
5.8.1

> <Gold.Id.Protein>
6NUR|6NUR_protein|mol2

> <Gold.PLP.Fitness>
49.3893

> <Gold.PLP.PLP>
-39.5513

> <Gold.PLP.part.hbond>
-2.9679

> <Gold.PLP.part.metal>
0.0000

> <Gold.PLP.part.buried>
-3.2809

> <Gold.PLP.part.nonpolar>
-34.4785

> <Gold.PLP.part.repulsive>
0.2509

> <Gold.PLP.ligand.clash>
0.0000

> <Gold.PLP.ligand.torsion>
0.6996

> <Gold.PLP.Chemscore.Hbond>
2.5980

> <Gold.PLP.Chemscore.CHOScore>
1.0000

> <Gold.PLP.Chemscore.Metal>
0.0000

> <Gold.Chemscore.Hbonds>
donor molecule, donor type, donor heavy atom, donor atom, acceptor molecule, acceptor atom, score
      L1  H     3    26       P1  7948  1.00
      L1  H    13    39       P1  7948  0.86
      P1  H  7989  7998       L1    24  0.75
      L1  C    25    52       P1  7957  0.99

> <Gold.PLP.Chemscore.Internal.Correction>
0.4431

> <Gold.Rescore>
     Score         DG    S(hbond)    S(metal)    S(lipo)     H(rot)  DE(clash)    DE(int)     intcor
     17.25     -20.43       1.76        0.00     108.37       1.41       1.45       1.73       ----

> <Gold.Chemscore.Fitness>
17.2462

> <Gold.Chemscore.DG>
-20.4322

> <Gold.Chemscore.ZeroCoef>
-5.4800

> <Gold.Chemscore.Hbond>
1.7620

> <Gold.Chemscore.Metal>
0.0000

> <Gold.Chemscore.Lipo>
108.3655

> <Gold.Chemscore.Internal_Hbond>
0.0000

> <Gold.Chemscore.DEClash>
1.4537

> <Gold.Chemscore.DEInternal>
1.7322

> <Gold.Chemscore.Rot>
1.4109

> <Gold.Chemscore.Internal.Correction>
   9.000000E+99

> <Gold.Chemscore.Hbonds>
donor molecule, donor type, donor heavy atom, donor atom, acceptor molecule, acceptor atom, score
      L1  H     3    26       P1  7948  0.95
      L1  H    13    39       P1  7948  0.83
      P1  H  7989  7998       L1    24  0.09

> <Gold.Chemscore.Hbond.Weighted>
-5.8852

> <Gold.Chemscore.Metal.Weighted>
-0.0000

> <Gold.Chemscore.Lipo.Weighted>
-12.6788

> <Gold.Chemscore.Internal_Hbond.Weighted>
0.0000

> <Gold.Chemscore.DEClash.Weighted>
1.4537

> <Gold.Chemscore.DEInternal.Weighted>
1.7322

> <Gold.Chemscore.Rot.Weighted>
3.6118

> <Gold.Chemscore.Internal.Correction.Weighted>
   9.000000E+99

> <Gold.Protein.RotatedTorsions>
[ 6907 6896 6895 6894 ] final   10.03 input  -60.11 | X-H torsion
[ 7974 7965 7964 7962 ] final   44.35 input  175.53 | X-H torsion
[ 8008 7997 7996 7995 ] final  -34.65 input   59.86 | X-H torsion
[ 10167 10162 10161 10158 ] final  123.35 input  -65.29 | X-H torsion
[ 10718 10713 10712 10709 ] final    2.75 input   66.30 | X-H torsion
[ 10763 10752 10751 10750 ] final   -3.33 input  -60.55 | X-H torsion
[ 11005 11000 10999 10996 ] final  -35.44 input  -57.11 | X-H torsion

> <Gold.Protein.ActiveResidues>
 VAL166  LYS551  ARG553  GLY616  TRP617  ASP618  TYR619  PRO620  LYS621  CYS622 
 ASP623  PHE694  ASN695  SER759  ASP760  ASP761  ALA762  ILE779  LEU786  VAL792 
 PHE793  MET794  SER795  GLU796  ALA797  LYS798  CYS799  TRP800  GLU811  SER814 

> <Gold.Protein.RotatedAtoms>
  151.7317  135.0873  160.0300 H   0  0  0  0  0  0  0  0  0  0  0  0  # atno 6907 bound_to 6896
  152.3537  133.6206  159.5972 H   0  0  0  0  0  0  0  0  0  0  0  0  # atno 6908 bound_to 6896
  150.7557  133.9450  159.3509 H   0  0  0  0  0  0  0  0  0  0  0  0  # atno 6909 bound_to 6896
  146.0576  139.5084  142.9679 H   0  0  0  0  0  0  0  0  0  0  0  0  # atno 7974 bound_to 7965
  154.4115  140.1678  156.2085 H   0  0  0  0  0  0  0  0  0  0  0  0  # atno 8008 bound_to 7997
  155.9464  140.3404  155.6347 H   0  0  0  0  0  0  0  0  0  0  0  0  # atno 8009 bound_to 7997
  155.6924  140.0735  157.2433 H   0  0  0  0  0  0  0  0  0  0  0  0  # atno 8010 bound_to 7997
  139.5805  144.6984  151.3541 H   0  0  0  0  0  0  0  0  0  0  0  0  # atno 10167 bound_to 10162
  156.8676  130.5609  149.5659 H   0  0  0  0  0  0  0  0  0  0  0  0  # atno 10718 bound_to 10713
  153.3699  135.6994  153.6646 H   0  0  0  0  0  0  0  0  0  0  0  0  # atno 10763 bound_to 10752
  153.5300  135.3594  155.2672 H   0  0  0  0  0  0  0  0  0  0  0  0  # atno 10764 bound_to 10752
  154.8680  135.4178  154.2975 H   0  0  0  0  0  0  0  0  0  0  0  0  # atno 10765 bound_to 10752
  140.9796  133.7063  156.1661 H   0  0  0  0  0  0  0  0  0  0  0  0  # atno 11005 bound_to 11000
  145.6616  141.0239  143.1705 LP  0  0  0  0  0  0  0  0  0  0  0  0  # atno 17320 bound_to 7965
  144.7156  139.8208  143.7399 LP  0  0  0  0  0  0  0  0  0  0  0  0  # atno 17321 bound_to 7965
  140.7083  143.7456  150.7522 LP  0  0  0  0  0  0  0  0  0  0  0  0  # atno 17342 bound_to 10162
  140.0987  143.4808  152.2438 LP  0  0  0  0  0  0  0  0  0  0  0  0  # atno 17343 bound_to 10162
  156.0743  130.5769  150.9444 LP  0  0  0  0  0  0  0  0  0  0  0  0  # atno 17370 bound_to 10713
  157.6214  131.0929  150.8615 LP  0  0  0  0  0  0  0  0  0  0  0  0  # atno 17371 bound_to 10713
  140.7206  134.4362  157.5575 LP  0  0  0  0  0  0  0  0  0  0  0  0  # atno 17394 bound_to 11000
  139.8945  134.8706  156.2175 LP  0  0  0  0  0  0  0  0  0  0  0  0  # atno 17395 bound_to 11000

$$$$
