AV-unprocessed.smi:1892|AV-procd|sdf|7670|dock3
  -GOLD-   22720 9403D 1   1.00000     0.00000
 Structure written by MMmdl.
 43 44  0  0  0  0  0  0  0  0  2 V2000
  146.7487  130.2114  152.5519 C   0  0  0  0  0  0  0  0  0  0  0  0
  147.5860  131.1055  153.4692 C   0  0  0  0  0  0  0  0  0  0  0  0
  147.9615  130.6402  154.5449 O   0  0  0  0  0  0  0  0  0  0  0  0
  147.8821  132.3673  153.0756 N   0  0  0  0  0  0  0  0  0  0  0  0
  148.6211  133.3107  153.9185 C   0  0  0  0  0  0  0  0  0  0  0  0
  147.6802  134.4557  154.3354 C   0  0  0  0  0  0  0  0  0  0  0  0
  147.0636  135.1182  153.1539 N   0  3  0  0  0  0  0  0  0  0  0  0
  146.1583  136.2263  153.5495 C   0  0  0  0  0  0  0  0  0  0  0  0
  145.8500  137.1884  152.3856 C   0  0  0  0  0  0  0  0  0  0  0  0
  144.5506  137.8298  152.5516 N   0  0  0  0  0  0  0  0  0  0  0  0
  143.4250  137.1957  152.9108 C   0  0  0  0  0  0  0  0  0  0  0  0
  143.3748  135.9853  153.1314 O   0  0  0  0  0  0  0  0  0  0  0  0
  142.3864  138.0466  152.9875 N   0  0  0  0  0  0  0  0  0  0  0  0
  141.0413  137.7587  153.3418 C   0  0  0  0  0  0  0  0  0  0  0  0
  140.0877  138.6948  152.8819 C   0  0  0  0  0  0  0  0  0  0  0  0
  138.7256  138.5008  153.1827 C   0  0  0  0  0  0  0  0  0  0  0  0
  138.3518  137.3744  153.9369 C   0  0  0  0  0  0  0  0  0  0  0  0
  139.3638  136.4913  154.3558 C   0  0  0  0  0  0  0  0  0  0  0  0
  140.6698  136.6750  154.0684 N   0  0  0  0  0  0  0  0  0  0  0  0
  146.4391  134.1474  152.2120 C   0  0  0  0  0  0  0  0  0  0  0  0
  147.4100  133.0097  151.8456 C   0  0  0  0  0  0  0  0  0  0  0  0
  145.7723  130.6575  152.3613 H   0  0  0  0  0  0  0  0  0  0  0  0
  146.5838  129.2365  153.0122 H   0  0  0  0  0  0  0  0  0  0  0  0
  147.2572  130.0479  151.6014 H   0  0  0  0  0  0  0  0  0  0  0  0
  149.0469  132.8429  154.8072 H   0  0  0  0  0  0  0  0  0  0  0  0
  149.4687  133.7058  153.3565 H   0  0  0  0  0  0  0  0  0  0  0  0
  146.8920  134.0678  154.9829 H   0  0  0  0  0  0  0  0  0  0  0  0
  148.2376  135.1897  154.9187 H   0  0  0  0  0  0  0  0  0  0  0  0
  145.2368  135.8188  153.9681 H   0  0  0  0  0  0  0  0  0  0  0  0
  146.6347  136.7946  154.3499 H   0  0  0  0  0  0  0  0  0  0  0  0
  146.6309  137.9459  152.2967 H   0  0  0  0  0  0  0  0  0  0  0  0
  145.8242  136.6551  151.4362 H   0  0  0  0  0  0  0  0  0  0  0  0
  144.5070  138.8258  152.3903 H   0  0  0  0  0  0  0  0  0  0  0  0
  142.5792  139.0129  152.7699 H   0  0  0  0  0  0  0  0  0  0  0  0
  140.3920  139.5553  152.3038 H   0  0  0  0  0  0  0  0  0  0  0  0
  137.9815  139.2050  152.8409 H   0  0  0  0  0  0  0  0  0  0  0  0
  137.3176  137.1918  154.1885 H   0  0  0  0  0  0  0  0  0  0  0  0
  139.1193  135.6151  154.9375 H   0  0  0  0  0  0  0  0  0  0  0  0
  145.5385  133.7305  152.6659 H   0  0  0  0  0  0  0  0  0  0  0  0
  146.1290  134.6525  151.2981 H   0  0  0  0  0  0  0  0  0  0  0  0
  148.2682  133.4132  151.3064 H   0  0  0  0  0  0  0  0  0  0  0  0
  146.9273  132.3245  151.1504 H   0  0  0  0  0  0  0  0  0  0  0  0
  147.8310  135.5447  152.6543 H   0  0  0  0  0  0  0  0  0  0  0  0
  1  2  1  0  0  0  0
  1 22  1  0  0  0  0
  1 23  1  0  0  0  0
  1 24  1  0  0  0  0
  2  3  2  0  0  0  0
  2  4  1  0  0  0  0
  4 21  1  0  0  0  0
  4  5  1  0  0  0  0
  5  6  1  0  0  0  0
  5 25  1  0  0  0  0
  5 26  1  0  0  0  0
  6  7  1  0  0  0  0
  6 27  1  0  0  0  0
  6 28  1  0  0  0  0
  7  8  1  0  0  0  0
  7 20  1  0  0  0  0
  7 43  1  0  0  0  0
  8  9  1  0  0  0  0
  8 29  1  0  0  0  0
  8 30  1  0  0  0  0
  9 10  1  0  0  0  0
  9 31  1  0  0  0  0
  9 32  1  0  0  0  0
 10 11  1  0  0  0  0
 10 33  1  0  0  0  0
 11 12  2  0  0  0  0
 11 13  1  0  0  0  0
 13 14  1  0  0  0  0
 13 34  1  0  0  0  0
 14 19  1  0  0  0  0
 14 15  2  0  0  0  0
 15 16  1  0  0  0  0
 15 35  1  0  0  0  0
 16 17  2  0  0  0  0
 16 36  1  0  0  0  0
 17 18  1  0  0  0  0
 17 37  1  0  0  0  0
 18 19  2  0  0  0  0
 18 38  1  0  0  0  0
 20 21  1  0  0  0  0
 20 39  1  0  0  0  0
 20 40  1  0  0  0  0
 21 41  1  0  0  0  0
 21 42  1  0  0  0  0
M  CHG  1   7   1
M  END
> <s_m_source_file>
AV-unprocessed.smi

> <i_m_source_file_index>
1892

> <i_lp_mmshare_version>
43012

> <i_f3d_flags>
0

> <s_epik_input>
W0NIM11DKD1PKU4xW0NIMl1bQ0gyXU4oW0NIMl1bQ0gyXTEpW0NIMl1bQ0gyXVtOSF1DKD1PKVtOSF1jMltjSF1bY0hdW2NIXVtjSF1uMg==

> <s_epik_cmdline>
J2VwaWtfcHl0aG9uJywgJy1waCcsICc3LjAnLCAnLXRuJywgJzgnLCAnLW1hJywgJzIwMCcsICctbWV0YWxfYmluZGluZycsICctaW1hZScsICc8aW5maWxlLm1hZT4nLCAnLW9tYWUnLCAnPG91dGZpbGUubWFlPic=

> <r_epik_Ionization_Penalty>
0.630068

> <r_epik_Ionization_Penalty_Charging>
0.630034

> <r_epik_Ionization_Penalty_Neutral>
3.4348e-05

> <r_epik_State_Penalty>
0.646805

> <r_epik_Charging_Adjusted_Penalty>
1.27684

> <i_epik_Tot_Q>
1

> <i_epik_Tot_abs_Q>
1

> <r_epik_Metal_State_Penalty>
0.646808

> <b_epik_Metal_Only>
0

> <s_lp_Force_Field>
OPLS_2005

> <r_lp_Energy>
41.8075

> <b_lp_Chiralities_Consistent>
1

> <s_lp_Variant>
AV-unprocessed.smi:1892-2

> <Gold.Version>
5.8.1

> <Gold.Id.Protein>
6NUR|6NUR_protein|mol2

> <Gold.PLP.Fitness>
48.9825

> <Gold.PLP.PLP>
-34.8765

> <Gold.PLP.part.hbond>
-4.0000

> <Gold.PLP.part.metal>
0.0000

> <Gold.PLP.part.buried>
-0.4045

> <Gold.PLP.part.nonpolar>
-30.5723

> <Gold.PLP.part.repulsive>
0.2341

> <Gold.PLP.ligand.clash>
0.0000

> <Gold.PLP.ligand.torsion>
0.4597

> <Gold.PLP.Chemscore.Hbond>
4.0000

> <Gold.PLP.Chemscore.CHOScore>
0.9949

> <Gold.PLP.Chemscore.Metal>
0.0000

> <Gold.Chemscore.Hbonds>
donor molecule, donor type, donor heavy atom, donor atom, acceptor molecule, acceptor atom, score
      L1  H     7    43       P1  7948  1.95
      L1  H    10    33       P1 10175  1.00
      L1  H    13    34       P1 10175  1.00
      L1  C    18    38       P1 11000  0.96

> <Gold.PLP.Chemscore.Internal.Correction>
0.0405

> <Gold.Rescore>
     Score         DG    S(hbond)    S(metal)    S(lipo)     H(rot)  DE(clash)    DE(int)     intcor
     15.73     -19.17       2.95        0.00      68.68       1.64       0.49       2.94       ----

> <Gold.Chemscore.Fitness>
15.7345

> <Gold.Chemscore.DG>
-19.1652

> <Gold.Chemscore.ZeroCoef>
-5.4800

> <Gold.Chemscore.Hbond>
2.9476

> <Gold.Chemscore.Metal>
0.0000

> <Gold.Chemscore.Lipo>
68.6806

> <Gold.Chemscore.Internal_Hbond>
0.0000

> <Gold.Chemscore.DEClash>
0.4899

> <Gold.Chemscore.DEInternal>
2.9408

> <Gold.Chemscore.Rot>
1.6388

> <Gold.Chemscore.Internal.Correction>
   9.000000E+99

> <Gold.Chemscore.Hbonds>
donor molecule, donor type, donor heavy atom, donor atom, acceptor molecule, acceptor atom, score
      L1  H     7    43       P1  7948  0.91
      L1  H    10    33       P1 10175  0.97
      L1  H    13    34       P1 10175  0.99

> <Gold.Chemscore.Hbond.Weighted>
-9.8449

> <Gold.Chemscore.Metal.Weighted>
-0.0000

> <Gold.Chemscore.Lipo.Weighted>
-8.0356

> <Gold.Chemscore.Internal_Hbond.Weighted>
0.0000

> <Gold.Chemscore.DEClash.Weighted>
0.4899

> <Gold.Chemscore.DEInternal.Weighted>
2.9408

> <Gold.Chemscore.Rot.Weighted>
4.1952

> <Gold.Chemscore.Internal.Correction.Weighted>
   9.000000E+99

> <Gold.Protein.RotatedTorsions>
[ 6907 6896 6895 6894 ] final  133.87 input  -60.11 | X-H torsion
[ 7974 7965 7964 7962 ] final   25.29 input  175.53 | X-H torsion
[ 8008 7997 7996 7995 ] final  -98.95 input   59.86 | X-H torsion
[ 10167 10162 10161 10158 ] final   90.03 input  -65.29 | X-H torsion
[ 10718 10713 10712 10709 ] final    8.57 input   66.30 | X-H torsion
[ 10763 10752 10751 10750 ] final  -25.91 input  -60.55 | X-H torsion
[ 11005 11000 10999 10996 ] final -170.83 input  -57.11 | X-H torsion

> <Gold.Protein.ActiveResidues>
 VAL166  LYS551  ARG553  GLY616  TRP617  ASP618  TYR619  PRO620  LYS621  CYS622 
 ASP623  PHE694  ASN695  SER759  ASP760  ASP761  ALA762  ILE779  LEU786  VAL792 
 PHE793  MET794  SER795  GLU796  ALA797  LYS798  CYS799  TRP800  GLU811  SER814 

> <Gold.Protein.RotatedAtoms>
  152.3174  133.5817  159.5721 H   0  0  0  0  0  0  0  0  0  0  0  0  # atno 6907 bound_to 6896
  150.7353  134.0062  159.3663 H   0  0  0  0  0  0  0  0  0  0  0  0  # atno 6908 bound_to 6896
  151.7950  135.0725  160.0443 H   0  0  0  0  0  0  0  0  0  0  0  0  # atno 6909 bound_to 6896
  146.1896  139.7487  142.8841 H   0  0  0  0  0  0  0  0  0  0  0  0  # atno 7974 bound_to 7965
  154.8082  140.0451  157.1323 H   0  0  0  0  0  0  0  0  0  0  0  0  # atno 8008 bound_to 7997
  154.9400  140.3051  155.5105 H   0  0  0  0  0  0  0  0  0  0  0  0  # atno 8009 bound_to 7997
  156.2969  140.2307  156.4468 H   0  0  0  0  0  0  0  0  0  0  0  0  # atno 8010 bound_to 7997
  139.8514  144.6591  150.9165 H   0  0  0  0  0  0  0  0  0  0  0  0  # atno 10167 bound_to 10162
  156.9536  130.5906  149.5658 H   0  0  0  0  0  0  0  0  0  0  0  0  # atno 10718 bound_to 10713
  153.7074  135.6952  153.5046 H   0  0  0  0  0  0  0  0  0  0  0  0  # atno 10763 bound_to 10752
  153.2297  135.4341  155.0581 H   0  0  0  0  0  0  0  0  0  0  0  0  # atno 10764 bound_to 10752
  154.8325  135.3481  154.6612 H   0  0  0  0  0  0  0  0  0  0  0  0  # atno 10765 bound_to 10752
  140.5151  134.5764  157.5031 H   0  0  0  0  0  0  0  0  0  0  0  0  # atno 11005 bound_to 11000
  145.3834  141.0361  143.3165 LP  0  0  0  0  0  0  0  0  0  0  0  0  # atno 17320 bound_to 7965
  144.8461  139.5394  143.6878 LP  0  0  0  0  0  0  0  0  0  0  0  0  # atno 17321 bound_to 7965
  140.7787  143.3824  151.1453 LP  0  0  0  0  0  0  0  0  0  0  0  0  # atno 17342 bound_to 10162
  139.7462  143.8849  152.3064 LP  0  0  0  0  0  0  0  0  0  0  0  0  # atno 17343 bound_to 10162
  156.0352  130.5440  150.8636 LP  0  0  0  0  0  0  0  0  0  0  0  0  # atno 17370 bound_to 10713
  157.5705  131.0946  150.9424 LP  0  0  0  0  0  0  0  0  0  0  0  0  # atno 17371 bound_to 10713
  139.9637  134.7409  156.0183 LP  0  0  0  0  0  0  0  0  0  0  0  0  # atno 17394 bound_to 11000
  141.1365  133.6574  156.3607 LP  0  0  0  0  0  0  0  0  0  0  0  0  # atno 17395 bound_to 11000

$$$$
