AV-unprocessed.smi:671|AV-procd|sdf|3277|dock8
  -GOLD-   22720 0233D 1   1.00000     0.00000
 Structure written by MMmdl.
 49 50  0  0  0  0  0  0  0  0  1 V2000
  152.7596  138.4433  155.1278 C   0  0  0  0  0  0  0  0  0  0  0  0
  151.8424  139.3690  155.8755 C   0  0  0  0  0  0  0  0  0  0  0  0
  152.3556  140.1805  156.7845 N   0  0  0  0  0  0  0  0  0  0  0  0
  151.3010  140.8659  157.2694 N   0  0  0  0  0  0  0  0  0  0  0  0
  151.5133  141.8590  158.3045 C   0  0  0  0  0  0  0  0  0  0  0  0
  150.1183  140.4881  156.6643 C   0  0  0  0  0  0  0  0  0  0  0  0
  148.8068  141.1062  157.0290 C   0  0  0  0  0  0  0  0  0  0  0  0
  150.4289  139.5159  155.7510 C   0  0  0  0  0  0  0  0  0  0  0  0
  149.5116  138.7625  154.8222 C   0  0  0  0  0  0  0  0  0  0  0  0
  149.1932  137.3407  155.3368 C   0  0  2  0  0  0  0  0  0  0  0  0
  150.4611  136.5373  155.6664 C   0  0  0  0  0  0  0  0  0  0  0  0
  148.4087  136.5998  154.3451 N   0  0  0  0  0  0  0  0  0  0  0  0
  147.1876  136.0528  154.4917 C   0  0  0  0  0  0  0  0  0  0  0  0
  146.5686  136.1208  155.5516 O   0  0  0  0  0  0  0  0  0  0  0  0
  146.7222  135.4311  153.3952 N   0  0  0  0  0  0  0  0  0  0  0  0
  145.4484  134.7247  153.2692 C   0  0  2  0  0  0  0  0  0  0  0  0
  145.6788  133.3533  152.6040 C   0  0  0  0  0  0  0  0  0  0  0  0
  145.0695  133.4299  151.1967 C   0  0  0  0  0  0  0  0  0  0  0  0
  144.7636  134.9074  150.9517 C   0  0  0  0  0  0  0  0  0  0  0  0
  144.4621  135.4653  152.3430 C   0  0  2  0  0  0  0  0  0  0  0  0
  144.4747  137.0020  152.4152 C   0  0  0  0  0  0  0  0  0  0  0  0
  152.2296  137.8991  154.3477 H   0  0  0  0  0  0  0  0  0  0  0  0
  153.2043  137.7069  155.7973 H   0  0  0  0  0  0  0  0  0  0  0  0
  153.5701  138.9937  154.6498 H   0  0  0  0  0  0  0  0  0  0  0  0
  151.2392  142.8447  157.9281 H   0  0  0  0  0  0  0  0  0  0  0  0
  152.5596  141.8776  158.6129 H   0  0  0  0  0  0  0  0  0  0  0  0
  150.8951  141.6233  159.1710 H   0  0  0  0  0  0  0  0  0  0  0  0
  148.0169  140.7957  156.3456 H   0  0  0  0  0  0  0  0  0  0  0  0
  148.8658  142.1941  156.9920 H   0  0  0  0  0  0  0  0  0  0  0  0
  148.5107  140.8167  158.0374 H   0  0  0  0  0  0  0  0  0  0  0  0
  148.5860  139.3248  154.6968 H   0  0  0  0  0  0  0  0  0  0  0  0
  149.9349  138.6978  153.8195 H   0  0  0  0  0  0  0  0  0  0  0  0
  148.6113  137.4145  156.2571 H   0  0  0  0  0  0  0  0  0  0  0  0
  151.0383  137.0121  156.4600 H   0  0  0  0  0  0  0  0  0  0  0  0
  151.1093  136.4420  154.7946 H   0  0  0  0  0  0  0  0  0  0  0  0
  150.2106  135.5321  156.0067 H   0  0  0  0  0  0  0  0  0  0  0  0
  148.8515  136.4704  153.4468 H   0  0  0  0  0  0  0  0  0  0  0  0
  147.3102  135.4379  152.5747 H   0  0  0  0  0  0  0  0  0  0  0  0
  144.9985  134.5862  154.2540 H   0  0  0  0  0  0  0  0  0  0  0  0
  146.7391  133.1006  152.5541 H   0  0  0  0  0  0  0  0  0  0  0  0
  145.1956  132.5613  153.1767 H   0  0  0  0  0  0  0  0  0  0  0  0
  145.7325  133.0172  150.4358 H   0  0  0  0  0  0  0  0  0  0  0  0
  144.1428  132.8558  151.1694 H   0  0  0  0  0  0  0  0  0  0  0  0
  145.6420  135.4009  150.5336 H   0  0  0  0  0  0  0  0  0  0  0  0
  143.9385  135.0509  150.2536 H   0  0  0  0  0  0  0  0  0  0  0  0
  143.4588  135.1324  152.6141 H   0  0  0  0  0  0  0  0  0  0  0  0
  145.4256  137.4180  152.0807 H   0  0  0  0  0  0  0  0  0  0  0  0
  144.2980  137.3455  153.4347 H   0  0  0  0  0  0  0  0  0  0  0  0
  143.6932  137.4251  151.7837 H   0  0  0  0  0  0  0  0  0  0  0  0
  1  2  1  0  0  0  0
  1 22  1  0  0  0  0
  1 23  1  0  0  0  0
  1 24  1  0  0  0  0
  2  8  1  0  0  0  0
  2  3  2  0  0  0  0
  3  4  1  0  0  0  0
  4  5  1  0  0  0  0
  4  6  1  0  0  0  0
  5 25  1  0  0  0  0
  5 26  1  0  0  0  0
  5 27  1  0  0  0  0
  6  7  1  0  0  0  0
  6  8  2  0  0  0  0
  7 28  1  0  0  0  0
  7 29  1  0  0  0  0
  7 30  1  0  0  0  0
  8  9  1  0  0  0  0
  9 10  1  0  0  0  0
  9 31  1  0  0  0  0
  9 32  1  0  0  0  0
 10 11  1  0  0  0  0
 10 12  1  0  0  0  0
 10 33  1  0  0  0  0
 11 34  1  0  0  0  0
 11 35  1  0  0  0  0
 11 36  1  0  0  0  0
 12 13  1  0  0  0  0
 12 37  1  0  0  0  0
 13 14  2  0  0  0  0
 13 15  1  0  0  0  0
 15 16  1  0  0  0  0
 15 38  1  0  0  0  0
 16 20  1  0  0  0  0
 16 17  1  0  0  0  0
 16 39  1  0  0  0  0
 17 18  1  0  0  0  0
 17 40  1  0  0  0  0
 17 41  1  0  0  0  0
 18 19  1  0  0  0  0
 18 42  1  0  0  0  0
 18 43  1  0  0  0  0
 19 20  1  0  0  0  0
 19 44  1  0  0  0  0
 19 45  1  0  0  0  0
 20 21  1  0  0  0  0
 20 46  1  0  0  0  0
 21 47  1  0  0  0  0
 21 48  1  0  0  0  0
 21 49  1  0  0  0  0
M  END
> <s_m_source_file>
AV-unprocessed.smi

> <i_m_source_file_index>
671

> <i_lp_mmshare_version>
43012

> <i_f3d_flags>
0

> <s_epik_input>
W0NIM11jMW5uKFtDSDNdKWMoW0NIM10pYzFbQ0gyXVtDQEhdKFtDSDNdKVtOSF1DKD1PKVtOSF1bQ0BASF0yW0NIMl1bQ0gyXVtDSDJdW0NASF0yW0NIM10=

> <s_epik_cmdline>
J2VwaWtfcHl0aG9uJywgJy1waCcsICc3LjAnLCAnLXRuJywgJzgnLCAnLW1hJywgJzIwMCcsICctbWV0YWxfYmluZGluZycsICctaW1hZScsICc8aW5maWxlLm1hZT4nLCAnLW9tYWUnLCAnPG91dGZpbGUubWFlPic=

> <r_lp_tautomer_probability>
1

> <r_epik_Ionization_Penalty>
0.0126855

> <r_epik_Ionization_Penalty_Charging>
0

> <r_epik_Ionization_Penalty_Neutral>
0.0126855

> <r_epik_State_Penalty>
0.00977547

> <r_epik_Charging_Adjusted_Penalty>
0.00977547

> <i_epik_Tot_Q>
0

> <i_epik_Tot_abs_Q>
0

> <r_epik_Metal_State_Penalty>
0.00957132

> <b_epik_Metal_Only>
0

> <s_lp_Force_Field>
OPLS_2005

> <r_lp_Energy>
22.3824

> <b_lp_Chiralities_Consistent>
1

> <s_lp_Variant>
AV-unprocessed.smi:671-5

> <Gold.Version>
5.8.1

> <Gold.Id.Protein>
6NUR|6NUR_protein|mol2

> <Gold.PLP.Fitness>
37.1714

> <Gold.PLP.PLP>
-29.3791

> <Gold.PLP.part.hbond>
-2.9150

> <Gold.PLP.part.metal>
0.0000

> <Gold.PLP.part.buried>
-2.2470

> <Gold.PLP.part.nonpolar>
-24.2201

> <Gold.PLP.part.repulsive>
0.0329

> <Gold.PLP.ligand.clash>
0.0000

> <Gold.PLP.ligand.torsion>
0.3991

> <Gold.PLP.Chemscore.Hbond>
2.8480

> <Gold.PLP.Chemscore.CHOScore>
0.0000

> <Gold.PLP.Chemscore.Metal>
0.0000

> <Gold.Chemscore.Hbonds>
donor molecule, donor type, donor heavy atom, donor atom, acceptor molecule, acceptor atom, score
      L1  H    12    37       P1  7948  1.00
      L1  H    15    38       P1  7948  0.86
      P1  H  7997  8010       L1     3  1.00

> <Gold.PLP.Chemscore.Internal.Correction>
0.0466

> <Gold.Rescore>
     Score         DG    S(hbond)    S(metal)    S(lipo)     H(rot)  DE(clash)    DE(int)     intcor
     19.17     -19.73       2.78        0.00      74.08       1.45       0.16       0.39       ----

> <Gold.Chemscore.Fitness>
19.1729

> <Gold.Chemscore.DG>
-19.7302

> <Gold.Chemscore.ZeroCoef>
-5.4800

> <Gold.Chemscore.Hbond>
2.7828

> <Gold.Chemscore.Metal>
0.0000

> <Gold.Chemscore.Lipo>
74.0818

> <Gold.Chemscore.Internal_Hbond>
0.0000

> <Gold.Chemscore.DEClash>
0.1628

> <Gold.Chemscore.DEInternal>
0.3946

> <Gold.Chemscore.Rot>
1.4499

> <Gold.Chemscore.Internal.Correction>
   9.000000E+99

> <Gold.Chemscore.Hbonds>
donor molecule, donor type, donor heavy atom, donor atom, acceptor molecule, acceptor atom, score
      L1  H    12    37       P1  7948  0.98
      L1  H    15    38       P1  7948  0.84
      P1  H  7997  8010       L1     3  0.58

> <Gold.Chemscore.Hbond.Weighted>
-9.2945

> <Gold.Chemscore.Metal.Weighted>
-0.0000

> <Gold.Chemscore.Lipo.Weighted>
-8.6676

> <Gold.Chemscore.Internal_Hbond.Weighted>
0.0000

> <Gold.Chemscore.DEClash.Weighted>
0.1628

> <Gold.Chemscore.DEInternal.Weighted>
0.3946

> <Gold.Chemscore.Rot.Weighted>
3.7118

> <Gold.Chemscore.Internal.Correction.Weighted>
   9.000000E+99

> <Gold.Protein.RotatedTorsions>
[ 6907 6896 6895 6894 ] final -112.59 input  -60.11 | X-H torsion
[ 7974 7965 7964 7962 ] final -126.03 input  175.53 | X-H torsion
[ 8008 7997 7996 7995 ] final   59.49 input   59.86 | X-H torsion
[ 10167 10162 10161 10158 ] final   24.52 input  -65.29 | X-H torsion
[ 10718 10713 10712 10709 ] final   53.59 input   66.30 | X-H torsion
[ 10763 10752 10751 10750 ] final -143.01 input  -60.55 | X-H torsion
[ 11005 11000 10999 10996 ] final   53.81 input  -57.11 | X-H torsion

> <Gold.Protein.ActiveResidues>
 VAL166  LYS551  ARG553  GLY616  TRP617  ASP618  TYR619  PRO620  LYS621  CYS622 
 ASP623  PHE694  ASN695  SER759  ASP760  ASP761  ALA762  ILE779  LEU786  VAL792 
 PHE793  MET794  SER795  GLU796  ALA797  LYS798  CYS799  TRP800  GLU811  SER814 

> <Gold.Protein.RotatedAtoms>
  150.7769  133.9067  159.3357 H   0  0  0  0  0  0  0  0  0  0  0  0  # atno 6907 bound_to 6896
  151.6940  135.0940  160.0248 H   0  0  0  0  0  0  0  0  0  0  0  0  # atno 6908 bound_to 6896
  152.3808  133.6505  159.6195 H   0  0  0  0  0  0  0  0  0  0  0  0  # atno 6909 bound_to 6896
  144.9915  140.7736  143.4551 H   0  0  0  0  0  0  0  0  0  0  0  0  # atno 7974 bound_to 7965
  155.5671  140.3489  155.4506 H   0  0  0  0  0  0  0  0  0  0  0  0  # atno 8008 bound_to 7997
  156.0472  140.1309  157.0116 H   0  0  0  0  0  0  0  0  0  0  0  0  # atno 8009 bound_to 7997
  154.4418  140.1012  156.6308 H   0  0  0  0  0  0  0  0  0  0  0  0  # atno 8010 bound_to 7997
  140.5181  144.0048  150.6404 H   0  0  0  0  0  0  0  0  0  0  0  0  # atno 10167 bound_to 10162
  157.5180  130.8546  149.8521 H   0  0  0  0  0  0  0  0  0  0  0  0  # atno 10718 bound_to 10713
  154.8487  135.3480  154.6119 H   0  0  0  0  0  0  0  0  0  0  0  0  # atno 10763 bound_to 10752
  153.6728  135.6984  153.5146 H   0  0  0  0  0  0  0  0  0  0  0  0  # atno 10764 bound_to 10752
  153.2729  135.4287  155.0962 H   0  0  0  0  0  0  0  0  0  0  0  0  # atno 10765 bound_to 10752
  140.0737  134.5434  155.9019 H   0  0  0  0  0  0  0  0  0  0  0  0  # atno 11005 bound_to 11000
  145.2280  139.2128  143.5058 LP  0  0  0  0  0  0  0  0  0  0  0  0  # atno 17320 bound_to 7965
  146.3432  140.2151  142.8590 LP  0  0  0  0  0  0  0  0  0  0  0  0  # atno 17321 bound_to 7965
  140.3389  143.3031  152.0609 LP  0  0  0  0  0  0  0  0  0  0  0  0  # atno 17342 bound_to 10162
  139.4915  144.6456  151.6785 LP  0  0  0  0  0  0  0  0  0  0  0  0  # atno 17343 bound_to 10162
  156.0334  130.3758  150.1626 LP  0  0  0  0  0  0  0  0  0  0  0  0  # atno 17370 bound_to 10713
  156.9815  130.9865  151.3436 LP  0  0  0  0  0  0  0  0  0  0  0  0  # atno 17371 bound_to 10713
  141.2021  133.6623  156.5989 LP  0  0  0  0  0  0  0  0  0  0  0  0  # atno 17394 bound_to 11000
  140.3589  134.7704  157.4520 LP  0  0  0  0  0  0  0  0  0  0  0  0  # atno 17395 bound_to 11000

$$$$
