AV-unprocessed.smi:1507|AV-procd|sdf|6085|dock3
  -GOLD-   22720 6203D 1   1.00000     0.00000
 Structure written by MMmdl.
 33 34  0  0  0  0  0  0  0  0  4 V2000
  149.0527  135.7224  154.7079 N   0  5  0  0  0  0  0  0  0  0  0  0
  150.1829  136.6906  155.3463 S   0  0  0  0  0  0  0  0  0  0  0  0
  150.1480  136.5900  156.8128 O   0  0  0  0  0  0  0  0  0  0  0  0
  151.4999  136.4525  154.7292 O   0  0  0  0  0  0  0  0  0  0  0  0
  149.4947  138.0934  154.8698 N   0  5  0  0  0  0  0  0  0  0  0  0
  150.2733  139.2497  154.4294 C   0  0  0  0  0  0  0  0  0  0  0  0
  150.5717  140.2229  155.5620 C   0  0  0  0  0  0  0  0  0  0  0  0
  151.3214  139.8166  156.6889 C   0  0  0  0  0  0  0  0  0  0  0  0
  151.5494  140.7309  157.7383 C   0  0  0  0  0  0  0  0  0  0  0  0
  151.0285  142.0452  157.6572 C   0  0  0  0  0  0  0  0  0  0  0  0
  151.2159  142.9985  158.6820 N   0  0  0  0  0  0  0  0  0  0  0  0
  151.3417  144.4022  158.2938 C   0  0  0  0  0  0  0  0  0  0  0  0
  151.2405  145.3129  159.5284 C   0  0  0  0  0  0  0  0  0  0  0  0
  152.2078  144.9172  160.4944 O   0  0  0  0  0  0  0  0  0  0  0  0
  151.9880  143.5860  160.9473 C   0  0  0  0  0  0  0  0  0  0  0  0
  152.1120  142.6068  159.7673 C   0  0  0  0  0  0  0  0  0  0  0  0
  150.3160  142.3854  156.5546 N   0  3  0  0  0  0  0  0  0  0  0  0
  150.0735  141.5434  155.5263 C   0  0  0  0  0  0  0  0  0  0  0  0
  149.0179  135.8926  153.6959 H   0  0  0  0  0  0  0  0  0  0  0  0
  151.2312  138.9394  154.0105 H   0  0  0  0  0  0  0  0  0  0  0  0
  149.7758  139.7913  153.6242 H   0  0  0  0  0  0  0  0  0  0  0  0
  151.7092  138.8104  156.7715 H   0  0  0  0  0  0  0  0  0  0  0  0
  152.1015  140.3986  158.6038 H   0  0  0  0  0  0  0  0  0  0  0  0
  152.2997  144.5535  157.7946 H   0  0  0  0  0  0  0  0  0  0  0  0
  150.5570  144.6724  157.5860 H   0  0  0  0  0  0  0  0  0  0  0  0
  151.4231  146.3496  159.2459 H   0  0  0  0  0  0  0  0  0  0  0  0
  150.2395  145.2728  159.9612 H   0  0  0  0  0  0  0  0  0  0  0  0
  152.7260  143.3456  161.7126 H   0  0  0  0  0  0  0  0  0  0  0  0
  151.0062  143.5069  161.4168 H   0  0  0  0  0  0  0  0  0  0  0  0
  151.8998  141.6008  160.1252 H   0  0  0  0  0  0  0  0  0  0  0  0
  153.1364  142.6023  159.3926 H   0  0  0  0  0  0  0  0  0  0  0  0
  149.4737  141.9519  154.7242 H   0  0  0  0  0  0  0  0  0  0  0  0
  149.9308  143.3280  156.4991 H   0  0  0  0  0  0  0  0  0  0  0  0
  1  2  1  0  0  0  0
  1 19  1  0  0  0  0
  2  3  2  0  0  0  0
  2  4  2  0  0  0  0
  2  5  1  0  0  0  0
  5  6  1  0  0  0  0
  6  7  1  0  0  0  0
  6 20  1  0  0  0  0
  6 21  1  0  0  0  0
  7 18  1  0  0  0  0
  7  8  2  0  0  0  0
  8  9  1  0  0  0  0
  8 22  1  0  0  0  0
  9 10  2  0  0  0  0
  9 23  1  0  0  0  0
 10 11  1  0  0  0  0
 10 17  1  0  0  0  0
 11 16  1  0  0  0  0
 11 12  1  0  0  0  0
 12 13  1  0  0  0  0
 12 24  1  0  0  0  0
 12 25  1  0  0  0  0
 13 14  1  0  0  0  0
 13 26  1  0  0  0  0
 13 27  1  0  0  0  0
 14 15  1  0  0  0  0
 15 16  1  0  0  0  0
 15 28  1  0  0  0  0
 15 29  1  0  0  0  0
 16 30  1  0  0  0  0
 16 31  1  0  0  0  0
 17 18  2  0  0  0  0
 17 33  1  0  0  0  0
 18 32  1  0  0  0  0
M  CHG  1   1  -1
M  CHG  1   5  -1
M  CHG  1  17   1
M  END
> <s_m_source_file>
AV-unprocessed.smi

> <i_m_source_file_index>
1507

> <i_lp_mmshare_version>
43012

> <i_f3d_flags>
0

> <s_epik_input>
W05IMl1TKD1PKSg9TylbTkhdW0NIMl1jMVtjSF1bY0hdYyhuW2NIXTEpTjJbQ0gyXVtDSDJdT1tDSDJdW0NIMl0y

> <s_epik_cmdline>
J2VwaWtfcHl0aG9uJywgJy1waCcsICc3LjAnLCAnLXRuJywgJzgnLCAnLW1hJywgJzIwMCcsICctbWV0YWxfYmluZGluZycsICctaW1hZScsICc8aW5maWxlLm1hZT4nLCAnLW9tYWUnLCAnPG91dGZpbGUubWFlPic=

> <r_epik_Ionization_Penalty>
8.77184

> <r_epik_Ionization_Penalty_Charging>
8.77184

> <r_epik_Ionization_Penalty_Neutral>
3.18726e-12

> <r_epik_State_Penalty>
5.60098

> <r_epik_Charging_Adjusted_Penalty>
14.3728

> <i_epik_Tot_Q>
-1

> <i_epik_Tot_abs_Q>
3

> <r_epik_Metal_State_Penalty>
2.46454

> <b_epik_Metal_Only>
1

> <s_lp_Force_Field>
OPLS_2005

> <r_lp_Energy>
15.9769

> <b_lp_Chiralities_Consistent>
1

> <s_lp_Variant>
AV-unprocessed.smi:1507-6

> <Gold.Version>
5.8.1

> <Gold.Id.Protein>
6NUR|6NUR_protein|mol2

> <Gold.PLP.Fitness>
45.0684

> <Gold.PLP.PLP>
-33.9974

> <Gold.PLP.part.hbond>
-3.0000

> <Gold.PLP.part.metal>
0.0000

> <Gold.PLP.part.buried>
-4.1522

> <Gold.PLP.part.nonpolar>
-27.6631

> <Gold.PLP.part.repulsive>
0.5698

> <Gold.PLP.ligand.clash>
0.0000

> <Gold.PLP.ligand.torsion>
1.1591

> <Gold.PLP.Chemscore.Hbond>
4.0000

> <Gold.PLP.Chemscore.CHOScore>
0.0000

> <Gold.PLP.Chemscore.Metal>
0.0000

> <Gold.Chemscore.Hbonds>
donor molecule, donor type, donor heavy atom, donor atom, acceptor molecule, acceptor atom, score
      L1  H     1    19       P1  7948  1.00
      L1  H    17    33       P1  8028  2.00
      P1  H 10752 10765       L1     4  1.00

> <Gold.PLP.Chemscore.Internal.Correction>
1.3892

> <Gold.Rescore>
     Score         DG    S(hbond)    S(metal)    S(lipo)     H(rot)  DE(clash)    DE(int)     intcor
     18.48     -19.87       2.98        0.00      79.33       1.89       0.21       1.18       ----

> <Gold.Chemscore.Fitness>
18.4812

> <Gold.Chemscore.DG>
-19.8741

> <Gold.Chemscore.ZeroCoef>
-5.4800

> <Gold.Chemscore.Hbond>
2.9810

> <Gold.Chemscore.Metal>
0.0000

> <Gold.Chemscore.Lipo>
79.3313

> <Gold.Chemscore.Internal_Hbond>
0.0000

> <Gold.Chemscore.DEClash>
0.2118

> <Gold.Chemscore.DEInternal>
1.1811

> <Gold.Chemscore.Rot>
1.8922

> <Gold.Chemscore.Internal.Correction>
   9.000000E+99

> <Gold.Chemscore.Hbonds>
donor molecule, donor type, donor heavy atom, donor atom, acceptor molecule, acceptor atom, score
      L1  H     1    19       P1  7948  0.93
      L1  H    17    33       P1  8028  0.97
      P1  H 10752 10765       L1     4  1.00

> <Gold.Chemscore.Hbond.Weighted>
-9.9564

> <Gold.Chemscore.Metal.Weighted>
-0.0000

> <Gold.Chemscore.Lipo.Weighted>
-9.2818

> <Gold.Chemscore.Internal_Hbond.Weighted>
0.0000

> <Gold.Chemscore.DEClash.Weighted>
0.2118

> <Gold.Chemscore.DEInternal.Weighted>
1.1811

> <Gold.Chemscore.Rot.Weighted>
4.8441

> <Gold.Chemscore.Internal.Correction.Weighted>
   9.000000E+99

> <Gold.Protein.RotatedTorsions>
[ 6907 6896 6895 6894 ] final -101.46 input  -60.11 | X-H torsion
[ 7974 7965 7964 7962 ] final  146.82 input  175.53 | X-H torsion
[ 8008 7997 7996 7995 ] final   -6.86 input   59.86 | X-H torsion
[ 10167 10162 10161 10158 ] final   95.43 input  -65.29 | X-H torsion
[ 10718 10713 10712 10709 ] final -137.69 input   66.30 | X-H torsion
[ 10763 10752 10751 10750 ] final  165.79 input  -60.55 | X-H torsion
[ 11005 11000 10999 10996 ] final  158.67 input  -57.11 | X-H torsion

> <Gold.Protein.ActiveResidues>
 VAL166  LYS551  ARG553  GLY616  TRP617  ASP618  TYR619  PRO620  LYS621  CYS622 
 ASP623  PHE694  ASN695  SER759  ASP760  ASP761  ALA762  ILE779  LEU786  VAL792 
 PHE793  MET794  SER795  GLU796  ALA797  LYS798  CYS799  TRP800  GLU811  SER814 

> <Gold.Protein.RotatedAtoms>
  150.7156  134.0730  159.3870 H   0  0  0  0  0  0  0  0  0  0  0  0  # atno 6907 bound_to 6896
  151.8713  135.0486  160.0489 H   0  0  0  0  0  0  0  0  0  0  0  0  # atno 6908 bound_to 6896
  152.2641  133.5287  159.5436 H   0  0  0  0  0  0  0  0  0  0  0  0  # atno 6909 bound_to 6896
  144.8640  139.5952  143.5917 H   0  0  0  0  0  0  0  0  0  0  0  0  # atno 7974 bound_to 7965
  154.5895  140.2422  155.7940 H   0  0  0  0  0  0  0  0  0  0  0  0  # atno 8008 bound_to 7997
  156.2237  140.2989  155.9969 H   0  0  0  0  0  0  0  0  0  0  0  0  # atno 8009 bound_to 7997
  155.2399  140.0406  157.2964 H   0  0  0  0  0  0  0  0  0  0  0  0  # atno 8010 bound_to 7997
  139.7989  144.6822  150.9792 H   0  0  0  0  0  0  0  0  0  0  0  0  # atno 10167 bound_to 10162
  156.2909  130.7374  151.1400 H   0  0  0  0  0  0  0  0  0  0  0  0  # atno 10718 bound_to 10713
  154.3293  135.2755  155.2480 H   0  0  0  0  0  0  0  0  0  0  0  0  # atno 10763 bound_to 10752
  154.4799  135.5861  153.6385 H   0  0  0  0  0  0  0  0  0  0  0  0  # atno 10764 bound_to 10752
  152.9868  135.6109  154.3484 H   0  0  0  0  0  0  0  0  0  0  0  0  # atno 10765 bound_to 10752
  140.1887  134.8423  157.2887 H   0  0  0  0  0  0  0  0  0  0  0  0  # atno 11005 bound_to 11000
  146.2882  139.7064  142.9180 LP  0  0  0  0  0  0  0  0  0  0  0  0  # atno 17320 bound_to 7965
  145.4257  141.0410  143.2939 LP  0  0  0  0  0  0  0  0  0  0  0  0  # atno 17321 bound_to 7965
  140.7820  143.4302  151.0706 LP  0  0  0  0  0  0  0  0  0  0  0  0  # atno 17342 bound_to 10162
  139.7975  143.8130  152.3159 LP  0  0  0  0  0  0  0  0  0  0  0  0  # atno 17343 bound_to 10162
  157.7342  131.0584  150.5536 LP  0  0  0  0  0  0  0  0  0  0  0  0  # atno 17370 bound_to 10713
  156.5652  130.4266  149.6044 LP  0  0  0  0  0  0  0  0  0  0  0  0  # atno 17371 bound_to 10713
  140.2184  134.4053  155.7578 LP  0  0  0  0  0  0  0  0  0  0  0  0  # atno 17394 bound_to 11000
  141.2225  133.7153  156.8451 LP  0  0  0  0  0  0  0  0  0  0  0  0  # atno 17395 bound_to 11000

$$$$
