AV-unprocessed.smi:2855|AV-procd|sdf|10979|dock2
  -GOLD-   2272015433D 1   1.00000     0.00000
 Structure written by MMmdl.
 47 48  0  0  0  0  0  0  0  0  1 V2000
  150.8625  138.6353  156.8100 C   0  0  0  0  0  0  0  0  0  0  0  0
  151.0103  138.9997  155.3219 C   0  0  2  0  0  0  0  0  0  0  0  0
  150.8523  140.5089  155.0614 C   0  0  0  0  0  0  0  0  0  0  0  0
  149.3930  140.9774  155.1874 C   0  0  0  0  0  0  0  0  0  0  0  0
  148.4461  140.1821  154.2575 C   0  0  2  0  0  0  0  0  0  0  0  0
  146.9730  140.6916  154.2929 C   0  0  0  0  0  0  0  0  0  0  0  0
  146.8386  142.1382  153.7869 C   0  0  0  0  0  0  0  0  0  0  0  0
  146.2812  140.5254  155.6586 C   0  0  0  0  0  0  0  0  0  0  0  0
  148.5894  138.6597  154.5291 C   0  0  1  0  0  0  0  0  0  0  0  0
  147.7711  137.8935  153.5923 N   0  0  0  0  0  0  0  0  0  0  0  0
  146.4682  137.6111  153.7409 C   0  0  0  0  0  0  0  0  0  0  0  0
  145.8161  137.9216  154.7385 O   0  0  0  0  0  0  0  0  0  0  0  0
  145.8085  136.8463  152.5857 C   0  0  0  0  0  0  0  0  0  0  0  0
  144.4960  136.2939  152.9497 N   0  0  0  0  0  0  0  0  0  0  0  0
  143.3354  137.0088  152.6891 C   0  0  0  0  0  0  0  0  0  0  0  0
  142.0963  136.5550  152.9931 C   0  0  0  0  0  0  0  0  0  0  0  0
  141.9215  135.2527  153.6272 C   0  0  0  0  0  0  0  0  0  0  0  0
  140.8421  134.7563  153.9423 O   0  0  0  0  0  0  0  0  0  0  0  0
  143.1119  134.5628  153.8706 N   0  0  0  0  0  0  0  0  0  0  0  0
  144.3920  135.0240  153.5593 C   0  0  0  0  0  0  0  0  0  0  0  0
  145.3778  134.3326  153.8144 O   0  0  0  0  0  0  0  0  0  0  0  0
  150.0575  138.1977  154.4154 C   0  0  0  0  0  0  0  0  0  0  0  0
  143.0403  133.6544  154.3054 H   0  0  0  0  0  0  0  0  0  0  0  0
  149.8714  138.8712  157.1963 H   0  0  0  0  0  0  0  0  0  0  0  0
  151.5886  139.1760  157.4174 H   0  0  0  0  0  0  0  0  0  0  0  0
  151.0322  137.5703  156.9698 H   0  0  0  0  0  0  0  0  0  0  0  0
  152.0287  138.7275  155.0420 H   0  0  0  0  0  0  0  0  0  0  0  0
  151.4864  141.0769  155.7430 H   0  0  0  0  0  0  0  0  0  0  0  0
  151.2104  140.7372  154.0566 H   0  0  0  0  0  0  0  0  0  0  0  0
  149.0721  140.8831  156.2243 H   0  0  0  0  0  0  0  0  0  0  0  0
  149.3539  142.0405  154.9529 H   0  0  0  0  0  0  0  0  0  0  0  0
  148.8013  140.3477  153.2387 H   0  0  0  0  0  0  0  0  0  0  0  0
  146.4008  140.0919  153.5849 H   0  0  0  0  0  0  0  0  0  0  0  0
  147.2824  142.8546  154.4778 H   0  0  0  0  0  0  0  0  0  0  0  0
  145.7898  142.4115  153.6679 H   0  0  0  0  0  0  0  0  0  0  0  0
  147.3192  142.2641  152.8166 H   0  0  0  0  0  0  0  0  0  0  0  0
  146.7656  141.1187  156.4337 H   0  0  0  0  0  0  0  0  0  0  0  0
  146.2729  139.4858  155.9848 H   0  0  0  0  0  0  0  0  0  0  0  0
  145.2412  140.8484  155.6053 H   0  0  0  0  0  0  0  0  0  0  0  0
  148.2519  138.4621  155.5469 H   0  0  0  0  0  0  0  0  0  0  0  0
  148.2243  137.5873  152.7438 H   0  0  0  0  0  0  0  0  0  0  0  0
  145.7066  137.4952  151.7131 H   0  0  0  0  0  0  0  0  0  0  0  0
  146.4881  136.0508  152.2770 H   0  0  0  0  0  0  0  0  0  0  0  0
  143.4157  137.9773  152.2161 H   0  0  0  0  0  0  0  0  0  0  0  0
  141.2295  137.1584  152.7648 H   0  0  0  0  0  0  0  0  0  0  0  0
  150.3857  138.3048  153.3802 H   0  0  0  0  0  0  0  0  0  0  0  0
  150.1359  137.1344  154.6461 H   0  0  0  0  0  0  0  0  0  0  0  0
  1  2  1  0  0  0  0
  1 24  1  0  0  0  0
  1 25  1  0  0  0  0
  1 26  1  0  0  0  0
  2 22  1  0  0  0  0
  2  3  1  0  0  0  0
  2 27  1  0  0  0  0
  3  4  1  0  0  0  0
  3 28  1  0  0  0  0
  3 29  1  0  0  0  0
  4  5  1  0  0  0  0
  4 30  1  0  0  0  0
  4 31  1  0  0  0  0
  5  6  1  0  0  0  0
  5  9  1  0  0  0  0
  5 32  1  0  0  0  0
  6  7  1  0  0  0  0
  6  8  1  0  0  0  0
  6 33  1  0  0  0  0
  7 34  1  0  0  0  0
  7 35  1  0  0  0  0
  7 36  1  0  0  0  0
  8 37  1  0  0  0  0
  8 38  1  0  0  0  0
  8 39  1  0  0  0  0
  9 10  1  0  0  0  0
  9 22  1  0  0  0  0
  9 40  1  0  0  0  0
 10 11  1  0  0  0  0
 10 41  1  0  0  0  0
 11 12  2  0  0  0  0
 11 13  1  0  0  0  0
 13 14  1  0  0  0  0
 13 42  1  0  0  0  0
 13 43  1  0  0  0  0
 14 20  1  0  0  0  0
 14 15  1  0  0  0  0
 15 16  2  0  0  0  0
 15 44  1  0  0  0  0
 16 17  1  0  0  0  0
 16 45  1  0  0  0  0
 17 18  2  0  0  0  0
 17 19  1  0  0  0  0
 19 23  1  0  0  0  0
 19 20  1  0  0  0  0
 20 21  2  0  0  0  0
 22 46  1  0  0  0  0
 22 47  1  0  0  0  0
M  END
> <s_m_source_file>
AV-unprocessed.smi

> <i_m_source_file_index>
2855

> <i_lp_mmshare_version>
43012

> <i_f3d_flags>
0

> <s_epik_input>
W0NIM11bQ0BASF0xW0NIMl1bQ0gyXVtDQEBIXShbQ0hdKFtDSDNdKVtDSDNdKVtDQEhdKFtDSDJdMSlbTkhdQyg9TylbQ0gyXW4yW2NIXVtjSF1jKD1PKVtuSF1jMj1P

> <s_epik_cmdline>
J2VwaWtfcHl0aG9uJywgJy1waCcsICc3LjAnLCAnLXRuJywgJzgnLCAnLW1hJywgJzIwMCcsICctbWV0YWxfYmluZGluZycsICctaW1hZScsICc8aW5maWxlLm1hZT4nLCAnLW9tYWUnLCAnPG91dGZpbGUubWFlPic=

> <r_lp_tautomer_probability>
0.999537

> <r_epik_Ionization_Penalty>
0.00306256

> <r_epik_Ionization_Penalty_Charging>
0.00306254

> <r_epik_Ionization_Penalty_Neutral>
2.0223e-08

> <r_epik_State_Penalty>
0.0021533

> <r_epik_Charging_Adjusted_Penalty>
0.00521583

> <i_epik_Tot_Q>
0

> <i_epik_Tot_abs_Q>
0

> <r_epik_Metal_State_Penalty>
0.362116

> <b_epik_Metal_Only>
0

> <s_lp_Force_Field>
OPLS_2005

> <r_lp_Energy>
15.7359

> <b_lp_Chiralities_Consistent>
1

> <s_lp_Variant>
AV-unprocessed.smi:2855-3

> <Gold.Version>
5.8.1

> <Gold.Id.Protein>
6NUR|6NUR_protein|mol2

> <Gold.PLP.Fitness>
43.3121

> <Gold.PLP.PLP>
-30.2901

> <Gold.PLP.part.hbond>
-3.9743

> <Gold.PLP.part.metal>
0.0000

> <Gold.PLP.part.buried>
-3.9785

> <Gold.PLP.part.nonpolar>
-23.2632

> <Gold.PLP.part.repulsive>
0.3724

> <Gold.PLP.ligand.clash>
0.0000

> <Gold.PLP.ligand.torsion>
0.9165

> <Gold.PLP.Chemscore.Hbond>
2.9440

> <Gold.PLP.Chemscore.CHOScore>
1.9854

> <Gold.PLP.Chemscore.Metal>
0.0000

> <Gold.Chemscore.Hbonds>
donor molecule, donor type, donor heavy atom, donor atom, acceptor molecule, acceptor atom, score
      L1  H    10    41       P1  7948  0.96
      L1  H    19    23       P1 10957  1.00
      P1  H 11000 11005       L1    18  1.00
      L1  C    15    44       P1 10171  1.00
      L1  C    15    44       P1 10175  1.00

> <Gold.PLP.Chemscore.Internal.Correction>
0.0668

> <Gold.Rescore>
     Score         DG    S(hbond)    S(metal)    S(lipo)     H(rot)  DE(clash)    DE(int)     intcor
     16.90     -17.89       2.93        0.00      63.00       1.85       0.11       0.88       ----

> <Gold.Chemscore.Fitness>
16.9003

> <Gold.Chemscore.DG>
-17.8930

> <Gold.Chemscore.ZeroCoef>
-5.4800

> <Gold.Chemscore.Hbond>
2.9304

> <Gold.Chemscore.Metal>
0.0000

> <Gold.Chemscore.Lipo>
63.0050

> <Gold.Chemscore.Internal_Hbond>
0.0000

> <Gold.Chemscore.DEClash>
0.1081

> <Gold.Chemscore.DEInternal>
0.8846

> <Gold.Chemscore.Rot>
1.8539

> <Gold.Chemscore.Internal.Correction>
   9.000000E+99

> <Gold.Chemscore.Hbonds>
donor molecule, donor type, donor heavy atom, donor atom, acceptor molecule, acceptor atom, score
      L1  H    10    41       P1  7948  0.92
      L1  H    19    23       P1 10957  0.97
      P1  H 11000 11005       L1    18  0.99

> <Gold.Chemscore.Hbond.Weighted>
-9.7874

> <Gold.Chemscore.Metal.Weighted>
-0.0000

> <Gold.Chemscore.Lipo.Weighted>
-7.3716

> <Gold.Chemscore.Internal_Hbond.Weighted>
0.0000

> <Gold.Chemscore.DEClash.Weighted>
0.1081

> <Gold.Chemscore.DEInternal.Weighted>
0.8846

> <Gold.Chemscore.Rot.Weighted>
4.7460

> <Gold.Chemscore.Internal.Correction.Weighted>
   9.000000E+99

> <Gold.Protein.RotatedTorsions>
[ 6907 6896 6895 6894 ] final  -50.79 input  -60.11 | X-H torsion
[ 7974 7965 7964 7962 ] final   37.56 input  175.53 | X-H torsion
[ 8008 7997 7996 7995 ] final  -93.30 input   59.86 | X-H torsion
[ 10167 10162 10161 10158 ] final  134.55 input  -65.29 | X-H torsion
[ 10718 10713 10712 10709 ] final  169.74 input   66.30 | X-H torsion
[ 10763 10752 10751 10750 ] final  100.23 input  -60.55 | X-H torsion
[ 11005 11000 10999 10996 ] final   22.97 input  -57.11 | X-H torsion

> <Gold.Protein.ActiveResidues>
 VAL166  LYS551  ARG553  GLY616  TRP617  ASP618  TYR619  PRO620  LYS621  CYS622 
 ASP623  PHE694  ASN695  SER759  ASP760  ASP761  ALA762  ILE779  LEU786  VAL792 
 PHE793  MET794  SER795  GLU796  ALA797  LYS798  CYS799  TRP800  GLU811  SER814 

> <Gold.Protein.RotatedAtoms>
  150.8673  134.8039  159.7127 H   0  0  0  0  0  0  0  0  0  0  0  0  # atno 6907 bound_to 6896
  152.4690  134.5003  159.9732 H   0  0  0  0  0  0  0  0  0  0  0  0  # atno 6908 bound_to 6896
  151.5097  133.3449  159.2918 H   0  0  0  0  0  0  0  0  0  0  0  0  # atno 6909 bound_to 6896
  146.1128  139.5878  142.9341 H   0  0  0  0  0  0  0  0  0  0  0  0  # atno 7974 bound_to 7965
  154.7340  140.0500  157.0752 H   0  0  0  0  0  0  0  0  0  0  0  0  # atno 8008 bound_to 7997
  155.0265  140.3153  155.4755 H   0  0  0  0  0  0  0  0  0  0  0  0  # atno 8009 bound_to 7997
  156.2848  140.2157  156.5385 H   0  0  0  0  0  0  0  0  0  0  0  0  # atno 8010 bound_to 7997
  139.5252  144.6562  151.5155 H   0  0  0  0  0  0  0  0  0  0  0  0  # atno 10167 bound_to 10162
  157.0183  131.0224  151.2782 H   0  0  0  0  0  0  0  0  0  0  0  0  # atno 10718 bound_to 10713
  153.3113  135.4086  155.1338 H   0  0  0  0  0  0  0  0  0  0  0  0  # atno 10763 bound_to 10752
  154.8576  135.3565  154.5719 H   0  0  0  0  0  0  0  0  0  0  0  0  # atno 10764 bound_to 10752
  153.6148  135.7066  153.5391 H   0  0  0  0  0  0  0  0  0  0  0  0  # atno 10765 bound_to 10752
  140.3747  134.1984  155.7665 H   0  0  0  0  0  0  0  0  0  0  0  0  # atno 11005 bound_to 11000
  145.5629  141.0402  143.2216 LP  0  0  0  0  0  0  0  0  0  0  0  0  # atno 17320 bound_to 7965
  144.7526  139.7155  143.7267 LP  0  0  0  0  0  0  0  0  0  0  0  0  # atno 17321 bound_to 7965
  140.6388  143.8930  150.6672 LP  0  0  0  0  0  0  0  0  0  0  0  0  # atno 17342 bound_to 10162
  140.2257  143.3774  152.1606 LP  0  0  0  0  0  0  0  0  0  0  0  0  # atno 17343 bound_to 10162
  157.5269  130.8033  149.7872 LP  0  0  0  0  0  0  0  0  0  0  0  0  # atno 17370 bound_to 10713
  156.0111  130.3833  150.2261 LP  0  0  0  0  0  0  0  0  0  0  0  0  # atno 17371 bound_to 10713
  141.1943  133.8131  157.0763 LP  0  0  0  0  0  0  0  0  0  0  0  0  # atno 17394 bound_to 11000
  140.0524  134.9798  157.1160 LP  0  0  0  0  0  0  0  0  0  0  0  0  # atno 17395 bound_to 11000

$$$$
