AV-unprocessed.smi:1509|AV-procd|sdf|6090|dock9
  -GOLD-   22720 6213D 1   1.00000     0.00000
 Structure written by MMmdl.
 42 43  0  0  0  0  0  0  0  0  2 V2000
  145.1469  133.2507  150.4731 C   0  0  0  0  0  0  0  0  0  0  0  0
  146.0633  132.1145  150.9492 C   0  0  2  0  0  0  0  0  0  0  0  0
  145.2646  130.8326  151.2380 C   0  0  0  0  0  0  0  0  0  0  0  0
  146.2012  129.7248  151.7352 C   0  0  0  0  0  0  0  0  0  0  0  0
  147.0102  130.1949  152.9543 C   0  0  0  0  0  0  0  0  0  0  0  0
  147.7744  131.4318  152.6475 N   0  3  2  0  0  0  0  0  0  0  0  0
  148.6647  131.8310  153.7672 C   0  0  0  0  0  0  0  0  0  0  0  0
  149.2690  133.2323  153.5720 C   0  0  0  0  0  0  0  0  0  0  0  0
  148.8129  134.2179  154.6611 C   0  0  0  0  0  0  0  0  0  0  0  0
  149.1923  135.5900  154.3446 N   0  0  0  0  0  0  0  0  0  0  0  0
  149.7604  136.4489  155.2057 C   0  0  0  0  0  0  0  0  0  0  0  0
  150.0048  136.1675  156.3788 O   0  0  0  0  0  0  0  0  0  0  0  0
  150.1125  137.8341  154.6619 C   0  0  0  0  0  0  0  0  0  0  0  0
  151.5187  138.1291  154.8641 N   0  0  0  0  0  0  0  0  0  0  0  0
  152.1218  139.1524  155.4730 C   0  0  0  0  0  0  0  0  0  0  0  0
  153.4405  139.0391  155.4301 N   0  0  0  0  0  0  0  0  0  0  0  0
  153.6317  137.8529  154.7413 N   0  0  0  0  0  0  0  0  0  0  0  0
  152.4950  137.3082  154.4034 N   0  0  0  0  0  0  0  0  0  0  0  0
  146.8770  132.5284  152.1922 C   0  0  0  0  0  0  0  0  0  0  0  0
  144.4169  133.5190  151.2375 H   0  0  0  0  0  0  0  0  0  0  0  0
  144.5985  132.9629  149.5757 H   0  0  0  0  0  0  0  0  0  0  0  0
  145.7218  134.1457  150.2333 H   0  0  0  0  0  0  0  0  0  0  0  0
  146.7660  131.9005  150.1423 H   0  0  0  0  0  0  0  0  0  0  0  0
  144.4989  131.0309  151.9896 H   0  0  0  0  0  0  0  0  0  0  0  0
  144.7419  130.5009  150.3402 H   0  0  0  0  0  0  0  0  0  0  0  0
  145.6233  128.8363  151.9912 H   0  0  0  0  0  0  0  0  0  0  0  0
  146.8809  129.4314  150.9340 H   0  0  0  0  0  0  0  0  0  0  0  0
  146.3461  130.3760  153.8011 H   0  0  0  0  0  0  0  0  0  0  0  0
  147.6959  129.4009  153.2524 H   0  0  0  0  0  0  0  0  0  0  0  0
  148.1230  131.7696  154.7124 H   0  0  0  0  0  0  0  0  0  0  0  0
  149.4889  131.1200  153.8396 H   0  0  0  0  0  0  0  0  0  0  0  0
  150.3576  133.1630  153.5799 H   0  0  0  0  0  0  0  0  0  0  0  0
  148.9921  133.6286  152.5957 H   0  0  0  0  0  0  0  0  0  0  0  0
  147.7328  134.1564  154.8050 H   0  0  0  0  0  0  0  0  0  0  0  0
  149.2680  133.9541  155.6160 H   0  0  0  0  0  0  0  0  0  0  0  0
  149.0269  135.9042  153.3991 H   0  0  0  0  0  0  0  0  0  0  0  0
  149.8912  137.9009  153.5957 H   0  0  0  0  0  0  0  0  0  0  0  0
  149.5064  138.5896  155.1644 H   0  0  0  0  0  0  0  0  0  0  0  0
  151.5996  139.9740  155.9407 H   0  0  0  0  0  0  0  0  0  0  0  0
  147.4620  133.4148  151.9498 H   0  0  0  0  0  0  0  0  0  0  0  0
  146.2058  132.8088  153.0059 H   0  0  0  0  0  0  0  0  0  0  0  0
  148.3768  131.2023  151.8698 H   0  0  0  0  0  0  0  0  0  0  0  0
  1  2  1  0  0  0  0
  1 20  1  0  0  0  0
  1 21  1  0  0  0  0
  1 22  1  0  0  0  0
  2 19  1  0  0  0  0
  2  3  1  0  0  0  0
  2 23  1  0  0  0  0
  3  4  1  0  0  0  0
  3 24  1  0  0  0  0
  3 25  1  0  0  0  0
  4  5  1  0  0  0  0
  4 26  1  0  0  0  0
  4 27  1  0  0  0  0
  5  6  1  0  0  0  0
  5 28  1  0  0  0  0
  5 29  1  0  0  0  0
  6  7  1  0  0  0  0
  6 19  1  0  0  0  0
  6 42  1  0  0  0  0
  7  8  1  0  0  0  0
  7 30  1  0  0  0  0
  7 31  1  0  0  0  0
  8  9  1  0  0  0  0
  8 32  1  0  0  0  0
  8 33  1  0  0  0  0
  9 10  1  0  0  0  0
  9 34  1  0  0  0  0
  9 35  1  0  0  0  0
 10 11  1  0  0  0  0
 10 36  1  0  0  0  0
 11 12  2  0  0  0  0
 11 13  1  0  0  0  0
 13 14  1  0  0  0  0
 13 37  1  0  0  0  0
 13 38  1  0  0  0  0
 14 18  1  0  0  0  0
 14 15  1  0  0  0  0
 15 16  2  0  0  0  0
 15 39  1  0  0  0  0
 16 17  1  0  0  0  0
 17 18  2  0  0  0  0
 19 40  1  0  0  0  0
 19 41  1  0  0  0  0
M  CHG  1   6   1
M  END
> <s_m_source_file>
AV-unprocessed.smi

> <i_m_source_file_index>
1509

> <i_lp_mmshare_version>
43012

> <i_f3d_flags>
0

> <s_epik_input>
W0NIM11bQ0BASF0xW0NIMl1bQ0gyXVtDSDJdTihbQ0gyXTEpW0NIMl1bQ0gyXVtDSDJdW05IXUMoPU8pW0NIMl1uMltjSF1ubm4y

> <s_epik_cmdline>
J2VwaWtfcHl0aG9uJywgJy1waCcsICc3LjAnLCAnLXRuJywgJzgnLCAnLW1hJywgJzIwMCcsICctbWV0YWxfYmluZGluZycsICctaW1hZScsICc8aW5maWxlLm1hZT4nLCAnLW9tYWUnLCAnPG91dGZpbGUubWFlPic=

> <r_lp_tautomer_probability>
1

> <r_epik_Ionization_Penalty>
0.00044216

> <r_epik_Ionization_Penalty_Charging>
0.000440775

> <r_epik_Ionization_Penalty_Neutral>
1.38512e-06

> <r_epik_State_Penalty>
0.000271914

> <r_epik_Charging_Adjusted_Penalty>
0.000712689

> <i_epik_Tot_Q>
1

> <i_epik_Tot_abs_Q>
1

> <r_epik_Metal_State_Penalty>
-0

> <b_epik_Metal_Only>
0

> <s_lp_Force_Field>
OPLS_2005

> <r_lp_Energy>
19.8667

> <b_lp_Chiralities_Consistent>
1

> <s_lp_Variant>
AV-unprocessed.smi:1509-1

> <Gold.Version>
5.8.1

> <Gold.Id.Protein>
6NUR|6NUR_protein|mol2

> <Gold.PLP.Fitness>
48.8919

> <Gold.PLP.PLP>
-38.9703

> <Gold.PLP.part.hbond>
-5.0000

> <Gold.PLP.part.metal>
0.0000

> <Gold.PLP.part.buried>
-6.3169

> <Gold.PLP.part.nonpolar>
-28.0657

> <Gold.PLP.part.repulsive>
0.2037

> <Gold.PLP.ligand.clash>
0.0000

> <Gold.PLP.ligand.torsion>
0.6207

> <Gold.PLP.Chemscore.Hbond>
3.7040

> <Gold.PLP.Chemscore.CHOScore>
0.0000

> <Gold.PLP.Chemscore.Metal>
0.0000

> <Gold.Chemscore.Hbonds>
donor molecule, donor type, donor heavy atom, donor atom, acceptor molecule, acceptor atom, score
      L1  H     6    42       P1 10747  1.00
      L1  H    10    36       P1  7948  1.00
      P1  H  7997  8010       L1    16  1.00
      P1  H 10752 10763       L1    18  0.64

> <Gold.PLP.Chemscore.Internal.Correction>
0.0511

> <Gold.Rescore>
     Score         DG    S(hbond)    S(metal)    S(lipo)     H(rot)  DE(clash)    DE(int)     intcor
     16.18     -16.93       3.19        0.00      71.72       2.97       0.03       0.71       ----

> <Gold.Chemscore.Fitness>
16.1847

> <Gold.Chemscore.DG>
-16.9287

> <Gold.Chemscore.ZeroCoef>
-5.4800

> <Gold.Chemscore.Hbond>
3.1902

> <Gold.Chemscore.Metal>
0.0000

> <Gold.Chemscore.Lipo>
71.7210

> <Gold.Chemscore.Internal_Hbond>
0.0000

> <Gold.Chemscore.DEClash>
0.0314

> <Gold.Chemscore.DEInternal>
0.7126

> <Gold.Chemscore.Rot>
2.9680

> <Gold.Chemscore.Internal.Correction>
   9.000000E+99

> <Gold.Chemscore.Hbonds>
donor molecule, donor type, donor heavy atom, donor atom, acceptor molecule, acceptor atom, score
      L1  H     6    42       P1 10747  1.00
      L1  H    10    36       P1  7948  0.86
      P1  H  7997  8010       L1    16  0.95
      P1  H 10752 10763       L1    18  0.16

> <Gold.Chemscore.Hbond.Weighted>
-10.6553

> <Gold.Chemscore.Metal.Weighted>
-0.0000

> <Gold.Chemscore.Lipo.Weighted>
-8.3914

> <Gold.Chemscore.Internal_Hbond.Weighted>
0.0000

> <Gold.Chemscore.DEClash.Weighted>
0.0314

> <Gold.Chemscore.DEInternal.Weighted>
0.7126

> <Gold.Chemscore.Rot.Weighted>
7.5980

> <Gold.Chemscore.Internal.Correction.Weighted>
   9.000000E+99

> <Gold.Protein.RotatedTorsions>
[ 6907 6896 6895 6894 ] final   65.19 input  -60.11 | X-H torsion
[ 7974 7965 7964 7962 ] final  -60.07 input  175.53 | X-H torsion
[ 8008 7997 7996 7995 ] final   97.69 input   59.86 | X-H torsion
[ 10167 10162 10161 10158 ] final  -31.62 input  -65.29 | X-H torsion
[ 10718 10713 10712 10709 ] final  156.79 input   66.30 | X-H torsion
[ 10763 10752 10751 10750 ] final   32.11 input  -60.55 | X-H torsion
[ 11005 11000 10999 10996 ] final   61.18 input  -57.11 | X-H torsion

> <Gold.Protein.ActiveResidues>
 VAL166  LYS551  ARG553  GLY616  TRP617  ASP618  TYR619  PRO620  LYS621  CYS622 
 ASP623  PHE694  ASN695  SER759  ASP760  ASP761  ALA762  ILE779  LEU786  VAL792 
 PHE793  MET794  SER795  GLU796  ALA797  LYS798  CYS799  TRP800  GLU811  SER814 

> <Gold.Protein.RotatedAtoms>
  152.4389  134.5631  159.9899 H   0  0  0  0  0  0  0  0  0  0  0  0  # atno 6907 bound_to 6896
  151.5734  133.3381  159.3002 H   0  0  0  0  0  0  0  0  0  0  0  0  # atno 6908 bound_to 6896
  150.8292  134.7571  159.6903 H   0  0  0  0  0  0  0  0  0  0  0  0  # atno 6909 bound_to 6896
  145.8199  140.8546  143.0138 H   0  0  0  0  0  0  0  0  0  0  0  0  # atno 7974 bound_to 7965
  156.0927  140.3255  155.7837 H   0  0  0  0  0  0  0  0  0  0  0  0  # atno 8008 bound_to 7997
  155.4970  140.0566  157.2962 H   0  0  0  0  0  0  0  0  0  0  0  0  # atno 8009 bound_to 7997
  154.4647  140.1983  156.0165 H   0  0  0  0  0  0  0  0  0  0  0  0  # atno 8010 bound_to 7997
  140.7233  143.3757  151.1695 H   0  0  0  0  0  0  0  0  0  0  0  0  # atno 10167 bound_to 10162
  157.2002  131.0674  151.2029 H   0  0  0  0  0  0  0  0  0  0  0  0  # atno 10718 bound_to 10713
  153.0279  135.6421  154.1304 H   0  0  0  0  0  0  0  0  0  0  0  0  # atno 10763 bound_to 10752
  154.1030  135.2858  155.3249 H   0  0  0  0  0  0  0  0  0  0  0  0  # atno 10764 bound_to 10752
  154.6385  135.5468  153.7825 H   0  0  0  0  0  0  0  0  0  0  0  0  # atno 10765 bound_to 10752
  140.0179  134.6196  155.9682 H   0  0  0  0  0  0  0  0  0  0  0  0  # atno 11005 bound_to 11000
  144.6749  140.0518  143.7478 LP  0  0  0  0  0  0  0  0  0  0  0  0  # atno 17320 bound_to 7965
  145.9686  139.2853  143.1112 LP  0  0  0  0  0  0  0  0  0  0  0  0  # atno 17321 bound_to 7965
  139.7336  143.9033  152.3027 LP  0  0  0  0  0  0  0  0  0  0  0  0  # atno 17342 bound_to 10162
  139.8831  144.7007  150.8855 LP  0  0  0  0  0  0  0  0  0  0  0  0  # atno 17343 bound_to 10162
  157.3774  130.7213  149.6606 LP  0  0  0  0  0  0  0  0  0  0  0  0  # atno 17370 bound_to 10713
  155.9701  130.4182  150.4315 LP  0  0  0  0  0  0  0  0  0  0  0  0  # atno 17371 bound_to 10713
  141.1755  133.6540  156.4813 LP  0  0  0  0  0  0  0  0  0  0  0  0  # atno 17394 bound_to 11000
  140.4438  134.6991  157.5005 LP  0  0  0  0  0  0  0  0  0  0  0  0  # atno 17395 bound_to 11000

$$$$
