AV-unprocessed.smi:3134|AV-procd|sdf|11943|dock4
  -GOLD-   2272017333D 1   1.00000     0.00000
 Structure written by MMmdl.
 36 36  0  0  0  0  0  0  0  0  1 V2000
  145.5284  143.6885  153.4605 C   0  0  0  0  0  0  0  0  0  0  0  0
  145.8306  142.6297  154.5289 C   0  0  0  0  0  0  0  0  0  0  0  0
  145.1457  142.9590  155.8648 C   0  0  0  0  0  0  0  0  0  0  0  0
  147.2745  142.5256  154.7129 N   0  0  0  0  0  0  0  0  0  0  0  0
  147.9883  141.3898  154.6551 C   0  0  0  0  0  0  0  0  0  0  0  0
  147.4891  140.2875  154.4265 O   0  0  0  0  0  0  0  0  0  0  0  0
  149.4954  141.5141  154.9362 C   0  0  2  0  0  0  0  0  0  0  0  0
  150.1719  140.1337  154.9112 C   0  0  0  0  0  0  0  0  0  0  0  0
  149.7986  142.1934  156.2092 N   0  0  0  0  0  0  0  0  0  0  0  0
  151.2189  142.4267  156.4472 C   0  0  0  0  0  0  0  0  0  0  0  0
  151.5364  142.1660  157.9264 C   0  0  0  0  0  0  0  0  0  0  0  0
  151.5342  143.3939  158.6977 N   0  0  0  0  0  0  0  0  0  0  0  0
  152.2434  144.5534  158.4654 C   0  0  0  0  0  0  0  0  0  0  0  0
  151.9166  145.4344  159.4561 C   0  0  0  0  0  0  0  0  0  0  0  0
  150.9886  144.7126  160.2576 C   0  0  0  0  0  0  0  0  0  0  0  0
  150.7621  143.4912  159.8016 N   0  0  0  0  0  0  0  0  0  0  0  0
  144.4556  143.7714  153.2843 H   0  0  0  0  0  0  0  0  0  0  0  0
  145.9986  143.4332  152.5102 H   0  0  0  0  0  0  0  0  0  0  0  0
  145.8932  144.6716  153.7600 H   0  0  0  0  0  0  0  0  0  0  0  0
  145.4471  141.6741  154.1670 H   0  0  0  0  0  0  0  0  0  0  0  0
  144.0651  143.0342  155.7421 H   0  0  0  0  0  0  0  0  0  0  0  0
  145.5015  143.9068  156.2704 H   0  0  0  0  0  0  0  0  0  0  0  0
  145.3376  142.1858  156.6095 H   0  0  0  0  0  0  0  0  0  0  0  0
  147.7693  143.3817  154.9171 H   0  0  0  0  0  0  0  0  0  0  0  0
  149.9389  142.1045  154.1321 H   0  0  0  0  0  0  0  0  0  0  0  0
  149.9758  139.6127  153.9732 H   0  0  0  0  0  0  0  0  0  0  0  0
  149.8213  139.4975  155.7250 H   0  0  0  0  0  0  0  0  0  0  0  0
  151.2538  140.2281  155.0102 H   0  0  0  0  0  0  0  0  0  0  0  0
  149.2911  143.0625  156.2961 H   0  0  0  0  0  0  0  0  0  0  0  0
  151.8129  141.7637  155.8164 H   0  0  0  0  0  0  0  0  0  0  0  0
  151.4869  143.4530  156.1927 H   0  0  0  0  0  0  0  0  0  0  0  0
  150.8076  141.4807  158.3622 H   0  0  0  0  0  0  0  0  0  0  0  0
  152.5152  141.6952  158.0288 H   0  0  0  0  0  0  0  0  0  0  0  0
  152.9132  144.6538  157.6238 H   0  0  0  0  0  0  0  0  0  0  0  0
  152.2844  146.4410  159.5883 H   0  0  0  0  0  0  0  0  0  0  0  0
  150.4766  145.0374  161.1515 H   0  0  0  0  0  0  0  0  0  0  0  0
  1  2  1  0  0  0  0
  1 17  1  0  0  0  0
  1 18  1  0  0  0  0
  1 19  1  0  0  0  0
  2  3  1  0  0  0  0
  2  4  1  0  0  0  0
  2 20  1  0  0  0  0
  3 21  1  0  0  0  0
  3 22  1  0  0  0  0
  3 23  1  0  0  0  0
  4  5  1  0  0  0  0
  4 24  1  0  0  0  0
  5  6  2  0  0  0  0
  5  7  1  0  0  0  0
  7  8  1  0  0  0  0
  7  9  1  0  0  0  0
  7 25  1  0  0  0  0
  8 26  1  0  0  0  0
  8 27  1  0  0  0  0
  8 28  1  0  0  0  0
  9 10  1  0  0  0  0
  9 29  1  0  0  0  0
 10 11  1  0  0  0  0
 10 30  1  0  0  0  0
 10 31  1  0  0  0  0
 11 12  1  0  0  0  0
 11 32  1  0  0  0  0
 11 33  1  0  0  0  0
 12 16  1  0  0  0  0
 12 13  1  0  0  0  0
 13 14  2  0  0  0  0
 13 34  1  0  0  0  0
 14 15  1  0  0  0  0
 14 35  1  0  0  0  0
 15 16  2  0  0  0  0
 15 36  1  0  0  0  0
M  END
> <s_m_source_file>
AV-unprocessed.smi

> <i_m_source_file_index>
3134

> <i_lp_mmshare_version>
43012

> <i_f3d_flags>
0

> <s_epik_input>
W0NIM11bQ0hdKFtDSDNdKVtOSF1DKD1PKVtDQEhdKFtDSDNdKVtOSF1bQ0gyXVtDSDJdbjFbY0hdW2NIXVtjSF1uMQ==

> <s_epik_cmdline>
J2VwaWtfcHl0aG9uJywgJy1waCcsICc3LjAnLCAnLXRuJywgJzgnLCAnLW1hJywgJzIwMCcsICctbWV0YWxfYmluZGluZycsICctaW1hZScsICc8aW5maWxlLm1hZT4nLCAnLW9tYWUnLCAnPG91dGZpbGUubWFlPic=

> <r_lp_tautomer_probability>
1

> <r_epik_Ionization_Penalty>
0.731872

> <r_epik_Ionization_Penalty_Charging>
0

> <r_epik_Ionization_Penalty_Neutral>
0.731872

> <r_epik_State_Penalty>
0.75611

> <r_epik_Charging_Adjusted_Penalty>
0.75611

> <i_epik_Tot_Q>
0

> <i_epik_Tot_abs_Q>
0

> <r_epik_Metal_State_Penalty>
0.755373

> <b_epik_Metal_Only>
0

> <s_lp_Force_Field>
OPLS_2005

> <r_lp_Energy>
3.66061

> <b_lp_Chiralities_Consistent>
1

> <s_lp_Variant>
AV-unprocessed.smi:3134-3

> <Gold.Version>
5.8.1

> <Gold.Id.Protein>
6NUR|6NUR_protein|mol2

> <Gold.PLP.Fitness>
44.3442

> <Gold.PLP.PLP>
-39.6072

> <Gold.PLP.part.hbond>
-2.7125

> <Gold.PLP.part.metal>
0.0000

> <Gold.PLP.part.buried>
-6.1106

> <Gold.PLP.part.nonpolar>
-31.5103

> <Gold.PLP.part.repulsive>
0.3210

> <Gold.PLP.ligand.clash>
0.0000

> <Gold.PLP.ligand.torsion>
0.6897

> <Gold.PLP.Chemscore.Hbond>
2.0000

> <Gold.PLP.Chemscore.CHOScore>
0.0000

> <Gold.PLP.Chemscore.Metal>
0.0000

> <Gold.Chemscore.Hbonds>
donor molecule, donor type, donor heavy atom, donor atom, acceptor molecule, acceptor atom, score
      L1  H     4    24       P1  8028  1.00
      L1  H     9    29       P1  8028  1.00

> <Gold.PLP.Chemscore.Internal.Correction>
0.1164

> <Gold.Rescore>
     Score         DG    S(hbond)    S(metal)    S(lipo)     H(rot)  DE(clash)    DE(int)     intcor
     14.84     -16.12       1.67        0.00      88.06       2.05       0.42       0.86       ----

> <Gold.Chemscore.Fitness>
14.8425

> <Gold.Chemscore.DG>
-16.1205

> <Gold.Chemscore.ZeroCoef>
-5.4800

> <Gold.Chemscore.Hbond>
1.6745

> <Gold.Chemscore.Metal>
0.0000

> <Gold.Chemscore.Lipo>
88.0609

> <Gold.Chemscore.Internal_Hbond>
0.0000

> <Gold.Chemscore.DEClash>
0.4212

> <Gold.Chemscore.DEInternal>
0.8568

> <Gold.Chemscore.Rot>
2.0529

> <Gold.Chemscore.Internal.Correction>
   9.000000E+99

> <Gold.Chemscore.Hbonds>
donor molecule, donor type, donor heavy atom, donor atom, acceptor molecule, acceptor atom, score
      L1  H     4    24       P1  8028  0.50
      L1  H     9    29       P1  8028  0.94

> <Gold.Chemscore.Hbond.Weighted>
-5.5927

> <Gold.Chemscore.Metal.Weighted>
-0.0000

> <Gold.Chemscore.Lipo.Weighted>
-10.3031

> <Gold.Chemscore.Internal_Hbond.Weighted>
0.0000

> <Gold.Chemscore.DEClash.Weighted>
0.4212

> <Gold.Chemscore.DEInternal.Weighted>
0.8568

> <Gold.Chemscore.Rot.Weighted>
5.2554

> <Gold.Chemscore.Internal.Correction.Weighted>
   9.000000E+99

> <Gold.Protein.RotatedTorsions>
[ 6907 6896 6895 6894 ] final  -11.25 input  -60.11 | X-H torsion
[ 7974 7965 7964 7962 ] final   26.21 input  175.53 | X-H torsion
[ 8008 7997 7996 7995 ] final   47.62 input   59.86 | X-H torsion
[ 10167 10162 10161 10158 ] final   29.35 input  -65.29 | X-H torsion
[ 10718 10713 10712 10709 ] final   12.77 input   66.30 | X-H torsion
[ 10763 10752 10751 10750 ] final  -67.73 input  -60.55 | X-H torsion
[ 11005 11000 10999 10996 ] final -176.80 input  -57.11 | X-H torsion

> <Gold.Protein.ActiveResidues>
 VAL166  LYS551  ARG553  GLY616  TRP617  ASP618  TYR619  PRO620  LYS621  CYS622 
 ASP623  PHE694  ASN695  SER759  ASP760  ASP761  ALA762  ILE779  LEU786  VAL792 
 PHE793  MET794  SER795  GLU796  ALA797  LYS798  CYS799  TRP800  GLU811  SER814 

> <Gold.Protein.RotatedAtoms>
  151.3891  135.0953  159.9520 H   0  0  0  0  0  0  0  0  0  0  0  0  # atno 6907 bound_to 6896
  152.5085  133.8997  159.7445 H   0  0  0  0  0  0  0  0  0  0  0  0  # atno 6908 bound_to 6896
  150.9447  133.6561  159.2812 H   0  0  0  0  0  0  0  0  0  0  0  0  # atno 6909 bound_to 6896
  146.1849  139.7359  142.8874 H   0  0  0  0  0  0  0  0  0  0  0  0  # atno 7974 bound_to 7965
  155.3720  140.3424  155.4243 H   0  0  0  0  0  0  0  0  0  0  0  0  # atno 8008 bound_to 7997
  156.1657  140.1615  156.8569 H   0  0  0  0  0  0  0  0  0  0  0  0  # atno 8009 bound_to 7997
  154.5183  140.0773  156.8105 H   0  0  0  0  0  0  0  0  0  0  0  0  # atno 8010 bound_to 7997
  140.4773  144.0670  150.6254 H   0  0  0  0  0  0  0  0  0  0  0  0  # atno 10167 bound_to 10162
  157.0149  130.6132  149.5713 H   0  0  0  0  0  0  0  0  0  0  0  0  # atno 10718 bound_to 10713
  154.3787  135.6079  153.5779 H   0  0  0  0  0  0  0  0  0  0  0  0  # atno 10763 bound_to 10752
  152.9788  135.5855  154.4435 H   0  0  0  0  0  0  0  0  0  0  0  0  # atno 10764 bound_to 10752
  154.4201  135.2845  155.1959 H   0  0  0  0  0  0  0  0  0  0  0  0  # atno 10765 bound_to 10752
  140.4480  134.6369  157.4788 H   0  0  0  0  0  0  0  0  0  0  0  0  # atno 11005 bound_to 11000
  145.3968  141.0380  143.3093 LP  0  0  0  0  0  0  0  0  0  0  0  0  # atno 17320 bound_to 7965
  144.8380  139.5519  143.6913 LP  0  0  0  0  0  0  0  0  0  0  0  0  # atno 17321 bound_to 7965
  140.3902  143.2756  152.0069 LP  0  0  0  0  0  0  0  0  0  0  0  0  # atno 17342 bound_to 10162
  139.4827  144.6083  151.7480 LP  0  0  0  0  0  0  0  0  0  0  0  0  # atno 17343 bound_to 10162
  156.0123  130.5215  150.8026 LP  0  0  0  0  0  0  0  0  0  0  0  0  # atno 17370 bound_to 10713
  157.5293  131.0936  150.9977 LP  0  0  0  0  0  0  0  0  0  0  0  0  # atno 17371 bound_to 10713
  140.0025  134.6814  155.9507 LP  0  0  0  0  0  0  0  0  0  0  0  0  # atno 17394 bound_to 11000
  141.1676  133.6537  156.4536 LP  0  0  0  0  0  0  0  0  0  0  0  0  # atno 17395 bound_to 11000

$$$$
