AV-unprocessed.smi:1197|AV-procd|sdf|5008|dock2
  -GOLD-   22720 4 23D 1   1.00000     0.00000
 Structure written by MMmdl.
 40 41  0  0  0  0  0  0  0  0  1 V2000
  152.3351  140.7252  157.6991 C   0  0  0  0  0  0  0  0  0  0  0  0
  152.0254  140.7011  156.3101 O   0  0  0  0  0  0  0  0  0  0  0  0
  151.5162  139.5367  155.7725 C   0  0  0  0  0  0  0  0  0  0  0  0
  151.6588  138.3394  156.5011 C   0  0  0  0  0  0  0  0  0  0  0  0
  151.1446  137.1456  155.9594 C   0  0  0  0  0  0  0  0  0  0  0  0
  150.4941  137.1882  154.7023 C   0  0  0  0  0  0  0  0  0  0  0  0
  149.9437  136.0597  154.0338 N   0  0  0  0  0  0  0  0  0  0  0  0
  150.1143  134.7514  154.2918 C   0  0  0  0  0  0  0  0  0  0  0  0
  150.7791  134.2840  155.2156 O   0  0  0  0  0  0  0  0  0  0  0  0
  149.4450  133.9951  153.4102 N   0  0  0  0  0  0  0  0  0  0  0  0
  149.4230  132.5373  153.4052 C   0  0  0  0  0  0  0  0  0  0  0  0
  147.9858  131.9952  153.2864 C   0  0  0  0  0  0  0  0  0  0  0  0
  147.2598  132.4338  152.0961 N   0  0  0  0  0  0  0  0  0  0  0  0
  146.6237  133.7377  152.2723 C   0  0  0  0  0  0  0  0  0  0  0  0
  145.8429  134.1692  151.0186 C   0  0  0  0  0  0  0  0  0  0  0  0
  144.8801  133.1744  150.6866 O   0  0  0  0  0  0  0  0  0  0  0  0
  145.4674  131.8973  150.4607 C   0  0  0  0  0  0  0  0  0  0  0  0
  146.2431  131.4590  151.7150 C   0  0  0  0  0  0  0  0  0  0  0  0
  150.4100  138.4371  154.0523 C   0  0  0  0  0  0  0  0  0  0  0  0
  150.9018  139.5845  154.5649 N   0  0  0  0  0  0  0  0  0  0  0  0
  152.7309  141.7058  157.9632 H   0  0  0  0  0  0  0  0  0  0  0  0
  153.0938  139.9834  157.9528 H   0  0  0  0  0  0  0  0  0  0  0  0
  151.4467  140.5521  158.3082 H   0  0  0  0  0  0  0  0  0  0  0  0
  152.1591  138.3349  157.4583 H   0  0  0  0  0  0  0  0  0  0  0  0
  151.2734  136.2317  156.5166 H   0  0  0  0  0  0  0  0  0  0  0  0
  149.3195  136.2784  153.2713 H   0  0  0  0  0  0  0  0  0  0  0  0
  148.9196  134.4601  152.6844 H   0  0  0  0  0  0  0  0  0  0  0  0
  150.0312  132.2085  152.5635 H   0  0  0  0  0  0  0  0  0  0  0  0
  149.9033  132.1541  154.3074 H   0  0  0  0  0  0  0  0  0  0  0  0
  148.0388  130.9056  153.2763 H   0  0  0  0  0  0  0  0  0  0  0  0
  147.4197  132.2580  154.1814 H   0  0  0  0  0  0  0  0  0  0  0  0
  145.9457  133.7067  153.1265 H   0  0  0  0  0  0  0  0  0  0  0  0
  147.3715  134.4987  152.4930 H   0  0  0  0  0  0  0  0  0  0  0  0
  145.3314  135.1150  151.1978 H   0  0  0  0  0  0  0  0  0  0  0  0
  146.5202  134.3246  150.1772 H   0  0  0  0  0  0  0  0  0  0  0  0
  144.6809  131.1786  150.2303 H   0  0  0  0  0  0  0  0  0  0  0  0
  146.1277  131.9405  149.5929 H   0  0  0  0  0  0  0  0  0  0  0  0
  146.7097  130.4910  151.5283 H   0  0  0  0  0  0  0  0  0  0  0  0
  145.5426  131.3134  152.5389 H   0  0  0  0  0  0  0  0  0  0  0  0
  149.9313  138.5211  153.0875 H   0  0  0  0  0  0  0  0  0  0  0  0
  1  2  1  0  0  0  0
  1 21  1  0  0  0  0
  1 22  1  0  0  0  0
  1 23  1  0  0  0  0
  2  3  1  0  0  0  0
  3 20  1  0  0  0  0
  3  4  2  0  0  0  0
  4  5  1  0  0  0  0
  4 24  1  0  0  0  0
  5  6  2  0  0  0  0
  5 25  1  0  0  0  0
  6  7  1  0  0  0  0
  6 19  1  0  0  0  0
  7  8  1  0  0  0  0
  7 26  1  0  0  0  0
  8  9  2  0  0  0  0
  8 10  1  0  0  0  0
 10 11  1  0  0  0  0
 10 27  1  0  0  0  0
 11 12  1  0  0  0  0
 11 28  1  0  0  0  0
 11 29  1  0  0  0  0
 12 13  1  0  0  0  0
 12 30  1  0  0  0  0
 12 31  1  0  0  0  0
 13 18  1  0  0  0  0
 13 14  1  0  0  0  0
 14 15  1  0  0  0  0
 14 32  1  0  0  0  0
 14 33  1  0  0  0  0
 15 16  1  0  0  0  0
 15 34  1  0  0  0  0
 15 35  1  0  0  0  0
 16 17  1  0  0  0  0
 17 18  1  0  0  0  0
 17 36  1  0  0  0  0
 17 37  1  0  0  0  0
 18 38  1  0  0  0  0
 18 39  1  0  0  0  0
 19 20  2  0  0  0  0
 19 40  1  0  0  0  0
M  END
> <s_m_source_file>
AV-unprocessed.smi

> <i_m_source_file_index>
1197

> <i_lp_mmshare_version>
43012

> <i_f3d_flags>
0

> <s_epik_input>
W0NIM11PYzFbY0hdW2NIXWMoW2NIXW4xKVtOSF1DKD1PKVtOSF1bQ0gyXVtDSDJdTjJbQ0gyXVtDSDJdT1tDSDJdW0NIMl0y

> <s_epik_cmdline>
J2VwaWtfcHl0aG9uJywgJy1waCcsICc3LjAnLCAnLXRuJywgJzgnLCAnLW1hJywgJzIwMCcsICctbWV0YWxfYmluZGluZycsICctaW1hZScsICc8aW5maWxlLm1hZT4nLCAnLW9tYWUnLCAnPG91dGZpbGUubWFlPic=

> <r_lp_tautomer_probability>
1

> <r_epik_Ionization_Penalty>
0.266083

> <r_epik_Ionization_Penalty_Charging>
0

> <r_epik_Ionization_Penalty_Neutral>
0.266083

> <r_epik_State_Penalty>
0.257924

> <r_epik_Charging_Adjusted_Penalty>
0.257924

> <i_epik_Tot_Q>
0

> <i_epik_Tot_abs_Q>
0

> <r_epik_Metal_State_Penalty>
0.257922

> <b_epik_Metal_Only>
0

> <s_lp_Force_Field>
OPLS_2005

> <r_lp_Energy>
24.2104

> <b_lp_Chiralities_Consistent>
1

> <s_lp_Variant>
AV-unprocessed.smi:1197-1

> <Gold.Version>
5.8.1

> <Gold.Id.Protein>
6NUR|6NUR_protein|mol2

> <Gold.PLP.Fitness>
39.5805

> <Gold.PLP.PLP>
-28.7388

> <Gold.PLP.part.hbond>
-3.5354

> <Gold.PLP.part.metal>
0.0000

> <Gold.PLP.part.buried>
-2.4773

> <Gold.PLP.part.nonpolar>
-22.4146

> <Gold.PLP.part.repulsive>
0.4695

> <Gold.PLP.ligand.clash>
0.0000

> <Gold.PLP.ligand.torsion>
0.6179

> <Gold.PLP.Chemscore.Hbond>
2.4293

> <Gold.PLP.Chemscore.CHOScore>
1.5695

> <Gold.PLP.Chemscore.Metal>
0.0000

> <Gold.Chemscore.Hbonds>
donor molecule, donor type, donor heavy atom, donor atom, acceptor molecule, acceptor atom, score
      L1  H     7    26       P1  7948  0.74
      L1  H    10    27       P1  7948  0.21
      P1  H  7989  7998       L1    20  1.00
      L1  C    19    40       P1  7948  0.40
      L1  C    19    40       P1  7957  1.00

> <Gold.PLP.Chemscore.Internal.Correction>
0.0810

> <Gold.Rescore>
     Score         DG    S(hbond)    S(metal)    S(lipo)     H(rot)  DE(clash)    DE(int)     intcor
     13.18     -15.35       1.98        0.00      66.25       1.76       0.14       2.03       ----

> <Gold.Chemscore.Fitness>
13.1778

> <Gold.Chemscore.DG>
-15.3479

> <Gold.Chemscore.ZeroCoef>
-5.4800

> <Gold.Chemscore.Hbond>
1.9846

> <Gold.Chemscore.Metal>
0.0000

> <Gold.Chemscore.Lipo>
66.2524

> <Gold.Chemscore.Internal_Hbond>
0.0000

> <Gold.Chemscore.DEClash>
0.1421

> <Gold.Chemscore.DEInternal>
2.0279

> <Gold.Chemscore.Rot>
1.7626

> <Gold.Chemscore.Internal.Correction>
   9.000000E+99

> <Gold.Chemscore.Hbonds>
donor molecule, donor type, donor heavy atom, donor atom, acceptor molecule, acceptor atom, score
      L1  H     7    26       P1  7948  0.55
      P1  H  7989  7998       L1    20  0.81

> <Gold.Chemscore.Hbond.Weighted>
-6.6287

> <Gold.Chemscore.Metal.Weighted>
-0.0000

> <Gold.Chemscore.Lipo.Weighted>
-7.7515

> <Gold.Chemscore.Internal_Hbond.Weighted>
0.0000

> <Gold.Chemscore.DEClash.Weighted>
0.1421

> <Gold.Chemscore.DEInternal.Weighted>
2.0279

> <Gold.Chemscore.Rot.Weighted>
4.5123

> <Gold.Chemscore.Internal.Correction.Weighted>
   9.000000E+99

> <Gold.Protein.RotatedTorsions>
[ 6907 6896 6895 6894 ] final   49.44 input  -60.11 | X-H torsion
[ 7974 7965 7964 7962 ] final  -82.29 input  175.53 | X-H torsion
[ 8008 7997 7996 7995 ] final -121.09 input   59.86 | X-H torsion
[ 10167 10162 10161 10158 ] final  112.88 input  -65.29 | X-H torsion
[ 10718 10713 10712 10709 ] final -151.23 input   66.30 | X-H torsion
[ 10763 10752 10751 10750 ] final  -97.30 input  -60.55 | X-H torsion
[ 11005 11000 10999 10996 ] final -103.33 input  -57.11 | X-H torsion

> <Gold.Protein.ActiveResidues>
 VAL166  LYS551  ARG553  GLY616  TRP617  ASP618  TYR619  PRO620  LYS621  CYS622 
 ASP623  PHE694  ASN695  SER759  ASP760  ASP761  ALA762  ILE779  LEU786  VAL792 
 PHE793  MET794  SER795  GLU796  ALA797  LYS798  CYS799  TRP800  GLU811  SER814 

> <Gold.Protein.RotatedAtoms>
  152.2908  134.7724  160.0377 H   0  0  0  0  0  0  0  0  0  0  0  0  # atno 6907 bound_to 6896
  151.8270  133.3397  159.3610 H   0  0  0  0  0  0  0  0  0  0  0  0  # atno 6908 bound_to 6896
  150.7229  134.5448  159.5809 H   0  0  0  0  0  0  0  0  0  0  0  0  # atno 6909 bound_to 6896
  145.5353  140.9516  143.1581 H   0  0  0  0  0  0  0  0  0  0  0  0  # atno 7974 bound_to 7965
  155.1423  140.0402  157.2801 H   0  0  0  0  0  0  0  0  0  0  0  0  # atno 8008 bound_to 7997
  154.6464  140.2559  155.7237 H   0  0  0  0  0  0  0  0  0  0  0  0  # atno 8009 bound_to 7997
  156.2557  140.2845  156.0879 H   0  0  0  0  0  0  0  0  0  0  0  0  # atno 8010 bound_to 7997
  139.6503  144.7128  151.2061 H   0  0  0  0  0  0  0  0  0  0  0  0  # atno 10167 bound_to 10162
  156.4565  130.8193  151.2424 H   0  0  0  0  0  0  0  0  0  0  0  0  # atno 10718 bound_to 10713
  154.7316  135.5052  153.8973 H   0  0  0  0  0  0  0  0  0  0  0  0  # atno 10763 bound_to 10752
  153.0955  135.6671  153.9780 H   0  0  0  0  0  0  0  0  0  0  0  0  # atno 10764 bound_to 10752
  153.9580  135.3051  155.3414 H   0  0  0  0  0  0  0  0  0  0  0  0  # atno 10765 bound_to 10752
  141.1150  133.8631  157.1472 H   0  0  0  0  0  0  0  0  0  0  0  0  # atno 11005 bound_to 11000
  144.7605  139.6969  143.7236 LP  0  0  0  0  0  0  0  0  0  0  0  0  # atno 17320 bound_to 7965
  146.2017  139.5316  142.9739 LP  0  0  0  0  0  0  0  0  0  0  0  0  # atno 17321 bound_to 7965
  140.7534  143.6161  150.8558 LP  0  0  0  0  0  0  0  0  0  0  0  0  # atno 17342 bound_to 10162
  139.9809  143.5952  152.2943 LP  0  0  0  0  0  0  0  0  0  0  0  0  # atno 17343 bound_to 10162
  157.7500  131.0121  150.3371 LP  0  0  0  0  0  0  0  0  0  0  0  0  # atno 17370 bound_to 10713
  156.3761  130.3872  149.7138 LP  0  0  0  0  0  0  0  0  0  0  0  0  # atno 17371 bound_to 10713
  140.0067  135.0005  157.0308 LP  0  0  0  0  0  0  0  0  0  0  0  0  # atno 17394 bound_to 11000
  140.4669  134.1426  155.7198 LP  0  0  0  0  0  0  0  0  0  0  0  0  # atno 17395 bound_to 11000

$$$$
