AV-unprocessed.smi:1796|AV-procd|sdf|7253|dock4
  -GOLD-   22720 8503D 1   1.00000     0.00000
 Structure written by MMmdl.
 42 43  0  0  0  0  0  0  0  0  1 V2000
  152.4367  139.1929  155.3916 C   0  0  0  0  0  0  0  0  0  0  0  0
  151.3546  138.3530  154.7091 C   0  0  0  0  0  0  0  0  0  0  0  0
  151.6065  137.1728  154.4657 O   0  0  0  0  0  0  0  0  0  0  0  0
  150.1703  138.9296  154.3919 N   0  0  0  0  0  0  0  0  0  0  0  0
  149.8369  140.3112  154.7589 C   0  0  0  0  0  0  0  0  0  0  0  0
  148.7689  140.2834  155.8672 C   0  0  0  0  0  0  0  0  0  0  0  0
  147.5318  139.4790  155.4241 C   0  0  0  0  0  0  0  0  0  0  0  0
  147.9195  138.0877  154.8691 C   0  0  1  0  0  0  0  0  0  0  0  0
  146.6921  137.3634  154.3038 C   0  0  0  0  0  0  0  0  0  0  0  0
  145.5944  137.4903  154.8471 O   0  0  0  0  0  0  0  0  0  0  0  0
  146.8972  136.5959  153.2212 N   0  0  0  0  0  0  0  0  0  0  0  0
  145.8872  135.7767  152.5519 C   0  0  1  0  0  0  0  0  0  0  0  0
  145.4239  136.4978  151.2789 C   0  0  0  0  0  0  0  0  0  0  0  0
  146.4447  134.3729  152.2315 C   0  0  0  0  0  0  0  0  0  0  0  0
  145.5488  133.5882  151.4004 N   0  0  0  0  0  0  0  0  0  0  0  0
  145.8086  132.4053  150.7402 C   0  0  0  0  0  0  0  0  0  0  0  0
  144.6581  132.0327  150.1068 C   0  0  0  0  0  0  0  0  0  0  0  0
  143.7395  133.0676  150.4390 C   0  0  0  0  0  0  0  0  0  0  0  0
  144.2767  133.9993  151.2103 N   0  0  0  0  0  0  0  0  0  0  0  0
  149.0213  138.2359  153.7958 C   0  0  0  0  0  0  0  0  0  0  0  0
  152.6977  140.0582  154.7817 H   0  0  0  0  0  0  0  0  0  0  0  0
  153.3433  138.6052  155.5393 H   0  0  0  0  0  0  0  0  0  0  0  0
  152.0993  139.5359  156.3701 H   0  0  0  0  0  0  0  0  0  0  0  0
  150.7045  140.8820  155.0926 H   0  0  0  0  0  0  0  0  0  0  0  0
  149.4550  140.8370  153.8826 H   0  0  0  0  0  0  0  0  0  0  0  0
  149.1918  139.8360  156.7677 H   0  0  0  0  0  0  0  0  0  0  0  0
  148.4779  141.2997  156.1338 H   0  0  0  0  0  0  0  0  0  0  0  0
  146.8410  139.3737  156.2616 H   0  0  0  0  0  0  0  0  0  0  0  0
  147.0007  140.0488  154.6596 H   0  0  0  0  0  0  0  0  0  0  0  0
  148.3242  137.4930  155.6905 H   0  0  0  0  0  0  0  0  0  0  0  0
  147.8328  136.5575  152.8432 H   0  0  0  0  0  0  0  0  0  0  0  0
  145.0117  135.6680  153.1948 H   0  0  0  0  0  0  0  0  0  0  0  0
  144.6416  135.9325  150.7715 H   0  0  0  0  0  0  0  0  0  0  0  0
  146.2464  136.6321  150.5755 H   0  0  0  0  0  0  0  0  0  0  0  0
  145.0184  137.4832  151.5109 H   0  0  0  0  0  0  0  0  0  0  0  0
  147.3998  134.4578  151.7111 H   0  0  0  0  0  0  0  0  0  0  0  0
  146.6414  133.8201  153.1511 H   0  0  0  0  0  0  0  0  0  0  0  0
  146.7767  131.9286  150.7840 H   0  0  0  0  0  0  0  0  0  0  0  0
  144.4964  131.1540  149.5004 H   0  0  0  0  0  0  0  0  0  0  0  0
  142.7053  133.1693  150.1448 H   0  0  0  0  0  0  0  0  0  0  0  0
  148.6559  138.8256  152.9530 H   0  0  0  0  0  0  0  0  0  0  0  0
  149.2748  137.2633  153.3751 H   0  0  0  0  0  0  0  0  0  0  0  0
  1  2  1  0  0  0  0
  1 21  1  0  0  0  0
  1 22  1  0  0  0  0
  1 23  1  0  0  0  0
  2  3  2  0  0  0  0
  2  4  1  0  0  0  0
  4 20  1  0  0  0  0
  4  5  1  0  0  0  0
  5  6  1  0  0  0  0
  5 24  1  0  0  0  0
  5 25  1  0  0  0  0
  6  7  1  0  0  0  0
  6 26  1  0  0  0  0
  6 27  1  0  0  0  0
  7  8  1  0  0  0  0
  7 28  1  0  0  0  0
  7 29  1  0  0  0  0
  8  9  1  0  0  0  0
  8 20  1  0  0  0  0
  8 30  1  0  0  0  0
  9 10  2  0  0  0  0
  9 11  1  0  0  0  0
 11 12  1  0  0  0  0
 11 31  1  0  0  0  0
 12 13  1  0  0  0  0
 12 14  1  0  0  0  0
 12 32  1  0  0  0  0
 13 33  1  0  0  0  0
 13 34  1  0  0  0  0
 13 35  1  0  0  0  0
 14 15  1  0  0  0  0
 14 36  1  0  0  0  0
 14 37  1  0  0  0  0
 15 19  1  0  0  0  0
 15 16  1  0  0  0  0
 16 17  2  0  0  0  0
 16 38  1  0  0  0  0
 17 18  1  0  0  0  0
 17 39  1  0  0  0  0
 18 19  2  0  0  0  0
 18 40  1  0  0  0  0
 20 41  1  0  0  0  0
 20 42  1  0  0  0  0
M  END
> <s_m_source_file>
AV-unprocessed.smi

> <i_m_source_file_index>
1796

> <i_lp_mmshare_version>
43012

> <i_f3d_flags>
0

> <s_epik_input>
W0NIM11DKD1PKU4xW0NIMl1bQ0gyXVtDSDJdW0NASF0oW0NIMl0xKUMoPU8pW05IXVtDQEhdKFtDSDNdKVtDSDJdbjJbY0hdW2NIXVtjSF1uMg==

> <s_epik_cmdline>
J2VwaWtfcHl0aG9uJywgJy1waCcsICc3LjAnLCAnLXRuJywgJzgnLCAnLW1hJywgJzIwMCcsICctbWV0YWxfYmluZGluZycsICctaW1hZScsICc8aW5maWxlLm1hZT4nLCAnLW9tYWUnLCAnPG91dGZpbGUubWFlPic=

> <r_lp_tautomer_probability>
1

> <r_epik_Ionization_Penalty>
0.000315051

> <r_epik_Ionization_Penalty_Charging>
0

> <r_epik_Ionization_Penalty_Neutral>
0.000315051

> <r_epik_State_Penalty>
-0

> <r_epik_Charging_Adjusted_Penalty>
0

> <i_epik_Tot_Q>
0

> <i_epik_Tot_abs_Q>
0

> <r_epik_Metal_State_Penalty>
-0

> <b_epik_Metal_Only>
0

> <s_lp_Force_Field>
OPLS_2005

> <r_lp_Energy>
22.8088

> <b_lp_Chiralities_Consistent>
1

> <s_lp_Variant>
AV-unprocessed.smi:1796-3

> <Gold.Version>
5.8.1

> <Gold.Id.Protein>
6NUR|6NUR_protein|mol2

> <Gold.PLP.Fitness>
40.3102

> <Gold.PLP.PLP>
-30.5868

> <Gold.PLP.part.hbond>
-2.0000

> <Gold.PLP.part.metal>
0.0000

> <Gold.PLP.part.buried>
-0.4943

> <Gold.PLP.part.nonpolar>
-28.0543

> <Gold.PLP.part.repulsive>
0.3315

> <Gold.PLP.ligand.clash>
0.2034

> <Gold.PLP.ligand.torsion>
1.0502

> <Gold.PLP.Chemscore.Hbond>
2.0000

> <Gold.PLP.Chemscore.CHOScore>
2.0000

> <Gold.PLP.Chemscore.Metal>
0.0000

> <Gold.Chemscore.Hbonds>
donor molecule, donor type, donor heavy atom, donor atom, acceptor molecule, acceptor atom, score
      L1  H    11    31       P1  7948  0.99
      P1  H 10752 10763       L1     3  1.00
      L1  C    16    38       P1 10747  1.00
      L1  C    18    40       P1 10186  1.00

> <Gold.PLP.Chemscore.Internal.Correction>
0.0272

> <Gold.Rescore>
     Score         DG    S(hbond)    S(metal)    S(lipo)     H(rot)  DE(clash)    DE(int)     intcor
     11.91     -16.10       1.94        0.00      71.21       1.63       1.58       2.61       ----

> <Gold.Chemscore.Fitness>
11.9084

> <Gold.Chemscore.DG>
-16.1014

> <Gold.Chemscore.ZeroCoef>
-5.4800

> <Gold.Chemscore.Hbond>
1.9378

> <Gold.Chemscore.Metal>
0.0000

> <Gold.Chemscore.Lipo>
71.2074

> <Gold.Chemscore.Internal_Hbond>
0.0000

> <Gold.Chemscore.DEClash>
1.5791

> <Gold.Chemscore.DEInternal>
2.6140

> <Gold.Chemscore.Rot>
1.6336

> <Gold.Chemscore.Internal.Correction>
   9.000000E+99

> <Gold.Chemscore.Hbonds>
donor molecule, donor type, donor heavy atom, donor atom, acceptor molecule, acceptor atom, score
      L1  H    11    31       P1  7948  0.92
      P1  H 10752 10763       L1     3  0.92

> <Gold.Chemscore.Hbond.Weighted>
-6.4723

> <Gold.Chemscore.Metal.Weighted>
-0.0000

> <Gold.Chemscore.Lipo.Weighted>
-8.3313

> <Gold.Chemscore.Internal_Hbond.Weighted>
0.0000

> <Gold.Chemscore.DEClash.Weighted>
1.5791

> <Gold.Chemscore.DEInternal.Weighted>
2.6140

> <Gold.Chemscore.Rot.Weighted>
4.1821

> <Gold.Chemscore.Internal.Correction.Weighted>
   9.000000E+99

> <Gold.Protein.RotatedTorsions>
[ 6907 6896 6895 6894 ] final  -83.61 input  -60.11 | X-H torsion
[ 7974 7965 7964 7962 ] final  121.80 input  175.53 | X-H torsion
[ 8008 7997 7996 7995 ] final    4.05 input   59.86 | X-H torsion
[ 10167 10162 10161 10158 ] final  -64.63 input  -65.29 | X-H torsion
[ 10718 10713 10712 10709 ] final -132.64 input   66.30 | X-H torsion
[ 10763 10752 10751 10750 ] final   39.59 input  -60.55 | X-H torsion
[ 11005 11000 10999 10996 ] final   52.73 input  -57.11 | X-H torsion

> <Gold.Protein.ActiveResidues>
 VAL166  LYS551  ARG553  GLY616  TRP617  ASP618  TYR619  PRO620  LYS621  CYS622 
 ASP623  PHE694  ASN695  SER759  ASP760  ASP761  ALA762  ILE779  LEU786  VAL792 
 PHE793  MET794  SER795  GLU796  ALA797  LYS798  CYS799  TRP800  GLU811  SER814 

> <Gold.Protein.RotatedAtoms>
  150.6884  134.3485  159.4898 H   0  0  0  0  0  0  0  0  0  0  0  0  # atno 6907 bound_to 6896
  152.1329  134.9118  160.0567 H   0  0  0  0  0  0  0  0  0  0  0  0  # atno 6908 bound_to 6896
  152.0281  133.3891  159.4323 H   0  0  0  0  0  0  0  0  0  0  0  0  # atno 6909 bound_to 6896
  145.1151  139.3426  143.4743 H   0  0  0  0  0  0  0  0  0  0  0  0  # atno 7974 bound_to 7965
  154.7111  140.2693  155.6628 H   0  0  0  0  0  0  0  0  0  0  0  0  # atno 8008 bound_to 7997
  156.2795  140.2753  156.1677 H   0  0  0  0  0  0  0  0  0  0  0  0  # atno 8009 bound_to 7997
  155.0633  140.0371  157.2574 H   0  0  0  0  0  0  0  0  0  0  0  0  # atno 8010 bound_to 7997
  140.5787  143.2325  151.6387 H   0  0  0  0  0  0  0  0  0  0  0  0  # atno 10167 bound_to 10162
  156.2366  130.7070  151.0914 H   0  0  0  0  0  0  0  0  0  0  0  0  # atno 10718 bound_to 10713
  152.9962  135.6216  154.2490 H   0  0  0  0  0  0  0  0  0  0  0  0  # atno 10763 bound_to 10752
  154.2228  135.2795  155.2920 H   0  0  0  0  0  0  0  0  0  0  0  0  # atno 10764 bound_to 10752
  154.5514  135.5732  153.6984 H   0  0  0  0  0  0  0  0  0  0  0  0  # atno 10765 bound_to 10752
  140.0825  134.5319  155.8932 H   0  0  0  0  0  0  0  0  0  0  0  0  # atno 11005 bound_to 11000
  146.3524  140.1086  142.8605 LP  0  0  0  0  0  0  0  0  0  0  0  0  # atno 17320 bound_to 7965
  145.0803  140.9216  143.4829 LP  0  0  0  0  0  0  0  0  0  0  0  0  # atno 17321 bound_to 7965
  139.5157  144.3369  152.0776 LP  0  0  0  0  0  0  0  0  0  0  0  0  # atno 17342 bound_to 10162
  140.2516  144.4163  150.6219 LP  0  0  0  0  0  0  0  0  0  0  0  0  # atno 17343 bound_to 10162
  157.7157  131.0711  150.6335 LP  0  0  0  0  0  0  0  0  0  0  0  0  # atno 17370 bound_to 10713
  156.6406  130.4457  149.5754 LP  0  0  0  0  0  0  0  0  0  0  0  0  # atno 17371 bound_to 10713
  141.2051  133.6644  156.6163 LP  0  0  0  0  0  0  0  0  0  0  0  0  # atno 17394 bound_to 11000
  140.3467  134.7803  157.4437 LP  0  0  0  0  0  0  0  0  0  0  0  0  # atno 17395 bound_to 11000

$$$$
