AV-unprocessed.smi:1252|AV-procd|sdf|5267|dock4
  -GOLD-   22720 4383D 1   1.00000     0.00000
 Structure written by MMmdl.
 44 45  0  0  0  0  0  0  0  0  2 V2000
  152.7330  138.6988  155.0178 C   0  0  0  0  0  0  0  0  0  0  0  0
  151.4670  138.0582  154.4136 C   0  0  1  0  0  0  0  0  0  0  0  0
  151.1019  136.7300  155.0938 C   0  0  0  0  0  0  0  0  0  0  0  0
  151.6127  136.4151  156.1692 O   0  0  0  0  0  0  0  0  0  0  0  0
  150.2136  135.9557  154.4496 N   0  0  0  0  0  0  0  0  0  0  0  0
  149.7133  134.6630  154.9157 C   0  0  0  0  0  0  0  0  0  0  0  0
  148.1605  134.6047  155.0444 C   0  0  0  0  0  0  0  0  0  0  0  0
  147.7565  133.4117  155.9470 C   0  0  0  0  0  0  0  0  0  0  0  0
  147.6246  135.8758  155.7500 C   0  0  0  0  0  0  0  0  0  0  0  0
  147.5027  134.4717  153.6942 N   0  3  0  0  0  0  0  0  0  0  0  0
  147.8389  133.2379  152.9278 C   0  0  0  0  0  0  0  0  0  0  0  0
  147.2647  133.3123  151.5035 C   0  0  0  0  0  0  0  0  0  0  0  0
  145.8575  133.4949  151.5653 O   0  0  0  0  0  0  0  0  0  0  0  0
  145.5151  134.7116  152.2133 C   0  0  0  0  0  0  0  0  0  0  0  0
  146.0285  134.6904  153.6630 C   0  0  0  0  0  0  0  0  0  0  0  0
  150.3246  138.9633  154.4344 N   0  0  0  0  0  0  0  0  0  0  0  0
  149.0279  138.7106  154.2427 C   0  0  0  0  0  0  0  0  0  0  0  0
  148.2457  139.7718  154.3804 N   0  0  0  0  0  0  0  0  0  0  0  0
  149.1881  140.7109  154.6903 C   0  0  0  0  0  0  0  0  0  0  0  0
  150.4473  140.2777  154.7472 N   0  0  0  0  0  0  0  0  0  0  0  0
  153.5900  138.0299  154.9318 H   0  0  0  0  0  0  0  0  0  0  0  0
  152.6082  138.9405  156.0741 H   0  0  0  0  0  0  0  0  0  0  0  0
  152.9867  139.6225  154.4971 H   0  0  0  0  0  0  0  0  0  0  0  0
  151.6850  137.8448  153.3655 H   0  0  0  0  0  0  0  0  0  0  0  0
  149.8453  136.2934  153.5722 H   0  0  0  0  0  0  0  0  0  0  0  0
  150.0835  133.8732  154.2615 H   0  0  0  0  0  0  0  0  0  0  0  0
  150.1812  134.4877  155.8837 H   0  0  0  0  0  0  0  0  0  0  0  0
  148.0443  133.5760  156.9859 H   0  0  0  0  0  0  0  0  0  0  0  0
  148.2374  132.4815  155.6447 H   0  0  0  0  0  0  0  0  0  0  0  0
  146.6776  133.2521  155.9368 H   0  0  0  0  0  0  0  0  0  0  0  0
  147.9007  135.9014  156.8046 H   0  0  0  0  0  0  0  0  0  0  0  0
  146.5359  135.9261  155.7066 H   0  0  0  0  0  0  0  0  0  0  0  0
  148.0211  136.7915  155.3121 H   0  0  0  0  0  0  0  0  0  0  0  0
  148.9146  133.0962  152.8453 H   0  0  0  0  0  0  0  0  0  0  0  0
  147.4354  132.3583  153.4294 H   0  0  0  0  0  0  0  0  0  0  0  0
  147.7271  134.1228  150.9375 H   0  0  0  0  0  0  0  0  0  0  0  0
  147.4759  132.3879  150.9652 H   0  0  0  0  0  0  0  0  0  0  0  0
  145.9283  135.5599  151.6654 H   0  0  0  0  0  0  0  0  0  0  0  0
  144.4306  134.8231  152.2005 H   0  0  0  0  0  0  0  0  0  0  0  0
  145.5173  133.9014  154.2152 H   0  0  0  0  0  0  0  0  0  0  0  0
  145.7525  135.6370  154.1234 H   0  0  0  0  0  0  0  0  0  0  0  0
  148.6478  137.7289  154.0003 H   0  0  0  0  0  0  0  0  0  0  0  0
  148.9383  141.7435  154.8852 H   0  0  0  0  0  0  0  0  0  0  0  0
  147.8897  135.2303  153.1511 H   0  0  0  0  0  0  0  0  0  0  0  0
  1  2  1  0  0  0  0
  1 21  1  0  0  0  0
  1 22  1  0  0  0  0
  1 23  1  0  0  0  0
  2  3  1  0  0  0  0
  2 16  1  0  0  0  0
  2 24  1  0  0  0  0
  3  4  2  0  0  0  0
  3  5  1  0  0  0  0
  5  6  1  0  0  0  0
  5 25  1  0  0  0  0
  6  7  1  0  0  0  0
  6 26  1  0  0  0  0
  6 27  1  0  0  0  0
  7  8  1  0  0  0  0
  7  9  1  0  0  0  0
  7 10  1  0  0  0  0
  8 28  1  0  0  0  0
  8 29  1  0  0  0  0
  8 30  1  0  0  0  0
  9 31  1  0  0  0  0
  9 32  1  0  0  0  0
  9 33  1  0  0  0  0
 10 15  1  0  0  0  0
 10 11  1  0  0  0  0
 10 44  1  0  0  0  0
 11 12  1  0  0  0  0
 11 34  1  0  0  0  0
 11 35  1  0  0  0  0
 12 13  1  0  0  0  0
 12 36  1  0  0  0  0
 12 37  1  0  0  0  0
 13 14  1  0  0  0  0
 14 15  1  0  0  0  0
 14 38  1  0  0  0  0
 14 39  1  0  0  0  0
 15 40  1  0  0  0  0
 15 41  1  0  0  0  0
 16 20  1  0  0  0  0
 16 17  1  0  0  0  0
 17 18  2  0  0  0  0
 17 42  1  0  0  0  0
 18 19  1  0  0  0  0
 19 20  2  0  0  0  0
 19 43  1  0  0  0  0
M  CHG  1  10   1
M  END
> <s_m_source_file>
AV-unprocessed.smi

> <i_m_source_file_index>
1252

> <i_lp_mmshare_version>
43012

> <i_f3d_flags>
0

> <s_epik_input>
bjFbY0hdbltjSF1uMVtDQEhdKFtDSDNdKUMoPU8pW05IXVtDSDJdQyhbQ0gzXSkoW0NIM10pTjJbQ0gyXVtDSDJdT1tDSDJdW0NIMl0y

> <s_epik_cmdline>
J2VwaWtfcHl0aG9uJywgJy1waCcsICc3LjAnLCAnLXRuJywgJzgnLCAnLW1hJywgJzIwMCcsICctbWV0YWxfYmluZGluZycsICctaW1hZScsICc8aW5maWxlLm1hZT4nLCAnLW9tYWUnLCAnPG91dGZpbGUubWFlPic=

> <r_lp_tautomer_probability>
1

> <r_epik_Ionization_Penalty>
0.71326

> <r_epik_Ionization_Penalty_Charging>
0.713252

> <r_epik_Ionization_Penalty_Neutral>
8.22342e-06

> <r_epik_State_Penalty>
0.737017

> <r_epik_Charging_Adjusted_Penalty>
1.45027

> <i_epik_Tot_Q>
1

> <i_epik_Tot_abs_Q>
1

> <r_epik_Metal_State_Penalty>
0.73702

> <b_epik_Metal_Only>
0

> <s_lp_Force_Field>
OPLS_2005

> <r_lp_Energy>
31.3962

> <b_lp_Chiralities_Consistent>
1

> <s_lp_Variant>
AV-unprocessed.smi:1252-4

> <Gold.Version>
5.8.1

> <Gold.Id.Protein>
6NUR|6NUR_protein|mol2

> <Gold.PLP.Fitness>
47.0346

> <Gold.PLP.PLP>
-31.0529

> <Gold.PLP.part.hbond>
-5.0000

> <Gold.PLP.part.metal>
0.0000

> <Gold.PLP.part.buried>
-2.5681

> <Gold.PLP.part.nonpolar>
-23.6873

> <Gold.PLP.part.repulsive>
0.4389

> <Gold.PLP.ligand.clash>
0.0000

> <Gold.PLP.ligand.torsion>
0.9504

> <Gold.PLP.Chemscore.Hbond>
4.8921

> <Gold.PLP.Chemscore.CHOScore>
0.9928

> <Gold.PLP.Chemscore.Metal>
0.0000

> <Gold.Chemscore.Hbonds>
donor molecule, donor type, donor heavy atom, donor atom, acceptor molecule, acceptor atom, score
      L1  H     5    25       P1  7948  0.90
      L1  H    10    44       P1  7948  2.00
      P1  H  7989  7998       L1    20  1.00
      P1  H 10752 10765       L1     4  0.34
      L1  C    17    42       P1  7948  0.79

> <Gold.PLP.Chemscore.Internal.Correction>
0.2277

> <Gold.Rescore>
     Score         DG    S(hbond)    S(metal)    S(lipo)     H(rot)  DE(clash)    DE(int)     intcor
      9.63     -11.96       2.32        0.00      45.91       2.59       0.01       2.32       ----

> <Gold.Chemscore.Fitness>
9.6292

> <Gold.Chemscore.DG>
-11.9635

> <Gold.Chemscore.ZeroCoef>
-5.4800

> <Gold.Chemscore.Hbond>
2.3152

> <Gold.Chemscore.Metal>
0.0000

> <Gold.Chemscore.Lipo>
45.9133

> <Gold.Chemscore.Internal_Hbond>
0.0000

> <Gold.Chemscore.DEClash>
0.0149

> <Gold.Chemscore.DEInternal>
2.3195

> <Gold.Chemscore.Rot>
2.5864

> <Gold.Chemscore.Internal.Correction>
   9.000000E+99

> <Gold.Chemscore.Hbonds>
donor molecule, donor type, donor heavy atom, donor atom, acceptor molecule, acceptor atom, score
      L1  H     5    25       P1  7948  0.18
      L1  H    10    44       P1  7948  0.99
      P1  H  7989  7998       L1    20  0.38
      P1  H 10752 10765       L1     4  0.01

> <Gold.Chemscore.Hbond.Weighted>
-7.7327

> <Gold.Chemscore.Metal.Weighted>
-0.0000

> <Gold.Chemscore.Lipo.Weighted>
-5.3719

> <Gold.Chemscore.Internal_Hbond.Weighted>
0.0000

> <Gold.Chemscore.DEClash.Weighted>
0.0149

> <Gold.Chemscore.DEInternal.Weighted>
2.3195

> <Gold.Chemscore.Rot.Weighted>
6.6211

> <Gold.Chemscore.Internal.Correction.Weighted>
   9.000000E+99

> <Gold.Protein.RotatedTorsions>
[ 6907 6896 6895 6894 ] final  165.25 input  -60.11 | X-H torsion
[ 7974 7965 7964 7962 ] final   69.68 input  175.53 | X-H torsion
[ 8008 7997 7996 7995 ] final  -74.39 input   59.86 | X-H torsion
[ 10167 10162 10161 10158 ] final  165.31 input  -65.29 | X-H torsion
[ 10718 10713 10712 10709 ] final   38.66 input   66.30 | X-H torsion
[ 10763 10752 10751 10750 ] final -146.30 input  -60.55 | X-H torsion
[ 11005 11000 10999 10996 ] final -149.39 input  -57.11 | X-H torsion

> <Gold.Protein.ActiveResidues>
 VAL166  LYS551  ARG553  GLY616  TRP617  ASP618  TYR619  PRO620  LYS621  CYS622 
 ASP623  PHE694  ASN695  SER759  ASP760  ASP761  ALA762  ILE779  LEU786  VAL792 
 PHE793  MET794  SER795  GLU796  ALA797  LYS798  CYS799  TRP800  GLU811  SER814 

> <Gold.Protein.RotatedAtoms>
  151.8973  133.3529  159.3818 H   0  0  0  0  0  0  0  0  0  0  0  0  # atno 6907 bound_to 6896
  150.7088  134.4864  159.5504 H   0  0  0  0  0  0  0  0  0  0  0  0  # atno 6908 bound_to 6896
  152.2445  134.8195  160.0506 H   0  0  0  0  0  0  0  0  0  0  0  0  # atno 6909 bound_to 6896
  145.7875  139.2917  143.1230 H   0  0  0  0  0  0  0  0  0  0  0  0  # atno 7974 bound_to 7965
  154.5327  140.0762  156.8373 H   0  0  0  0  0  0  0  0  0  0  0  0  # atno 8008 bound_to 7997
  155.3342  140.3403  155.4221 H   0  0  0  0  0  0  0  0  0  0  0  0  # atno 8009 bound_to 7997
  156.1797  140.1648  156.8283 H   0  0  0  0  0  0  0  0  0  0  0  0  # atno 8010 bound_to 7997
  139.4904  144.4145  151.9260 H   0  0  0  0  0  0  0  0  0  0  0  0  # atno 10167 bound_to 10162
  157.3614  130.7652  149.7050 H   0  0  0  0  0  0  0  0  0  0  0  0  # atno 10718 bound_to 10713
  154.8343  135.3390  154.6639 H   0  0  0  0  0  0  0  0  0  0  0  0  # atno 10763 bound_to 10752
  153.7256  135.6955  153.5006 H   0  0  0  0  0  0  0  0  0  0  0  0  # atno 10764 bound_to 10752
  153.2350  135.4404  155.0589 H   0  0  0  0  0  0  0  0  0  0  0  0  # atno 10765 bound_to 10752
  140.7512  134.3404  157.5125 H   0  0  0  0  0  0  0  0  0  0  0  0  # atno 11005 bound_to 11000
  146.0011  140.8519  143.0018 LP  0  0  0  0  0  0  0  0  0  0  0  0  # atno 17320 bound_to 7965
  144.6787  140.2353  143.7350 LP  0  0  0  0  0  0  0  0  0  0  0  0  # atno 17321 bound_to 7965
  140.3587  144.3000  150.5937 LP  0  0  0  0  0  0  0  0  0  0  0  0  # atno 17342 bound_to 10162
  140.5422  143.2221  151.8066 LP  0  0  0  0  0  0  0  0  0  0  0  0  # atno 17343 bound_to 10162
  155.9738  130.4112  150.3972 LP  0  0  0  0  0  0  0  0  0  0  0  0  # atno 17370 bound_to 10713
  157.2050  131.0447  151.2630 LP  0  0  0  0  0  0  0  0  0  0  0  0  # atno 17371 bound_to 10713
  139.8787  134.9143  156.3105 LP  0  0  0  0  0  0  0  0  0  0  0  0  # atno 17394 bound_to 11000
  140.9749  133.7304  156.0587 LP  0  0  0  0  0  0  0  0  0  0  0  0  # atno 17395 bound_to 11000

$$$$
