AV-unprocessed.smi:177|AV-procd|sdf|1442|dock7
  -GOLD-   2262019233D 1   1.00000     0.00000
 Structure written by MMmdl.
 61 65  0  0  0  0  0  0  0  0  1 V2000
  151.5324  143.5395  159.0051 C   0  0  0  0  0  0  0  0  0  0  0  0
  151.4927  142.1386  158.7792 O   0  0  0  0  0  0  0  0  0  0  0  0
  150.4495  141.7151  157.9108 C   0  0  1  0  0  0  0  0  0  0  0  0
  150.6469  142.4313  156.5651 C   0  0  0  0  0  0  0  0  0  0  0  0
  149.5830  142.0039  155.5420 C   0  0  0  0  0  0  0  0  0  0  0  0
  149.5418  140.4781  155.3475 C   0  0  1  0  0  0  0  0  0  0  0  0
  150.7202  140.0507  154.6690 O   0  0  0  0  0  0  0  0  0  0  0  0
  150.6762  138.6644  154.3476 C   0  0  0  0  0  0  0  0  0  0  0  0
  150.5824  137.8323  155.6367 C   0  0  0  0  0  0  0  0  0  0  0  0
  149.4540  138.2812  156.4538 N   0  0  0  0  0  0  0  0  0  0  0  0
  149.0560  137.4844  157.4828 C   0  0  0  0  0  0  0  0  0  0  0  0
  149.9643  137.0891  158.4155 N   0  0  0  0  0  0  0  0  0  0  0  0
  149.5938  136.3196  159.4423 C   0  0  0  0  0  0  0  0  0  0  0  0
  148.3843  135.8366  159.7277 N   0  0  0  0  0  0  0  0  0  0  0  0
  147.4658  136.2233  158.7971 C   0  0  0  0  0  0  0  0  0  0  0  0
  147.7145  137.0330  157.6515 C   0  0  0  0  0  0  0  0  0  0  0  0
  146.5390  137.1880  156.9256 N   0  0  0  0  0  0  0  0  0  0  0  0
  145.6477  136.5248  157.6090 C   0  0  0  0  0  0  0  0  0  0  0  0
  146.1138  135.9263  158.7576 N   0  0  0  0  0  0  0  0  0  0  0  0
  145.3420  135.1216  159.6946 C   0  0  0  0  0  0  0  0  0  0  0  0
  145.1875  135.7299  161.1247 C   0  0  0  0  0  0  0  0  0  0  0  0
  144.6220  137.1712  160.9894 C   0  0  0  0  0  0  0  0  0  0  0  0
  145.4432  138.0287  160.2208 O   0  0  0  0  0  0  0  0  0  0  0  0
  144.2493  134.8810  162.0217 C   0  0  0  0  0  0  0  0  0  0  0  0
  144.8659  133.5196  162.3885 C   0  0  0  0  0  0  0  0  0  0  0  0
  146.1143  133.7169  163.0405 O   0  0  0  0  0  0  0  0  0  0  0  0
  147.0774  134.3621  162.2159 C   0  0  0  0  0  0  0  0  0  0  0  0
  146.5788  135.7627  161.8097 C   0  0  0  0  0  0  0  0  0  0  0  0
  149.4134  139.7270  156.6941 C   0  0  1  0  0  0  0  0  0  0  0  0
  150.4865  140.1883  157.7078 C   0  0  0  0  0  0  0  0  0  0  0  0
  152.3715  143.7765  159.6589 H   0  0  0  0  0  0  0  0  0  0  0  0
  150.6255  143.9016  159.4882 H   0  0  0  0  0  0  0  0  0  0  0  0
  151.6736  144.0854  158.0716 H   0  0  0  0  0  0  0  0  0  0  0  0
  149.4822  142.0120  158.3211 H   0  0  0  0  0  0  0  0  0  0  0  0
  150.6028  143.5111  156.7104 H   0  0  0  0  0  0  0  0  0  0  0  0
  151.6412  142.2133  156.1723 H   0  0  0  0  0  0  0  0  0  0  0  0
  148.6053  142.3465  155.8823 H   0  0  0  0  0  0  0  0  0  0  0  0
  149.7638  142.4967  154.5863 H   0  0  0  0  0  0  0  0  0  0  0  0
  148.6802  140.2442  154.7191 H   0  0  0  0  0  0  0  0  0  0  0  0
  149.8291  138.4588  153.6915 H   0  0  0  0  0  0  0  0  0  0  0  0
  151.5772  138.3983  153.7948 H   0  0  0  0  0  0  0  0  0  0  0  0
  150.4619  136.7801  155.3754 H   0  0  0  0  0  0  0  0  0  0  0  0
  151.5089  137.9178  156.2054 H   0  0  0  0  0  0  0  0  0  0  0  0
  150.3792  136.0552  160.1351 H   0  0  0  0  0  0  0  0  0  0  0  0
  144.6176  136.4566  157.2912 H   0  0  0  0  0  0  0  0  0  0  0  0
  144.3724  134.9400  159.2339 H   0  0  0  0  0  0  0  0  0  0  0  0
  145.8148  134.1408  159.7607 H   0  0  0  0  0  0  0  0  0  0  0  0
  143.6344  137.1489  160.5275 H   0  0  0  0  0  0  0  0  0  0  0  0
  144.5033  137.6340  161.9689 H   0  0  0  0  0  0  0  0  0  0  0  0
  144.8889  138.6267  159.7431 H   0  0  0  0  0  0  0  0  0  0  0  0
  144.0522  135.4097  162.9548 H   0  0  0  0  0  0  0  0  0  0  0  0
  143.2741  134.7440  161.5560 H   0  0  0  0  0  0  0  0  0  0  0  0
  144.2012  132.9838  163.0663 H   0  0  0  0  0  0  0  0  0  0  0  0
  144.9938  132.8847  161.5116 H   0  0  0  0  0  0  0  0  0  0  0  0
  148.0076  134.4517  162.7772 H   0  0  0  0  0  0  0  0  0  0  0  0
  147.3029  133.7433  161.3473 H   0  0  0  0  0  0  0  0  0  0  0  0
  147.3112  136.2453  161.1615 H   0  0  0  0  0  0  0  0  0  0  0  0
  146.5391  136.3661  162.7167 H   0  0  0  0  0  0  0  0  0  0  0  0
  148.4427  139.9972  157.1044 H   0  0  0  0  0  0  0  0  0  0  0  0
  151.4811  139.9004  157.3664 H   0  0  0  0  0  0  0  0  0  0  0  0
  150.3286  139.6786  158.6578 H   0  0  0  0  0  0  0  0  0  0  0  0
  1  2  1  0  0  0  0
  1 31  1  0  0  0  0
  1 32  1  0  0  0  0
  1 33  1  0  0  0  0
  2  3  1  0  0  0  0
  3 30  1  0  0  0  0
  3  4  1  0  0  0  0
  3 34  1  0  0  0  0
  4  5  1  0  0  0  0
  4 35  1  0  0  0  0
  4 36  1  0  0  0  0
  5  6  1  0  0  0  0
  5 37  1  0  0  0  0
  5 38  1  0  0  0  0
  6 29  1  0  0  0  0
  6  7  1  0  0  0  0
  6 39  1  0  0  0  0
  7  8  1  0  0  0  0
  8  9  1  0  0  0  0
  8 40  1  0  0  0  0
  8 41  1  0  0  0  0
  9 10  1  0  0  0  0
  9 42  1  0  0  0  0
  9 43  1  0  0  0  0
 10 11  1  0  0  0  0
 10 29  1  0  0  0  0
 11 16  1  0  0  0  0
 11 12  2  0  0  0  0
 12 13  1  0  0  0  0
 13 14  2  0  0  0  0
 13 44  1  0  0  0  0
 14 15  1  0  0  0  0
 15 19  1  0  0  0  0
 15 16  2  0  0  0  0
 16 17  1  0  0  0  0
 17 18  2  0  0  0  0
 18 19  1  0  0  0  0
 18 45  1  0  0  0  0
 19 20  1  0  0  0  0
 20 21  1  0  0  0  0
 20 46  1  0  0  0  0
 20 47  1  0  0  0  0
 21 28  1  0  0  0  0
 21 22  1  0  0  0  0
 21 24  1  0  0  0  0
 22 23  1  0  0  0  0
 22 48  1  0  0  0  0
 22 49  1  0  0  0  0
 23 50  1  0  0  0  0
 24 25  1  0  0  0  0
 24 51  1  0  0  0  0
 24 52  1  0  0  0  0
 25 26  1  0  0  0  0
 25 53  1  0  0  0  0
 25 54  1  0  0  0  0
 26 27  1  0  0  0  0
 27 28  1  0  0  0  0
 27 55  1  0  0  0  0
 27 56  1  0  0  0  0
 28 57  1  0  0  0  0
 28 58  1  0  0  0  0
 29 30  1  0  0  0  0
 29 59  1  0  0  0  0
 30 60  1  0  0  0  0
 30 61  1  0  0  0  0
M  END
> <s_m_source_file>
AV-unprocessed.smi

> <i_m_source_file_index>
177

> <i_lp_mmshare_version>
43012

> <i_f3d_flags>
0

> <s_epik_input>
W0NIM11PW0NASF0oW0NIMl1bQ0gyXTEpW0NIMl1bQ0BIXShbQ0BASF0xMilOKFtDSDJdW0NIMl1PMiljKG5bY0hdbjMpYyhjMzQpbltjSF1uNFtDSDJdQzUoW0NIMl1bT0hdKVtDSDJdW0NIMl1PW0NIMl1bQ0gyXTU=

> <s_epik_cmdline>
J2VwaWtfcHl0aG9uJywgJy1waCcsICc3LjAnLCAnLXRuJywgJzgnLCAnLW1hJywgJzIwMCcsICctbWV0YWxfYmluZGluZycsICctaW1hZScsICc8aW5maWxlLm1hZT4nLCAnLW9tYWUnLCAnPG91dGZpbGUubWFlPic=

> <r_lp_tautomer_probability>
1

> <r_epik_Ionization_Penalty>
0.0065899

> <r_epik_Ionization_Penalty_Charging>
0

> <r_epik_Ionization_Penalty_Neutral>
0.0065899

> <r_epik_State_Penalty>
0.00470042

> <r_epik_Charging_Adjusted_Penalty>
0.00470042

> <i_epik_Tot_Q>
0

> <i_epik_Tot_abs_Q>
0

> <r_epik_Metal_State_Penalty>
-0

> <b_epik_Metal_Only>
0

> <s_lp_Force_Field>
OPLS_2005

> <r_lp_Energy>
44.6168

> <b_lp_Chiralities_Consistent>
1

> <s_lp_Variant>
AV-unprocessed.smi:177-6

> <Gold.Version>
5.8.1

> <Gold.Id.Protein>
6NUR|6NUR_protein|mol2

> <Gold.PLP.Fitness>
41.8060

> <Gold.PLP.PLP>
-37.5594

> <Gold.PLP.part.hbond>
-2.5663

> <Gold.PLP.part.metal>
0.0000

> <Gold.PLP.part.buried>
-4.9343

> <Gold.PLP.part.nonpolar>
-30.5910

> <Gold.PLP.part.repulsive>
0.1233

> <Gold.PLP.ligand.clash>
0.0000

> <Gold.PLP.ligand.torsion>
0.4763

> <Gold.PLP.Chemscore.Hbond>
1.5760

> <Gold.PLP.Chemscore.CHOScore>
0.0000

> <Gold.PLP.Chemscore.Metal>
0.0000

> <Gold.Chemscore.Hbonds>
donor molecule, donor type, donor heavy atom, donor atom, acceptor molecule, acceptor atom, score
      P1  H  6934  6947       L1    23  0.69
      P1  H  7989  7998       L1     7  1.00

> <Gold.PLP.Chemscore.Internal.Correction>
0.4713

> <Gold.Rescore>
     Score         DG    S(hbond)    S(metal)    S(lipo)     H(rot)  DE(clash)    DE(int)     intcor
      9.08     -14.64       1.29        0.00      97.83       2.58       2.07       3.48       ----

> <Gold.Chemscore.Fitness>
9.0839

> <Gold.Chemscore.DG>
-14.6370

> <Gold.Chemscore.ZeroCoef>
-5.4800

> <Gold.Chemscore.Hbond>
1.2926

> <Gold.Chemscore.Metal>
0.0000

> <Gold.Chemscore.Lipo>
97.8295

> <Gold.Chemscore.Internal_Hbond>
0.0000

> <Gold.Chemscore.DEClash>
2.0686

> <Gold.Chemscore.DEInternal>
3.4845

> <Gold.Chemscore.Rot>
2.5806

> <Gold.Chemscore.Internal.Correction>
   9.000000E+99

> <Gold.Chemscore.Hbonds>
donor molecule, donor type, donor heavy atom, donor atom, acceptor molecule, acceptor atom, score
      P1  H  6934  6947       L1    23  0.47
      P1  H  7989  7998       L1     7  0.70

> <Gold.Chemscore.Hbond.Weighted>
-4.3172

> <Gold.Chemscore.Metal.Weighted>
-0.0000

> <Gold.Chemscore.Lipo.Weighted>
-11.4460

> <Gold.Chemscore.Internal_Hbond.Weighted>
0.0000

> <Gold.Chemscore.DEClash.Weighted>
2.0686

> <Gold.Chemscore.DEInternal.Weighted>
3.4845

> <Gold.Chemscore.Rot.Weighted>
6.6062

> <Gold.Chemscore.Internal.Correction.Weighted>
   9.000000E+99

> <Gold.Protein.RotatedTorsions>
[ 6907 6896 6895 6894 ] final  106.37 input  -60.11 | X-H torsion
[ 7974 7965 7964 7962 ] final   45.50 input  175.53 | X-H torsion
[ 8008 7997 7996 7995 ] final  132.15 input   59.86 | X-H torsion
[ 10167 10162 10161 10158 ] final  118.16 input  -65.29 | X-H torsion
[ 10718 10713 10712 10709 ] final  172.18 input   66.30 | X-H torsion
[ 10763 10752 10751 10750 ] final  108.29 input  -60.55 | X-H torsion
[ 11005 11000 10999 10996 ] final   34.97 input  -57.11 | X-H torsion

> <Gold.Protein.ActiveResidues>
 VAL166  LYS551  ARG553  GLY616  TRP617  ASP618  TYR619  PRO620  LYS621  CYS622 
 ASP623  PHE694  ASN695  SER759  ASP760  ASP761  ALA762  ILE779  LEU786  VAL792 
 PHE793  MET794  SER795  GLU796  ALA797  LYS798  CYS799  TRP800  GLU811  SER814 

> <Gold.Protein.RotatedAtoms>
  152.5196  133.9391  159.7617 H   0  0  0  0  0  0  0  0  0  0  0  0  # atno 6907 bound_to 6896
  150.9725  133.6321  159.2742 H   0  0  0  0  0  0  0  0  0  0  0  0  # atno 6908 bound_to 6896
  151.3527  135.0893  159.9461 H   0  0  0  0  0  0  0  0  0  0  0  0  # atno 6909 bound_to 6896
  146.0474  139.4957  142.9740 H   0  0  0  0  0  0  0  0  0  0  0  0  # atno 7974 bound_to 7965
  156.2979  140.2553  156.3042 H   0  0  0  0  0  0  0  0  0  0  0  0  # atno 8008 bound_to 7997
  154.9388  140.0396  157.2105 H   0  0  0  0  0  0  0  0  0  0  0  0  # atno 8009 bound_to 7997
  154.8146  140.2850  155.5833 H   0  0  0  0  0  0  0  0  0  0  0  0  # atno 8010 bound_to 7997
  139.6130  144.7086  151.2801 H   0  0  0  0  0  0  0  0  0  0  0  0  # atno 10167 bound_to 10162
  156.9826  131.0123  151.2877 H   0  0  0  0  0  0  0  0  0  0  0  0  # atno 10718 bound_to 10713
  153.4186  135.3817  155.2097 H   0  0  0  0  0  0  0  0  0  0  0  0  # atno 10763 bound_to 10752
  154.8743  135.3811  154.4412 H   0  0  0  0  0  0  0  0  0  0  0  0  # atno 10764 bound_to 10752
  153.4929  135.7088  153.5937 H   0  0  0  0  0  0  0  0  0  0  0  0  # atno 10765 bound_to 10752
  140.2475  134.3342  155.7902 H   0  0  0  0  0  0  0  0  0  0  0  0  # atno 11005 bound_to 11000
  145.6783  141.0198  143.1620 LP  0  0  0  0  0  0  0  0  0  0  0  0  # atno 17320 bound_to 7965
  144.7105  139.8391  143.7416 LP  0  0  0  0  0  0  0  0  0  0  0  0  # atno 17321 bound_to 7965
  140.7332  143.6801  150.8008 LP  0  0  0  0  0  0  0  0  0  0  0  0  # atno 17342 bound_to 10162
  140.0399  143.5356  152.2722 LP  0  0  0  0  0  0  0  0  0  0  0  0  # atno 17343 bound_to 10162
  157.5515  130.8185  149.8151 LP  0  0  0  0  0  0  0  0  0  0  0  0  # atno 17370 bound_to 10713
  156.0238  130.3786  150.1882 LP  0  0  0  0  0  0  0  0  0  0  0  0  # atno 17371 bound_to 10713
  141.2205  133.7334  156.8983 LP  0  0  0  0  0  0  0  0  0  0  0  0  # atno 17394 bound_to 11000
  140.1591  134.9177  157.2692 LP  0  0  0  0  0  0  0  0  0  0  0  0  # atno 17395 bound_to 11000

$$$$
