AV-unprocessed.smi:2078|AV-procd|sdf|8473|dock8
  -GOLD-   2272011173D 1   1.00000     0.00000
 Structure written by MMmdl.
 41 42  0  0  0  0  0  0  0  0  3 V2000
  148.7989  141.6330  154.3772 C   0  0  0  0  0  0  0  0  0  0  0  0
  149.4190  140.2779  154.3914 C   0  0  0  0  0  0  0  0  0  0  0  0
  148.9254  139.0281  154.1430 C   0  0  0  0  0  0  0  0  0  0  0  0
  150.0569  138.1920  154.3355 C   0  0  0  0  0  0  0  0  0  0  0  0
  149.9607  136.7876  154.1512 N   0  0  0  0  0  0  0  0  0  0  0  0
  150.3488  135.8053  154.9836 C   0  0  0  0  0  0  0  0  0  0  0  0
  150.7507  136.0748  156.1220 O   0  0  0  0  0  0  0  0  0  0  0  0
  150.2458  134.5714  154.4163 N   0  5  0  0  0  0  0  0  0  0  0  0
  149.1220  133.6491  154.6089 C   0  0  0  0  0  0  0  0  0  0  0  0
  148.6561  133.0713  153.2540 C   0  0  0  0  0  0  0  0  0  0  0  0
  147.4793  133.7982  152.7045 N   0  3  1  0  0  0  0  0  0  0  0  0
  146.8720  133.1525  151.5105 C   0  0  0  0  0  0  0  0  0  0  0  0
  145.8111  134.0659  150.8782 C   0  0  0  0  0  0  0  0  0  0  0  0
  144.7374  134.4553  151.9051 C   0  0  0  0  0  0  0  0  0  0  0  0
  145.3663  135.0614  153.1742 C   0  0  2  0  0  0  0  0  0  0  0  0
  145.8776  136.4972  152.9583 C   0  0  0  0  0  0  0  0  0  0  0  0
  146.4610  134.1295  153.7349 C   0  0  0  0  0  0  0  0  0  0  0  0
  151.1456  138.8720  154.6637 N   0  0  0  0  0  0  0  0  0  0  0  0
  150.7418  140.2119  154.7030 O   0  0  0  0  0  0  0  0  0  0  0  0
  148.9014  142.0927  153.3944 H   0  0  0  0  0  0  0  0  0  0  0  0
  149.2733  142.2874  155.1090 H   0  0  0  0  0  0  0  0  0  0  0  0
  147.7366  141.5757  154.6152 H   0  0  0  0  0  0  0  0  0  0  0  0
  147.9167  138.7573  153.8689 H   0  0  0  0  0  0  0  0  0  0  0  0
  149.5889  136.4891  153.2615 H   0  0  0  0  0  0  0  0  0  0  0  0
  149.3665  132.8281  155.2842 H   0  0  0  0  0  0  0  0  0  0  0  0
  148.2785  134.1596  155.0731 H   0  0  0  0  0  0  0  0  0  0  0  0
  149.4744  133.0902  152.5329 H   0  0  0  0  0  0  0  0  0  0  0  0
  148.4172  132.0164  153.3977 H   0  0  0  0  0  0  0  0  0  0  0  0
  147.6425  132.9344  150.7701 H   0  0  0  0  0  0  0  0  0  0  0  0
  146.4279  132.1981  151.7965 H   0  0  0  0  0  0  0  0  0  0  0  0
  146.2896  134.9611  150.4787 H   0  0  0  0  0  0  0  0  0  0  0  0
  145.3472  133.5636  150.0290 H   0  0  0  0  0  0  0  0  0  0  0  0
  144.0227  135.1492  151.4615 H   0  0  0  0  0  0  0  0  0  0  0  0
  144.1689  133.5652  152.1778 H   0  0  0  0  0  0  0  0  0  0  0  0
  144.5797  135.1282  153.9267 H   0  0  0  0  0  0  0  0  0  0  0  0
  146.6712  136.5406  152.2136 H   0  0  0  0  0  0  0  0  0  0  0  0
  146.2747  136.9155  153.8835 H   0  0  0  0  0  0  0  0  0  0  0  0
  145.0740  137.1523  152.6212 H   0  0  0  0  0  0  0  0  0  0  0  0
  146.0143  133.2048  154.1031 H   0  0  0  0  0  0  0  0  0  0  0  0
  146.9406  134.6086  154.5897 H   0  0  0  0  0  0  0  0  0  0  0  0
  147.8502  134.6863  152.3943 H   0  0  0  0  0  0  0  0  0  0  0  0
  1  2  1  0  0  0  0
  1 20  1  0  0  0  0
  1 21  1  0  0  0  0
  1 22  1  0  0  0  0
  2 19  1  0  0  0  0
  2  3  2  0  0  0  0
  3  4  1  0  0  0  0
  3 23  1  0  0  0  0
  4  5  1  0  0  0  0
  4 18  2  0  0  0  0
  5  6  1  0  0  0  0
  5 24  1  0  0  0  0
  6  7  2  0  0  0  0
  6  8  1  0  0  0  0
  8  9  1  0  0  0  0
  9 10  1  0  0  0  0
  9 25  1  0  0  0  0
  9 26  1  0  0  0  0
 10 11  1  0  0  0  0
 10 27  1  0  0  0  0
 10 28  1  0  0  0  0
 11 17  1  0  0  0  0
 11 12  1  0  0  0  0
 11 41  1  0  0  0  0
 12 13  1  0  0  0  0
 12 29  1  0  0  0  0
 12 30  1  0  0  0  0
 13 14  1  0  0  0  0
 13 31  1  0  0  0  0
 13 32  1  0  0  0  0
 14 15  1  0  0  0  0
 14 33  1  0  0  0  0
 14 34  1  0  0  0  0
 15 16  1  0  0  0  0
 15 17  1  0  0  0  0
 15 35  1  0  0  0  0
 16 36  1  0  0  0  0
 16 37  1  0  0  0  0
 16 38  1  0  0  0  0
 17 39  1  0  0  0  0
 17 40  1  0  0  0  0
 18 19  1  0  0  0  0
M  CHG  1   8  -1
M  CHG  1  11   1
M  END
> <s_m_source_file>
AV-unprocessed.smi

> <i_m_source_file_index>
2078

> <i_lp_mmshare_version>
43012

> <i_f3d_flags>
0

> <s_epik_input>
W0NIM11jMVtjSF1jKG5vMSlbTkhdQyg9TylbTkhdW0NIMl1bQ0gyXU4yW0NIMl1bQ0gyXVtDSDJdW0NAQEhdKFtDSDNdKVtDSDJdMg==

> <s_epik_cmdline>
J2VwaWtfcHl0aG9uJywgJy1waCcsICc3LjAnLCAnLXRuJywgJzgnLCAnLW1hJywgJzIwMCcsICctbWV0YWxfYmluZGluZycsICctaW1hZScsICc8aW5maWxlLm1hZT4nLCAnLW9tYWUnLCAnPG91dGZpbGUubWFlPic=

> <r_epik_Ionization_Penalty>
6.76934

> <r_epik_Ionization_Penalty_Charging>
6.76934

> <r_epik_Ionization_Penalty_Neutral>
5.77849e-06

> <r_epik_State_Penalty>
6.79457

> <r_epik_Charging_Adjusted_Penalty>
13.5639

> <i_epik_Tot_Q>
0

> <i_epik_Tot_abs_Q>
2

> <r_epik_Metal_State_Penalty>
2.72837

> <b_epik_Metal_Only>
1

> <s_lp_Force_Field>
OPLS_2005

> <r_lp_Energy>
11.5184

> <b_lp_Chiralities_Consistent>
1

> <s_lp_Variant>
AV-unprocessed.smi:2078-11

> <Gold.Version>
5.8.1

> <Gold.Id.Protein>
6NUR|6NUR_protein|mol2

> <Gold.PLP.Fitness>
39.2659

> <Gold.PLP.PLP>
-30.4284

> <Gold.PLP.part.hbond>
-3.7677

> <Gold.PLP.part.metal>
0.0000

> <Gold.PLP.part.buried>
-0.6707

> <Gold.PLP.part.nonpolar>
-24.8694

> <Gold.PLP.part.repulsive>
0.4167

> <Gold.PLP.ligand.clash>
0.0000

> <Gold.PLP.ligand.torsion>
1.6341

> <Gold.PLP.Chemscore.Hbond>
4.0000

> <Gold.PLP.Chemscore.CHOScore>
0.0000

> <Gold.PLP.Chemscore.Metal>
0.0000

> <Gold.Chemscore.Hbonds>
donor molecule, donor type, donor heavy atom, donor atom, acceptor molecule, acceptor atom, score
      L1  H     5    24       P1  7948  0.98
      L1  H    11    41       P1  7948  2.00
      P1  H  7989  7998       L1    19  1.00

> <Gold.PLP.Chemscore.Internal.Correction>
0.1057

> <Gold.Rescore>
     Score         DG    S(hbond)    S(metal)    S(lipo)     H(rot)  DE(clash)    DE(int)     intcor
     13.68     -15.44       2.16        0.00      57.16       1.54       0.06       1.70       ----

> <Gold.Chemscore.Fitness>
13.6751

> <Gold.Chemscore.DG>
-15.4362

> <Gold.Chemscore.ZeroCoef>
-5.4800

> <Gold.Chemscore.Hbond>
2.1596

> <Gold.Chemscore.Metal>
0.0000

> <Gold.Chemscore.Lipo>
57.1611

> <Gold.Chemscore.Internal_Hbond>
0.0000

> <Gold.Chemscore.DEClash>
0.0609

> <Gold.Chemscore.DEInternal>
1.7002

> <Gold.Chemscore.Rot>
1.5409

> <Gold.Chemscore.Internal.Correction>
   9.000000E+99

> <Gold.Chemscore.Hbonds>
donor molecule, donor type, donor heavy atom, donor atom, acceptor molecule, acceptor atom, score
      L1  H     5    24       P1  7948  0.41
      L1  H    11    41       P1  7948  0.65
      P1  H  7989  7998       L1    19  0.26

> <Gold.Chemscore.Hbond.Weighted>
-7.2130

> <Gold.Chemscore.Metal.Weighted>
-0.0000

> <Gold.Chemscore.Lipo.Weighted>
-6.6878

> <Gold.Chemscore.Internal_Hbond.Weighted>
0.0000

> <Gold.Chemscore.DEClash.Weighted>
0.0609

> <Gold.Chemscore.DEInternal.Weighted>
1.7002

> <Gold.Chemscore.Rot.Weighted>
3.9446

> <Gold.Chemscore.Internal.Correction.Weighted>
   9.000000E+99

> <Gold.Protein.RotatedTorsions>
[ 6907 6896 6895 6894 ] final  118.37 input  -60.11 | X-H torsion
[ 7974 7965 7964 7962 ] final    9.56 input  175.53 | X-H torsion
[ 8008 7997 7996 7995 ] final -139.17 input   59.86 | X-H torsion
[ 10167 10162 10161 10158 ] final   76.36 input  -65.29 | X-H torsion
[ 10718 10713 10712 10709 ] final   -7.68 input   66.30 | X-H torsion
[ 10763 10752 10751 10750 ] final  172.18 input  -60.55 | X-H torsion
[ 11005 11000 10999 10996 ] final    0.83 input  -57.11 | X-H torsion

> <Gold.Protein.ActiveResidues>
 VAL166  LYS551  ARG553  GLY616  TRP617  ASP618  TYR619  PRO620  LYS621  CYS622 
 ASP623  PHE694  ASN695  SER759  ASP760  ASP761  ALA762  ILE779  LEU786  VAL792 
 PHE793  MET794  SER795  GLU796  ALA797  LYS798  CYS799  TRP800  GLU811  SER814 

> <Gold.Protein.RotatedAtoms>
  152.4548  133.7700  159.6793 H   0  0  0  0  0  0  0  0  0  0  0  0  # atno 6907 bound_to 6896
  150.8470  133.7835  159.3045 H   0  0  0  0  0  0  0  0  0  0  0  0  # atno 6908 bound_to 6896
  151.5442  135.1071  159.9986 H   0  0  0  0  0  0  0  0  0  0  0  0  # atno 6909 bound_to 6896
  146.2401  139.9764  142.8441 H   0  0  0  0  0  0  0  0  0  0  0  0  # atno 7974 bound_to 7965
  155.4404  140.0531  157.3011 H   0  0  0  0  0  0  0  0  0  0  0  0  # atno 8008 bound_to 7997
  154.4821  140.2085  155.9697 H   0  0  0  0  0  0  0  0  0  0  0  0  # atno 8009 bound_to 7997
  156.1220  140.3186  155.8227 H   0  0  0  0  0  0  0  0  0  0  0  0  # atno 8010 bound_to 7997
  139.9931  144.5742  150.7801 H   0  0  0  0  0  0  0  0  0  0  0  0  # atno 10167 bound_to 10162
  156.7137  130.5129  149.5885 H   0  0  0  0  0  0  0  0  0  0  0  0  # atno 10718 bound_to 10713
  154.4224  135.2758  155.1967 H   0  0  0  0  0  0  0  0  0  0  0  0  # atno 10763 bound_to 10752
  154.3907  135.6067  153.5845 H   0  0  0  0  0  0  0  0  0  0  0  0  # atno 10764 bound_to 10752
  152.9833  135.5902  154.4522 H   0  0  0  0  0  0  0  0  0  0  0  0  # atno 10765 bound_to 10752
  140.6222  133.9651  155.8230 H   0  0  0  0  0  0  0  0  0  0  0  0  # atno 11005 bound_to 11000
  145.1632  140.9683  143.4365 LP  0  0  0  0  0  0  0  0  0  0  0  0  # atno 17320 bound_to 7965
  145.0096  139.3522  143.6126 LP  0  0  0  0  0  0  0  0  0  0  0  0  # atno 17321 bound_to 7965
  140.7447  143.2865  151.3449 LP  0  0  0  0  0  0  0  0  0  0  0  0  # atno 17342 bound_to 10162
  139.6326  144.0692  152.2489 LP  0  0  0  0  0  0  0  0  0  0  0  0  # atno 17343 bound_to 10162
  156.1643  130.6395  151.0758 LP  0  0  0  0  0  0  0  0  0  0  0  0  # atno 17370 bound_to 10713
  157.6926  131.0805  150.7063 LP  0  0  0  0  0  0  0  0  0  0  0  0  # atno 17371 bound_to 10713
  141.0734  134.0171  157.3493 LP  0  0  0  0  0  0  0  0  0  0  0  0  # atno 17394 bound_to 11000
  139.9149  135.0195  156.7840 LP  0  0  0  0  0  0  0  0  0  0  0  0  # atno 17395 bound_to 11000

$$$$
