AV-unprocessed.smi:3238|AV-procd|sdf|12376|dock9
  -GOLD-   2272018233D 1   1.00000     0.00000
 Structure written by MMmdl.
 37 39  0  0  0  0  0  0  0  0  1 V2000
  146.7722  138.6931  152.3303 C   0  0  0  0  0  0  0  0  0  0  0  0
  147.6316  139.7891  152.7513 N   0  0  0  0  0  0  0  0  0  0  0  0
  147.6528  140.2990  153.9913 C   0  0  0  0  0  0  0  0  0  0  0  0
  146.9398  139.8736  154.9020 O   0  0  0  0  0  0  0  0  0  0  0  0
  148.6357  141.4549  154.2218 C   0  0  0  0  0  0  0  0  0  0  0  0
  149.8178  141.0485  155.0470 C   0  0  0  0  0  0  0  0  0  0  0  0
  150.6736  140.1271  154.6195 N   0  0  0  0  0  0  0  0  0  0  0  0
  151.6130  140.0504  155.6575 O   0  0  0  0  0  0  0  0  0  0  0  0
  151.2041  140.9407  156.5932 C   0  0  0  0  0  0  0  0  0  0  0  0
  152.0270  141.1265  157.8258 C   0  0  0  0  0  0  0  0  0  0  0  0
  151.5091  142.2534  158.7425 C   0  0  1  0  0  0  0  0  0  0  0  0
  152.5230  142.6398  159.8438 C   0  0  0  0  0  0  0  0  0  0  0  0
  152.6890  144.1583  159.6522 C   0  0  2  0  0  0  0  0  0  0  0  0
  151.3943  144.8754  160.0764 C   0  0  0  0  0  0  0  0  0  0  0  0
  150.4189  144.5106  158.9412 C   0  0  0  0  0  0  0  0  0  0  0  0
  151.2765  143.6094  158.0321 C   0  0  1  0  0  0  0  0  0  0  0  0
  152.6401  144.2861  158.1354 C   0  0  0  0  0  0  0  0  0  0  0  0
  150.1009  141.6051  156.2581 N   0  0  0  0  0  0  0  0  0  0  0  0
  146.9253  138.4867  151.2712 H   0  0  0  0  0  0  0  0  0  0  0  0
  145.7211  138.9431  152.4801 H   0  0  0  0  0  0  0  0  0  0  0  0
  146.9978  137.7853  152.8913 H   0  0  0  0  0  0  0  0  0  0  0  0
  148.2492  140.1847  152.0573 H   0  0  0  0  0  0  0  0  0  0  0  0
  148.9745  141.8318  153.2559 H   0  0  0  0  0  0  0  0  0  0  0  0
  148.1209  142.2777  154.7200 H   0  0  0  0  0  0  0  0  0  0  0  0
  152.0282  140.1830  158.3728 H   0  0  0  0  0  0  0  0  0  0  0  0
  153.0608  141.3100  157.5319 H   0  0  0  0  0  0  0  0  0  0  0  0
  150.5817  141.9115  159.2051 H   0  0  0  0  0  0  0  0  0  0  0  0
  152.1666  142.3859  160.8429 H   0  0  0  0  0  0  0  0  0  0  0  0
  153.4794  142.1353  159.6985 H   0  0  0  0  0  0  0  0  0  0  0  0
  153.5872  144.5621  160.1201 H   0  0  0  0  0  0  0  0  0  0  0  0
  151.0404  144.5443  161.0535 H   0  0  0  0  0  0  0  0  0  0  0  0
  151.5433  145.9549  160.1217 H   0  0  0  0  0  0  0  0  0  0  0  0
  149.5231  144.0064  159.3055 H   0  0  0  0  0  0  0  0  0  0  0  0
  150.1013  145.4075  158.4077 H   0  0  0  0  0  0  0  0  0  0  0  0
  150.8796  143.5282  157.0205 H   0  0  0  0  0  0  0  0  0  0  0  0
  152.6377  145.3209  157.7883 H   0  0  0  0  0  0  0  0  0  0  0  0
  153.4391  143.7429  157.6285 H   0  0  0  0  0  0  0  0  0  0  0  0
  1  2  1  0  0  0  0
  1 19  1  0  0  0  0
  1 20  1  0  0  0  0
  1 21  1  0  0  0  0
  2  3  1  0  0  0  0
  2 22  1  0  0  0  0
  3  4  2  0  0  0  0
  3  5  1  0  0  0  0
  5  6  1  0  0  0  0
  5 23  1  0  0  0  0
  5 24  1  0  0  0  0
  6 18  1  0  0  0  0
  6  7  2  0  0  0  0
  7  8  1  0  0  0  0
  8  9  1  0  0  0  0
  9 10  1  0  0  0  0
  9 18  2  0  0  0  0
 10 11  1  0  0  0  0
 10 25  1  0  0  0  0
 10 26  1  0  0  0  0
 11 16  1  0  0  0  0
 11 12  1  0  0  0  0
 11 27  1  0  0  0  0
 12 13  1  0  0  0  0
 12 28  1  0  0  0  0
 12 29  1  0  0  0  0
 13 17  1  0  0  0  0
 13 14  1  0  0  0  0
 13 30  1  0  0  0  0
 14 15  1  0  0  0  0
 14 31  1  0  0  0  0
 14 32  1  0  0  0  0
 15 16  1  0  0  0  0
 15 33  1  0  0  0  0
 15 34  1  0  0  0  0
 16 17  1  0  0  0  0
 16 35  1  0  0  0  0
 17 36  1  0  0  0  0
 17 37  1  0  0  0  0
M  END
> <s_m_source_file>
AV-unprocessed.smi

> <i_m_source_file_index>
3238

> <i_lp_mmshare_version>
43012

> <i_f3d_flags>
0

> <s_epik_input>
W0NIM11bTkhdQyg9TylbQ0gyXWMxbm9jKG4xKVtDSDJdW0NASF0oW0NIMl1bQ0BIXTIzKVtDQEhdKFtDSDJdMylbQ0gyXVtDSDJdMg==

> <s_epik_cmdline>
J2VwaWtfcHl0aG9uJywgJy1waCcsICc3LjAnLCAnLXRuJywgJzgnLCAnLW1hJywgJzIwMCcsICctbWV0YWxfYmluZGluZycsICctaW1hZScsICc8aW5maWxlLm1hZT4nLCAnLW9tYWUnLCAnPG91dGZpbGUubWFlPic=

> <r_lp_tautomer_probability>
1

> <r_epik_Ionization_Penalty>
1.02915e-07

> <r_epik_Ionization_Penalty_Charging>
0

> <r_epik_Ionization_Penalty_Neutral>
1.02915e-07

> <r_epik_State_Penalty>
-0

> <r_epik_Charging_Adjusted_Penalty>
0

> <i_epik_Tot_Q>
0

> <i_epik_Tot_abs_Q>
0

> <r_epik_Metal_State_Penalty>
-0

> <b_epik_Metal_Only>
0

> <s_lp_Force_Field>
OPLS_2005

> <r_lp_Energy>
47.9986

> <b_lp_Chiralities_Consistent>
1

> <s_lp_Variant>
AV-unprocessed.smi:3238-2

> <Gold.Version>
5.8.1

> <Gold.Id.Protein>
6NUR|6NUR_protein|mol2

> <Gold.PLP.Fitness>
47.7461

> <Gold.PLP.PLP>
-42.2777

> <Gold.PLP.part.hbond>
-2.2532

> <Gold.PLP.part.metal>
0.0000

> <Gold.PLP.part.buried>
-5.3179

> <Gold.PLP.part.nonpolar>
-35.2458

> <Gold.PLP.part.repulsive>
0.3310

> <Gold.PLP.ligand.clash>
0.0000

> <Gold.PLP.ligand.torsion>
0.2110

> <Gold.PLP.Chemscore.Hbond>
1.9600

> <Gold.PLP.Chemscore.CHOScore>
0.0000

> <Gold.PLP.Chemscore.Metal>
0.0000

> <Gold.Chemscore.Hbonds>
donor molecule, donor type, donor heavy atom, donor atom, acceptor molecule, acceptor atom, score
      L1  H     2    22       P1  7957  0.98
      P1  H  7989  7998       L1     7  0.90

> <Gold.PLP.Chemscore.Internal.Correction>
0.0103

> <Gold.Rescore>
     Score         DG    S(hbond)    S(metal)    S(lipo)     H(rot)  DE(clash)    DE(int)     intcor
     15.77     -17.37       1.32        0.00     104.26       1.85       0.15       1.44       ----

> <Gold.Chemscore.Fitness>
15.7739

> <Gold.Chemscore.DG>
-17.3686

> <Gold.Chemscore.ZeroCoef>
-5.4800

> <Gold.Chemscore.Hbond>
1.3247

> <Gold.Chemscore.Metal>
0.0000

> <Gold.Chemscore.Lipo>
104.2575

> <Gold.Chemscore.Internal_Hbond>
0.0000

> <Gold.Chemscore.DEClash>
0.1513

> <Gold.Chemscore.DEInternal>
1.4434

> <Gold.Chemscore.Rot>
1.8492

> <Gold.Chemscore.Internal.Correction>
   9.000000E+99

> <Gold.Chemscore.Hbonds>
donor molecule, donor type, donor heavy atom, donor atom, acceptor molecule, acceptor atom, score
      L1  H     2    22       P1  7957  0.93
      P1  H  7989  7998       L1     7  0.10

> <Gold.Chemscore.Hbond.Weighted>
-4.4245

> <Gold.Chemscore.Metal.Weighted>
-0.0000

> <Gold.Chemscore.Lipo.Weighted>
-12.1981

> <Gold.Chemscore.Internal_Hbond.Weighted>
0.0000

> <Gold.Chemscore.DEClash.Weighted>
0.1513

> <Gold.Chemscore.DEInternal.Weighted>
1.4434

> <Gold.Chemscore.Rot.Weighted>
4.7340

> <Gold.Chemscore.Internal.Correction.Weighted>
   9.000000E+99

> <Gold.Protein.RotatedTorsions>
[ 6907 6896 6895 6894 ] final  101.35 input  -60.11 | X-H torsion
[ 7974 7965 7964 7962 ] final  169.06 input  175.53 | X-H torsion
[ 8008 7997 7996 7995 ] final  118.78 input   59.86 | X-H torsion
[ 10167 10162 10161 10158 ] final  -10.86 input  -65.29 | X-H torsion
[ 10718 10713 10712 10709 ] final -154.66 input   66.30 | X-H torsion
[ 10763 10752 10751 10750 ] final   40.21 input  -60.55 | X-H torsion
[ 11005 11000 10999 10996 ] final  -51.23 input  -57.11 | X-H torsion

> <Gold.Protein.ActiveResidues>
 VAL166  LYS551  ARG553  GLY616  TRP617  ASP618  TYR619  PRO620  LYS621  CYS622 
 ASP623  PHE694  ASN695  SER759  ASP760  ASP761  ALA762  ILE779  LEU786  VAL792 
 PHE793  MET794  SER795  GLU796  ALA797  LYS798  CYS799  TRP800  GLU811  SER814 

> <Gold.Protein.RotatedAtoms>
  152.5351  134.0139  159.7950 H   0  0  0  0  0  0  0  0  0  0  0  0  # atno 6907 bound_to 6896
  151.0337  133.5760  159.2665 H   0  0  0  0  0  0  0  0  0  0  0  0  # atno 6908 bound_to 6896
  151.2755  135.0705  159.9203 H   0  0  0  0  0  0  0  0  0  0  0  0  # atno 6909 bound_to 6896
  144.7367  139.8999  143.6408 H   0  0  0  0  0  0  0  0  0  0  0  0  # atno 7974 bound_to 7965
  156.2563  140.2867  156.0888 H   0  0  0  0  0  0  0  0  0  0  0  0  # atno 8008 bound_to 7997
  155.1486  140.0397  157.2833 H   0  0  0  0  0  0  0  0  0  0  0  0  # atno 8009 bound_to 7997
  154.6477  140.2537  155.7255 H   0  0  0  0  0  0  0  0  0  0  0  0  # atno 8010 bound_to 7997
  140.7124  143.5702  150.9100 H   0  0  0  0  0  0  0  0  0  0  0  0  # atno 10167 bound_to 10162
  156.5022  130.8397  151.2614 H   0  0  0  0  0  0  0  0  0  0  0  0  # atno 10718 bound_to 10713
  152.9943  135.6198  154.2589 H   0  0  0  0  0  0  0  0  0  0  0  0  # atno 10763 bound_to 10752
  154.2325  135.2791  155.2886 H   0  0  0  0  0  0  0  0  0  0  0  0  # atno 10764 bound_to 10752
  154.5437  135.5753  153.6920 H   0  0  0  0  0  0  0  0  0  0  0  0  # atno 10765 bound_to 10752
  141.0860  133.6642  156.3848 H   0  0  0  0  0  0  0  0  0  0  0  0  # atno 11005 bound_to 11000
  146.1079  139.4081  143.0306 LP  0  0  0  0  0  0  0  0  0  0  0  0  # atno 17320 bound_to 7965
  145.7485  140.9981  143.1263 LP  0  0  0  0  0  0  0  0  0  0  0  0  # atno 17321 bound_to 7965
  139.9428  143.6362  152.3049 LP  0  0  0  0  0  0  0  0  0  0  0  0  # atno 17342 bound_to 10162
  139.6853  144.7652  151.1535 LP  0  0  0  0  0  0  0  0  0  0  0  0  # atno 17343 bound_to 10162
  157.7461  130.9978  150.2828 LP  0  0  0  0  0  0  0  0  0  0  0  0  # atno 17370 bound_to 10713
  156.3321  130.3802  149.7482 LP  0  0  0  0  0  0  0  0  0  0  0  0  # atno 17371 bound_to 10713
  140.5362  134.6165  157.5365 LP  0  0  0  0  0  0  0  0  0  0  0  0  # atno 17394 bound_to 11000
  139.9678  134.7343  156.0102 LP  0  0  0  0  0  0  0  0  0  0  0  0  # atno 17395 bound_to 11000

$$$$
