AV-unprocessed.smi:2316|AV-procd|sdf|9270|dock3
  -GOLD-   2272012493D 1   1.00000     0.00000
 Structure written by MMmdl.
 31 32  0  0  0  0  0  0  0  0  1 V2000
  151.0462  141.0792  156.8709 O   0  0  0  0  0  0  0  0  0  0  0  0
  150.4526  142.0939  156.5124 C   0  0  0  0  0  0  0  0  0  0  0  0
  149.4094  142.1141  155.6598 N   0  0  0  0  0  0  0  0  0  0  0  0
  148.7750  141.0319  154.9919 C   0  0  0  0  0  0  0  0  0  0  0  0
  149.2448  139.6964  155.0131 C   0  0  0  0  0  0  0  0  0  0  0  0
  148.5306  138.7187  154.2918 C   0  0  0  0  0  0  0  0  0  0  0  0
  147.4207  138.9874  153.5720 N   0  0  0  0  0  0  0  0  0  0  0  0
  146.9836  140.2640  153.5432 C   0  0  0  0  0  0  0  0  0  0  0  0
  147.6234  141.3165  154.2280 C   0  0  0  0  0  0  0  0  0  0  0  0
  147.1337  142.5779  154.1537 F   0  0  0  0  0  0  0  0  0  0  0  0
  150.7999  143.3049  156.9873 N   0  0  0  0  0  0  0  0  0  0  0  0
  151.8744  143.6467  157.9224 C   0  0  1  0  0  0  0  0  0  0  0  0
  151.8118  145.1213  158.3016 C   0  0  0  0  0  0  0  0  0  0  0  0
  151.9524  145.5765  159.5583 C   0  0  0  0  0  0  0  0  0  0  0  0
  152.2051  144.6745  160.7520 C   0  0  0  0  0  0  0  0  0  0  0  0
  152.6383  143.2606  160.3272 C   0  0  0  0  0  0  0  0  0  0  0  0
  151.7859  142.7322  159.1634 C   0  0  0  0  0  0  0  0  0  0  0  0
  148.9756  143.0152  155.5206 H   0  0  0  0  0  0  0  0  0  0  0  0
  150.1339  139.4053  155.5501 H   0  0  0  0  0  0  0  0  0  0  0  0
  148.8650  137.6918  154.2884 H   0  0  0  0  0  0  0  0  0  0  0  0
  146.0974  140.4535  152.9555 H   0  0  0  0  0  0  0  0  0  0  0  0
  150.2362  144.0822  156.6745 H   0  0  0  0  0  0  0  0  0  0  0  0
  152.8430  143.4766  157.4493 H   0  0  0  0  0  0  0  0  0  0  0  0
  151.6438  145.8272  157.5011 H   0  0  0  0  0  0  0  0  0  0  0  0
  151.8746  146.6353  159.7567 H   0  0  0  0  0  0  0  0  0  0  0  0
  152.9706  145.1222  161.3864 H   0  0  0  0  0  0  0  0  0  0  0  0
  151.2891  144.6282  161.3415 H   0  0  0  0  0  0  0  0  0  0  0  0
  153.6852  143.2794  160.0211 H   0  0  0  0  0  0  0  0  0  0  0  0
  152.5792  142.5822  161.1788 H   0  0  0  0  0  0  0  0  0  0  0  0
  150.7496  142.6615  159.4983 H   0  0  0  0  0  0  0  0  0  0  0  0
  152.0934  141.7191  158.9023 H   0  0  0  0  0  0  0  0  0  0  0  0
  1  2  2  0  0  0  0
  2  3  1  0  0  0  0
  2 11  1  0  0  0  0
  3  4  1  0  0  0  0
  3 18  1  0  0  0  0
  4  9  1  0  0  0  0
  4  5  2  0  0  0  0
  5  6  1  0  0  0  0
  5 19  1  0  0  0  0
  6  7  2  0  0  0  0
  6 20  1  0  0  0  0
  7  8  1  0  0  0  0
  8  9  2  0  0  0  0
  8 21  1  0  0  0  0
  9 10  1  0  0  0  0
 11 12  1  0  0  0  0
 11 22  1  0  0  0  0
 12 17  1  0  0  0  0
 12 13  1  0  0  0  0
 12 23  1  0  0  0  0
 13 14  2  0  0  0  0
 13 24  1  0  0  0  0
 14 15  1  0  0  0  0
 14 25  1  0  0  0  0
 15 16  1  0  0  0  0
 15 26  1  0  0  0  0
 15 27  1  0  0  0  0
 16 17  1  0  0  0  0
 16 28  1  0  0  0  0
 16 29  1  0  0  0  0
 17 30  1  0  0  0  0
 17 31  1  0  0  0  0
M  END
> <s_m_source_file>
AV-unprocessed.smi

> <i_m_source_file_index>
2316

> <i_lp_mmshare_version>
43012

> <i_f3d_flags>
0

> <s_epik_input>
W0NIMl0xW0NIMl1bQ0gyXVtDSF09W0NIXVtDQEhdMVtOSF1DKD1PKVtOSF1jMltjSF1bY0hdbltjSF1jMkY=

> <s_epik_cmdline>
J2VwaWtfcHl0aG9uJywgJy1waCcsICc3LjAnLCAnLXRuJywgJzgnLCAnLW1hJywgJzIwMCcsICctbWV0YWxfYmluZGluZycsICctaW1hZScsICc8aW5maWxlLm1hZT4nLCAnLW9tYWUnLCAnPG91dGZpbGUubWFlPic=

> <r_epik_Ionization_Penalty>
0.0032416

> <r_epik_Ionization_Penalty_Charging>
0

> <r_epik_Ionization_Penalty_Neutral>
0.0032416

> <r_epik_State_Penalty>
0.00226065

> <r_epik_Charging_Adjusted_Penalty>
0.00226065

> <i_epik_Tot_Q>
0

> <i_epik_Tot_abs_Q>
0

> <r_epik_Metal_State_Penalty>
-0

> <b_epik_Metal_Only>
0

> <s_lp_Force_Field>
OPLS_2005

> <r_lp_Energy>
22.3144

> <b_lp_Chiralities_Consistent>
1

> <s_lp_Variant>
AV-unprocessed.smi:2316-2

> <Gold.Version>
5.8.1

> <Gold.Id.Protein>
6NUR|6NUR_protein|mol2

> <Gold.PLP.Fitness>
54.0255

> <Gold.PLP.PLP>
-42.1607

> <Gold.PLP.part.hbond>
-2.0000

> <Gold.PLP.part.metal>
0.0000

> <Gold.PLP.part.buried>
-4.4766

> <Gold.PLP.part.nonpolar>
-36.5777

> <Gold.PLP.part.repulsive>
1.2301

> <Gold.PLP.ligand.clash>
0.0000

> <Gold.PLP.ligand.torsion>
0.0713

> <Gold.PLP.Chemscore.Hbond>
2.0000

> <Gold.PLP.Chemscore.CHOScore>
2.0000

> <Gold.PLP.Chemscore.Metal>
0.0000

> <Gold.Chemscore.Hbonds>
donor molecule, donor type, donor heavy atom, donor atom, acceptor molecule, acceptor atom, score
      L1  H     3    18       P1  8028  1.00
      L1  H    11    22       P1  8028  1.00
      L1  C     6    20       P1  7948  0.22
      L1  C     8    21       P1 10175  1.00

> <Gold.PLP.Chemscore.Internal.Correction>
0.0074

> <Gold.Rescore>
     Score         DG    S(hbond)    S(metal)    S(lipo)     H(rot)  DE(clash)    DE(int)     intcor
     20.13     -21.56       1.91        0.00     104.78       1.00       0.13       1.30       ----

> <Gold.Chemscore.Fitness>
20.1287

> <Gold.Chemscore.DG>
-21.5590

> <Gold.Chemscore.ZeroCoef>
-5.4800

> <Gold.Chemscore.Hbond>
1.9101

> <Gold.Chemscore.Metal>
0.0000

> <Gold.Chemscore.Lipo>
104.7813

> <Gold.Chemscore.Internal_Hbond>
0.0000

> <Gold.Chemscore.DEClash>
0.1324

> <Gold.Chemscore.DEInternal>
1.2980

> <Gold.Chemscore.Rot>
1.0000

> <Gold.Chemscore.Internal.Correction>
   9.000000E+99

> <Gold.Chemscore.Hbonds>
donor molecule, donor type, donor heavy atom, donor atom, acceptor molecule, acceptor atom, score
      L1  H     3    18       P1  8028  0.98
      L1  H    11    22       P1  8028  0.95

> <Gold.Chemscore.Hbond.Weighted>
-6.3796

> <Gold.Chemscore.Metal.Weighted>
-0.0000

> <Gold.Chemscore.Lipo.Weighted>
-12.2594

> <Gold.Chemscore.Internal_Hbond.Weighted>
0.0000

> <Gold.Chemscore.DEClash.Weighted>
0.1324

> <Gold.Chemscore.DEInternal.Weighted>
1.2980

> <Gold.Chemscore.Rot.Weighted>
2.5600

> <Gold.Chemscore.Internal.Correction.Weighted>
   9.000000E+99

> <Gold.Protein.RotatedTorsions>
[ 6907 6896 6895 6894 ] final   69.20 input  -60.11 | X-H torsion
[ 7974 7965 7964 7962 ] final  -95.80 input  175.53 | X-H torsion
[ 8008 7997 7996 7995 ] final  -58.23 input   59.86 | X-H torsion
[ 10167 10162 10161 10158 ] final  -52.44 input  -65.29 | X-H torsion
[ 10718 10713 10712 10709 ] final  143.06 input   66.30 | X-H torsion
[ 10763 10752 10751 10750 ] final    4.84 input  -60.55 | X-H torsion
[ 11005 11000 10999 10996 ] final -116.02 input  -57.11 | X-H torsion

> <Gold.Protein.ActiveResidues>
 VAL166  LYS551  ARG553  GLY616  TRP617  ASP618  TYR619  PRO620  LYS621  CYS622 
 ASP623  PHE694  ASN695  SER759  ASP760  ASP761  ALA762  ILE779  LEU786  VAL792 
 PHE793  MET794  SER795  GLU796  ALA797  LYS798  CYS799  TRP800  GLU811  SER814 

> <Gold.Protein.RotatedAtoms>
  152.4671  134.5050  159.9736 H   0  0  0  0  0  0  0  0  0  0  0  0  # atno 6907 bound_to 6896
  151.5085  133.3484  159.2889 H   0  0  0  0  0  0  0  0  0  0  0  0  # atno 6908 bound_to 6896
  150.8661  134.8052  159.7181 H   0  0  0  0  0  0  0  0  0  0  0  0  # atno 6909 bound_to 6896
  145.3553  140.9483  143.2531 H   0  0  0  0  0  0  0  0  0  0  0  0  # atno 7974 bound_to 7965
  154.4300  140.1089  156.5924 H   0  0  0  0  0  0  0  0  0  0  0  0  # atno 8008 bound_to 7997
  155.5998  140.3493  155.4572 H   0  0  0  0  0  0  0  0  0  0  0  0  # atno 8009 bound_to 7997
  156.0182  140.1234  157.0374 H   0  0  0  0  0  0  0  0  0  0  0  0  # atno 8010 bound_to 7997
  140.6537  143.2584  151.4649 H   0  0  0  0  0  0  0  0  0  0  0  0  # atno 10167 bound_to 10162
  157.3733  131.0982  151.0807 H   0  0  0  0  0  0  0  0  0  0  0  0  # atno 10718 bound_to 10713
  153.2664  135.6928  153.7525 H   0  0  0  0  0  0  0  0  0  0  0  0  # atno 10763 bound_to 10752
  153.6565  135.3368  155.3116 H   0  0  0  0  0  0  0  0  0  0  0  0  # atno 10764 bound_to 10752
  154.8449  135.4467  154.1672 H   0  0  0  0  0  0  0  0  0  0  0  0  # atno 10765 bound_to 10752
  141.0449  133.9778  157.2933 H   0  0  0  0  0  0  0  0  0  0  0  0  # atno 11005 bound_to 11000
  144.8687  139.5070  143.6778 LP  0  0  0  0  0  0  0  0  0  0  0  0  # atno 17320 bound_to 7965
  146.2951  139.7253  142.9133 LP  0  0  0  0  0  0  0  0  0  0  0  0  # atno 17321 bound_to 7965
  139.5756  144.1827  152.1898 LP  0  0  0  0  0  0  0  0  0  0  0  0  # atno 17342 bound_to 10162
  140.1137  144.5435  150.6908 LP  0  0  0  0  0  0  0  0  0  0  0  0  # atno 17343 bound_to 10162
  157.1903  130.6349  149.5702 LP  0  0  0  0  0  0  0  0  0  0  0  0  # atno 17370 bound_to 10713
  155.9760  130.4724  150.6499 LP  0  0  0  0  0  0  0  0  0  0  0  0  # atno 17371 bound_to 10713
  139.9304  135.0200  156.8381 LP  0  0  0  0  0  0  0  0  0  0  0  0  # atno 17394 bound_to 11000
  140.6165  134.0034  155.7599 LP  0  0  0  0  0  0  0  0  0  0  0  0  # atno 17395 bound_to 11000

$$$$
