AV-unprocessed.smi:1254|AV-procd|sdf|5280|dock4
  -GOLD-   22720 4403D 1   1.00000     0.00000
 Structure written by MMmdl.
 44 45  0  0  0  0  0  0  0  0  2 V2000
  144.1590  134.2522  162.8545 C   0  0  0  0  0  0  0  0  0  0  0  0
  145.3699  134.8843  162.2588 C   0  0  0  0  0  0  0  0  0  0  0  0
  145.6495  136.1581  161.8522 C   0  0  0  0  0  0  0  0  0  0  0  0
  146.9903  136.0640  161.3886 C   0  0  0  0  0  0  0  0  0  0  0  0
  147.7165  137.0665  160.8706 N   0  5  0  0  0  0  0  0  0  0  0  0
  148.4370  136.8730  159.7416 C   0  0  0  0  0  0  0  0  0  0  0  0
  148.9713  135.8196  159.3876 O   0  0  0  0  0  0  0  0  0  0  0  0
  148.5458  137.9699  158.9785 N   0  0  0  0  0  0  0  0  0  0  0  0
  149.2499  138.0653  157.7036 C   0  0  0  0  0  0  0  0  0  0  0  0
  149.3033  139.5149  157.1931 C   0  0  1  0  0  0  0  0  0  0  0  0
  150.3772  140.3406  157.9283 C   0  0  0  0  0  0  0  0  0  0  0  0
  150.4724  141.7047  157.4178 N   0  0  0  0  0  0  0  0  0  0  0  0
  151.4923  142.4620  158.1452 C   0  0  0  0  0  0  0  0  0  0  0  0
  151.3531  143.9988  158.0973 C   0  0  0  0  0  0  0  0  0  0  0  0
  152.7334  144.6644  158.1987 C   0  0  0  0  0  0  0  0  0  0  0  0
  150.4216  144.5212  159.2031 C   0  0  0  0  0  0  0  0  0  0  0  0
  150.7234  141.6547  155.9790 C   0  0  0  0  0  0  0  0  0  0  0  0
  149.6663  140.8169  155.2404 C   0  0  0  0  0  0  0  0  0  0  0  0
  149.6186  139.5110  155.8029 O   0  0  0  0  0  0  0  0  0  0  0  0
  147.4748  134.8372  161.4883 N   0  0  0  0  0  0  0  0  0  0  0  0
  146.4439  134.0759  162.0518 O   0  0  0  0  0  0  0  0  0  0  0  0
  143.6557  133.6196  162.1234 H   0  0  0  0  0  0  0  0  0  0  0  0
  143.4511  135.0097  163.1914 H   0  0  0  0  0  0  0  0  0  0  0  0
  144.4260  133.6345  163.7120 H   0  0  0  0  0  0  0  0  0  0  0  0
  145.0016  137.0213  161.8840 H   0  0  0  0  0  0  0  0  0  0  0  0
  148.0893  138.8071  159.3091 H   0  0  0  0  0  0  0  0  0  0  0  0
  150.2637  137.6995  157.8682 H   0  0  0  0  0  0  0  0  0  0  0  0
  148.8056  137.4071  156.9552 H   0  0  0  0  0  0  0  0  0  0  0  0
  148.3267  139.9806  157.3393 H   0  0  0  0  0  0  0  0  0  0  0  0
  150.1437  140.3638  158.9934 H   0  0  0  0  0  0  0  0  0  0  0  0
  151.3439  139.8431  157.8327 H   0  0  0  0  0  0  0  0  0  0  0  0
  151.4751  142.1614  159.1939 H   0  0  0  0  0  0  0  0  0  0  0  0
  152.4787  142.1786  157.7746 H   0  0  0  0  0  0  0  0  0  0  0  0
  150.9354  144.2939  157.1353 H   0  0  0  0  0  0  0  0  0  0  0  0
  153.2194  144.4282  159.1459 H   0  0  0  0  0  0  0  0  0  0  0  0
  152.6535  145.7494  158.1269 H   0  0  0  0  0  0  0  0  0  0  0  0
  153.3909  144.3306  157.3954 H   0  0  0  0  0  0  0  0  0  0  0  0
  150.7937  144.2559  160.1932 H   0  0  0  0  0  0  0  0  0  0  0  0
  149.4172  144.1085  159.1038 H   0  0  0  0  0  0  0  0  0  0  0  0
  150.3324  145.6071  159.1610 H   0  0  0  0  0  0  0  0  0  0  0  0
  150.7239  142.6588  155.5572 H   0  0  0  0  0  0  0  0  0  0  0  0
  151.7121  141.2336  155.7899 H   0  0  0  0  0  0  0  0  0  0  0  0
  148.6835  141.2861  155.3070 H   0  0  0  0  0  0  0  0  0  0  0  0
  149.9139  140.7396  154.1818 H   0  0  0  0  0  0  0  0  0  0  0  0
  1  2  1  0  0  0  0
  1 22  1  0  0  0  0
  1 23  1  0  0  0  0
  1 24  1  0  0  0  0
  2 21  1  0  0  0  0
  2  3  2  0  0  0  0
  3  4  1  0  0  0  0
  3 25  1  0  0  0  0
  4  5  1  0  0  0  0
  4 20  2  0  0  0  0
  5  6  1  0  0  0  0
  6  7  2  0  0  0  0
  6  8  1  0  0  0  0
  8  9  1  0  0  0  0
  8 26  1  0  0  0  0
  9 10  1  0  0  0  0
  9 27  1  0  0  0  0
  9 28  1  0  0  0  0
 10 19  1  0  0  0  0
 10 11  1  0  0  0  0
 10 29  1  0  0  0  0
 11 12  1  0  0  0  0
 11 30  1  0  0  0  0
 11 31  1  0  0  0  0
 12 13  1  0  0  0  0
 12 17  1  0  0  0  0
 13 14  1  0  0  0  0
 13 32  1  0  0  0  0
 13 33  1  0  0  0  0
 14 15  1  0  0  0  0
 14 16  1  0  0  0  0
 14 34  1  0  0  0  0
 15 35  1  0  0  0  0
 15 36  1  0  0  0  0
 15 37  1  0  0  0  0
 16 38  1  0  0  0  0
 16 39  1  0  0  0  0
 16 40  1  0  0  0  0
 17 18  1  0  0  0  0
 17 41  1  0  0  0  0
 17 42  1  0  0  0  0
 18 19  1  0  0  0  0
 18 43  1  0  0  0  0
 18 44  1  0  0  0  0
 20 21  1  0  0  0  0
M  CHG  1   5  -1
M  END
> <s_m_source_file>
AV-unprocessed.smi

> <i_m_source_file_index>
1254

> <i_lp_mmshare_version>
43012

> <i_f3d_flags>
0

> <s_epik_input>
W0NIM11jMVtjSF1jKG5vMSlbTkhdQyg9TylbTkhdW0NIMl1bQ0BASF0yW0NIMl1OKFtDSDJdW0NIMl1PMilbQ0gyXVtDSF0oW0NIM10pW0NIM10=

> <s_epik_cmdline>
J2VwaWtfcHl0aG9uJywgJy1waCcsICc3LjAnLCAnLXRuJywgJzgnLCAnLW1hJywgJzIwMCcsICctbWV0YWxfYmluZGluZycsICctaW1hZScsICc8aW5maWxlLm1hZT4nLCAnLW9tYWUnLCAnPG91dGZpbGUubWFlPic=

> <r_epik_Ionization_Penalty>
7.56718

> <r_epik_Ionization_Penalty_Charging>
6.43435

> <r_epik_Ionization_Penalty_Neutral>
1.13283

> <r_epik_State_Penalty>
7.60314

> <r_epik_Charging_Adjusted_Penalty>
14.0375

> <i_epik_Tot_Q>
-1

> <i_epik_Tot_abs_Q>
1

> <r_epik_Metal_State_Penalty>
3.53636

> <b_epik_Metal_Only>
1

> <s_lp_Force_Field>
OPLS_2005

> <r_lp_Energy>
16.636

> <b_lp_Chiralities_Consistent>
1

> <s_lp_Variant>
AV-unprocessed.smi:1254-12

> <Gold.Version>
5.8.1

> <Gold.Id.Protein>
6NUR|6NUR_protein|mol2

> <Gold.PLP.Fitness>
47.5583

> <Gold.PLP.PLP>
-36.5610

> <Gold.PLP.part.hbond>
-3.0000

> <Gold.PLP.part.metal>
0.0000

> <Gold.PLP.part.buried>
-6.6326

> <Gold.PLP.part.nonpolar>
-27.7073

> <Gold.PLP.part.repulsive>
0.7175

> <Gold.PLP.ligand.clash>
0.0000

> <Gold.PLP.ligand.torsion>
1.2942

> <Gold.PLP.Chemscore.Hbond>
4.4540

> <Gold.PLP.Chemscore.CHOScore>
0.0000

> <Gold.PLP.Chemscore.Metal>
0.0000

> <Gold.Chemscore.Hbonds>
donor molecule, donor type, donor heavy atom, donor atom, acceptor molecule, acceptor atom, score
      P1  H  6896  6907       L1     7  0.81
      P1  H  6931  6943       L1     5  1.66
      P1  H  6934  6947       L1     5  1.82

> <Gold.PLP.Chemscore.Internal.Correction>
0.2238

> <Gold.Rescore>
     Score         DG    S(hbond)    S(metal)    S(lipo)     H(rot)  DE(clash)    DE(int)     intcor
     15.70     -18.58       2.02        0.00      90.36       1.65       0.16       2.72       ----

> <Gold.Chemscore.Fitness>
15.6960

> <Gold.Chemscore.DG>
-18.5800

> <Gold.Chemscore.ZeroCoef>
-5.4800

> <Gold.Chemscore.Hbond>
2.0234

> <Gold.Chemscore.Metal>
0.0000

> <Gold.Chemscore.Lipo>
90.3643

> <Gold.Chemscore.Internal_Hbond>
0.0000

> <Gold.Chemscore.DEClash>
0.1627

> <Gold.Chemscore.DEInternal>
2.7213

> <Gold.Chemscore.Rot>
1.6526

> <Gold.Chemscore.Internal.Correction>
   9.000000E+99

> <Gold.Chemscore.Hbonds>
donor molecule, donor type, donor heavy atom, donor atom, acceptor molecule, acceptor atom, score
      P1  H  6896  6907       L1     7  0.80
      P1  H  6931  6943       L1     5  0.17
      P1  H  6934  6947       L1     5  0.50

> <Gold.Chemscore.Hbond.Weighted>
-6.7581

> <Gold.Chemscore.Metal.Weighted>
-0.0000

> <Gold.Chemscore.Lipo.Weighted>
-10.5726

> <Gold.Chemscore.Internal_Hbond.Weighted>
0.0000

> <Gold.Chemscore.DEClash.Weighted>
0.1627

> <Gold.Chemscore.DEInternal.Weighted>
2.7213

> <Gold.Chemscore.Rot.Weighted>
4.2308

> <Gold.Chemscore.Internal.Correction.Weighted>
   9.000000E+99

> <Gold.Protein.RotatedTorsions>
[ 6907 6896 6895 6894 ] final  -70.38 input  -60.11 | X-H torsion
[ 7974 7965 7964 7962 ] final   63.70 input  175.53 | X-H torsion
[ 8008 7997 7996 7995 ] final   84.01 input   59.86 | X-H torsion
[ 10167 10162 10161 10158 ] final  -91.94 input  -65.29 | X-H torsion
[ 10718 10713 10712 10709 ] final    3.55 input   66.30 | X-H torsion
[ 10763 10752 10751 10750 ] final   32.39 input  -60.55 | X-H torsion
[ 11005 11000 10999 10996 ] final  -52.70 input  -57.11 | X-H torsion

> <Gold.Protein.ActiveResidues>
 VAL166  LYS551  ARG553  GLY616  TRP617  ASP618  TYR619  PRO620  LYS621  CYS622 
 ASP623  PHE694  ASN695  SER759  ASP760  ASP761  ALA762  ILE779  LEU786  VAL792 
 PHE793  MET794  SER795  GLU796  ALA797  LYS798  CYS799  TRP800  GLU811  SER814 

> <Gold.Protein.RotatedAtoms>
  150.7260  134.5462  159.5771 H   0  0  0  0  0  0  0  0  0  0  0  0  # atno 6907 bound_to 6896
  152.2960  134.7663  160.0377 H   0  0  0  0  0  0  0  0  0  0  0  0  # atno 6908 bound_to 6896
  151.8260  133.3366  159.3635 H   0  0  0  0  0  0  0  0  0  0  0  0  # atno 6909 bound_to 6896
  145.8588  139.3301  143.0831 H   0  0  0  0  0  0  0  0  0  0  0  0  # atno 7974 bound_to 7965
  155.9314  140.3414  155.6252 H   0  0  0  0  0  0  0  0  0  0  0  0  # atno 8008 bound_to 7997
  155.7153  140.0777  157.2372 H   0  0  0  0  0  0  0  0  0  0  0  0  # atno 8009 bound_to 7997
  154.4086  140.1615  156.2329 H   0  0  0  0  0  0  0  0  0  0  0  0  # atno 8010 bound_to 7997
  140.3399  143.2948  151.9847 H   0  0  0  0  0  0  0  0  0  0  0  0  # atno 10167 bound_to 10162
  156.8795  130.5648  149.5653 H   0  0  0  0  0  0  0  0  0  0  0  0  # atno 10718 bound_to 10713
  153.0265  135.6414  154.1347 H   0  0  0  0  0  0  0  0  0  0  0  0  # atno 10763 bound_to 10752
  154.1075  135.2855  155.3239 H   0  0  0  0  0  0  0  0  0  0  0  0  # atno 10764 bound_to 10752
  154.6355  135.5478  153.7792 H   0  0  0  0  0  0  0  0  0  0  0  0  # atno 10765 bound_to 10752
  141.0938  133.6628  156.4063 H   0  0  0  0  0  0  0  0  0  0  0  0  # atno 11005 bound_to 11000
  145.9272  140.9074  143.0375 LP  0  0  0  0  0  0  0  0  0  0  0  0  # atno 17320 bound_to 7965
  144.6727  140.1369  143.7440 LP  0  0  0  0  0  0  0  0  0  0  0  0  # atno 17321 bound_to 7965
  139.4842  144.6166  151.7335 LP  0  0  0  0  0  0  0  0  0  0  0  0  # atno 17342 bound_to 10162
  140.5319  144.0717  150.6056 LP  0  0  0  0  0  0  0  0  0  0  0  0  # atno 17343 bound_to 10162
  156.0685  130.5723  150.9336 LP  0  0  0  0  0  0  0  0  0  0  0  0  # atno 17370 bound_to 10713
  157.6149  131.0934  150.8729 LP  0  0  0  0  0  0  0  0  0  0  0  0  # atno 17371 bound_to 10713
  140.5189  134.6323  157.5311 LP  0  0  0  0  0  0  0  0  0  0  0  0  # atno 17394 bound_to 11000
  139.9770  134.7200  155.9931 LP  0  0  0  0  0  0  0  0  0  0  0  0  # atno 17395 bound_to 11000

$$$$
