AV-unprocessed.smi:3232|AV-procd|sdf|12344|dock8
  -GOLD-   2272018203D 1   1.00000     0.00000
 Structure written by MMmdl.
 40 41  0  0  0  0  0  0  0  0  2 V2000
  145.1836  131.0545  150.9401 C   0  0  0  0  0  0  0  0  0  0  0  0
  145.8480  131.8630  149.8183 C   0  0  0  0  0  0  0  0  0  0  0  0
  145.5300  133.3090  149.9154 N   0  3  1  0  0  0  0  0  0  0  0  0
  144.1013  133.6364  150.1350 C   0  0  0  0  0  0  0  0  0  0  0  0
  144.0693  134.9606  150.9110 C   0  0  0  0  0  0  0  0  0  0  0  0
  145.5259  135.4178  150.9652 C   0  0  0  0  0  0  0  0  0  0  0  0
  146.3243  134.1110  150.8785 C   0  0  1  0  0  0  0  0  0  0  0  0
  146.5114  133.4059  152.2477 C   0  0  0  0  0  0  0  0  0  0  0  0
  147.6799  133.8977  152.9716 N   0  0  0  0  0  0  0  0  0  0  0  0
  148.2536  133.2941  154.0260 C   0  0  0  0  0  0  0  0  0  0  0  0
  147.8142  132.2564  154.5231 O   0  0  0  0  0  0  0  0  0  0  0  0
  149.5015  133.9801  154.6086 C   0  0  1  0  0  0  0  0  0  0  0  0
  149.2513  135.4478  155.0116 C   0  0  0  0  0  0  0  0  0  0  0  0
  150.0483  133.2015  155.7138 N   0  0  0  0  0  0  0  0  0  0  0  0
  150.3464  133.5725  156.9608 C   0  0  0  0  0  0  0  0  0  0  0  0
  150.8711  132.6056  157.6998 N   0  0  0  0  0  0  0  0  0  0  0  0
  150.8737  131.5934  156.7825 C   0  0  0  0  0  0  0  0  0  0  0  0
  150.4006  131.8991  155.5745 N   0  0  0  0  0  0  0  0  0  0  0  0
  145.3897  129.9904  150.8224 H   0  0  0  0  0  0  0  0  0  0  0  0
  144.1010  131.1846  150.9327 H   0  0  0  0  0  0  0  0  0  0  0  0
  145.5517  131.3520  151.9224 H   0  0  0  0  0  0  0  0  0  0  0  0
  146.9275  131.7080  149.8368 H   0  0  0  0  0  0  0  0  0  0  0  0
  145.4876  131.4875  148.8597 H   0  0  0  0  0  0  0  0  0  0  0  0
  143.5901  133.7189  149.1754 H   0  0  0  0  0  0  0  0  0  0  0  0
  143.6041  132.8554  150.7126 H   0  0  0  0  0  0  0  0  0  0  0  0
  143.4226  135.7035  150.4429 H   0  0  0  0  0  0  0  0  0  0  0  0
  143.6973  134.7885  151.9219 H   0  0  0  0  0  0  0  0  0  0  0  0
  145.7420  136.0298  150.0882 H   0  0  0  0  0  0  0  0  0  0  0  0
  145.7470  136.0278  151.8401 H   0  0  0  0  0  0  0  0  0  0  0  0
  147.3089  134.3038  150.4501 H   0  0  0  0  0  0  0  0  0  0  0  0
  145.6080  133.4914  152.8540 H   0  0  0  0  0  0  0  0  0  0  0  0
  146.6753  132.3382  152.1028 H   0  0  0  0  0  0  0  0  0  0  0  0
  148.1023  134.7486  152.6292 H   0  0  0  0  0  0  0  0  0  0  0  0
  150.2538  133.9868  153.8183 H   0  0  0  0  0  0  0  0  0  0  0  0
  148.8961  136.0351  154.1641 H   0  0  0  0  0  0  0  0  0  0  0  0
  150.1702  135.9143  155.3677 H   0  0  0  0  0  0  0  0  0  0  0  0
  148.5095  135.5328  155.8069 H   0  0  0  0  0  0  0  0  0  0  0  0
  150.1807  134.5721  157.3348 H   0  0  0  0  0  0  0  0  0  0  0  0
  151.2411  130.6034  157.0099 H   0  0  0  0  0  0  0  0  0  0  0  0
  145.7559  133.7053  149.0141 H   0  0  0  0  0  0  0  0  0  0  0  0
  1  2  1  0  0  0  0
  1 19  1  0  0  0  0
  1 20  1  0  0  0  0
  1 21  1  0  0  0  0
  2  3  1  0  0  0  0
  2 22  1  0  0  0  0
  2 23  1  0  0  0  0
  3  7  1  0  0  0  0
  3  4  1  0  0  0  0
  3 40  1  0  0  0  0
  4  5  1  0  0  0  0
  4 24  1  0  0  0  0
  4 25  1  0  0  0  0
  5  6  1  0  0  0  0
  5 26  1  0  0  0  0
  5 27  1  0  0  0  0
  6  7  1  0  0  0  0
  6 28  1  0  0  0  0
  6 29  1  0  0  0  0
  7  8  1  0  0  0  0
  7 30  1  0  0  0  0
  8  9  1  0  0  0  0
  8 31  1  0  0  0  0
  8 32  1  0  0  0  0
  9 10  1  0  0  0  0
  9 33  1  0  0  0  0
 10 11  2  0  0  0  0
 10 12  1  0  0  0  0
 12 13  1  0  0  0  0
 12 14  1  0  0  0  0
 12 34  1  0  0  0  0
 13 35  1  0  0  0  0
 13 36  1  0  0  0  0
 13 37  1  0  0  0  0
 14 18  1  0  0  0  0
 14 15  1  0  0  0  0
 15 16  2  0  0  0  0
 15 38  1  0  0  0  0
 16 17  1  0  0  0  0
 17 18  2  0  0  0  0
 17 39  1  0  0  0  0
M  CHG  1   3   1
M  END
> <s_m_source_file>
AV-unprocessed.smi

> <i_m_source_file_index>
3232

> <i_lp_mmshare_version>
43012

> <i_f3d_flags>
0

> <s_epik_input>
W0NIM11bQ0gyXU4xW0NIMl1bQ0gyXVtDSDJdW0NASF0xW0NIMl1bTkhdQyg9TylbQ0BIXShbQ0gzXSluMltjSF1uW2NIXW4y

> <s_epik_cmdline>
J2VwaWtfcHl0aG9uJywgJy1waCcsICc3LjAnLCAnLXRuJywgJzgnLCAnLW1hJywgJzIwMCcsICctbWV0YWxfYmluZGluZycsICctaW1hZScsICc8aW5maWxlLm1hZT4nLCAnLW9tYWUnLCAnPG91dGZpbGUubWFlPic=

> <r_lp_tautomer_probability>
1

> <r_epik_Ionization_Penalty>
0.00177695

> <r_epik_Ionization_Penalty_Charging>
0.00176881

> <r_epik_Ionization_Penalty_Neutral>
8.13528e-06

> <r_epik_State_Penalty>
0.00119827

> <r_epik_Charging_Adjusted_Penalty>
0.00296709

> <i_epik_Tot_Q>
1

> <i_epik_Tot_abs_Q>
1

> <r_epik_Metal_State_Penalty>
-0

> <b_epik_Metal_Only>
0

> <s_lp_Force_Field>
OPLS_2005

> <r_lp_Energy>
36.9304

> <b_lp_Chiralities_Consistent>
1

> <s_lp_Variant>
AV-unprocessed.smi:3232-6

> <Gold.Version>
5.8.1

> <Gold.Id.Protein>
6NUR|6NUR_protein|mol2

> <Gold.PLP.Fitness>
40.7884

> <Gold.PLP.PLP>
-32.7894

> <Gold.PLP.part.hbond>
-3.0000

> <Gold.PLP.part.metal>
0.0000

> <Gold.PLP.part.buried>
-4.6521

> <Gold.PLP.part.nonpolar>
-25.5152

> <Gold.PLP.part.repulsive>
0.1485

> <Gold.PLP.ligand.clash>
0.0000

> <Gold.PLP.ligand.torsion>
0.5738

> <Gold.PLP.Chemscore.Hbond>
3.0000

> <Gold.PLP.Chemscore.CHOScore>
0.0000

> <Gold.PLP.Chemscore.Metal>
0.0000

> <Gold.Chemscore.Hbonds>
donor molecule, donor type, donor heavy atom, donor atom, acceptor molecule, acceptor atom, score
      L1  H     3    40       P1  7921  0.90
      L1  H     9    33       P1  7948  1.00
      P1  H  6896  6908       L1    16  0.98

> <Gold.PLP.Chemscore.Internal.Correction>
0.1465

> <Gold.Rescore>
     Score         DG    S(hbond)    S(metal)    S(lipo)     H(rot)  DE(clash)    DE(int)     intcor
     11.98     -14.13       2.43        0.00      59.12       2.49       0.01       2.15       ----

> <Gold.Chemscore.Fitness>
11.9812

> <Gold.Chemscore.DG>
-14.1337

> <Gold.Chemscore.ZeroCoef>
-5.4800

> <Gold.Chemscore.Hbond>
2.4270

> <Gold.Chemscore.Metal>
0.0000

> <Gold.Chemscore.Lipo>
59.1211

> <Gold.Chemscore.Internal_Hbond>
0.0000

> <Gold.Chemscore.DEClash>
0.0060

> <Gold.Chemscore.DEInternal>
2.1464

> <Gold.Chemscore.Rot>
2.4882

> <Gold.Chemscore.Internal.Correction>
   9.000000E+99

> <Gold.Chemscore.Hbonds>
donor molecule, donor type, donor heavy atom, donor atom, acceptor molecule, acceptor atom, score
      L1  H     3    40       P1  7921  0.18
      L1  H     9    33       P1  7948  0.65
      P1  H  6896  6908       L1    16  0.65

> <Gold.Chemscore.Hbond.Weighted>
-8.1063

> <Gold.Chemscore.Metal.Weighted>
-0.0000

> <Gold.Chemscore.Lipo.Weighted>
-6.9172

> <Gold.Chemscore.Internal_Hbond.Weighted>
0.0000

> <Gold.Chemscore.DEClash.Weighted>
0.0060

> <Gold.Chemscore.DEInternal.Weighted>
2.1464

> <Gold.Chemscore.Rot.Weighted>
6.3697

> <Gold.Chemscore.Internal.Correction.Weighted>
   9.000000E+99

> <Gold.Protein.RotatedTorsions>
[ 6907 6896 6895 6894 ] final   67.05 input  -60.11 | X-H torsion
[ 7974 7965 7964 7962 ] final  -96.81 input  175.53 | X-H torsion
[ 8008 7997 7996 7995 ] final  -53.31 input   59.86 | X-H torsion
[ 10167 10162 10161 10158 ] final  -59.91 input  -65.29 | X-H torsion
[ 10718 10713 10712 10709 ] final  -83.35 input   66.30 | X-H torsion
[ 10763 10752 10751 10750 ] final  126.92 input  -60.55 | X-H torsion
[ 11005 11000 10999 10996 ] final  -28.31 input  -57.11 | X-H torsion

> <Gold.Protein.ActiveResidues>
 VAL166  LYS551  ARG553  GLY616  TRP617  ASP618  TYR619  PRO620  LYS621  CYS622 
 ASP623  PHE694  ASN695  SER759  ASP760  ASP761  ALA762  ILE779  LEU786  VAL792 
 PHE793  MET794  SER795  GLU796  ALA797  LYS798  CYS799  TRP800  GLU811  SER814 

> <Gold.Protein.RotatedAtoms>
  152.4525  134.5363  159.9825 H   0  0  0  0  0  0  0  0  0  0  0  0  # atno 6907 bound_to 6896
  151.5432  133.3423  159.2947 H   0  0  0  0  0  0  0  0  0  0  0  0  # atno 6908 bound_to 6896
  150.8458  134.7798  159.7032 H   0  0  0  0  0  0  0  0  0  0  0  0  # atno 6909 bound_to 6896
  145.3419  140.9461  143.2603 H   0  0  0  0  0  0  0  0  0  0  0  0  # atno 7974 bound_to 7965
  154.4130  140.1203  156.5133 H   0  0  0  0  0  0  0  0  0  0  0  0  # atno 8008 bound_to 7997
  155.6777  140.3496  155.4823 H   0  0  0  0  0  0  0  0  0  0  0  0  # atno 8009 bound_to 7997
  155.9579  140.1117  157.0911 H   0  0  0  0  0  0  0  0  0  0  0  0  # atno 8010 bound_to 7997
  140.6105  143.2386  151.5721 H   0  0  0  0  0  0  0  0  0  0  0  0  # atno 10167 bound_to 10162
  156.0019  130.4663  150.4244 H   0  0  0  0  0  0  0  0  0  0  0  0  # atno 10718 bound_to 10713
  153.7011  135.3283  155.3225 H   0  0  0  0  0  0  0  0  0  0  0  0  # atno 10763 bound_to 10752
  154.8413  135.4454  154.1410 H   0  0  0  0  0  0  0  0  0  0  0  0  # atno 10764 bound_to 10752
  153.2478  135.6978  153.7791 H   0  0  0  0  0  0  0  0  0  0  0  0  # atno 10765 bound_to 10752
  140.9197  133.7407  156.0784 H   0  0  0  0  0  0  0  0  0  0  0  0  # atno 11005 bound_to 11000
  144.8783  139.4939  143.6735 LP  0  0  0  0  0  0  0  0  0  0  0  0  # atno 17320 bound_to 7965
  146.3004  139.7407  142.9096 LP  0  0  0  0  0  0  0  0  0  0  0  0  # atno 17321 bound_to 7965
  139.5357  144.2787  152.1246 LP  0  0  0  0  0  0  0  0  0  0  0  0  # atno 17342 bound_to 10162
  140.1985  144.4681  150.6443 LP  0  0  0  0  0  0  0  0  0  0  0  0  # atno 17343 bound_to 10162
  157.2298  131.0501  151.2499 LP  0  0  0  0  0  0  0  0  0  0  0  0  # atno 17370 bound_to 10713
  157.3722  130.7187  149.6572 LP  0  0  0  0  0  0  0  0  0  0  0  0  # atno 17371 bound_to 10713
  140.8004  134.3516  157.5441 LP  0  0  0  0  0  0  0  0  0  0  0  0  # atno 17394 bound_to 11000
  139.8773  134.9194  156.3226 LP  0  0  0  0  0  0  0  0  0  0  0  0  # atno 17395 bound_to 11000

$$$$
