AV-unprocessed.smi:3213|AV-procd|sdf|12282|dock4
  -GOLD-   2272018123D 1   1.00000     0.00000
 Structure written by MMmdl.
 35 35  0  0  0  0  0  0  0  0  1 V2000
  152.5304  143.2836  160.1437 C   0  0  0  0  0  0  0  0  0  0  0  0
  151.7456  143.8581  158.9510 C   0  0  0  0  0  0  0  0  0  0  0  0
  150.2954  144.1428  159.3971 C   0  0  0  0  0  0  0  0  0  0  0  0
  152.4334  145.1552  158.4762 C   0  0  0  0  0  0  0  0  0  0  0  0
  151.7762  142.8425  157.8914 N   0  0  0  0  0  0  0  0  0  0  0  0
  151.0705  141.7005  157.8051 C   0  0  0  0  0  0  0  0  0  0  0  0
  150.2629  141.3256  158.6558 O   0  0  0  0  0  0  0  0  0  0  0  0
  151.3266  140.8462  156.5598 C   0  0  0  0  0  0  0  0  0  0  0  0
  150.1970  140.8706  155.6466 N   0  0  0  0  0  0  0  0  0  0  0  0
  149.0421  141.6195  155.7329 C   0  0  0  0  0  0  0  0  0  0  0  0
  148.2714  141.3137  154.6471 C   0  0  0  0  0  0  0  0  0  0  0  0
  146.9202  141.8540  154.2708 C   0  0  0  0  0  0  0  0  0  0  0  0
  145.9551  141.8399  155.4633 C   0  0  0  0  0  0  0  0  0  0  0  0
  144.6225  141.7942  155.0006 O   0  0  0  0  0  0  0  0  0  0  0  0
  149.0556  140.3544  153.9449 C   0  0  0  0  0  0  0  0  0  0  0  0
  150.2050  140.0905  154.5443 N   0  0  0  0  0  0  0  0  0  0  0  0
  152.5527  143.9841  160.9793 H   0  0  0  0  0  0  0  0  0  0  0  0
  153.5642  143.0657  159.8727 H   0  0  0  0  0  0  0  0  0  0  0  0
  152.0831  142.3571  160.5060 H   0  0  0  0  0  0  0  0  0  0  0  0
  149.7825  143.2262  159.6908 H   0  0  0  0  0  0  0  0  0  0  0  0
  149.7067  144.6124  158.6092 H   0  0  0  0  0  0  0  0  0  0  0  0
  150.2745  144.8178  160.2532 H   0  0  0  0  0  0  0  0  0  0  0  0
  152.4908  145.8865  159.2832 H   0  0  0  0  0  0  0  0  0  0  0  0
  151.8958  145.6278  157.6543 H   0  0  0  0  0  0  0  0  0  0  0  0
  153.4516  144.9624  158.1361 H   0  0  0  0  0  0  0  0  0  0  0  0
  152.4067  143.0371  157.1271 H   0  0  0  0  0  0  0  0  0  0  0  0
  152.2185  141.1873  156.0309 H   0  0  0  0  0  0  0  0  0  0  0  0
  151.5091  139.8154  156.8648 H   0  0  0  0  0  0  0  0  0  0  0  0
  148.8679  142.3028  156.5513 H   0  0  0  0  0  0  0  0  0  0  0  0
  147.0116  142.8732  153.8930 H   0  0  0  0  0  0  0  0  0  0  0  0
  146.4909  141.2724  153.4539 H   0  0  0  0  0  0  0  0  0  0  0  0
  146.1409  140.9736  156.0990 H   0  0  0  0  0  0  0  0  0  0  0  0
  146.0873  142.7315  156.0772 H   0  0  0  0  0  0  0  0  0  0  0  0
  144.5828  141.2151  154.2549 H   0  0  0  0  0  0  0  0  0  0  0  0
  148.8236  139.8456  153.0207 H   0  0  0  0  0  0  0  0  0  0  0  0
  1  2  1  0  0  0  0
  1 17  1  0  0  0  0
  1 18  1  0  0  0  0
  1 19  1  0  0  0  0
  2  3  1  0  0  0  0
  2  4  1  0  0  0  0
  2  5  1  0  0  0  0
  3 20  1  0  0  0  0
  3 21  1  0  0  0  0
  3 22  1  0  0  0  0
  4 23  1  0  0  0  0
  4 24  1  0  0  0  0
  4 25  1  0  0  0  0
  5  6  1  0  0  0  0
  5 26  1  0  0  0  0
  6  7  2  0  0  0  0
  6  8  1  0  0  0  0
  8  9  1  0  0  0  0
  8 27  1  0  0  0  0
  8 28  1  0  0  0  0
  9 16  1  0  0  0  0
  9 10  1  0  0  0  0
 10 11  2  0  0  0  0
 10 29  1  0  0  0  0
 11 12  1  0  0  0  0
 11 15  1  0  0  0  0
 12 13  1  0  0  0  0
 12 30  1  0  0  0  0
 12 31  1  0  0  0  0
 13 14  1  0  0  0  0
 13 32  1  0  0  0  0
 13 33  1  0  0  0  0
 14 34  1  0  0  0  0
 15 16  2  0  0  0  0
 15 35  1  0  0  0  0
M  END
> <s_m_source_file>
AV-unprocessed.smi

> <i_m_source_file_index>
3213

> <i_lp_mmshare_version>
43012

> <i_f3d_flags>
0

> <s_epik_input>
W0NIM11DKFtDSDNdKShbQ0gzXSlbTkhdQyg9TylbQ0gyXW4xW2NIXWMoW2NIXW4xKVtDSDJdW0NIMl1bT0hd

> <s_epik_cmdline>
J2VwaWtfcHl0aG9uJywgJy1waCcsICc3LjAnLCAnLXRuJywgJzgnLCAnLW1hJywgJzIwMCcsICctbWV0YWxfYmluZGluZycsICctaW1hZScsICc8aW5maWxlLm1hZT4nLCAnLW9tYWUnLCAnPG91dGZpbGUubWFlPic=

> <r_lp_tautomer_probability>
1

> <r_epik_Ionization_Penalty>
3.05354e-05

> <r_epik_Ionization_Penalty_Charging>
0

> <r_epik_Ionization_Penalty_Neutral>
3.05354e-05

> <r_epik_State_Penalty>
-0

> <r_epik_Charging_Adjusted_Penalty>
0

> <i_epik_Tot_Q>
0

> <i_epik_Tot_abs_Q>
0

> <r_epik_Metal_State_Penalty>
-0

> <b_epik_Metal_Only>
0

> <s_lp_Force_Field>
OPLS_2005

> <r_lp_Energy>
4.97676

> <b_lp_Chiralities_Consistent>
1

> <s_lp_Variant>
AV-unprocessed.smi:3213-1

> <Gold.Version>
5.8.1

> <Gold.Id.Protein>
6NUR|6NUR_protein|mol2

> <Gold.PLP.Fitness>
42.7334

> <Gold.PLP.PLP>
-33.1454

> <Gold.PLP.part.hbond>
-2.6024

> <Gold.PLP.part.metal>
0.0000

> <Gold.PLP.part.buried>
-1.3887

> <Gold.PLP.part.nonpolar>
-30.0986

> <Gold.PLP.part.repulsive>
0.1403

> <Gold.PLP.ligand.clash>
0.0000

> <Gold.PLP.ligand.torsion>
0.7322

> <Gold.PLP.Chemscore.Hbond>
2.0000

> <Gold.PLP.Chemscore.CHOScore>
1.6747

> <Gold.PLP.Chemscore.Metal>
0.0000

> <Gold.Chemscore.Hbonds>
donor molecule, donor type, donor heavy atom, donor atom, acceptor molecule, acceptor atom, score
      L1  H    14    34       P1 10175  0.83
      P1  H  7989  7998       L1    16  1.00
      L1  C    10    29       P1  8028  0.53
      L1  C    15    35       P1  7957  0.99

> <Gold.PLP.Chemscore.Internal.Correction>
0.0282

> <Gold.Rescore>
     Score         DG    S(hbond)    S(metal)    S(lipo)     H(rot)  DE(clash)    DE(int)     intcor
      9.71     -11.37       0.80        0.00      81.71       2.48       0.15       1.51       ----

> <Gold.Chemscore.Fitness>
9.7126

> <Gold.Chemscore.DG>
-11.3684

> <Gold.Chemscore.ZeroCoef>
-5.4800

> <Gold.Chemscore.Hbond>
0.7984

> <Gold.Chemscore.Metal>
0.0000

> <Gold.Chemscore.Lipo>
81.7068

> <Gold.Chemscore.Internal_Hbond>
0.0000

> <Gold.Chemscore.DEClash>
0.1482

> <Gold.Chemscore.DEInternal>
1.5075

> <Gold.Chemscore.Rot>
2.4758

> <Gold.Chemscore.Internal.Correction>
   9.000000E+99

> <Gold.Chemscore.Hbonds>
donor molecule, donor type, donor heavy atom, donor atom, acceptor molecule, acceptor atom, score
      L1  H    14    34       P1 10175  0.54
      P1  H  7989  7998       L1    16  0.25

> <Gold.Chemscore.Hbond.Weighted>
-2.6667

> <Gold.Chemscore.Metal.Weighted>
-0.0000

> <Gold.Chemscore.Lipo.Weighted>
-9.5597

> <Gold.Chemscore.Internal_Hbond.Weighted>
0.0000

> <Gold.Chemscore.DEClash.Weighted>
0.1482

> <Gold.Chemscore.DEInternal.Weighted>
1.5075

> <Gold.Chemscore.Rot.Weighted>
6.3380

> <Gold.Chemscore.Internal.Correction.Weighted>
   9.000000E+99

> <Gold.Protein.RotatedTorsions>
[ 6907 6896 6895 6894 ] final  152.69 input  -60.11 | X-H torsion
[ 7974 7965 7964 7962 ] final   42.86 input  175.53 | X-H torsion
[ 8008 7997 7996 7995 ] final    3.58 input   59.86 | X-H torsion
[ 10167 10162 10161 10158 ] final  147.54 input  -65.29 | X-H torsion
[ 10718 10713 10712 10709 ] final -161.02 input   66.30 | X-H torsion
[ 10763 10752 10751 10750 ] final  -19.53 input  -60.55 | X-H torsion
[ 11005 11000 10999 10996 ] final  128.44 input  -57.11 | X-H torsion

> <Gold.Protein.ActiveResidues>
 VAL166  LYS551  ARG553  GLY616  TRP617  ASP618  TYR619  PRO620  LYS621  CYS622 
 ASP623  PHE694  ASN695  SER759  ASP760  ASP761  ALA762  ILE779  LEU786  VAL792 
 PHE793  MET794  SER795  GLU796  ALA797  LYS798  CYS799  TRP800  GLU811  SER814 

> <Gold.Protein.RotatedAtoms>
  152.0832  133.4163  159.4510 H   0  0  0  0  0  0  0  0  0  0  0  0  # atno 6907 bound_to 6896
  150.6862  134.2958  159.4695 H   0  0  0  0  0  0  0  0  0  0  0  0  # atno 6908 bound_to 6896
  152.0802  134.9476  160.0624 H   0  0  0  0  0  0  0  0  0  0  0  0  # atno 6909 bound_to 6896
  146.0704  139.5252  142.9601 H   0  0  0  0  0  0  0  0  0  0  0  0  # atno 7974 bound_to 7965
  154.7054  140.2681  155.6679 H   0  0  0  0  0  0  0  0  0  0  0  0  # atno 8008 bound_to 7997
  156.2778  140.2764  156.1602 H   0  0  0  0  0  0  0  0  0  0  0  0  # atno 8009 bound_to 7997
  155.0707  140.0372  157.2597 H   0  0  0  0  0  0  0  0  0  0  0  0  # atno 8010 bound_to 7997
  139.4888  144.5747  151.6987 H   0  0  0  0  0  0  0  0  0  0  0  0  # atno 10167 bound_to 10162
  156.5904  130.8767  151.2888 H   0  0  0  0  0  0  0  0  0  0  0  0  # atno 10718 bound_to 10713
  153.6063  135.6998  153.5364 H   0  0  0  0  0  0  0  0  0  0  0  0  # atno 10763 bound_to 10752
  153.3054  135.4116  155.1289 H   0  0  0  0  0  0  0  0  0  0  0  0  # atno 10764 bound_to 10752
  154.8572  135.3659  154.5600 H   0  0  0  0  0  0  0  0  0  0  0  0  # atno 10765 bound_to 10752
  139.9561  134.9612  156.9002 H   0  0  0  0  0  0  0  0  0  0  0  0  # atno 11005 bound_to 11000
  145.6401  141.0286  143.1816 LP  0  0  0  0  0  0  0  0  0  0  0  0  # atno 17320 bound_to 7965
  144.7228  139.7973  143.7376 LP  0  0  0  0  0  0  0  0  0  0  0  0  # atno 17321 bound_to 7965
  140.5341  144.0683  150.6064 LP  0  0  0  0  0  0  0  0  0  0  0  0  # atno 17342 bound_to 10162
  140.3683  143.2869  152.0307 LP  0  0  0  0  0  0  0  0  0  0  0  0  # atno 17343 bound_to 10162
  157.7305  130.9686  150.1836 LP  0  0  0  0  0  0  0  0  0  0  0  0  # atno 17370 bound_to 10713
  156.2555  130.3705  149.8186 LP  0  0  0  0  0  0  0  0  0  0  0  0  # atno 17371 bound_to 10713
  140.5607  134.0538  155.7398 LP  0  0  0  0  0  0  0  0  0  0  0  0  # atno 17394 bound_to 11000
  141.1232  133.9426  157.2688 LP  0  0  0  0  0  0  0  0  0  0  0  0  # atno 17395 bound_to 11000

$$$$
