AV-unprocessed.smi:911|AV-procd|sdf|4138|dock1
  -GOLD-   22720 2 43D 1   1.00000     0.00000
 Structure written by MMmdl.
 47 49  0  0  0  0  0  0  0  0  3 V2000
  149.1193  140.6469  157.4015 C   0  0  0  0  0  0  0  0  0  0  0  0
  150.0917  140.2779  156.2451 C   0  0  0  0  0  0  0  0  0  0  0  0
  150.1015  141.5222  155.3129 C   0  0  0  0  0  0  0  0  0  0  0  0
  151.4896  139.8235  156.7111 C   0  0  2  0  0  0  0  0  0  0  0  0
  152.1969  139.4219  155.3965 C   0  0  0  0  0  0  0  0  0  0  0  0
  151.0456  138.8114  154.5699 C   0  0  0  0  0  0  0  0  0  0  0  0
  149.8367  138.9179  155.5353 C   0  0  2  0  0  0  0  0  0  0  0  0
  148.4860  138.7846  154.8043 C   0  0  0  0  0  0  0  0  0  0  0  0
  150.1100  137.8443  156.6358 C   0  0  2  0  0  0  0  0  0  0  0  0
  148.9260  137.5173  157.4250 N   0  0  0  0  0  0  0  0  0  0  0  0
  148.8874  136.9243  158.6296 C   0  0  0  0  0  0  0  0  0  0  0  0
  149.8968  136.6283  159.2673 O   0  0  0  0  0  0  0  0  0  0  0  0
  147.5034  136.5766  159.2059 C   0  0  0  0  0  0  0  0  0  0  0  0
  147.5434  135.6698  160.3688 N   0  0  0  0  0  0  0  0  0  0  0  0
  147.6941  134.2965  160.0922 C   0  0  0  0  0  0  0  0  0  0  0  0
  147.6896  133.3648  161.0649 C   0  0  0  0  0  0  0  0  0  0  0  0
  147.8094  131.9571  160.7571 N   0  3  0  0  0  0  0  0  0  0  0  0
  147.4551  131.1387  161.5994 O   0  0  0  0  0  0  0  0  0  0  0  0
  148.2561  131.6231  159.6637 O   0  5  0  0  0  0  0  0  0  0  0  0
  147.5375  133.8200  162.4330 C   0  0  0  0  0  0  0  0  0  0  0  0
  147.3884  135.1316  162.7043 C   0  0  0  0  0  0  0  0  0  0  0  0
  147.3738  136.1423  161.6416 C   0  0  0  0  0  0  0  0  0  0  0  0
  147.2063  137.3378  161.8807 O   0  0  0  0  0  0  0  0  0  0  0  0
  151.2134  138.5139  157.4849 C   0  0  0  0  0  0  0  0  0  0  0  0
  149.4181  141.5854  157.8691 H   0  0  0  0  0  0  0  0  0  0  0  0
  149.0581  139.9231  158.2090 H   0  0  0  0  0  0  0  0  0  0  0  0
  148.1051  140.7875  157.0267 H   0  0  0  0  0  0  0  0  0  0  0  0
  150.7349  141.4379  154.4327 H   0  0  0  0  0  0  0  0  0  0  0  0
  150.4459  142.4042  155.8539 H   0  0  0  0  0  0  0  0  0  0  0  0
  149.0966  141.7419  154.9509 H   0  0  0  0  0  0  0  0  0  0  0  0
  152.0435  140.5607  157.2932 H   0  0  0  0  0  0  0  0  0  0  0  0
  152.6316  140.2855  154.8928 H   0  0  0  0  0  0  0  0  0  0  0  0
  153.0051  138.7088  155.5630 H   0  0  0  0  0  0  0  0  0  0  0  0
  150.8829  139.3731  153.6498 H   0  0  0  0  0  0  0  0  0  0  0  0
  151.2561  137.7845  154.2691 H   0  0  0  0  0  0  0  0  0  0  0  0
  148.3829  137.7963  154.3559 H   0  0  0  0  0  0  0  0  0  0  0  0
  148.3945  139.5193  154.0046 H   0  0  0  0  0  0  0  0  0  0  0  0
  147.6423  138.9318  155.4786 H   0  0  0  0  0  0  0  0  0  0  0  0
  150.5016  136.9276  156.1911 H   0  0  0  0  0  0  0  0  0  0  0  0
  148.0396  137.7232  156.9880 H   0  0  0  0  0  0  0  0  0  0  0  0
  147.0100  137.5076  159.4889 H   0  0  0  0  0  0  0  0  0  0  0  0
  146.8885  136.1651  158.4040 H   0  0  0  0  0  0  0  0  0  0  0  0
  147.7878  134.0615  159.0415 H   0  0  0  0  0  0  0  0  0  0  0  0
  147.5417  133.1131  163.2497 H   0  0  0  0  0  0  0  0  0  0  0  0
  147.2750  135.4485  163.7308 H   0  0  0  0  0  0  0  0  0  0  0  0
  152.1027  137.8872  157.5629 H   0  0  0  0  0  0  0  0  0  0  0  0
  150.8859  138.7161  158.5052 H   0  0  0  0  0  0  0  0  0  0  0  0
  1  2  1  0  0  0  0
  1 25  1  0  0  0  0
  1 26  1  0  0  0  0
  1 27  1  0  0  0  0
  2  7  1  0  0  0  0
  2  3  1  0  0  0  0
  2  4  1  0  0  0  0
  3 28  1  0  0  0  0
  3 29  1  0  0  0  0
  3 30  1  0  0  0  0
  4 24  1  0  0  0  0
  4  5  1  0  0  0  0
  4 31  1  0  0  0  0
  5  6  1  0  0  0  0
  5 32  1  0  0  0  0
  5 33  1  0  0  0  0
  6  7  1  0  0  0  0
  6 34  1  0  0  0  0
  6 35  1  0  0  0  0
  7  8  1  0  0  0  0
  7  9  1  0  0  0  0
  8 36  1  0  0  0  0
  8 37  1  0  0  0  0
  8 38  1  0  0  0  0
  9 10  1  0  0  0  0
  9 24  1  0  0  0  0
  9 39  1  0  0  0  0
 10 11  1  0  0  0  0
 10 40  1  0  0  0  0
 11 12  2  0  0  0  0
 11 13  1  0  0  0  0
 13 14  1  0  0  0  0
 13 41  1  0  0  0  0
 13 42  1  0  0  0  0
 14 22  1  0  0  0  0
 14 15  1  0  0  0  0
 15 16  2  0  0  0  0
 15 43  1  0  0  0  0
 16 17  1  0  0  0  0
 16 20  1  0  0  0  0
 17 18  2  0  0  0  0
 17 19  1  0  0  0  0
 20 21  2  0  0  0  0
 20 44  1  0  0  0  0
 21 22  1  0  0  0  0
 21 45  1  0  0  0  0
 22 23  2  0  0  0  0
 24 46  1  0  0  0  0
 24 47  1  0  0  0  0
M  CHG  1  17   1
M  CHG  1  19  -1
M  END
> <s_m_source_file>
AV-unprocessed.smi

> <i_m_source_file_index>
911

> <i_lp_mmshare_version>
43012

> <i_f3d_flags>
0

> <s_epik_input>
W0NIM11bQ0BdMTJDKFtDSDNdKShbQ0gzXSlbQ0BIXShbQ0gyXVtDSDJdMSlbQ0gyXVtDQEBIXTJbTkhdQyg9TylbQ0gyXW4zW2NIXWMoW04rXSg9TylbTy1dKVtjSF1bY0hdYzM9Tw==

> <s_epik_cmdline>
J2VwaWtfcHl0aG9uJywgJy1waCcsICc3LjAnLCAnLXRuJywgJzgnLCAnLW1hJywgJzIwMCcsICctbWV0YWxfYmluZGluZycsICctaW1hZScsICc8aW5maWxlLm1hZT4nLCAnLW9tYWUnLCAnPG91dGZpbGUubWFlPic=

> <r_lp_tautomer_probability>
1

> <r_epik_Ionization_Penalty>
2.04092e-08

> <r_epik_Ionization_Penalty_Charging>
8.54191e-11

> <r_epik_Ionization_Penalty_Neutral>
2.03238e-08

> <r_epik_State_Penalty>
-0

> <r_epik_Charging_Adjusted_Penalty>
8.54191e-11

> <i_epik_Tot_Q>
0

> <i_epik_Tot_abs_Q>
2

> <r_epik_Metal_State_Penalty>
-0

> <b_epik_Metal_Only>
0

> <s_lp_Force_Field>
OPLS_2005

> <r_lp_Energy>
66.6033

> <b_lp_Chiralities_Consistent>
1

> <s_lp_Variant>
AV-unprocessed.smi:911-3

> <Gold.Version>
5.8.1

> <Gold.Id.Protein>
6NUR|6NUR_protein|mol2

> <Gold.PLP.Fitness>
44.2940

> <Gold.PLP.PLP>
-38.0117

> <Gold.PLP.part.hbond>
-3.0000

> <Gold.PLP.part.metal>
0.0000

> <Gold.PLP.part.buried>
-4.7225

> <Gold.PLP.part.nonpolar>
-30.3538

> <Gold.PLP.part.repulsive>
0.0231

> <Gold.PLP.ligand.clash>
0.0000

> <Gold.PLP.ligand.torsion>
0.7609

> <Gold.PLP.Chemscore.Hbond>
2.5840

> <Gold.PLP.Chemscore.CHOScore>
0.0000

> <Gold.PLP.Chemscore.Metal>
0.0000

> <Gold.Chemscore.Hbonds>
donor molecule, donor type, donor heavy atom, donor atom, acceptor molecule, acceptor atom, score
      P1  H  6896  6907       L1    12  1.00
      P1  H  6931  6943       L1    23  0.78
      P1  H  6934  6947       L1    23  0.78

> <Gold.PLP.Chemscore.Internal.Correction>
0.0521

> <Gold.Rescore>
     Score         DG    S(hbond)    S(metal)    S(lipo)     H(rot)  DE(clash)    DE(int)     intcor
     18.08     -20.18       2.60        0.00      84.77       1.53       0.18       1.92       ----

> <Gold.Chemscore.Fitness>
18.0817

> <Gold.Chemscore.DG>
-20.1765

> <Gold.Chemscore.ZeroCoef>
-5.4800

> <Gold.Chemscore.Hbond>
2.6015

> <Gold.Chemscore.Metal>
0.0000

> <Gold.Chemscore.Lipo>
84.7733

> <Gold.Chemscore.Internal_Hbond>
0.0000

> <Gold.Chemscore.DEClash>
0.1769

> <Gold.Chemscore.DEInternal>
1.9180

> <Gold.Chemscore.Rot>
1.5277

> <Gold.Chemscore.Internal.Correction>
   9.000000E+99

> <Gold.Chemscore.Hbonds>
donor molecule, donor type, donor heavy atom, donor atom, acceptor molecule, acceptor atom, score
      P1  H  6896  6907       L1    12  0.93
      P1  H  6931  6943       L1    23  0.50
      P1  H  6934  6947       L1    23  0.77

> <Gold.Chemscore.Hbond.Weighted>
-8.6891

> <Gold.Chemscore.Metal.Weighted>
-0.0000

> <Gold.Chemscore.Lipo.Weighted>
-9.9185

> <Gold.Chemscore.Internal_Hbond.Weighted>
0.0000

> <Gold.Chemscore.DEClash.Weighted>
0.1769

> <Gold.Chemscore.DEInternal.Weighted>
1.9180

> <Gold.Chemscore.Rot.Weighted>
3.9110

> <Gold.Chemscore.Internal.Correction.Weighted>
   9.000000E+99

> <Gold.Protein.RotatedTorsions>
[ 6907 6896 6895 6894 ] final  -45.71 input  -60.11 | X-H torsion
[ 7974 7965 7964 7962 ] final -144.25 input  175.53 | X-H torsion
[ 8008 7997 7996 7995 ] final  163.19 input   59.86 | X-H torsion
[ 10167 10162 10161 10158 ] final -101.31 input  -65.29 | X-H torsion
[ 10718 10713 10712 10709 ] final  125.84 input   66.30 | X-H torsion
[ 10763 10752 10751 10750 ] final  131.80 input  -60.55 | X-H torsion
[ 11005 11000 10999 10996 ] final   49.47 input  -57.11 | X-H torsion

> <Gold.Protein.ActiveResidues>
 VAL166  LYS551  ARG553  GLY616  TRP617  ASP618  TYR619  PRO620  LYS621  CYS622 
 ASP623  PHE694  ASN695  SER759  ASP760  ASP761  ALA762  ILE779  LEU786  VAL792 
 PHE793  MET794  SER795  GLU796  ALA797  LYS798  CYS799  TRP800  GLU811  SER814 

> <Gold.Protein.RotatedAtoms>
  150.9190  134.8608  159.7476 H   0  0  0  0  0  0  0  0  0  0  0  0  # atno 6907 bound_to 6896
  152.4983  134.4246  159.9502 H   0  0  0  0  0  0  0  0  0  0  0  0  # atno 6908 bound_to 6896
  151.4281  133.3638  159.2800 H   0  0  0  0  0  0  0  0  0  0  0  0  # atno 6909 bound_to 6896
  144.8311  140.5733  143.5515 H   0  0  0  0  0  0  0  0  0  0  0  0  # atno 7974 bound_to 7965
  156.1975  140.1730  156.7967 H   0  0  0  0  0  0  0  0  0  0  0  0  # atno 8008 bound_to 7997
  154.5549  140.0710  156.8758 H   0  0  0  0  0  0  0  0  0  0  0  0  # atno 8009 bound_to 7997
  155.2958  140.3358  155.4252 H   0  0  0  0  0  0  0  0  0  0  0  0  # atno 8010 bound_to 7997
  140.2426  143.3528  152.0787 H   0  0  0  0  0  0  0  0  0  0  0  0  # atno 10167 bound_to 10162
  157.5469  131.1095  150.8767 H   0  0  0  0  0  0  0  0  0  0  0  0  # atno 10718 bound_to 10713
  153.7802  135.3169  155.3364 H   0  0  0  0  0  0  0  0  0  0  0  0  # atno 10763 bound_to 10752
  154.8164  135.4633  154.0659 H   0  0  0  0  0  0  0  0  0  0  0  0  # atno 10764 bound_to 10752
  153.1945  135.6913  153.8395 H   0  0  0  0  0  0  0  0  0  0  0  0  # atno 10765 bound_to 10752
  140.1101  134.4966  155.8685 H   0  0  0  0  0  0  0  0  0  0  0  0  # atno 11005 bound_to 11000
  145.4894  139.1489  143.3718 LP  0  0  0  0  0  0  0  0  0  0  0  0  # atno 17320 bound_to 7965
  146.2613  140.5032  142.8852 LP  0  0  0  0  0  0  0  0  0  0  0  0  # atno 17321 bound_to 7965
  139.5072  144.6828  151.5965 LP  0  0  0  0  0  0  0  0  0  0  0  0  # atno 17342 bound_to 10162
  140.6102  143.9451  150.6447 LP  0  0  0  0  0  0  0  0  0  0  0  0  # atno 17343 bound_to 10162
  156.9303  130.5347  149.5279 LP  0  0  0  0  0  0  0  0  0  0  0  0  # atno 17370 bound_to 10713
  156.0543  130.5607  150.9058 LP  0  0  0  0  0  0  0  0  0  0  0  0  # atno 17371 bound_to 10713
  141.2128  133.6724  156.6688 LP  0  0  0  0  0  0  0  0  0  0  0  0  # atno 17394 bound_to 11000
  140.3103  134.8092  157.4170 LP  0  0  0  0  0  0  0  0  0  0  0  0  # atno 17395 bound_to 11000

$$$$
