AV-unprocessed.smi:1585|AV-procd|sdf|6372|dock1
  -GOLD-   22720 7 03D 1   1.00000     0.00000
 Structure written by MMmdl.
 42 43  0  0  0  0  0  0  0  0  3 V2000
  151.4611  141.2113  157.8083 C   0  0  0  0  0  0  0  0  0  0  0  0
  151.1996  140.3198  156.6428 C   0  0  0  0  0  0  0  0  0  0  0  0
  151.2030  138.9620  156.4923 C   0  0  0  0  0  0  0  0  0  0  0  0
  150.8748  138.7865  155.1203 C   0  0  0  0  0  0  0  0  0  0  0  0
  150.7443  137.6124  154.4833 N   0  5  0  0  0  0  0  0  0  0  0  0
  150.5846  136.4699  155.1885 C   0  0  0  0  0  0  0  0  0  0  0  0
  151.2183  136.1352  156.1919 O   0  0  0  0  0  0  0  0  0  0  0  0
  149.6359  135.6618  154.6960 N   0  0  0  0  0  0  0  0  0  0  0  0
  149.2652  134.3544  155.2266 C   0  0  0  0  0  0  0  0  0  0  0  0
  148.1782  133.6749  154.3672 C   0  0  1  0  0  0  0  0  0  0  0  0
  147.1642  134.6225  154.0942 O   0  0  0  0  0  0  0  0  0  0  0  0
  148.7348  133.2104  153.0068 C   0  0  0  0  0  0  0  0  0  0  0  0
  147.7243  132.4737  152.2051 N   0  3  0  0  0  0  0  0  0  0  0  0
  146.8451  131.6219  153.0472 C   0  0  0  0  0  0  0  0  0  0  0  0
  145.9101  130.7605  152.1814 C   0  0  0  0  0  0  0  0  0  0  0  0
  145.0775  131.6338  151.2341 C   0  0  0  0  0  0  0  0  0  0  0  0
  146.0027  132.5279  150.3984 C   0  0  0  0  0  0  0  0  0  0  0  0
  146.9352  133.3532  151.3010 C   0  0  0  0  0  0  0  0  0  0  0  0
  150.6723  139.9356  154.4975 N   0  0  0  0  0  0  0  0  0  0  0  0
  150.8841  140.9242  155.4659 O   0  0  0  0  0  0  0  0  0  0  0  0
  150.5361  141.4259  158.3437 H   0  0  0  0  0  0  0  0  0  0  0  0
  151.8946  142.1585  157.4856 H   0  0  0  0  0  0  0  0  0  0  0  0
  152.1558  140.7427  158.5057 H   0  0  0  0  0  0  0  0  0  0  0  0
  151.4107  138.2132  157.2418 H   0  0  0  0  0  0  0  0  0  0  0  0
  149.1387  135.9809  153.8772 H   0  0  0  0  0  0  0  0  0  0  0  0
  150.1388  133.7141  155.3628 H   0  0  0  0  0  0  0  0  0  0  0  0
  148.8739  134.5439  156.2264 H   0  0  0  0  0  0  0  0  0  0  0  0
  147.7511  132.8333  154.9126 H   0  0  0  0  0  0  0  0  0  0  0  0
  146.3249  134.1970  154.2000 H   0  0  0  0  0  0  0  0  0  0  0  0
  149.0793  134.0887  152.4579 H   0  0  0  0  0  0  0  0  0  0  0  0
  149.6128  132.5772  153.1440 H   0  0  0  0  0  0  0  0  0  0  0  0
  147.4547  130.9667  153.6709 H   0  0  0  0  0  0  0  0  0  0  0  0
  146.2628  132.2520  153.7214 H   0  0  0  0  0  0  0  0  0  0  0  0
  146.4999  130.0497  151.6008 H   0  0  0  0  0  0  0  0  0  0  0  0
  145.2518  130.1687  152.8182 H   0  0  0  0  0  0  0  0  0  0  0  0
  144.4669  131.0083  150.5824 H   0  0  0  0  0  0  0  0  0  0  0  0
  144.3879  132.2515  151.8112 H   0  0  0  0  0  0  0  0  0  0  0  0
  146.5979  131.9113  149.7234 H   0  0  0  0  0  0  0  0  0  0  0  0
  145.4094  133.1917  149.7687 H   0  0  0  0  0  0  0  0  0  0  0  0
  146.3511  134.0573  151.8957 H   0  0  0  0  0  0  0  0  0  0  0  0
  147.5985  133.9475  150.6734 H   0  0  0  0  0  0  0  0  0  0  0  0
  148.2488  131.8403  151.6178 H   0  0  0  0  0  0  0  0  0  0  0  0
  1  2  1  0  0  0  0
  1 21  1  0  0  0  0
  1 22  1  0  0  0  0
  1 23  1  0  0  0  0
  2 20  1  0  0  0  0
  2  3  2  0  0  0  0
  3  4  1  0  0  0  0
  3 24  1  0  0  0  0
  4  5  1  0  0  0  0
  4 19  2  0  0  0  0
  5  6  1  0  0  0  0
  6  7  2  0  0  0  0
  6  8  1  0  0  0  0
  8  9  1  0  0  0  0
  8 25  1  0  0  0  0
  9 10  1  0  0  0  0
  9 26  1  0  0  0  0
  9 27  1  0  0  0  0
 10 11  1  0  0  0  0
 10 12  1  0  0  0  0
 10 28  1  0  0  0  0
 11 29  1  0  0  0  0
 12 13  1  0  0  0  0
 12 30  1  0  0  0  0
 12 31  1  0  0  0  0
 13 18  1  0  0  0  0
 13 14  1  0  0  0  0
 13 42  1  0  0  0  0
 14 15  1  0  0  0  0
 14 32  1  0  0  0  0
 14 33  1  0  0  0  0
 15 16  1  0  0  0  0
 15 34  1  0  0  0  0
 15 35  1  0  0  0  0
 16 17  1  0  0  0  0
 16 36  1  0  0  0  0
 16 37  1  0  0  0  0
 17 18  1  0  0  0  0
 17 38  1  0  0  0  0
 17 39  1  0  0  0  0
 18 40  1  0  0  0  0
 18 41  1  0  0  0  0
 19 20  1  0  0  0  0
M  CHG  1   5  -1
M  CHG  1  13   1
M  END
> <s_m_source_file>
AV-unprocessed.smi

> <i_m_source_file_index>
1585

> <i_lp_mmshare_version>
43012

> <i_f3d_flags>
0

> <s_epik_input>
W0NIM11jMVtjSF1jKG5vMSlbTkhdQyg9TylbTkhdW0NIMl1bQ0BIXShbT0hdKVtDSDJdTjJbQ0gyXVtDSDJdW0NIMl1bQ0gyXVtDSDJdMg==

> <s_epik_cmdline>
J2VwaWtfcHl0aG9uJywgJy1waCcsICc3LjAnLCAnLXRuJywgJzgnLCAnLW1hJywgJzIwMCcsICctbWV0YWxfYmluZGluZycsICctaW1hZScsICc8aW5maWxlLm1hZT4nLCAnLW9tYWUnLCAnPG91dGZpbGUubWFlPic=

> <r_epik_Ionization_Penalty>
6.29903

> <r_epik_Ionization_Penalty_Charging>
6.29893

> <r_epik_Ionization_Penalty_Neutral>
0.000107719

> <r_epik_State_Penalty>
6.29786

> <r_epik_Charging_Adjusted_Penalty>
12.5968

> <i_epik_Tot_Q>
0

> <i_epik_Tot_abs_Q>
2

> <r_epik_Metal_State_Penalty>
2.22942

> <b_epik_Metal_Only>
1

> <s_lp_Force_Field>
OPLS_2005

> <r_lp_Energy>
6.33274

> <b_lp_Chiralities_Consistent>
1

> <s_lp_Variant>
AV-unprocessed.smi:1585-4

> <Gold.Version>
5.8.1

> <Gold.Id.Protein>
6NUR|6NUR_protein|mol2

> <Gold.PLP.Fitness>
42.3647

> <Gold.PLP.PLP>
-34.0893

> <Gold.PLP.part.hbond>
-5.1518

> <Gold.PLP.part.metal>
0.0000

> <Gold.PLP.part.buried>
-5.6900

> <Gold.PLP.part.nonpolar>
-23.8770

> <Gold.PLP.part.repulsive>
0.4633

> <Gold.PLP.ligand.clash>
0.0000

> <Gold.PLP.ligand.torsion>
0.8451

> <Gold.PLP.Chemscore.Hbond>
3.2420

> <Gold.PLP.Chemscore.CHOScore>
0.0000

> <Gold.PLP.Chemscore.Metal>
0.0000

> <Gold.Chemscore.Hbonds>
donor molecule, donor type, donor heavy atom, donor atom, acceptor molecule, acceptor atom, score
      L1  H     8    25       P1  7948  1.00
      L1  H    13    42       P1 10747  1.00
      P1  H  7989  7998       L1    19  0.30
      P1  H 10752 10764       L1     7  0.21

> <Gold.PLP.Chemscore.Internal.Correction>
0.2396

> <Gold.Rescore>
     Score         DG    S(hbond)    S(metal)    S(lipo)     H(rot)  DE(clash)    DE(int)     intcor
     14.14     -16.62       2.65        0.00      73.18       2.45       0.19       2.29       ----

> <Gold.Chemscore.Fitness>
14.1386

> <Gold.Chemscore.DG>
-16.6190

> <Gold.Chemscore.ZeroCoef>
-5.4800

> <Gold.Chemscore.Hbond>
2.6463

> <Gold.Chemscore.Metal>
0.0000

> <Gold.Chemscore.Lipo>
73.1798

> <Gold.Chemscore.Internal_Hbond>
0.0000

> <Gold.Chemscore.DEClash>
0.1878

> <Gold.Chemscore.DEInternal>
2.2927

> <Gold.Chemscore.Rot>
2.4459

> <Gold.Chemscore.Internal.Correction>
   9.000000E+99

> <Gold.Chemscore.Hbonds>
donor molecule, donor type, donor heavy atom, donor atom, acceptor molecule, acceptor atom, score
      L1  H     8    25       P1  7948  0.82
      L1  H    13    42       P1 10747  1.00
      P1  H 10752 10764       L1     7  0.03

> <Gold.Chemscore.Hbond.Weighted>
-8.8385

> <Gold.Chemscore.Metal.Weighted>
-0.0000

> <Gold.Chemscore.Lipo.Weighted>
-8.5620

> <Gold.Chemscore.Internal_Hbond.Weighted>
0.0000

> <Gold.Chemscore.DEClash.Weighted>
0.1878

> <Gold.Chemscore.DEInternal.Weighted>
2.2927

> <Gold.Chemscore.Rot.Weighted>
6.2615

> <Gold.Chemscore.Internal.Correction.Weighted>
   9.000000E+99

> <Gold.Protein.RotatedTorsions>
[ 6907 6896 6895 6894 ] final   66.08 input  -60.11 | X-H torsion
[ 7974 7965 7964 7962 ] final  -12.18 input  175.53 | X-H torsion
[ 8008 7997 7996 7995 ] final  147.88 input   59.86 | X-H torsion
[ 10167 10162 10161 10158 ] final -145.55 input  -65.29 | X-H torsion
[ 10718 10713 10712 10709 ] final   92.81 input   66.30 | X-H torsion
[ 10763 10752 10751 10750 ] final  -32.72 input  -60.55 | X-H torsion
[ 11005 11000 10999 10996 ] final  -91.36 input  -57.11 | X-H torsion

> <Gold.Protein.ActiveResidues>
 VAL166  LYS551  ARG553  GLY616  TRP617  ASP618  TYR619  PRO620  LYS621  CYS622 
 ASP623  PHE694  ASN695  SER759  ASP760  ASP761  ALA762  ILE779  LEU786  VAL792 
 PHE793  MET794  SER795  GLU796  ALA797  LYS798  CYS799  TRP800  GLU811  SER814 

> <Gold.Protein.RotatedAtoms>
  152.4455  134.5504  159.9864 H   0  0  0  0  0  0  0  0  0  0  0  0  # atno 6907 bound_to 6896
  151.5590  133.3400  159.2975 H   0  0  0  0  0  0  0  0  0  0  0  0  # atno 6908 bound_to 6896
  150.8370  134.7680  159.6965 H   0  0  0  0  0  0  0  0  0  0  0  0  # atno 6909 bound_to 6896
  146.2161  140.3019  142.8376 H   0  0  0  0  0  0  0  0  0  0  0  0  # atno 7974 bound_to 7965
  156.2810  140.2143  156.5609 H   0  0  0  0  0  0  0  0  0  0  0  0  # atno 8008 bound_to 7997
  154.7213  140.0503  157.0665 H   0  0  0  0  0  0  0  0  0  0  0  0  # atno 8009 bound_to 7997
  155.0474  140.3152  155.4706 H   0  0  0  0  0  0  0  0  0  0  0  0  # atno 8010 bound_to 7997
  139.7795  143.8121  152.2636 H   0  0  0  0  0  0  0  0  0  0  0  0  # atno 10167 bound_to 10162
  157.6957  131.0456  150.3939 H   0  0  0  0  0  0  0  0  0  0  0  0  # atno 10718 bound_to 10713
  153.8184  135.6876  153.4830 H   0  0  0  0  0  0  0  0  0  0  0  0  # atno 10763 bound_to 10752
  153.1584  135.4589  154.9736 H   0  0  0  0  0  0  0  0  0  0  0  0  # atno 10764 bound_to 10752
  154.7938  135.3311  154.7658 H   0  0  0  0  0  0  0  0  0  0  0  0  # atno 10765 bound_to 10752
  141.1546  133.7750  156.9868 H   0  0  0  0  0  0  0  0  0  0  0  0  # atno 11005 bound_to 11000
  144.9051  140.7689  143.5843 LP  0  0  0  0  0  0  0  0  0  0  0  0  # atno 17320 bound_to 7965
  145.2947  139.1871  143.4721 LP  0  0  0  0  0  0  0  0  0  0  0  0  # atno 17321 bound_to 7965
  139.8180  144.7308  150.9610 LP  0  0  0  0  0  0  0  0  0  0  0  0  # atno 17342 bound_to 10162
  140.7818  143.4186  151.0877 LP  0  0  0  0  0  0  0  0  0  0  0  0  # atno 17343 bound_to 10162
  156.4339  130.3978  149.6741 LP  0  0  0  0  0  0  0  0  0  0  0  0  # atno 17370 bound_to 10713
  156.3949  130.7645  151.2649 LP  0  0  0  0  0  0  0  0  0  0  0  0  # atno 17371 bound_to 10713
  140.1029  134.9524  157.1951 LP  0  0  0  0  0  0  0  0  0  0  0  0  # atno 17394 bound_to 11000
  140.3294  134.2827  155.7231 LP  0  0  0  0  0  0  0  0  0  0  0  0  # atno 17395 bound_to 11000

$$$$
