AV-unprocessed.smi:1554|AV-procd|sdf|6243|dock8
  -GOLD-   22720 6423D 1   1.00000     0.00000
 Structure written by MMmdl.
 47 49  0  0  0  0  0  0  0  0  1 V2000
  152.8238  143.2335  161.2889 C   0  0  0  0  0  0  0  0  0  0  0  0
  152.3704  142.6577  159.9588 C   0  0  0  0  0  0  0  0  0  0  0  0
  152.8497  141.3898  159.5596 C   0  0  0  0  0  0  0  0  0  0  0  0
  152.4509  140.8184  158.3312 C   0  0  0  0  0  0  0  0  0  0  0  0
  152.7879  139.6068  157.7522 N   0  0  0  0  0  0  0  0  0  0  0  0
  152.0999  139.6531  156.6151 C   0  0  0  0  0  0  0  0  0  0  0  0
  151.3576  140.7536  156.3872 N   0  0  0  0  0  0  0  0  0  0  0  0
  150.5353  141.0256  155.2214 C   0  0  0  0  0  0  0  0  0  0  0  0
  149.4634  139.9444  154.9851 C   0  0  1  0  0  0  0  0  0  0  0  0
  148.6409  140.3300  153.9012 O   0  0  0  0  0  0  0  0  0  0  0  0
  150.1028  138.5821  154.6496 C   0  0  0  0  0  0  0  0  0  0  0  0
  149.6692  137.4566  155.4800 N   0  0  0  0  0  0  0  0  0  0  0  0
  149.8060  137.7214  156.9109 C   0  0  0  0  0  0  0  0  0  0  0  0
  149.3767  136.5136  157.7611 C   0  0  0  0  0  0  0  0  0  0  0  0
  150.1283  135.3667  157.3788 O   0  0  0  0  0  0  0  0  0  0  0  0
  149.9825  135.0413  155.9996 C   0  0  2  0  0  0  0  0  0  0  0  0
  150.8218  133.7931  155.7071 C   0  0  0  0  0  0  0  0  0  0  0  0
  150.4211  136.2503  155.1506 C   0  0  0  0  0  0  0  0  0  0  0  0
  151.5562  141.5583  157.5041 C   0  0  0  0  0  0  0  0  0  0  0  0
  151.0718  142.8203  157.8909 C   0  0  0  0  0  0  0  0  0  0  0  0
  151.4757  143.3741  159.1237 C   0  0  0  0  0  0  0  0  0  0  0  0
  150.9402  144.7343  159.5348 C   0  0  0  0  0  0  0  0  0  0  0  0
  153.5790  142.6027  161.7585 H   0  0  0  0  0  0  0  0  0  0  0  0
  151.9805  143.3156  161.9748 H   0  0  0  0  0  0  0  0  0  0  0  0
  153.2573  144.2242  161.1516 H   0  0  0  0  0  0  0  0  0  0  0  0
  153.5291  140.8427  160.1966 H   0  0  0  0  0  0  0  0  0  0  0  0
  152.1384  138.8403  155.9047 H   0  0  0  0  0  0  0  0  0  0  0  0
  150.0726  142.0062  155.3411 H   0  0  0  0  0  0  0  0  0  0  0  0
  151.1920  141.0974  154.3536 H   0  0  0  0  0  0  0  0  0  0  0  0
  148.8460  139.8730  155.8797 H   0  0  0  0  0  0  0  0  0  0  0  0
  149.0124  139.9773  153.1067 H   0  0  0  0  0  0  0  0  0  0  0  0
  149.8870  138.3598  153.6033 H   0  0  0  0  0  0  0  0  0  0  0  0
  151.1884  138.6715  154.7128 H   0  0  0  0  0  0  0  0  0  0  0  0
  150.8412  137.9759  157.1432 H   0  0  0  0  0  0  0  0  0  0  0  0
  149.1998  138.5779  157.2016 H   0  0  0  0  0  0  0  0  0  0  0  0
  149.5468  136.7149  158.8189 H   0  0  0  0  0  0  0  0  0  0  0  0
  148.3106  136.3157  157.6399 H   0  0  0  0  0  0  0  0  0  0  0  0
  148.9340  134.8141  155.7987 H   0  0  0  0  0  0  0  0  0  0  0  0
  150.7341  133.4972  154.6614 H   0  0  0  0  0  0  0  0  0  0  0  0
  150.4955  132.9519  156.3189 H   0  0  0  0  0  0  0  0  0  0  0  0
  151.8769  133.9691  155.9182 H   0  0  0  0  0  0  0  0  0  0  0  0
  150.2900  136.0131  154.0940 H   0  0  0  0  0  0  0  0  0  0  0  0
  151.4874  136.4294  155.2988 H   0  0  0  0  0  0  0  0  0  0  0  0
  150.3902  143.3541  157.2451 H   0  0  0  0  0  0  0  0  0  0  0  0
  150.2226  145.1152  158.8076 H   0  0  0  0  0  0  0  0  0  0  0  0
  151.7531  145.4563  159.6138 H   0  0  0  0  0  0  0  0  0  0  0  0
  150.4363  144.6717  160.4994 H   0  0  0  0  0  0  0  0  0  0  0  0
  1  2  1  0  0  0  0
  1 23  1  0  0  0  0
  1 24  1  0  0  0  0
  1 25  1  0  0  0  0
  2 21  1  0  0  0  0
  2  3  2  0  0  0  0
  3  4  1  0  0  0  0
  3 26  1  0  0  0  0
  4 19  2  0  0  0  0
  4  5  1  0  0  0  0
  5  6  2  0  0  0  0
  6  7  1  0  0  0  0
  6 27  1  0  0  0  0
  7  8  1  0  0  0  0
  7 19  1  0  0  0  0
  8  9  1  0  0  0  0
  8 28  1  0  0  0  0
  8 29  1  0  0  0  0
  9 10  1  0  0  0  0
  9 11  1  0  0  0  0
  9 30  1  0  0  0  0
 10 31  1  0  0  0  0
 11 12  1  0  0  0  0
 11 32  1  0  0  0  0
 11 33  1  0  0  0  0
 12 18  1  0  0  0  0
 12 13  1  0  0  0  0
 13 14  1  0  0  0  0
 13 34  1  0  0  0  0
 13 35  1  0  0  0  0
 14 15  1  0  0  0  0
 14 36  1  0  0  0  0
 14 37  1  0  0  0  0
 15 16  1  0  0  0  0
 16 17  1  0  0  0  0
 16 18  1  0  0  0  0
 16 38  1  0  0  0  0
 17 39  1  0  0  0  0
 17 40  1  0  0  0  0
 17 41  1  0  0  0  0
 18 42  1  0  0  0  0
 18 43  1  0  0  0  0
 19 20  1  0  0  0  0
 20 21  2  0  0  0  0
 20 44  1  0  0  0  0
 21 22  1  0  0  0  0
 22 45  1  0  0  0  0
 22 46  1  0  0  0  0
 22 47  1  0  0  0  0
M  END
> <s_m_source_file>
AV-unprocessed.smi

> <i_m_source_file_index>
1554

> <i_lp_mmshare_version>
43012

> <i_f3d_flags>
0

> <s_epik_input>
W0NIM11jKFtjSF0xKWMoW0NIM10pW2NIXWMoYzEyKW4oW2NIXW4yKVtDSDJdW0NASF0oW09IXSlbQ0gyXU4zW0NIMl1bQ0gyXU9bQ0BASF0oW0NIM10pW0NIMl0z

> <s_epik_cmdline>
J2VwaWtfcHl0aG9uJywgJy1waCcsICc3LjAnLCAnLXRuJywgJzgnLCAnLW1hJywgJzIwMCcsICctbWV0YWxfYmluZGluZycsICctaW1hZScsICc8aW5maWxlLm1hZT4nLCAnLW9tYWUnLCAnPG91dGZpbGUubWFlPic=

> <r_epik_Ionization_Penalty>
0.345108

> <r_epik_Ionization_Penalty_Charging>
0

> <r_epik_Ionization_Penalty_Neutral>
0.345108

> <r_epik_State_Penalty>
0.314544

> <r_epik_Charging_Adjusted_Penalty>
0.314544

> <i_epik_Tot_Q>
0

> <i_epik_Tot_abs_Q>
0

> <r_epik_Metal_State_Penalty>
0.239719

> <b_epik_Metal_Only>
0

> <s_lp_Force_Field>
OPLS_2005

> <r_lp_Energy>
29.2504

> <b_lp_Chiralities_Consistent>
1

> <s_lp_Variant>
AV-unprocessed.smi:1554-4

> <Gold.Version>
5.8.1

> <Gold.Id.Protein>
6NUR|6NUR_protein|mol2

> <Gold.PLP.Fitness>
43.6120

> <Gold.PLP.PLP>
-39.1402

> <Gold.PLP.part.hbond>
-2.2019

> <Gold.PLP.part.metal>
0.0000

> <Gold.PLP.part.buried>
-4.3127

> <Gold.PLP.part.nonpolar>
-32.0847

> <Gold.PLP.part.repulsive>
0.0866

> <Gold.PLP.ligand.clash>
0.0060

> <Gold.PLP.ligand.torsion>
0.7634

> <Gold.PLP.Chemscore.Hbond>
2.0000

> <Gold.PLP.Chemscore.CHOScore>
0.0000

> <Gold.PLP.Chemscore.Metal>
0.0000

> <Gold.Chemscore.Hbonds>
donor molecule, donor type, donor heavy atom, donor atom, acceptor molecule, acceptor atom, score
      L1  H    10    31       P1  7957  0.99
      P1  H  7997  8010       L1     5  0.85

> <Gold.PLP.Chemscore.Internal.Correction>
0.0046

> <Gold.Rescore>
     Score         DG    S(hbond)    S(metal)    S(lipo)     H(rot)  DE(clash)    DE(int)     intcor
     15.31     -17.52       0.98        0.00     118.23       1.98       1.57       0.64       ----

> <Gold.Chemscore.Fitness>
15.3078

> <Gold.Chemscore.DG>
-17.5187

> <Gold.Chemscore.ZeroCoef>
-5.4800

> <Gold.Chemscore.Hbond>
0.9839

> <Gold.Chemscore.Metal>
0.0000

> <Gold.Chemscore.Lipo>
118.2338

> <Gold.Chemscore.Internal_Hbond>
0.0000

> <Gold.Chemscore.DEClash>
1.5737

> <Gold.Chemscore.DEInternal>
0.6373

> <Gold.Chemscore.Rot>
1.9848

> <Gold.Chemscore.Internal.Correction>
   9.000000E+99

> <Gold.Chemscore.Hbonds>
donor molecule, donor type, donor heavy atom, donor atom, acceptor molecule, acceptor atom, score
      L1  H    10    31       P1  7957  0.91
      P1  H  7997  8010       L1     5  0.04

> <Gold.Chemscore.Hbond.Weighted>
-3.2864

> <Gold.Chemscore.Metal.Weighted>
-0.0000

> <Gold.Chemscore.Lipo.Weighted>
-13.8334

> <Gold.Chemscore.Internal_Hbond.Weighted>
0.0000

> <Gold.Chemscore.DEClash.Weighted>
1.5737

> <Gold.Chemscore.DEInternal.Weighted>
0.6373

> <Gold.Chemscore.Rot.Weighted>
5.0810

> <Gold.Chemscore.Internal.Correction.Weighted>
   9.000000E+99

> <Gold.Protein.RotatedTorsions>
[ 6907 6896 6895 6894 ] final -132.89 input  -60.11 | X-H torsion
[ 7974 7965 7964 7962 ] final -145.88 input  175.53 | X-H torsion
[ 8008 7997 7996 7995 ] final   36.93 input   59.86 | X-H torsion
[ 10167 10162 10161 10158 ] final  149.83 input  -65.29 | X-H torsion
[ 10718 10713 10712 10709 ] final -142.69 input   66.30 | X-H torsion
[ 10763 10752 10751 10750 ] final   25.87 input  -60.55 | X-H torsion
[ 11005 11000 10999 10996 ] final  -24.80 input  -57.11 | X-H torsion

> <Gold.Protein.ActiveResidues>
 VAL166  LYS551  ARG553  GLY616  TRP617  ASP618  TYR619  PRO620  LYS621  CYS622 
 ASP623  PHE694  ASN695  SER759  ASP760  ASP761  ALA762  ILE779  LEU786  VAL792 
 PHE793  MET794  SER795  GLU796  ALA797  LYS798  CYS799  TRP800  GLU811  SER814 

> <Gold.Protein.RotatedAtoms>
  150.9676  133.6378  159.2743 H   0  0  0  0  0  0  0  0  0  0  0  0  # atno 6907 bound_to 6896
  151.3678  135.0915  159.9465 H   0  0  0  0  0  0  0  0  0  0  0  0  # atno 6908 bound_to 6896
  152.5171  133.9237  159.7601 H   0  0  0  0  0  0  0  0  0  0  0  0  # atno 6909 bound_to 6896
  144.8197  140.5527  143.5587 H   0  0  0  0  0  0  0  0  0  0  0  0  # atno 7974 bound_to 7965
  155.1955  140.3311  155.4351 H   0  0  0  0  0  0  0  0  0  0  0  0  # atno 8008 bound_to 7997
  156.2426  140.1903  156.6995 H   0  0  0  0  0  0  0  0  0  0  0  0  # atno 8009 bound_to 7997
  154.6177  140.0600  156.9561 H   0  0  0  0  0  0  0  0  0  0  0  0  # atno 8010 bound_to 7997
  139.4857  144.5571  151.7298 H   0  0  0  0  0  0  0  0  0  0  0  0  # atno 10167 bound_to 10162
  156.3489  130.7677  151.1827 H   0  0  0  0  0  0  0  0  0  0  0  0  # atno 10718 bound_to 10713
  153.0661  135.6573  154.0351 H   0  0  0  0  0  0  0  0  0  0  0  0  # atno 10763 bound_to 10752
  154.0007  135.2937  155.3404 H   0  0  0  0  0  0  0  0  0  0  0  0  # atno 10764 bound_to 10752
  154.7020  135.5241  153.8609 H   0  0  0  0  0  0  0  0  0  0  0  0  # atno 10765 bound_to 10752
  140.8878  133.7609  156.0383 H   0  0  0  0  0  0  0  0  0  0  0  0  # atno 11005 bound_to 11000
  145.5133  139.1478  143.3593 LP  0  0  0  0  0  0  0  0  0  0  0  0  # atno 17320 bound_to 7965
  146.2502  140.5274  142.8896 LP  0  0  0  0  0  0  0  0  0  0  0  0  # atno 17321 bound_to 7965
  140.5134  144.0990  150.6001 LP  0  0  0  0  0  0  0  0  0  0  0  0  # atno 17342 bound_to 10162
  140.3924  143.2746  152.0045 LP  0  0  0  0  0  0  0  0  0  0  0  0  # atno 17343 bound_to 10162
  157.7458  131.0433  150.4738 LP  0  0  0  0  0  0  0  0  0  0  0  0  # atno 17370 bound_to 10713
  156.4930  130.4099  149.6396 LP  0  0  0  0  0  0  0  0  0  0  0  0  # atno 17371 bound_to 10713
  140.8383  134.3097  157.5323 LP  0  0  0  0  0  0  0  0  0  0  0  0  # atno 17394 bound_to 11000
  139.8726  134.9402  156.3762 LP  0  0  0  0  0  0  0  0  0  0  0  0  # atno 17395 bound_to 11000

$$$$
