AV-unprocessed.smi:599|AV-procd|sdf|3029|dock8
  -GOLD-   2262023543D 1   1.00000     0.00000
 Structure written by MMmdl.
 36 37  0  0  0  0  0  0  0  0  1 V2000
  146.2323  139.1841  154.5652 N   0  0  0  0  0  0  0  0  0  0  0  0
  146.6037  140.2634  154.7553 C   0  0  0  0  0  0  0  0  0  0  0  0
  147.0766  141.6406  154.9971 C   0  0  0  0  0  0  0  0  0  0  0  0
  148.5333  141.7038  155.1155 N   0  0  0  0  0  0  0  0  0  0  0  0
  149.2775  141.0589  156.0278 C   0  0  0  0  0  0  0  0  0  0  0  0
  148.7991  140.3119  156.8817 O   0  0  0  0  0  0  0  0  0  0  0  0
  150.7933  141.2843  155.9446 C   0  0  0  0  0  0  0  0  0  0  0  0
  151.3967  141.6257  157.2437 N   0  0  0  0  0  0  0  0  0  0  0  0
  150.9702  142.8199  157.8574 C   0  0  0  0  0  0  0  0  0  0  0  0
  151.4372  143.2389  159.0493 C   0  0  0  0  0  0  0  0  0  0  0  0
  151.0062  144.5642  159.6578 C   0  0  0  0  0  0  0  0  0  0  0  0
  149.6969  144.5733  159.9084 F   0  0  0  0  0  0  0  0  0  0  0  0
  151.6530  144.8048  160.7990 F   0  0  0  0  0  0  0  0  0  0  0  0
  151.2733  145.5583  158.8122 F   0  0  0  0  0  0  0  0  0  0  0  0
  152.4438  142.4051  159.6768 C   0  0  0  0  0  0  0  0  0  0  0  0
  152.8731  141.2675  159.0967 C   0  0  0  0  0  0  0  0  0  0  0  0
  152.3442  140.8177  157.8072 C   0  0  0  0  0  0  0  0  0  0  0  0
  152.7284  139.7800  157.2668 O   0  0  0  0  0  0  0  0  0  0  0  0
  146.6166  142.5574  153.8559 C   0  0  0  0  0  0  0  0  0  0  0  0
  145.1666  142.9047  154.1899 C   0  0  0  0  0  0  0  0  0  0  0  0
  145.1078  142.9590  155.7189 C   0  0  0  0  0  0  0  0  0  0  0  0
  146.3754  142.2551  156.2269 C   0  0  0  0  0  0  0  0  0  0  0  0
  149.0136  142.2905  154.4488 H   0  0  0  0  0  0  0  0  0  0  0  0
  151.2482  140.3814  155.5356 H   0  0  0  0  0  0  0  0  0  0  0  0
  151.0088  142.0674  155.2148 H   0  0  0  0  0  0  0  0  0  0  0  0
  150.2441  143.3825  157.2885 H   0  0  0  0  0  0  0  0  0  0  0  0
  152.8591  142.6956  160.6307 H   0  0  0  0  0  0  0  0  0  0  0  0
  153.6237  140.6706  159.5938 H   0  0  0  0  0  0  0  0  0  0  0  0
  147.2065  143.4757  153.8454 H   0  0  0  0  0  0  0  0  0  0  0  0
  146.7178  142.0936  152.8739 H   0  0  0  0  0  0  0  0  0  0  0  0
  144.8433  143.8368  153.7255 H   0  0  0  0  0  0  0  0  0  0  0  0
  144.5101  142.1122  153.8280 H   0  0  0  0  0  0  0  0  0  0  0  0
  145.0871  143.9920  156.0683 H   0  0  0  0  0  0  0  0  0  0  0  0
  144.2048  142.4721  156.0886 H   0  0  0  0  0  0  0  0  0  0  0  0
  146.1480  141.5047  156.9853 H   0  0  0  0  0  0  0  0  0  0  0  0
  147.0190  142.9980  156.7013 H   0  0  0  0  0  0  0  0  0  0  0  0
  1  2  3  0  0  0  0
  2  3  1  0  0  0  0
  3 22  1  0  0  0  0
  3  4  1  0  0  0  0
  3 19  1  0  0  0  0
  4  5  1  0  0  0  0
  4 23  1  0  0  0  0
  5  6  2  0  0  0  0
  5  7  1  0  0  0  0
  7  8  1  0  0  0  0
  7 24  1  0  0  0  0
  7 25  1  0  0  0  0
  8 17  1  0  0  0  0
  8  9  1  0  0  0  0
  9 10  2  0  0  0  0
  9 26  1  0  0  0  0
 10 11  1  0  0  0  0
 10 15  1  0  0  0  0
 11 12  1  0  0  0  0
 11 13  1  0  0  0  0
 11 14  1  0  0  0  0
 15 16  2  0  0  0  0
 15 27  1  0  0  0  0
 16 17  1  0  0  0  0
 16 28  1  0  0  0  0
 17 18  2  0  0  0  0
 19 20  1  0  0  0  0
 19 29  1  0  0  0  0
 19 30  1  0  0  0  0
 20 21  1  0  0  0  0
 20 31  1  0  0  0  0
 20 32  1  0  0  0  0
 21 22  1  0  0  0  0
 21 33  1  0  0  0  0
 21 34  1  0  0  0  0
 22 35  1  0  0  0  0
 22 36  1  0  0  0  0
M  END
> <s_m_source_file>
AV-unprocessed.smi

> <i_m_source_file_index>
599

> <i_lp_mmshare_version>
43012

> <i_f3d_flags>
0

> <s_epik_input>
W0NIMl0xW0NIMl1bQ0gyXVtDSDJdQzEoQyNOKVtOSF1DKD1PKVtDSDJdbjJbY0hdYyhDKEYpKEYpRilbY0hdW2NIXWMyPU8=

> <s_epik_cmdline>
J2VwaWtfcHl0aG9uJywgJy1waCcsICc3LjAnLCAnLXRuJywgJzgnLCAnLW1hJywgJzIwMCcsICctbWV0YWxfYmluZGluZycsICctaW1hZScsICc8aW5maWxlLm1hZT4nLCAnLW9tYWUnLCAnPG91dGZpbGUubWFlPic=

> <r_lp_tautomer_probability>
1

> <r_epik_Ionization_Penalty>
4.74739e-07

> <r_epik_Ionization_Penalty_Charging>
1.48482e-08

> <r_epik_Ionization_Penalty_Neutral>
4.59891e-07

> <r_epik_State_Penalty>
-0

> <r_epik_Charging_Adjusted_Penalty>
1.48482e-08

> <i_epik_Tot_Q>
0

> <i_epik_Tot_abs_Q>
0

> <r_epik_Metal_State_Penalty>
-0

> <b_epik_Metal_Only>
0

> <s_lp_Force_Field>
OPLS_2005

> <r_lp_Energy>
29.4695

> <b_lp_Chiralities_Consistent>
1

> <s_lp_Variant>
AV-unprocessed.smi:599-1

> <Gold.Version>
5.8.1

> <Gold.Id.Protein>
6NUR|6NUR_protein|mol2

> <Gold.PLP.Fitness>
49.8141

> <Gold.PLP.PLP>
-44.0388

> <Gold.PLP.part.hbond>
-2.0000

> <Gold.PLP.part.metal>
0.0000

> <Gold.PLP.part.buried>
-5.3599

> <Gold.PLP.part.nonpolar>
-36.1681

> <Gold.PLP.part.repulsive>
0.2843

> <Gold.PLP.ligand.clash>
0.0000

> <Gold.PLP.ligand.torsion>
0.1442

> <Gold.PLP.Chemscore.Hbond>
1.0000

> <Gold.PLP.Chemscore.CHOScore>
1.0000

> <Gold.PLP.Chemscore.Metal>
0.0000

> <Gold.Chemscore.Hbonds>
donor molecule, donor type, donor heavy atom, donor atom, acceptor molecule, acceptor atom, score
      P1  H  7997  8009       L1    18  1.00
      L1  C     9    26       P1  8028  1.00

> <Gold.PLP.Chemscore.Internal.Correction>
0.0636

> <Gold.Rescore>
     Score         DG    S(hbond)    S(metal)    S(lipo)     H(rot)  DE(clash)    DE(int)     intcor
     11.97     -13.27       0.88        0.00      77.84       1.66       0.26       1.04       ----

> <Gold.Chemscore.Fitness>
11.9683

> <Gold.Chemscore.DG>
-13.2737

> <Gold.Chemscore.ZeroCoef>
-5.4800

> <Gold.Chemscore.Hbond>
0.8790

> <Gold.Chemscore.Metal>
0.0000

> <Gold.Chemscore.Lipo>
77.8379

> <Gold.Chemscore.Internal_Hbond>
0.0000

> <Gold.Chemscore.DEClash>
0.2626

> <Gold.Chemscore.DEInternal>
1.0427

> <Gold.Chemscore.Rot>
1.6599

> <Gold.Chemscore.Internal.Correction>
   9.000000E+99

> <Gold.Chemscore.Hbonds>
donor molecule, donor type, donor heavy atom, donor atom, acceptor molecule, acceptor atom, score
      P1  H  7997  8009       L1    18  0.55

> <Gold.Chemscore.Hbond.Weighted>
-2.9359

> <Gold.Chemscore.Metal.Weighted>
-0.0000

> <Gold.Chemscore.Lipo.Weighted>
-9.1070

> <Gold.Chemscore.Internal_Hbond.Weighted>
0.0000

> <Gold.Chemscore.DEClash.Weighted>
0.2626

> <Gold.Chemscore.DEInternal.Weighted>
1.0427

> <Gold.Chemscore.Rot.Weighted>
4.2492

> <Gold.Chemscore.Internal.Correction.Weighted>
   9.000000E+99

> <Gold.Protein.RotatedTorsions>
[ 6907 6896 6895 6894 ] final   37.03 input  -60.11 | X-H torsion
[ 7974 7965 7964 7962 ] final -108.22 input  175.53 | X-H torsion
[ 8008 7997 7996 7995 ] final  170.87 input   59.86 | X-H torsion
[ 10167 10162 10161 10158 ] final  -30.22 input  -65.29 | X-H torsion
[ 10718 10713 10712 10709 ] final    4.07 input   66.30 | X-H torsion
[ 10763 10752 10751 10750 ] final  -75.40 input  -60.55 | X-H torsion
[ 11005 11000 10999 10996 ] final  129.75 input  -57.11 | X-H torsion

> <Gold.Protein.ActiveResidues>
 VAL166  LYS551  ARG553  GLY616  TRP617  ASP618  TYR619  PRO620  LYS621  CYS622 
 ASP623  PHE694  ASN695  SER759  ASP760  ASP761  ALA762  ILE779  LEU786  VAL792 
 PHE793  MET794  SER795  GLU796  ALA797  LYS798  CYS799  TRP800  GLU811  SER814 

> <Gold.Protein.RotatedAtoms>
  152.1377  134.9086  160.0555 H   0  0  0  0  0  0  0  0  0  0  0  0  # atno 6907 bound_to 6896
  152.0167  133.3877  159.4249 H   0  0  0  0  0  0  0  0  0  0  0  0  # atno 6908 bound_to 6896
  150.6862  134.3593  159.4987 H   0  0  0  0  0  0  0  0  0  0  0  0  # atno 6909 bound_to 6896
  145.1956  140.9034  143.3399 H   0  0  0  0  0  0  0  0  0  0  0  0  # atno 7974 bound_to 7965
  156.1325  140.1526  156.9044 H   0  0  0  0  0  0  0  0  0  0  0  0  # atno 8008 bound_to 7997
  154.4920  140.0848  156.7655 H   0  0  0  0  0  0  0  0  0  0  0  0  # atno 8009 bound_to 7997
  155.4230  140.3424  155.4275 H   0  0  0  0  0  0  0  0  0  0  0  0  # atno 8010 bound_to 7997
  140.7252  143.3866  151.1504 H   0  0  0  0  0  0  0  0  0  0  0  0  # atno 10167 bound_to 10162
  156.8871  130.5674  149.5651 H   0  0  0  0  0  0  0  0  0  0  0  0  # atno 10718 bound_to 10713
  154.4860  135.5832  153.6424 H   0  0  0  0  0  0  0  0  0  0  0  0  # atno 10763 bound_to 10752
  152.9855  135.6101  154.3186 H   0  0  0  0  0  0  0  0  0  0  0  0  # atno 10764 bound_to 10752
  154.3081  135.2845  155.2558 H   0  0  0  0  0  0  0  0  0  0  0  0  # atno 10765 bound_to 10752
  139.9633  134.9597  156.9194 H   0  0  0  0  0  0  0  0  0  0  0  0  # atno 11005 bound_to 11000
  144.9998  139.3609  143.6173 LP  0  0  0  0  0  0  0  0  0  0  0  0  # atno 17320 bound_to 7965
  146.3428  139.9217  142.8766 LP  0  0  0  0  0  0  0  0  0  0  0  0  # atno 17321 bound_to 7965
  139.7464  143.8845  152.3065 LP  0  0  0  0  0  0  0  0  0  0  0  0  # atno 17342 bound_to 10162
  139.8684  144.7081  150.9016 LP  0  0  0  0  0  0  0  0  0  0  0  0  # atno 17343 bound_to 10162
  156.0647  130.5693  150.9265 LP  0  0  0  0  0  0  0  0  0  0  0  0  # atno 17370 bound_to 10713
  157.6106  131.0936  150.8802 LP  0  0  0  0  0  0  0  0  0  0  0  0  # atno 17371 bound_to 10713
  140.5452  134.0681  155.7353 LP  0  0  0  0  0  0  0  0  0  0  0  0  # atno 17394 bound_to 11000
  141.1312  133.9299  157.2532 LP  0  0  0  0  0  0  0  0  0  0  0  0  # atno 17395 bound_to 11000

$$$$
