AV-unprocessed.smi:2087|AV-procd|sdf|8523|dock10
  -GOLD-   2272011243D 1   1.00000     0.00000
 Structure written by MMmdl.
 51 52  0  0  0  0  0  0  0  0  2 V2000
  146.6609  133.5768  150.9153 C   0  0  0  0  0  0  0  0  0  0  0  0
  145.3042  134.2874  151.0593 C   0  0  0  0  0  0  0  0  0  0  0  0
  144.3248  133.7927  149.9843 C   0  0  0  0  0  0  0  0  0  0  0  0
  145.4497  135.8232  150.9957 C   0  0  0  0  0  0  0  0  0  0  0  0
  146.2307  136.3796  152.1300 N   0  3  2  0  0  0  0  0  0  0  0  0
  145.8501  135.8183  153.4502 C   0  0  0  0  0  0  0  0  0  0  0  0
  146.7297  136.4151  154.5618 C   0  0  0  0  0  0  0  0  0  0  0  0
  146.6319  137.8333  154.5362 O   0  0  0  0  0  0  0  0  0  0  0  0
  147.0987  138.3814  153.3072 C   0  0  2  0  0  0  0  0  0  0  0  0
  147.0803  139.9174  153.4160 C   0  0  0  0  0  0  0  0  0  0  0  0
  147.6434  140.3616  154.6855 N   0  0  0  0  0  0  0  0  0  0  0  0
  148.8063  141.0154  154.8226 C   0  0  0  0  0  0  0  0  0  0  0  0
  149.4821  141.4007  153.8678 O   0  0  0  0  0  0  0  0  0  0  0  0
  149.2807  141.2604  156.2603 C   0  0  0  0  0  0  0  0  0  0  0  0
  149.8746  140.0609  156.8663 N   0  0  0  0  0  0  0  0  0  0  0  0
  149.2750  139.4813  157.9700 C   0  0  0  0  0  0  0  0  0  0  0  0
  149.7571  138.3809  158.5878 C   0  0  0  0  0  0  0  0  0  0  0  0
  150.9726  137.7301  158.1147 C   0  0  0  0  0  0  0  0  0  0  0  0
  151.4424  136.7166  158.6336 O   0  0  0  0  0  0  0  0  0  0  0  0
  151.5746  138.3495  156.9949 N   0  0  0  0  0  0  0  0  0  0  0  0
  152.7834  137.7421  156.4769 C   0  0  0  0  0  0  0  0  0  0  0  0
  151.0538  139.4880  156.3380 C   0  0  0  0  0  0  0  0  0  0  0  0
  151.5920  139.9758  155.3404 O   0  0  0  0  0  0  0  0  0  0  0  0
  146.2012  137.8612  152.1696 C   0  0  0  0  0  0  0  0  0  0  0  0
  147.1385  133.8231  149.9664 H   0  0  0  0  0  0  0  0  0  0  0  0
  146.5428  132.4935  150.9554 H   0  0  0  0  0  0  0  0  0  0  0  0
  147.3467  133.8561  151.7155 H   0  0  0  0  0  0  0  0  0  0  0  0
  144.8792  134.0076  152.0230 H   0  0  0  0  0  0  0  0  0  0  0  0
  144.6850  134.0261  148.9818 H   0  0  0  0  0  0  0  0  0  0  0  0
  143.3440  134.2546  150.1014 H   0  0  0  0  0  0  0  0  0  0  0  0
  144.1866  132.7126  150.0448 H   0  0  0  0  0  0  0  0  0  0  0  0
  145.9422  136.0799  150.0566 H   0  0  0  0  0  0  0  0  0  0  0  0
  144.4701  136.3033  150.9648 H   0  0  0  0  0  0  0  0  0  0  0  0
  144.7999  136.0354  153.6513 H   0  0  0  0  0  0  0  0  0  0  0  0
  145.9579  134.7343  153.4514 H   0  0  0  0  0  0  0  0  0  0  0  0
  146.3994  136.0561  155.5368 H   0  0  0  0  0  0  0  0  0  0  0  0
  147.7701  136.1073  154.4461 H   0  0  0  0  0  0  0  0  0  0  0  0
  148.1231  138.0481  153.1301 H   0  0  0  0  0  0  0  0  0  0  0  0
  147.6350  140.3664  152.5903 H   0  0  0  0  0  0  0  0  0  0  0  0
  146.0577  140.2887  153.3428 H   0  0  0  0  0  0  0  0  0  0  0  0
  147.1476  140.0935  155.5236 H   0  0  0  0  0  0  0  0  0  0  0  0
  150.0026  142.0779  156.2449 H   0  0  0  0  0  0  0  0  0  0  0  0
  148.4505  141.6074  156.8786 H   0  0  0  0  0  0  0  0  0  0  0  0
  148.3728  139.9278  158.3621 H   0  0  0  0  0  0  0  0  0  0  0  0
  149.2367  137.9766  159.4437 H   0  0  0  0  0  0  0  0  0  0  0  0
  153.3432  138.4563  155.8729 H   0  0  0  0  0  0  0  0  0  0  0  0
  152.4759  136.8796  155.8840 H   0  0  0  0  0  0  0  0  0  0  0  0
  153.4106  137.4446  157.3191 H   0  0  0  0  0  0  0  0  0  0  0  0
  146.5507  138.2612  151.2168 H   0  0  0  0  0  0  0  0  0  0  0  0
  145.1746  138.2049  152.3068 H   0  0  0  0  0  0  0  0  0  0  0  0
  147.1942  136.1238  151.9662 H   0  0  0  0  0  0  0  0  0  0  0  0
  1  2  1  0  0  0  0
  1 25  1  0  0  0  0
  1 26  1  0  0  0  0
  1 27  1  0  0  0  0
  2  3  1  0  0  0  0
  2  4  1  0  0  0  0
  2 28  1  0  0  0  0
  3 29  1  0  0  0  0
  3 30  1  0  0  0  0
  3 31  1  0  0  0  0
  4  5  1  0  0  0  0
  4 32  1  0  0  0  0
  4 33  1  0  0  0  0
  5 24  1  0  0  0  0
  5  6  1  0  0  0  0
  5 51  1  0  0  0  0
  6  7  1  0  0  0  0
  6 34  1  0  0  0  0
  6 35  1  0  0  0  0
  7  8  1  0  0  0  0
  7 36  1  0  0  0  0
  7 37  1  0  0  0  0
  8  9  1  0  0  0  0
  9 10  1  0  0  0  0
  9 24  1  0  0  0  0
  9 38  1  0  0  0  0
 10 11  1  0  0  0  0
 10 39  1  0  0  0  0
 10 40  1  0  0  0  0
 11 12  1  0  0  0  0
 11 41  1  0  0  0  0
 12 13  2  0  0  0  0
 12 14  1  0  0  0  0
 14 15  1  0  0  0  0
 14 42  1  0  0  0  0
 14 43  1  0  0  0  0
 15 22  1  0  0  0  0
 15 16  1  0  0  0  0
 16 17  2  0  0  0  0
 16 44  1  0  0  0  0
 17 18  1  0  0  0  0
 17 45  1  0  0  0  0
 18 19  2  0  0  0  0
 18 20  1  0  0  0  0
 20 21  1  0  0  0  0
 20 22  1  0  0  0  0
 21 46  1  0  0  0  0
 21 47  1  0  0  0  0
 21 48  1  0  0  0  0
 22 23  2  0  0  0  0
 24 49  1  0  0  0  0
 24 50  1  0  0  0  0
M  CHG  1   5   1
M  END
> <s_m_source_file>
AV-unprocessed.smi

> <i_m_source_file_index>
2087

> <i_lp_mmshare_version>
43012

> <i_f3d_flags>
0

> <s_epik_input>
W0NIM11bQ0hdKFtDSDNdKVtDSDJdTjFbQ0gyXVtDSDJdT1tDQEhdKFtDSDJdMSlbQ0gyXVtOSF1DKD1PKVtDSDJdbjJbY0hdW2NIXWMoPU8pbihbQ0gzXSljMj1P

> <s_epik_cmdline>
J2VwaWtfcHl0aG9uJywgJy1waCcsICc3LjAnLCAnLXRuJywgJzgnLCAnLW1hJywgJzIwMCcsICctbWV0YWxfYmluZGluZycsICctaW1hZScsICc8aW5maWxlLm1hZT4nLCAnLW9tYWUnLCAnPG91dGZpbGUubWFlPic=

> <r_lp_tautomer_probability>
1

> <r_epik_Ionization_Penalty>
0.097593

> <r_epik_Ionization_Penalty_Charging>
0.097593

> <r_epik_Ionization_Penalty_Neutral>
6.27044e-08

> <r_epik_State_Penalty>
0.0877056

> <r_epik_Charging_Adjusted_Penalty>
0.185299

> <i_epik_Tot_Q>
1

> <i_epik_Tot_abs_Q>
1

> <r_epik_Metal_State_Penalty>
0.0877109

> <b_epik_Metal_Only>
0

> <s_lp_Force_Field>
OPLS_2005

> <r_lp_Energy>
25.7141

> <b_lp_Chiralities_Consistent>
1

> <s_lp_Variant>
AV-unprocessed.smi:2087-4

> <Gold.Version>
5.8.1

> <Gold.Id.Protein>
6NUR|6NUR_protein|mol2

> <Gold.PLP.Fitness>
44.3381

> <Gold.PLP.PLP>
-31.5396

> <Gold.PLP.part.hbond>
-5.0000

> <Gold.PLP.part.metal>
0.0000

> <Gold.PLP.part.buried>
-3.8594

> <Gold.PLP.part.nonpolar>
-24.2889

> <Gold.PLP.part.repulsive>
1.0887

> <Gold.PLP.ligand.clash>
0.0000

> <Gold.PLP.ligand.torsion>
0.4985

> <Gold.PLP.Chemscore.Hbond>
4.5672

> <Gold.PLP.Chemscore.CHOScore>
0.0000

> <Gold.PLP.Chemscore.Metal>
0.0000

> <Gold.Chemscore.Hbonds>
donor molecule, donor type, donor heavy atom, donor atom, acceptor molecule, acceptor atom, score
      L1  H     5    51       P1  7948  2.00
      P1  H  6896  6909       L1    19  0.80
      P1  H  7989  7998       L1    23  0.98
      P1  H  8011  8017       L1    13  0.77

> <Gold.PLP.Chemscore.Internal.Correction>
0.0938

> <Gold.Rescore>
     Score         DG    S(hbond)    S(metal)    S(lipo)     H(rot)  DE(clash)    DE(int)     intcor
     17.64     -19.05       3.46        0.00      65.81       2.22       0.90       0.51       ----

> <Gold.Chemscore.Fitness>
17.6366

> <Gold.Chemscore.DG>
-19.0503

> <Gold.Chemscore.ZeroCoef>
-5.4800

> <Gold.Chemscore.Hbond>
3.4630

> <Gold.Chemscore.Metal>
0.0000

> <Gold.Chemscore.Lipo>
65.8091

> <Gold.Chemscore.Internal_Hbond>
0.0000

> <Gold.Chemscore.DEClash>
0.9022

> <Gold.Chemscore.DEInternal>
0.5114

> <Gold.Chemscore.Rot>
2.2249

> <Gold.Chemscore.Internal.Correction>
   9.000000E+99

> <Gold.Chemscore.Hbonds>
donor molecule, donor type, donor heavy atom, donor atom, acceptor molecule, acceptor atom, score
      L1  H     5    51       P1  7948  1.00
      P1  H  6896  6909       L1    19  0.74
      P1  H  7989  7998       L1    23  0.87
      P1  H  8011  8017       L1    13  0.76

> <Gold.Chemscore.Hbond.Weighted>
-11.5663

> <Gold.Chemscore.Metal.Weighted>
-0.0000

> <Gold.Chemscore.Lipo.Weighted>
-7.6997

> <Gold.Chemscore.Internal_Hbond.Weighted>
0.0000

> <Gold.Chemscore.DEClash.Weighted>
0.9022

> <Gold.Chemscore.DEInternal.Weighted>
0.5114

> <Gold.Chemscore.Rot.Weighted>
5.6957

> <Gold.Chemscore.Internal.Correction.Weighted>
   9.000000E+99

> <Gold.Protein.RotatedTorsions>
[ 6907 6896 6895 6894 ] final  107.39 input  -60.11 | X-H torsion
[ 7974 7965 7964 7962 ] final   24.34 input  175.53 | X-H torsion
[ 8008 7997 7996 7995 ] final  -98.89 input   59.86 | X-H torsion
[ 10167 10162 10161 10158 ] final  -91.53 input  -65.29 | X-H torsion
[ 10718 10713 10712 10709 ] final  165.82 input   66.30 | X-H torsion
[ 10763 10752 10751 10750 ] final   98.20 input  -60.55 | X-H torsion
[ 11005 11000 10999 10996 ] final  164.65 input  -57.11 | X-H torsion

> <Gold.Protein.ActiveResidues>
 VAL166  LYS551  ARG553  GLY616  TRP617  ASP618  TYR619  PRO620  LYS621  CYS622 
 ASP623  PHE694  ASN695  SER759  ASP760  ASP761  ALA762  ILE779  LEU786  VAL792 
 PHE793  MET794  SER795  GLU796  ALA797  LYS798  CYS799  TRP800  GLU811  SER814 

> <Gold.Protein.RotatedAtoms>
  152.5156  133.9242  159.7548 H   0  0  0  0  0  0  0  0  0  0  0  0  # atno 6907 bound_to 6896
  150.9607  133.6440  159.2762 H   0  0  0  0  0  0  0  0  0  0  0  0  # atno 6908 bound_to 6896
  151.3686  135.0923  159.9511 H   0  0  0  0  0  0  0  0  0  0  0  0  # atno 6909 bound_to 6896
  146.1942  139.7618  142.8810 H   0  0  0  0  0  0  0  0  0  0  0  0  # atno 7974 bound_to 7965
  154.8073  140.0452  157.1317 H   0  0  0  0  0  0  0  0  0  0  0  0  # atno 8008 bound_to 7997
  154.9409  140.3052  155.5101 H   0  0  0  0  0  0  0  0  0  0  0  0  # atno 8009 bound_to 7997
  156.2968  140.2305  156.4478 H   0  0  0  0  0  0  0  0  0  0  0  0  # atno 8010 bound_to 7997
  140.3440  143.2927  151.9803 H   0  0  0  0  0  0  0  0  0  0  0  0  # atno 10167 bound_to 10162
  157.0747  131.0376  151.2598 H   0  0  0  0  0  0  0  0  0  0  0  0  # atno 10718 bound_to 10713
  153.2861  135.4156  155.1124 H   0  0  0  0  0  0  0  0  0  0  0  0  # atno 10763 bound_to 10752
  154.8505  135.3507  154.6045 H   0  0  0  0  0  0  0  0  0  0  0  0  # atno 10764 bound_to 10752
  153.6466  135.7054  153.5281 H   0  0  0  0  0  0  0  0  0  0  0  0  # atno 10765 bound_to 10752
  140.2481  134.7998  157.3476 H   0  0  0  0  0  0  0  0  0  0  0  0  # atno 11005 bound_to 11000
  145.3697  141.0340  143.3238 LP  0  0  0  0  0  0  0  0  0  0  0  0  # atno 17320 bound_to 7965
  144.8546  139.5269  143.6840 LP  0  0  0  0  0  0  0  0  0  0  0  0  # atno 17321 bound_to 7965
  139.4836  144.6133  151.7394 LP  0  0  0  0  0  0  0  0  0  0  0  0  # atno 17342 bound_to 10162
  140.5282  144.0772  150.6044 LP  0  0  0  0  0  0  0  0  0  0  0  0  # atno 17343 bound_to 10162
  157.4849  130.7787  149.7450 LP  0  0  0  0  0  0  0  0  0  0  0  0  # atno 17370 bound_to 10713
  155.9940  130.3920  150.2876 LP  0  0  0  0  0  0  0  0  0  0  0  0  # atno 17371 bound_to 10713
  140.1585  134.4758  155.7911 LP  0  0  0  0  0  0  0  0  0  0  0  0  # atno 17394 bound_to 11000
  141.2204  133.6891  156.7503 LP  0  0  0  0  0  0  0  0  0  0  0  0  # atno 17395 bound_to 11000

$$$$
