AV-unprocessed.smi:102|AV-procd|sdf|964|dock2
  -GOLD-   2262017503D 1   1.00000     0.00000
 Structure written by MMmdl.
 43 44  0  0  0  0  0  0  0  0  2 V2000
  151.2927  144.8172  158.9022 C   0  0  0  0  0  0  0  0  0  0  0  0
  151.2596  143.3097  159.1200 C   0  0  0  0  0  0  0  0  0  0  0  0
  151.8328  142.7882  160.0767 O   0  0  0  0  0  0  0  0  0  0  0  0
  150.5559  142.6664  158.1767 O   0  0  0  0  0  0  0  0  0  0  0  0
  150.3693  141.2648  158.2782 C   0  0  0  0  0  0  0  0  0  0  0  0
  151.2488  140.5544  157.2314 C   0  0  1  0  0  0  0  0  0  0  0  0
  152.2442  139.7887  157.9013 O   0  0  0  0  0  0  0  0  0  0  0  0
  151.7224  138.5362  158.2299 C   0  0  2  0  0  0  0  0  0  0  0  0
  152.8223  137.5024  158.1410 N   0  0  0  0  0  0  0  0  0  0  0  0
  153.1914  136.8174  159.2852 C   0  0  0  0  0  0  0  0  0  0  0  0
  154.1883  135.9093  159.2693 C   0  0  0  0  0  0  0  0  0  0  0  0
  154.5182  135.2572  160.3974 F   0  0  0  0  0  0  0  0  0  0  0  0
  154.9038  135.6442  158.0229 C   0  0  0  0  0  0  0  0  0  0  0  0
  155.8028  134.8046  158.0100 O   0  0  0  0  0  0  0  0  0  0  0  0
  154.5376  136.3521  156.9155 N   0  5  0  0  0  0  0  0  0  0  0  0
  153.5355  137.2795  156.9292 C   0  0  0  0  0  0  0  0  0  0  0  0
  153.2222  137.9366  155.9381 O   0  0  0  0  0  0  0  0  0  0  0  0
  150.5354  138.2475  157.2919 C   0  0  1  0  0  0  0  0  0  0  0  0
  149.3568  138.1207  158.0829 O   0  0  0  0  0  0  0  0  0  0  0  0
  149.1247  137.0020  158.7919 C   0  0  0  0  0  0  0  0  0  0  0  0
  147.6378  136.7093  158.9399 C   0  0  0  0  0  0  0  0  0  0  0  0
  149.9769  136.2584  159.2775 O   0  0  0  0  0  0  0  0  0  0  0  0
  150.5145  139.4911  156.4022 C   0  0  1  0  0  0  0  0  0  0  0  0
  149.2007  139.8646  155.9979 O   0  0  0  0  0  0  0  0  0  0  0  0
  148.9809  140.3562  154.7668 C   0  0  0  0  0  0  0  0  0  0  0  0
  147.5674  140.8986  154.6034 C   0  0  0  0  0  0  0  0  0  0  0  0
  149.7962  140.3983  153.8456 O   0  0  0  0  0  0  0  0  0  0  0  0
  150.8026  145.0874  157.9666 H   0  0  0  0  0  0  0  0  0  0  0  0
  152.3233  145.1704  158.8655 H   0  0  0  0  0  0  0  0  0  0  0  0
  150.7817  145.3266  159.7193 H   0  0  0  0  0  0  0  0  0  0  0  0
  150.5992  140.9192  159.2865 H   0  0  0  0  0  0  0  0  0  0  0  0
  149.3166  141.0479  158.0929 H   0  0  0  0  0  0  0  0  0  0  0  0
  151.7117  141.2930  156.5761 H   0  0  0  0  0  0  0  0  0  0  0  0
  151.4214  138.5525  159.2786 H   0  0  0  0  0  0  0  0  0  0  0  0
  152.6731  137.0047  160.2142 H   0  0  0  0  0  0  0  0  0  0  0  0
  150.7239  137.3431  156.7118 H   0  0  0  0  0  0  0  0  0  0  0  0
  147.0937  137.6193  159.1937 H   0  0  0  0  0  0  0  0  0  0  0  0
  147.4688  135.9757  159.7284 H   0  0  0  0  0  0  0  0  0  0  0  0
  147.2371  136.3131  158.0067 H   0  0  0  0  0  0  0  0  0  0  0  0
  151.1138  139.2711  155.5179 H   0  0  0  0  0  0  0  0  0  0  0  0
  146.8522  140.2704  155.1347 H   0  0  0  0  0  0  0  0  0  0  0  0
  147.2883  140.9250  153.5500 H   0  0  0  0  0  0  0  0  0  0  0  0
  147.5048  141.9106  155.0036 H   0  0  0  0  0  0  0  0  0  0  0  0
  1  2  1  0  0  0  0
  1 28  1  0  0  0  0
  1 29  1  0  0  0  0
  1 30  1  0  0  0  0
  2  3  2  0  0  0  0
  2  4  1  0  0  0  0
  4  5  1  0  0  0  0
  5  6  1  0  0  0  0
  5 31  1  0  0  0  0
  5 32  1  0  0  0  0
  6 23  1  0  0  0  0
  6  7  1  0  0  0  0
  6 33  1  0  0  0  0
  7  8  1  0  0  0  0
  8  9  1  0  0  0  0
  8 18  1  0  0  0  0
  8 34  1  0  0  0  0
  9 16  1  0  0  0  0
  9 10  1  0  0  0  0
 10 11  2  0  0  0  0
 10 35  1  0  0  0  0
 11 12  1  0  0  0  0
 11 13  1  0  0  0  0
 13 14  2  0  0  0  0
 13 15  1  0  0  0  0
 15 16  1  0  0  0  0
 16 17  2  0  0  0  0
 18 19  1  0  0  0  0
 18 23  1  0  0  0  0
 18 36  1  0  0  0  0
 19 20  1  0  0  0  0
 20 21  1  0  0  0  0
 20 22  2  0  0  0  0
 21 37  1  0  0  0  0
 21 38  1  0  0  0  0
 21 39  1  0  0  0  0
 23 24  1  0  0  0  0
 23 40  1  0  0  0  0
 24 25  1  0  0  0  0
 25 26  1  0  0  0  0
 25 27  2  0  0  0  0
 26 41  1  0  0  0  0
 26 42  1  0  0  0  0
 26 43  1  0  0  0  0
M  CHG  1  15  -1
M  END
> <s_m_source_file>
AV-unprocessed.smi

> <i_m_source_file_index>
102

> <i_lp_mmshare_version>
43012

> <i_f3d_flags>
0

> <s_epik_input>
W0NIM11DKD1PKU9bQ0gyXVtDQEBIXTFPW0NASF0oW0NAQEhdKE9DKD1PKVtDSDNdKVtDQEhdMU9DKD1PKVtDSDNdKW4yW2NIXWMoRiljKD1PKVtuSF1jMj1P

> <s_epik_cmdline>
J2VwaWtfcHl0aG9uJywgJy1waCcsICc3LjAnLCAnLXRuJywgJzgnLCAnLW1hJywgJzIwMCcsICctbWV0YWxfYmluZGluZycsICctaW1hZScsICc8aW5maWxlLm1hZT4nLCAnLW9tYWUnLCAnPG91dGZpbGUubWFlPic=

> <r_epik_Ionization_Penalty>
1.40304

> <r_epik_Ionization_Penalty_Charging>
1.43915e-08

> <r_epik_Ionization_Penalty_Neutral>
1.40304

> <r_epik_State_Penalty>
1.48536

> <r_epik_Charging_Adjusted_Penalty>
1.48536

> <i_epik_Tot_Q>
-1

> <i_epik_Tot_abs_Q>
1

> <r_epik_Metal_State_Penalty>
0.00663881

> <b_epik_Metal_Only>
0

> <s_epik_Chemistry_Notes>
This compound has an ester and may undergo hydrolysis at high or low pH. This compound contains an acetal/aminal-like group ( X-CH(R)-Y where X, Y are N, S, or O) that may be acid/base labile, releasing an aldehyde.

> <s_lp_Force_Field>
OPLS_2005

> <r_lp_Energy>
22.8402

> <b_lp_Chiralities_Consistent>
1

> <s_lp_Variant>
AV-unprocessed.smi:102-20

> <Gold.Version>
5.8.1

> <Gold.Id.Protein>
6NUR|6NUR_protein|mol2

> <Gold.PLP.Fitness>
44.4823

> <Gold.PLP.PLP>
-34.3541

> <Gold.PLP.part.hbond>
-4.9440

> <Gold.PLP.part.metal>
0.0000

> <Gold.PLP.part.buried>
-6.0388

> <Gold.PLP.part.nonpolar>
-23.8964

> <Gold.PLP.part.repulsive>
0.8561

> <Gold.PLP.ligand.clash>
0.0000

> <Gold.PLP.ligand.torsion>
2.1063

> <Gold.PLP.Chemscore.Hbond>
4.7082

> <Gold.PLP.Chemscore.CHOScore>
0.0000

> <Gold.PLP.Chemscore.Metal>
0.0000

> <Gold.Chemscore.Hbonds>
donor molecule, donor type, donor heavy atom, donor atom, acceptor molecule, acceptor atom, score
      P1  H  6896  6908       L1    22  1.00
      P1  H  7989  7998       L1    27  0.66
      P1  H 10752 10764       L1    15  2.00

> <Gold.PLP.Chemscore.Internal.Correction>
0.2164

> <Gold.Rescore>
     Score         DG    S(hbond)    S(metal)    S(lipo)     H(rot)  DE(clash)    DE(int)     intcor
      6.19     -11.70       3.25        0.00      47.92       4.00       0.16       5.35       ----

> <Gold.Chemscore.Fitness>
6.1873

> <Gold.Chemscore.DG>
-11.6974

> <Gold.Chemscore.ZeroCoef>
-5.4800

> <Gold.Chemscore.Hbond>
3.2450

> <Gold.Chemscore.Metal>
0.0000

> <Gold.Chemscore.Lipo>
47.9189

> <Gold.Chemscore.Internal_Hbond>
0.0000

> <Gold.Chemscore.DEClash>
0.1617

> <Gold.Chemscore.DEInternal>
5.3484

> <Gold.Chemscore.Rot>
3.9951

> <Gold.Chemscore.Internal.Correction>
   9.000000E+99

> <Gold.Chemscore.Hbonds>
donor molecule, donor type, donor heavy atom, donor atom, acceptor molecule, acceptor atom, score
      P1  H  6896  6908       L1    22  0.99
      P1  H  7989  7998       L1    27  0.66
      P1  H  7997  8008       L1     7  0.01
      P1  H  8011  8017       L1    27  0.01
      P1  H 10752 10764       L1    15  0.48

> <Gold.Chemscore.Hbond.Weighted>
-10.8383

> <Gold.Chemscore.Metal.Weighted>
-0.0000

> <Gold.Chemscore.Lipo.Weighted>
-5.6065

> <Gold.Chemscore.Internal_Hbond.Weighted>
0.0000

> <Gold.Chemscore.DEClash.Weighted>
0.1617

> <Gold.Chemscore.DEInternal.Weighted>
5.3484

> <Gold.Chemscore.Rot.Weighted>
10.2274

> <Gold.Chemscore.Internal.Correction.Weighted>
   9.000000E+99

> <Gold.Protein.RotatedTorsions>
[ 6907 6896 6895 6894 ] final -149.28 input  -60.11 | X-H torsion
[ 7974 7965 7964 7962 ] final -144.29 input  175.53 | X-H torsion
[ 8008 7997 7996 7995 ] final  -82.53 input   59.86 | X-H torsion
[ 10167 10162 10161 10158 ] final -131.35 input  -65.29 | X-H torsion
[ 10718 10713 10712 10709 ] final  126.02 input   66.30 | X-H torsion
[ 10763 10752 10751 10750 ] final   42.88 input  -60.55 | X-H torsion
[ 11005 11000 10999 10996 ] final -105.82 input  -57.11 | X-H torsion

> <Gold.Protein.ActiveResidues>
 VAL166  LYS551  ARG553  GLY616  TRP617  ASP618  TYR619  PRO620  LYS621  CYS622 
 ASP623  PHE694  ASN695  SER759  ASP760  ASP761  ALA762  ILE779  LEU786  VAL792 
 PHE793  MET794  SER795  GLU796  ALA797  LYS798  CYS799  TRP800  GLU811  SER814 

> <Gold.Protein.RotatedAtoms>
  151.1818  133.4720  159.2593 H   0  0  0  0  0  0  0  0  0  0  0  0  # atno 6907 bound_to 6896
  151.1251  135.0100  159.8566 H   0  0  0  0  0  0  0  0  0  0  0  0  # atno 6908 bound_to 6896
  152.5458  134.1726  159.8656 H   0  0  0  0  0  0  0  0  0  0  0  0  # atno 6909 bound_to 6896
  144.8308  140.5728  143.5516 H   0  0  0  0  0  0  0  0  0  0  0  0  # atno 7974 bound_to 7965
  154.6096  140.0632  156.9476 H   0  0  0  0  0  0  0  0  0  0  0  0  # atno 8008 bound_to 7997
  155.1995  140.3314  155.4327 H   0  0  0  0  0  0  0  0  0  0  0  0  # atno 8009 bound_to 7997
  156.2369  140.1867  156.7079 H   0  0  0  0  0  0  0  0  0  0  0  0  # atno 8010 bound_to 7997
  139.9198  143.6395  152.2556 H   0  0  0  0  0  0  0  0  0  0  0  0  # atno 10167 bound_to 10162
  157.5454  131.1096  150.8790 H   0  0  0  0  0  0  0  0  0  0  0  0  # atno 10718 bound_to 10713
  152.9873  135.6118  154.3021 H   0  0  0  0  0  0  0  0  0  0  0  0  # atno 10763 bound_to 10752
  154.2741  135.2779  155.2727 H   0  0  0  0  0  0  0  0  0  0  0  0  # atno 10764 bound_to 10752
  154.5096  135.5844  153.6651 H   0  0  0  0  0  0  0  0  0  0  0  0  # atno 10765 bound_to 10752
  141.1035  133.8840  157.1781 H   0  0  0  0  0  0  0  0  0  0  0  0  # atno 11005 bound_to 11000
  145.4900  139.1489  143.3715 LP  0  0  0  0  0  0  0  0  0  0  0  0  # atno 17320 bound_to 7965
  146.2611  140.5038  142.8853 LP  0  0  0  0  0  0  0  0  0  0  0  0  # atno 17321 bound_to 7965
  139.6871  144.7650  151.1504 LP  0  0  0  0  0  0  0  0  0  0  0  0  # atno 17342 bound_to 10162
  140.7665  143.5642  150.9066 LP  0  0  0  0  0  0  0  0  0  0  0  0  # atno 17343 bound_to 10162
  156.9331  130.5357  149.5279 LP  0  0  0  0  0  0  0  0  0  0  0  0  # atno 17370 bound_to 10713
  156.0531  130.5597  150.9033 LP  0  0  0  0  0  0  0  0  0  0  0  0  # atno 17371 bound_to 10713
  139.9895  135.0070  156.9942 LP  0  0  0  0  0  0  0  0  0  0  0  0  # atno 17394 bound_to 11000
  140.4962  134.1143  155.7242 LP  0  0  0  0  0  0  0  0  0  0  0  0  # atno 17395 bound_to 11000

$$$$
