AV-unprocessed.smi:1563|AV-procd|sdf|6289|dock2
  -GOLD-   22720 6483D 1   1.00000     0.00000
 Structure written by MMmdl.
 43 44  0  0  0  0  0  0  0  0  1 V2000
  145.9635  135.1522  153.6510 C   0  0  0  0  0  0  0  0  0  0  0  0
  146.1542  136.4477  154.4322 C   0  0  0  0  0  0  0  0  0  0  0  0
  145.5153  136.6458  155.4649 O   0  0  0  0  0  0  0  0  0  0  0  0
  147.0380  137.3205  153.9251 N   0  0  0  0  0  0  0  0  0  0  0  0
  147.3686  138.6192  154.5041 C   0  0  2  0  0  0  0  0  0  0  0  0
  146.1073  139.5089  154.5346 C   0  0  0  0  0  0  0  0  0  0  0  0
  146.4307  140.9553  154.9536 C   0  0  0  0  0  0  0  0  0  0  0  0
  147.5971  141.5178  154.1240 C   0  0  0  0  0  0  0  0  0  0  0  0
  148.7596  140.6275  154.2840 N   0  0  0  0  0  0  0  0  0  0  0  0
  149.8979  140.9033  154.9704 C   0  0  0  0  0  0  0  0  0  0  0  0
  150.9090  140.2028  154.9077 O   0  0  0  0  0  0  0  0  0  0  0  0
  149.8319  142.0007  155.7437 N   0  0  0  0  0  0  0  0  0  0  0  0
  150.9200  142.5624  156.5400 C   0  0  0  0  0  0  0  0  0  0  0  0
  150.8762  142.0691  157.9979 C   0  0  0  0  0  0  0  0  0  0  0  0
  151.3219  143.1116  159.0104 C   0  0  0  0  0  0  0  0  0  0  0  0
  151.4862  144.4592  158.6253 C   0  0  0  0  0  0  0  0  0  0  0  0
  151.8864  145.3924  159.6011 C   0  0  0  0  0  0  0  0  0  0  0  0
  152.1055  144.9451  160.9183 C   0  0  0  0  0  0  0  0  0  0  0  0
  151.9127  143.5785  161.2024 C   0  0  0  0  0  0  0  0  0  0  0  0
  151.5309  142.6752  160.2740 N   0  0  0  0  0  0  0  0  0  0  0  0
  148.4988  139.3042  153.7025 C   0  0  0  0  0  0  0  0  0  0  0  0
  146.9190  134.6459  153.5104 H   0  0  0  0  0  0  0  0  0  0  0  0
  145.5338  135.3593  152.6705 H   0  0  0  0  0  0  0  0  0  0  0  0
  145.2936  134.4746  154.1815 H   0  0  0  0  0  0  0  0  0  0  0  0
  147.5156  137.0678  153.0723 H   0  0  0  0  0  0  0  0  0  0  0  0
  147.7052  138.4762  155.5329 H   0  0  0  0  0  0  0  0  0  0  0  0
  145.6541  139.5274  153.5424 H   0  0  0  0  0  0  0  0  0  0  0  0
  145.3601  139.0843  155.2060 H   0  0  0  0  0  0  0  0  0  0  0  0
  145.5475  141.5835  154.8356 H   0  0  0  0  0  0  0  0  0  0  0  0
  146.6911  140.9807  156.0126 H   0  0  0  0  0  0  0  0  0  0  0  0
  147.3187  141.5544  153.0700 H   0  0  0  0  0  0  0  0  0  0  0  0
  147.7888  142.5540  154.4030 H   0  0  0  0  0  0  0  0  0  0  0  0
  148.9623  142.5134  155.7471 H   0  0  0  0  0  0  0  0  0  0  0  0
  151.8633  142.2653  156.0815 H   0  0  0  0  0  0  0  0  0  0  0  0
  150.9037  143.6532  156.5262 H   0  0  0  0  0  0  0  0  0  0  0  0
  149.8642  141.7455  158.2457 H   0  0  0  0  0  0  0  0  0  0  0  0
  151.5061  141.1847  158.1014 H   0  0  0  0  0  0  0  0  0  0  0  0
  151.3060  144.7727  157.6075 H   0  0  0  0  0  0  0  0  0  0  0  0
  152.0217  146.4327  159.3442 H   0  0  0  0  0  0  0  0  0  0  0  0
  152.4124  145.6324  161.6926 H   0  0  0  0  0  0  0  0  0  0  0  0
  152.0701  143.2004  162.2017 H   0  0  0  0  0  0  0  0  0  0  0  0
  149.3873  138.6710  153.6897 H   0  0  0  0  0  0  0  0  0  0  0  0
  148.2072  139.4213  152.6575 H   0  0  0  0  0  0  0  0  0  0  0  0
  1  2  1  0  0  0  0
  1 22  1  0  0  0  0
  1 23  1  0  0  0  0
  1 24  1  0  0  0  0
  2  3  2  0  0  0  0
  2  4  1  0  0  0  0
  4  5  1  0  0  0  0
  4 25  1  0  0  0  0
  5 21  1  0  0  0  0
  5  6  1  0  0  0  0
  5 26  1  0  0  0  0
  6  7  1  0  0  0  0
  6 27  1  0  0  0  0
  6 28  1  0  0  0  0
  7  8  1  0  0  0  0
  7 29  1  0  0  0  0
  7 30  1  0  0  0  0
  8  9  1  0  0  0  0
  8 31  1  0  0  0  0
  8 32  1  0  0  0  0
  9 10  1  0  0  0  0
  9 21  1  0  0  0  0
 10 11  2  0  0  0  0
 10 12  1  0  0  0  0
 12 13  1  0  0  0  0
 12 33  1  0  0  0  0
 13 14  1  0  0  0  0
 13 34  1  0  0  0  0
 13 35  1  0  0  0  0
 14 15  1  0  0  0  0
 14 36  1  0  0  0  0
 14 37  1  0  0  0  0
 15 20  1  0  0  0  0
 15 16  2  0  0  0  0
 16 17  1  0  0  0  0
 16 38  1  0  0  0  0
 17 18  2  0  0  0  0
 17 39  1  0  0  0  0
 18 19  1  0  0  0  0
 18 40  1  0  0  0  0
 19 20  2  0  0  0  0
 19 41  1  0  0  0  0
 21 42  1  0  0  0  0
 21 43  1  0  0  0  0
M  END
> <s_m_source_file>
AV-unprocessed.smi

> <i_m_source_file_index>
1563

> <i_lp_mmshare_version>
43012

> <i_f3d_flags>
0

> <s_epik_input>
W0NIM11DKD1PKVtOSF1bQ0BASF0xW0NIMl1bQ0gyXVtDSDJdTihbQ0gyXTEpQyg9TylbTkhdW0NIMl1bQ0gyXWMyW2NIXVtjSF1bY0hdW2NIXW4y

> <s_epik_cmdline>
J2VwaWtfcHl0aG9uJywgJy1waCcsICc3LjAnLCAnLXRuJywgJzgnLCAnLW1hJywgJzIwMCcsICctbWV0YWxfYmluZGluZycsICctaW1hZScsICc8aW5maWxlLm1hZT4nLCAnLW9tYWUnLCAnPG91dGZpbGUubWFlPic=

> <r_epik_Ionization_Penalty>
0.0442074

> <r_epik_Ionization_Penalty_Charging>
0

> <r_epik_Ionization_Penalty_Neutral>
0.0442074

> <r_epik_State_Penalty>
0.0374027

> <r_epik_Charging_Adjusted_Penalty>
0.0374027

> <i_epik_Tot_Q>
0

> <i_epik_Tot_abs_Q>
0

> <r_epik_Metal_State_Penalty>
0.0347963

> <b_epik_Metal_Only>
0

> <s_lp_Force_Field>
OPLS_2005

> <r_lp_Energy>
29.1558

> <b_lp_Chiralities_Consistent>
1

> <s_lp_Variant>
AV-unprocessed.smi:1563-1

> <Gold.Version>
5.8.1

> <Gold.Id.Protein>
6NUR|6NUR_protein|mol2

> <Gold.PLP.Fitness>
42.8096

> <Gold.PLP.PLP>
-37.2733

> <Gold.PLP.part.hbond>
-3.7338

> <Gold.PLP.part.metal>
0.0000

> <Gold.PLP.part.buried>
-1.3079

> <Gold.PLP.part.nonpolar>
-32.6880

> <Gold.PLP.part.repulsive>
0.2344

> <Gold.PLP.ligand.clash>
0.0000

> <Gold.PLP.ligand.torsion>
0.6356

> <Gold.PLP.Chemscore.Hbond>
2.2639

> <Gold.PLP.Chemscore.CHOScore>
0.0000

> <Gold.PLP.Chemscore.Metal>
0.0000

> <Gold.Chemscore.Hbonds>
donor molecule, donor type, donor heavy atom, donor atom, acceptor molecule, acceptor atom, score
      L1  H     4    25       P1  7948  0.94
      L1  H    12    33       P1  8028  0.26
      P1  H  7989  7998       L1    11  1.00

> <Gold.PLP.Chemscore.Internal.Correction>
0.0157

> <Gold.Rescore>
     Score         DG    S(hbond)    S(metal)    S(lipo)     H(rot)  DE(clash)    DE(int)     intcor
     15.55     -17.68       1.48        0.00      98.64       1.68       1.50       0.62       ----

> <Gold.Chemscore.Fitness>
15.5535

> <Gold.Chemscore.DG>
-17.6752

> <Gold.Chemscore.ZeroCoef>
-5.4800

> <Gold.Chemscore.Hbond>
1.4846

> <Gold.Chemscore.Metal>
0.0000

> <Gold.Chemscore.Lipo>
98.6398

> <Gold.Chemscore.Internal_Hbond>
0.0000

> <Gold.Chemscore.DEClash>
1.4990

> <Gold.Chemscore.DEInternal>
0.6227

> <Gold.Chemscore.Rot>
1.6813

> <Gold.Chemscore.Internal.Correction>
   9.000000E+99

> <Gold.Chemscore.Hbonds>
donor molecule, donor type, donor heavy atom, donor atom, acceptor molecule, acceptor atom, score
      L1  H     4    25       P1  7948  0.89
      L1  H    12    33       P1  8028  0.26
      P1  H  7989  7998       L1    11  0.26

> <Gold.Chemscore.Hbond.Weighted>
-4.9586

> <Gold.Chemscore.Metal.Weighted>
-0.0000

> <Gold.Chemscore.Lipo.Weighted>
-11.5409

> <Gold.Chemscore.Internal_Hbond.Weighted>
0.0000

> <Gold.Chemscore.DEClash.Weighted>
1.4990

> <Gold.Chemscore.DEInternal.Weighted>
0.6227

> <Gold.Chemscore.Rot.Weighted>
4.3042

> <Gold.Chemscore.Internal.Correction.Weighted>
   9.000000E+99

> <Gold.Protein.RotatedTorsions>
[ 6907 6896 6895 6894 ] final   69.20 input  -60.11 | X-H torsion
[ 7974 7965 7964 7962 ] final   78.58 input  175.53 | X-H torsion
[ 8008 7997 7996 7995 ] final  123.60 input   59.86 | X-H torsion
[ 10167 10162 10161 10158 ] final -118.78 input  -65.29 | X-H torsion
[ 10718 10713 10712 10709 ] final  177.96 input   66.30 | X-H torsion
[ 10763 10752 10751 10750 ] final   99.52 input  -60.55 | X-H torsion
[ 11005 11000 10999 10996 ] final   44.29 input  -57.11 | X-H torsion

> <Gold.Protein.ActiveResidues>
 VAL166  LYS551  ARG553  GLY616  TRP617  ASP618  TYR619  PRO620  LYS621  CYS622 
 ASP623  PHE694  ASN695  SER759  ASP760  ASP761  ALA762  ILE779  LEU786  VAL792 
 PHE793  MET794  SER795  GLU796  ALA797  LYS798  CYS799  TRP800  GLU811  SER814 

> <Gold.Protein.RotatedAtoms>
  152.4670  134.5051  159.9736 H   0  0  0  0  0  0  0  0  0  0  0  0  # atno 6907 bound_to 6896
  151.5086  133.3483  159.2889 H   0  0  0  0  0  0  0  0  0  0  0  0  # atno 6908 bound_to 6896
  150.8660  134.8052  159.7181 H   0  0  0  0  0  0  0  0  0  0  0  0  # atno 6909 bound_to 6896
  145.6752  139.2508  143.1845 H   0  0  0  0  0  0  0  0  0  0  0  0  # atno 7974 bound_to 7965
  156.2772  140.2759  156.1653 H   0  0  0  0  0  0  0  0  0  0  0  0  # atno 8008 bound_to 7997
  155.0711  140.0387  157.2626 H   0  0  0  0  0  0  0  0  0  0  0  0  # atno 8009 bound_to 7997
  154.7039  140.2655  155.6698 H   0  0  0  0  0  0  0  0  0  0  0  0  # atno 8010 bound_to 7997
  140.0538  143.5034  152.2068 H   0  0  0  0  0  0  0  0  0  0  0  0  # atno 10167 bound_to 10162
  156.8977  130.9868  151.3040 H   0  0  0  0  0  0  0  0  0  0  0  0  # atno 10718 bound_to 10713
  153.3024  135.4110  155.1264 H   0  0  0  0  0  0  0  0  0  0  0  0  # atno 10763 bound_to 10752
  154.8553  135.3545  154.5833 H   0  0  0  0  0  0  0  0  0  0  0  0  # atno 10764 bound_to 10752
  153.6259  135.7062  153.5351 H   0  0  0  0  0  0  0  0  0  0  0  0  # atno 10765 bound_to 10752
  140.1566  134.4394  155.8346 H   0  0  0  0  0  0  0  0  0  0  0  0  # atno 11005 bound_to 11000
  146.1011  140.7542  142.9548 LP  0  0  0  0  0  0  0  0  0  0  0  0  # atno 17320 bound_to 7965
  144.7044  140.3789  143.7130 LP  0  0  0  0  0  0  0  0  0  0  0  0  # atno 17321 bound_to 7965
  139.5936  144.7559  151.3340 LP  0  0  0  0  0  0  0  0  0  0  0  0  # atno 17342 bound_to 10162
  140.7204  143.7151  150.7739 LP  0  0  0  0  0  0  0  0  0  0  0  0  # atno 17343 bound_to 10162
  157.6045  130.8537  149.8854 LP  0  0  0  0  0  0  0  0  0  0  0  0  # atno 17370 bound_to 10713
  156.0597  130.3702  150.1009 LP  0  0  0  0  0  0  0  0  0  0  0  0  # atno 17371 bound_to 10713
  141.2205  133.6895  156.7518 LP  0  0  0  0  0  0  0  0  0  0  0  0  # atno 17394 bound_to 11000
  140.2540  134.8518  157.3695 LP  0  0  0  0  0  0  0  0  0  0  0  0  # atno 17395 bound_to 11000

$$$$
