AV-unprocessed.smi:17|AV-procd|sdf|103|dock3
  -GOLD-   2262015253D 1   1.00000     0.00000
 Structure written by MMmdl.
 57 59  0  0  0  0  0  0  0  0  1 V2000
  146.6003  126.6371  154.6242 C   0  0  0  0  0  0  0  0  0  0  0  0
  147.3172  127.4197  153.5125 C   0  0  0  0  0  0  0  0  0  0  0  0
  148.3925  128.2812  154.0132 N   0  0  0  0  0  0  0  0  0  0  0  0
  148.2494  129.6277  153.8708 C   0  0  0  0  0  0  0  0  0  0  0  0
  148.9390  130.4569  154.6994 N   0  0  0  0  0  0  0  0  0  0  0  0
  148.8165  131.7824  154.5927 C   0  0  0  0  0  0  0  0  0  0  0  0
  148.0708  132.4839  153.7389 N   0  0  0  0  0  0  0  0  0  0  0  0
  147.3769  131.6630  152.9008 C   0  0  0  0  0  0  0  0  0  0  0  0
  147.4028  130.2383  152.8990 C   0  0  0  0  0  0  0  0  0  0  0  0
  146.5716  129.7595  151.8919 N   0  0  0  0  0  0  0  0  0  0  0  0
  146.0852  130.8336  151.3337 C   0  0  0  0  0  0  0  0  0  0  0  0
  146.5216  132.0206  151.8732 N   0  0  0  0  0  0  0  0  0  0  0  0
  146.1474  133.3557  151.4395 C   0  0  0  0  0  0  0  0  0  0  0  0
  144.7002  133.7469  151.8420 C   0  0  2  0  0  0  0  0  0  0  0  0
  143.6525  133.0686  150.9218 C   0  0  0  0  0  0  0  0  0  0  0  0
  143.5727  133.7135  149.6674 O   0  0  0  0  0  0  0  0  0  0  0  0
  144.5331  135.2947  151.9356 C   0  0  2  0  0  0  0  0  0  0  0  0
  145.7237  136.0046  152.5743 C   0  0  0  0  0  0  0  0  0  0  0  0
  145.4228  135.9500  154.0742 C   0  0  0  0  0  0  0  0  0  0  0  0
  144.0281  135.6884  154.1861 O   0  0  0  0  0  0  0  0  0  0  0  0
  143.4389  135.7757  152.8976 C   0  0  0  0  0  0  0  0  0  0  0  0
  149.3901  127.7640  154.9613 C   0  0  1  0  0  0  0  0  0  0  0  0
  150.8259  128.0213  154.4730 C   0  0  0  0  0  0  0  0  0  0  0  0
  149.1762  128.2919  156.3965 C   0  0  0  0  0  0  0  0  0  0  0  0
  150.2961  127.4988  157.6402 S   0  0  0  0  0  0  0  0  0  0  0  0
  149.1149  126.6700  158.7823 C   0  0  0  0  0  0  0  0  0  0  0  0
  151.0999  126.4591  156.9792 O   0  0  0  0  0  0  0  0  0  0  0  0
  150.9638  128.5696  158.3953 O   0  0  0  0  0  0  0  0  0  0  0  0
  145.8403  125.9804  154.2012 H   0  0  0  0  0  0  0  0  0  0  0  0
  146.1010  127.3040  155.3272 H   0  0  0  0  0  0  0  0  0  0  0  0
  147.2954  126.0159  155.1889 H   0  0  0  0  0  0  0  0  0  0  0  0
  147.7318  126.7031  152.8050 H   0  0  0  0  0  0  0  0  0  0  0  0
  146.5982  128.0031  152.9405 H   0  0  0  0  0  0  0  0  0  0  0  0
  149.4005  132.3643  155.2904 H   0  0  0  0  0  0  0  0  0  0  0  0
  145.3958  130.7904  150.5029 H   0  0  0  0  0  0  0  0  0  0  0  0
  146.8780  134.0423  151.8628 H   0  0  0  0  0  0  0  0  0  0  0  0
  146.2672  133.4182  150.3572 H   0  0  0  0  0  0  0  0  0  0  0  0
  144.5285  133.3411  152.8401 H   0  0  0  0  0  0  0  0  0  0  0  0
  143.8917  132.0185  150.7569 H   0  0  0  0  0  0  0  0  0  0  0  0
  142.6653  133.0609  151.3805 H   0  0  0  0  0  0  0  0  0  0  0  0
  142.8120  134.2744  149.6656 H   0  0  0  0  0  0  0  0  0  0  0  0
  144.3457  135.6879  150.9354 H   0  0  0  0  0  0  0  0  0  0  0  0
  146.6995  135.5881  152.3318 H   0  0  0  0  0  0  0  0  0  0  0  0
  145.7348  137.0464  152.2498 H   0  0  0  0  0  0  0  0  0  0  0  0
  145.9722  135.1421  154.5579 H   0  0  0  0  0  0  0  0  0  0  0  0
  145.6856  136.8844  154.5707 H   0  0  0  0  0  0  0  0  0  0  0  0
  143.2061  136.8230  152.6982 H   0  0  0  0  0  0  0  0  0  0  0  0
  142.4981  135.2323  152.8410 H   0  0  0  0  0  0  0  0  0  0  0  0
  149.2844  126.6815  155.0322 H   0  0  0  0  0  0  0  0  0  0  0  0
  151.5531  127.5474  155.1327 H   0  0  0  0  0  0  0  0  0  0  0  0
  151.0556  129.0864  154.4419 H   0  0  0  0  0  0  0  0  0  0  0  0
  150.9810  127.6159  153.4728 H   0  0  0  0  0  0  0  0  0  0  0  0
  149.4092  129.3567  156.4162 H   0  0  0  0  0  0  0  0  0  0  0  0
  148.1457  128.1962  156.7359 H   0  0  0  0  0  0  0  0  0  0  0  0
  149.6626  126.2646  159.6324 H   0  0  0  0  0  0  0  0  0  0  0  0
  148.6101  125.8551  158.2693 H   0  0  0  0  0  0  0  0  0  0  0  0
  148.3794  127.3910  159.1384 H   0  0  0  0  0  0  0  0  0  0  0  0
  1  2  1  0  0  0  0
  1 29  1  0  0  0  0
  1 30  1  0  0  0  0
  1 31  1  0  0  0  0
  2  3  1  0  0  0  0
  2 32  1  0  0  0  0
  2 33  1  0  0  0  0
  3  4  1  0  0  0  0
  3 22  1  0  0  0  0
  4  9  1  0  0  0  0
  4  5  2  0  0  0  0
  5  6  1  0  0  0  0
  6  7  2  0  0  0  0
  6 34  1  0  0  0  0
  7  8  1  0  0  0  0
  8 12  1  0  0  0  0
  8  9  2  0  0  0  0
  9 10  1  0  0  0  0
 10 11  2  0  0  0  0
 11 12  1  0  0  0  0
 11 35  1  0  0  0  0
 12 13  1  0  0  0  0
 13 14  1  0  0  0  0
 13 36  1  0  0  0  0
 13 37  1  0  0  0  0
 14 15  1  0  0  0  0
 14 17  1  0  0  0  0
 14 38  1  0  0  0  0
 15 16  1  0  0  0  0
 15 39  1  0  0  0  0
 15 40  1  0  0  0  0
 16 41  1  0  0  0  0
 17 21  1  0  0  0  0
 17 18  1  0  0  0  0
 17 42  1  0  0  0  0
 18 19  1  0  0  0  0
 18 43  1  0  0  0  0
 18 44  1  0  0  0  0
 19 20  1  0  0  0  0
 19 45  1  0  0  0  0
 19 46  1  0  0  0  0
 20 21  1  0  0  0  0
 21 47  1  0  0  0  0
 21 48  1  0  0  0  0
 22 23  1  0  0  0  0
 22 24  1  0  0  0  0
 22 49  1  0  0  0  0
 23 50  1  0  0  0  0
 23 51  1  0  0  0  0
 23 52  1  0  0  0  0
 24 25  1  0  0  0  0
 24 53  1  0  0  0  0
 24 54  1  0  0  0  0
 25 26  1  0  0  0  0
 25 27  2  0  0  0  0
 25 28  2  0  0  0  0
 26 55  1  0  0  0  0
 26 56  1  0  0  0  0
 26 57  1  0  0  0  0
M  END
> <s_m_source_file>
AV-unprocessed.smi

> <i_m_source_file_index>
17

> <i_lp_mmshare_version>
43012

> <i_f3d_flags>
0

> <s_epik_input>
W0NIM11TKD1PKSg9TylbQ0gyXVtDQEBIXShbQ0gzXSlOKFtDSDJdW0NIM10pYyhuW2NIXW4xKWMoYzEyKW5bY0hdbjJbQ0gyXVtDQEhdKFtDSDJdW09IXSlbQ0BASF0zW0NIMl1bQ0gyXU9bQ0gyXTM=

> <s_epik_cmdline>
J2VwaWtfcHl0aG9uJywgJy1waCcsICc3LjAnLCAnLXRuJywgJzgnLCAnLW1hJywgJzIwMCcsICctbWV0YWxfYmluZGluZycsICctaW1hZScsICc8aW5maWxlLm1hZT4nLCAnLW9tYWUnLCAnPG91dGZpbGUubWFlPic=

> <r_lp_tautomer_probability>
1

> <r_epik_Ionization_Penalty>
0.00119955

> <r_epik_Ionization_Penalty_Charging>
0

> <r_epik_Ionization_Penalty_Neutral>
0.00119955

> <r_epik_State_Penalty>
0.000665399

> <r_epik_Charging_Adjusted_Penalty>
0.000665399

> <i_epik_Tot_Q>
0

> <i_epik_Tot_abs_Q>
0

> <r_epik_Metal_State_Penalty>
-0

> <b_epik_Metal_Only>
0

> <s_lp_Force_Field>
OPLS_2005

> <r_lp_Energy>
34.7732

> <b_lp_Chiralities_Consistent>
1

> <s_lp_Variant>
AV-unprocessed.smi:17-5

> <Gold.Version>
5.8.1

> <Gold.Id.Protein>
6NUR|6NUR_protein|mol2

> <Gold.PLP.Fitness>
43.2060

> <Gold.PLP.PLP>
-37.7576

> <Gold.PLP.part.hbond>
-2.0000

> <Gold.PLP.part.metal>
0.0000

> <Gold.PLP.part.buried>
-5.7706

> <Gold.PLP.part.nonpolar>
-30.9760

> <Gold.PLP.part.repulsive>
1.5937

> <Gold.PLP.ligand.clash>
0.0000

> <Gold.PLP.ligand.torsion>
1.2534

> <Gold.PLP.Chemscore.Hbond>
2.0000

> <Gold.PLP.Chemscore.CHOScore>
0.0000

> <Gold.PLP.Chemscore.Metal>
0.0000

> <Gold.Chemscore.Hbonds>
donor molecule, donor type, donor heavy atom, donor atom, acceptor molecule, acceptor atom, score
      L1  H    16    41       P1 10186  0.98

> <Gold.PLP.Chemscore.Internal.Correction>
1.9552

> <Gold.Rescore>
     Score         DG    S(hbond)    S(metal)    S(lipo)     H(rot)  DE(clash)    DE(int)     intcor
      5.80     -10.03       1.99        0.00      58.84       3.51       0.14       4.08       ----

> <Gold.Chemscore.Fitness>
5.8040

> <Gold.Chemscore.DG>
-10.0271

> <Gold.Chemscore.ZeroCoef>
-5.4800

> <Gold.Chemscore.Hbond>
1.9873

> <Gold.Chemscore.Metal>
0.0000

> <Gold.Chemscore.Lipo>
58.8416

> <Gold.Chemscore.Internal_Hbond>
0.0000

> <Gold.Chemscore.DEClash>
0.1382

> <Gold.Chemscore.DEInternal>
4.0849

> <Gold.Chemscore.Rot>
3.5059

> <Gold.Chemscore.Internal.Correction>
   9.000000E+99

> <Gold.Chemscore.Hbonds>
donor molecule, donor type, donor heavy atom, donor atom, acceptor molecule, acceptor atom, score
      L1  H    16    41       P1 10186  0.93

> <Gold.Chemscore.Hbond.Weighted>
-6.6376

> <Gold.Chemscore.Metal.Weighted>
-0.0000

> <Gold.Chemscore.Lipo.Weighted>
-6.8845

> <Gold.Chemscore.Internal_Hbond.Weighted>
0.0000

> <Gold.Chemscore.DEClash.Weighted>
0.1382

> <Gold.Chemscore.DEInternal.Weighted>
4.0849

> <Gold.Chemscore.Rot.Weighted>
8.9750

> <Gold.Chemscore.Internal.Correction.Weighted>
   9.000000E+99

> <Gold.Protein.RotatedTorsions>
[ 6907 6896 6895 6894 ] final  -73.43 input  -60.11 | X-H torsion
[ 7974 7965 7964 7962 ] final    6.94 input  175.53 | X-H torsion
[ 8008 7997 7996 7995 ] final  -78.42 input   59.86 | X-H torsion
[ 10167 10162 10161 10158 ] final  164.68 input  -65.29 | X-H torsion
[ 10718 10713 10712 10709 ] final   18.43 input   66.30 | X-H torsion
[ 10763 10752 10751 10750 ] final  -79.32 input  -60.55 | X-H torsion
[ 11005 11000 10999 10996 ] final  -72.97 input  -57.11 | X-H torsion

> <Gold.Protein.ActiveResidues>
 VAL166  LYS551  ARG553  GLY616  TRP617  ASP618  TYR619  PRO620  LYS621  CYS622 
 ASP623  PHE694  ASN695  SER759  ASP760  ASP761  ALA762  ILE779  LEU786  VAL792 
 PHE793  MET794  SER795  GLU796  ALA797  LYS798  CYS799  TRP800  GLU811  SER814 

> <Gold.Protein.RotatedAtoms>
  150.7130  134.5017  159.5564 H   0  0  0  0  0  0  0  0  0  0  0  0  # atno 6907 bound_to 6896
  152.2613  134.8028  160.0439 H   0  0  0  0  0  0  0  0  0  0  0  0  # atno 6908 bound_to 6896
  151.8740  133.3446  159.3781 H   0  0  0  0  0  0  0  0  0  0  0  0  # atno 6909 bound_to 6896
  146.2431  140.0158  142.8402 H   0  0  0  0  0  0  0  0  0  0  0  0  # atno 7974 bound_to 7965
  154.5687  140.0694  156.8932 H   0  0  0  0  0  0  0  0  0  0  0  0  # atno 8008 bound_to 7997
  155.2674  140.3363  155.4250 H   0  0  0  0  0  0  0  0  0  0  0  0  # atno 8009 bound_to 7997
  156.2101  140.1756  156.7698 H   0  0  0  0  0  0  0  0  0  0  0  0  # atno 8010 bound_to 7997
  139.4893  144.4210  151.9186 H   0  0  0  0  0  0  0  0  0  0  0  0  # atno 10167 bound_to 10162
  157.0962  130.6448  149.5861 H   0  0  0  0  0  0  0  0  0  0  0  0  # atno 10718 bound_to 10713
  154.5372  135.5699  153.6808 H   0  0  0  0  0  0  0  0  0  0  0  0  # atno 10763 bound_to 10752
  152.9954  135.6219  154.2550 H   0  0  0  0  0  0  0  0  0  0  0  0  # atno 10764 bound_to 10752
  154.2480  135.2860  155.2807 H   0  0  0  0  0  0  0  0  0  0  0  0  # atno 10765 bound_to 10752
  141.1616  133.6863  156.7140 H   0  0  0  0  0  0  0  0  0  0  0  0  # atno 11005 bound_to 11000
  145.1286  140.9504  143.4558 LP  0  0  0  0  0  0  0  0  0  0  0  0  # atno 17320 bound_to 7965
  145.0410  139.3260  143.5976 LP  0  0  0  0  0  0  0  0  0  0  0  0  # atno 17321 bound_to 7965
  140.3654  144.2921  150.5927 LP  0  0  0  0  0  0  0  0  0  0  0  0  # atno 17342 bound_to 10162
  140.5366  143.2232  151.8153 LP  0  0  0  0  0  0  0  0  0  0  0  0  # atno 17343 bound_to 10162
  155.9885  130.4929  150.7174 LP  0  0  0  0  0  0  0  0  0  0  0  0  # atno 17370 bound_to 10713
  157.4679  131.0890  151.0674 LP  0  0  0  0  0  0  0  0  0  0  0  0  # atno 17371 bound_to 10713
  140.2865  134.8275  157.3980 LP  0  0  0  0  0  0  0  0  0  0  0  0  # atno 17394 bound_to 11000
  140.1385  134.5002  155.8050 LP  0  0  0  0  0  0  0  0  0  0  0  0  # atno 17395 bound_to 11000

$$$$
