AV-unprocessed.smi:3030|AV-procd|sdf|11539|dock3
  -GOLD-   2272016483D 1   1.00000     0.00000
 Structure written by MMmdl.
 52 53  0  0  0  0  0  0  0  0  1 V2000
  152.5097  145.0558  158.1706 C   0  0  0  0  0  0  0  0  0  0  0  0
  152.0145  144.3181  159.4194 C   0  0  0  0  0  0  0  0  0  0  0  0
  152.1297  142.8743  159.2743 N   0  0  0  0  0  0  0  0  0  0  0  0
  151.4832  142.1969  158.2460 C   0  0  0  0  0  0  0  0  0  0  0  0
  151.5916  140.8719  158.0296 C   0  0  0  0  0  0  0  0  0  0  0  0
  152.4466  140.0610  158.9201 C   0  0  0  0  0  0  0  0  0  0  0  0
  152.5696  138.8479  158.7509 O   0  0  0  0  0  0  0  0  0  0  0  0
  153.1409  140.7852  160.0177 C   0  0  0  0  0  0  0  0  0  0  0  0
  153.9564  140.0064  160.8553 N   0  0  0  0  0  0  0  0  0  0  0  0
  154.5497  140.3357  162.0169 C   0  0  0  0  0  0  0  0  0  0  0  0
  154.4705  141.4237  162.5867 O   0  0  0  0  0  0  0  0  0  0  0  0
  155.2444  139.2980  162.5056 N   0  0  0  0  0  0  0  0  0  0  0  0
  155.9766  139.2843  163.7683 C   0  0  2  0  0  0  0  0  0  0  0  0
  157.4727  139.0030  163.5345 C   0  0  0  0  0  0  0  0  0  0  0  0
  158.2809  139.1967  164.8335 C   0  0  2  0  0  0  0  0  0  0  0  0
  159.7678  138.8761  164.6244 C   0  0  0  0  0  0  0  0  0  0  0  0
  157.6789  138.3714  165.9893 C   0  0  0  0  0  0  0  0  0  0  0  0
  156.1695  138.6348  166.1550 C   0  0  0  0  0  0  0  0  0  0  0  0
  155.3776  138.3402  164.8556 C   0  0  2  0  0  0  0  0  0  0  0  0
  155.3124  136.8112  164.5051 C   0  0  0  0  0  0  0  0  0  0  0  0
  156.6827  136.1786  164.1889 C   0  0  0  0  0  0  0  0  0  0  0  0
  154.3729  136.5201  163.3170 C   0  0  0  0  0  0  0  0  0  0  0  0
  152.9462  142.1250  160.1192 C   0  0  0  0  0  0  0  0  0  0  0  0
  152.4190  146.1346  158.2969 H   0  0  0  0  0  0  0  0  0  0  0  0
  151.9304  144.7736  157.2910 H   0  0  0  0  0  0  0  0  0  0  0  0
  153.5572  144.8306  157.9692 H   0  0  0  0  0  0  0  0  0  0  0  0
  152.5841  144.6434  160.2908 H   0  0  0  0  0  0  0  0  0  0  0  0
  150.9751  144.5817  159.6186 H   0  0  0  0  0  0  0  0  0  0  0  0
  150.8666  142.8240  157.6181 H   0  0  0  0  0  0  0  0  0  0  0  0
  151.0672  140.3877  157.2187 H   0  0  0  0  0  0  0  0  0  0  0  0
  154.0912  139.0572  160.5386 H   0  0  0  0  0  0  0  0  0  0  0  0
  155.2525  138.4414  161.9717 H   0  0  0  0  0  0  0  0  0  0  0  0
  155.9165  140.3054  164.1513 H   0  0  0  0  0  0  0  0  0  0  0  0
  157.6137  137.9941  163.1459 H   0  0  0  0  0  0  0  0  0  0  0  0
  157.8572  139.6787  162.7692 H   0  0  0  0  0  0  0  0  0  0  0  0
  158.2112  140.2497  165.1112 H   0  0  0  0  0  0  0  0  0  0  0  0
  159.9127  137.8326  164.3430 H   0  0  0  0  0  0  0  0  0  0  0  0
  160.3411  139.0588  165.5336 H   0  0  0  0  0  0  0  0  0  0  0  0
  160.1956  139.4960  163.8359 H   0  0  0  0  0  0  0  0  0  0  0  0
  157.8532  137.3087  165.8203 H   0  0  0  0  0  0  0  0  0  0  0  0
  158.1921  138.6161  166.9200 H   0  0  0  0  0  0  0  0  0  0  0  0
  155.7770  138.0785  167.0042 H   0  0  0  0  0  0  0  0  0  0  0  0
  156.0278  139.6818  166.4268 H   0  0  0  0  0  0  0  0  0  0  0  0
  154.3514  138.6612  165.0402 H   0  0  0  0  0  0  0  0  0  0  0  0
  154.9062  136.2690  165.3584 H   0  0  0  0  0  0  0  0  0  0  0  0
  157.2373  136.7710  163.4603 H   0  0  0  0  0  0  0  0  0  0  0  0
  156.5727  135.1743  163.7789 H   0  0  0  0  0  0  0  0  0  0  0  0
  157.2963  136.0660  165.0806 H   0  0  0  0  0  0  0  0  0  0  0  0
  154.6460  137.1105  162.4417 H   0  0  0  0  0  0  0  0  0  0  0  0
  153.3312  136.7282  163.5578 H   0  0  0  0  0  0  0  0  0  0  0  0
  154.4099  135.4689  163.0297 H   0  0  0  0  0  0  0  0  0  0  0  0
  153.4175  142.7326  160.8751 H   0  0  0  0  0  0  0  0  0  0  0  0
  1  2  1  0  0  0  0
  1 24  1  0  0  0  0
  1 25  1  0  0  0  0
  1 26  1  0  0  0  0
  2  3  1  0  0  0  0
  2 27  1  0  0  0  0
  2 28  1  0  0  0  0
  3 23  1  0  0  0  0
  3  4  1  0  0  0  0
  4  5  2  0  0  0  0
  4 29  1  0  0  0  0
  5  6  1  0  0  0  0
  5 30  1  0  0  0  0
  6  7  2  0  0  0  0
  6  8  1  0  0  0  0
  8  9  1  0  0  0  0
  8 23  2  0  0  0  0
  9 10  1  0  0  0  0
  9 31  1  0  0  0  0
 10 11  2  0  0  0  0
 10 12  1  0  0  0  0
 12 13  1  0  0  0  0
 12 32  1  0  0  0  0
 13 19  1  0  0  0  0
 13 14  1  0  0  0  0
 13 33  1  0  0  0  0
 14 15  1  0  0  0  0
 14 34  1  0  0  0  0
 14 35  1  0  0  0  0
 15 16  1  0  0  0  0
 15 17  1  0  0  0  0
 15 36  1  0  0  0  0
 16 37  1  0  0  0  0
 16 38  1  0  0  0  0
 16 39  1  0  0  0  0
 17 18  1  0  0  0  0
 17 40  1  0  0  0  0
 17 41  1  0  0  0  0
 18 19  1  0  0  0  0
 18 42  1  0  0  0  0
 18 43  1  0  0  0  0
 19 20  1  0  0  0  0
 19 44  1  0  0  0  0
 20 21  1  0  0  0  0
 20 22  1  0  0  0  0
 20 45  1  0  0  0  0
 21 46  1  0  0  0  0
 21 47  1  0  0  0  0
 21 48  1  0  0  0  0
 22 49  1  0  0  0  0
 22 50  1  0  0  0  0
 22 51  1  0  0  0  0
 23 52  1  0  0  0  0
M  END
> <s_m_source_file>
AV-unprocessed.smi

> <i_m_source_file_index>
3030

> <i_lp_mmshare_version>
43012

> <i_f3d_flags>
0

> <s_epik_input>
W0NIM11bQ0gyXW4xW2NIXVtjSF1jKD1PKWMoW2NIXTEpW05IXUMoPU8pW05IXVtDQEBIXTJbQ0gyXVtDQEBIXShbQ0gzXSlbQ0gyXVtDSDJdW0NASF0yW0NIXShbQ0gzXSlbQ0gzXQ==

> <s_epik_cmdline>
J2VwaWtfcHl0aG9uJywgJy1waCcsICc3LjAnLCAnLXRuJywgJzgnLCAnLW1hJywgJzIwMCcsICctbWV0YWxfYmluZGluZycsICctaW1hZScsICc8aW5maWxlLm1hZT4nLCAnLW9tYWUnLCAnPG91dGZpbGUubWFlPic=

> <r_lp_tautomer_probability>
1

> <r_epik_Ionization_Penalty>
0.00147933

> <r_epik_Ionization_Penalty_Charging>
0.00145753

> <r_epik_Ionization_Penalty_Neutral>
2.17987e-05

> <r_epik_State_Penalty>
0.00097457

> <r_epik_Charging_Adjusted_Penalty>
0.0024321

> <i_epik_Tot_Q>
0

> <i_epik_Tot_abs_Q>
0

> <r_epik_Metal_State_Penalty>
-0

> <b_epik_Metal_Only>
0

> <s_lp_Force_Field>
OPLS_2005

> <r_lp_Energy>
13.9811

> <b_lp_Chiralities_Consistent>
1

> <s_lp_Variant>
AV-unprocessed.smi:3030-7

> <Gold.Version>
5.8.1

> <Gold.Id.Protein>
6NUR|6NUR_protein|mol2

> <Gold.PLP.Fitness>
41.0458

> <Gold.PLP.PLP>
-41.0993

> <Gold.PLP.part.hbond>
-1.0000

> <Gold.PLP.part.metal>
0.0000

> <Gold.PLP.part.buried>
-6.0927

> <Gold.PLP.part.nonpolar>
-33.3956

> <Gold.PLP.part.repulsive>
0.0338

> <Gold.PLP.ligand.clash>
0.0000

> <Gold.PLP.ligand.torsion>
0.0791

> <Gold.PLP.Chemscore.Hbond>
0.0000

> <Gold.PLP.Chemscore.CHOScore>
0.0000

> <Gold.PLP.Chemscore.Metal>
0.0000

> <Gold.PLP.Chemscore.Internal.Correction>
0.1049

> <Gold.Rescore>
     Score         DG    S(hbond)    S(metal)    S(lipo)     H(rot)  DE(clash)    DE(int)     intcor
     11.53     -14.15       0.00        0.00     101.88       1.27       0.05       2.58       ----

> <Gold.Chemscore.Fitness>
11.5302

> <Gold.Chemscore.DG>
-14.1531

> <Gold.Chemscore.ZeroCoef>
-5.4800

> <Gold.Chemscore.Hbond>
0.0000

> <Gold.Chemscore.Metal>
0.0000

> <Gold.Chemscore.Lipo>
101.8849

> <Gold.Chemscore.Internal_Hbond>
0.0000

> <Gold.Chemscore.DEClash>
0.0477

> <Gold.Chemscore.DEInternal>
2.5752

> <Gold.Chemscore.Rot>
1.2685

> <Gold.Chemscore.Internal.Correction>
   9.000000E+99

> <Gold.Chemscore.Hbond.Weighted>
-0.0000

> <Gold.Chemscore.Metal.Weighted>
-0.0000

> <Gold.Chemscore.Lipo.Weighted>
-11.9205

> <Gold.Chemscore.Internal_Hbond.Weighted>
0.0000

> <Gold.Chemscore.DEClash.Weighted>
0.0477

> <Gold.Chemscore.DEInternal.Weighted>
2.5752

> <Gold.Chemscore.Rot.Weighted>
3.2474

> <Gold.Chemscore.Internal.Correction.Weighted>
   9.000000E+99

> <Gold.Protein.RotatedTorsions>
[ 6907 6896 6895 6894 ] final  -40.92 input  -60.11 | X-H torsion
[ 7974 7965 7964 7962 ] final  148.74 input  175.53 | X-H torsion
[ 8008 7997 7996 7995 ] final  163.91 input   59.86 | X-H torsion
[ 10167 10162 10161 10158 ] final  103.64 input  -65.29 | X-H torsion
[ 10718 10713 10712 10709 ] final  -58.30 input   66.30 | X-H torsion
[ 10763 10752 10751 10750 ] final -122.35 input  -60.55 | X-H torsion
[ 11005 11000 10999 10996 ] final -139.96 input  -57.11 | X-H torsion

> <Gold.Protein.ActiveResidues>
 VAL166  LYS551  ARG553  GLY616  TRP617  ASP618  TYR619  PRO620  LYS621  CYS622 
 ASP623  PHE694  ASN695  SER759  ASP760  ASP761  ALA762  ILE779  LEU786  VAL792 
 PHE793  MET794  SER795  GLU796  ALA797  LYS798  CYS799  TRP800  GLU811  SER814 

> <Gold.Protein.RotatedAtoms>
  150.9728  134.9098  159.7797 H   0  0  0  0  0  0  0  0  0  0  0  0  # atno 6907 bound_to 6896
  152.5196  134.3517  159.9263 H   0  0  0  0  0  0  0  0  0  0  0  0  # atno 6908 bound_to 6896
  151.3526  133.3879  159.2716 H   0  0  0  0  0  0  0  0  0  0  0  0  # atno 6909 bound_to 6896
  144.8490  139.6192  143.5982 H   0  0  0  0  0  0  0  0  0  0  0  0  # atno 7974 bound_to 7965
  156.1921  140.1711  156.8072 H   0  0  0  0  0  0  0  0  0  0  0  0  # atno 8008 bound_to 7997
  154.5484  140.0722  156.8658 H   0  0  0  0  0  0  0  0  0  0  0  0  # atno 8009 bound_to 7997
  155.3077  140.3365  155.4247 H   0  0  0  0  0  0  0  0  0  0  0  0  # atno 8010 bound_to 7997
  139.7246  144.7050  151.0819 H   0  0  0  0  0  0  0  0  0  0  0  0  # atno 10167 bound_to 10162
  156.1145  130.4172  150.0559 H   0  0  0  0  0  0  0  0  0  0  0  0  # atno 10718 bound_to 10713
  154.8687  135.4136  154.2768 H   0  0  0  0  0  0  0  0  0  0  0  0  # atno 10763 bound_to 10752
  153.3668  135.7006  153.6674 H   0  0  0  0  0  0  0  0  0  0  0  0  # atno 10764 bound_to 10752
  153.5553  135.3621  155.2748 H   0  0  0  0  0  0  0  0  0  0  0  0  # atno 10765 bound_to 10752
  140.8469  134.2334  157.4781 H   0  0  0  0  0  0  0  0  0  0  0  0  # atno 11005 bound_to 11000
  146.2769  139.6776  142.9257 LP  0  0  0  0  0  0  0  0  0  0  0  0  # atno 17320 bound_to 7965
  145.4538  141.0429  143.2790 LP  0  0  0  0  0  0  0  0  0  0  0  0  # atno 17321 bound_to 7965
  140.7760  143.5122  150.9638 LP  0  0  0  0  0  0  0  0  0  0  0  0  # atno 17342 bound_to 10162
  139.8809  143.7073  152.3157 LP  0  0  0  0  0  0  0  0  0  0  0  0  # atno 17343 bound_to 10162
  156.8513  130.9460  151.3625 LP  0  0  0  0  0  0  0  0  0  0  0  0  # atno 17370 bound_to 10713
  157.6328  130.8743  149.9304 LP  0  0  0  0  0  0  0  0  0  0  0  0  # atno 17371 bound_to 10713
  139.8703  134.9663  156.4559 LP  0  0  0  0  0  0  0  0  0  0  0  0  # atno 17394 bound_to 11000
  140.8834  133.7901  155.9491 LP  0  0  0  0  0  0  0  0  0  0  0  0  # atno 17395 bound_to 11000

$$$$
