AV-unprocessed.smi:77|AV-procd|sdf|774|dock6
  -GOLD-   2262017123D 1   1.00000     0.00000
 Structure written by MMmdl.
 57 61  0  0  0  0  0  0  0  0  1 V2000
  146.9533  132.9523  157.0113 O   0  0  0  0  0  0  0  0  0  0  0  0
  147.5939  133.7548  157.6922 C   0  0  0  0  0  0  0  0  0  0  0  0
  146.9825  134.3950  158.9456 C   0  0  0  0  0  0  0  0  0  0  0  0
  147.9171  135.2725  159.6623 N   0  0  0  0  0  0  0  0  0  0  0  0
  148.1409  136.5119  159.1395 C   0  0  0  0  0  0  0  0  0  0  0  0
  147.0976  137.2029  158.6046 N   0  0  0  0  0  0  0  0  0  0  0  0
  147.2790  138.4169  158.0790 C   0  0  0  0  0  0  0  0  0  0  0  0
  148.4063  139.1210  157.9797 N   0  0  0  0  0  0  0  0  0  0  0  0
  149.4611  138.4417  158.5117 C   0  0  0  0  0  0  0  0  0  0  0  0
  149.4180  137.1493  159.1114 C   0  0  0  0  0  0  0  0  0  0  0  0
  150.6889  136.8035  159.5580 N   0  0  0  0  0  0  0  0  0  0  0  0
  151.4366  137.8220  159.2361 C   0  0  0  0  0  0  0  0  0  0  0  0
  150.7857  138.8403  158.5785 N   0  0  0  0  0  0  0  0  0  0  0  0
  151.3765  140.0835  158.1125 C   0  0  0  0  0  0  0  0  0  0  0  0
  152.0131  140.9699  159.2205 C   0  0  1  0  0  0  0  0  0  0  0  0
  153.2339  140.2298  159.8195 C   0  0  0  0  0  0  0  0  0  0  0  0
  154.1205  139.7953  158.8088 O   0  0  0  0  0  0  0  0  0  0  0  0
  152.4081  142.3967  158.7328 C   0  0  1  0  0  0  0  0  0  0  0  0
  151.3500  143.1572  157.9454 C   0  0  0  0  0  0  0  0  0  0  0  0
  151.8096  144.6059  158.0589 C   0  0  0  0  0  0  0  0  0  0  0  0
  152.4853  144.7025  159.3047 O   0  0  0  0  0  0  0  0  0  0  0  0
  152.6545  143.4056  159.8635 C   0  0  0  0  0  0  0  0  0  0  0  0
  147.9903  135.1125  161.1144 C   0  0  0  0  0  0  0  0  0  0  0  0
  146.7099  135.0763  161.9194 C   0  0  0  0  0  0  0  0  0  0  0  0
  147.6199  136.2783  162.0025 C   0  0  0  0  0  0  0  0  0  0  0  0
  148.8512  134.1227  157.4076 N   0  0  0  0  0  0  0  0  0  0  0  0
  149.6228  133.6532  156.3027 C   0  0  0  0  0  0  0  0  0  0  0  0
  150.2372  134.6891  155.3861 C   0  0  0  0  0  0  0  0  0  0  0  0
  149.0666  133.8727  154.9125 C   0  0  0  0  0  0  0  0  0  0  0  0
  146.0697  134.9252  158.6696 H   0  0  0  0  0  0  0  0  0  0  0  0
  146.6641  133.5941  159.6150 H   0  0  0  0  0  0  0  0  0  0  0  0
  146.3949  138.8907  157.6793 H   0  0  0  0  0  0  0  0  0  0  0  0
  152.4932  137.8506  159.4588 H   0  0  0  0  0  0  0  0  0  0  0  0
  152.1227  139.8098  157.3665 H   0  0  0  0  0  0  0  0  0  0  0  0
  150.6129  140.6527  157.5811 H   0  0  0  0  0  0  0  0  0  0  0  0
  151.2906  141.0897  160.0283 H   0  0  0  0  0  0  0  0  0  0  0  0
  153.7708  140.8700  160.5204 H   0  0  0  0  0  0  0  0  0  0  0  0
  152.9339  139.3381  160.3677 H   0  0  0  0  0  0  0  0  0  0  0  0
  154.7871  139.2546  159.2042 H   0  0  0  0  0  0  0  0  0  0  0  0
  153.3126  142.3329  158.1257 H   0  0  0  0  0  0  0  0  0  0  0  0
  151.2757  142.8541  156.9027 H   0  0  0  0  0  0  0  0  0  0  0  0
  150.3695  143.0384  158.4087 H   0  0  0  0  0  0  0  0  0  0  0  0
  152.5157  144.8454  157.2633 H   0  0  0  0  0  0  0  0  0  0  0  0
  150.9796  145.3103  157.9990 H   0  0  0  0  0  0  0  0  0  0  0  0
  151.9176  143.2803  160.6583 H   0  0  0  0  0  0  0  0  0  0  0  0
  153.6468  143.3087  160.3048 H   0  0  0  0  0  0  0  0  0  0  0  0
  148.7995  134.4805  161.4767 H   0  0  0  0  0  0  0  0  0  0  0  0
  145.7696  135.1963  161.3847 H   0  0  0  0  0  0  0  0  0  0  0  0
  146.6770  134.4073  162.7765 H   0  0  0  0  0  0  0  0  0  0  0  0
  148.1917  136.4126  162.9184 H   0  0  0  0  0  0  0  0  0  0  0  0
  147.2742  137.1959  161.5315 H   0  0  0  0  0  0  0  0  0  0  0  0
  149.2989  134.7853  158.0240 H   0  0  0  0  0  0  0  0  0  0  0  0
  150.2025  132.7426  156.4480 H   0  0  0  0  0  0  0  0  0  0  0  0
  150.0584  135.7389  155.6108 H   0  0  0  0  0  0  0  0  0  0  0  0
  151.2116  134.4649  154.9568 H   0  0  0  0  0  0  0  0  0  0  0  0
  149.2594  133.1023  154.1687 H   0  0  0  0  0  0  0  0  0  0  0  0
  148.1063  134.3768  154.8221 H   0  0  0  0  0  0  0  0  0  0  0  0
  1  2  2  0  0  0  0
  2  3  1  0  0  0  0
  2 26  1  0  0  0  0
  3  4  1  0  0  0  0
  3 30  1  0  0  0  0
  3 31  1  0  0  0  0
  4  5  1  0  0  0  0
  4 23  1  0  0  0  0
  5 10  1  0  0  0  0
  5  6  2  0  0  0  0
  6  7  1  0  0  0  0
  7  8  2  0  0  0  0
  7 32  1  0  0  0  0
  8  9  1  0  0  0  0
  9 13  1  0  0  0  0
  9 10  2  0  0  0  0
 10 11  1  0  0  0  0
 11 12  2  0  0  0  0
 12 13  1  0  0  0  0
 12 33  1  0  0  0  0
 13 14  1  0  0  0  0
 14 15  1  0  0  0  0
 14 34  1  0  0  0  0
 14 35  1  0  0  0  0
 15 16  1  0  0  0  0
 15 18  1  0  0  0  0
 15 36  1  0  0  0  0
 16 17  1  0  0  0  0
 16 37  1  0  0  0  0
 16 38  1  0  0  0  0
 17 39  1  0  0  0  0
 18 22  1  0  0  0  0
 18 19  1  0  0  0  0
 18 40  1  0  0  0  0
 19 20  1  0  0  0  0
 19 41  1  0  0  0  0
 19 42  1  0  0  0  0
 20 21  1  0  0  0  0
 20 43  1  0  0  0  0
 20 44  1  0  0  0  0
 21 22  1  0  0  0  0
 22 45  1  0  0  0  0
 22 46  1  0  0  0  0
 23 25  1  0  0  0  0
 23 24  1  0  0  0  0
 23 47  1  0  0  0  0
 24 25  1  0  0  0  0
 24 48  1  0  0  0  0
 24 49  1  0  0  0  0
 25 50  1  0  0  0  0
 25 51  1  0  0  0  0
 26 27  1  0  0  0  0
 26 52  1  0  0  0  0
 27 29  1  0  0  0  0
 27 28  1  0  0  0  0
 27 53  1  0  0  0  0
 28 29  1  0  0  0  0
 28 54  1  0  0  0  0
 28 55  1  0  0  0  0
 29 56  1  0  0  0  0
 29 57  1  0  0  0  0
M  END
> <s_m_source_file>
AV-unprocessed.smi

> <i_m_source_file_index>
77

> <i_lp_mmshare_version>
43012

> <i_f3d_flags>
0

> <s_epik_input>
W0NIMl0xW0NIMl1bQ0hdMVtOSF1DKD1PKVtDSDJdTihbQ0hdMltDSDJdW0NIMl0yKWMobltjSF1uMyljKGMzNCluW2NIXW40W0NIMl1bQ0BIXShbQ0gyXVtPSF0pW0NAQEhdNVtDSDJdW0NIMl1PW0NIMl01

> <s_epik_cmdline>
J2VwaWtfcHl0aG9uJywgJy1waCcsICc3LjAnLCAnLXRuJywgJzgnLCAnLW1hJywgJzIwMCcsICctbWV0YWxfYmluZGluZycsICctaW1hZScsICc8aW5maWxlLm1hZT4nLCAnLW9tYWUnLCAnPG91dGZpbGUubWFlPic=

> <r_lp_tautomer_probability>
1

> <r_epik_Ionization_Penalty>
0.000703847

> <r_epik_Ionization_Penalty_Charging>
0

> <r_epik_Ionization_Penalty_Neutral>
0.000703847

> <r_epik_State_Penalty>
0.00034025

> <r_epik_Charging_Adjusted_Penalty>
0.00034025

> <i_epik_Tot_Q>
0

> <i_epik_Tot_abs_Q>
0

> <r_epik_Metal_State_Penalty>
-0

> <b_epik_Metal_Only>
0

> <s_lp_Force_Field>
OPLS_2005

> <r_lp_Energy>
54.3031

> <b_lp_Chiralities_Consistent>
1

> <s_lp_Variant>
AV-unprocessed.smi:77-4

> <Gold.Version>
5.8.1

> <Gold.Id.Protein>
6NUR|6NUR_protein|mol2

> <Gold.PLP.Fitness>
49.9278

> <Gold.PLP.PLP>
-46.0277

> <Gold.PLP.part.hbond>
-2.0000

> <Gold.PLP.part.metal>
0.0000

> <Gold.PLP.part.buried>
-7.0118

> <Gold.PLP.part.nonpolar>
-36.7695

> <Gold.PLP.part.repulsive>
0.0891

> <Gold.PLP.ligand.clash>
0.0000

> <Gold.PLP.ligand.torsion>
1.8541

> <Gold.PLP.Chemscore.Hbond>
2.0000

> <Gold.PLP.Chemscore.CHOScore>
0.0000

> <Gold.PLP.Chemscore.Metal>
0.0000

> <Gold.Chemscore.Hbonds>
donor molecule, donor type, donor heavy atom, donor atom, acceptor molecule, acceptor atom, score
      P1  H  6896  6908       L1    11  1.00
      P1  H  7997  8009       L1    17  1.00

> <Gold.PLP.Chemscore.Internal.Correction>
1.6083

> <Gold.Rescore>
     Score         DG    S(hbond)    S(metal)    S(lipo)     H(rot)  DE(clash)    DE(int)     intcor
     14.30     -16.18       1.90        0.00     113.07       3.47       0.01       1.87       ----

> <Gold.Chemscore.Fitness>
14.3014

> <Gold.Chemscore.DG>
-16.1811

> <Gold.Chemscore.ZeroCoef>
-5.4800

> <Gold.Chemscore.Hbond>
1.9024

> <Gold.Chemscore.Metal>
0.0000

> <Gold.Chemscore.Lipo>
113.0675

> <Gold.Chemscore.Internal_Hbond>
0.0000

> <Gold.Chemscore.DEClash>
0.0096

> <Gold.Chemscore.DEInternal>
1.8702

> <Gold.Chemscore.Rot>
3.4695

> <Gold.Chemscore.Internal.Correction>
   9.000000E+99

> <Gold.Chemscore.Hbonds>
donor molecule, donor type, donor heavy atom, donor atom, acceptor molecule, acceptor atom, score
      P1  H  6896  6908       L1    11  0.98
      P1  H  7997  8009       L1    17  0.30

> <Gold.Chemscore.Hbond.Weighted>
-6.3542

> <Gold.Chemscore.Metal.Weighted>
-0.0000

> <Gold.Chemscore.Lipo.Weighted>
-13.2289

> <Gold.Chemscore.Internal_Hbond.Weighted>
0.0000

> <Gold.Chemscore.DEClash.Weighted>
0.0096

> <Gold.Chemscore.DEInternal.Weighted>
1.8702

> <Gold.Chemscore.Rot.Weighted>
8.8820

> <Gold.Chemscore.Internal.Correction.Weighted>
   9.000000E+99

> <Gold.Protein.RotatedTorsions>
[ 6907 6896 6895 6894 ] final -147.63 input  -60.11 | X-H torsion
[ 7974 7965 7964 7962 ] final  103.16 input  175.53 | X-H torsion
[ 8008 7997 7996 7995 ] final  140.82 input   59.86 | X-H torsion
[ 10167 10162 10161 10158 ] final   29.79 input  -65.29 | X-H torsion
[ 10718 10713 10712 10709 ] final  105.86 input   66.30 | X-H torsion
[ 10763 10752 10751 10750 ] final   92.83 input  -60.55 | X-H torsion
[ 11005 11000 10999 10996 ] final -156.52 input  -57.11 | X-H torsion

> <Gold.Protein.ActiveResidues>
 VAL166  LYS551  ARG553  GLY616  TRP617  ASP618  TYR619  PRO620  LYS621  CYS622 
 ASP623  PHE694  ASN695  SER759  ASP760  ASP761  ALA762  ILE779  LEU786  VAL792 
 PHE793  MET794  SER795  GLU796  ALA797  LYS798  CYS799  TRP800  GLU811  SER814 

> <Gold.Protein.RotatedAtoms>
  151.1584  133.4861  159.2594 H   0  0  0  0  0  0  0  0  0  0  0  0  # atno 6907 bound_to 6896
  151.1480  135.0213  159.8666 H   0  0  0  0  0  0  0  0  0  0  0  0  # atno 6908 bound_to 6896
  152.5463  134.1470  159.8556 H   0  0  0  0  0  0  0  0  0  0  0  0  # atno 6909 bound_to 6896
  145.3496  139.2442  143.3565 H   0  0  0  0  0  0  0  0  0  0  0  0  # atno 7974 bound_to 7965
  156.2974  140.2331  156.4463 H   0  0  0  0  0  0  0  0  0  0  0  0  # atno 8008 bound_to 7997
  154.8141  140.0441  157.1384 H   0  0  0  0  0  0  0  0  0  0  0  0  # atno 8009 bound_to 7997
  154.9390  140.3027  155.5134 H   0  0  0  0  0  0  0  0  0  0  0  0  # atno 8010 bound_to 7997
  140.4735  144.0726  150.6244 H   0  0  0  0  0  0  0  0  0  0  0  0  # atno 10167 bound_to 10162
  157.6690  131.0837  150.5920 H   0  0  0  0  0  0  0  0  0  0  0  0  # atno 10718 bound_to 10713
  153.2235  135.4347  155.0516 H   0  0  0  0  0  0  0  0  0  0  0  0  # atno 10763 bound_to 10752
  154.8262  135.3362  154.6891 H   0  0  0  0  0  0  0  0  0  0  0  0  # atno 10764 bound_to 10752
  153.7322  135.7010  153.5042 H   0  0  0  0  0  0  0  0  0  0  0  0  # atno 10765 bound_to 10752
  140.6746  134.4210  157.5230 H   0  0  0  0  0  0  0  0  0  0  0  0  # atno 11005 bound_to 11000
  146.2974  140.4109  142.8717 LP  0  0  0  0  0  0  0  0  0  0  0  0  # atno 17320 bound_to 7965
  144.8728  140.7296  143.6036 LP  0  0  0  0  0  0  0  0  0  0  0  0  # atno 17321 bound_to 7965
  140.3947  143.2734  152.0018 LP  0  0  0  0  0  0  0  0  0  0  0  0  # atno 17342 bound_to 10162
  139.4822  144.6048  151.7542 LP  0  0  0  0  0  0  0  0  0  0  0  0  # atno 17343 bound_to 10162
  156.6221  130.4408  149.5818 LP  0  0  0  0  0  0  0  0  0  0  0  0  # atno 17370 bound_to 10713
  156.2348  130.6816  151.1498 LP  0  0  0  0  0  0  0  0  0  0  0  0  # atno 17371 bound_to 10713
  139.8970  134.8645  156.2061 LP  0  0  0  0  0  0  0  0  0  0  0  0  # atno 17394 bound_to 11000
  141.0365  133.6960  156.1522 LP  0  0  0  0  0  0  0  0  0  0  0  0  # atno 17395 bound_to 11000

$$$$
