AV-unprocessed.smi:1055|AV-procd|sdf|4626|dock4
  -GOLD-   22720 3133D 1   1.00000     0.00000
 Structure written by MMmdl.
 51 52  0  0  0  0  0  0  0  0  2 V2000
  146.4261  128.5480  151.3426 C   0  0  0  0  0  0  0  0  0  0  0  0
  147.6394  128.2730  151.8499 C   0  0  0  0  0  0  0  0  0  0  0  0
  148.6455  127.4151  151.1061 C   0  0  0  0  0  0  0  0  0  0  0  0
  148.0851  128.7969  153.2061 C   0  0  0  0  0  0  0  0  0  0  0  0
  148.3578  130.2557  153.1743 N   0  3  2  0  0  0  0  0  0  0  0  0
  149.2026  130.6910  154.3158 C   0  0  0  0  0  0  0  0  0  0  0  0
  149.5867  132.1748  154.1928 C   0  0  0  0  0  0  0  0  0  0  0  0
  148.3347  133.0634  154.0771 C   0  0  1  0  0  0  0  0  0  0  0  0
  148.6992  134.4627  153.8738 N   0  0  0  0  0  0  0  0  0  0  0  0
  149.1479  135.2890  154.8298 C   0  0  0  0  0  0  0  0  0  0  0  0
  149.3172  134.9431  155.9986 O   0  0  0  0  0  0  0  0  0  0  0  0
  149.3613  136.5242  154.3447 N   0  0  0  0  0  0  0  0  0  0  0  0
  149.8358  137.6722  155.0349 C   0  0  0  0  0  0  0  0  0  0  0  0
  149.9861  137.5919  156.4322 C   0  0  0  0  0  0  0  0  0  0  0  0
  150.4376  138.7192  157.1442 C   0  0  0  0  0  0  0  0  0  0  0  0
  150.7218  139.9151  156.4389 C   0  0  0  0  0  0  0  0  0  0  0  0
  151.1804  141.0743  157.1057 N   0  0  0  0  0  0  0  0  0  0  0  0
  150.9125  142.3951  156.5503 C   0  0  0  0  0  0  0  0  0  0  0  0
  151.9493  140.9461  158.3397 C   0  0  0  0  0  0  0  0  0  0  0  0
  150.5605  139.9930  155.0953 N   0  0  0  0  0  0  0  0  0  0  0  0
  150.1295  138.9096  154.4159 C   0  0  0  0  0  0  0  0  0  0  0  0
  147.4671  132.5728  152.9074 C   0  0  0  0  0  0  0  0  0  0  0  0
  147.1255  131.0806  153.0563 C   0  0  0  0  0  0  0  0  0  0  0  0
  146.1216  128.1668  150.3786 H   0  0  0  0  0  0  0  0  0  0  0  0
  145.7172  129.1589  151.8826 H   0  0  0  0  0  0  0  0  0  0  0  0
  148.9156  126.5448  151.7046 H   0  0  0  0  0  0  0  0  0  0  0  0
  149.5524  127.9817  150.8941 H   0  0  0  0  0  0  0  0  0  0  0  0
  148.2406  127.0605  150.1577 H   0  0  0  0  0  0  0  0  0  0  0  0
  147.3361  128.5788  153.9694 H   0  0  0  0  0  0  0  0  0  0  0  0
  148.9881  128.2540  153.4893 H   0  0  0  0  0  0  0  0  0  0  0  0
  148.6698  130.5167  155.2517 H   0  0  0  0  0  0  0  0  0  0  0  0
  150.1109  130.0884  154.3513 H   0  0  0  0  0  0  0  0  0  0  0  0
  150.1815  132.4695  155.0582 H   0  0  0  0  0  0  0  0  0  0  0  0
  150.2239  132.3139  153.3183 H   0  0  0  0  0  0  0  0  0  0  0  0
  147.7505  132.9789  154.9958 H   0  0  0  0  0  0  0  0  0  0  0  0
  148.5865  134.8337  152.9416 H   0  0  0  0  0  0  0  0  0  0  0  0
  149.0961  136.6772  153.3829 H   0  0  0  0  0  0  0  0  0  0  0  0
  149.7636  136.6746  156.9576 H   0  0  0  0  0  0  0  0  0  0  0  0
  150.5561  138.6432  158.2144 H   0  0  0  0  0  0  0  0  0  0  0  0
  151.3533  142.4901  155.5575 H   0  0  0  0  0  0  0  0  0  0  0  0
  151.3327  143.1823  157.1767 H   0  0  0  0  0  0  0  0  0  0  0  0
  149.8386  142.5685  156.4761 H   0  0  0  0  0  0  0  0  0  0  0  0
  152.8671  140.3844  158.1625 H   0  0  0  0  0  0  0  0  0  0  0  0
  151.3669  140.4270  159.1018 H   0  0  0  0  0  0  0  0  0  0  0  0
  152.2269  141.9213  158.7401 H   0  0  0  0  0  0  0  0  0  0  0  0
  150.0028  139.0635  153.3556 H   0  0  0  0  0  0  0  0  0  0  0  0
  146.5471  133.1563  152.8531 H   0  0  0  0  0  0  0  0  0  0  0  0
  147.9900  132.7317  151.9631 H   0  0  0  0  0  0  0  0  0  0  0  0
  146.5411  130.7654  152.1917 H   0  0  0  0  0  0  0  0  0  0  0  0
  146.4973  130.9257  153.9350 H   0  0  0  0  0  0  0  0  0  0  0  0
  148.9022  130.4229  152.3402 H   0  0  0  0  0  0  0  0  0  0  0  0
  1  2  2  0  0  0  0
  1 24  1  0  0  0  0
  1 25  1  0  0  0  0
  2  3  1  0  0  0  0
  2  4  1  0  0  0  0
  3 26  1  0  0  0  0
  3 27  1  0  0  0  0
  3 28  1  0  0  0  0
  4  5  1  0  0  0  0
  4 29  1  0  0  0  0
  4 30  1  0  0  0  0
  5 23  1  0  0  0  0
  5  6  1  0  0  0  0
  5 51  1  0  0  0  0
  6  7  1  0  0  0  0
  6 31  1  0  0  0  0
  6 32  1  0  0  0  0
  7  8  1  0  0  0  0
  7 33  1  0  0  0  0
  7 34  1  0  0  0  0
  8  9  1  0  0  0  0
  8 22  1  0  0  0  0
  8 35  1  0  0  0  0
  9 10  1  0  0  0  0
  9 36  1  0  0  0  0
 10 11  2  0  0  0  0
 10 12  1  0  0  0  0
 12 13  1  0  0  0  0
 12 37  1  0  0  0  0
 13 21  1  0  0  0  0
 13 14  2  0  0  0  0
 14 15  1  0  0  0  0
 14 38  1  0  0  0  0
 15 16  2  0  0  0  0
 15 39  1  0  0  0  0
 16 17  1  0  0  0  0
 16 20  1  0  0  0  0
 17 18  1  0  0  0  0
 17 19  1  0  0  0  0
 18 40  1  0  0  0  0
 18 41  1  0  0  0  0
 18 42  1  0  0  0  0
 19 43  1  0  0  0  0
 19 44  1  0  0  0  0
 19 45  1  0  0  0  0
 20 21  2  0  0  0  0
 21 46  1  0  0  0  0
 22 23  1  0  0  0  0
 22 47  1  0  0  0  0
 22 48  1  0  0  0  0
 23 49  1  0  0  0  0
 23 50  1  0  0  0  0
M  CHG  1   5   1
M  END
> <s_m_source_file>
AV-unprocessed.smi

> <i_m_source_file_index>
1055

> <i_lp_mmshare_version>
43012

> <i_f3d_flags>
0

> <s_epik_input>
W0NIMl09QyhbQ0gzXSlbQ0gyXU4xW0NIMl1bQ0gyXVtDSF0oW0NIMl1bQ0gyXTEpW05IXUMoPU8pW05IXWMyW2NIXVtjSF1jKE4oW0NIM10pW0NIM10pbltjSF0y

> <s_epik_cmdline>
J2VwaWtfcHl0aG9uJywgJy1waCcsICc3LjAnLCAnLXRuJywgJzgnLCAnLW1hJywgJzIwMCcsICctbWV0YWxfYmluZGluZycsICctaW1hZScsICc8aW5maWxlLm1hZT4nLCAnLW9tYWUnLCAnPG91dGZpbGUubWFlPic=

> <r_lp_tautomer_probability>
1

> <r_epik_Ionization_Penalty>
0.534133

> <r_epik_Ionization_Penalty_Charging>
0.0193505

> <r_epik_Ionization_Penalty_Neutral>
0.514782

> <r_epik_State_Penalty>
0.557749

> <r_epik_Charging_Adjusted_Penalty>
0.5771

> <i_epik_Tot_Q>
1

> <i_epik_Tot_abs_Q>
1

> <r_epik_Metal_State_Penalty>
0.306227

> <b_epik_Metal_Only>
0

> <s_lp_Force_Field>
OPLS_2005

> <r_lp_Energy>
20.3338

> <b_lp_Chiralities_Consistent>
1

> <s_lp_Variant>
AV-unprocessed.smi:1055-3

> <Gold.Version>
5.8.1

> <Gold.Id.Protein>
6NUR|6NUR_protein|mol2

> <Gold.PLP.Fitness>
52.1632

> <Gold.PLP.PLP>
-39.4792

> <Gold.PLP.part.hbond>
-3.9452

> <Gold.PLP.part.metal>
0.0000

> <Gold.PLP.part.buried>
-4.2478

> <Gold.PLP.part.nonpolar>
-31.0786

> <Gold.PLP.part.repulsive>
0.1271

> <Gold.PLP.ligand.clash>
0.0000

> <Gold.PLP.ligand.torsion>
0.8155

> <Gold.PLP.Chemscore.Hbond>
3.7629

> <Gold.PLP.Chemscore.CHOScore>
1.0000

> <Gold.PLP.Chemscore.Metal>
0.0000

> <Gold.Chemscore.Hbonds>
donor molecule, donor type, donor heavy atom, donor atom, acceptor molecule, acceptor atom, score
      L1  H     5    51       P1 10747  0.89
      L1  H     9    36       P1  7948  0.91
      L1  H    12    37       P1  7948  1.00
      P1  H  7989  7998       L1    20  0.68
      L1  C    21    46       P1  7957  1.00

> <Gold.PLP.Chemscore.Internal.Correction>
0.0263

> <Gold.Rescore>
     Score         DG    S(hbond)    S(metal)    S(lipo)     H(rot)  DE(clash)    DE(int)     intcor
     18.61     -21.67       2.47        0.00      96.87       1.33       0.95       2.10       ----

> <Gold.Chemscore.Fitness>
18.6148

> <Gold.Chemscore.DG>
-21.6666

> <Gold.Chemscore.ZeroCoef>
-5.4800

> <Gold.Chemscore.Hbond>
2.4696

> <Gold.Chemscore.Metal>
0.0000

> <Gold.Chemscore.Lipo>
96.8734

> <Gold.Chemscore.Internal_Hbond>
0.0000

> <Gold.Chemscore.DEClash>
0.9483

> <Gold.Chemscore.DEInternal>
2.1035

> <Gold.Chemscore.Rot>
1.3266

> <Gold.Chemscore.Internal.Correction>
   9.000000E+99

> <Gold.Chemscore.Hbonds>
donor molecule, donor type, donor heavy atom, donor atom, acceptor molecule, acceptor atom, score
      L1  H     5    51       P1 10747  0.24
      L1  H     9    36       P1  7948  0.35
      L1  H    12    37       P1  7948  0.93
      P1  H  7989  7998       L1    20  0.11

> <Gold.Chemscore.Hbond.Weighted>
-8.2486

> <Gold.Chemscore.Metal.Weighted>
-0.0000

> <Gold.Chemscore.Lipo.Weighted>
-11.3342

> <Gold.Chemscore.Internal_Hbond.Weighted>
0.0000

> <Gold.Chemscore.DEClash.Weighted>
0.9483

> <Gold.Chemscore.DEInternal.Weighted>
2.1035

> <Gold.Chemscore.Rot.Weighted>
3.3962

> <Gold.Chemscore.Internal.Correction.Weighted>
   9.000000E+99

> <Gold.Protein.RotatedTorsions>
[ 6907 6896 6895 6894 ] final   72.46 input  -60.11 | X-H torsion
[ 7974 7965 7964 7962 ] final   31.76 input  175.53 | X-H torsion
[ 8008 7997 7996 7995 ] final  151.58 input   59.86 | X-H torsion
[ 10167 10162 10161 10158 ] final -121.85 input  -65.29 | X-H torsion
[ 10718 10713 10712 10709 ] final   68.94 input   66.30 | X-H torsion
[ 10763 10752 10751 10750 ] final   16.03 input  -60.55 | X-H torsion
[ 11005 11000 10999 10996 ] final  -43.23 input  -57.11 | X-H torsion

> <Gold.Protein.ActiveResidues>
 VAL166  LYS551  ARG553  GLY616  TRP617  ASP618  TYR619  PRO620  LYS621  CYS622 
 ASP623  PHE694  ASN695  SER759  ASP760  ASP761  ALA762  ILE779  LEU786  VAL792 
 PHE793  MET794  SER795  GLU796  ALA797  LYS798  CYS799  TRP800  GLU811  SER814 

> <Gold.Protein.RotatedAtoms>
  152.4869  134.4568  159.9592 H   0  0  0  0  0  0  0  0  0  0  0  0  # atno 6907 bound_to 6896
  151.4563  133.3598  159.2810 H   0  0  0  0  0  0  0  0  0  0  0  0  # atno 6908 bound_to 6896
  150.8987  134.8422  159.7405 H   0  0  0  0  0  0  0  0  0  0  0  0  # atno 6909 bound_to 6896
  146.1530  139.6614  142.9086 H   0  0  0  0  0  0  0  0  0  0  0  0  # atno 7974 bound_to 7965
  156.2667  140.2044  156.6199 H   0  0  0  0  0  0  0  0  0  0  0  0  # atno 8008 bound_to 7997
  154.6765  140.0544  157.0245 H   0  0  0  0  0  0  0  0  0  0  0  0  # atno 8009 bound_to 7997
  155.1061  140.3211  155.4537 H   0  0  0  0  0  0  0  0  0  0  0  0  # atno 8010 bound_to 7997
  140.0206  143.5348  152.2222 H   0  0  0  0  0  0  0  0  0  0  0  0  # atno 10167 bound_to 10162
  157.6318  130.9399  150.0445 H   0  0  0  0  0  0  0  0  0  0  0  0  # atno 10718 bound_to 10713
  153.1469  135.6771  153.8941 H   0  0  0  0  0  0  0  0  0  0  0  0  # atno 10763 bound_to 10752
  153.8380  135.3109  155.3425 H   0  0  0  0  0  0  0  0  0  0  0  0  # atno 10764 bound_to 10752
  154.7832  135.4877  153.9974 H   0  0  0  0  0  0  0  0  0  0  0  0  # atno 10765 bound_to 10752
  141.0370  133.6796  156.2704 H   0  0  0  0  0  0  0  0  0  0  0  0  # atno 11005 bound_to 11000
  145.4778  141.0437  143.2663 LP  0  0  0  0  0  0  0  0  0  0  0  0  # atno 17320 bound_to 7965
  144.7927  139.6296  143.7106 LP  0  0  0  0  0  0  0  0  0  0  0  0  # atno 17321 bound_to 7965
  139.6143  144.7616  151.2882 LP  0  0  0  0  0  0  0  0  0  0  0  0  # atno 17342 bound_to 10162
  140.7344  143.6767  150.8036 LP  0  0  0  0  0  0  0  0  0  0  0  0  # atno 17343 bound_to 10162
  156.1526  130.3642  149.9415 LP  0  0  0  0  0  0  0  0  0  0  0  0  # atno 17370 bound_to 10713
  156.7431  130.9087  151.3633 LP  0  0  0  0  0  0  0  0  0  0  0  0  # atno 17371 bound_to 10713
  140.6305  134.5269  157.5559 LP  0  0  0  0  0  0  0  0  0  0  0  0  # atno 17394 bound_to 11000
  139.9247  134.8078  156.1103 LP  0  0  0  0  0  0  0  0  0  0  0  0  # atno 17395 bound_to 11000

$$$$
