AV-unprocessed.smi:1492|AV-procd|sdf|6038|dock1
  -GOLD-   22720 6143D 1   1.00000     0.00000
 Structure written by MMmdl.
 53 54  0  0  0  0  0  0  0  0  2 V2000
  145.6865  132.7022  155.6452 C   0  0  0  0  0  0  0  0  0  0  0  0
  147.1075  133.2927  155.6947 C   0  0  0  0  0  0  0  0  0  0  0  0
  147.2907  134.6694  154.9838 C   0  0  1  0  0  0  0  0  0  0  0  0
  146.3749  135.6883  155.7119 C   0  0  0  0  0  0  0  0  0  0  0  0
  148.7794  135.1186  155.1161 C   0  0  0  0  0  0  0  0  0  0  0  0
  149.0731  136.3805  154.4390 N   0  0  0  0  0  0  0  0  0  0  0  0
  149.4640  137.5189  155.0331 C   0  0  0  0  0  0  0  0  0  0  0  0
  149.6368  137.6288  156.2463 O   0  0  0  0  0  0  0  0  0  0  0  0
  149.7110  138.7123  154.1104 C   0  0  0  0  0  0  0  0  0  0  0  0
  148.7130  139.8611  154.2430 C   0  0  0  0  0  0  0  0  0  0  0  0
  148.9600  140.9787  154.9872 C   0  0  0  0  0  0  0  0  0  0  0  0
  150.2527  141.1868  155.7568 C   0  0  0  0  0  0  0  0  0  0  0  0
  148.0252  142.0193  155.0825 N   0  0  0  0  0  0  0  0  0  0  0  0
  146.9050  141.9088  154.4476 C   0  0  0  0  0  0  0  0  0  0  0  0
  145.8168  142.9615  154.4654 C   0  0  0  0  0  0  0  0  0  0  0  0
  146.5884  140.7920  153.6761 N   0  0  0  0  0  0  0  0  0  0  0  0
  147.4255  139.7406  153.5317 C   0  0  0  0  0  0  0  0  0  0  0  0
  147.0922  138.7677  152.8564 O   0  0  0  0  0  0  0  0  0  0  0  0
  146.8936  134.5659  153.5316 N   0  3  0  0  0  0  0  0  0  0  0  0
  147.2662  133.2990  152.8397 C   0  0  0  0  0  0  0  0  0  0  0  0
  146.9804  133.4015  151.3316 C   0  0  0  0  0  0  0  0  0  0  0  0
  145.6105  133.7118  151.1203 O   0  0  0  0  0  0  0  0  0  0  0  0
  145.2605  134.9616  151.6972 C   0  0  0  0  0  0  0  0  0  0  0  0
  145.4760  134.9039  153.2179 C   0  0  0  0  0  0  0  0  0  0  0  0
  145.6948  140.7580  153.2077 H   0  0  0  0  0  0  0  0  0  0  0  0
  145.6570  131.7413  156.1592 H   0  0  0  0  0  0  0  0  0  0  0  0
  145.3505  132.5316  154.6226 H   0  0  0  0  0  0  0  0  0  0  0  0
  144.9608  133.3509  156.1350 H   0  0  0  0  0  0  0  0  0  0  0  0
  147.3858  133.3845  156.7453 H   0  0  0  0  0  0  0  0  0  0  0  0
  147.8085  132.5601  155.2957 H   0  0  0  0  0  0  0  0  0  0  0  0
  146.4709  135.6160  156.7955 H   0  0  0  0  0  0  0  0  0  0  0  0
  145.3227  135.5309  155.4734 H   0  0  0  0  0  0  0  0  0  0  0  0
  146.6203  136.7182  155.4524 H   0  0  0  0  0  0  0  0  0  0  0  0
  149.0389  135.2751  156.1625 H   0  0  0  0  0  0  0  0  0  0  0  0
  149.4560  134.3428  154.7569 H   0  0  0  0  0  0  0  0  0  0  0  0
  148.9645  136.3921  153.4348 H   0  0  0  0  0  0  0  0  0  0  0  0
  150.7162  139.0897  154.2990 H   0  0  0  0  0  0  0  0  0  0  0  0
  149.7441  138.3558  153.0799 H   0  0  0  0  0  0  0  0  0  0  0  0
  150.4237  140.3655  156.4526 H   0  0  0  0  0  0  0  0  0  0  0  0
  150.2257  142.1115  156.3345 H   0  0  0  0  0  0  0  0  0  0  0  0
  151.0998  141.2458  155.0731 H   0  0  0  0  0  0  0  0  0  0  0  0
  146.1937  143.8972  154.0523 H   0  0  0  0  0  0  0  0  0  0  0  0
  145.4890  143.1459  155.4887 H   0  0  0  0  0  0  0  0  0  0  0  0
  144.9494  142.6548  153.8793 H   0  0  0  0  0  0  0  0  0  0  0  0
  148.3238  133.0705  152.9579 H   0  0  0  0  0  0  0  0  0  0  0  0
  146.7071  132.4612  153.2567 H   0  0  0  0  0  0  0  0  0  0  0  0
  147.6137  134.1578  150.8653 H   0  0  0  0  0  0  0  0  0  0  0  0
  147.2056  132.4536  150.8424 H   0  0  0  0  0  0  0  0  0  0  0  0
  145.8485  135.7642  151.2488 H   0  0  0  0  0  0  0  0  0  0  0  0
  144.2140  135.1708  151.4742 H   0  0  0  0  0  0  0  0  0  0  0  0
  144.8044  134.1586  153.6444 H   0  0  0  0  0  0  0  0  0  0  0  0
  145.1911  135.8683  153.6332 H   0  0  0  0  0  0  0  0  0  0  0  0
  147.4409  135.2810  153.0738 H   0  0  0  0  0  0  0  0  0  0  0  0
  1  2  1  0  0  0  0
  1 26  1  0  0  0  0
  1 27  1  0  0  0  0
  1 28  1  0  0  0  0
  2  3  1  0  0  0  0
  2 29  1  0  0  0  0
  2 30  1  0  0  0  0
  3  4  1  0  0  0  0
  3  5  1  0  0  0  0
  3 19  1  0  0  0  0
  4 31  1  0  0  0  0
  4 32  1  0  0  0  0
  4 33  1  0  0  0  0
  5  6  1  0  0  0  0
  5 34  1  0  0  0  0
  5 35  1  0  0  0  0
  6  7  1  0  0  0  0
  6 36  1  0  0  0  0
  7  8  2  0  0  0  0
  7  9  1  0  0  0  0
  9 10  1  0  0  0  0
  9 37  1  0  0  0  0
  9 38  1  0  0  0  0
 10 17  1  0  0  0  0
 10 11  2  0  0  0  0
 11 12  1  0  0  0  0
 11 13  1  0  0  0  0
 12 39  1  0  0  0  0
 12 40  1  0  0  0  0
 12 41  1  0  0  0  0
 13 14  2  0  0  0  0
 14 15  1  0  0  0  0
 14 16  1  0  0  0  0
 15 42  1  0  0  0  0
 15 43  1  0  0  0  0
 15 44  1  0  0  0  0
 16 25  1  0  0  0  0
 16 17  1  0  0  0  0
 17 18  2  0  0  0  0
 19 24  1  0  0  0  0
 19 20  1  0  0  0  0
 19 53  1  0  0  0  0
 20 21  1  0  0  0  0
 20 45  1  0  0  0  0
 20 46  1  0  0  0  0
 21 22  1  0  0  0  0
 21 47  1  0  0  0  0
 21 48  1  0  0  0  0
 22 23  1  0  0  0  0
 23 24  1  0  0  0  0
 23 49  1  0  0  0  0
 23 50  1  0  0  0  0
 24 51  1  0  0  0  0
 24 52  1  0  0  0  0
M  CHG  1  19   1
M  END
> <s_m_source_file>
AV-unprocessed.smi

> <i_m_source_file_index>
1492

> <i_lp_mmshare_version>
43012

> <i_f3d_flags>
0

> <s_epik_input>
W0NIMl0xW0NIMl1PW0NIMl1bQ0gyXU4xW0NAQF0oW0NIM10pKFtDSDJdW0NIM10pW0NIMl1bTkhdQyg9TylbQ0gyXWMyYyhbQ0gzXSluYyhbQ0gzXSlbbkhdYzI9Tw==

> <s_epik_cmdline>
J2VwaWtfcHl0aG9uJywgJy1waCcsICc3LjAnLCAnLXRuJywgJzgnLCAnLW1hJywgJzIwMCcsICctbWV0YWxfYmluZGluZycsICctaW1hZScsICc8aW5maWxlLm1hZT4nLCAnLW9tYWUnLCAnPG91dGZpbGUubWFlPic=

> <r_lp_tautomer_probability>
0.839158

> <r_epik_Ionization_Penalty>
0.506959

> <r_epik_Ionization_Penalty_Charging>
0.506936

> <r_epik_Ionization_Penalty_Neutral>
2.27768e-05

> <r_epik_State_Penalty>
0.6046

> <r_epik_Charging_Adjusted_Penalty>
1.11154

> <i_epik_Tot_Q>
1

> <i_epik_Tot_abs_Q>
1

> <r_epik_Metal_State_Penalty>
0.783136

> <b_epik_Metal_Only>
0

> <s_lp_Force_Field>
OPLS_2005

> <r_lp_Energy>
29.8272

> <b_lp_Chiralities_Consistent>
1

> <s_lp_Variant>
AV-unprocessed.smi:1492-3

> <Gold.Version>
5.8.1

> <Gold.Id.Protein>
6NUR|6NUR_protein|mol2

> <Gold.PLP.Fitness>
39.3029

> <Gold.PLP.PLP>
-29.9130

> <Gold.PLP.part.hbond>
-2.9648

> <Gold.PLP.part.metal>
0.0000

> <Gold.PLP.part.buried>
-3.4936

> <Gold.PLP.part.nonpolar>
-25.5867

> <Gold.PLP.part.repulsive>
2.0310

> <Gold.PLP.ligand.clash>
0.0000

> <Gold.PLP.ligand.torsion>
1.4121

> <Gold.PLP.Chemscore.Hbond>
3.9913

> <Gold.PLP.Chemscore.CHOScore>
0.0000

> <Gold.PLP.Chemscore.Metal>
0.0000

> <Gold.Chemscore.Hbonds>
donor molecule, donor type, donor heavy atom, donor atom, acceptor molecule, acceptor atom, score
      L1  H     6    36       P1  7948  1.00
      L1  H    16    25       P1 10175  0.70
      L1  H    19    53       P1  7948  1.43

> <Gold.PLP.Chemscore.Internal.Correction>
0.2404

> <Gold.Rescore>
     Score         DG    S(hbond)    S(metal)    S(lipo)     H(rot)  DE(clash)    DE(int)     intcor
     14.19     -16.93       2.90        0.00      63.05       2.19       0.90       1.83       ----

> <Gold.Chemscore.Fitness>
14.1907

> <Gold.Chemscore.DG>
-16.9262

> <Gold.Chemscore.ZeroCoef>
-5.4800

> <Gold.Chemscore.Hbond>
2.8988

> <Gold.Chemscore.Metal>
0.0000

> <Gold.Chemscore.Lipo>
63.0542

> <Gold.Chemscore.Internal_Hbond>
0.0000

> <Gold.Chemscore.DEClash>
0.9019

> <Gold.Chemscore.DEInternal>
1.8336

> <Gold.Chemscore.Rot>
2.1926

> <Gold.Chemscore.Internal.Correction>
   9.000000E+99

> <Gold.Chemscore.Hbonds>
donor molecule, donor type, donor heavy atom, donor atom, acceptor molecule, acceptor atom, score
      L1  H     6    36       P1  7948  0.96
      L1  H    16    25       P1 10175  0.48
      L1  H    19    53       P1  7948  0.70

> <Gold.Chemscore.Hbond.Weighted>
-9.6818

> <Gold.Chemscore.Metal.Weighted>
-0.0000

> <Gold.Chemscore.Lipo.Weighted>
-7.3773

> <Gold.Chemscore.Internal_Hbond.Weighted>
0.0000

> <Gold.Chemscore.DEClash.Weighted>
0.9019

> <Gold.Chemscore.DEInternal.Weighted>
1.8336

> <Gold.Chemscore.Rot.Weighted>
5.6129

> <Gold.Chemscore.Internal.Correction.Weighted>
   9.000000E+99

> <Gold.Protein.RotatedTorsions>
[ 6907 6896 6895 6894 ] final   60.79 input  -60.11 | X-H torsion
[ 7974 7965 7964 7962 ] final  133.01 input  175.53 | X-H torsion
[ 8008 7997 7996 7995 ] final -153.10 input   59.86 | X-H torsion
[ 10167 10162 10161 10158 ] final -119.36 input  -65.29 | X-H torsion
[ 10718 10713 10712 10709 ] final  165.52 input   66.30 | X-H torsion
[ 10763 10752 10751 10750 ] final   96.75 input  -60.55 | X-H torsion
[ 11005 11000 10999 10996 ] final -155.18 input  -57.11 | X-H torsion

> <Gold.Protein.ActiveResidues>
 VAL166  LYS551  ARG553  GLY616  TRP617  ASP618  TYR619  PRO620  LYS621  CYS622 
 ASP623  PHE694  ASN695  SER759  ASP760  ASP761  ALA762  ILE779  LEU786  VAL792 
 PHE793  MET794  SER795  GLU796  ALA797  LYS798  CYS799  TRP800  GLU811  SER814 

> <Gold.Protein.RotatedAtoms>
  152.4033  134.6249  160.0060 H   0  0  0  0  0  0  0  0  0  0  0  0  # atno 6907 bound_to 6896
  151.6448  133.3318  159.3146 H   0  0  0  0  0  0  0  0  0  0  0  0  # atno 6908 bound_to 6896
  150.7931  134.7012  159.6596 H   0  0  0  0  0  0  0  0  0  0  0  0  # atno 6909 bound_to 6896
  144.9909  139.4408  143.5340 H   0  0  0  0  0  0  0  0  0  0  0  0  # atno 7974 bound_to 7965
  155.6655  140.0727  157.2539 H   0  0  0  0  0  0  0  0  0  0  0  0  # atno 8008 bound_to 7997
  154.4133  140.1708  156.1874 H   0  0  0  0  0  0  0  0  0  0  0  0  # atno 8009 bound_to 7997
  155.9661  140.3366  155.6536 H   0  0  0  0  0  0  0  0  0  0  0  0  # atno 8010 bound_to 7997
  140.0475  143.5093  152.2099 H   0  0  0  0  0  0  0  0  0  0  0  0  # atno 10167 bound_to 10162
  157.0790  131.0387  151.2582 H   0  0  0  0  0  0  0  0  0  0  0  0  # atno 10718 bound_to 10713
  153.2686  135.4207  155.0965 H   0  0  0  0  0  0  0  0  0  0  0  0  # atno 10763 bound_to 10752
  154.8447  135.3466  154.6276 H   0  0  0  0  0  0  0  0  0  0  0  0  # atno 10764 bound_to 10752
  153.6696  135.7044  153.5209 H   0  0  0  0  0  0  0  0  0  0  0  0  # atno 10765 bound_to 10752
  140.6893  134.4059  157.5220 H   0  0  0  0  0  0  0  0  0  0  0  0  # atno 11005 bound_to 11000
  146.3431  139.9239  142.8763 LP  0  0  0  0  0  0  0  0  0  0  0  0  # atno 17320 bound_to 7965
  145.2287  140.9964  143.4003 LP  0  0  0  0  0  0  0  0  0  0  0  0  # atno 17321 bound_to 7965
  139.5974  144.7571  151.3252 LP  0  0  0  0  0  0  0  0  0  0  0  0  # atno 17342 bound_to 10162
  140.7232  143.7077  150.7794 LP  0  0  0  0  0  0  0  0  0  0  0  0  # atno 17343 bound_to 10162
  157.4815  130.7768  149.7419 LP  0  0  0  0  0  0  0  0  0  0  0  0  # atno 17370 bound_to 10713
  155.9929  130.3928  150.2924 LP  0  0  0  0  0  0  0  0  0  0  0  0  # atno 17371 bound_to 10713
  139.8928  134.8746  156.2253 LP  0  0  0  0  0  0  0  0  0  0  0  0  # atno 17394 bound_to 11000
  141.0254  133.7018  156.1339 LP  0  0  0  0  0  0  0  0  0  0  0  0  # atno 17395 bound_to 11000

$$$$
