AV-unprocessed.smi:2097|AV-procd|sdf|8564|dock8
  -GOLD-   2272011293D 1   1.00000     0.00000
 Structure written by MMmdl.
 41 42  0  0  0  0  0  0  0  0  1 V2000
  145.8091  141.6116  155.0509 C   0  0  0  0  0  0  0  0  0  0  0  0
  147.1378  141.1840  154.4107 C   0  0  1  0  0  0  0  0  0  0  0  0
  148.1870  141.6251  155.2691 O   0  0  0  0  0  0  0  0  0  0  0  0
  149.5066  141.4582  154.7599 C   0  0  0  0  0  0  0  0  0  0  0  0
  150.4541  141.1015  155.9113 C   0  0  0  0  0  0  0  0  0  0  0  0
  150.9454  142.2225  156.4382 F   0  0  0  0  0  0  0  0  0  0  0  0
  149.7973  140.4349  156.8601 F   0  0  0  0  0  0  0  0  0  0  0  0
  151.4665  140.3605  155.4619 F   0  0  0  0  0  0  0  0  0  0  0  0
  147.2017  139.6587  154.2286 C   0  0  0  0  0  0  0  0  0  0  0  0
  148.1984  139.0443  154.6069 O   0  0  0  0  0  0  0  0  0  0  0  0
  146.1415  139.0993  153.6160 N   0  0  0  0  0  0  0  0  0  0  0  0
  145.9119  137.7341  153.2914 C   0  0  0  0  0  0  0  0  0  0  0  0
  146.5329  136.6383  153.9377 C   0  0  0  0  0  0  0  0  0  0  0  0
  146.2103  135.3316  153.5233 C   0  0  0  0  0  0  0  0  0  0  0  0
  145.2740  135.1579  152.4840 C   0  0  0  0  0  0  0  0  0  0  0  0
  144.9615  133.8584  152.0607 N   0  0  0  0  0  0  0  0  0  0  0  0
  146.1166  133.1164  151.5708 C   0  0  0  0  0  0  0  0  0  0  0  0
  145.7140  131.6668  151.2500 C   0  0  0  0  0  0  0  0  0  0  0  0
  144.6347  131.6657  150.3196 O   0  0  0  0  0  0  0  0  0  0  0  0
  143.4838  132.3299  150.8342 C   0  0  0  0  0  0  0  0  0  0  0  0
  143.8296  133.7969  151.1441 C   0  0  0  0  0  0  0  0  0  0  0  0
  144.6641  136.2003  151.8719 N   0  0  0  0  0  0  0  0  0  0  0  0
  144.9776  137.4499  152.2738 C   0  0  0  0  0  0  0  0  0  0  0  0
  144.9580  141.2967  154.4458 H   0  0  0  0  0  0  0  0  0  0  0  0
  145.7600  142.6963  155.1478 H   0  0  0  0  0  0  0  0  0  0  0  0
  145.6879  141.1869  156.0482 H   0  0  0  0  0  0  0  0  0  0  0  0
  147.2281  141.6812  153.4429 H   0  0  0  0  0  0  0  0  0  0  0  0
  149.5404  140.6696  154.0074 H   0  0  0  0  0  0  0  0  0  0  0  0
  149.8377  142.3807  154.2807 H   0  0  0  0  0  0  0  0  0  0  0  0
  145.4311  139.7421  153.2969 H   0  0  0  0  0  0  0  0  0  0  0  0
  147.2377  136.7663  154.7440 H   0  0  0  0  0  0  0  0  0  0  0  0
  146.6745  134.4788  153.9970 H   0  0  0  0  0  0  0  0  0  0  0  0
  146.5112  133.5969  150.6744 H   0  0  0  0  0  0  0  0  0  0  0  0
  146.9089  133.1288  152.3205 H   0  0  0  0  0  0  0  0  0  0  0  0
  146.5578  131.1295  150.8169 H   0  0  0  0  0  0  0  0  0  0  0  0
  145.4265  131.1329  152.1573 H   0  0  0  0  0  0  0  0  0  0  0  0
  142.6842  132.2796  150.0951 H   0  0  0  0  0  0  0  0  0  0  0  0
  143.1254  131.8173  151.7283 H   0  0  0  0  0  0  0  0  0  0  0  0
  142.9684  134.3001  151.5852 H   0  0  0  0  0  0  0  0  0  0  0  0
  144.0736  134.3222  150.2195 H   0  0  0  0  0  0  0  0  0  0  0  0
  144.4678  138.2512  151.7588 H   0  0  0  0  0  0  0  0  0  0  0  0
  1  2  1  0  0  0  0
  1 24  1  0  0  0  0
  1 25  1  0  0  0  0
  1 26  1  0  0  0  0
  2  3  1  0  0  0  0
  2  9  1  0  0  0  0
  2 27  1  0  0  0  0
  3  4  1  0  0  0  0
  4  5  1  0  0  0  0
  4 28  1  0  0  0  0
  4 29  1  0  0  0  0
  5  6  1  0  0  0  0
  5  7  1  0  0  0  0
  5  8  1  0  0  0  0
  9 10  2  0  0  0  0
  9 11  1  0  0  0  0
 11 12  1  0  0  0  0
 11 30  1  0  0  0  0
 12 23  1  0  0  0  0
 12 13  2  0  0  0  0
 13 14  1  0  0  0  0
 13 31  1  0  0  0  0
 14 15  2  0  0  0  0
 14 32  1  0  0  0  0
 15 16  1  0  0  0  0
 15 22  1  0  0  0  0
 16 21  1  0  0  0  0
 16 17  1  0  0  0  0
 17 18  1  0  0  0  0
 17 33  1  0  0  0  0
 17 34  1  0  0  0  0
 18 19  1  0  0  0  0
 18 35  1  0  0  0  0
 18 36  1  0  0  0  0
 19 20  1  0  0  0  0
 20 21  1  0  0  0  0
 20 37  1  0  0  0  0
 20 38  1  0  0  0  0
 21 39  1  0  0  0  0
 21 40  1  0  0  0  0
 22 23  2  0  0  0  0
 23 41  1  0  0  0  0
M  END
> <s_m_source_file>
AV-unprocessed.smi

> <i_m_source_file_index>
2097

> <i_lp_mmshare_version>
43012

> <i_f3d_flags>
0

> <s_epik_input>
RkMoRikoRilbQ0gyXU9bQ0BASF0oW0NIM10pQyg9TylbTkhdYzFbY0hdW2NIXWMobltjSF0xKU4yW0NIMl1bQ0gyXU9bQ0gyXVtDSDJdMg==

> <s_epik_cmdline>
J2VwaWtfcHl0aG9uJywgJy1waCcsICc3LjAnLCAnLXRuJywgJzgnLCAnLW1hJywgJzIwMCcsICctbWV0YWxfYmluZGluZycsICctaW1hZScsICc8aW5maWxlLm1hZT4nLCAnLW9tYWUnLCAnPG91dGZpbGUubWFlPic=

> <r_lp_tautomer_probability>
1

> <r_epik_Ionization_Penalty>
0.000443452

> <r_epik_Ionization_Penalty_Charging>
0

> <r_epik_Ionization_Penalty_Neutral>
0.000443452

> <r_epik_State_Penalty>
0.00027288

> <r_epik_Charging_Adjusted_Penalty>
0.00027288

> <i_epik_Tot_Q>
0

> <i_epik_Tot_abs_Q>
0

> <r_epik_Metal_State_Penalty>
-0

> <b_epik_Metal_Only>
0

> <s_lp_Force_Field>
OPLS_2005

> <r_lp_Energy>
27.3588

> <b_lp_Chiralities_Consistent>
1

> <s_lp_Variant>
AV-unprocessed.smi:2097-2

> <Gold.Version>
5.8.1

> <Gold.Id.Protein>
6NUR|6NUR_protein|mol2

> <Gold.PLP.Fitness>
37.4139

> <Gold.PLP.PLP>
-31.0629

> <Gold.PLP.part.hbond>
-1.0950

> <Gold.PLP.part.metal>
0.0000

> <Gold.PLP.part.buried>
-2.2471

> <Gold.PLP.part.nonpolar>
-28.9904

> <Gold.PLP.part.repulsive>
0.6401

> <Gold.PLP.ligand.clash>
0.0047

> <Gold.PLP.ligand.torsion>
1.2158

> <Gold.PLP.Chemscore.Hbond>
0.9100

> <Gold.PLP.Chemscore.CHOScore>
1.9720

> <Gold.PLP.Chemscore.Metal>
0.0000

> <Gold.Chemscore.Hbonds>
donor molecule, donor type, donor heavy atom, donor atom, acceptor molecule, acceptor atom, score
      L1  H    11    30       P1 10175  0.91
      L1  C    23    41       P1 10171  1.00
      L1  C    23    41       P1 10175  1.00

> <Gold.PLP.Chemscore.Internal.Correction>
0.1411

> <Gold.Rescore>
     Score         DG    S(hbond)    S(metal)    S(lipo)     H(rot)  DE(clash)    DE(int)     intcor
      7.33     -11.82       0.94        0.00      69.95       1.95       0.86       3.63       ----

> <Gold.Chemscore.Fitness>
7.3256

> <Gold.Chemscore.DG>
-11.8207

> <Gold.Chemscore.ZeroCoef>
-5.4800

> <Gold.Chemscore.Hbond>
0.9420

> <Gold.Chemscore.Metal>
0.0000

> <Gold.Chemscore.Lipo>
69.9507

> <Gold.Chemscore.Internal_Hbond>
0.0000

> <Gold.Chemscore.DEClash>
0.8632

> <Gold.Chemscore.DEInternal>
3.6319

> <Gold.Chemscore.Rot>
1.9491

> <Gold.Chemscore.Internal.Correction>
   9.000000E+99

> <Gold.Chemscore.Hbonds>
donor molecule, donor type, donor heavy atom, donor atom, acceptor molecule, acceptor atom, score
      L1  H    11    30       P1 10175  0.87

> <Gold.Chemscore.Hbond.Weighted>
-3.1461

> <Gold.Chemscore.Metal.Weighted>
-0.0000

> <Gold.Chemscore.Lipo.Weighted>
-8.1842

> <Gold.Chemscore.Internal_Hbond.Weighted>
0.0000

> <Gold.Chemscore.DEClash.Weighted>
0.8632

> <Gold.Chemscore.DEInternal.Weighted>
3.6319

> <Gold.Chemscore.Rot.Weighted>
4.9897

> <Gold.Chemscore.Internal.Correction.Weighted>
   9.000000E+99

> <Gold.Protein.RotatedTorsions>
[ 6907 6896 6895 6894 ] final  -56.18 input  -60.11 | X-H torsion
[ 7974 7965 7964 7962 ] final -103.79 input  175.53 | X-H torsion
[ 8008 7997 7996 7995 ] final -142.17 input   59.86 | X-H torsion
[ 10167 10162 10161 10158 ] final  107.53 input  -65.29 | X-H torsion
[ 10718 10713 10712 10709 ] final -146.75 input   66.30 | X-H torsion
[ 10763 10752 10751 10750 ] final   11.66 input  -60.55 | X-H torsion
[ 11005 11000 10999 10996 ] final  169.31 input  -57.11 | X-H torsion

> <Gold.Protein.ActiveResidues>
 VAL166  LYS551  ARG553  GLY616  TRP617  ASP618  TYR619  PRO620  LYS621  CYS622 
 ASP623  PHE694  ASN695  SER759  ASP760  ASP761  ALA762  ILE779  LEU786  VAL792 
 PHE793  MET794  SER795  GLU796  ALA797  LYS798  CYS799  TRP800  GLU811  SER814 

> <Gold.Protein.RotatedAtoms>
  150.8189  134.7386  159.6754 H   0  0  0  0  0  0  0  0  0  0  0  0  # atno 6907 bound_to 6896
  152.4306  134.5781  159.9950 H   0  0  0  0  0  0  0  0  0  0  0  0  # atno 6908 bound_to 6896
  151.5970  133.3323  159.3075 H   0  0  0  0  0  0  0  0  0  0  0  0  # atno 6909 bound_to 6896
  145.2514  140.9239  143.3093 H   0  0  0  0  0  0  0  0  0  0  0  0  # atno 7974 bound_to 7965
  155.4899  140.0567  157.2955 H   0  0  0  0  0  0  0  0  0  0  0  0  # atno 8008 bound_to 7997
  154.4627  140.2004  156.0152 H   0  0  0  0  0  0  0  0  0  0  0  0  # atno 8009 bound_to 7997
  156.0920  140.3232  155.7832 H   0  0  0  0  0  0  0  0  0  0  0  0  # atno 8010 bound_to 7997
  139.6919  144.7106  151.1333 H   0  0  0  0  0  0  0  0  0  0  0  0  # atno 10167 bound_to 10162
  156.3988  130.7923  151.2132 H   0  0  0  0  0  0  0  0  0  0  0  0  # atno 10718 bound_to 10713
  153.1903  135.6841  153.8361 H   0  0  0  0  0  0  0  0  0  0  0  0  # atno 10763 bound_to 10752
  153.7662  135.3202  155.3346 H   0  0  0  0  0  0  0  0  0  0  0  0  # atno 10764 bound_to 10752
  154.8113  135.4715  154.0623 H   0  0  0  0  0  0  0  0  0  0  0  0  # atno 10765 bound_to 10752
  140.2964  134.7631  157.3880 H   0  0  0  0  0  0  0  0  0  0  0  0  # atno 11005 bound_to 11000
  144.9499  139.4094  143.6407 LP  0  0  0  0  0  0  0  0  0  0  0  0  # atno 17320 bound_to 7965
  146.3301  139.8501  142.8874 LP  0  0  0  0  0  0  0  0  0  0  0  0  # atno 17321 bound_to 7965
  140.7685  143.5546  150.9166 LP  0  0  0  0  0  0  0  0  0  0  0  0  # atno 17342 bound_to 10162
  139.9224  143.6590  152.3094 LP  0  0  0  0  0  0  0  0  0  0  0  0  # atno 17343 bound_to 10162
  157.7503  131.0293  150.4086 LP  0  0  0  0  0  0  0  0  0  0  0  0  # atno 17370 bound_to 10713
  156.4362  130.3982  149.6727 LP  0  0  0  0  0  0  0  0  0  0  0  0  # atno 17371 bound_to 10713
  140.1149  134.5296  155.8234 LP  0  0  0  0  0  0  0  0  0  0  0  0  # atno 17394 bound_to 11000
  141.2136  133.6736  156.6758 LP  0  0  0  0  0  0  0  0  0  0  0  0  # atno 17395 bound_to 11000

$$$$
