AV-unprocessed.smi:2711|AV-procd|sdf|10472|dock6
  -GOLD-   2272014513D 1   1.00000     0.00000
 Structure written by MMmdl.
 34 35  0  0  0  0  0  0  0  0  1 V2000
  143.0553  143.8014  161.7439 C   0  0  0  0  0  0  0  0  0  0  0  0
  144.4995  143.8100  161.3726 C   0  0  0  0  0  0  0  0  0  0  0  0
  145.4723  142.9233  161.7668 C   0  0  0  0  0  0  0  0  0  0  0  0
  146.7378  143.2028  161.2459 N   0  0  0  0  0  0  0  0  0  0  0  0
  146.7291  144.2872  160.4633 C   0  0  0  0  0  0  0  0  0  0  0  0
  147.8722  144.8066  159.8005 N   0  0  0  0  0  0  0  0  0  0  0  0
  149.1656  144.6634  160.1387 C   0  0  0  0  0  0  0  0  0  0  0  0
  149.5817  144.0385  161.1148 O   0  0  0  0  0  0  0  0  0  0  0  0
  149.9685  145.2926  159.2674 N   0  0  0  0  0  0  0  0  0  0  0  0
  151.4291  145.3095  159.3319 C   0  0  0  0  0  0  0  0  0  0  0  0
  152.0670  143.9240  159.1174 C   0  0  0  0  0  0  0  0  0  0  0  0
  152.1447  143.4516  157.9817 O   0  0  0  0  0  0  0  0  0  0  0  0
  152.5415  143.2684  160.1970 N   0  0  0  0  0  0  0  0  0  0  0  0
  153.1765  141.9503  160.1872 C   0  0  0  0  0  0  0  0  0  0  0  0
  153.7004  141.7304  161.6072 C   0  0  0  0  0  0  0  0  0  0  0  0
  152.8217  142.6215  162.4739 C   0  0  0  0  0  0  0  0  0  0  0  0
  152.4599  143.7918  161.5594 C   0  0  0  0  0  0  0  0  0  0  0  0
  145.1487  145.0400  160.3179 S   0  0  0  0  0  0  0  0  0  0  0  0
  142.8714  143.1362  162.5882 H   0  0  0  0  0  0  0  0  0  0  0  0
  142.4438  143.4620  160.9076 H   0  0  0  0  0  0  0  0  0  0  0  0
  142.7203  144.8001  162.0245 H   0  0  0  0  0  0  0  0  0  0  0  0
  145.3530  142.0677  162.4149 H   0  0  0  0  0  0  0  0  0  0  0  0
  147.6830  145.3446  158.9679 H   0  0  0  0  0  0  0  0  0  0  0  0
  149.5432  145.7772  158.4909 H   0  0  0  0  0  0  0  0  0  0  0  0
  151.7928  145.9869  158.5591 H   0  0  0  0  0  0  0  0  0  0  0  0
  151.7459  145.7234  160.2904 H   0  0  0  0  0  0  0  0  0  0  0  0
  152.4306  141.1955  159.9346 H   0  0  0  0  0  0  0  0  0  0  0  0
  153.9888  141.8851  159.4625 H   0  0  0  0  0  0  0  0  0  0  0  0
  153.6718  140.6838  161.9116 H   0  0  0  0  0  0  0  0  0  0  0  0
  154.7357  142.0681  161.6706 H   0  0  0  0  0  0  0  0  0  0  0  0
  151.9154  142.0808  162.7503 H   0  0  0  0  0  0  0  0  0  0  0  0
  153.3149  142.9390  163.3931 H   0  0  0  0  0  0  0  0  0  0  0  0
  153.1812  144.6028  161.6695 H   0  0  0  0  0  0  0  0  0  0  0  0
  151.4691  144.1848  161.7934 H   0  0  0  0  0  0  0  0  0  0  0  0
  1  2  1  0  0  0  0
  1 19  1  0  0  0  0
  1 20  1  0  0  0  0
  1 21  1  0  0  0  0
  2 18  1  0  0  0  0
  2  3  2  0  0  0  0
  3  4  1  0  0  0  0
  3 22  1  0  0  0  0
  4  5  2  0  0  0  0
  5  6  1  0  0  0  0
  5 18  1  0  0  0  0
  6  7  1  0  0  0  0
  6 23  1  0  0  0  0
  7  8  2  0  0  0  0
  7  9  1  0  0  0  0
  9 10  1  0  0  0  0
  9 24  1  0  0  0  0
 10 11  1  0  0  0  0
 10 25  1  0  0  0  0
 10 26  1  0  0  0  0
 11 12  2  0  0  0  0
 11 13  1  0  0  0  0
 13 17  1  0  0  0  0
 13 14  1  0  0  0  0
 14 15  1  0  0  0  0
 14 27  1  0  0  0  0
 14 28  1  0  0  0  0
 15 16  1  0  0  0  0
 15 29  1  0  0  0  0
 15 30  1  0  0  0  0
 16 17  1  0  0  0  0
 16 31  1  0  0  0  0
 16 32  1  0  0  0  0
 17 33  1  0  0  0  0
 17 34  1  0  0  0  0
M  END
> <s_m_source_file>
AV-unprocessed.smi

> <i_m_source_file_index>
2711

> <i_lp_mmshare_version>
43012

> <i_f3d_flags>
0

> <s_epik_input>
W0NIM11jMVtjSF1uYyhzMSlbTkhdQyg9TylbTkhdW0NIMl1DKD1PKU4yW0NIMl1bQ0gyXVtDSDJdW0NIMl0y

> <s_epik_cmdline>
J2VwaWtfcHl0aG9uJywgJy1waCcsICc3LjAnLCAnLXRuJywgJzgnLCAnLW1hJywgJzIwMCcsICctbWV0YWxfYmluZGluZycsICctaW1hZScsICc8aW5maWxlLm1hZT4nLCAnLW9tYWUnLCAnPG91dGZpbGUubWFlPic=

> <r_lp_tautomer_probability>
1

> <r_epik_Ionization_Penalty>
0.000145478

> <r_epik_Ionization_Penalty_Charging>
0

> <r_epik_Ionization_Penalty_Neutral>
0.000145478

> <r_epik_State_Penalty>
-0

> <r_epik_Charging_Adjusted_Penalty>
0

> <i_epik_Tot_Q>
0

> <i_epik_Tot_abs_Q>
0

> <r_epik_Metal_State_Penalty>
0.0331427

> <b_epik_Metal_Only>
0

> <s_lp_Force_Field>
OPLS_2005

> <r_lp_Energy>
22.8553

> <b_lp_Chiralities_Consistent>
1

> <s_lp_Variant>
AV-unprocessed.smi:2711-1

> <Gold.Version>
5.8.1

> <Gold.Id.Protein>
6NUR|6NUR_protein|mol2

> <Gold.PLP.Fitness>
55.8252

> <Gold.PLP.PLP>
-47.6216

> <Gold.PLP.part.hbond>
-4.1151

> <Gold.PLP.part.metal>
0.0000

> <Gold.PLP.part.buried>
-6.4436

> <Gold.PLP.part.nonpolar>
-37.1701

> <Gold.PLP.part.repulsive>
0.6709

> <Gold.PLP.ligand.clash>
0.0000

> <Gold.PLP.ligand.torsion>
0.3633

> <Gold.PLP.Chemscore.Hbond>
2.9760

> <Gold.PLP.Chemscore.CHOScore>
0.0000

> <Gold.PLP.Chemscore.Metal>
0.0000

> <Gold.Chemscore.Hbonds>
donor molecule, donor type, donor heavy atom, donor atom, acceptor molecule, acceptor atom, score
      L1  H     6    23       P1  8029  1.00
      L1  H     9    24       P1  8029  0.95
      P1  H  6933  6944       L1     4  1.00
      P1  H  6934  6946       L1     4  0.02

> <Gold.PLP.Chemscore.Internal.Correction>
0.0021

> <Gold.Rescore>
     Score         DG    S(hbond)    S(metal)    S(lipo)     H(rot)  DE(clash)    DE(int)     intcor
     19.74     -21.25       2.69        0.00      86.79       1.32       0.11       1.39       ----

> <Gold.Chemscore.Fitness>
19.7421

> <Gold.Chemscore.DG>
-21.2493

> <Gold.Chemscore.ZeroCoef>
-5.4800

> <Gold.Chemscore.Hbond>
2.6943

> <Gold.Chemscore.Metal>
0.0000

> <Gold.Chemscore.Lipo>
86.7906

> <Gold.Chemscore.Internal_Hbond>
0.0000

> <Gold.Chemscore.DEClash>
0.1126

> <Gold.Chemscore.DEInternal>
1.3946

> <Gold.Chemscore.Rot>
1.3219

> <Gold.Chemscore.Internal.Correction>
   9.000000E+99

> <Gold.Chemscore.Hbonds>
donor molecule, donor type, donor heavy atom, donor atom, acceptor molecule, acceptor atom, score
      L1  H     6    23       P1  8029  0.99
      L1  H     9    24       P1  8029  0.79
      P1  H  6933  6944       L1     4  0.86

> <Gold.Chemscore.Hbond.Weighted>
-8.9990

> <Gold.Chemscore.Metal.Weighted>
-0.0000

> <Gold.Chemscore.Lipo.Weighted>
-10.1545

> <Gold.Chemscore.Internal_Hbond.Weighted>
0.0000

> <Gold.Chemscore.DEClash.Weighted>
0.1126

> <Gold.Chemscore.DEInternal.Weighted>
1.3946

> <Gold.Chemscore.Rot.Weighted>
3.3841

> <Gold.Chemscore.Internal.Correction.Weighted>
   9.000000E+99

> <Gold.Protein.RotatedTorsions>
[ 6907 6896 6895 6894 ] final  -10.24 input  -60.11 | X-H torsion
[ 7974 7965 7964 7962 ] final  132.14 input  175.53 | X-H torsion
[ 8008 7997 7996 7995 ] final  -97.87 input   59.86 | X-H torsion
[ 10167 10162 10161 10158 ] final   15.28 input  -65.29 | X-H torsion
[ 10718 10713 10712 10709 ] final -141.79 input   66.30 | X-H torsion
[ 10763 10752 10751 10750 ] final   27.91 input  -60.55 | X-H torsion
[ 11005 11000 10999 10996 ] final  -36.81 input  -57.11 | X-H torsion

> <Gold.Protein.ActiveResidues>
 VAL166  LYS551  ARG553  GLY616  TRP617  ASP618  TYR619  PRO620  LYS621  CYS622 
 ASP623  PHE694  ASN695  SER759  ASP760  ASP761  ALA762  ILE779  LEU786  VAL792 
 PHE793  MET794  SER795  GLU796  ALA797  LYS798  CYS799  TRP800  GLU811  SER814 

> <Gold.Protein.RotatedAtoms>
  151.4050  135.0977  159.9567 H   0  0  0  0  0  0  0  0  0  0  0  0  # atno 6907 bound_to 6896
  152.5038  133.8851  159.7376 H   0  0  0  0  0  0  0  0  0  0  0  0  # atno 6908 bound_to 6896
  150.9334  133.6684  159.2834 H   0  0  0  0  0  0  0  0  0  0  0  0  # atno 6909 bound_to 6896
  144.9999  139.4322  143.5297 H   0  0  0  0  0  0  0  0  0  0  0  0  # atno 7974 bound_to 7965
  154.7936  140.0459  157.1219 H   0  0  0  0  0  0  0  0  0  0  0  0  # atno 8008 bound_to 7997
  154.9562  140.3071  155.5032 H   0  0  0  0  0  0  0  0  0  0  0  0  # atno 8009 bound_to 7997
  156.2953  140.2279  156.4644 H   0  0  0  0  0  0  0  0  0  0  0  0  # atno 8010 bound_to 7997
  140.5878  143.8856  150.6846 H   0  0  0  0  0  0  0  0  0  0  0  0  # atno 10167 bound_to 10162
  156.3382  130.7623  151.1754 H   0  0  0  0  0  0  0  0  0  0  0  0  # atno 10718 bound_to 10713
  153.0525  135.6526  154.0658 H   0  0  0  0  0  0  0  0  0  0  0  0  # atno 10763 bound_to 10752
  154.0343  135.2909  155.3365 H   0  0  0  0  0  0  0  0  0  0  0  0  # atno 10764 bound_to 10752
  154.6822  135.5315  153.8345 H   0  0  0  0  0  0  0  0  0  0  0  0  # atno 10765 bound_to 10752
  140.9904  133.7008  156.1839 H   0  0  0  0  0  0  0  0  0  0  0  0  # atno 11005 bound_to 11000
  146.3450  139.9382  142.8744 LP  0  0  0  0  0  0  0  0  0  0  0  0  # atno 17320 bound_to 7965
  145.2167  140.9918  143.4069 LP  0  0  0  0  0  0  0  0  0  0  0  0  # atno 17321 bound_to 7965
  140.2371  143.3692  152.1518 LP  0  0  0  0  0  0  0  0  0  0  0  0  # atno 17342 bound_to 10162
  139.5208  144.7038  151.5415 LP  0  0  0  0  0  0  0  0  0  0  0  0  # atno 17343 bound_to 10162
  157.7442  131.0462  150.4882 LP  0  0  0  0  0  0  0  0  0  0  0  0  # atno 17370 bound_to 10713
  156.5058  130.4128  149.6328 LP  0  0  0  0  0  0  0  0  0  0  0  0  # atno 17371 bound_to 10713
  140.7049  134.4524  157.5584 LP  0  0  0  0  0  0  0  0  0  0  0  0  # atno 17394 bound_to 11000
  139.8989  134.8602  156.1980 LP  0  0  0  0  0  0  0  0  0  0  0  0  # atno 17395 bound_to 11000

$$$$
