AV-unprocessed.smi:207|AV-procd|sdf|1602|dock4
  -GOLD-   2262019513D 1   1.00000     0.00000
 Structure written by MMmdl.
 55 58  0  0  0  0  0  0  0  0  1 V2000
  146.1567  131.8548  149.2079 C   0  0  0  0  0  0  0  0  0  0  0  0
  145.6378  132.1937  150.6204 C   0  0  0  0  0  0  0  0  0  0  0  0
  145.3792  130.8439  151.3424 C   0  0  0  0  0  0  0  0  0  0  0  0
  146.8131  132.9105  151.3378 C   0  0  0  0  0  0  0  0  0  0  0  0
  146.4353  133.3656  152.6767 N   0  0  0  0  0  0  0  0  0  0  0  0
  147.4246  133.7601  153.5177 C   0  0  0  0  0  0  0  0  0  0  0  0
  148.3982  132.8832  153.8830 N   0  0  0  0  0  0  0  0  0  0  0  0
  149.3836  133.2690  154.6985 C   0  0  0  0  0  0  0  0  0  0  0  0
  149.5821  134.4629  155.2598 N   0  0  0  0  0  0  0  0  0  0  0  0
  148.6031  135.3446  154.9094 C   0  0  0  0  0  0  0  0  0  0  0  0
  147.5002  135.0789  154.0487 C   0  0  0  0  0  0  0  0  0  0  0  0
  146.7115  136.2166  153.9273 N   0  0  0  0  0  0  0  0  0  0  0  0
  147.3187  137.1059  154.6639 C   0  0  0  0  0  0  0  0  0  0  0  0
  148.4577  136.6648  155.3004 N   0  0  0  0  0  0  0  0  0  0  0  0
  149.3181  137.4451  156.1784 C   0  0  0  0  0  0  0  0  0  0  0  0
  150.3661  138.3077  155.4429 C   0  0  0  0  0  0  0  0  0  0  0  0
  151.7568  137.6506  155.4983 C   0  0  0  0  0  0  0  0  0  0  0  0
  152.6551  138.2653  154.5967 O   0  0  0  0  0  0  0  0  0  0  0  0
  149.9619  138.8161  154.0510 C   0  0  0  0  0  0  0  0  0  0  0  0
  150.3117  140.1754  154.3849 O   0  0  0  0  0  0  0  0  0  0  0  0
  150.3504  139.8057  155.7791 C   0  0  0  0  0  0  0  0  0  0  0  0
  145.2604  134.2296  152.6739 C   0  0  0  0  0  0  0  0  0  0  0  0
  144.0986  133.5404  151.9441 C   0  0  0  0  0  0  0  0  0  0  0  0
  144.4604  133.1093  150.5890 N   0  0  0  0  0  0  0  0  0  0  0  0
  143.2790  132.6226  149.8590 C   0  0  0  0  0  0  0  0  0  0  0  0
  143.3997  132.6614  148.3255 C   0  0  0  0  0  0  0  0  0  0  0  0
  143.3371  134.0002  147.8847 O   0  0  0  0  0  0  0  0  0  0  0  0
  147.1159  131.3370  149.2510 H   0  0  0  0  0  0  0  0  0  0  0  0
  146.3028  132.7543  148.6086 H   0  0  0  0  0  0  0  0  0  0  0  0
  145.4757  131.1928  148.6736 H   0  0  0  0  0  0  0  0  0  0  0  0
  146.2881  130.2421  151.3735 H   0  0  0  0  0  0  0  0  0  0  0  0
  144.6266  130.2389  150.8385 H   0  0  0  0  0  0  0  0  0  0  0  0
  145.0598  130.9706  152.3761 H   0  0  0  0  0  0  0  0  0  0  0  0
  147.6704  132.2392  151.4095 H   0  0  0  0  0  0  0  0  0  0  0  0
  147.1353  133.7732  150.7520 H   0  0  0  0  0  0  0  0  0  0  0  0
  150.1176  132.5128  154.9353 H   0  0  0  0  0  0  0  0  0  0  0  0
  146.9442  138.1136  154.7694 H   0  0  0  0  0  0  0  0  0  0  0  0
  148.6770  138.0700  156.8013 H   0  0  0  0  0  0  0  0  0  0  0  0
  149.8101  136.7585  156.8686 H   0  0  0  0  0  0  0  0  0  0  0  0
  152.1791  137.6794  156.5031 H   0  0  0  0  0  0  0  0  0  0  0  0
  151.6913  136.5950  155.2317 H   0  0  0  0  0  0  0  0  0  0  0  0
  152.7582  139.1711  154.8446 H   0  0  0  0  0  0  0  0  0  0  0  0
  150.5643  138.4121  153.2364 H   0  0  0  0  0  0  0  0  0  0  0  0
  148.8975  138.7246  153.8304 H   0  0  0  0  0  0  0  0  0  0  0  0
  149.4538  140.1316  156.3093 H   0  0  0  0  0  0  0  0  0  0  0  0
  151.2505  140.1605  156.2829 H   0  0  0  0  0  0  0  0  0  0  0  0
  144.9495  134.4851  153.6863 H   0  0  0  0  0  0  0  0  0  0  0  0
  145.5119  135.1663  152.1744 H   0  0  0  0  0  0  0  0  0  0  0  0
  143.7314  132.6975  152.5295 H   0  0  0  0  0  0  0  0  0  0  0  0
  143.2715  134.2495  151.8931 H   0  0  0  0  0  0  0  0  0  0  0  0
  142.9971  131.6243  150.1893 H   0  0  0  0  0  0  0  0  0  0  0  0
  142.4214  133.2492  150.1084 H   0  0  0  0  0  0  0  0  0  0  0  0
  144.3514  132.2326  148.0101 H   0  0  0  0  0  0  0  0  0  0  0  0
  142.6140  132.1024  147.8235 H   0  0  0  0  0  0  0  0  0  0  0  0
  144.1868  134.3961  148.0051 H   0  0  0  0  0  0  0  0  0  0  0  0
  1  2  1  0  0  0  0
  1 28  1  0  0  0  0
  1 29  1  0  0  0  0
  1 30  1  0  0  0  0
  2 24  1  0  0  0  0
  2  3  1  0  0  0  0
  2  4  1  0  0  0  0
  3 31  1  0  0  0  0
  3 32  1  0  0  0  0
  3 33  1  0  0  0  0
  4  5  1  0  0  0  0
  4 34  1  0  0  0  0
  4 35  1  0  0  0  0
  5  6  1  0  0  0  0
  5 22  1  0  0  0  0
  6 11  1  0  0  0  0
  6  7  2  0  0  0  0
  7  8  1  0  0  0  0
  8  9  2  0  0  0  0
  8 36  1  0  0  0  0
  9 10  1  0  0  0  0
 10 14  1  0  0  0  0
 10 11  2  0  0  0  0
 11 12  1  0  0  0  0
 12 13  2  0  0  0  0
 13 14  1  0  0  0  0
 13 37  1  0  0  0  0
 14 15  1  0  0  0  0
 15 16  1  0  0  0  0
 15 38  1  0  0  0  0
 15 39  1  0  0  0  0
 16 21  1  0  0  0  0
 16 17  1  0  0  0  0
 16 19  1  0  0  0  0
 17 18  1  0  0  0  0
 17 40  1  0  0  0  0
 17 41  1  0  0  0  0
 18 42  1  0  0  0  0
 19 20  1  0  0  0  0
 19 43  1  0  0  0  0
 19 44  1  0  0  0  0
 20 21  1  0  0  0  0
 21 45  1  0  0  0  0
 21 46  1  0  0  0  0
 22 23  1  0  0  0  0
 22 47  1  0  0  0  0
 22 48  1  0  0  0  0
 23 24  1  0  0  0  0
 23 49  1  0  0  0  0
 23 50  1  0  0  0  0
 24 25  1  0  0  0  0
 25 26  1  0  0  0  0
 25 51  1  0  0  0  0
 25 52  1  0  0  0  0
 26 27  1  0  0  0  0
 26 53  1  0  0  0  0
 26 54  1  0  0  0  0
 27 55  1  0  0  0  0
M  END
> <s_m_source_file>
AV-unprocessed.smi

> <i_m_source_file_index>
207

> <i_lp_mmshare_version>
43012

> <i_f3d_flags>
0

> <s_epik_input>
W09IXVtDSDJdW0NIMl1OMVtDSDJdW0NIMl1OKFtDSDJdQzEoW0NIM10pW0NIM10pYyhuW2NIXW4yKWMoYzIzKW5bY0hdbjNbQ0gyXUM0KFtDSDJdW09IXSlbQ0gyXU9bQ0gyXTQ=

> <s_epik_cmdline>
J2VwaWtfcHl0aG9uJywgJy1waCcsICc3LjAnLCAnLXRuJywgJzgnLCAnLW1hJywgJzIwMCcsICctbWV0YWxfYmluZGluZycsICctaW1hZScsICc8aW5maWxlLm1hZT4nLCAnLW9tYWUnLCAnPG91dGZpbGUubWFlPic=

> <r_lp_tautomer_probability>
1

> <r_epik_Ionization_Penalty>
0.411763

> <r_epik_Ionization_Penalty_Charging>
0

> <r_epik_Ionization_Penalty_Neutral>
0.411763

> <r_epik_State_Penalty>
0.407012

> <r_epik_Charging_Adjusted_Penalty>
0.407012

> <i_epik_Tot_Q>
0

> <i_epik_Tot_abs_Q>
0

> <r_epik_Metal_State_Penalty>
0.401279

> <b_epik_Metal_Only>
0

> <s_lp_Force_Field>
OPLS_2005

> <r_lp_Energy>
76.2772

> <b_lp_Chiralities_Consistent>
1

> <s_lp_Variant>
AV-unprocessed.smi:207-1

> <Gold.Version>
5.8.1

> <Gold.Id.Protein>
6NUR|6NUR_protein|mol2

> <Gold.PLP.Fitness>
45.1447

> <Gold.PLP.PLP>
-39.0843

> <Gold.PLP.part.hbond>
-5.8544

> <Gold.PLP.part.metal>
0.0000

> <Gold.PLP.part.buried>
-1.5998

> <Gold.PLP.part.nonpolar>
-33.4517

> <Gold.PLP.part.repulsive>
1.4810

> <Gold.PLP.ligand.clash>
0.0000

> <Gold.PLP.ligand.torsion>
1.8282

> <Gold.PLP.Chemscore.Hbond>
3.0000

> <Gold.PLP.Chemscore.CHOScore>
0.0000

> <Gold.PLP.Chemscore.Metal>
0.0000

> <Gold.Chemscore.Hbonds>
donor molecule, donor type, donor heavy atom, donor atom, acceptor molecule, acceptor atom, score
      L1  H    27    55       P1  7921  1.00
      P1  H  7989  7998       L1    20  1.00
      P1  H 10192 10197       L1    27  1.00

> <Gold.PLP.Chemscore.Internal.Correction>
0.7167

> <Gold.Rescore>
     Score         DG    S(hbond)    S(metal)    S(lipo)     H(rot)  DE(clash)    DE(int)     intcor
     10.57     -17.68       2.88        0.00     103.82       3.74       1.77       5.33       ----

> <Gold.Chemscore.Fitness>
10.5743

> <Gold.Chemscore.DG>
-17.6796

> <Gold.Chemscore.ZeroCoef>
-5.4800

> <Gold.Chemscore.Hbond>
2.8848

> <Gold.Chemscore.Metal>
0.0000

> <Gold.Chemscore.Lipo>
103.8202

> <Gold.Chemscore.Internal_Hbond>
0.0000

> <Gold.Chemscore.DEClash>
1.7709

> <Gold.Chemscore.DEInternal>
5.3344

> <Gold.Chemscore.Rot>
3.7432

> <Gold.Chemscore.Internal.Correction>
   9.000000E+99

> <Gold.Chemscore.Hbonds>
donor molecule, donor type, donor heavy atom, donor atom, acceptor molecule, acceptor atom, score
      L1  H    27    55       P1  7921  0.95
      P1  H  7989  7998       L1    20  0.91
      P1  H 10192 10197       L1    27  0.90

> <Gold.Chemscore.Hbond.Weighted>
-9.6351

> <Gold.Chemscore.Metal.Weighted>
-0.0000

> <Gold.Chemscore.Lipo.Weighted>
-12.1470

> <Gold.Chemscore.Internal_Hbond.Weighted>
0.0000

> <Gold.Chemscore.DEClash.Weighted>
1.7709

> <Gold.Chemscore.DEInternal.Weighted>
5.3344

> <Gold.Chemscore.Rot.Weighted>
9.5825

> <Gold.Chemscore.Internal.Correction.Weighted>
   9.000000E+99

> <Gold.Protein.RotatedTorsions>
[ 6907 6896 6895 6894 ] final   10.54 input  -60.11 | X-H torsion
[ 7974 7965 7964 7962 ] final    0.43 input  175.53 | X-H torsion
[ 8008 7997 7996 7995 ] final -179.54 input   59.86 | X-H torsion
[ 10167 10162 10161 10158 ] final  -76.31 input  -65.29 | X-H torsion
[ 10718 10713 10712 10709 ] final -105.35 input   66.30 | X-H torsion
[ 10763 10752 10751 10750 ] final -166.85 input  -60.55 | X-H torsion
[ 11005 11000 10999 10996 ] final -102.27 input  -57.11 | X-H torsion

> <Gold.Protein.ActiveResidues>
 VAL166  LYS551  ARG553  GLY616  TRP617  ASP618  TYR619  PRO620  LYS621  CYS622 
 ASP623  PHE694  ASN695  SER759  ASP760  ASP761  ALA762  ILE779  LEU786  VAL792 
 PHE793  MET794  SER795  GLU796  ALA797  LYS798  CYS799  TRP800  GLU811  SER814 

> <Gold.Protein.RotatedAtoms>
  151.7399  135.0856  160.0313 H   0  0  0  0  0  0  0  0  0  0  0  0  # atno 6907 bound_to 6896
  152.3486  133.6148  159.5937 H   0  0  0  0  0  0  0  0  0  0  0  0  # atno 6908 bound_to 6896
  150.7525  133.9526  159.3532 H   0  0  0  0  0  0  0  0  0  0  0  0  # atno 6909 bound_to 6896
  146.2434  140.1140  142.8343 H   0  0  0  0  0  0  0  0  0  0  0  0  # atno 7974 bound_to 7965
  156.0317  140.1283  157.0251 H   0  0  0  0  0  0  0  0  0  0  0  0  # atno 8008 bound_to 7997
  154.4353  140.1048  156.6179 H   0  0  0  0  0  0  0  0  0  0  0  0  # atno 8009 bound_to 7997
  155.5797  140.3468  155.4539 H   0  0  0  0  0  0  0  0  0  0  0  0  # atno 8010 bound_to 7997
  140.4868  143.2389  151.7971 H   0  0  0  0  0  0  0  0  0  0  0  0  # atno 10167 bound_to 10162
  156.0342  130.5559  150.7526 H   0  0  0  0  0  0  0  0  0  0  0  0  # atno 10718 bound_to 10713
  154.6792  135.2952  154.9636 H   0  0  0  0  0  0  0  0  0  0  0  0  # atno 10763 bound_to 10752
  154.0637  135.6628  153.4819 H   0  0  0  0  0  0  0  0  0  0  0  0  # atno 10764 bound_to 10752
  153.0536  135.5158  154.7826 H   0  0  0  0  0  0  0  0  0  0  0  0  # atno 10765 bound_to 10752
  141.1196  133.8545  157.1338 H   0  0  0  0  0  0  0  0  0  0  0  0  # atno 11005 bound_to 11000
  145.0463  140.8984  143.5022 LP  0  0  0  0  0  0  0  0  0  0  0  0  # atno 17320 bound_to 7965
  145.1229  139.2682  143.5579 LP  0  0  0  0  0  0  0  0  0  0  0  0  # atno 17321 bound_to 7965
  139.4843  144.4701  151.9435 LP  0  0  0  0  0  0  0  0  0  0  0  0  # atno 17342 bound_to 10162
  140.3787  144.2763  150.5911 LP  0  0  0  0  0  0  0  0  0  0  0  0  # atno 17343 bound_to 10162
  157.5067  131.0922  151.0249 LP  0  0  0  0  0  0  0  0  0  0  0  0  # atno 17370 bound_to 10713
  157.0615  130.5827  149.5386 LP  0  0  0  0  0  0  0  0  0  0  0  0  # atno 17371 bound_to 10713
  140.0143  134.9974  157.0461 LP  0  0  0  0  0  0  0  0  0  0  0  0  # atno 17394 bound_to 11000
  140.4546  134.1547  155.7185 LP  0  0  0  0  0  0  0  0  0  0  0  0  # atno 17395 bound_to 11000

$$$$
