AV-unprocessed.smi:2000|AV-procd|sdf|8100|dock3
  -GOLD-   2272010323D 1   1.00000     0.00000
 Structure written by MMmdl.
 43 44  0  0  0  0  0  0  0  0  1 V2000
  146.8491  134.3371  159.5787 C   0  0  0  0  0  0  0  0  0  0  0  0
  147.2658  135.8139  159.6600 C   0  0  2  0  0  0  0  0  0  0  0  0
  148.6514  136.0403  159.0408 C   0  0  0  0  0  0  0  0  0  0  0  0
  149.3170  135.0867  158.6371 O   0  0  0  0  0  0  0  0  0  0  0  0
  149.0724  137.3131  158.9664 N   0  0  0  0  0  0  0  0  0  0  0  0
  150.3538  137.7398  158.4123 C   0  0  0  0  0  0  0  0  0  0  0  0
  150.2421  138.4198  157.0473 C   0  0  0  0  0  0  0  0  0  0  0  0
  149.7203  137.7007  155.9483 C   0  0  0  0  0  0  0  0  0  0  0  0
  149.6419  138.3198  154.6885 C   0  0  0  0  0  0  0  0  0  0  0  0
  150.1035  139.6420  154.5679 C   0  0  0  0  0  0  0  0  0  0  0  0
  150.6175  140.3398  155.6007 N   0  0  0  0  0  0  0  0  0  0  0  0
  150.6917  139.7496  156.8192 C   0  0  0  0  0  0  0  0  0  0  0  0
  151.2155  140.5204  157.8722 N   0  0  0  0  0  0  0  0  0  0  0  0
  151.3316  141.9338  157.5370 C   0  0  0  0  0  0  0  0  0  0  0  0
  151.6879  142.7432  158.7957 C   0  0  0  0  0  0  0  0  0  0  0  0
  152.8788  142.2219  159.3800 O   0  0  0  0  0  0  0  0  0  0  0  0
  152.7346  140.8583  159.7681 C   0  0  0  0  0  0  0  0  0  0  0  0
  152.4092  140.0021  158.5322 C   0  0  0  0  0  0  0  0  0  0  0  0
  147.2493  136.3737  161.4285 S   0  0  0  0  0  0  0  0  0  0  0  0
  146.6981  134.8712  162.3396 C   0  0  0  0  0  0  0  0  0  0  0  0
  148.6363  136.6646  161.8222 O   0  0  0  0  0  0  0  0  0  0  0  0
  146.2214  137.4129  161.5960 O   0  0  0  0  0  0  0  0  0  0  0  0
  146.8584  133.9784  158.5490 H   0  0  0  0  0  0  0  0  0  0  0  0
  145.8395  134.1971  159.9659 H   0  0  0  0  0  0  0  0  0  0  0  0
  147.5152  133.6999  160.1619 H   0  0  0  0  0  0  0  0  0  0  0  0
  146.5282  136.4164  159.1286 H   0  0  0  0  0  0  0  0  0  0  0  0
  148.4622  138.0390  159.3129 H   0  0  0  0  0  0  0  0  0  0  0  0
  150.8681  138.3628  159.1438 H   0  0  0  0  0  0  0  0  0  0  0  0
  150.9753  136.8528  158.2900 H   0  0  0  0  0  0  0  0  0  0  0  0
  149.3839  136.6809  156.0630 H   0  0  0  0  0  0  0  0  0  0  0  0
  149.2419  137.7925  153.8353 H   0  0  0  0  0  0  0  0  0  0  0  0
  150.0624  140.1517  153.6169 H   0  0  0  0  0  0  0  0  0  0  0  0
  152.1054  142.0614  156.7786 H   0  0  0  0  0  0  0  0  0  0  0  0
  150.4004  142.3019  157.1073 H   0  0  0  0  0  0  0  0  0  0  0  0
  151.8469  143.7902  158.5372 H   0  0  0  0  0  0  0  0  0  0  0  0
  150.8718  142.7135  159.5196 H   0  0  0  0  0  0  0  0  0  0  0  0
  153.6633  140.5190  160.2270 H   0  0  0  0  0  0  0  0  0  0  0  0
  151.9525  140.7653  160.5234 H   0  0  0  0  0  0  0  0  0  0  0  0
  152.2491  138.9636  158.8246 H   0  0  0  0  0  0  0  0  0  0  0  0
  153.2541  140.0208  157.8421 H   0  0  0  0  0  0  0  0  0  0  0  0
  146.7802  135.0508  163.4113 H   0  0  0  0  0  0  0  0  0  0  0  0
  147.3254  134.0232  162.0661 H   0  0  0  0  0  0  0  0  0  0  0  0
  145.6585  134.6554  162.0968 H   0  0  0  0  0  0  0  0  0  0  0  0
  1  2  1  0  0  0  0
  1 23  1  0  0  0  0
  1 24  1  0  0  0  0
  1 25  1  0  0  0  0
  2  3  1  0  0  0  0
  2 19  1  0  0  0  0
  2 26  1  0  0  0  0
  3  4  2  0  0  0  0
  3  5  1  0  0  0  0
  5  6  1  0  0  0  0
  5 27  1  0  0  0  0
  6  7  1  0  0  0  0
  6 28  1  0  0  0  0
  6 29  1  0  0  0  0
  7 12  1  0  0  0  0
  7  8  2  0  0  0  0
  8  9  1  0  0  0  0
  8 30  1  0  0  0  0
  9 10  2  0  0  0  0
  9 31  1  0  0  0  0
 10 11  1  0  0  0  0
 10 32  1  0  0  0  0
 11 12  2  0  0  0  0
 12 13  1  0  0  0  0
 13 18  1  0  0  0  0
 13 14  1  0  0  0  0
 14 15  1  0  0  0  0
 14 33  1  0  0  0  0
 14 34  1  0  0  0  0
 15 16  1  0  0  0  0
 15 35  1  0  0  0  0
 15 36  1  0  0  0  0
 16 17  1  0  0  0  0
 17 18  1  0  0  0  0
 17 37  1  0  0  0  0
 17 38  1  0  0  0  0
 18 39  1  0  0  0  0
 18 40  1  0  0  0  0
 19 20  1  0  0  0  0
 19 21  2  0  0  0  0
 19 22  2  0  0  0  0
 20 41  1  0  0  0  0
 20 42  1  0  0  0  0
 20 43  1  0  0  0  0
M  END
> <s_m_source_file>
AV-unprocessed.smi

> <i_m_source_file_index>
2000

> <i_lp_mmshare_version>
43012

> <i_f3d_flags>
0

> <s_epik_input>
W0NIM11TKD1PKSg9TylbQ0BIXShbQ0gzXSlDKD1PKVtOSF1bQ0gyXWMxW2NIXVtjSF1bY0hdbmMxTjJbQ0gyXVtDSDJdT1tDSDJdW0NIMl0y

> <s_epik_cmdline>
J2VwaWtfcHl0aG9uJywgJy1waCcsICc3LjAnLCAnLXRuJywgJzgnLCAnLW1hJywgJzIwMCcsICctbWV0YWxfYmluZGluZycsICctaW1hZScsICc8aW5maWxlLm1hZT4nLCAnLW9tYWUnLCAnPG91dGZpbGUubWFlPic=

> <r_lp_tautomer_probability>
1

> <r_epik_Ionization_Penalty>
0.00349769

> <r_epik_Ionization_Penalty_Charging>
0

> <r_epik_Ionization_Penalty_Neutral>
0.00349769

> <r_epik_State_Penalty>
0.00248024

> <r_epik_Charging_Adjusted_Penalty>
0.00248024

> <i_epik_Tot_Q>
0

> <i_epik_Tot_abs_Q>
0

> <r_epik_Metal_State_Penalty>
-0

> <b_epik_Metal_Only>
0

> <s_lp_Force_Field>
OPLS_2005

> <r_lp_Energy>
16.3383

> <b_lp_Chiralities_Consistent>
1

> <s_lp_Variant>
AV-unprocessed.smi:2000-1

> <Gold.Version>
5.8.1

> <Gold.Id.Protein>
6NUR|6NUR_protein|mol2

> <Gold.PLP.Fitness>
41.9026

> <Gold.PLP.PLP>
-30.3561

> <Gold.PLP.part.hbond>
-3.0978

> <Gold.PLP.part.metal>
0.0000

> <Gold.PLP.part.buried>
-5.6195

> <Gold.PLP.part.nonpolar>
-22.4683

> <Gold.PLP.part.repulsive>
0.2293

> <Gold.PLP.ligand.clash>
0.0000

> <Gold.PLP.ligand.torsion>
0.3373

> <Gold.PLP.Chemscore.Hbond>
2.9588

> <Gold.PLP.Chemscore.CHOScore>
1.0000

> <Gold.PLP.Chemscore.Metal>
0.0000

> <Gold.Chemscore.Hbonds>
donor molecule, donor type, donor heavy atom, donor atom, acceptor molecule, acceptor atom, score
      P1  H  6896  6907       L1     4  1.00
      P1  H  6931  6943       L1    21  1.00
      P1  H  6934  6947       L1    22  1.00
      L1  C    10    32       P1  7957  1.00

> <Gold.PLP.Chemscore.Internal.Correction>
0.3449

> <Gold.Rescore>
     Score         DG    S(hbond)    S(metal)    S(lipo)     H(rot)  DE(clash)    DE(int)     intcor
     14.63     -16.25       2.44        0.00      67.99       2.08       0.31       1.31       ----

> <Gold.Chemscore.Fitness>
14.6343

> <Gold.Chemscore.DG>
-16.2538

> <Gold.Chemscore.ZeroCoef>
-5.4800

> <Gold.Chemscore.Hbond>
2.4357

> <Gold.Chemscore.Metal>
0.0000

> <Gold.Chemscore.Lipo>
67.9851

> <Gold.Chemscore.Internal_Hbond>
0.0000

> <Gold.Chemscore.DEClash>
0.3052

> <Gold.Chemscore.DEInternal>
1.3143

> <Gold.Chemscore.Rot>
2.0764

> <Gold.Chemscore.Internal.Correction>
   9.000000E+99

> <Gold.Chemscore.Hbonds>
donor molecule, donor type, donor heavy atom, donor atom, acceptor molecule, acceptor atom, score
      P1  H  6896  6907       L1     4  1.00
      P1  H  6931  6943       L1    21  0.94
      P1  H  6934  6947       L1    22  0.32

> <Gold.Chemscore.Hbond.Weighted>
-8.1351

> <Gold.Chemscore.Metal.Weighted>
-0.0000

> <Gold.Chemscore.Lipo.Weighted>
-7.9543

> <Gold.Chemscore.Internal_Hbond.Weighted>
0.0000

> <Gold.Chemscore.DEClash.Weighted>
0.3052

> <Gold.Chemscore.DEInternal.Weighted>
1.3143

> <Gold.Chemscore.Rot.Weighted>
5.3155

> <Gold.Chemscore.Internal.Correction.Weighted>
   9.000000E+99

> <Gold.Protein.RotatedTorsions>
[ 6907 6896 6895 6894 ] final  -85.85 input  -60.11 | X-H torsion
[ 7974 7965 7964 7962 ] final -155.77 input  175.53 | X-H torsion
[ 8008 7997 7996 7995 ] final  139.02 input   59.86 | X-H torsion
[ 10167 10162 10161 10158 ] final   81.52 input  -65.29 | X-H torsion
[ 10718 10713 10712 10709 ] final  111.27 input   66.30 | X-H torsion
[ 10763 10752 10751 10750 ] final  -89.20 input  -60.55 | X-H torsion
[ 11005 11000 10999 10996 ] final  126.27 input  -57.11 | X-H torsion

> <Gold.Protein.ActiveResidues>
 VAL166  LYS551  ARG553  GLY616  TRP617  ASP618  TYR619  PRO620  LYS621  CYS622 
 ASP623  PHE694  ASN695  SER759  ASP760  ASP761  ALA762  ILE779  LEU786  VAL792 
 PHE793  MET794  SER795  GLU796  ALA797  LYS798  CYS799  TRP800  GLU811  SER814 

> <Gold.Protein.RotatedAtoms>
  150.6868  134.3140  159.4758 H   0  0  0  0  0  0  0  0  0  0  0  0  # atno 6907 bound_to 6896
  152.1023  134.9330  160.0578 H   0  0  0  0  0  0  0  0  0  0  0  0  # atno 6908 bound_to 6896
  152.0604  133.4025  159.4452 H   0  0  0  0  0  0  0  0  0  0  0  0  # atno 6909 bound_to 6896
  144.7624  140.4203  143.5966 H   0  0  0  0  0  0  0  0  0  0  0  0  # atno 7974 bound_to 7965
  156.2993  140.2378  156.4169 H   0  0  0  0  0  0  0  0  0  0  0  0  # atno 8008 bound_to 7997
  154.8391  140.0429  157.1549 H   0  0  0  0  0  0  0  0  0  0  0  0  # atno 8009 bound_to 7997
  154.9123  140.2992  155.5263 H   0  0  0  0  0  0  0  0  0  0  0  0  # atno 8010 bound_to 7997
  139.9384  144.6106  150.8276 H   0  0  0  0  0  0  0  0  0  0  0  0  # atno 10167 bound_to 10162
  157.6453  131.0947  150.6724 H   0  0  0  0  0  0  0  0  0  0  0  0  # atno 10718 bound_to 10713
  154.6527  135.5349  153.7921 H   0  0  0  0  0  0  0  0  0  0  0  0  # atno 10763 bound_to 10752
  153.0395  135.6486  154.0992 H   0  0  0  0  0  0  0  0  0  0  0  0  # atno 10764 bound_to 10752
  154.0908  135.2940  155.3252 H   0  0  0  0  0  0  0  0  0  0  0  0  # atno 10765 bound_to 10752
  139.9448  134.9631  156.8682 H   0  0  0  0  0  0  0  0  0  0  0  0  # atno 11005 bound_to 11000
  145.6576  139.1575  143.2827 LP  0  0  0  0  0  0  0  0  0  0  0  0  # atno 17320 bound_to 7965
  146.1701  140.6659  142.9237 LP  0  0  0  0  0  0  0  0  0  0  0  0  # atno 17321 bound_to 7965
  140.7618  143.3183  151.2682 LP  0  0  0  0  0  0  0  0  0  0  0  0  # atno 17342 bound_to 10162
  139.6725  143.9995  152.2761 LP  0  0  0  0  0  0  0  0  0  0  0  0  # atno 17343 bound_to 10162
  156.7042  130.4632  149.5564 LP  0  0  0  0  0  0  0  0  0  0  0  0  # atno 17370 bound_to 10713
  156.1774  130.6477  151.0911 LP  0  0  0  0  0  0  0  0  0  0  0  0  # atno 17371 bound_to 10713
  140.5863  134.0304  155.7482 LP  0  0  0  0  0  0  0  0  0  0  0  0  # atno 17394 bound_to 11000
  141.1094  133.9641  157.2937 LP  0  0  0  0  0  0  0  0  0  0  0  0  # atno 17395 bound_to 11000

$$$$
