AV-unprocessed.smi:2850|AV-procd|sdf|10969|dock3
  -GOLD-   2272015423D 1   1.00000     0.00000
 Structure written by MMmdl.
 44 45  0  0  0  0  0  0  0  0  1 V2000
  151.1680  142.2467  156.5408 C   0  0  0  0  0  0  0  0  0  0  0  0
  151.2666  140.5767  155.8376 S   0  0  0  0  0  0  0  0  0  0  0  0
  149.7564  140.2850  154.9671 C   0  0  0  0  0  0  0  0  0  0  0  0
  148.8287  141.3243  154.7738 C   0  0  0  0  0  0  0  0  0  0  0  0
  147.6528  141.0080  154.0715 C   0  0  0  0  0  0  0  0  0  0  0  0
  147.4971  139.6826  153.6172 C   0  0  0  0  0  0  0  0  0  0  0  0
  146.3341  139.3393  152.9156 N   0  0  0  0  0  0  0  0  0  0  0  0
  146.3782  138.3606  151.8382 C   0  0  0  0  0  0  0  0  0  0  0  0
  145.7456  137.0276  152.2591 C   0  0  2  0  0  0  0  0  0  0  0  0
  145.9557  135.9356  151.1918 C   0  0  0  0  0  0  0  0  0  0  0  0
  145.2942  134.6839  151.5451 N   0  0  0  0  0  0  0  0  0  0  0  0
  145.5260  133.6642  150.5202 C   0  0  0  0  0  0  0  0  0  0  0  0
  145.0710  132.2328  150.8783 C   0  0  0  0  0  0  0  0  0  0  0  0
  143.5411  132.0900  150.8236 C   0  0  0  0  0  0  0  0  0  0  0  0
  145.5982  131.8338  152.2642 C   0  0  0  0  0  0  0  0  0  0  0  0
  143.8749  134.9473  151.7705 C   0  0  0  0  0  0  0  0  0  0  0  0
  143.6568  136.0466  152.8235 C   0  0  0  0  0  0  0  0  0  0  0  0
  144.3442  137.2287  152.4287 O   0  0  0  0  0  0  0  0  0  0  0  0
  148.4385  138.7309  153.8432 N   0  0  0  0  0  0  0  0  0  0  0  0
  149.5590  139.0273  154.5113 N   0  0  0  0  0  0  0  0  0  0  0  0
  152.0810  142.4767  157.0899 H   0  0  0  0  0  0  0  0  0  0  0  0
  150.3247  142.3237  157.2273 H   0  0  0  0  0  0  0  0  0  0  0  0
  151.0456  142.9874  155.7504 H   0  0  0  0  0  0  0  0  0  0  0  0
  149.0095  142.3212  155.1479 H   0  0  0  0  0  0  0  0  0  0  0  0
  146.8979  141.7586  153.8888 H   0  0  0  0  0  0  0  0  0  0  0  0
  145.4822  139.8599  153.0654 H   0  0  0  0  0  0  0  0  0  0  0  0
  145.8705  138.7559  150.9574 H   0  0  0  0  0  0  0  0  0  0  0  0
  147.4212  138.1973  151.5640 H   0  0  0  0  0  0  0  0  0  0  0  0
  146.1846  136.6988  153.2031 H   0  0  0  0  0  0  0  0  0  0  0  0
  145.5818  136.2913  150.2302 H   0  0  0  0  0  0  0  0  0  0  0  0
  147.0248  135.7618  151.0637 H   0  0  0  0  0  0  0  0  0  0  0  0
  145.0416  133.9740  149.5928 H   0  0  0  0  0  0  0  0  0  0  0  0
  146.5929  133.6255  150.2952 H   0  0  0  0  0  0  0  0  0  0  0  0
  145.5024  131.5287  150.1676 H   0  0  0  0  0  0  0  0  0  0  0  0
  143.0539  132.7744  151.5186 H   0  0  0  0  0  0  0  0  0  0  0  0
  143.2313  131.0769  151.0816 H   0  0  0  0  0  0  0  0  0  0  0  0
  143.1583  132.3021  149.8250 H   0  0  0  0  0  0  0  0  0  0  0  0
  145.1995  132.4851  153.0427 H   0  0  0  0  0  0  0  0  0  0  0  0
  146.6860  131.8953  152.3036 H   0  0  0  0  0  0  0  0  0  0  0  0
  145.3184  130.8095  152.5120 H   0  0  0  0  0  0  0  0  0  0  0  0
  143.4004  135.2450  150.8341 H   0  0  0  0  0  0  0  0  0  0  0  0
  143.3681  134.0437  152.1064 H   0  0  0  0  0  0  0  0  0  0  0  0
  142.5945  136.2690  152.9250 H   0  0  0  0  0  0  0  0  0  0  0  0
  144.0116  135.7206  153.8024 H   0  0  0  0  0  0  0  0  0  0  0  0
  1  2  1  0  0  0  0
  1 21  1  0  0  0  0
  1 22  1  0  0  0  0
  1 23  1  0  0  0  0
  2  3  1  0  0  0  0
  3 20  1  0  0  0  0
  3  4  2  0  0  0  0
  4  5  1  0  0  0  0
  4 24  1  0  0  0  0
  5  6  2  0  0  0  0
  5 25  1  0  0  0  0
  6  7  1  0  0  0  0
  6 19  1  0  0  0  0
  7  8  1  0  0  0  0
  7 26  1  0  0  0  0
  8  9  1  0  0  0  0
  8 27  1  0  0  0  0
  8 28  1  0  0  0  0
  9 18  1  0  0  0  0
  9 10  1  0  0  0  0
  9 29  1  0  0  0  0
 10 11  1  0  0  0  0
 10 30  1  0  0  0  0
 10 31  1  0  0  0  0
 11 12  1  0  0  0  0
 11 16  1  0  0  0  0
 12 13  1  0  0  0  0
 12 32  1  0  0  0  0
 12 33  1  0  0  0  0
 13 14  1  0  0  0  0
 13 15  1  0  0  0  0
 13 34  1  0  0  0  0
 14 35  1  0  0  0  0
 14 36  1  0  0  0  0
 14 37  1  0  0  0  0
 15 38  1  0  0  0  0
 15 39  1  0  0  0  0
 15 40  1  0  0  0  0
 16 17  1  0  0  0  0
 16 41  1  0  0  0  0
 16 42  1  0  0  0  0
 17 18  1  0  0  0  0
 17 43  1  0  0  0  0
 17 44  1  0  0  0  0
 19 20  2  0  0  0  0
M  END
> <s_m_source_file>
AV-unprocessed.smi

> <i_m_source_file_index>
2850

> <i_lp_mmshare_version>
43012

> <i_f3d_flags>
0

> <s_epik_input>
W0NIM11TYzFbY0hdW2NIXWMobm4xKVtOSF1bQ0gyXVtDQEBIXTJbQ0gyXU4oW0NIMl1bQ0gyXU8yKVtDSDJdW0NIXShbQ0gzXSlbQ0gzXQ==

> <s_epik_cmdline>
J2VwaWtfcHl0aG9uJywgJy1waCcsICc3LjAnLCAnLXRuJywgJzgnLCAnLW1hJywgJzIwMCcsICctbWV0YWxfYmluZGluZycsICctaW1hZScsICc8aW5maWxlLm1hZT4nLCAnLW9tYWUnLCAnPG91dGZpbGUubWFlPic=

> <r_lp_tautomer_probability>
0.999978

> <r_epik_Ionization_Penalty>
1.20939

> <r_epik_Ionization_Penalty_Charging>
0

> <r_epik_Ionization_Penalty_Neutral>
1.20939

> <r_epik_State_Penalty>
1.27042

> <r_epik_Charging_Adjusted_Penalty>
1.27042

> <i_epik_Tot_Q>
0

> <i_epik_Tot_abs_Q>
0

> <r_epik_Metal_State_Penalty>
1.26998

> <b_epik_Metal_Only>
0

> <s_lp_Force_Field>
OPLS_2005

> <r_lp_Energy>
30.5151

> <b_lp_Chiralities_Consistent>
1

> <s_lp_Variant>
AV-unprocessed.smi:2850-5

> <Gold.Version>
5.8.1

> <Gold.Id.Protein>
6NUR|6NUR_protein|mol2

> <Gold.PLP.Fitness>
38.9732

> <Gold.PLP.PLP>
-36.8711

> <Gold.PLP.part.hbond>
-1.0000

> <Gold.PLP.part.metal>
0.0000

> <Gold.PLP.part.buried>
-4.1852

> <Gold.PLP.part.nonpolar>
-33.8532

> <Gold.PLP.part.repulsive>
2.4287

> <Gold.PLP.ligand.clash>
0.0000

> <Gold.PLP.ligand.torsion>
0.5253

> <Gold.PLP.Chemscore.Hbond>
1.0000

> <Gold.PLP.Chemscore.CHOScore>
0.0000

> <Gold.PLP.Chemscore.Metal>
0.0000

> <Gold.Chemscore.Hbonds>
donor molecule, donor type, donor heavy atom, donor atom, acceptor molecule, acceptor atom, score
      L1  H     7    26       P1 10175  1.00

> <Gold.PLP.Chemscore.Internal.Correction>
0.1526

> <Gold.Rescore>
     Score         DG    S(hbond)    S(metal)    S(lipo)     H(rot)  DE(clash)    DE(int)     intcor
     14.94     -15.56       0.92        0.00      93.67       1.55       0.10       0.52       ----

> <Gold.Chemscore.Fitness>
14.9424

> <Gold.Chemscore.DG>
-15.5578

> <Gold.Chemscore.ZeroCoef>
-5.4800

> <Gold.Chemscore.Hbond>
0.9220

> <Gold.Chemscore.Metal>
0.0000

> <Gold.Chemscore.Lipo>
93.6695

> <Gold.Chemscore.Internal_Hbond>
0.0000

> <Gold.Chemscore.DEClash>
0.0973

> <Gold.Chemscore.DEInternal>
0.5181

> <Gold.Chemscore.Rot>
1.5473

> <Gold.Chemscore.Internal.Correction>
   9.000000E+99

> <Gold.Chemscore.Hbonds>
donor molecule, donor type, donor heavy atom, donor atom, acceptor molecule, acceptor atom, score
      L1  H     7    26       P1 10175  0.92

> <Gold.Chemscore.Hbond.Weighted>
-3.0795

> <Gold.Chemscore.Metal.Weighted>
-0.0000

> <Gold.Chemscore.Lipo.Weighted>
-10.9593

> <Gold.Chemscore.Internal_Hbond.Weighted>
0.0000

> <Gold.Chemscore.DEClash.Weighted>
0.0973

> <Gold.Chemscore.DEInternal.Weighted>
0.5181

> <Gold.Chemscore.Rot.Weighted>
3.9610

> <Gold.Chemscore.Internal.Correction.Weighted>
   9.000000E+99

> <Gold.Protein.RotatedTorsions>
[ 6907 6896 6895 6894 ] final -122.21 input  -60.11 | X-H torsion
[ 7974 7965 7964 7962 ] final  -96.25 input  175.53 | X-H torsion
[ 8008 7997 7996 7995 ] final -162.33 input   59.86 | X-H torsion
[ 10167 10162 10161 10158 ] final  -16.00 input  -65.29 | X-H torsion
[ 10718 10713 10712 10709 ] final  154.88 input   66.30 | X-H torsion
[ 10763 10752 10751 10750 ] final    4.37 input  -60.55 | X-H torsion
[ 11005 11000 10999 10996 ] final   55.47 input  -57.11 | X-H torsion

> <Gold.Protein.ActiveResidues>
 VAL166  LYS551  ARG553  GLY616  TRP617  ASP618  TYR619  PRO620  LYS621  CYS622 
 ASP623  PHE694  ASN695  SER759  ASP760  ASP761  ALA762  ILE779  LEU786  VAL792 
 PHE793  MET794  SER795  GLU796  ALA797  LYS798  CYS799  TRP800  GLU811  SER814 

> <Gold.Protein.RotatedAtoms>
  150.8555  133.7722  159.3010 H   0  0  0  0  0  0  0  0  0  0  0  0  # atno 6907 bound_to 6896
  151.5381  135.1067  159.9929 H   0  0  0  0  0  0  0  0  0  0  0  0  # atno 6908 bound_to 6896
  152.4586  133.7731  159.6866 H   0  0  0  0  0  0  0  0  0  0  0  0  # atno 6909 bound_to 6896
  145.3493  140.9474  143.2563 H   0  0  0  0  0  0  0  0  0  0  0  0  # atno 7974 bound_to 7965
  155.8052  140.0897  157.1935 H   0  0  0  0  0  0  0  0  0  0  0  0  # atno 8008 bound_to 7997
  154.3981  140.1465  156.3381 H   0  0  0  0  0  0  0  0  0  0  0  0  # atno 8009 bound_to 7997
  155.8422  140.3438  155.5641 H   0  0  0  0  0  0  0  0  0  0  0  0  # atno 8010 bound_to 7997
  140.7227  143.5160  150.9691 H   0  0  0  0  0  0  0  0  0  0  0  0  # atno 10167 bound_to 10162
  157.2257  131.0728  151.1884 H   0  0  0  0  0  0  0  0  0  0  0  0  # atno 10718 bound_to 10713
  153.2720  135.6933  153.7471 H   0  0  0  0  0  0  0  0  0  0  0  0  # atno 10763 bound_to 10752
  153.6490  135.3380  155.3095 H   0  0  0  0  0  0  0  0  0  0  0  0  # atno 10764 bound_to 10752
  154.8467  135.4450  154.1746 H   0  0  0  0  0  0  0  0  0  0  0  0  # atno 10765 bound_to 10752
  140.0605  134.5610  155.9158 H   0  0  0  0  0  0  0  0  0  0  0  0  # atno 11005 bound_to 11000
  144.8730  139.5012  143.6759 LP  0  0  0  0  0  0  0  0  0  0  0  0  # atno 17320 bound_to 7965
  146.2974  139.7321  142.9116 LP  0  0  0  0  0  0  0  0  0  0  0  0  # atno 17321 bound_to 7965
  139.8876  143.6994  152.3149 LP  0  0  0  0  0  0  0  0  0  0  0  0  # atno 17342 bound_to 10162
  139.7298  144.7585  151.0820 LP  0  0  0  0  0  0  0  0  0  0  0  0  # atno 17343 bound_to 10162
  157.3530  130.7092  149.6453 LP  0  0  0  0  0  0  0  0  0  0  0  0  # atno 17370 bound_to 10713
  155.9679  130.4247  150.4620 LP  0  0  0  0  0  0  0  0  0  0  0  0  # atno 17371 bound_to 10713
  141.1971  133.6594  156.5723 LP  0  0  0  0  0  0  0  0  0  0  0  0  # atno 17394 bound_to 11000
  140.3778  134.7549  157.4641 LP  0  0  0  0  0  0  0  0  0  0  0  0  # atno 17395 bound_to 11000

$$$$
