AV-unprocessed.smi:1211|AV-procd|sdf|5080|dock7
  -GOLD-   22720 4133D 1   1.00000     0.00000
 Structure written by MMmdl.
 48 50  0  0  0  0  0  0  0  0  2 V2000
  144.1613  135.8250  151.1424 C   0  0  0  0  0  0  0  0  0  0  0  0
  144.5502  134.5319  150.4443 C   0  0  0  0  0  0  0  0  0  0  0  0
  143.6854  133.9861  149.4716 C   0  0  0  0  0  0  0  0  0  0  0  0
  144.0450  132.7899  148.8279 C   0  0  0  0  0  0  0  0  0  0  0  0
  145.2618  132.1858  149.1866 C   0  0  0  0  0  0  0  0  0  0  0  0
  146.0940  132.6998  150.1153 N   0  0  0  0  0  0  0  0  0  0  0  0
  145.7628  133.8551  150.7446 C   0  0  0  0  0  0  0  0  0  0  0  0
  146.5937  134.4572  151.7315 N   0  0  0  0  0  0  0  0  0  0  0  0
  146.4732  134.4071  153.0700 C   0  0  0  0  0  0  0  0  0  0  0  0
  145.5962  133.8017  153.6860 O   0  0  0  0  0  0  0  0  0  0  0  0
  147.4401  135.1165  153.6699 N   0  0  0  0  0  0  0  0  0  0  0  0
  147.6129  135.2627  155.1154 C   0  0  0  0  0  0  0  0  0  0  0  0
  149.0878  135.5547  155.5417 C   0  0  1  0  0  0  0  0  0  0  0  0
  149.5643  136.7926  154.8197 N   0  3  0  0  0  0  0  0  0  0  0  0
  148.7475  138.0285  154.9790 C   0  0  0  0  0  0  0  0  0  0  0  0
  149.2923  139.1701  154.1019 C   0  0  0  0  0  0  0  0  0  0  0  0
  150.6612  139.4055  154.3951 O   0  0  0  0  0  0  0  0  0  0  0  0
  151.4552  138.2614  154.1204 C   0  0  0  0  0  0  0  0  0  0  0  0
  151.0065  137.1062  155.0277 C   0  0  0  0  0  0  0  0  0  0  0  0
  149.1807  135.6682  157.0898 C   0  0  0  0  0  0  0  0  0  0  0  0
  148.9650  134.2774  157.6946 C   0  0  0  0  0  0  0  0  0  0  0  0
  149.6998  133.0864  156.5476 S   0  0  0  0  0  0  0  0  0  0  0  0
  149.9694  134.3190  155.2433 C   0  0  0  0  0  0  0  0  0  0  0  0
  143.2029  136.1988  150.7806 H   0  0  0  0  0  0  0  0  0  0  0  0
  144.9108  136.5963  150.9624 H   0  0  0  0  0  0  0  0  0  0  0  0
  144.0749  135.6671  152.2180 H   0  0  0  0  0  0  0  0  0  0  0  0
  142.7561  134.4757  149.2197 H   0  0  0  0  0  0  0  0  0  0  0  0
  143.4050  132.3471  148.0790 H   0  0  0  0  0  0  0  0  0  0  0  0
  145.5762  131.2658  148.7164 H   0  0  0  0  0  0  0  0  0  0  0  0
  147.3701  134.9906  151.3700 H   0  0  0  0  0  0  0  0  0  0  0  0
  148.1265  135.5672  153.0829 H   0  0  0  0  0  0  0  0  0  0  0  0
  146.9201  136.0097  155.5028 H   0  0  0  0  0  0  0  0  0  0  0  0
  147.2684  134.3320  155.5645 H   0  0  0  0  0  0  0  0  0  0  0  0
  147.7184  137.8615  154.6647 H   0  0  0  0  0  0  0  0  0  0  0  0
  148.7319  138.3334  156.0258 H   0  0  0  0  0  0  0  0  0  0  0  0
  149.1726  138.9357  153.0428 H   0  0  0  0  0  0  0  0  0  0  0  0
  148.7303  140.0855  154.2875 H   0  0  0  0  0  0  0  0  0  0  0  0
  151.3802  137.9869  153.0668 H   0  0  0  0  0  0  0  0  0  0  0  0
  152.5003  138.5046  154.3130 H   0  0  0  0  0  0  0  0  0  0  0  0
  151.1849  137.3835  156.0670 H   0  0  0  0  0  0  0  0  0  0  0  0
  151.6308  136.2394  154.8183 H   0  0  0  0  0  0  0  0  0  0  0  0
  150.1839  135.9561  157.4009 H   0  0  0  0  0  0  0  0  0  0  0  0
  148.4992  136.4075  157.5089 H   0  0  0  0  0  0  0  0  0  0  0  0
  149.4163  134.1905  158.6833 H   0  0  0  0  0  0  0  0  0  0  0  0
  147.9027  134.0581  157.8023 H   0  0  0  0  0  0  0  0  0  0  0  0
  149.7724  133.8816  154.2641 H   0  0  0  0  0  0  0  0  0  0  0  0
  151.0263  134.5857  155.2716 H   0  0  0  0  0  0  0  0  0  0  0  0
  149.4752  136.5598  153.8410 H   0  0  0  0  0  0  0  0  0  0  0  0
  1  2  1  0  0  0  0
  1 24  1  0  0  0  0
  1 25  1  0  0  0  0
  1 26  1  0  0  0  0
  2  7  1  0  0  0  0
  2  3  2  0  0  0  0
  3  4  1  0  0  0  0
  3 27  1  0  0  0  0
  4  5  2  0  0  0  0
  4 28  1  0  0  0  0
  5  6  1  0  0  0  0
  5 29  1  0  0  0  0
  6  7  2  0  0  0  0
  7  8  1  0  0  0  0
  8  9  1  0  0  0  0
  8 30  1  0  0  0  0
  9 10  2  0  0  0  0
  9 11  1  0  0  0  0
 11 12  1  0  0  0  0
 11 31  1  0  0  0  0
 12 13  1  0  0  0  0
 12 32  1  0  0  0  0
 12 33  1  0  0  0  0
 13 23  1  0  0  0  0
 13 14  1  0  0  0  0
 13 20  1  0  0  0  0
 14 19  1  0  0  0  0
 14 15  1  0  0  0  0
 14 48  1  0  0  0  0
 15 16  1  0  0  0  0
 15 34  1  0  0  0  0
 15 35  1  0  0  0  0
 16 17  1  0  0  0  0
 16 36  1  0  0  0  0
 16 37  1  0  0  0  0
 17 18  1  0  0  0  0
 18 19  1  0  0  0  0
 18 38  1  0  0  0  0
 18 39  1  0  0  0  0
 19 40  1  0  0  0  0
 19 41  1  0  0  0  0
 20 21  1  0  0  0  0
 20 42  1  0  0  0  0
 20 43  1  0  0  0  0
 21 22  1  0  0  0  0
 21 44  1  0  0  0  0
 21 45  1  0  0  0  0
 22 23  1  0  0  0  0
 23 46  1  0  0  0  0
 23 47  1  0  0  0  0
M  CHG  1  14   1
M  END
> <s_m_source_file>
AV-unprocessed.smi

> <i_m_source_file_index>
1211

> <i_lp_mmshare_version>
43012

> <i_f3d_flags>
0

> <s_epik_input>
W0NIM11jMVtjSF1bY0hdW2NIXW5jMVtOSF1DKD1PKVtOSF1bQ0gyXVtDQF0yKFtDSDJdW0NIMl1TW0NIMl0yKU4zW0NIMl1bQ0gyXU9bQ0gyXVtDSDJdMw==

> <s_epik_cmdline>
J2VwaWtfcHl0aG9uJywgJy1waCcsICc3LjAnLCAnLXRuJywgJzgnLCAnLW1hJywgJzIwMCcsICctbWV0YWxfYmluZGluZycsICctaW1hZScsICc8aW5maWxlLm1hZT4nLCAnLW9tYWUnLCAnPG91dGZpbGUubWFlPic=

> <r_epik_Ionization_Penalty>
2.03223

> <r_epik_Ionization_Penalty_Charging>
2.03219

> <r_epik_Ionization_Penalty_Neutral>
4.05816e-05

> <r_epik_State_Penalty>
2.16328

> <r_epik_Charging_Adjusted_Penalty>
4.19546

> <i_epik_Tot_Q>
1

> <i_epik_Tot_abs_Q>
1

> <r_epik_Metal_State_Penalty>
2.16328

> <b_epik_Metal_Only>
0

> <s_lp_Force_Field>
OPLS_2005

> <r_lp_Energy>
45.8952

> <b_lp_Chiralities_Consistent>
1

> <s_lp_Variant>
AV-unprocessed.smi:1211-3

> <Gold.Version>
5.8.1

> <Gold.Id.Protein>
6NUR|6NUR_protein|mol2

> <Gold.PLP.Fitness>
45.0171

> <Gold.PLP.PLP>
-32.0316

> <Gold.PLP.part.hbond>
-4.0000

> <Gold.PLP.part.metal>
0.0000

> <Gold.PLP.part.buried>
0.3554

> <Gold.PLP.part.nonpolar>
-27.9610

> <Gold.PLP.part.repulsive>
0.4934

> <Gold.PLP.ligand.clash>
0.0000

> <Gold.PLP.ligand.torsion>
0.9710

> <Gold.PLP.Chemscore.Hbond>
4.9280

> <Gold.PLP.Chemscore.CHOScore>
0.0000

> <Gold.PLP.Chemscore.Metal>
0.0000

> <Gold.Chemscore.Hbonds>
donor molecule, donor type, donor heavy atom, donor atom, acceptor molecule, acceptor atom, score
      L1  H     8    30       P1  7948  0.93
      L1  H    11    31       P1  7948  1.00
      L1  H    14    48       P1  7948  1.92
      P1  H  7989  7998       L1    17  1.00

> <Gold.PLP.Chemscore.Internal.Correction>
0.1435

> <Gold.Rescore>
     Score         DG    S(hbond)    S(metal)    S(lipo)     H(rot)  DE(clash)    DE(int)     intcor
     20.66     -22.94       3.11        0.00      92.84       1.48       1.33       0.95       ----

> <Gold.Chemscore.Fitness>
20.6607

> <Gold.Chemscore.DG>
-22.9406

> <Gold.Chemscore.ZeroCoef>
-5.4800

> <Gold.Chemscore.Hbond>
3.1113

> <Gold.Chemscore.Metal>
0.0000

> <Gold.Chemscore.Lipo>
92.8449

> <Gold.Chemscore.Internal_Hbond>
0.0000

> <Gold.Chemscore.DEClash>
1.3303

> <Gold.Chemscore.DEInternal>
0.9495

> <Gold.Chemscore.Rot>
1.4820

> <Gold.Chemscore.Internal.Correction>
   9.000000E+99

> <Gold.Chemscore.Hbonds>
donor molecule, donor type, donor heavy atom, donor atom, acceptor molecule, acceptor atom, score
      L1  H     8    30       P1  7948  0.48
      L1  H    11    31       P1  7948  0.99
      L1  H    14    48       P1  7948  0.75
      P1  H  7989  7998       L1    17  0.38

> <Gold.Chemscore.Hbond.Weighted>
-10.3916

> <Gold.Chemscore.Metal.Weighted>
-0.0000

> <Gold.Chemscore.Lipo.Weighted>
-10.8629

> <Gold.Chemscore.Internal_Hbond.Weighted>
0.0000

> <Gold.Chemscore.DEClash.Weighted>
1.3303

> <Gold.Chemscore.DEInternal.Weighted>
0.9495

> <Gold.Chemscore.Rot.Weighted>
3.7939

> <Gold.Chemscore.Internal.Correction.Weighted>
   9.000000E+99

> <Gold.Protein.RotatedTorsions>
[ 6907 6896 6895 6894 ] final  151.96 input  -60.11 | X-H torsion
[ 7974 7965 7964 7962 ] final  -69.02 input  175.53 | X-H torsion
[ 8008 7997 7996 7995 ] final   61.97 input   59.86 | X-H torsion
[ 10167 10162 10161 10158 ] final  127.09 input  -65.29 | X-H torsion
[ 10718 10713 10712 10709 ] final  -58.66 input   66.30 | X-H torsion
[ 10763 10752 10751 10750 ] final   66.17 input  -60.55 | X-H torsion
[ 11005 11000 10999 10996 ] final   69.12 input  -57.11 | X-H torsion

> <Gold.Protein.ActiveResidues>
 VAL166  LYS551  ARG553  GLY616  TRP617  ASP618  TYR619  PRO620  LYS621  CYS622 
 ASP623  PHE694  ASN695  SER759  ASP760  ASP761  ALA762  ILE779  LEU786  VAL792 
 PHE793  MET794  SER795  GLU796  ALA797  LYS798  CYS799  TRP800  GLU811  SER814 

> <Gold.Protein.RotatedAtoms>
  152.0934  133.4212  159.4553 H   0  0  0  0  0  0  0  0  0  0  0  0  # atno 6907 bound_to 6896
  150.6863  134.2845  159.4650 H   0  0  0  0  0  0  0  0  0  0  0  0  # atno 6908 bound_to 6896
  152.0699  134.9540  160.0625 H   0  0  0  0  0  0  0  0  0  0  0  0  # atno 6909 bound_to 6896
  145.7092  140.9085  143.0690 H   0  0  0  0  0  0  0  0  0  0  0  0  # atno 7974 bound_to 7965
  155.6069  140.3494  155.4610 H   0  0  0  0  0  0  0  0  0  0  0  0  # atno 8008 bound_to 7997
  156.0185  140.1248  157.0406 H   0  0  0  0  0  0  0  0  0  0  0  0  # atno 8009 bound_to 7997
  154.4306  140.1067  156.5915 H   0  0  0  0  0  0  0  0  0  0  0  0  # atno 8010 bound_to 7997
  139.5596  144.6873  151.4080 H   0  0  0  0  0  0  0  0  0  0  0  0  # atno 10167 bound_to 10162
  156.1118  130.4174  150.0608 H   0  0  0  0  0  0  0  0  0  0  0  0  # atno 10718 bound_to 10713
  153.0128  135.5330  154.6782 H   0  0  0  0  0  0  0  0  0  0  0  0  # atno 10763 bound_to 10752
  154.5949  135.2862  155.0599 H   0  0  0  0  0  0  0  0  0  0  0  0  # atno 10764 bound_to 10752
  154.1678  135.6537  153.5054 H   0  0  0  0  0  0  0  0  0  0  0  0  # atno 10765 bound_to 10752
  139.9672  134.6961  156.0521 H   0  0  0  0  0  0  0  0  0  0  0  0  # atno 11005 bound_to 11000
  144.6947  139.9051  143.7460 LP  0  0  0  0  0  0  0  0  0  0  0  0  # atno 17320 bound_to 7965
  146.0728  139.3717  143.0512 LP  0  0  0  0  0  0  0  0  0  0  0  0  # atno 17321 bound_to 7965
  140.6875  143.7941  150.7206 LP  0  0  0  0  0  0  0  0  0  0  0  0  # atno 17342 bound_to 10162
  140.1413  143.4439  152.2192 LP  0  0  0  0  0  0  0  0  0  0  0  0  # atno 17343 bound_to 10162
  156.8569  130.9478  151.3621 LP  0  0  0  0  0  0  0  0  0  0  0  0  # atno 17370 bound_to 10713
  157.6300  130.8722  149.9257 LP  0  0  0  0  0  0  0  0  0  0  0  0  # atno 17371 bound_to 10713
  141.1352  133.6577  156.3573 LP  0  0  0  0  0  0  0  0  0  0  0  0  # atno 17394 bound_to 11000
  140.5371  134.6156  157.5368 LP  0  0  0  0  0  0  0  0  0  0  0  0  # atno 17395 bound_to 11000

$$$$
