AV-unprocessed.smi:2721|AV-procd|sdf|10500|dock6
  -GOLD-   2272014543D 1   1.00000     0.00000
 Structure written by MMmdl.
 29 30  0  0  0  0  0  0  0  0  2 V2000
  151.0695  138.4582  154.7663 C   0  0  0  0  0  0  0  0  0  0  0  0
  150.9690  139.6798  155.5358 N   0  0  0  0  0  0  0  0  0  0  0  0
  151.2865  139.8916  156.8600 C   0  0  0  0  0  0  0  0  0  0  0  0
  151.0218  141.2031  157.1412 C   0  0  0  0  0  0  0  0  0  0  0  0
  151.2144  141.9500  158.4351 C   0  0  1  0  0  0  0  0  0  0  0  0
  152.5927  141.9355  158.8027 O   0  0  0  0  0  0  0  0  0  0  0  0
  152.8634  142.5345  160.0655 C   0  0  0  0  0  0  0  0  0  0  0  0
  152.4839  144.0212  160.0240 C   0  0  0  0  0  0  0  0  0  0  0  0
  151.0140  144.1796  159.6244 C   0  0  0  0  0  0  0  0  0  0  0  0
  150.7395  143.4196  158.3178 C   0  0  2  0  0  0  0  0  0  0  0  0
  149.3075  143.5010  157.9719 N   0  3  0  0  0  0  0  0  0  0  0  0
  150.5399  141.7142  155.9020 C   0  0  0  0  0  0  0  0  0  0  0  0
  150.5105  140.8022  154.9451 N   0  0  0  0  0  0  0  0  0  0  0  0
  150.6508  141.4546  159.2281 H   0  0  0  0  0  0  0  0  0  0  0  0
  151.2938  143.9045  157.5126 H   0  0  0  0  0  0  0  0  0  0  0  0
  151.6400  137.7129  155.3213 H   0  0  0  0  0  0  0  0  0  0  0  0
  151.5730  138.6549  153.8192 H   0  0  0  0  0  0  0  0  0  0  0  0
  150.0717  138.0664  154.5672 H   0  0  0  0  0  0  0  0  0  0  0  0
  151.6720  139.1010  157.4872 H   0  0  0  0  0  0  0  0  0  0  0  0
  152.3191  142.0128  160.8541 H   0  0  0  0  0  0  0  0  0  0  0  0
  153.9253  142.4251  160.2860 H   0  0  0  0  0  0  0  0  0  0  0  0
  152.6644  144.4849  160.9942 H   0  0  0  0  0  0  0  0  0  0  0  0
  153.1195  144.5403  159.3053 H   0  0  0  0  0  0  0  0  0  0  0  0
  150.3785  143.7924  160.4224 H   0  0  0  0  0  0  0  0  0  0  0  0
  150.7692  145.2366  159.5129 H   0  0  0  0  0  0  0  0  0  0  0  0
  148.8770  144.2578  158.4839 H   0  0  0  0  0  0  0  0  0  0  0  0
  148.8542  142.6311  158.2136 H   0  0  0  0  0  0  0  0  0  0  0  0
  150.2168  142.7182  155.6705 H   0  0  0  0  0  0  0  0  0  0  0  0
  149.2084  143.6662  156.9804 H   0  0  0  0  0  0  0  0  0  0  0  0
  1  2  1  0  0  0  0
  1 16  1  0  0  0  0
  1 17  1  0  0  0  0
  1 18  1  0  0  0  0
  2 13  1  0  0  0  0
  2  3  1  0  0  0  0
  3  4  2  0  0  0  0
  3 19  1  0  0  0  0
  4  5  1  0  0  0  0
  4 12  1  0  0  0  0
  5 14  1  0  0  0  0
  5 10  1  0  0  0  0
  5  6  1  0  0  0  0
  6  7  1  0  0  0  0
  7  8  1  0  0  0  0
  7 20  1  0  0  0  0
  7 21  1  0  0  0  0
  8  9  1  0  0  0  0
  8 22  1  0  0  0  0
  8 23  1  0  0  0  0
  9 10  1  0  0  0  0
  9 24  1  0  0  0  0
  9 25  1  0  0  0  0
 10 15  1  0  0  0  0
 10 11  1  0  0  0  0
 11 26  1  0  0  0  0
 11 27  1  0  0  0  0
 11 29  1  0  0  0  0
 12 13  2  0  0  0  0
 12 28  1  0  0  0  0
M  CHG  1  11   1
M  END
> <s_m_source_file>
AV-unprocessed.smi

> <i_m_source_file_index>
2721

> <i_lp_mmshare_version>
43012

> <i_f3d_flags>
0

> <s_epik_input>
W0NIM11uMVtjSF1jKFtjSF1uMSlbQ0BIXTJPW0NIMl1bQ0gyXVtDSDJdW0NAQEhdMltOSDJd

> <s_epik_cmdline>
J2VwaWtfcHl0aG9uJywgJy1waCcsICc3LjAnLCAnLXRuJywgJzgnLCAnLW1hJywgJzIwMCcsICctbWV0YWxfYmluZGluZycsICctaW1hZScsICc8aW5maWxlLm1hZT4nLCAnLW9tYWUnLCAnPG91dGZpbGUubWFlPic=

> <r_lp_tautomer_probability>
1

> <r_epik_Ionization_Penalty>
0.0061467

> <r_epik_Ionization_Penalty_Charging>
0.00611941

> <r_epik_Ionization_Penalty_Neutral>
2.72888e-05

> <r_epik_State_Penalty>
0.00451057

> <r_epik_Charging_Adjusted_Penalty>
0.01063

> <i_epik_Tot_Q>
1

> <i_epik_Tot_abs_Q>
1

> <r_epik_Metal_State_Penalty>
-0

> <b_epik_Metal_Only>
0

> <s_lp_Force_Field>
OPLS_2005

> <r_lp_Energy>
11.0235

> <b_lp_Chiralities_Consistent>
1

> <s_lp_Variant>
AV-unprocessed.smi:2721-1

> <Gold.Version>
5.8.1

> <Gold.Id.Protein>
6NUR|6NUR_protein|mol2

> <Gold.PLP.Fitness>
41.0362

> <Gold.PLP.PLP>
-28.8250

> <Gold.PLP.part.hbond>
-3.0000

> <Gold.PLP.part.metal>
0.0000

> <Gold.PLP.part.buried>
-2.6810

> <Gold.PLP.part.nonpolar>
-22.9868

> <Gold.PLP.part.repulsive>
0.1285

> <Gold.PLP.ligand.clash>
0.0232

> <Gold.PLP.ligand.torsion>
0.0098

> <Gold.PLP.Chemscore.Hbond>
3.0837

> <Gold.PLP.Chemscore.CHOScore>
1.0000

> <Gold.PLP.Chemscore.Metal>
0.0000

> <Gold.Chemscore.Hbonds>
donor molecule, donor type, donor heavy atom, donor atom, acceptor molecule, acceptor atom, score
      L1  H    11    26       P1  8029  0.24
      L1  H    11    29       P1  8028  1.98
      P1  H  7989  7998       L1    13  0.83
      L1  C    12    28       P1  8028  1.00

> <Gold.PLP.Chemscore.Internal.Correction>
0.0029

> <Gold.Rescore>
     Score         DG    S(hbond)    S(metal)    S(lipo)     H(rot)  DE(clash)    DE(int)     intcor
     15.88     -16.96       1.59        0.00      74.55       1.00       0.17       0.91       ----

> <Gold.Chemscore.Fitness>
15.8761

> <Gold.Chemscore.DG>
-16.9575

> <Gold.Chemscore.ZeroCoef>
-5.4800

> <Gold.Chemscore.Hbond>
1.5914

> <Gold.Chemscore.Metal>
0.0000

> <Gold.Chemscore.Lipo>
74.5480

> <Gold.Chemscore.Internal_Hbond>
0.0000

> <Gold.Chemscore.DEClash>
0.1702

> <Gold.Chemscore.DEInternal>
0.9112

> <Gold.Chemscore.Rot>
1.0000

> <Gold.Chemscore.Internal.Correction>
   9.000000E+99

> <Gold.Chemscore.Hbonds>
donor molecule, donor type, donor heavy atom, donor atom, acceptor molecule, acceptor atom, score
      L1  H    11    26       P1  8029  0.06
      L1  H    11    29       P1  8028  0.65
      P1  H  7989  7998       L1    13  0.25

> <Gold.Chemscore.Hbond.Weighted>
-5.3154

> <Gold.Chemscore.Metal.Weighted>
-0.0000

> <Gold.Chemscore.Lipo.Weighted>
-8.7221

> <Gold.Chemscore.Internal_Hbond.Weighted>
0.0000

> <Gold.Chemscore.DEClash.Weighted>
0.1702

> <Gold.Chemscore.DEInternal.Weighted>
0.9112

> <Gold.Chemscore.Rot.Weighted>
2.5600

> <Gold.Chemscore.Internal.Correction.Weighted>
   9.000000E+99

> <Gold.Protein.RotatedTorsions>
[ 6907 6896 6895 6894 ] final  177.98 input  -60.11 | X-H torsion
[ 7974 7965 7964 7962 ] final  -13.71 input  175.53 | X-H torsion
[ 8008 7997 7996 7995 ] final -147.11 input   59.86 | X-H torsion
[ 10167 10162 10161 10158 ] final  -34.57 input  -65.29 | X-H torsion
[ 10718 10713 10712 10709 ] final   53.60 input   66.30 | X-H torsion
[ 10763 10752 10751 10750 ] final  136.15 input  -60.55 | X-H torsion
[ 11005 11000 10999 10996 ] final -147.11 input  -57.11 | X-H torsion

> <Gold.Protein.ActiveResidues>
 VAL166  LYS551  ARG553  GLY616  TRP617  ASP618  TYR619  PRO620  LYS621  CYS622 
 ASP623  PHE694  ASN695  SER759  ASP760  ASP761  ALA762  ILE779  LEU786  VAL792 
 PHE793  MET794  SER795  GLU796  ALA797  LYS798  CYS799  TRP800  GLU811  SER814 

> <Gold.Protein.RotatedAtoms>
  151.6952  133.3311  159.3252 H   0  0  0  0  0  0  0  0  0  0  0  0  # atno 6907 bound_to 6896
  150.7760  134.6663  159.6377 H   0  0  0  0  0  0  0  0  0  0  0  0  # atno 6908 bound_to 6896
  152.3803  134.6604  160.0197 H   0  0  0  0  0  0  0  0  0  0  0  0  # atno 6909 bound_to 6896
  146.2103  140.3242  142.8393 H   0  0  0  0  0  0  0  0  0  0  0  0  # atno 7974 bound_to 7965
  155.5702  140.0633  157.2808 H   0  0  0  0  0  0  0  0  0  0  0  0  # atno 8008 bound_to 7997
  154.4363  140.1870  156.0917 H   0  0  0  0  0  0  0  0  0  0  0  0  # atno 8009 bound_to 7997
  156.0382  140.3298  155.7218 H   0  0  0  0  0  0  0  0  0  0  0  0  # atno 8010 bound_to 7997
  140.7183  143.3538  151.2101 H   0  0  0  0  0  0  0  0  0  0  0  0  # atno 10167 bound_to 10162
  157.5182  130.8547  149.8523 H   0  0  0  0  0  0  0  0  0  0  0  0  # atno 10718 bound_to 10713
  153.8518  135.3078  155.3433 H   0  0  0  0  0  0  0  0  0  0  0  0  # atno 10763 bound_to 10752
  154.7888  135.4794  154.0008 H   0  0  0  0  0  0  0  0  0  0  0  0  # atno 10764 bound_to 10752
  153.1514  135.6844  153.8970 H   0  0  0  0  0  0  0  0  0  0  0  0  # atno 10765 bound_to 10752
  140.7750  134.3145  157.5063 H   0  0  0  0  0  0  0  0  0  0  0  0  # atno 11005 bound_to 11000
  144.8898  140.7509  143.5934 LP  0  0  0  0  0  0  0  0  0  0  0  0  # atno 17320 bound_to 7965
  145.3165  139.1802  143.4611 LP  0  0  0  0  0  0  0  0  0  0  0  0  # atno 17321 bound_to 7965
  139.7075  143.9431  152.2933 LP  0  0  0  0  0  0  0  0  0  0  0  0  # atno 17342 bound_to 10162
  139.9145  144.6837  150.8527 LP  0  0  0  0  0  0  0  0  0  0  0  0  # atno 17343 bound_to 10162
  156.0335  130.3758  150.1624 LP  0  0  0  0  0  0  0  0  0  0  0  0  # atno 17370 bound_to 10713
  156.9812  130.9865  151.3437 LP  0  0  0  0  0  0  0  0  0  0  0  0  # atno 17371 bound_to 10713
  139.8750  134.9284  156.3449 LP  0  0  0  0  0  0  0  0  0  0  0  0  # atno 17394 bound_to 11000
  140.9537  133.7434  156.0307 LP  0  0  0  0  0  0  0  0  0  0  0  0  # atno 17395 bound_to 11000

$$$$
