AV-unprocessed.smi:2162|AV-procd|sdf|8802|dock8
  -GOLD-   2272011583D 1   1.00000     0.00000
 Structure written by MMmdl.
 41 42  0  0  0  0  0  0  0  0  1 V2000
  144.4577  135.2969  152.9020 C   0  0  0  0  0  0  0  0  0  0  0  0
  145.6260  134.3985  152.6810 C   0  0  0  0  0  0  0  0  0  0  0  0
  146.7251  134.4137  153.4397 N   0  0  0  0  0  0  0  0  0  0  0  0
  147.6756  133.4740  153.0288 C   0  0  0  0  0  0  0  0  0  0  0  0
  148.9720  133.3423  153.7747 C   0  0  0  0  0  0  0  0  0  0  0  0
  149.1382  134.3760  154.9023 C   0  0  0  0  0  0  0  0  0  0  0  0
  149.7223  135.6189  154.4079 N   0  0  0  0  0  0  0  0  0  0  0  0
  150.7984  136.2329  154.9196 C   0  0  0  0  0  0  0  0  0  0  0  0
  151.4279  135.8042  155.8873 O   0  0  0  0  0  0  0  0  0  0  0  0
  151.2286  137.5385  154.2319 C   0  0  2  0  0  0  0  0  0  0  0  0
  152.3823  138.2240  154.9869 C   0  0  0  0  0  0  0  0  0  0  0  0
  151.7405  139.4633  155.5885 C   0  0  0  0  0  0  0  0  0  0  0  0
  152.3330  140.1985  156.3771 O   0  0  0  0  0  0  0  0  0  0  0  0
  150.4785  139.6124  155.1647 N   0  0  0  0  0  0  0  0  0  0  0  0
  149.5514  140.6653  155.6013 C   0  0  0  0  0  0  0  0  0  0  0  0
  148.4503  140.0656  156.4905 C   0  0  0  0  0  0  0  0  0  0  0  0
  148.9642  141.4667  154.4253 C   0  0  0  0  0  0  0  0  0  0  0  0
  150.0965  138.5858  154.2029 C   0  0  0  0  0  0  0  0  0  0  0  0
  147.2771  132.7433  151.9370 C   0  0  0  0  0  0  0  0  0  0  0  0
  145.6902  133.2067  151.3887 S   0  0  0  0  0  0  0  0  0  0  0  0
  144.6451  135.9745  153.7358 H   0  0  0  0  0  0  0  0  0  0  0  0
  143.5702  134.7049  153.1253 H   0  0  0  0  0  0  0  0  0  0  0  0
  144.2685  135.8887  152.0063 H   0  0  0  0  0  0  0  0  0  0  0  0
  149.0477  132.3414  154.2015 H   0  0  0  0  0  0  0  0  0  0  0  0
  149.8105  133.4292  153.0827 H   0  0  0  0  0  0  0  0  0  0  0  0
  148.1718  134.5501  155.3781 H   0  0  0  0  0  0  0  0  0  0  0  0
  149.8002  133.9785  155.6724 H   0  0  0  0  0  0  0  0  0  0  0  0
  149.2728  136.0419  153.6087 H   0  0  0  0  0  0  0  0  0  0  0  0
  151.5410  137.3142  153.2102 H   0  0  0  0  0  0  0  0  0  0  0  0
  152.8267  137.6043  155.7676 H   0  0  0  0  0  0  0  0  0  0  0  0
  153.1764  138.5237  154.3025 H   0  0  0  0  0  0  0  0  0  0  0  0
  150.1150  141.3756  156.2088 H   0  0  0  0  0  0  0  0  0  0  0  0
  147.7755  140.8403  156.8551 H   0  0  0  0  0  0  0  0  0  0  0  0
  148.8737  139.5640  157.3613 H   0  0  0  0  0  0  0  0  0  0  0  0
  147.8540  139.3348  155.9431 H   0  0  0  0  0  0  0  0  0  0  0  0
  148.3528  142.2930  154.7885 H   0  0  0  0  0  0  0  0  0  0  0  0
  148.3297  140.8501  153.7879 H   0  0  0  0  0  0  0  0  0  0  0  0
  149.7532  141.8937  153.8055 H   0  0  0  0  0  0  0  0  0  0  0  0
  150.0165  139.0276  153.2089 H   0  0  0  0  0  0  0  0  0  0  0  0
  149.1230  138.1621  154.4561 H   0  0  0  0  0  0  0  0  0  0  0  0
  147.8178  131.9602  151.4266 H   0  0  0  0  0  0  0  0  0  0  0  0
  1  2  1  0  0  0  0
  1 21  1  0  0  0  0
  1 22  1  0  0  0  0
  1 23  1  0  0  0  0
  2 20  1  0  0  0  0
  2  3  2  0  0  0  0
  3  4  1  0  0  0  0
  4  5  1  0  0  0  0
  4 19  2  0  0  0  0
  5  6  1  0  0  0  0
  5 24  1  0  0  0  0
  5 25  1  0  0  0  0
  6  7  1  0  0  0  0
  6 26  1  0  0  0  0
  6 27  1  0  0  0  0
  7  8  1  0  0  0  0
  7 28  1  0  0  0  0
  8  9  2  0  0  0  0
  8 10  1  0  0  0  0
 10 18  1  0  0  0  0
 10 11  1  0  0  0  0
 10 29  1  0  0  0  0
 11 12  1  0  0  0  0
 11 30  1  0  0  0  0
 11 31  1  0  0  0  0
 12 13  2  0  0  0  0
 12 14  1  0  0  0  0
 14 15  1  0  0  0  0
 14 18  1  0  0  0  0
 15 16  1  0  0  0  0
 15 17  1  0  0  0  0
 15 32  1  0  0  0  0
 16 33  1  0  0  0  0
 16 34  1  0  0  0  0
 16 35  1  0  0  0  0
 17 36  1  0  0  0  0
 17 37  1  0  0  0  0
 17 38  1  0  0  0  0
 18 39  1  0  0  0  0
 18 40  1  0  0  0  0
 19 20  1  0  0  0  0
 19 41  1  0  0  0  0
M  END
> <s_m_source_file>
AV-unprocessed.smi

> <i_m_source_file_index>
2162

> <i_lp_mmshare_version>
43012

> <i_f3d_flags>
0

> <s_epik_input>
W0NIM11jMW5jKFtjSF1zMSlbQ0gyXVtDSDJdW05IXUMoPU8pW0NAQEhdMltDSDJdQyg9TylOKFtDSDJdMilbQ0hdKFtDSDNdKVtDSDNd

> <s_epik_cmdline>
J2VwaWtfcHl0aG9uJywgJy1waCcsICc3LjAnLCAnLXRuJywgJzgnLCAnLW1hJywgJzIwMCcsICctbWV0YWxfYmluZGluZycsICctaW1hZScsICc8aW5maWxlLm1hZT4nLCAnLW9tYWUnLCAnPG91dGZpbGUubWFlPic=

> <r_epik_Ionization_Penalty>
0.000973993

> <r_epik_Ionization_Penalty_Charging>
0

> <r_epik_Ionization_Penalty_Neutral>
0.000973993

> <r_epik_State_Penalty>
0.000633765

> <r_epik_Charging_Adjusted_Penalty>
0.000633765

> <i_epik_Tot_Q>
0

> <i_epik_Tot_abs_Q>
0

> <r_epik_Metal_State_Penalty>
-0

> <b_epik_Metal_Only>
0

> <s_lp_Force_Field>
OPLS_2005

> <r_lp_Energy>
15.0968

> <b_lp_Chiralities_Consistent>
1

> <s_lp_Variant>
AV-unprocessed.smi:2162-1

> <Gold.Version>
5.8.1

> <Gold.Id.Protein>
6NUR|6NUR_protein|mol2

> <Gold.PLP.Fitness>
45.8004

> <Gold.PLP.PLP>
-34.5555

> <Gold.PLP.part.hbond>
-3.3344

> <Gold.PLP.part.metal>
0.0000

> <Gold.PLP.part.buried>
1.7385

> <Gold.PLP.part.nonpolar>
-33.0248

> <Gold.PLP.part.repulsive>
0.1867

> <Gold.PLP.ligand.clash>
0.0000

> <Gold.PLP.ligand.torsion>
0.3716

> <Gold.PLP.Chemscore.Hbond>
2.9760

> <Gold.PLP.Chemscore.CHOScore>
1.0000

> <Gold.PLP.Chemscore.Metal>
0.0000

> <Gold.Chemscore.Hbonds>
donor molecule, donor type, donor heavy atom, donor atom, acceptor molecule, acceptor atom, score
      L1  H     7    28       P1  7948  1.00
      P1  H  7997  8009       L1    13  1.00
      P1  H 10752 10764       L1     9  0.85
      L1  C    19    41       P1 10747  0.85

> <Gold.PLP.Chemscore.Internal.Correction>
0.0600

> <Gold.Rescore>
     Score         DG    S(hbond)    S(metal)    S(lipo)     H(rot)  DE(clash)    DE(int)     intcor
     16.94     -17.38       2.33        0.00      71.45       1.66       0.06       0.38       ----

> <Gold.Chemscore.Fitness>
16.9407

> <Gold.Chemscore.DG>
-17.3809

> <Gold.Chemscore.ZeroCoef>
-5.4800

> <Gold.Chemscore.Hbond>
2.3312

> <Gold.Chemscore.Metal>
0.0000

> <Gold.Chemscore.Lipo>
71.4546

> <Gold.Chemscore.Internal_Hbond>
0.0000

> <Gold.Chemscore.DEClash>
0.0578

> <Gold.Chemscore.DEInternal>
0.3824

> <Gold.Chemscore.Rot>
1.6585

> <Gold.Chemscore.Internal.Correction>
   9.000000E+99

> <Gold.Chemscore.Hbonds>
donor molecule, donor type, donor heavy atom, donor atom, acceptor molecule, acceptor atom, score
      L1  H     7    28       P1  7948  0.75
      P1  H  7997  8009       L1    13  0.90
      P1  H 10752 10764       L1     9  0.15

> <Gold.Chemscore.Hbond.Weighted>
-7.7863

> <Gold.Chemscore.Metal.Weighted>
-0.0000

> <Gold.Chemscore.Lipo.Weighted>
-8.3602

> <Gold.Chemscore.Internal_Hbond.Weighted>
0.0000

> <Gold.Chemscore.DEClash.Weighted>
0.0578

> <Gold.Chemscore.DEInternal.Weighted>
0.3824

> <Gold.Chemscore.Rot.Weighted>
4.2457

> <Gold.Chemscore.Internal.Correction.Weighted>
   9.000000E+99

> <Gold.Protein.RotatedTorsions>
[ 6907 6896 6895 6894 ] final -179.21 input  -60.11 | X-H torsion
[ 7974 7965 7964 7962 ] final  -85.20 input  175.53 | X-H torsion
[ 8008 7997 7996 7995 ] final -162.38 input   59.86 | X-H torsion
[ 10167 10162 10161 10158 ] final   49.82 input  -65.29 | X-H torsion
[ 10718 10713 10712 10709 ] final -103.47 input   66.30 | X-H torsion
[ 10763 10752 10751 10750 ] final  -34.83 input  -60.55 | X-H torsion
[ 11005 11000 10999 10996 ] final -158.90 input  -57.11 | X-H torsion

> <Gold.Protein.ActiveResidues>
 VAL166  LYS551  ARG553  GLY616  TRP617  ASP618  TYR619  PRO620  LYS621  CYS622 
 ASP623  PHE694  ASN695  SER759  ASP760  ASP761  ALA762  ILE779  LEU786  VAL792 
 PHE793  MET794  SER795  GLU796  ALA797  LYS798  CYS799  TRP800  GLU811  SER814 

> <Gold.Protein.RotatedAtoms>
  151.6498  133.3321  159.3148 H   0  0  0  0  0  0  0  0  0  0  0  0  # atno 6907 bound_to 6896
  150.7966  134.7034  159.6572 H   0  0  0  0  0  0  0  0  0  0  0  0  # atno 6908 bound_to 6896
  152.4054  134.6220  160.0105 H   0  0  0  0  0  0  0  0  0  0  0  0  # atno 6909 bound_to 6896
  145.4964  140.9550  143.1784 H   0  0  0  0  0  0  0  0  0  0  0  0  # atno 7974 bound_to 7965
  155.8060  140.0898  157.1931 H   0  0  0  0  0  0  0  0  0  0  0  0  # atno 8008 bound_to 7997
  154.3981  140.1463  156.3389 H   0  0  0  0  0  0  0  0  0  0  0  0  # atno 8009 bound_to 7997
  155.8414  140.3438  155.5637 H   0  0  0  0  0  0  0  0  0  0  0  0  # atno 8010 bound_to 7997
  140.2789  144.3180  150.6269 H   0  0  0  0  0  0  0  0  0  0  0  0  # atno 10167 bound_to 10162
  156.0267  130.5469  150.7257 H   0  0  0  0  0  0  0  0  0  0  0  0  # atno 10718 bound_to 10713
  153.8532  135.6847  153.4790 H   0  0  0  0  0  0  0  0  0  0  0  0  # atno 10763 bound_to 10752
  153.1385  135.4667  154.9457 H   0  0  0  0  0  0  0  0  0  0  0  0  # atno 10764 bound_to 10752
  154.7792  135.3263  154.7974 H   0  0  0  0  0  0  0  0  0  0  0  0  # atno 10765 bound_to 10752
  140.6485  134.4476  157.5234 H   0  0  0  0  0  0  0  0  0  0  0  0  # atno 11005 bound_to 11000
  144.7805  139.6537  143.7156 LP  0  0  0  0  0  0  0  0  0  0  0  0  # atno 17320 bound_to 7965
  146.2253  139.5711  142.9591 LP  0  0  0  0  0  0  0  0  0  0  0  0  # atno 17321 bound_to 7965
  140.5828  143.2171  151.7396 LP  0  0  0  0  0  0  0  0  0  0  0  0  # atno 17342 bound_to 10162
  139.4968  144.4054  152.0137 LP  0  0  0  0  0  0  0  0  0  0  0  0  # atno 17343 bound_to 10162
  157.4862  131.0907  151.0479 LP  0  0  0  0  0  0  0  0  0  0  0  0  # atno 17370 bound_to 10713
  157.0899  130.5938  149.5437 LP  0  0  0  0  0  0  0  0  0  0  0  0  # atno 17371 bound_to 10713
  139.9054  134.8460  156.1726 LP  0  0  0  0  0  0  0  0  0  0  0  0  # atno 17394 bound_to 11000
  141.0554  133.6868  156.1851 LP  0  0  0  0  0  0  0  0  0  0  0  0  # atno 17395 bound_to 11000

$$$$
