AV-unprocessed.smi:67|AV-procd|sdf|631|dock7
  -GOLD-   2262016523D 1   1.00000     0.00000
 Structure written by MMmdl.
 49 51  0  0  0  0  0  0  0  0  3 V2000
  149.3920  138.6329  153.1569 O   0  0  0  0  0  0  0  0  0  0  0  0
  148.3154  138.8881  154.0430 C   0  0  1  0  0  0  0  0  0  0  0  0
  148.6361  138.2272  155.4044 C   0  0  0  0  0  0  0  0  0  0  0  0
  150.0752  138.3330  155.7708 N   0  3  2  0  0  0  0  0  0  0  0  0
  150.4574  137.4145  156.8745 C   0  0  0  0  0  0  0  0  0  0  0  0
  151.9760  137.4417  157.1239 C   0  0  0  0  0  0  0  0  0  0  0  0
  152.4851  138.8643  157.4055 C   0  0  2  0  0  0  0  0  0  0  0  0
  151.9437  139.2768  158.6590 O   0  0  0  0  0  0  0  0  0  0  0  0
  152.3802  140.4448  159.2506 C   0  0  0  0  0  0  0  0  0  0  0  0
  153.3691  140.5173  160.2638 C   0  0  0  0  0  0  0  0  0  0  0  0
  153.7408  141.7615  160.8078 C   0  0  0  0  0  0  0  0  0  0  0  0
  153.1344  142.9453  160.3498 C   0  0  0  0  0  0  0  0  0  0  0  0
  152.1514  142.8919  159.3393 C   0  0  0  0  0  0  0  0  0  0  0  0
  151.4795  144.1618  158.8389 C   0  0  0  0  0  0  0  0  0  0  0  0
  151.7716  144.3662  157.5540 F   0  0  0  0  0  0  0  0  0  0  0  0
  150.1589  144.0382  158.9649 F   0  0  0  0  0  0  0  0  0  0  0  0
  151.8785  145.2289  159.5322 F   0  0  0  0  0  0  0  0  0  0  0  0
  151.7797  141.6400  158.8041 C   0  0  0  0  0  0  0  0  0  0  0  0
  152.0322  139.8000  156.2664 C   0  0  0  0  0  0  0  0  0  0  0  0
  150.5115  139.7266  156.0487 C   0  0  0  0  0  0  0  0  0  0  0  0
  148.0337  140.3936  154.0930 C   0  0  0  0  0  0  0  0  0  0  0  0
  147.2207  140.6588  152.8255 C   0  0  0  0  0  0  0  0  0  0  0  0
  146.4665  139.4190  152.5629 N   0  3  0  0  0  0  0  0  0  0  0  0
  147.0307  138.3373  153.3973 C   0  0  0  0  0  0  0  0  0  0  0  0
  149.2965  137.7624  152.7995 H   0  0  0  0  0  0  0  0  0  0  0  0
  148.0167  138.6517  156.1960 H   0  0  0  0  0  0  0  0  0  0  0  0
  148.3459  137.1767  155.3442 H   0  0  0  0  0  0  0  0  0  0  0  0
  149.9187  137.6896  157.7829 H   0  0  0  0  0  0  0  0  0  0  0  0
  150.1583  136.3958  156.6242 H   0  0  0  0  0  0  0  0  0  0  0  0
  152.2290  136.7837  157.9560 H   0  0  0  0  0  0  0  0  0  0  0  0
  152.4909  137.0401  156.2500 H   0  0  0  0  0  0  0  0  0  0  0  0
  153.5729  138.8157  157.4583 H   0  0  0  0  0  0  0  0  0  0  0  0
  153.8604  139.6358  160.6447 H   0  0  0  0  0  0  0  0  0  0  0  0
  154.4933  141.8071  161.5814 H   0  0  0  0  0  0  0  0  0  0  0  0
  153.4269  143.8914  160.7810 H   0  0  0  0  0  0  0  0  0  0  0  0
  151.0201  141.5933  158.0374 H   0  0  0  0  0  0  0  0  0  0  0  0
  152.3240  140.8304  156.4661 H   0  0  0  0  0  0  0  0  0  0  0  0
  152.5411  139.5167  155.3443 H   0  0  0  0  0  0  0  0  0  0  0  0
  150.2412  140.3799  155.2209 H   0  0  0  0  0  0  0  0  0  0  0  0
  149.9887  140.1054  156.9285 H   0  0  0  0  0  0  0  0  0  0  0  0
  147.4155  140.6262  154.9613 H   0  0  0  0  0  0  0  0  0  0  0  0
  148.9359  141.0040  154.1521 H   0  0  0  0  0  0  0  0  0  0  0  0
  146.5588  141.5196  152.9231 H   0  0  0  0  0  0  0  0  0  0  0  0
  147.8885  140.8411  151.9826 H   0  0  0  0  0  0  0  0  0  0  0  0
  145.4946  139.5511  152.8049 H   0  0  0  0  0  0  0  0  0  0  0  0
  147.1952  137.4273  152.8184 H   0  0  0  0  0  0  0  0  0  0  0  0
  146.2917  138.1037  154.1649 H   0  0  0  0  0  0  0  0  0  0  0  0
  146.5415  139.1818  151.5836 H   0  0  0  0  0  0  0  0  0  0  0  0
  150.5916  138.0189  154.9611 H   0  0  0  0  0  0  0  0  0  0  0  0
  1  2  1  0  0  0  0
  1 25  1  0  0  0  0
  2 24  1  0  0  0  0
  2  3  1  0  0  0  0
  2 21  1  0  0  0  0
  3  4  1  0  0  0  0
  3 26  1  0  0  0  0
  3 27  1  0  0  0  0
  4 20  1  0  0  0  0
  4  5  1  0  0  0  0
  4 49  1  0  0  0  0
  5  6  1  0  0  0  0
  5 28  1  0  0  0  0
  5 29  1  0  0  0  0
  6  7  1  0  0  0  0
  6 30  1  0  0  0  0
  6 31  1  0  0  0  0
  7  8  1  0  0  0  0
  7 19  1  0  0  0  0
  7 32  1  0  0  0  0
  8  9  1  0  0  0  0
  9 18  1  0  0  0  0
  9 10  2  0  0  0  0
 10 11  1  0  0  0  0
 10 33  1  0  0  0  0
 11 12  2  0  0  0  0
 11 34  1  0  0  0  0
 12 13  1  0  0  0  0
 12 35  1  0  0  0  0
 13 14  1  0  0  0  0
 13 18  2  0  0  0  0
 14 15  1  0  0  0  0
 14 16  1  0  0  0  0
 14 17  1  0  0  0  0
 18 36  1  0  0  0  0
 19 20  1  0  0  0  0
 19 37  1  0  0  0  0
 19 38  1  0  0  0  0
 20 39  1  0  0  0  0
 20 40  1  0  0  0  0
 21 22  1  0  0  0  0
 21 41  1  0  0  0  0
 21 42  1  0  0  0  0
 22 23  1  0  0  0  0
 22 43  1  0  0  0  0
 22 44  1  0  0  0  0
 23 24  1  0  0  0  0
 23 45  1  0  0  0  0
 23 48  1  0  0  0  0
 24 46  1  0  0  0  0
 24 47  1  0  0  0  0
M  CHG  1   4   1
M  CHG  1  23   1
M  END
> <s_m_source_file>
AV-unprocessed.smi

> <i_m_source_file_index>
67

> <i_lp_mmshare_version>
43012

> <i_f3d_flags>
0

> <s_epik_input>
W0NIMl0xW05IXVtDSDJdW0NIMl1bQ0BAXTEoW09IXSlbQ0gyXU4yW0NIMl1bQ0gyXVtDSF0oW0NIMl1bQ0gyXTIpT2MzW2NIXVtjSF1bY0hdYyhDKEYpKEYpRilbY0hdMw==

> <s_epik_cmdline>
J2VwaWtfcHl0aG9uJywgJy1waCcsICc3LjAnLCAnLXRuJywgJzgnLCAnLW1hJywgJzIwMCcsICctbWV0YWxfYmluZGluZycsICctaW1hZScsICc8aW5maWxlLm1hZT4nLCAnLW9tYWUnLCAnPG91dGZpbGUubWFlPic=

> <r_lp_tautomer_probability>
1

> <r_epik_Ionization_Penalty>
0.0989853

> <r_epik_Ionization_Penalty_Charging>
0.0989662

> <r_epik_Ionization_Penalty_Neutral>
1.91014e-05

> <r_epik_State_Penalty>
0.0852826

> <r_epik_Charging_Adjusted_Penalty>
0.184249

> <i_epik_Tot_Q>
2

> <i_epik_Tot_abs_Q>
2

> <r_epik_Metal_State_Penalty>
0.0849414

> <b_epik_Metal_Only>
0

> <s_lp_Force_Field>
OPLS_2005

> <r_lp_Energy>
57.962

> <b_lp_Chiralities_Consistent>
1

> <s_lp_Variant>
AV-unprocessed.smi:67-3

> <Gold.Version>
5.8.1

> <Gold.Id.Protein>
6NUR|6NUR_protein|mol2

> <Gold.PLP.Fitness>
56.2113

> <Gold.PLP.PLP>
-48.5364

> <Gold.PLP.part.hbond>
-2.6293

> <Gold.PLP.part.metal>
0.0000

> <Gold.PLP.part.buried>
-6.5544

> <Gold.PLP.part.nonpolar>
-39.6062

> <Gold.PLP.part.repulsive>
0.0297

> <Gold.PLP.ligand.clash>
0.6712

> <Gold.PLP.ligand.torsion>
0.8665

> <Gold.PLP.Chemscore.Hbond>
2.9840

> <Gold.PLP.Chemscore.CHOScore>
0.0000

> <Gold.PLP.Chemscore.Metal>
0.0000

> <Gold.Chemscore.Hbonds>
donor molecule, donor type, donor heavy atom, donor atom, acceptor molecule, acceptor atom, score
      L1  H     1    25       P1  7948  1.00
      L1  H    23    45       P1 10175  1.84

> <Gold.PLP.Chemscore.Internal.Correction>
1.1272

> <Gold.Rescore>
     Score         DG    S(hbond)    S(metal)    S(lipo)     H(rot)  DE(clash)    DE(int)     intcor
     19.20     -20.22       1.95        0.00     119.16       2.24       0.13       0.89       ----

> <Gold.Chemscore.Fitness>
19.2016

> <Gold.Chemscore.DG>
-20.2227

> <Gold.Chemscore.ZeroCoef>
-5.4800

> <Gold.Chemscore.Hbond>
1.9531

> <Gold.Chemscore.Metal>
0.0000

> <Gold.Chemscore.Lipo>
119.1579

> <Gold.Chemscore.Internal_Hbond>
0.0000

> <Gold.Chemscore.DEClash>
0.1289

> <Gold.Chemscore.DEInternal>
0.8923

> <Gold.Chemscore.Rot>
2.2352

> <Gold.Chemscore.Internal.Correction>
   9.000000E+99

> <Gold.Chemscore.Hbonds>
donor molecule, donor type, donor heavy atom, donor atom, acceptor molecule, acceptor atom, score
      L1  H     1    25       P1  7948  0.94
      L1  H    23    45       P1 10175  0.84

> <Gold.Chemscore.Hbond.Weighted>
-6.5234

> <Gold.Chemscore.Metal.Weighted>
-0.0000

> <Gold.Chemscore.Lipo.Weighted>
-13.9415

> <Gold.Chemscore.Internal_Hbond.Weighted>
0.0000

> <Gold.Chemscore.DEClash.Weighted>
0.1289

> <Gold.Chemscore.DEInternal.Weighted>
0.8923

> <Gold.Chemscore.Rot.Weighted>
5.7221

> <Gold.Chemscore.Internal.Correction.Weighted>
   9.000000E+99

> <Gold.Protein.RotatedTorsions>
[ 6907 6896 6895 6894 ] final   76.16 input  -60.11 | X-H torsion
[ 7974 7965 7964 7962 ] final  -47.95 input  175.53 | X-H torsion
[ 8008 7997 7996 7995 ] final    1.07 input   59.86 | X-H torsion
[ 10167 10162 10161 10158 ] final -176.02 input  -65.29 | X-H torsion
[ 10718 10713 10712 10709 ] final -122.79 input   66.30 | X-H torsion
[ 10763 10752 10751 10750 ] final   14.80 input  -60.55 | X-H torsion
[ 11005 11000 10999 10996 ] final -156.46 input  -57.11 | X-H torsion

> <Gold.Protein.ActiveResidues>
 VAL166  LYS551  ARG553  GLY616  TRP617  ASP618  TYR619  PRO620  LYS621  CYS622 
 ASP623  PHE694  ASN695  SER759  ASP760  ASP761  ALA762  ILE779  LEU786  VAL792 
 PHE793  MET794  SER795  GLU796  ALA797  LYS798  CYS799  TRP800  GLU811  SER814 

> <Gold.Protein.RotatedAtoms>
  152.5060  134.4011  159.9416 H   0  0  0  0  0  0  0  0  0  0  0  0  # atno 6907 bound_to 6896
  151.3975  133.3762  159.2736 H   0  0  0  0  0  0  0  0  0  0  0  0  # atno 6908 bound_to 6896
  150.9386  134.8818  159.7657 H   0  0  0  0  0  0  0  0  0  0  0  0  # atno 6909 bound_to 6896
  145.9563  140.7524  142.9480 H   0  0  0  0  0  0  0  0  0  0  0  0  # atno 7974 bound_to 7965
  154.6755  140.2621  155.6963 H   0  0  0  0  0  0  0  0  0  0  0  0  # atno 8008 bound_to 7997
  156.2676  140.2821  156.1202 H   0  0  0  0  0  0  0  0  0  0  0  0  # atno 8009 bound_to 7997
  155.1107  140.0375  157.2713 H   0  0  0  0  0  0  0  0  0  0  0  0  # atno 8010 bound_to 7997
  139.5551  144.2011  152.1144 H   0  0  0  0  0  0  0  0  0  0  0  0  # atno 10167 bound_to 10162
  156.1448  130.6492  150.9825 H   0  0  0  0  0  0  0  0  0  0  0  0  # atno 10718 bound_to 10713
  153.1587  135.6792  153.8775 H   0  0  0  0  0  0  0  0  0  0  0  0  # atno 10763 bound_to 10752
  153.8177  135.3134  155.3408 H   0  0  0  0  0  0  0  0  0  0  0  0  # atno 10764 bound_to 10752
  154.7916  135.4831  154.0154 H   0  0  0  0  0  0  0  0  0  0  0  0  # atno 10765 bound_to 10752
  140.6753  134.4203  157.5229 H   0  0  0  0  0  0  0  0  0  0  0  0  # atno 11005 bound_to 11000
  144.6805  140.2517  143.7331 LP  0  0  0  0  0  0  0  0  0  0  0  0  # atno 17320 bound_to 7965
  145.8102  139.2000  143.1997 LP  0  0  0  0  0  0  0  0  0  0  0  0  # atno 17321 bound_to 7965
  140.1513  144.5112  150.6685 LP  0  0  0  0  0  0  0  0  0  0  0  0  # atno 17342 bound_to 10162
  140.6822  143.2332  151.5355 LP  0  0  0  0  0  0  0  0  0  0  0  0  # atno 17343 bound_to 10162
  157.6607  131.0881  150.7845 LP  0  0  0  0  0  0  0  0  0  0  0  0  # atno 17370 bound_to 10713
  156.7918  130.4892  149.5383 LP  0  0  0  0  0  0  0  0  0  0  0  0  # atno 17371 bound_to 10713
  139.8968  134.8650  156.2070 LP  0  0  0  0  0  0  0  0  0  0  0  0  # atno 17394 bound_to 11000
  141.0360  133.6963  156.1513 LP  0  0  0  0  0  0  0  0  0  0  0  0  # atno 17395 bound_to 11000

$$$$
