AV-unprocessed.smi:2886|AV-procd|sdf|11091|dock7
  -GOLD-   2272015563D 1   1.00000     0.00000
 Structure written by MMmdl.
 28 30  0  0  0  0  0  0  0  0  3 V2000
  153.1185  136.1736  156.9777 O   0  0  0  0  0  0  0  0  0  0  0  0
  152.9189  136.9694  157.8931 C   0  0  0  0  0  0  0  0  0  0  0  0
  152.9938  136.6260  159.2135 N   0  5  0  0  0  0  0  0  0  0  0  0
  152.7755  137.4984  160.1722 N   0  3  0  0  0  0  0  0  0  0  0  0
  152.4671  138.7725  159.9519 C   0  0  0  0  0  0  0  0  0  0  0  0
  152.3631  139.2622  158.6200 C   0  0  0  0  0  0  0  0  0  0  0  0
  152.0408  140.5844  158.3408 N   0  0  0  0  0  0  0  0  0  0  0  0
  151.7618  141.6691  159.2719 C   0  0  2  0  0  0  0  0  0  0  0  0
  151.5028  143.0016  158.5645 C   0  0  0  0  0  0  0  0  0  0  0  0
  152.5477  143.9122  159.2220 C   0  0  1  0  0  0  0  0  0  0  0  0
  152.2305  144.1925  160.6980 C   0  0  0  0  0  0  0  0  0  0  0  0
  152.5802  142.8563  161.3529 C   0  0  0  0  0  0  0  0  0  0  0  0
  152.9845  142.0070  160.1405 C   0  0  2  0  0  0  0  0  0  0  0  0
  153.6230  142.9993  159.3526 O   0  0  0  0  0  0  0  0  0  0  0  0
  152.5795  138.3756  157.6059 C   0  0  0  0  0  0  0  0  0  0  0  0
  152.4696  138.8760  155.9506 Cl  0  0  0  0  0  0  0  0  0  0  0  0
  152.8319  137.2145  161.1629 H   0  0  0  0  0  0  0  0  0  0  0  0
  152.3003  139.3955  160.8213 H   0  0  0  0  0  0  0  0  0  0  0  0
  152.1508  140.8795  157.3805 H   0  0  0  0  0  0  0  0  0  0  0  0
  150.9281  141.3970  159.9193 H   0  0  0  0  0  0  0  0  0  0  0  0
  151.6879  142.9281  157.4916 H   0  0  0  0  0  0  0  0  0  0  0  0
  150.4841  143.3632  158.7080 H   0  0  0  0  0  0  0  0  0  0  0  0
  152.7837  144.8045  158.6416 H   0  0  0  0  0  0  0  0  0  0  0  0
  152.8655  144.9881  161.0897 H   0  0  0  0  0  0  0  0  0  0  0  0
  151.1893  144.4791  160.8495 H   0  0  0  0  0  0  0  0  0  0  0  0
  153.4215  142.9752  162.0365 H   0  0  0  0  0  0  0  0  0  0  0  0
  151.7478  142.4238  161.9088 H   0  0  0  0  0  0  0  0  0  0  0  0
  153.6117  141.1515  160.3945 H   0  0  0  0  0  0  0  0  0  0  0  0
  1  2  2  0  0  0  0
  2  3  1  0  0  0  0
  2 15  1  0  0  0  0
  3  4  1  0  0  0  0
  4  5  2  0  0  0  0
  4 17  1  0  0  0  0
  5  6  1  0  0  0  0
  5 18  1  0  0  0  0
  6 15  2  0  0  0  0
  6  7  1  0  0  0  0
  7  8  1  0  0  0  0
  7 19  1  0  0  0  0
  8 13  1  0  0  0  0
  8  9  1  0  0  0  0
  8 20  1  0  0  0  0
  9 10  1  0  0  0  0
  9 21  1  0  0  0  0
  9 22  1  0  0  0  0
 10 14  1  0  0  0  0
 10 11  1  0  0  0  0
 10 23  1  0  0  0  0
 11 12  1  0  0  0  0
 11 24  1  0  0  0  0
 11 25  1  0  0  0  0
 12 13  1  0  0  0  0
 12 26  1  0  0  0  0
 12 27  1  0  0  0  0
 13 14  1  0  0  0  0
 13 28  1  0  0  0  0
 15 16  1  0  0  0  0
M  CHG  1   3  -1
M  CHG  1   4   1
M  END
> <s_m_source_file>
AV-unprocessed.smi

> <i_m_source_file_index>
2886

> <i_lp_mmshare_version>
43012

> <i_f3d_flags>
0

> <s_epik_input>
Tz1jMVtuSF1uW2NIXWMoYzFDbClbTkhdW0NASF0oW0NIMl1bQ0BASF0yMylbQ0BASF0oTzMpW0NIMl1bQ0gyXTI=

> <s_epik_cmdline>
J2VwaWtfcHl0aG9uJywgJy1waCcsICc3LjAnLCAnLXRuJywgJzgnLCAnLW1hJywgJzIwMCcsICctbWV0YWxfYmluZGluZycsICctaW1hZScsICc8aW5maWxlLm1hZT4nLCAnLW9tYWUnLCAnPG91dGZpbGUubWFlPic=

> <r_lp_tautomer_probability>
0.0138196

> <r_epik_Ionization_Penalty>
2.43027

> <r_epik_Ionization_Penalty_Charging>
2.43027

> <r_epik_Ionization_Penalty_Neutral>
1.33267e-06

> <r_epik_State_Penalty>
2.7044

> <r_epik_Charging_Adjusted_Penalty>
5.13467

> <i_epik_Tot_Q>
0

> <i_epik_Tot_abs_Q>
2

> <r_epik_Metal_State_Penalty>
2.98589

> <b_epik_Metal_Only>
0

> <s_lp_Force_Field>
OPLS_2005

> <r_lp_Energy>
57.4961

> <b_lp_Chiralities_Consistent>
1

> <s_lp_Variant>
AV-unprocessed.smi:2886-5

> <Gold.Version>
5.8.1

> <Gold.Id.Protein>
6NUR|6NUR_protein|mol2

> <Gold.PLP.Fitness>
37.2047

> <Gold.PLP.PLP>
-28.2056

> <Gold.PLP.part.hbond>
-2.0000

> <Gold.PLP.part.metal>
0.0000

> <Gold.PLP.part.buried>
-4.5052

> <Gold.PLP.part.nonpolar>
-22.4058

> <Gold.PLP.part.repulsive>
0.2238

> <Gold.PLP.ligand.clash>
0.0000

> <Gold.PLP.ligand.torsion>
0.0098

> <Gold.PLP.Chemscore.Hbond>
3.0000

> <Gold.PLP.Chemscore.CHOScore>
0.0000

> <Gold.PLP.Chemscore.Metal>
0.0000

> <Gold.Chemscore.Hbonds>
donor molecule, donor type, donor heavy atom, donor atom, acceptor molecule, acceptor atom, score
      P1  H  6896  6907       L1     3  2.00
      P1  H 10752 10763       L1     1  1.00

> <Gold.PLP.Chemscore.Internal.Correction>
0.0187

> <Gold.Rescore>
     Score         DG    S(hbond)    S(metal)    S(lipo)     H(rot)  DE(clash)    DE(int)     intcor
     18.39     -18.50       1.53        0.00      89.39       1.00       0.10       0.01       ----

> <Gold.Chemscore.Fitness>
18.3888

> <Gold.Chemscore.DG>
-18.5032

> <Gold.Chemscore.ZeroCoef>
-5.4800

> <Gold.Chemscore.Hbond>
1.5344

> <Gold.Chemscore.Metal>
0.0000

> <Gold.Chemscore.Lipo>
89.3872

> <Gold.Chemscore.Internal_Hbond>
0.0000

> <Gold.Chemscore.DEClash>
0.1048

> <Gold.Chemscore.DEInternal>
0.0096

> <Gold.Chemscore.Rot>
1.0000

> <Gold.Chemscore.Internal.Correction>
   9.000000E+99

> <Gold.Chemscore.Hbonds>
donor molecule, donor type, donor heavy atom, donor atom, acceptor molecule, acceptor atom, score
      P1  H  6896  6907       L1     3  0.23
      P1  H 10752 10763       L1     1  1.00

> <Gold.Chemscore.Hbond.Weighted>
-5.1249

> <Gold.Chemscore.Metal.Weighted>
-0.0000

> <Gold.Chemscore.Lipo.Weighted>
-10.4583

> <Gold.Chemscore.Internal_Hbond.Weighted>
0.0000

> <Gold.Chemscore.DEClash.Weighted>
0.1048

> <Gold.Chemscore.DEInternal.Weighted>
0.0096

> <Gold.Chemscore.Rot.Weighted>
2.5600

> <Gold.Chemscore.Internal.Correction.Weighted>
   9.000000E+99

> <Gold.Protein.RotatedTorsions>
[ 6907 6896 6895 6894 ] final   33.21 input  -60.11 | X-H torsion
[ 7974 7965 7964 7962 ] final  -65.17 input  175.53 | X-H torsion
[ 8008 7997 7996 7995 ] final  -53.20 input   59.86 | X-H torsion
[ 10167 10162 10161 10158 ] final  -66.75 input  -65.29 | X-H torsion
[ 10718 10713 10712 10709 ] final -148.95 input   66.30 | X-H torsion
[ 10763 10752 10751 10750 ] final  119.87 input  -60.55 | X-H torsion
[ 11005 11000 10999 10996 ] final   15.60 input  -57.11 | X-H torsion

> <Gold.Protein.ActiveResidues>
 VAL166  LYS551  ARG553  GLY616  TRP617  ASP618  TYR619  PRO620  LYS621  CYS622 
 ASP623  PHE694  ASN695  SER759  ASP760  ASP761  ALA762  ILE779  LEU786  VAL792 
 PHE793  MET794  SER795  GLU796  ALA797  LYS798  CYS799  TRP800  GLU811  SER814 

> <Gold.Protein.RotatedAtoms>
  152.0854  134.9443  160.0572 H   0  0  0  0  0  0  0  0  0  0  0  0  # atno 6907 bound_to 6896
  152.0716  133.4104  159.4470 H   0  0  0  0  0  0  0  0  0  0  0  0  # atno 6908 bound_to 6896
  150.6836  134.3005  159.4748 H   0  0  0  0  0  0  0  0  0  0  0  0  # atno 6909 bound_to 6896
  145.7576  140.8878  143.0447 H   0  0  0  0  0  0  0  0  0  0  0  0  # atno 7974 bound_to 7965
  154.4127  140.1205  156.5115 H   0  0  0  0  0  0  0  0  0  0  0  0  # atno 8008 bound_to 7997
  155.6794  140.3496  155.4830 H   0  0  0  0  0  0  0  0  0  0  0  0  # atno 8009 bound_to 7997
  155.9565  140.1114  157.0923 H   0  0  0  0  0  0  0  0  0  0  0  0  # atno 8010 bound_to 7997
  140.5634  143.2313  151.6683 H   0  0  0  0  0  0  0  0  0  0  0  0  # atno 10167 bound_to 10162
  156.4268  130.8056  151.2281 H   0  0  0  0  0  0  0  0  0  0  0  0  # atno 10718 bound_to 10713
  153.5897  135.3468  155.2906 H   0  0  0  0  0  0  0  0  0  0  0  0  # atno 10763 bound_to 10752
  154.8654  135.4202  154.2530 H   0  0  0  0  0  0  0  0  0  0  0  0  # atno 10764 bound_to 10752
  153.3334  135.7045  153.6999 H   0  0  0  0  0  0  0  0  0  0  0  0  # atno 10765 bound_to 10752
  140.4565  134.1171  155.7710 H   0  0  0  0  0  0  0  0  0  0  0  0  # atno 11005 bound_to 11000
  144.6837  139.9677  143.7481 LP  0  0  0  0  0  0  0  0  0  0  0  0  # atno 17320 bound_to 7965
  146.0296  139.3323  143.0763 LP  0  0  0  0  0  0  0  0  0  0  0  0  # atno 17321 bound_to 7965
  139.5081  144.3623  152.0550 LP  0  0  0  0  0  0  0  0  0  0  0  0  # atno 17342 bound_to 10162
  140.2752  144.3920  150.6137 LP  0  0  0  0  0  0  0  0  0  0  0  0  # atno 17343 bound_to 10162
  157.7508  131.0211  150.3735 LP  0  0  0  0  0  0  0  0  0  0  0  0  # atno 17370 bound_to 10713
  156.4064  130.3925  149.6923 LP  0  0  0  0  0  0  0  0  0  0  0  0  # atno 17371 bound_to 10713
  141.1641  133.8737  157.1766 LP  0  0  0  0  0  0  0  0  0  0  0  0  # atno 17394 bound_to 11000
  139.9973  135.0042  157.0111 LP  0  0  0  0  0  0  0  0  0  0  0  0  # atno 17395 bound_to 11000

$$$$
