AV-unprocessed.smi:93|AV-procd|sdf|849|dock6
  -GOLD-   2262017293D 1   1.00000     0.00000
 Structure written by MMmdl.
 50 52  0  0  0  0  0  0  0  0  1 V2000
  143.0247  135.0013  152.8042 C   0  0  0  0  0  0  0  0  0  0  0  0
  144.3953  135.4090  152.5144 N   0  0  0  0  0  0  0  0  0  0  0  0
  145.0941  134.8237  151.3629 C   0  0  0  0  0  0  0  0  0  0  0  0
  145.1702  133.2665  151.3550 C   0  0  0  0  0  0  0  0  0  0  0  0
  143.7921  132.6461  151.0282 C   0  0  0  0  0  0  0  0  0  0  0  0
  146.1998  132.8410  150.2740 C   0  0  0  0  0  0  0  0  0  0  0  0
  146.4377  131.4466  150.2684 O   0  0  0  0  0  0  0  0  0  0  0  0
  145.6550  132.7559  152.7384 C   0  0  0  0  0  0  0  0  0  0  0  0
  146.9104  133.2901  153.1113 O   0  0  0  0  0  0  0  0  0  0  0  0
  145.0201  136.2847  153.3503 C   0  0  0  0  0  0  0  0  0  0  0  0
  144.9163  136.0941  154.6924 N   0  0  0  0  0  0  0  0  0  0  0  0
  145.5179  136.9217  155.5501 C   0  0  0  0  0  0  0  0  0  0  0  0
  146.2700  137.9903  155.2872 N   0  0  0  0  0  0  0  0  0  0  0  0
  146.3890  138.1909  153.9441 C   0  0  0  0  0  0  0  0  0  0  0  0
  145.7989  137.4002  152.9151 C   0  0  0  0  0  0  0  0  0  0  0  0
  146.1540  137.9185  151.6736 N   0  0  0  0  0  0  0  0  0  0  0  0
  146.9003  138.9511  151.9519 C   0  0  0  0  0  0  0  0  0  0  0  0
  147.1055  139.1803  153.2926 N   0  0  0  0  0  0  0  0  0  0  0  0
  147.9019  140.2465  153.8817 C   0  0  0  0  0  0  0  0  0  0  0  0
  149.0794  139.7318  154.7433 C   0  0  1  0  0  0  0  0  0  0  0  0
  148.5590  139.0836  155.8917 O   0  0  0  0  0  0  0  0  0  0  0  0
  149.9731  138.7460  154.0023 C   0  0  0  0  0  0  0  0  0  0  0  0
  151.3203  138.9376  154.6856 C   0  0  0  0  0  0  0  0  0  0  0  0
  151.3778  140.3393  154.8898 O   0  0  0  0  0  0  0  0  0  0  0  0
  150.0732  140.8190  155.2037 C   0  0  0  0  0  0  0  0  0  0  0  0
  142.8946  134.8092  153.8697 H   0  0  0  0  0  0  0  0  0  0  0  0
  142.7649  134.0866  152.2713 H   0  0  0  0  0  0  0  0  0  0  0  0
  142.3182  135.7739  152.5018 H   0  0  0  0  0  0  0  0  0  0  0  0
  144.6565  135.1851  150.4325 H   0  0  0  0  0  0  0  0  0  0  0  0
  146.1093  135.2214  151.3540 H   0  0  0  0  0  0  0  0  0  0  0  0
  143.8613  131.5662  150.8961 H   0  0  0  0  0  0  0  0  0  0  0  0
  143.3747  133.0579  150.1089 H   0  0  0  0  0  0  0  0  0  0  0  0
  143.0701  132.8257  151.8247 H   0  0  0  0  0  0  0  0  0  0  0  0
  145.8535  133.1330  149.2821 H   0  0  0  0  0  0  0  0  0  0  0  0
  147.1586  133.3370  150.4283 H   0  0  0  0  0  0  0  0  0  0  0  0
  147.3714  131.3015  150.2805 H   0  0  0  0  0  0  0  0  0  0  0  0
  144.9305  133.0045  153.5147 H   0  0  0  0  0  0  0  0  0  0  0  0
  145.7582  131.6710  152.7362 H   0  0  0  0  0  0  0  0  0  0  0  0
  146.9446  133.3465  154.0540 H   0  0  0  0  0  0  0  0  0  0  0  0
  145.3777  136.6932  156.5963 H   0  0  0  0  0  0  0  0  0  0  0  0
  147.3334  139.5723  151.1811 H   0  0  0  0  0  0  0  0  0  0  0  0
  148.2718  140.8822  153.0761 H   0  0  0  0  0  0  0  0  0  0  0  0
  147.2423  140.8725  154.4840 H   0  0  0  0  0  0  0  0  0  0  0  0
  149.2822  138.7506  156.4005 H   0  0  0  0  0  0  0  0  0  0  0  0
  149.6160  137.7157  154.0363 H   0  0  0  0  0  0  0  0  0  0  0  0
  150.0637  139.0317  152.9534 H   0  0  0  0  0  0  0  0  0  0  0  0
  151.3480  138.4255  155.6487 H   0  0  0  0  0  0  0  0  0  0  0  0
  152.1559  138.5843  154.0816 H   0  0  0  0  0  0  0  0  0  0  0  0
  149.9303  141.7599  154.6738 H   0  0  0  0  0  0  0  0  0  0  0  0
  149.9928  141.0304  156.2710 H   0  0  0  0  0  0  0  0  0  0  0  0
  1  2  1  0  0  0  0
  1 26  1  0  0  0  0
  1 27  1  0  0  0  0
  1 28  1  0  0  0  0
  2  3  1  0  0  0  0
  2 10  1  0  0  0  0
  3  4  1  0  0  0  0
  3 29  1  0  0  0  0
  3 30  1  0  0  0  0
  4  5  1  0  0  0  0
  4  6  1  0  0  0  0
  4  8  1  0  0  0  0
  5 31  1  0  0  0  0
  5 32  1  0  0  0  0
  5 33  1  0  0  0  0
  6  7  1  0  0  0  0
  6 34  1  0  0  0  0
  6 35  1  0  0  0  0
  7 36  1  0  0  0  0
  8  9  1  0  0  0  0
  8 37  1  0  0  0  0
  8 38  1  0  0  0  0
  9 39  1  0  0  0  0
 10 15  1  0  0  0  0
 10 11  2  0  0  0  0
 11 12  1  0  0  0  0
 12 13  2  0  0  0  0
 12 40  1  0  0  0  0
 13 14  1  0  0  0  0
 14 18  1  0  0  0  0
 14 15  2  0  0  0  0
 15 16  1  0  0  0  0
 16 17  2  0  0  0  0
 17 18  1  0  0  0  0
 17 41  1  0  0  0  0
 18 19  1  0  0  0  0
 19 20  1  0  0  0  0
 19 42  1  0  0  0  0
 19 43  1  0  0  0  0
 20 25  1  0  0  0  0
 20 21  1  0  0  0  0
 20 22  1  0  0  0  0
 21 44  1  0  0  0  0
 22 23  1  0  0  0  0
 22 45  1  0  0  0  0
 22 46  1  0  0  0  0
 23 24  1  0  0  0  0
 23 47  1  0  0  0  0
 23 48  1  0  0  0  0
 24 25  1  0  0  0  0
 25 49  1  0  0  0  0
 25 50  1  0  0  0  0
M  END
> <s_m_source_file>
AV-unprocessed.smi

> <i_m_source_file_index>
93

> <i_lp_mmshare_version>
43012

> <i_f3d_flags>
0

> <s_epik_input>
W09IXVtDSDJdQyhbQ0gzXSkoW0NIMl1bT0hdKVtDSDJdTihbQ0gzXSljKG5bY0hdbjEpYyhjMTIpbltjSF1uMltDSDJdW0NAQF0zKFtPSF0pW0NIMl1bQ0gyXU9bQ0gyXTM=

> <s_epik_cmdline>
J2VwaWtfcHl0aG9uJywgJy1waCcsICc3LjAnLCAnLXRuJywgJzgnLCAnLW1hJywgJzIwMCcsICctbWV0YWxfYmluZGluZycsICctaW1hZScsICc8aW5maWxlLm1hZT4nLCAnLW9tYWUnLCAnPG91dGZpbGUubWFlPic=

> <r_lp_tautomer_probability>
1

> <r_epik_Ionization_Penalty>
0.00325397

> <r_epik_Ionization_Penalty_Charging>
0

> <r_epik_Ionization_Penalty_Neutral>
0.00325397

> <r_epik_State_Penalty>
0.00225047

> <r_epik_Charging_Adjusted_Penalty>
0.00225047

> <i_epik_Tot_Q>
0

> <i_epik_Tot_abs_Q>
0

> <r_epik_Metal_State_Penalty>
-0

> <b_epik_Metal_Only>
0

> <s_lp_Force_Field>
OPLS_2005

> <r_lp_Energy>
39.2325

> <b_lp_Chiralities_Consistent>
1

> <s_lp_Variant>
AV-unprocessed.smi:93-1

> <Gold.Version>
5.8.1

> <Gold.Id.Protein>
6NUR|6NUR_protein|mol2

> <Gold.PLP.Fitness>
45.1467

> <Gold.PLP.PLP>
-37.8414

> <Gold.PLP.part.hbond>
-2.0000

> <Gold.PLP.part.metal>
0.0000

> <Gold.PLP.part.buried>
-4.9539

> <Gold.PLP.part.nonpolar>
-32.1121

> <Gold.PLP.part.repulsive>
1.2201

> <Gold.PLP.ligand.clash>
0.0000

> <Gold.PLP.ligand.torsion>
0.9649

> <Gold.PLP.Chemscore.Hbond>
2.0000

> <Gold.PLP.Chemscore.CHOScore>
0.8940

> <Gold.PLP.Chemscore.Metal>
0.0000

> <Gold.Chemscore.Hbonds>
donor molecule, donor type, donor heavy atom, donor atom, acceptor molecule, acceptor atom, score
      L1  H     7    36       P1 10747  1.00
      P1  H  7989  7998       L1    24  0.94
      L1  C    17    41       P1  7957  0.85

> <Gold.PLP.Chemscore.Internal.Correction>
0.5532

> <Gold.Rescore>
     Score         DG    S(hbond)    S(metal)    S(lipo)     H(rot)  DE(clash)    DE(int)     intcor
      5.83      -6.99       1.44        0.00      72.45       4.60       0.05       1.10       ----

> <Gold.Chemscore.Fitness>
5.8338

> <Gold.Chemscore.DG>
-6.9890

> <Gold.Chemscore.ZeroCoef>
-5.4800

> <Gold.Chemscore.Hbond>
1.4402

> <Gold.Chemscore.Metal>
0.0000

> <Gold.Chemscore.Lipo>
72.4549

> <Gold.Chemscore.Internal_Hbond>
0.0000

> <Gold.Chemscore.DEClash>
0.0550

> <Gold.Chemscore.DEInternal>
1.1002

> <Gold.Chemscore.Rot>
4.6010

> <Gold.Chemscore.Internal.Correction>
   9.000000E+99

> <Gold.Chemscore.Hbonds>
donor molecule, donor type, donor heavy atom, donor atom, acceptor molecule, acceptor atom, score
      L1  H     7    36       P1 10747  1.00
      P1  H  7989  7998       L1    24  0.15

> <Gold.Chemscore.Hbond.Weighted>
-4.8104

> <Gold.Chemscore.Metal.Weighted>
-0.0000

> <Gold.Chemscore.Lipo.Weighted>
-8.4772

> <Gold.Chemscore.Internal_Hbond.Weighted>
0.0000

> <Gold.Chemscore.DEClash.Weighted>
0.0550

> <Gold.Chemscore.DEInternal.Weighted>
1.1002

> <Gold.Chemscore.Rot.Weighted>
11.7787

> <Gold.Chemscore.Internal.Correction.Weighted>
   9.000000E+99

> <Gold.Protein.RotatedTorsions>
[ 6907 6896 6895 6894 ] final  -90.81 input  -60.11 | X-H torsion
[ 7974 7965 7964 7962 ] final  -83.40 input  175.53 | X-H torsion
[ 8008 7997 7996 7995 ] final  -81.90 input   59.86 | X-H torsion
[ 10167 10162 10161 10158 ] final  -80.15 input  -65.29 | X-H torsion
[ 10718 10713 10712 10709 ] final  162.60 input   66.30 | X-H torsion
[ 10763 10752 10751 10750 ] final   68.63 input  -60.55 | X-H torsion
[ 11005 11000 10999 10996 ] final   85.10 input  -57.11 | X-H torsion

> <Gold.Protein.ActiveResidues>
 VAL166  LYS551  ARG553  GLY616  TRP617  ASP618  TYR619  PRO620  LYS621  CYS622 
 ASP623  PHE694  ASN695  SER759  ASP760  ASP761  ALA762  ILE779  LEU786  VAL792 
 PHE793  MET794  SER795  GLU796  ALA797  LYS798  CYS799  TRP800  GLU811  SER814 

> <Gold.Protein.RotatedAtoms>
  150.6885  134.2375  159.4458 H   0  0  0  0  0  0  0  0  0  0  0  0  # atno 6907 bound_to 6896
  152.0321  134.9759  160.0582 H   0  0  0  0  0  0  0  0  0  0  0  0  # atno 6908 bound_to 6896
  152.1294  133.4364  159.4750 H   0  0  0  0  0  0  0  0  0  0  0  0  # atno 6909 bound_to 6896
  145.5205  140.9532  143.1658 H   0  0  0  0  0  0  0  0  0  0  0  0  # atno 7974 bound_to 7965
  154.6030  140.0641  156.9394 H   0  0  0  0  0  0  0  0  0  0  0  0  # atno 8008 bound_to 7997
  155.2100  140.3322  155.4312 H   0  0  0  0  0  0  0  0  0  0  0  0  # atno 8009 bound_to 7997
  156.2330  140.1850  156.7177 H   0  0  0  0  0  0  0  0  0  0  0  0  # atno 8010 bound_to 7997
  140.4529  143.2477  151.8463 H   0  0  0  0  0  0  0  0  0  0  0  0  # atno 10167 bound_to 10162
  157.1203  131.0490  151.2418 H   0  0  0  0  0  0  0  0  0  0  0  0  # atno 10718 bound_to 10713
  153.0245  135.5240  154.7164 H   0  0  0  0  0  0  0  0  0  0  0  0  # atno 10763 bound_to 10752
  154.6232  135.2891  155.0304 H   0  0  0  0  0  0  0  0  0  0  0  0  # atno 10764 bound_to 10752
  154.1283  135.6597  153.4969 H   0  0  0  0  0  0  0  0  0  0  0  0  # atno 10765 bound_to 10752
  139.8981  134.8263  156.2536 H   0  0  0  0  0  0  0  0  0  0  0  0  # atno 11005 bound_to 11000
  144.7678  139.6803  143.7207 LP  0  0  0  0  0  0  0  0  0  0  0  0  # atno 17320 bound_to 7965
  146.2109  139.5464  142.9682 LP  0  0  0  0  0  0  0  0  0  0  0  0  # atno 17321 bound_to 7965
  139.4798  144.5099  151.8946 LP  0  0  0  0  0  0  0  0  0  0  0  0  # atno 17342 bound_to 10162
  140.4186  144.2273  150.5887 LP  0  0  0  0  0  0  0  0  0  0  0  0  # atno 17343 bound_to 10162
  157.4482  130.7583  149.7128 LP  0  0  0  0  0  0  0  0  0  0  0  0  # atno 17370 bound_to 10713
  155.9830  130.4004  150.3386 LP  0  0  0  0  0  0  0  0  0  0  0  0  # atno 17371 bound_to 10713
  141.0208  133.7042  156.1265 LP  0  0  0  0  0  0  0  0  0  0  0  0  # atno 17394 bound_to 11000
  140.7237  134.4331  157.5572 LP  0  0  0  0  0  0  0  0  0  0  0  0  # atno 17395 bound_to 11000

$$$$
