AV-unprocessed.smi:1875|AV-procd|sdf|7618|dock5
  -GOLD-   22720 9343D 1   1.00000     0.00000
 Structure written by MMmdl.
 48 50  0  0  0  0  0  0  0  0  2 V2000
  144.5975  133.7511  152.4275 C   0  0  0  0  0  0  0  0  0  0  0  0
  146.0184  133.5542  152.9139 C   0  0  0  0  0  0  0  0  0  0  0  0
  146.6698  132.4762  152.4656 N   0  0  0  0  0  0  0  0  0  0  0  0
  147.9366  132.3031  152.9020 C   0  0  0  0  0  0  0  0  0  0  0  0
  148.5478  133.2136  153.7879 C   0  0  0  0  0  0  0  0  0  0  0  0
  147.7611  134.3134  154.1911 C   0  0  0  0  0  0  0  0  0  0  0  0
  148.3000  135.3596  155.1457 C   0  0  0  0  0  0  0  0  0  0  0  0
  149.3459  136.1738  154.5345 N   0  0  0  0  0  0  0  0  0  0  0  0
  149.5829  137.4301  155.2401 C   0  0  0  0  0  0  0  0  0  0  0  0
  150.8211  138.1571  154.6901 C   0  0  2  0  0  0  0  0  0  0  0  0
  151.6746  137.1990  154.0953 O   0  0  0  0  0  0  0  0  0  0  0  0
  151.5952  138.8846  155.8071 C   0  0  0  0  0  0  0  0  0  0  0  0
  151.0750  140.2309  156.0820 N   0  0  0  0  0  0  0  0  0  0  0  0
  150.2081  140.9962  155.3648 C   0  0  0  0  0  0  0  0  0  0  0  0
  150.0402  142.1672  156.0394 N   0  3  0  0  0  0  0  0  0  0  0  0
  150.8123  142.1494  157.2030 C   0  0  0  0  0  0  0  0  0  0  0  0
  150.9765  143.1013  158.2023 C   0  0  0  0  0  0  0  0  0  0  0  0
  151.8439  142.7736  159.2688 C   0  0  0  0  0  0  0  0  0  0  0  0
  152.0488  143.7938  160.3760 C   0  0  0  0  0  0  0  0  0  0  0  0
  152.5111  141.5216  159.3094 C   0  0  0  0  0  0  0  0  0  0  0  0
  153.4406  141.1802  160.4617 C   0  0  0  0  0  0  0  0  0  0  0  0
  152.3303  140.5663  158.2836 C   0  0  0  0  0  0  0  0  0  0  0  0
  151.4758  140.9076  157.2383 C   0  0  0  0  0  0  0  0  0  0  0  0
  146.4940  134.4808  153.7511 N   0  0  0  0  0  0  0  0  0  0  0  0
  144.2924  132.9551  151.7470 H   0  0  0  0  0  0  0  0  0  0  0  0
  144.5064  134.7015  151.9006 H   0  0  0  0  0  0  0  0  0  0  0  0
  143.9067  133.7595  153.2712 H   0  0  0  0  0  0  0  0  0  0  0  0
  148.4659  131.4331  152.5425 H   0  0  0  0  0  0  0  0  0  0  0  0
  149.5605  133.0741  154.1362 H   0  0  0  0  0  0  0  0  0  0  0  0
  147.4717  135.9910  155.4691 H   0  0  0  0  0  0  0  0  0  0  0  0
  148.6833  134.8649  156.0396 H   0  0  0  0  0  0  0  0  0  0  0  0
  149.0951  136.3714  153.5712 H   0  0  0  0  0  0  0  0  0  0  0  0
  148.7109  138.0734  155.1141 H   0  0  0  0  0  0  0  0  0  0  0  0
  149.6864  137.2591  156.3127 H   0  0  0  0  0  0  0  0  0  0  0  0
  150.5219  138.8813  153.9309 H   0  0  0  0  0  0  0  0  0  0  0  0
  151.3162  136.9658  153.2520 H   0  0  0  0  0  0  0  0  0  0  0  0
  151.5779  138.3111  156.7346 H   0  0  0  0  0  0  0  0  0  0  0  0
  152.6454  138.9916  155.5313 H   0  0  0  0  0  0  0  0  0  0  0  0
  149.7366  140.7227  154.4317 H   0  0  0  0  0  0  0  0  0  0  0  0
  150.4642  144.0516  158.1652 H   0  0  0  0  0  0  0  0  0  0  0  0
  153.0971  144.0862  160.4378 H   0  0  0  0  0  0  0  0  0  0  0  0
  151.7467  143.3810  161.3384 H   0  0  0  0  0  0  0  0  0  0  0  0
  151.4613  144.6956  160.2017 H   0  0  0  0  0  0  0  0  0  0  0  0
  153.8695  140.1844  160.3473 H   0  0  0  0  0  0  0  0  0  0  0  0
  152.9020  141.2036  161.4094 H   0  0  0  0  0  0  0  0  0  0  0  0
  154.2639  141.8930  160.5130 H   0  0  0  0  0  0  0  0  0  0  0  0
  152.8373  139.6131  158.3131 H   0  0  0  0  0  0  0  0  0  0  0  0
  149.4412  142.9205  155.7264 H   0  0  0  0  0  0  0  0  0  0  0  0
  1  2  1  0  0  0  0
  1 25  1  0  0  0  0
  1 26  1  0  0  0  0
  1 27  1  0  0  0  0
  2 24  1  0  0  0  0
  2  3  2  0  0  0  0
  3  4  1  0  0  0  0
  4  5  2  0  0  0  0
  4 28  1  0  0  0  0
  5  6  1  0  0  0  0
  5 29  1  0  0  0  0
  6  7  1  0  0  0  0
  6 24  2  0  0  0  0
  7  8  1  0  0  0  0
  7 30  1  0  0  0  0
  7 31  1  0  0  0  0
  8  9  1  0  0  0  0
  8 32  1  0  0  0  0
  9 10  1  0  0  0  0
  9 33  1  0  0  0  0
  9 34  1  0  0  0  0
 10 11  1  0  0  0  0
 10 12  1  0  0  0  0
 10 35  1  0  0  0  0
 11 36  1  0  0  0  0
 12 13  1  0  0  0  0
 12 37  1  0  0  0  0
 12 38  1  0  0  0  0
 13 23  1  0  0  0  0
 13 14  1  0  0  0  0
 14 15  2  0  0  0  0
 14 39  1  0  0  0  0
 15 16  1  0  0  0  0
 15 48  1  0  0  0  0
 16 23  2  0  0  0  0
 16 17  1  0  0  0  0
 17 18  2  0  0  0  0
 17 40  1  0  0  0  0
 18 19  1  0  0  0  0
 18 20  1  0  0  0  0
 19 41  1  0  0  0  0
 19 42  1  0  0  0  0
 19 43  1  0  0  0  0
 20 21  1  0  0  0  0
 20 22  2  0  0  0  0
 21 44  1  0  0  0  0
 21 45  1  0  0  0  0
 21 46  1  0  0  0  0
 22 23  1  0  0  0  0
 22 47  1  0  0  0  0
M  CHG  1  15   1
M  END
> <s_m_source_file>
AV-unprocessed.smi

> <i_m_source_file_index>
1875

> <i_lp_mmshare_version>
43012

> <i_f3d_flags>
0

> <s_epik_input>
W0NIM11jMW5bY0hdW2NIXWMobjEpW0NIMl1bTkhdW0NIMl1bQ0BIXShbT0hdKVtDSDJdbihbY0hdbjIpYyhjMjMpW2NIXWMoW0NIM10pYyhbY0hdMylbQ0gzXQ==

> <s_epik_cmdline>
J2VwaWtfcHl0aG9uJywgJy1waCcsICc3LjAnLCAnLXRuJywgJzgnLCAnLW1hJywgJzIwMCcsICctbWV0YWxfYmluZGluZycsICctaW1hZScsICc8aW5maWxlLm1hZT4nLCAnLW9tYWUnLCAnPG91dGZpbGUubWFlPic=

> <r_epik_Ionization_Penalty>
2.02862

> <r_epik_Ionization_Penalty_Charging>
1.0004

> <r_epik_Ionization_Penalty_Neutral>
1.02823

> <r_epik_State_Penalty>
2.23022

> <r_epik_Charging_Adjusted_Penalty>
3.23062

> <i_epik_Tot_Q>
1

> <i_epik_Tot_abs_Q>
1

> <r_epik_Metal_State_Penalty>
2.31249

> <b_epik_Metal_Only>
0

> <s_epik_Chemistry_Notes>
This compound contains an electron-poor aromatic ring that is susceptible to covalent hydrolysis at low pH, typically resulting in measured values for nitrogen ring protonation that are around two units higher than predicted values.

> <s_lp_Force_Field>
OPLS_2005

> <r_lp_Energy>
18.1078

> <b_lp_Chiralities_Consistent>
1

> <s_lp_Variant>
AV-unprocessed.smi:1875-7

> <Gold.Version>
5.8.1

> <Gold.Id.Protein>
6NUR|6NUR_protein|mol2

> <Gold.PLP.Fitness>
61.4746

> <Gold.PLP.PLP>
-45.7324

> <Gold.PLP.part.hbond>
-4.0000

> <Gold.PLP.part.metal>
0.0000

> <Gold.PLP.part.buried>
-3.2830

> <Gold.PLP.part.nonpolar>
-38.3626

> <Gold.PLP.part.repulsive>
0.3300

> <Gold.PLP.ligand.clash>
0.0000

> <Gold.PLP.ligand.torsion>
1.1050

> <Gold.PLP.Chemscore.Hbond>
5.0000

> <Gold.PLP.Chemscore.CHOScore>
0.9472

> <Gold.PLP.Chemscore.Metal>
0.0000

> <Gold.Chemscore.Hbonds>
donor molecule, donor type, donor heavy atom, donor atom, acceptor molecule, acceptor atom, score
      L1  H     8    32       P1  7948  1.00
      L1  H    11    36       P1  7949  1.00
      L1  H    15    48       P1  8028  2.00
      P1  H 10752 10764       L1    11  0.90
      L1  C     4    28       P1 10747  0.97

> <Gold.PLP.Chemscore.Internal.Correction>
0.1105

> <Gold.Rescore>
     Score         DG    S(hbond)    S(metal)    S(lipo)     H(rot)  DE(clash)    DE(int)     intcor
     21.36     -22.60       3.28        0.00     113.89       2.80       0.06       1.18       ----

> <Gold.Chemscore.Fitness>
21.3602

> <Gold.Chemscore.DG>
-22.5981

> <Gold.Chemscore.ZeroCoef>
-5.4800

> <Gold.Chemscore.Hbond>
3.2843

> <Gold.Chemscore.Metal>
0.0000

> <Gold.Chemscore.Lipo>
113.8869

> <Gold.Chemscore.Internal_Hbond>
0.0000

> <Gold.Chemscore.DEClash>
0.0581

> <Gold.Chemscore.DEInternal>
1.1798

> <Gold.Chemscore.Rot>
2.8032

> <Gold.Chemscore.Internal.Correction>
   9.000000E+99

> <Gold.Chemscore.Hbonds>
donor molecule, donor type, donor heavy atom, donor atom, acceptor molecule, acceptor atom, score
      L1  H     8    32       P1  7948  0.97
      L1  H    11    36       P1  7949  0.66
      L1  H    15    48       P1  8028  0.97
      P1  H 10752 10764       L1    11  0.17

> <Gold.Chemscore.Hbond.Weighted>
-10.9694

> <Gold.Chemscore.Metal.Weighted>
-0.0000

> <Gold.Chemscore.Lipo.Weighted>
-13.3248

> <Gold.Chemscore.Internal_Hbond.Weighted>
0.0000

> <Gold.Chemscore.DEClash.Weighted>
0.0581

> <Gold.Chemscore.DEInternal.Weighted>
1.1798

> <Gold.Chemscore.Rot.Weighted>
7.1761

> <Gold.Chemscore.Internal.Correction.Weighted>
   9.000000E+99

> <Gold.Protein.RotatedTorsions>
[ 6907 6896 6895 6894 ] final  -73.24 input  -60.11 | X-H torsion
[ 7974 7965 7964 7962 ] final  -39.90 input  175.53 | X-H torsion
[ 8008 7997 7996 7995 ] final  -20.71 input   59.86 | X-H torsion
[ 10167 10162 10161 10158 ] final  106.09 input  -65.29 | X-H torsion
[ 10718 10713 10712 10709 ] final   -1.02 input   66.30 | X-H torsion
[ 10763 10752 10751 10750 ] final  -75.24 input  -60.55 | X-H torsion
[ 11005 11000 10999 10996 ] final -108.54 input  -57.11 | X-H torsion

> <Gold.Protein.ActiveResidues>
 VAL166  LYS551  ARG553  GLY616  TRP617  ASP618  TYR619  PRO620  LYS621  CYS622 
 ASP623  PHE694  ASN695  SER759  ASP760  ASP761  ALA762  ILE779  LEU786  VAL792 
 PHE793  MET794  SER795  GLU796  ALA797  LYS798  CYS799  TRP800  GLU811  SER814 

> <Gold.Protein.RotatedAtoms>
  150.7138  134.5046  159.5577 H   0  0  0  0  0  0  0  0  0  0  0  0  # atno 6907 bound_to 6896
  152.2636  134.8005  160.0435 H   0  0  0  0  0  0  0  0  0  0  0  0  # atno 6908 bound_to 6896
  151.8710  133.3440  159.3772 H   0  0  0  0  0  0  0  0  0  0  0  0  # atno 6909 bound_to 6896
  146.0353  140.6678  142.9113 H   0  0  0  0  0  0  0  0  0  0  0  0  # atno 7974 bound_to 7965
  154.4752  140.2054  155.9896 H   0  0  0  0  0  0  0  0  0  0  0  0  # atno 8008 bound_to 7997
  156.1077  140.3234  155.7999 H   0  0  0  0  0  0  0  0  0  0  0  0  # atno 8009 bound_to 7997
  155.4689  140.0530  157.2973 H   0  0  0  0  0  0  0  0  0  0  0  0  # atno 8010 bound_to 7997
  139.7038  144.7090  151.1141 H   0  0  0  0  0  0  0  0  0  0  0  0  # atno 10167 bound_to 10162
  156.8118  130.5427  149.5708 H   0  0  0  0  0  0  0  0  0  0  0  0  # atno 10718 bound_to 10713
  154.4839  135.5837  153.6410 H   0  0  0  0  0  0  0  0  0  0  0  0  # atno 10763 bound_to 10752
  152.9852  135.6096  154.3211 H   0  0  0  0  0  0  0  0  0  0  0  0  # atno 10764 bound_to 10752
  154.3104  135.2845  155.2548 H   0  0  0  0  0  0  0  0  0  0  0  0  # atno 10765 bound_to 10752
  141.0896  133.9078  157.2106 H   0  0  0  0  0  0  0  0  0  0  0  0  # atno 11005 bound_to 11000
  144.7049  140.3810  143.7126 LP  0  0  0  0  0  0  0  0  0  0  0  0  # atno 17320 bound_to 7965
  145.6973  139.1653  143.2613 LP  0  0  0  0  0  0  0  0  0  0  0  0  # atno 17321 bound_to 7965
  140.7716  143.5387  150.9338 LP  0  0  0  0  0  0  0  0  0  0  0  0  # atno 17342 bound_to 10162
  139.9069  143.6767  152.3122 LP  0  0  0  0  0  0  0  0  0  0  0  0  # atno 17343 bound_to 10162
  156.1040  130.5990  150.9940 LP  0  0  0  0  0  0  0  0  0  0  0  0  # atno 17370 bound_to 10713
  157.6502  131.0898  150.8067 LP  0  0  0  0  0  0  0  0  0  0  0  0  # atno 17371 bound_to 10713
  139.9720  135.0125  156.9535 LP  0  0  0  0  0  0  0  0  0  0  0  0  # atno 17394 bound_to 11000
  140.5283  134.0839  155.7309 LP  0  0  0  0  0  0  0  0  0  0  0  0  # atno 17395 bound_to 11000

$$$$
