AV-unprocessed.smi:2313|AV-procd|sdf|9265|dock10
  -GOLD-   2272012493D 1   1.00000     0.00000
 Structure written by MMmdl.
 37 38  0  0  0  0  0  0  0  0  1 V2000
  153.2878  142.9390  163.2544 C   0  0  0  0  0  0  0  0  0  0  0  0
  152.8677  143.0216  161.7987 C   0  0  0  0  0  0  0  0  0  0  0  0
  151.9358  144.0436  161.3694 C   0  0  0  0  0  0  0  0  0  0  0  0
  151.5724  144.1014  160.0795 C   0  0  0  0  0  0  0  0  0  0  0  0
  152.0716  143.1975  159.1253 N   0  0  0  0  0  0  0  0  0  0  0  0
  151.5968  143.3487  157.7397 C   0  0  0  0  0  0  0  0  0  0  0  0
  150.8747  142.0961  157.2268 C   0  0  0  0  0  0  0  0  0  0  0  0
  151.0774  141.0043  157.7578 O   0  0  0  0  0  0  0  0  0  0  0  0
  150.0395  142.2827  156.1908 N   0  0  0  0  0  0  0  0  0  0  0  0
  149.2613  141.2791  155.4537 C   0  0  2  0  0  0  0  0  0  0  0  0
  148.2756  140.6763  156.4680 C   0  0  0  0  0  0  0  0  0  0  0  0
  150.1135  140.1833  154.9515 C   0  0  0  0  0  0  0  0  0  0  0  0
  150.7802  139.3243  154.5551 N   0  0  0  0  0  0  0  0  0  0  0  0
  148.4627  141.8255  154.2671 C   0  0  0  0  0  0  0  0  0  0  0  0
  147.0477  142.3543  154.3647 C   0  0  0  0  0  0  0  0  0  0  0  0
  147.3218  141.0569  153.6380 C   0  0  0  0  0  0  0  0  0  0  0  0
  152.9554  142.2084  159.4581 C   0  0  0  0  0  0  0  0  0  0  0  0
  153.3903  141.4196  158.6165 O   0  0  0  0  0  0  0  0  0  0  0  0
  153.3443  142.1520  160.8761 C   0  0  0  0  0  0  0  0  0  0  0  0
  154.2612  141.1146  161.2234 C   0  0  0  0  0  0  0  0  0  0  0  0
  155.0173  140.2872  161.5127 N   0  0  0  0  0  0  0  0  0  0  0  0
  152.8093  143.7183  163.8481 H   0  0  0  0  0  0  0  0  0  0  0  0
  154.3676  143.0589  163.3473 H   0  0  0  0  0  0  0  0  0  0  0  0
  153.0099  141.9732  163.6771 H   0  0  0  0  0  0  0  0  0  0  0  0
  151.5303  144.7510  162.0778 H   0  0  0  0  0  0  0  0  0  0  0  0
  150.8755  144.8350  159.7009 H   0  0  0  0  0  0  0  0  0  0  0  0
  150.9127  144.1934  157.6502 H   0  0  0  0  0  0  0  0  0  0  0  0
  152.4380  143.5896  157.0866 H   0  0  0  0  0  0  0  0  0  0  0  0
  149.9536  143.2291  155.8496 H   0  0  0  0  0  0  0  0  0  0  0  0
  147.6692  139.8919  156.0137 H   0  0  0  0  0  0  0  0  0  0  0  0
  147.5942  141.4329  156.8594 H   0  0  0  0  0  0  0  0  0  0  0  0
  148.7993  140.2319  157.3155 H   0  0  0  0  0  0  0  0  0  0  0  0
  149.0914  142.3718  153.5659 H   0  0  0  0  0  0  0  0  0  0  0  0
  146.5164  142.2878  155.3096 H   0  0  0  0  0  0  0  0  0  0  0  0
  146.7978  143.2229  153.7592 H   0  0  0  0  0  0  0  0  0  0  0  0
  147.2522  141.0642  152.5522 H   0  0  0  0  0  0  0  0  0  0  0  0
  146.9898  140.1380  154.1170 H   0  0  0  0  0  0  0  0  0  0  0  0
  1  2  1  0  0  0  0
  1 22  1  0  0  0  0
  1 23  1  0  0  0  0
  1 24  1  0  0  0  0
  2 19  2  0  0  0  0
  2  3  1  0  0  0  0
  3  4  2  0  0  0  0
  3 25  1  0  0  0  0
  4  5  1  0  0  0  0
  4 26  1  0  0  0  0
  5  6  1  0  0  0  0
  5 17  1  0  0  0  0
  6  7  1  0  0  0  0
  6 27  1  0  0  0  0
  6 28  1  0  0  0  0
  7  8  2  0  0  0  0
  7  9  1  0  0  0  0
  9 10  1  0  0  0  0
  9 29  1  0  0  0  0
 10 11  1  0  0  0  0
 10 12  1  0  0  0  0
 10 14  1  0  0  0  0
 11 30  1  0  0  0  0
 11 31  1  0  0  0  0
 11 32  1  0  0  0  0
 12 13  3  0  0  0  0
 14 16  1  0  0  0  0
 14 15  1  0  0  0  0
 14 33  1  0  0  0  0
 15 16  1  0  0  0  0
 15 34  1  0  0  0  0
 15 35  1  0  0  0  0
 16 36  1  0  0  0  0
 16 37  1  0  0  0  0
 17 18  2  0  0  0  0
 17 19  1  0  0  0  0
 19 20  1  0  0  0  0
 20 21  3  0  0  0  0
M  END
> <s_m_source_file>
AV-unprocessed.smi

> <i_m_source_file_index>
2313

> <i_lp_mmshare_version>
43012

> <i_f3d_flags>
0

> <s_epik_input>
W0NIM11jMVtjSF1bY0hdbihjKD1PKWMxQyNOKVtDSDJdQyg9TylbTkhdW0NAQF0oW0NIM10pKEMjTilbQ0hdMltDSDJdW0NIMl0y

> <s_epik_cmdline>
J2VwaWtfcHl0aG9uJywgJy1waCcsICc3LjAnLCAnLXRuJywgJzgnLCAnLW1hJywgJzIwMCcsICctbWV0YWxfYmluZGluZycsICctaW1hZScsICc8aW5maWxlLm1hZT4nLCAnLW9tYWUnLCAnPG91dGZpbGUubWFlPic=

> <r_lp_tautomer_probability>
1

> <r_epik_Ionization_Penalty>
4.65501e-07

> <r_epik_Ionization_Penalty_Charging>
2.39086e-10

> <r_epik_Ionization_Penalty_Neutral>
4.65262e-07

> <r_epik_State_Penalty>
-0

> <r_epik_Charging_Adjusted_Penalty>
2.39086e-10

> <i_epik_Tot_Q>
0

> <i_epik_Tot_abs_Q>
0

> <r_epik_Metal_State_Penalty>
-0

> <b_epik_Metal_Only>
0

> <s_lp_Force_Field>
OPLS_2005

> <r_lp_Energy>
23.1169

> <b_lp_Chiralities_Consistent>
1

> <s_lp_Variant>
AV-unprocessed.smi:2313-2

> <Gold.Version>
5.8.1

> <Gold.Id.Protein>
6NUR|6NUR_protein|mol2

> <Gold.PLP.Fitness>
52.5489

> <Gold.PLP.PLP>
-49.7975

> <Gold.PLP.part.hbond>
-2.8713

> <Gold.PLP.part.metal>
0.0000

> <Gold.PLP.part.buried>
-0.0565

> <Gold.PLP.part.nonpolar>
-45.7139

> <Gold.PLP.part.repulsive>
0.2253

> <Gold.PLP.ligand.clash>
0.0000

> <Gold.PLP.ligand.torsion>
1.1132

> <Gold.PLP.Chemscore.Hbond>
1.1616

> <Gold.PLP.Chemscore.CHOScore>
0.0000

> <Gold.PLP.Chemscore.Metal>
0.0000

> <Gold.Chemscore.Hbonds>
donor molecule, donor type, donor heavy atom, donor atom, acceptor molecule, acceptor atom, score
      L1  H     9    29       P1  8028  0.96
      P1  H  7989  7998       L1    13  0.09
      P1  H  7997  8008       L1    18  0.02

> <Gold.PLP.Chemscore.Internal.Correction>
1.4930

> <Gold.Rescore>
     Score         DG    S(hbond)    S(metal)    S(lipo)     H(rot)  DE(clash)    DE(int)     intcor
      8.98     -15.34       0.98        0.00      95.73       1.80       0.09       6.27       ----

> <Gold.Chemscore.Fitness>
8.9811

> <Gold.Chemscore.DG>
-15.3423

> <Gold.Chemscore.ZeroCoef>
-5.4800

> <Gold.Chemscore.Hbond>
0.9755

> <Gold.Chemscore.Metal>
0.0000

> <Gold.Chemscore.Lipo>
95.7325

> <Gold.Chemscore.Internal_Hbond>
0.0000

> <Gold.Chemscore.DEClash>
0.0907

> <Gold.Chemscore.DEInternal>
6.2705

> <Gold.Chemscore.Rot>
1.7955

> <Gold.Chemscore.Internal.Correction>
   9.000000E+99

> <Gold.Chemscore.Hbonds>
donor molecule, donor type, donor heavy atom, donor atom, acceptor molecule, acceptor atom, score
      L1  H     9    29       P1  8028  0.92
      P1  H  7997  8008       L1    18  0.04

> <Gold.Chemscore.Hbond.Weighted>
-3.2581

> <Gold.Chemscore.Metal.Weighted>
-0.0000

> <Gold.Chemscore.Lipo.Weighted>
-11.2007

> <Gold.Chemscore.Internal_Hbond.Weighted>
0.0000

> <Gold.Chemscore.DEClash.Weighted>
0.0907

> <Gold.Chemscore.DEInternal.Weighted>
6.2705

> <Gold.Chemscore.Rot.Weighted>
4.5965

> <Gold.Chemscore.Internal.Correction.Weighted>
   9.000000E+99

> <Gold.Protein.RotatedTorsions>
[ 6907 6896 6895 6894 ] final   52.47 input  -60.11 | X-H torsion
[ 7974 7965 7964 7962 ] final   76.78 input  175.53 | X-H torsion
[ 8008 7997 7996 7995 ] final  -99.30 input   59.86 | X-H torsion
[ 10167 10162 10161 10158 ] final  114.27 input  -65.29 | X-H torsion
[ 10718 10713 10712 10709 ] final   99.35 input   66.30 | X-H torsion
[ 10763 10752 10751 10750 ] final   26.01 input  -60.55 | X-H torsion
[ 11005 11000 10999 10996 ] final  -30.37 input  -57.11 | X-H torsion

> <Gold.Protein.ActiveResidues>
 VAL166  LYS551  ARG553  GLY616  TRP617  ASP618  TYR619  PRO620  LYS621  CYS622 
 ASP623  PHE694  ASN695  SER759  ASP760  ASP761  ALA762  ILE779  LEU786  VAL792 
 PHE793  MET794  SER795  GLU796  ALA797  LYS798  CYS799  TRP800  GLU811  SER814 

> <Gold.Protein.RotatedAtoms>
  152.3236  134.7349  160.0307 H   0  0  0  0  0  0  0  0  0  0  0  0  # atno 6907 bound_to 6896
  151.7789  133.3342  159.3474 H   0  0  0  0  0  0  0  0  0  0  0  0  # atno 6908 bound_to 6896
  150.7383  134.5881  159.6017 H   0  0  0  0  0  0  0  0  0  0  0  0  # atno 6909 bound_to 6896
  145.6984  139.2575  143.1719 H   0  0  0  0  0  0  0  0  0  0  0  0  # atno 7974 bound_to 7965
  154.8129  140.0449  157.1356 H   0  0  0  0  0  0  0  0  0  0  0  0  # atno 8008 bound_to 7997
  154.9347  140.3044  155.5130 H   0  0  0  0  0  0  0  0  0  0  0  0  # atno 8009 bound_to 7997
  156.2973  140.2316  156.4411 H   0  0  0  0  0  0  0  0  0  0  0  0  # atno 8010 bound_to 7997
  139.6400  144.7123  151.2255 H   0  0  0  0  0  0  0  0  0  0  0  0  # atno 10167 bound_to 10162
  157.6878  131.0667  150.4935 H   0  0  0  0  0  0  0  0  0  0  0  0  # atno 10718 bound_to 10713
  153.0652  135.6570  154.0372 H   0  0  0  0  0  0  0  0  0  0  0  0  # atno 10763 bound_to 10752
  154.0030  135.2935  155.3402 H   0  0  0  0  0  0  0  0  0  0  0  0  # atno 10764 bound_to 10752
  154.7006  135.5246  153.8590 H   0  0  0  0  0  0  0  0  0  0  0  0  # atno 10765 bound_to 10752
  140.9377  133.7298  156.1029 H   0  0  0  0  0  0  0  0  0  0  0  0  # atno 11005 bound_to 11000
  146.0819  140.7754  142.9637 LP  0  0  0  0  0  0  0  0  0  0  0  0  # atno 17320 bound_to 7965
  144.6976  140.3503  143.7183 LP  0  0  0  0  0  0  0  0  0  0  0  0  # atno 17321 bound_to 7965
  140.7486  143.6328  150.8407 LP  0  0  0  0  0  0  0  0  0  0  0  0  # atno 17342 bound_to 10162
  139.9964  143.5791  152.2891 LP  0  0  0  0  0  0  0  0  0  0  0  0  # atno 17343 bound_to 10162
  156.5261  130.4173  149.6225 LP  0  0  0  0  0  0  0  0  0  0  0  0  # atno 17370 bound_to 10713
  156.3111  130.7229  151.2122 LP  0  0  0  0  0  0  0  0  0  0  0  0  # atno 17371 bound_to 10713
  140.7777  134.3761  157.5494 LP  0  0  0  0  0  0  0  0  0  0  0  0  # atno 17394 bound_to 11000
  139.8812  134.9062  156.2917 LP  0  0  0  0  0  0  0  0  0  0  0  0  # atno 17395 bound_to 11000

$$$$
