AV-unprocessed.smi:2094|AV-procd|sdf|8552|dock1
  -GOLD-   2272011273D 1   1.00000     0.00000
 Structure written by MMmdl.
 36 37  0  0  0  0  0  0  0  0  2 V2000
  150.7851  140.7543  155.5231 O   0  0  0  0  0  0  0  0  0  0  0  0
  150.0865  141.7626  155.6311 C   0  0  0  0  0  0  0  0  0  0  0  0
  148.9971  141.9856  154.8815 N   0  0  0  0  0  0  0  0  0  0  0  0
  148.5044  141.0873  153.8438 C   0  0  0  0  0  0  0  0  0  0  0  0
  146.9951  141.2787  153.5975 C   0  0  0  0  0  0  0  0  0  0  0  0
  146.3167  140.0113  153.2268 N   0  3  0  0  0  0  0  0  0  0  0  0
  146.1479  139.1049  154.3931 C   0  0  0  0  0  0  0  0  0  0  0  0
  145.3286  137.8581  154.0184 C   0  0  0  0  0  0  0  0  0  0  0  0
  145.9680  137.1137  152.8395 C   0  0  0  0  0  0  0  0  0  0  0  0
  146.1610  138.0739  151.6589 C   0  0  0  0  0  0  0  0  0  0  0  0
  146.9657  139.3139  152.0834 C   0  0  0  0  0  0  0  0  0  0  0  0
  150.3007  142.7703  156.4950 N   0  0  0  0  0  0  0  0  0  0  0  0
  151.3369  142.8946  157.4574 C   0  0  0  0  0  0  0  0  0  0  0  0
  151.9037  144.0543  157.8111 N   0  0  0  0  0  0  0  0  0  0  0  0
  152.8975  143.8787  158.7773 C   0  0  0  0  0  0  0  0  0  0  0  0
  153.0760  142.5693  159.1492 C   0  0  0  0  0  0  0  0  0  0  0  0
  151.9971  141.4983  158.2958 S   0  0  0  0  0  0  0  0  0  0  0  0
  148.4802  142.8402  155.0316 H   0  0  0  0  0  0  0  0  0  0  0  0
  149.0587  141.2925  152.9276 H   0  0  0  0  0  0  0  0  0  0  0  0
  148.7395  140.0604  154.1246 H   0  0  0  0  0  0  0  0  0  0  0  0
  146.5024  141.7122  154.4691 H   0  0  0  0  0  0  0  0  0  0  0  0
  146.8772  142.0014  152.7884 H   0  0  0  0  0  0  0  0  0  0  0  0
  147.1287  138.8119  154.7716 H   0  0  0  0  0  0  0  0  0  0  0  0
  145.6408  139.6331  155.2014 H   0  0  0  0  0  0  0  0  0  0  0  0
  145.2477  137.1929  154.8787 H   0  0  0  0  0  0  0  0  0  0  0  0
  144.3108  138.1523  153.7584 H   0  0  0  0  0  0  0  0  0  0  0  0
  146.9317  136.7012  153.1413 H   0  0  0  0  0  0  0  0  0  0  0  0
  145.3451  136.2693  152.5429 H   0  0  0  0  0  0  0  0  0  0  0  0
  146.6699  137.5617  150.8417 H   0  0  0  0  0  0  0  0  0  0  0  0
  145.1882  138.3820  151.2731 H   0  0  0  0  0  0  0  0  0  0  0  0
  147.0549  139.9829  151.2286 H   0  0  0  0  0  0  0  0  0  0  0  0
  147.9803  139.0239  152.3615 H   0  0  0  0  0  0  0  0  0  0  0  0
  149.6467  143.5384  156.4626 H   0  0  0  0  0  0  0  0  0  0  0  0
  153.4302  144.7427  159.1461 H   0  0  0  0  0  0  0  0  0  0  0  0
  153.7744  142.1718  159.8704 H   0  0  0  0  0  0  0  0  0  0  0  0
  145.3845  140.2619  152.9297 H   0  0  0  0  0  0  0  0  0  0  0  0
  1  2  2  0  0  0  0
  2  3  1  0  0  0  0
  2 12  1  0  0  0  0
  3  4  1  0  0  0  0
  3 18  1  0  0  0  0
  4  5  1  0  0  0  0
  4 19  1  0  0  0  0
  4 20  1  0  0  0  0
  5  6  1  0  0  0  0
  5 21  1  0  0  0  0
  5 22  1  0  0  0  0
  6 11  1  0  0  0  0
  6  7  1  0  0  0  0
  6 36  1  0  0  0  0
  7  8  1  0  0  0  0
  7 23  1  0  0  0  0
  7 24  1  0  0  0  0
  8  9  1  0  0  0  0
  8 25  1  0  0  0  0
  8 26  1  0  0  0  0
  9 10  1  0  0  0  0
  9 27  1  0  0  0  0
  9 28  1  0  0  0  0
 10 11  1  0  0  0  0
 10 29  1  0  0  0  0
 10 30  1  0  0  0  0
 11 31  1  0  0  0  0
 11 32  1  0  0  0  0
 12 13  1  0  0  0  0
 12 33  1  0  0  0  0
 13 17  1  0  0  0  0
 13 14  2  0  0  0  0
 14 15  1  0  0  0  0
 15 16  2  0  0  0  0
 15 34  1  0  0  0  0
 16 17  1  0  0  0  0
 16 35  1  0  0  0  0
M  CHG  1   6   1
M  END
> <s_m_source_file>
AV-unprocessed.smi

> <i_m_source_file_index>
2094

> <i_lp_mmshare_version>
43012

> <i_f3d_flags>
0

> <s_epik_input>
czFbY0hdW2NIXW5jMVtOSF1DKD1PKVtOSF1bQ0gyXVtDSDJdTjJbQ0gyXVtDSDJdW0NIMl1bQ0gyXVtDSDJdMg==

> <s_epik_cmdline>
J2VwaWtfcHl0aG9uJywgJy1waCcsICc3LjAnLCAnLXRuJywgJzgnLCAnLW1hJywgJzIwMCcsICctbWV0YWxfYmluZGluZycsICctaW1hZScsICc8aW5maWxlLm1hZT4nLCAnLW9tYWUnLCAnPG91dGZpbGUubWFlPic=

> <r_lp_tautomer_probability>
0.999

> <r_epik_Ionization_Penalty>
0.00270619

> <r_epik_Ionization_Penalty_Charging>
0.00256589

> <r_epik_Ionization_Penalty_Neutral>
0.000140299

> <r_epik_State_Penalty>
0.00178258

> <r_epik_Charging_Adjusted_Penalty>
0.00434847

> <i_epik_Tot_Q>
1

> <i_epik_Tot_abs_Q>
1

> <r_epik_Metal_State_Penalty>
0.0571422

> <b_epik_Metal_Only>
0

> <s_lp_Force_Field>
OPLS_2005

> <r_lp_Energy>
13.6526

> <b_lp_Chiralities_Consistent>
1

> <s_lp_Variant>
AV-unprocessed.smi:2094-1

> <Gold.Version>
5.8.1

> <Gold.Id.Protein>
6NUR|6NUR_protein|mol2

> <Gold.PLP.Fitness>
44.3734

> <Gold.PLP.PLP>
-32.7691

> <Gold.PLP.part.hbond>
-3.9694

> <Gold.PLP.part.metal>
0.0000

> <Gold.PLP.part.buried>
1.3383

> <Gold.PLP.part.nonpolar>
-29.9925

> <Gold.PLP.part.repulsive>
0.4218

> <Gold.PLP.ligand.clash>
0.0000

> <Gold.PLP.ligand.torsion>
0.6871

> <Gold.PLP.Chemscore.Hbond>
4.3054

> <Gold.PLP.Chemscore.CHOScore>
0.0000

> <Gold.PLP.Chemscore.Metal>
0.0000

> <Gold.Chemscore.Hbonds>
donor molecule, donor type, donor heavy atom, donor atom, acceptor molecule, acceptor atom, score
      L1  H     3    18       P1  8028  0.75
      L1  H     6    36       P1 10175  2.00
      L1  H    12    33       P1  8028  1.00
      P1  H  7989  7998       L1     1  0.50

> <Gold.PLP.Chemscore.Internal.Correction>
0.0623

> <Gold.Rescore>
     Score         DG    S(hbond)    S(metal)    S(lipo)     H(rot)  DE(clash)    DE(int)     intcor
     19.05     -20.15       3.00        0.00      74.95       1.61       0.44       0.67       ----

> <Gold.Chemscore.Fitness>
19.0499

> <Gold.Chemscore.DG>
-20.1512

> <Gold.Chemscore.ZeroCoef>
-5.4800

> <Gold.Chemscore.Hbond>
3.0040

> <Gold.Chemscore.Metal>
0.0000

> <Gold.Chemscore.Lipo>
74.9486

> <Gold.Chemscore.Internal_Hbond>
0.0000

> <Gold.Chemscore.DEClash>
0.4363

> <Gold.Chemscore.DEInternal>
0.6650

> <Gold.Chemscore.Rot>
1.6137

> <Gold.Chemscore.Internal.Correction>
   9.000000E+99

> <Gold.Chemscore.Hbonds>
donor molecule, donor type, donor heavy atom, donor atom, acceptor molecule, acceptor atom, score
      L1  H     3    18       P1  8028  0.73
      L1  H     6    36       P1 10175  0.97
      L1  H    12    33       P1  8028  0.95
      P1  H  7989  7998       L1     1  0.23

> <Gold.Chemscore.Hbond.Weighted>
-10.0333

> <Gold.Chemscore.Metal.Weighted>
-0.0000

> <Gold.Chemscore.Lipo.Weighted>
-8.7690

> <Gold.Chemscore.Internal_Hbond.Weighted>
0.0000

> <Gold.Chemscore.DEClash.Weighted>
0.4363

> <Gold.Chemscore.DEInternal.Weighted>
0.6650

> <Gold.Chemscore.Rot.Weighted>
4.1310

> <Gold.Chemscore.Internal.Correction.Weighted>
   9.000000E+99

> <Gold.Protein.RotatedTorsions>
[ 6907 6896 6895 6894 ] final   12.17 input  -60.11 | X-H torsion
[ 7974 7965 7964 7962 ] final   86.56 input  175.53 | X-H torsion
[ 8008 7997 7996 7995 ] final  -47.56 input   59.86 | X-H torsion
[ 10167 10162 10161 10158 ] final  -15.46 input  -65.29 | X-H torsion
[ 10718 10713 10712 10709 ] final -131.91 input   66.30 | X-H torsion
[ 10763 10752 10751 10750 ] final -149.91 input  -60.55 | X-H torsion
[ 11005 11000 10999 10996 ] final   72.03 input  -57.11 | X-H torsion

> <Gold.Protein.ActiveResidues>
 VAL166  LYS551  ARG553  GLY616  TRP617  ASP618  TYR619  PRO620  LYS621  CYS622 
 ASP623  PHE694  ASN695  SER759  ASP760  ASP761  ALA762  ILE779  LEU786  VAL792 
 PHE793  MET794  SER795  GLU796  ALA797  LYS798  CYS799  TRP800  GLU811  SER814 

> <Gold.Protein.RotatedAtoms>
  151.7661  135.0798  160.0352 H   0  0  0  0  0  0  0  0  0  0  0  0  # atno 6907 bound_to 6896
  152.3320  133.5965  159.5825 H   0  0  0  0  0  0  0  0  0  0  0  0  # atno 6908 bound_to 6896
  150.7428  133.9769  159.3605 H   0  0  0  0  0  0  0  0  0  0  0  0  # atno 6909 bound_to 6896
  145.5706  139.2313  143.2408 H   0  0  0  0  0  0  0  0  0  0  0  0  # atno 7974 bound_to 7965
  154.4018  140.1343  156.4195 H   0  0  0  0  0  0  0  0  0  0  0  0  # atno 8008 bound_to 7997
  155.7656  140.3485  155.5200 H   0  0  0  0  0  0  0  0  0  0  0  0  # atno 8009 bound_to 7997
  155.8817  140.0988  157.1471 H   0  0  0  0  0  0  0  0  0  0  0  0  # atno 8010 bound_to 7997
  140.7218  143.5216  150.9626 H   0  0  0  0  0  0  0  0  0  0  0  0  # atno 10167 bound_to 10162
  156.2291  130.7026  151.0839 H   0  0  0  0  0  0  0  0  0  0  0  0  # atno 10718 bound_to 10713
  154.8150  135.3297  154.7202 H   0  0  0  0  0  0  0  0  0  0  0  0  # atno 10763 bound_to 10752
  153.7844  135.6916  153.4887 H   0  0  0  0  0  0  0  0  0  0  0  0  # atno 10764 bound_to 10752
  153.1958  135.4534  155.0153 H   0  0  0  0  0  0  0  0  0  0  0  0  # atno 10765 bound_to 10752
  139.9512  134.7223  156.0858 H   0  0  0  0  0  0  0  0  0  0  0  0  # atno 11005 bound_to 11000
  146.1787  140.6532  142.9199 LP  0  0  0  0  0  0  0  0  0  0  0  0  # atno 17320 bound_to 7965
  144.7440  140.5017  143.6849 LP  0  0  0  0  0  0  0  0  0  0  0  0  # atno 17321 bound_to 7965
  139.8934  143.6925  152.3142 LP  0  0  0  0  0  0  0  0  0  0  0  0  # atno 17342 bound_to 10162
  139.7249  144.7595  151.0895 LP  0  0  0  0  0  0  0  0  0  0  0  0  # atno 17343 bound_to 10162
  157.7125  131.0727  150.6450 LP  0  0  0  0  0  0  0  0  0  0  0  0  # atno 17370 bound_to 10713
  156.6517  130.4487  149.5717 LP  0  0  0  0  0  0  0  0  0  0  0  0  # atno 17371 bound_to 10713
  141.1175  133.6623  156.3131 LP  0  0  0  0  0  0  0  0  0  0  0  0  # atno 17394 bound_to 11000
  140.5714  134.5836  157.5458 LP  0  0  0  0  0  0  0  0  0  0  0  0  # atno 17395 bound_to 11000

$$$$
