AV-unprocessed.smi:1840|AV-procd|sdf|7491|dock2
  -GOLD-   22720 9193D 1   1.00000     0.00000
 Structure written by MMmdl.
 43 44  0  0  0  0  0  0  0  0  1 V2000
  148.3453  131.4616  154.2241 C   0  0  0  0  0  0  0  0  0  0  0  0
  147.5502  132.3966  153.3028 C   0  0  1  0  0  0  0  0  0  0  0  0
  146.0313  132.2855  153.5607 C   0  0  0  0  0  0  0  0  0  0  0  0
  145.2546  132.2434  152.3336 N   0  0  0  0  0  0  0  0  0  0  0  0
  145.4852  131.4933  151.1989 C   0  0  0  0  0  0  0  0  0  0  0  0
  144.4742  131.7622  150.3217 C   0  0  0  0  0  0  0  0  0  0  0  0
  143.6672  132.7059  151.0164 C   0  0  0  0  0  0  0  0  0  0  0  0
  144.1387  132.9948  152.2188 N   0  0  0  0  0  0  0  0  0  0  0  0
  148.0060  133.7708  153.5082 N   0  0  0  0  0  0  0  0  0  0  0  0
  148.1232  134.3810  154.6965 C   0  0  0  0  0  0  0  0  0  0  0  0
  147.7694  133.8887  155.7678 O   0  0  0  0  0  0  0  0  0  0  0  0
  148.7187  135.5752  154.5807 N   0  0  0  0  0  0  0  0  0  0  0  0
  149.0980  136.4438  155.6955 C   0  0  1  0  0  0  0  0  0  0  0  0
  150.6333  136.4784  155.8762 C   0  0  0  0  0  0  0  0  0  0  0  0
  151.3357  137.2054  154.7173 C   0  0  0  0  0  0  0  0  0  0  0  0
  150.7748  138.6234  154.5341 C   0  0  0  0  0  0  0  0  0  0  0  0
  149.2495  138.6035  154.3418 C   0  0  0  0  0  0  0  0  0  0  0  0
  148.5372  137.8745  155.5011 C   0  0  1  0  0  0  0  0  0  0  0  0
  147.0084  137.8988  155.3305 C   0  0  0  0  0  0  0  0  0  0  0  0
  148.0490  130.4227  154.0772 H   0  0  0  0  0  0  0  0  0  0  0  0
  148.1863  131.7076  155.2746 H   0  0  0  0  0  0  0  0  0  0  0  0
  149.4151  131.5293  154.0231 H   0  0  0  0  0  0  0  0  0  0  0  0
  147.7538  132.0867  152.2761 H   0  0  0  0  0  0  0  0  0  0  0  0
  145.8117  131.3823  154.1321 H   0  0  0  0  0  0  0  0  0  0  0  0
  145.6835  133.1256  154.1634 H   0  0  0  0  0  0  0  0  0  0  0  0
  146.3329  130.8293  151.1161 H   0  0  0  0  0  0  0  0  0  0  0  0
  144.3309  131.3457  149.3359 H   0  0  0  0  0  0  0  0  0  0  0  0
  142.7580  133.1857  150.6853 H   0  0  0  0  0  0  0  0  0  0  0  0
  148.3213  134.2690  152.6889 H   0  0  0  0  0  0  0  0  0  0  0  0
  148.9724  135.8913  153.6562 H   0  0  0  0  0  0  0  0  0  0  0  0
  148.6563  136.0305  156.6043 H   0  0  0  0  0  0  0  0  0  0  0  0
  150.8702  136.9881  156.8110 H   0  0  0  0  0  0  0  0  0  0  0  0
  151.0343  135.4693  155.9781 H   0  0  0  0  0  0  0  0  0  0  0  0
  152.4086  137.2520  154.9056 H   0  0  0  0  0  0  0  0  0  0  0  0
  151.2110  136.6375  153.7944 H   0  0  0  0  0  0  0  0  0  0  0  0
  151.0240  139.2290  155.4064 H   0  0  0  0  0  0  0  0  0  0  0  0
  151.2510  139.1036  153.6788 H   0  0  0  0  0  0  0  0  0  0  0  0
  148.8817  139.6272  154.2654 H   0  0  0  0  0  0  0  0  0  0  0  0
  149.0087  138.1214  153.3934 H   0  0  0  0  0  0  0  0  0  0  0  0
  148.7576  138.4302  156.4140 H   0  0  0  0  0  0  0  0  0  0  0  0
  146.6953  137.4085  154.4082 H   0  0  0  0  0  0  0  0  0  0  0  0
  146.6357  138.9230  155.3001 H   0  0  0  0  0  0  0  0  0  0  0  0
  146.5139  137.3942  156.1610 H   0  0  0  0  0  0  0  0  0  0  0  0
  1  2  1  0  0  0  0
  1 20  1  0  0  0  0
  1 21  1  0  0  0  0
  1 22  1  0  0  0  0
  2  3  1  0  0  0  0
  2  9  1  0  0  0  0
  2 23  1  0  0  0  0
  3  4  1  0  0  0  0
  3 24  1  0  0  0  0
  3 25  1  0  0  0  0
  4  8  1  0  0  0  0
  4  5  1  0  0  0  0
  5  6  2  0  0  0  0
  5 26  1  0  0  0  0
  6  7  1  0  0  0  0
  6 27  1  0  0  0  0
  7  8  2  0  0  0  0
  7 28  1  0  0  0  0
  9 10  1  0  0  0  0
  9 29  1  0  0  0  0
 10 11  2  0  0  0  0
 10 12  1  0  0  0  0
 12 13  1  0  0  0  0
 12 30  1  0  0  0  0
 13 18  1  0  0  0  0
 13 14  1  0  0  0  0
 13 31  1  0  0  0  0
 14 15  1  0  0  0  0
 14 32  1  0  0  0  0
 14 33  1  0  0  0  0
 15 16  1  0  0  0  0
 15 34  1  0  0  0  0
 15 35  1  0  0  0  0
 16 17  1  0  0  0  0
 16 36  1  0  0  0  0
 16 37  1  0  0  0  0
 17 18  1  0  0  0  0
 17 38  1  0  0  0  0
 17 39  1  0  0  0  0
 18 19  1  0  0  0  0
 18 40  1  0  0  0  0
 19 41  1  0  0  0  0
 19 42  1  0  0  0  0
 19 43  1  0  0  0  0
M  END
> <s_m_source_file>
AV-unprocessed.smi

> <i_m_source_file_index>
1840

> <i_lp_mmshare_version>
43012

> <i_f3d_flags>
0

> <s_epik_input>
bjFbY0hdW2NIXVtjSF1uMVtDSDJdW0NAQEhdKFtDSDNdKVtOSF1DKD1PKVtOSF1bQ0BASF0yW0NIMl1bQ0gyXVtDSDJdW0NIMl1bQ0BIXTJbQ0gzXQ==

> <s_epik_cmdline>
J2VwaWtfcHl0aG9uJywgJy1waCcsICc3LjAnLCAnLXRuJywgJzgnLCAnLW1hJywgJzIwMCcsICctbWV0YWxfYmluZGluZycsICctaW1hZScsICc8aW5maWxlLm1hZT4nLCAnLW9tYWUnLCAnPG91dGZpbGUubWFlPic=

> <r_lp_tautomer_probability>
1

> <r_epik_Ionization_Penalty>
7.38659e-05

> <r_epik_Ionization_Penalty_Charging>
0

> <r_epik_Ionization_Penalty_Neutral>
7.38659e-05

> <r_epik_State_Penalty>
-0

> <r_epik_Charging_Adjusted_Penalty>
0

> <i_epik_Tot_Q>
0

> <i_epik_Tot_abs_Q>
0

> <r_epik_Metal_State_Penalty>
-0

> <b_epik_Metal_Only>
0

> <s_lp_Force_Field>
OPLS_2005

> <r_lp_Energy>
6.83703

> <b_lp_Chiralities_Consistent>
1

> <s_lp_Variant>
AV-unprocessed.smi:1840-4

> <Gold.Version>
5.8.1

> <Gold.Id.Protein>
6NUR|6NUR_protein|mol2

> <Gold.PLP.Fitness>
39.6621

> <Gold.PLP.PLP>
-29.6065

> <Gold.PLP.part.hbond>
-2.0000

> <Gold.PLP.part.metal>
0.0000

> <Gold.PLP.part.buried>
-3.5065

> <Gold.PLP.part.nonpolar>
-24.3869

> <Gold.PLP.part.repulsive>
0.1646

> <Gold.PLP.ligand.clash>
0.0000

> <Gold.PLP.ligand.torsion>
0.9798

> <Gold.PLP.Chemscore.Hbond>
1.9920

> <Gold.PLP.Chemscore.CHOScore>
2.0000

> <Gold.PLP.Chemscore.Metal>
0.0000

> <Gold.Chemscore.Hbonds>
donor molecule, donor type, donor heavy atom, donor atom, acceptor molecule, acceptor atom, score
      L1  H     9    29       P1  7948  0.52
      L1  H    12    30       P1  7948  1.00
      L1  C     5    26       P1 10747  0.41
      L1  C     7    28       P1 10186  1.00

> <Gold.PLP.Chemscore.Internal.Correction>
0.0391

> <Gold.Rescore>
     Score         DG    S(hbond)    S(metal)    S(lipo)     H(rot)  DE(clash)    DE(int)     intcor
     13.05     -14.85       1.59        0.00      68.72       1.56       0.00       1.79       ----

> <Gold.Chemscore.Fitness>
13.0521

> <Gold.Chemscore.DG>
-14.8451

> <Gold.Chemscore.ZeroCoef>
-5.4800

> <Gold.Chemscore.Hbond>
1.5906

> <Gold.Chemscore.Metal>
0.0000

> <Gold.Chemscore.Lipo>
68.7178

> <Gold.Chemscore.Internal_Hbond>
0.0000

> <Gold.Chemscore.DEClash>
0.0004

> <Gold.Chemscore.DEInternal>
1.7926

> <Gold.Chemscore.Rot>
1.5576

> <Gold.Chemscore.Internal.Correction>
   9.000000E+99

> <Gold.Chemscore.Hbonds>
donor molecule, donor type, donor heavy atom, donor atom, acceptor molecule, acceptor atom, score
      L1  H     9    29       P1  7948  0.09
      L1  H    12    30       P1  7948  0.94

> <Gold.Chemscore.Hbond.Weighted>
-5.3126

> <Gold.Chemscore.Metal.Weighted>
-0.0000

> <Gold.Chemscore.Lipo.Weighted>
-8.0400

> <Gold.Chemscore.Internal_Hbond.Weighted>
0.0000

> <Gold.Chemscore.DEClash.Weighted>
0.0004

> <Gold.Chemscore.DEInternal.Weighted>
1.7926

> <Gold.Chemscore.Rot.Weighted>
3.9875

> <Gold.Chemscore.Internal.Correction.Weighted>
   9.000000E+99

> <Gold.Protein.RotatedTorsions>
[ 6907 6896 6895 6894 ] final  -45.56 input  -60.11 | X-H torsion
[ 7974 7965 7964 7962 ] final   85.22 input  175.53 | X-H torsion
[ 8008 7997 7996 7995 ] final  -76.45 input   59.86 | X-H torsion
[ 10167 10162 10161 10158 ] final -103.64 input  -65.29 | X-H torsion
[ 10718 10713 10712 10709 ] final -165.06 input   66.30 | X-H torsion
[ 10763 10752 10751 10750 ] final  -47.18 input  -60.55 | X-H torsion
[ 11005 11000 10999 10996 ] final   -1.57 input  -57.11 | X-H torsion

> <Gold.Protein.ActiveResidues>
 VAL166  LYS551  ARG553  GLY616  TRP617  ASP618  TYR619  PRO620  LYS621  CYS622 
 ASP623  PHE694  ASN695  SER759  ASP760  ASP761  ALA762  ILE779  LEU786  VAL792 
 PHE793  MET794  SER795  GLU796  ALA797  LYS798  CYS799  TRP800  GLU811  SER814 

> <Gold.Protein.RotatedAtoms>
  150.9207  134.8624  159.7486 H   0  0  0  0  0  0  0  0  0  0  0  0  # atno 6907 bound_to 6896
  152.4991  134.4223  159.9494 H   0  0  0  0  0  0  0  0  0  0  0  0  # atno 6908 bound_to 6896
  151.4257  133.3645  159.2797 H   0  0  0  0  0  0  0  0  0  0  0  0  # atno 6909 bound_to 6896
  145.5883  139.2334  143.2313 H   0  0  0  0  0  0  0  0  0  0  0  0  # atno 7974 bound_to 7965
  154.5506  140.0727  156.8661 H   0  0  0  0  0  0  0  0  0  0  0  0  # atno 8008 bound_to 7997
  155.3001  140.3383  155.4230 H   0  0  0  0  0  0  0  0  0  0  0  0  # atno 8009 bound_to 7997
  156.1958  140.1703  156.7987 H   0  0  0  0  0  0  0  0  0  0  0  0  # atno 8010 bound_to 7997
  140.2178  143.3698  152.0995 H   0  0  0  0  0  0  0  0  0  0  0  0  # atno 10167 bound_to 10162
  156.6480  130.8996  151.3008 H   0  0  0  0  0  0  0  0  0  0  0  0  # atno 10718 bound_to 10713
  154.0572  135.6623  153.4807 H   0  0  0  0  0  0  0  0  0  0  0  0  # atno 10763 bound_to 10752
  153.0441  135.5126  154.7694 H   0  0  0  0  0  0  0  0  0  0  0  0  # atno 10764 bound_to 10752
  154.6719  135.3031  154.9697 H   0  0  0  0  0  0  0  0  0  0  0  0  # atno 10765 bound_to 10752
  140.6488  133.9423  155.8368 H   0  0  0  0  0  0  0  0  0  0  0  0  # atno 11005 bound_to 11000
  146.1665  140.6710  142.9253 LP  0  0  0  0  0  0  0  0  0  0  0  0  # atno 17320 bound_to 7965
  144.7362  140.4816  143.6902 LP  0  0  0  0  0  0  0  0  0  0  0  0  # atno 17321 bound_to 7965
  139.5155  144.6964  151.5617 LP  0  0  0  0  0  0  0  0  0  0  0  0  # atno 17342 bound_to 10162
  140.6277  143.9137  150.6578 LP  0  0  0  0  0  0  0  0  0  0  0  0  # atno 17343 bound_to 10162
  157.7150  130.9486  150.1223 LP  0  0  0  0  0  0  0  0  0  0  0  0  # atno 17370 bound_to 10713
  156.2107  130.3666  149.8674 LP  0  0  0  0  0  0  0  0  0  0  0  0  # atno 17371 bound_to 10713
  141.0552  134.0427  157.3732 LP  0  0  0  0  0  0  0  0  0  0  0  0  # atno 17394 bound_to 11000
  139.9053  135.0177  156.7457 LP  0  0  0  0  0  0  0  0  0  0  0  0  # atno 17395 bound_to 11000

$$$$
