AV-unprocessed.smi:3112|AV-procd|sdf|11844|dock3
  -GOLD-   2272017223D 1   1.00000     0.00000
 Structure written by MMmdl.
 36 36  0  0  0  0  0  0  0  0  1 V2000
  145.4174  136.3183  151.3722 C   0  0  0  0  0  0  0  0  0  0  0  0
  145.7529  137.2866  152.5151 C   0  0  0  0  0  0  0  0  0  0  0  0
  146.4530  138.5750  152.0388 C   0  0  2  0  0  0  0  0  0  0  0  0
  147.5963  138.2156  151.2905 O   0  0  0  0  0  0  0  0  0  0  0  0
  146.9225  139.4695  153.1986 C   0  0  0  0  0  0  0  0  0  0  0  0
  148.3619  139.3327  153.4284 N   0  0  0  0  0  0  0  0  0  0  0  0
  148.8865  140.1173  154.5505 C   0  0  2  0  0  0  0  0  0  0  0  0
  148.4142  141.5734  154.3786 C   0  0  0  0  0  0  0  0  0  0  0  0
  150.4373  140.0079  154.6596 C   0  0  2  0  0  0  0  0  0  0  0  0
  150.9870  138.5762  154.5187 C   0  0  0  0  0  0  0  0  0  0  0  0
  150.9354  140.6012  155.8950 N   0  0  0  0  0  0  0  0  0  0  0  0
  150.7624  141.8915  156.3524 C   0  0  0  0  0  0  0  0  0  0  0  0
  151.4023  141.9887  157.5546 C   0  0  0  0  0  0  0  0  0  0  0  0
  151.9472  140.6896  157.7531 C   0  0  0  0  0  0  0  0  0  0  0  0
  151.6666  139.8617  156.7602 N   0  0  0  0  0  0  0  0  0  0  0  0
  144.8997  135.4371  151.7512 H   0  0  0  0  0  0  0  0  0  0  0  0
  146.3172  135.9766  150.8604 H   0  0  0  0  0  0  0  0  0  0  0  0
  144.7696  136.7913  150.6334 H   0  0  0  0  0  0  0  0  0  0  0  0
  144.8225  137.5435  153.0222 H   0  0  0  0  0  0  0  0  0  0  0  0
  146.3702  136.7788  153.2573 H   0  0  0  0  0  0  0  0  0  0  0  0
  145.7886  139.1444  151.3873 H   0  0  0  0  0  0  0  0  0  0  0  0
  148.0706  137.5521  151.7679 H   0  0  0  0  0  0  0  0  0  0  0  0
  146.6762  140.5098  152.9815 H   0  0  0  0  0  0  0  0  0  0  0  0
  146.3667  139.2099  154.0974 H   0  0  0  0  0  0  0  0  0  0  0  0
  148.8536  139.5939  152.5797 H   0  0  0  0  0  0  0  0  0  0  0  0
  148.4450  139.7562  155.4807 H   0  0  0  0  0  0  0  0  0  0  0  0
  148.6623  142.1872  155.2446 H   0  0  0  0  0  0  0  0  0  0  0  0
  147.3312  141.6219  154.2591 H   0  0  0  0  0  0  0  0  0  0  0  0
  148.8660  142.0366  153.5007 H   0  0  0  0  0  0  0  0  0  0  0  0
  150.8663  140.5951  153.8458 H   0  0  0  0  0  0  0  0  0  0  0  0
  150.8576  138.1992  153.5047 H   0  0  0  0  0  0  0  0  0  0  0  0
  150.4947  137.8872  155.2057 H   0  0  0  0  0  0  0  0  0  0  0  0
  152.0568  138.5456  154.7281 H   0  0  0  0  0  0  0  0  0  0  0  0
  150.2028  142.6250  155.7910 H   0  0  0  0  0  0  0  0  0  0  0  0
  151.4711  142.8555  158.1949 H   0  0  0  0  0  0  0  0  0  0  0  0
  152.5341  140.3259  158.5836 H   0  0  0  0  0  0  0  0  0  0  0  0
  1  2  1  0  0  0  0
  1 16  1  0  0  0  0
  1 17  1  0  0  0  0
  1 18  1  0  0  0  0
  2  3  1  0  0  0  0
  2 19  1  0  0  0  0
  2 20  1  0  0  0  0
  3  4  1  0  0  0  0
  3  5  1  0  0  0  0
  3 21  1  0  0  0  0
  4 22  1  0  0  0  0
  5  6  1  0  0  0  0
  5 23  1  0  0  0  0
  5 24  1  0  0  0  0
  6  7  1  0  0  0  0
  6 25  1  0  0  0  0
  7  8  1  0  0  0  0
  7  9  1  0  0  0  0
  7 26  1  0  0  0  0
  8 27  1  0  0  0  0
  8 28  1  0  0  0  0
  8 29  1  0  0  0  0
  9 10  1  0  0  0  0
  9 11  1  0  0  0  0
  9 30  1  0  0  0  0
 10 31  1  0  0  0  0
 10 32  1  0  0  0  0
 10 33  1  0  0  0  0
 11 15  1  0  0  0  0
 11 12  1  0  0  0  0
 12 13  2  0  0  0  0
 12 34  1  0  0  0  0
 13 14  1  0  0  0  0
 13 35  1  0  0  0  0
 14 15  2  0  0  0  0
 14 36  1  0  0  0  0
M  END
> <s_m_source_file>
AV-unprocessed.smi

> <i_m_source_file_index>
3112

> <i_lp_mmshare_version>
43012

> <i_f3d_flags>
0

> <s_epik_input>
W0NIM11bQ0gyXVtDQEhdKFtPSF0pW0NIMl1bTkhdW0NASF0oW0NIM10pW0NASF0oW0NIM10pbjFbY0hdW2NIXVtjSF1uMQ==

> <s_epik_cmdline>
J2VwaWtfcHl0aG9uJywgJy1waCcsICc3LjAnLCAnLXRuJywgJzgnLCAnLW1hJywgJzIwMCcsICctbWV0YWxfYmluZGluZycsICctaW1hZScsICc8aW5maWxlLm1hZT4nLCAnLW9tYWUnLCAnPG91dGZpbGUubWFlPic=

> <r_lp_tautomer_probability>
1

> <r_epik_Ionization_Penalty>
2.16876

> <r_epik_Ionization_Penalty_Charging>
0

> <r_epik_Ionization_Penalty_Neutral>
2.16876

> <r_epik_State_Penalty>
2.30854

> <r_epik_Charging_Adjusted_Penalty>
2.30854

> <i_epik_Tot_Q>
0

> <i_epik_Tot_abs_Q>
0

> <r_epik_Metal_State_Penalty>
2.3073

> <b_epik_Metal_Only>
0

> <s_lp_Force_Field>
OPLS_2005

> <r_lp_Energy>
16.1769

> <b_lp_Chiralities_Consistent>
1

> <s_lp_Variant>
AV-unprocessed.smi:3112-9

> <Gold.Version>
5.8.1

> <Gold.Id.Protein>
6NUR|6NUR_protein|mol2

> <Gold.PLP.Fitness>
43.9845

> <Gold.PLP.PLP>
-33.6919

> <Gold.PLP.part.hbond>
-3.4162

> <Gold.PLP.part.metal>
0.0000

> <Gold.PLP.part.buried>
-0.4781

> <Gold.PLP.part.nonpolar>
-30.3659

> <Gold.PLP.part.repulsive>
0.0000

> <Gold.PLP.ligand.clash>
0.0000

> <Gold.PLP.ligand.torsion>
0.8045

> <Gold.PLP.Chemscore.Hbond>
2.9175

> <Gold.PLP.Chemscore.CHOScore>
1.0000

> <Gold.PLP.Chemscore.Metal>
0.0000

> <Gold.Chemscore.Hbonds>
donor molecule, donor type, donor heavy atom, donor atom, acceptor molecule, acceptor atom, score
      L1  H     4    22       P1  7948  1.00
      L1  H     6    25       P1  7957  1.00
      P1  H  7954  7966       L1     4  0.80
      L1  C    12    34       P1  8028  1.00

> <Gold.PLP.Chemscore.Internal.Correction>
0.1493

> <Gold.Rescore>
     Score         DG    S(hbond)    S(metal)    S(lipo)     H(rot)  DE(clash)    DE(int)     intcor
     14.70     -17.12       2.36        0.00      82.68       2.31       1.50       0.92       ----

> <Gold.Chemscore.Fitness>
14.6980

> <Gold.Chemscore.DG>
-17.1191

> <Gold.Chemscore.ZeroCoef>
-5.4800

> <Gold.Chemscore.Hbond>
2.3598

> <Gold.Chemscore.Metal>
0.0000

> <Gold.Chemscore.Lipo>
82.6759

> <Gold.Chemscore.Internal_Hbond>
0.0000

> <Gold.Chemscore.DEClash>
1.5038

> <Gold.Chemscore.DEInternal>
0.9172

> <Gold.Chemscore.Rot>
2.3108

> <Gold.Chemscore.Internal.Correction>
   9.000000E+99

> <Gold.Chemscore.Hbonds>
donor molecule, donor type, donor heavy atom, donor atom, acceptor molecule, acceptor atom, score
      L1  H     4    22       P1  7948  0.92
      L1  H     6    25       P1  7957  1.00
      P1  H  7954  7966       L1     4  0.11

> <Gold.Chemscore.Hbond.Weighted>
-7.8817

> <Gold.Chemscore.Metal.Weighted>
-0.0000

> <Gold.Chemscore.Lipo.Weighted>
-9.6731

> <Gold.Chemscore.Internal_Hbond.Weighted>
0.0000

> <Gold.Chemscore.DEClash.Weighted>
1.5038

> <Gold.Chemscore.DEInternal.Weighted>
0.9172

> <Gold.Chemscore.Rot.Weighted>
5.9157

> <Gold.Chemscore.Internal.Correction.Weighted>
   9.000000E+99

> <Gold.Protein.RotatedTorsions>
[ 6907 6896 6895 6894 ] final   -0.67 input  -60.11 | X-H torsion
[ 7974 7965 7964 7962 ] final  158.56 input  175.53 | X-H torsion
[ 8008 7997 7996 7995 ] final  169.46 input   59.86 | X-H torsion
[ 10167 10162 10161 10158 ] final  -56.36 input  -65.29 | X-H torsion
[ 10718 10713 10712 10709 ] final  -74.79 input   66.30 | X-H torsion
[ 10763 10752 10751 10750 ] final   22.96 input  -60.55 | X-H torsion
[ 11005 11000 10999 10996 ] final  -78.36 input  -57.11 | X-H torsion

> <Gold.Protein.ActiveResidues>
 VAL166  LYS551  ARG553  GLY616  TRP617  ASP618  TYR619  PRO620  LYS621  CYS622 
 ASP623  PHE694  ASN695  SER759  ASP760  ASP761  ALA762  ILE779  LEU786  VAL792 
 PHE793  MET794  SER795  GLU796  ALA797  LYS798  CYS799  TRP800  GLU811  SER814 

> <Gold.Protein.RotatedAtoms>
  151.5585  135.1066  159.9966 H   0  0  0  0  0  0  0  0  0  0  0  0  # atno 6907 bound_to 6896
  152.4458  133.7529  159.6714 H   0  0  0  0  0  0  0  0  0  0  0  0  # atno 6908 bound_to 6896
  150.8373  133.7925  159.3098 H   0  0  0  0  0  0  0  0  0  0  0  0  # atno 6909 bound_to 6896
  144.7839  139.7495  143.6249 H   0  0  0  0  0  0  0  0  0  0  0  0  # atno 7974 bound_to 7965
  156.1455  140.1563  156.8854 H   0  0  0  0  0  0  0  0  0  0  0  0  # atno 8008 bound_to 7997
  154.5024  140.0822  156.7863 H   0  0  0  0  0  0  0  0  0  0  0  0  # atno 8009 bound_to 7997
  155.3997  140.3414  155.4258 H   0  0  0  0  0  0  0  0  0  0  0  0  # atno 8010 bound_to 7997
  140.6321  143.2464  151.5213 H   0  0  0  0  0  0  0  0  0  0  0  0  # atno 10167 bound_to 10162
  156.0230  130.4425  150.2946 H   0  0  0  0  0  0  0  0  0  0  0  0  # atno 10718 bound_to 10713
  153.0875  135.6637  153.9920 H   0  0  0  0  0  0  0  0  0  0  0  0  # atno 10763 bound_to 10752
  153.9525  135.2982  155.3439 H   0  0  0  0  0  0  0  0  0  0  0  0  # atno 10764 bound_to 10752
  154.7285  135.5133  153.8998 H   0  0  0  0  0  0  0  0  0  0  0  0  # atno 10765 bound_to 10752
  141.1664  133.7060  156.7959 H   0  0  0  0  0  0  0  0  0  0  0  0  # atno 11005 bound_to 11000
  146.2061  139.5386  142.9711 LP  0  0  0  0  0  0  0  0  0  0  0  0  # atno 17320 bound_to 7965
  145.5975  141.0360  143.2036 LP  0  0  0  0  0  0  0  0  0  0  0  0  # atno 17321 bound_to 7965
  139.5534  144.2336  152.1571 LP  0  0  0  0  0  0  0  0  0  0  0  0  # atno 17342 bound_to 10162
  140.1583  144.5050  150.6647 LP  0  0  0  0  0  0  0  0  0  0  0  0  # atno 17343 bound_to 10162
  157.1049  131.0205  151.3071 LP  0  0  0  0  0  0  0  0  0  0  0  0  # atno 17370 bound_to 10713
  157.4751  130.7731  149.7360 LP  0  0  0  0  0  0  0  0  0  0  0  0  # atno 17371 bound_to 10713
  140.2291  134.8699  157.3458 LP  0  0  0  0  0  0  0  0  0  0  0  0  # atno 17394 bound_to 11000
  140.1909  134.4373  155.7716 LP  0  0  0  0  0  0  0  0  0  0  0  0  # atno 17395 bound_to 11000

$$$$
