AV-unprocessed.smi:651|AV-procd|sdf|3189|dock10
  -GOLD-   22720 0113D 1   1.00000     0.00000
 Structure written by MMmdl.
 39 40  0  0  0  0  0  0  0  0  2 V2000
  143.8463  132.5316  149.9330 C   0  0  0  0  0  0  0  0  0  0  0  0
  144.2199  133.7534  150.7450 C   0  0  0  0  0  0  0  0  0  0  0  0
  143.6337  134.0344  151.9978 C   0  0  0  0  0  0  0  0  0  0  0  0
  144.0303  135.1918  152.6996 C   0  0  0  0  0  0  0  0  0  0  0  0
  145.0059  136.0442  152.1362 C   0  0  0  0  0  0  0  0  0  0  0  0
  145.4613  137.2936  152.8722 C   0  0  0  0  0  0  0  0  0  0  0  0
  146.1935  136.9362  154.1682 C   0  0  0  0  0  0  0  0  0  0  0  0
  145.5531  136.7359  155.1994 O   0  0  0  0  0  0  0  0  0  0  0  0
  147.5330  136.8745  154.1057 N   0  0  0  0  0  0  0  0  0  0  0  0
  148.4248  136.5735  155.2267 C   0  0  1  0  0  0  0  0  0  0  0  0
  149.3243  135.3640  154.9024 C   0  0  0  0  0  0  0  0  0  0  0  0
  150.7561  135.7582  155.2803 C   0  0  0  0  0  0  0  0  0  0  0  0
  150.6201  137.0090  156.1504 C   0  0  0  0  0  0  0  0  0  0  0  0
  149.3701  137.7379  155.6342 C   0  0  1  0  0  0  0  0  0  0  0  0
  149.7386  138.7184  154.4990 C   0  0  0  0  0  0  0  0  0  0  0  0
  149.3274  138.4012  153.2688 N   0  0  0  0  0  0  0  0  0  0  0  0
  150.3886  139.7384  154.7237 O   0  0  0  0  0  0  0  0  0  0  0  0
  145.5534  135.7141  150.8772 C   0  0  0  0  0  0  0  0  0  0  0  0
  145.1470  134.5960  150.2371 N   0  3  0  0  0  0  0  0  0  0  0  0
  143.2681  131.8260  150.5304 H   0  0  0  0  0  0  0  0  0  0  0  0
  144.7407  132.0199  149.5763 H   0  0  0  0  0  0  0  0  0  0  0  0
  143.2464  132.8206  149.0695 H   0  0  0  0  0  0  0  0  0  0  0  0
  142.8906  133.3729  152.4192 H   0  0  0  0  0  0  0  0  0  0  0  0
  143.5936  135.4188  153.6615 H   0  0  0  0  0  0  0  0  0  0  0  0
  146.1224  137.8853  152.2379 H   0  0  0  0  0  0  0  0  0  0  0  0
  144.5950  137.9182  153.0955 H   0  0  0  0  0  0  0  0  0  0  0  0
  147.9749  137.0690  153.2190 H   0  0  0  0  0  0  0  0  0  0  0  0
  147.8234  136.3079  156.0987 H   0  0  0  0  0  0  0  0  0  0  0  0
  149.0019  134.4958  155.4783 H   0  0  0  0  0  0  0  0  0  0  0  0
  149.2792  135.0817  153.8495 H   0  0  0  0  0  0  0  0  0  0  0  0
  151.2857  134.9549  155.7933 H   0  0  0  0  0  0  0  0  0  0  0  0
  151.3219  135.9954  154.3786 H   0  0  0  0  0  0  0  0  0  0  0  0
  150.4626  136.7164  157.1893 H   0  0  0  0  0  0  0  0  0  0  0  0
  151.5217  137.6231  156.1248 H   0  0  0  0  0  0  0  0  0  0  0  0
  148.9154  138.3114  156.4439 H   0  0  0  0  0  0  0  0  0  0  0  0
  149.5475  139.0064  152.4907 H   0  0  0  0  0  0  0  0  0  0  0  0
  148.8013  137.5523  153.1195 H   0  0  0  0  0  0  0  0  0  0  0  0
  146.3024  136.3029  150.3677 H   0  0  0  0  0  0  0  0  0  0  0  0
  145.5587  134.3774  149.3294 H   0  0  0  0  0  0  0  0  0  0  0  0
  1  2  1  0  0  0  0
  1 20  1  0  0  0  0
  1 21  1  0  0  0  0
  1 22  1  0  0  0  0
  2 19  1  0  0  0  0
  2  3  2  0  0  0  0
  3  4  1  0  0  0  0
  3 23  1  0  0  0  0
  4  5  2  0  0  0  0
  4 24  1  0  0  0  0
  5  6  1  0  0  0  0
  5 18  1  0  0  0  0
  6  7  1  0  0  0  0
  6 25  1  0  0  0  0
  6 26  1  0  0  0  0
  7  8  2  0  0  0  0
  7  9  1  0  0  0  0
  9 10  1  0  0  0  0
  9 27  1  0  0  0  0
 10 14  1  0  0  0  0
 10 11  1  0  0  0  0
 10 28  1  0  0  0  0
 11 12  1  0  0  0  0
 11 29  1  0  0  0  0
 11 30  1  0  0  0  0
 12 13  1  0  0  0  0
 12 31  1  0  0  0  0
 12 32  1  0  0  0  0
 13 14  1  0  0  0  0
 13 33  1  0  0  0  0
 13 34  1  0  0  0  0
 14 15  1  0  0  0  0
 14 35  1  0  0  0  0
 15 16  1  0  0  0  0
 15 17  2  0  0  0  0
 16 36  1  0  0  0  0
 16 37  1  0  0  0  0
 18 19  2  0  0  0  0
 18 38  1  0  0  0  0
 19 39  1  0  0  0  0
M  CHG  1  19   1
M  END
> <s_m_source_file>
AV-unprocessed.smi

> <i_m_source_file_index>
651

> <i_lp_mmshare_version>
43012

> <i_f3d_flags>
0

> <s_epik_input>
W0NIM11jMVtjSF1bY0hdYyhbY0hdbjEpW0NIMl1DKD1PKVtOSF1bQ0BASF0yW0NIMl1bQ0gyXVtDSDJdW0NASF0yQyg9TylbTkgyXQ==

> <s_epik_cmdline>
J2VwaWtfcHl0aG9uJywgJy1waCcsICc3LjAnLCAnLXRuJywgJzgnLCAnLW1hJywgJzIwMCcsICctbWV0YWxfYmluZGluZycsICctaW1hZScsICc8aW5maWxlLm1hZT4nLCAnLW9tYWUnLCAnPG91dGZpbGUubWFlPic=

> <r_epik_Ionization_Penalty>
2.14971

> <r_epik_Ionization_Penalty_Charging>
2.14971

> <r_epik_Ionization_Penalty_Neutral>
1.65229e-07

> <r_epik_State_Penalty>
2.28946

> <r_epik_Charging_Adjusted_Penalty>
4.43917

> <i_epik_Tot_Q>
1

> <i_epik_Tot_abs_Q>
1

> <r_epik_Metal_State_Penalty>
2.30508

> <b_epik_Metal_Only>
0

> <s_lp_Force_Field>
OPLS_2005

> <r_lp_Energy>
19.7283

> <b_lp_Chiralities_Consistent>
1

> <s_lp_Variant>
AV-unprocessed.smi:651-6

> <Gold.Version>
5.8.1

> <Gold.Id.Protein>
6NUR|6NUR_protein|mol2

> <Gold.PLP.Fitness>
41.9294

> <Gold.PLP.PLP>
-29.5650

> <Gold.PLP.part.hbond>
-5.0000

> <Gold.PLP.part.metal>
0.0000

> <Gold.PLP.part.buried>
-5.6938

> <Gold.PLP.part.nonpolar>
-19.9876

> <Gold.PLP.part.repulsive>
0.2577

> <Gold.PLP.ligand.clash>
0.0000

> <Gold.PLP.ligand.torsion>
0.5260

> <Gold.PLP.Chemscore.Hbond>
4.4640

> <Gold.PLP.Chemscore.CHOScore>
0.0000

> <Gold.PLP.Chemscore.Metal>
0.0000

> <Gold.Chemscore.Hbonds>
donor molecule, donor type, donor heavy atom, donor atom, acceptor molecule, acceptor atom, score
      L1  H     9    27       P1  7948  0.83
      L1  H    16    36       P1  7957  1.00
      L1  H    16    37       P1  7948  0.61
      L1  H    19    39       P1  7921  1.00
      P1  H  7989  7998       L1    17  0.88

> <Gold.PLP.Chemscore.Internal.Correction>
0.0245

> <Gold.Rescore>
     Score         DG    S(hbond)    S(metal)    S(lipo)     H(rot)  DE(clash)    DE(int)     intcor
     19.10     -21.50       4.18        0.00      62.28       2.04       0.17       2.23       ----

> <Gold.Chemscore.Fitness>
19.1003

> <Gold.Chemscore.DG>
-21.5018

> <Gold.Chemscore.ZeroCoef>
-5.4800

> <Gold.Chemscore.Hbond>
4.1779

> <Gold.Chemscore.Metal>
0.0000

> <Gold.Chemscore.Lipo>
62.2774

> <Gold.Chemscore.Internal_Hbond>
0.0000

> <Gold.Chemscore.DEClash>
0.1731

> <Gold.Chemscore.DEInternal>
2.2284

> <Gold.Chemscore.Rot>
2.0386

> <Gold.Chemscore.Internal.Correction>
   9.000000E+99

> <Gold.Chemscore.Hbonds>
donor molecule, donor type, donor heavy atom, donor atom, acceptor molecule, acceptor atom, score
      L1  H     9    27       P1  7948  0.83
      L1  H    16    36       P1  7957  0.88
      L1  H    16    37       P1  7948  0.60
      L1  H    19    39       P1  7921  0.88
      P1  H  7989  7998       L1    17  0.86

> <Gold.Chemscore.Hbond.Weighted>
-13.9541

> <Gold.Chemscore.Metal.Weighted>
-0.0000

> <Gold.Chemscore.Lipo.Weighted>
-7.2865

> <Gold.Chemscore.Internal_Hbond.Weighted>
0.0000

> <Gold.Chemscore.DEClash.Weighted>
0.1731

> <Gold.Chemscore.DEInternal.Weighted>
2.2284

> <Gold.Chemscore.Rot.Weighted>
5.2188

> <Gold.Chemscore.Internal.Correction.Weighted>
   9.000000E+99

> <Gold.Protein.RotatedTorsions>
[ 6907 6896 6895 6894 ] final -147.46 input  -60.11 | X-H torsion
[ 7974 7965 7964 7962 ] final  -69.13 input  175.53 | X-H torsion
[ 8008 7997 7996 7995 ] final   18.31 input   59.86 | X-H torsion
[ 10167 10162 10161 10158 ] final  -95.18 input  -65.29 | X-H torsion
[ 10718 10713 10712 10709 ] final   16.96 input   66.30 | X-H torsion
[ 10763 10752 10751 10750 ] final -142.68 input  -60.55 | X-H torsion
[ 11005 11000 10999 10996 ] final -110.59 input  -57.11 | X-H torsion

> <Gold.Protein.ActiveResidues>
 VAL166  LYS551  ARG553  GLY616  TRP617  ASP618  TYR619  PRO620  LYS621  CYS622 
 ASP623  PHE694  ASN695  SER759  ASP760  ASP761  ALA762  ILE779  LEU786  VAL792 
 PHE793  MET794  SER795  GLU796  ALA797  LYS798  CYS799  TRP800  GLU811  SER814 

> <Gold.Protein.RotatedAtoms>
  151.1560  133.4876  159.2594 H   0  0  0  0  0  0  0  0  0  0  0  0  # atno 6907 bound_to 6896
  151.1504  135.0224  159.8676 H   0  0  0  0  0  0  0  0  0  0  0  0  # atno 6908 bound_to 6896
  152.5463  134.1444  159.8545 H   0  0  0  0  0  0  0  0  0  0  0  0  # atno 6909 bound_to 6896
  145.7077  140.9091  143.0697 H   0  0  0  0  0  0  0  0  0  0  0  0  # atno 7974 bound_to 7965
  154.9041  140.3005  155.5301 H   0  0  0  0  0  0  0  0  0  0  0  0  # atno 8008 bound_to 7997
  156.3017  140.2401  156.4008 H   0  0  0  0  0  0  0  0  0  0  0  0  # atno 8009 bound_to 7997
  154.8491  140.0410  157.1581 H   0  0  0  0  0  0  0  0  0  0  0  0  # atno 8010 bound_to 7997
  140.3068  143.3129  152.0191 H   0  0  0  0  0  0  0  0  0  0  0  0  # atno 10167 bound_to 10162
  157.0753  130.6365  149.5814 H   0  0  0  0  0  0  0  0  0  0  0  0  # atno 10718 bound_to 10713
  154.8499  135.3489  154.6067 H   0  0  0  0  0  0  0  0  0  0  0  0  # atno 10763 bound_to 10752
  153.6676  135.6986  153.5162 H   0  0  0  0  0  0  0  0  0  0  0  0  # atno 10764 bound_to 10752
  153.2768  135.4276  155.0998 H   0  0  0  0  0  0  0  0  0  0  0  0  # atno 10765 bound_to 10752
  141.0783  133.9263  157.2343 H   0  0  0  0  0  0  0  0  0  0  0  0  # atno 11005 bound_to 11000
  144.6950  139.9033  143.7459 LP  0  0  0  0  0  0  0  0  0  0  0  0  # atno 17320 bound_to 7965
  146.0740  139.3729  143.0505 LP  0  0  0  0  0  0  0  0  0  0  0  0  # atno 17321 bound_to 7965
  139.4902  144.6415  151.6867 LP  0  0  0  0  0  0  0  0  0  0  0  0  # atno 17342 bound_to 10162
  140.5603  144.0279  150.6167 LP  0  0  0  0  0  0  0  0  0  0  0  0  # atno 17343 bound_to 10162
  155.9939  130.5001  150.7398 LP  0  0  0  0  0  0  0  0  0  0  0  0  # atno 17370 bound_to 10713
  157.4845  131.0905  151.0498 LP  0  0  0  0  0  0  0  0  0  0  0  0  # atno 17371 bound_to 10713
  139.9596  135.0157  156.9224 LP  0  0  0  0  0  0  0  0  0  0  0  0  # atno 17394 bound_to 11000
  140.5524  134.0614  155.7373 LP  0  0  0  0  0  0  0  0  0  0  0  0  # atno 17395 bound_to 11000

$$$$
