AV-unprocessed.smi:47|AV-procd|sdf|423|dock7
  -GOLD-   2262016303D 1   1.00000     0.00000
 Structure written by MMmdl.
 32 34  0  0  0  0  0  0  0  0  2 V2000
  145.1283  140.3134  154.8094 O   0  0  0  0  0  0  0  0  0  0  0  0
  146.5387  140.2742  154.7653 C   0  0  1  0  0  0  0  0  0  0  0  0
  147.0598  139.7105  153.4449 C   0  0  0  0  0  0  0  0  0  0  0  0
  148.4197  140.2605  153.3005 N   0  3  0  0  0  0  0  0  0  0  0  0
  148.5247  141.4867  154.1229 C   0  0  2  0  0  0  0  0  0  0  0  0
  149.6407  141.3733  155.1163 C   0  0  0  0  0  0  0  0  0  0  0  0
  150.5603  140.4209  155.0034 N   0  0  0  0  0  0  0  0  0  0  0  0
  151.3796  140.7024  156.0375 N   0  0  0  0  0  0  0  0  0  0  0  0
  150.9436  141.7837  156.6962 C   0  0  0  0  0  0  0  0  0  0  0  0
  151.5994  142.3699  157.8672 C   0  0  0  0  0  0  0  0  0  0  0  0
  151.5516  143.7655  158.0915 C   0  0  0  0  0  0  0  0  0  0  0  0
  152.1818  144.3302  159.2175 C   0  0  0  0  0  0  0  0  0  0  0  0
  152.8658  143.5061  160.1306 C   0  0  0  0  0  0  0  0  0  0  0  0
  152.9194  142.1163  159.9166 C   0  0  0  0  0  0  0  0  0  0  0  0
  152.2894  141.5505  158.7910 C   0  0  0  0  0  0  0  0  0  0  0  0
  149.8293  142.2603  156.1398 N   0  0  0  0  0  0  0  0  0  0  0  0
  147.1561  141.6699  154.7987 C   0  0  0  0  0  0  0  0  0  0  0  0
  146.9162  139.6802  155.5990 H   0  0  0  0  0  0  0  0  0  0  0  0
  148.7267  142.3322  153.4635 H   0  0  0  0  0  0  0  0  0  0  0  0
  152.2026  140.1557  156.2481 H   0  0  0  0  0  0  0  0  0  0  0  0
  144.7996  140.4192  153.9293 H   0  0  0  0  0  0  0  0  0  0  0  0
  147.0582  138.6206  153.4178 H   0  0  0  0  0  0  0  0  0  0  0  0
  146.4576  140.0722  152.6100 H   0  0  0  0  0  0  0  0  0  0  0  0
  149.0810  139.5892  153.6655 H   0  0  0  0  0  0  0  0  0  0  0  0
  151.0329  144.4175  157.4042 H   0  0  0  0  0  0  0  0  0  0  0  0
  152.1407  145.3971  159.3804 H   0  0  0  0  0  0  0  0  0  0  0  0
  153.3491  143.9396  160.9939 H   0  0  0  0  0  0  0  0  0  0  0  0
  153.4448  141.4829  160.6162 H   0  0  0  0  0  0  0  0  0  0  0  0
  152.3435  140.4815  158.6465 H   0  0  0  0  0  0  0  0  0  0  0  0
  146.5516  142.3448  154.1903 H   0  0  0  0  0  0  0  0  0  0  0  0
  147.2134  142.0979  155.8007 H   0  0  0  0  0  0  0  0  0  0  0  0
  148.6294  140.4520  152.3314 H   0  0  0  0  0  0  0  0  0  0  0  0
  1  2  1  0  0  0  0
  1 21  1  0  0  0  0
  2 18  1  0  0  0  0
  2 17  1  0  0  0  0
  2  3  1  0  0  0  0
  3  4  1  0  0  0  0
  3 22  1  0  0  0  0
  3 23  1  0  0  0  0
  4  5  1  0  0  0  0
  4 24  1  0  0  0  0
  4 32  1  0  0  0  0
  5 19  1  0  0  0  0
  5  6  1  0  0  0  0
  5 17  1  0  0  0  0
  6 16  1  0  0  0  0
  6  7  2  0  0  0  0
  7  8  1  0  0  0  0
  8 20  1  0  0  0  0
  8  9  1  0  0  0  0
  9 10  1  0  0  0  0
  9 16  2  0  0  0  0
 10 15  1  0  0  0  0
 10 11  2  0  0  0  0
 11 12  1  0  0  0  0
 11 25  1  0  0  0  0
 12 13  2  0  0  0  0
 12 26  1  0  0  0  0
 13 14  1  0  0  0  0
 13 27  1  0  0  0  0
 14 15  2  0  0  0  0
 14 28  1  0  0  0  0
 15 29  1  0  0  0  0
 17 30  1  0  0  0  0
 17 31  1  0  0  0  0
M  CHG  1   4   1
M  END
> <s_m_source_file>
AV-unprocessed.smi

> <i_m_source_file_index>
47

> <i_lp_mmshare_version>
43012

> <i_f3d_flags>
0

> <s_epik_input>
W09IXVtDQEhdMVtDSDJdW05IXVtDQEBIXShbQ0gyXTEpYzJuW25IXWMobjIpLWMzW2NIXVtjSF1bY0hdW2NIXVtjSF0z

> <s_epik_cmdline>
J2VwaWtfcHl0aG9uJywgJy1waCcsICc3LjAnLCAnLXRuJywgJzgnLCAnLW1hJywgJzIwMCcsICctbWV0YWxfYmluZGluZycsICctaW1hZScsICc8aW5maWxlLm1hZT4nLCAnLW9tYWUnLCAnPG91dGZpbGUubWFlPic=

> <r_lp_tautomer_probability>
0.948284

> <r_epik_Ionization_Penalty>
0.163822

> <r_epik_Ionization_Penalty_Charging>
0.0371552

> <r_epik_Ionization_Penalty_Neutral>
0.126667

> <r_epik_State_Penalty>
0.318338

> <r_epik_Charging_Adjusted_Penalty>
0.355493

> <i_epik_Tot_Q>
1

> <i_epik_Tot_abs_Q>
1

> <r_epik_Metal_State_Penalty>
0.81572

> <b_epik_Metal_Only>
0

> <s_lp_Force_Field>
OPLS_2005

> <r_lp_Energy>
24.5404

> <b_lp_Chiralities_Consistent>
1

> <s_lp_Variant>
AV-unprocessed.smi:47-1

> <Gold.Version>
5.8.1

> <Gold.Id.Protein>
6NUR|6NUR_protein|mol2

> <Gold.PLP.Fitness>
43.9156

> <Gold.PLP.PLP>
-36.3204

> <Gold.PLP.part.hbond>
-2.7331

> <Gold.PLP.part.metal>
0.0000

> <Gold.PLP.part.buried>
-6.0593

> <Gold.PLP.part.nonpolar>
-31.1058

> <Gold.PLP.part.repulsive>
3.1564

> <Gold.PLP.ligand.clash>
0.0000

> <Gold.PLP.ligand.torsion>
0.6968

> <Gold.PLP.Chemscore.Hbond>
2.9913

> <Gold.PLP.Chemscore.CHOScore>
0.0000

> <Gold.PLP.Chemscore.Metal>
0.0000

> <Gold.Chemscore.Hbonds>
donor molecule, donor type, donor heavy atom, donor atom, acceptor molecule, acceptor atom, score
      L1  H     1    21       P1 10175  1.00
      L1  H     4    32       P1  7957  0.86
      P1  H  7989  7998       L1     7  1.00

> <Gold.PLP.Chemscore.Internal.Correction>
0.0150

> <Gold.Rescore>
     Score         DG    S(hbond)    S(metal)    S(lipo)     H(rot)  DE(clash)    DE(int)     intcor
     17.86     -20.03       2.35        0.00      89.97       1.50       1.64       0.53       ----

> <Gold.Chemscore.Fitness>
17.8583

> <Gold.Chemscore.DG>
-20.0254

> <Gold.Chemscore.ZeroCoef>
-5.4800

> <Gold.Chemscore.Hbond>
2.3502

> <Gold.Chemscore.Metal>
0.0000

> <Gold.Chemscore.Lipo>
89.9729

> <Gold.Chemscore.Internal_Hbond>
0.0000

> <Gold.Chemscore.DEClash>
1.6401

> <Gold.Chemscore.DEInternal>
0.5269

> <Gold.Chemscore.Rot>
1.4966

> <Gold.Chemscore.Internal.Correction>
   9.000000E+99

> <Gold.Chemscore.Hbonds>
donor molecule, donor type, donor heavy atom, donor atom, acceptor molecule, acceptor atom, score
      L1  H     1    21       P1 10175  1.00
      L1  H     4    32       P1  7957  0.82
      P1  H  7989  7998       L1     7  0.19

> <Gold.Chemscore.Hbond.Weighted>
-7.8498

> <Gold.Chemscore.Metal.Weighted>
-0.0000

> <Gold.Chemscore.Lipo.Weighted>
-10.5268

> <Gold.Chemscore.Internal_Hbond.Weighted>
0.0000

> <Gold.Chemscore.DEClash.Weighted>
1.6401

> <Gold.Chemscore.DEInternal.Weighted>
0.5269

> <Gold.Chemscore.Rot.Weighted>
3.8312

> <Gold.Chemscore.Internal.Correction.Weighted>
   9.000000E+99

> <Gold.Protein.RotatedTorsions>
[ 6907 6896 6895 6894 ] final  -72.63 input  -60.11 | X-H torsion
[ 7974 7965 7964 7962 ] final   45.51 input  175.53 | X-H torsion
[ 8008 7997 7996 7995 ] final   46.14 input   59.86 | X-H torsion
[ 10167 10162 10161 10158 ] final -120.18 input  -65.29 | X-H torsion
[ 10718 10713 10712 10709 ] final -153.17 input   66.30 | X-H torsion
[ 10763 10752 10751 10750 ] final    2.86 input  -60.55 | X-H torsion
[ 11005 11000 10999 10996 ] final   13.66 input  -57.11 | X-H torsion

> <Gold.Protein.ActiveResidues>
 VAL166  LYS551  ARG553  GLY616  TRP617  ASP618  TYR619  PRO620  LYS621  CYS622 
 ASP623  PHE694  ASN695  SER759  ASP760  ASP761  ALA762  ILE779  LEU786  VAL792 
 PHE793  MET794  SER795  GLU796  ALA797  LYS798  CYS799  TRP800  GLU811  SER814 

> <Gold.Protein.RotatedAtoms>
  150.7162  134.5135  159.5618 H   0  0  0  0  0  0  0  0  0  0  0  0  # atno 6907 bound_to 6896
  152.2706  134.7934  160.0424 H   0  0  0  0  0  0  0  0  0  0  0  0  # atno 6908 bound_to 6896
  151.8615  133.3423  159.3742 H   0  0  0  0  0  0  0  0  0  0  0  0  # atno 6909 bound_to 6896
  146.0474  139.4957  142.9740 H   0  0  0  0  0  0  0  0  0  0  0  0  # atno 7974 bound_to 7965
  155.3475  140.3411  155.4239 H   0  0  0  0  0  0  0  0  0  0  0  0  # atno 8008 bound_to 7997
  156.1781  140.1654  156.8360 H   0  0  0  0  0  0  0  0  0  0  0  0  # atno 8009 bound_to 7997
  154.5304  140.0746  156.8317 H   0  0  0  0  0  0  0  0  0  0  0  0  # atno 8010 bound_to 7997
  140.0386  143.5176  152.2141 H   0  0  0  0  0  0  0  0  0  0  0  0  # atno 10167 bound_to 10162
  156.4823  130.8309  151.2535 H   0  0  0  0  0  0  0  0  0  0  0  0  # atno 10718 bound_to 10713
  153.2904  135.6948  153.7298 H   0  0  0  0  0  0  0  0  0  0  0  0  # atno 10763 bound_to 10752
  153.6251  135.3420  155.3024 H   0  0  0  0  0  0  0  0  0  0  0  0  # atno 10764 bound_to 10752
  154.8522  135.4395  154.1985 H   0  0  0  0  0  0  0  0  0  0  0  0  # atno 10765 bound_to 10752
  140.4782  134.0962  155.7745 H   0  0  0  0  0  0  0  0  0  0  0  0  # atno 11005 bound_to 11000
  145.6783  141.0198  143.1620 LP  0  0  0  0  0  0  0  0  0  0  0  0  # atno 17320 bound_to 7965
  144.7105  139.8391  143.7416 LP  0  0  0  0  0  0  0  0  0  0  0  0  # atno 17321 bound_to 7965
  139.6029  144.7588  151.3130 LP  0  0  0  0  0  0  0  0  0  0  0  0  # atno 17342 bound_to 10162
  140.7270  143.6974  150.7872 LP  0  0  0  0  0  0  0  0  0  0  0  0  # atno 17343 bound_to 10162
  157.7482  131.0041  150.3062 LP  0  0  0  0  0  0  0  0  0  0  0  0  # atno 17370 bound_to 10713
  156.3509  130.3831  149.7329 LP  0  0  0  0  0  0  0  0  0  0  0  0  # atno 17371 bound_to 10713
  141.1544  133.8910  157.2015 LP  0  0  0  0  0  0  0  0  0  0  0  0  # atno 17394 bound_to 11000
  139.9843  135.0087  156.9824 LP  0  0  0  0  0  0  0  0  0  0  0  0  # atno 17395 bound_to 11000

$$$$
