AV-unprocessed.smi:2027|AV-procd|sdf|8220|dock7
  -GOLD-   2272010493D 1   1.00000     0.00000
 Structure written by MMmdl.
 51 53  0  0  0  0  0  0  0  0  3 V2000
  153.0035  143.1665  160.4924 C   0  0  0  0  0  0  0  0  0  0  0  0
  152.3936  142.3561  159.3616 C   0  0  0  0  0  0  0  0  0  0  0  0
  151.4884  142.9957  158.4847 C   0  0  0  0  0  0  0  0  0  0  0  0
  150.9400  142.2256  157.4658 C   0  0  0  0  0  0  0  0  0  0  0  0
  150.0281  142.5550  156.4606 N   0  3  0  0  0  0  0  0  0  0  0  0
  149.7775  141.4563  155.6959 C   0  0  0  0  0  0  0  0  0  0  0  0
  150.5139  140.4285  156.1992 N   0  0  0  0  0  0  0  0  0  0  0  0
  150.6034  139.0322  155.7478 C   0  0  0  0  0  0  0  0  0  0  0  0
  149.6376  138.6981  154.5898 C   0  0  1  0  0  0  0  0  0  0  0  0
  150.3939  138.0230  153.6046 O   0  0  0  0  0  0  0  0  0  0  0  0
  148.4455  137.8120  155.0193 C   0  0  0  0  0  0  0  0  0  0  0  0
  147.5178  137.4493  153.9120 N   0  3  2  0  0  0  0  0  0  0  0  0
  146.9196  138.6300  153.2442 C   0  0  0  0  0  0  0  0  0  0  0  0
  146.4726  136.4771  154.3285 C   0  0  0  0  0  0  0  0  0  0  0  0
  146.0146  135.6098  153.1848 C   0  0  0  0  0  0  0  0  0  0  0  0
  145.4125  136.0233  151.9610 C   0  0  0  0  0  0  0  0  0  0  0  0
  145.1082  135.0093  151.1691 N   0  0  0  0  0  0  0  0  0  0  0  0
  145.5157  133.9179  151.8489 N   0  0  0  0  0  0  0  0  0  0  0  0
  145.3365  132.6057  151.2654 C   0  0  0  0  0  0  0  0  0  0  0  0
  146.0709  134.2496  153.0659 C   0  0  0  0  0  0  0  0  0  0  0  0
  151.2660  140.8656  157.2977 C   0  0  0  0  0  0  0  0  0  0  0  0
  152.1669  140.2242  158.1461 C   0  0  0  0  0  0  0  0  0  0  0  0
  152.7293  140.9878  159.1932 C   0  0  0  0  0  0  0  0  0  0  0  0
  153.7033  140.3085  160.1411 C   0  0  0  0  0  0  0  0  0  0  0  0
  152.6150  144.1852  160.5082 H   0  0  0  0  0  0  0  0  0  0  0  0
  154.0865  143.2233  160.3812 H   0  0  0  0  0  0  0  0  0  0  0  0
  152.7773  142.7105  161.4565 H   0  0  0  0  0  0  0  0  0  0  0  0
  151.2305  144.0379  158.6056 H   0  0  0  0  0  0  0  0  0  0  0  0
  149.1128  141.4090  154.8451 H   0  0  0  0  0  0  0  0  0  0  0  0
  151.6339  138.8625  155.4325 H   0  0  0  0  0  0  0  0  0  0  0  0
  150.4387  138.3736  156.6013 H   0  0  0  0  0  0  0  0  0  0  0  0
  149.2803  139.6362  154.1661 H   0  0  0  0  0  0  0  0  0  0  0  0
  149.8277  137.4319  153.1325 H   0  0  0  0  0  0  0  0  0  0  0  0
  148.8592  136.9073  155.4613 H   0  0  0  0  0  0  0  0  0  0  0  0
  147.8678  138.3017  155.8042 H   0  0  0  0  0  0  0  0  0  0  0  0
  146.3452  139.2301  153.9510 H   0  0  0  0  0  0  0  0  0  0  0  0
  146.2511  138.3227  152.4391 H   0  0  0  0  0  0  0  0  0  0  0  0
  147.6813  139.2645  152.7932 H   0  0  0  0  0  0  0  0  0  0  0  0
  146.8572  135.8724  155.1514 H   0  0  0  0  0  0  0  0  0  0  0  0
  145.6196  137.0228  154.7337 H   0  0  0  0  0  0  0  0  0  0  0  0
  145.1770  137.0251  151.6327 H   0  0  0  0  0  0  0  0  0  0  0  0
  145.6908  131.8384  151.9545 H   0  0  0  0  0  0  0  0  0  0  0  0
  145.9010  132.5346  150.3352 H   0  0  0  0  0  0  0  0  0  0  0  0
  144.2797  132.4342  151.0583 H   0  0  0  0  0  0  0  0  0  0  0  0
  146.4496  133.4973  153.7424 H   0  0  0  0  0  0  0  0  0  0  0  0
  152.4276  139.1837  158.0222 H   0  0  0  0  0  0  0  0  0  0  0  0
  153.8726  139.2678  159.8624 H   0  0  0  0  0  0  0  0  0  0  0  0
  153.3166  140.3199  161.1603 H   0  0  0  0  0  0  0  0  0  0  0  0
  154.6674  140.8171  160.1300 H   0  0  0  0  0  0  0  0  0  0  0  0
  148.0731  136.9753  153.2140 H   0  0  0  0  0  0  0  0  0  0  0  0
  149.6076  143.4626  156.3044 H   0  0  0  0  0  0  0  0  0  0  0  0
  1  2  1  0  0  0  0
  1 25  1  0  0  0  0
  1 26  1  0  0  0  0
  1 27  1  0  0  0  0
  2 23  1  0  0  0  0
  2  3  2  0  0  0  0
  3  4  1  0  0  0  0
  3 28  1  0  0  0  0
  4 21  2  0  0  0  0
  4  5  1  0  0  0  0
  5  6  2  0  0  0  0
  5 51  1  0  0  0  0
  6  7  1  0  0  0  0
  6 29  1  0  0  0  0
  7  8  1  0  0  0  0
  7 21  1  0  0  0  0
  8  9  1  0  0  0  0
  8 30  1  0  0  0  0
  8 31  1  0  0  0  0
  9 10  1  0  0  0  0
  9 11  1  0  0  0  0
  9 32  1  0  0  0  0
 10 33  1  0  0  0  0
 11 12  1  0  0  0  0
 11 34  1  0  0  0  0
 11 35  1  0  0  0  0
 12 13  1  0  0  0  0
 12 14  1  0  0  0  0
 12 50  1  0  0  0  0
 13 36  1  0  0  0  0
 13 37  1  0  0  0  0
 13 38  1  0  0  0  0
 14 15  1  0  0  0  0
 14 39  1  0  0  0  0
 14 40  1  0  0  0  0
 15 20  2  0  0  0  0
 15 16  1  0  0  0  0
 16 17  2  0  0  0  0
 16 41  1  0  0  0  0
 17 18  1  0  0  0  0
 18 19  1  0  0  0  0
 18 20  1  0  0  0  0
 19 42  1  0  0  0  0
 19 43  1  0  0  0  0
 19 44  1  0  0  0  0
 20 45  1  0  0  0  0
 21 22  1  0  0  0  0
 22 23  2  0  0  0  0
 22 46  1  0  0  0  0
 23 24  1  0  0  0  0
 24 47  1  0  0  0  0
 24 48  1  0  0  0  0
 24 49  1  0  0  0  0
M  CHG  1   5   1
M  CHG  1  12   1
M  END
> <s_m_source_file>
AV-unprocessed.smi

> <i_m_source_file_index>
2027

> <i_lp_mmshare_version>
43012

> <i_f3d_flags>
0

> <s_epik_input>
W0NIM11jKFtjSF0xKWMoW0NIM10pW2NIXWMoYzEyKW4oW2NIXW4yKVtDSDJdW0NASF0oW09IXSlbQ0gyXU4oW0NIM10pW0NIMl1jM1tjSF1ubihbQ0gzXSlbY0hdMw==

> <s_epik_cmdline>
J2VwaWtfcHl0aG9uJywgJy1waCcsICc3LjAnLCAnLXRuJywgJzgnLCAnLW1hJywgJzIwMCcsICctbWV0YWxfYmluZGluZycsICctaW1hZScsICc8aW5maWxlLm1hZT4nLCAnLW9tYWUnLCAnPG91dGZpbGUubWFlPic=

> <r_lp_tautomer_probability>
1

> <r_epik_Ionization_Penalty>
1.77469

> <r_epik_Ionization_Penalty_Charging>
1.77463

> <r_epik_Ionization_Penalty_Neutral>
6.41153e-05

> <r_epik_State_Penalty>
1.85225

> <r_epik_Charging_Adjusted_Penalty>
3.62688

> <i_epik_Tot_Q>
2

> <i_epik_Tot_abs_Q>
2

> <r_epik_Metal_State_Penalty>
1.92669

> <b_epik_Metal_Only>
0

> <s_lp_Force_Field>
OPLS_2005

> <r_lp_Energy>
22.5678

> <b_lp_Chiralities_Consistent>
1

> <s_lp_Variant>
AV-unprocessed.smi:2027-12

> <Gold.Version>
5.8.1

> <Gold.Id.Protein>
6NUR|6NUR_protein|mol2

> <Gold.PLP.Fitness>
61.1470

> <Gold.PLP.PLP>
-44.9559

> <Gold.PLP.part.hbond>
-4.6252

> <Gold.PLP.part.metal>
0.0000

> <Gold.PLP.part.buried>
-5.1724

> <Gold.PLP.part.nonpolar>
-36.0786

> <Gold.PLP.part.repulsive>
0.3617

> <Gold.PLP.ligand.clash>
0.0000

> <Gold.PLP.ligand.torsion>
0.9789

> <Gold.PLP.Chemscore.Hbond>
5.0000

> <Gold.PLP.Chemscore.CHOScore>
1.0000

> <Gold.PLP.Chemscore.Metal>
0.0000

> <Gold.Chemscore.Hbonds>
donor molecule, donor type, donor heavy atom, donor atom, acceptor molecule, acceptor atom, score
      L1  H     5    51       P1  8028  2.00
      L1  H    10    33       P1  7948  1.00
      L1  H    12    50       P1  7948  2.00
      L1  C    16    41       P1 10171  0.50

> <Gold.PLP.Chemscore.Internal.Correction>
0.1488

> <Gold.Rescore>
     Score         DG    S(hbond)    S(metal)    S(lipo)     H(rot)  DE(clash)    DE(int)     intcor
     19.43     -20.59       2.74        0.00     107.43       2.58       0.30       0.85       ----

> <Gold.Chemscore.Fitness>
19.4340

> <Gold.Chemscore.DG>
-20.5878

> <Gold.Chemscore.ZeroCoef>
-5.4800

> <Gold.Chemscore.Hbond>
2.7403

> <Gold.Chemscore.Metal>
0.0000

> <Gold.Chemscore.Lipo>
107.4278

> <Gold.Chemscore.Internal_Hbond>
0.0000

> <Gold.Chemscore.DEClash>
0.3031

> <Gold.Chemscore.DEInternal>
0.8508

> <Gold.Chemscore.Rot>
2.5836

> <Gold.Chemscore.Internal.Correction>
   9.000000E+99

> <Gold.Chemscore.Hbonds>
donor molecule, donor type, donor heavy atom, donor atom, acceptor molecule, acceptor atom, score
      L1  H     5    51       P1  8028  0.98
      L1  H    10    33       P1  7948  0.45
      L1  H    12    50       P1  7948  1.00

> <Gold.Chemscore.Hbond.Weighted>
-9.1527

> <Gold.Chemscore.Metal.Weighted>
-0.0000

> <Gold.Chemscore.Lipo.Weighted>
-12.5690

> <Gold.Chemscore.Internal_Hbond.Weighted>
0.0000

> <Gold.Chemscore.DEClash.Weighted>
0.3031

> <Gold.Chemscore.DEInternal.Weighted>
0.8508

> <Gold.Chemscore.Rot.Weighted>
6.6139

> <Gold.Chemscore.Internal.Correction.Weighted>
   9.000000E+99

> <Gold.Protein.RotatedTorsions>
[ 6907 6896 6895 6894 ] final -144.57 input  -60.11 | X-H torsion
[ 7974 7965 7964 7962 ] final   61.67 input  175.53 | X-H torsion
[ 8008 7997 7996 7995 ] final   62.32 input   59.86 | X-H torsion
[ 10167 10162 10161 10158 ] final   39.64 input  -65.29 | X-H torsion
[ 10718 10713 10712 10709 ] final -134.61 input   66.30 | X-H torsion
[ 10763 10752 10751 10750 ] final   89.20 input  -60.55 | X-H torsion
[ 11005 11000 10999 10996 ] final  -22.25 input  -57.11 | X-H torsion

> <Gold.Protein.ActiveResidues>
 VAL166  LYS551  ARG553  GLY616  TRP617  ASP618  TYR619  PRO620  LYS621  CYS622 
 ASP623  PHE694  ASN695  SER759  ASP760  ASP761  ALA762  ILE779  LEU786  VAL792 
 PHE793  MET794  SER795  GLU796  ALA797  LYS798  CYS799  TRP800  GLU811  SER814 

> <Gold.Protein.RotatedAtoms>
  151.1159  133.5139  159.2603 H   0  0  0  0  0  0  0  0  0  0  0  0  # atno 6907 bound_to 6896
  151.1915  135.0404  159.8844 H   0  0  0  0  0  0  0  0  0  0  0  0  # atno 6908 bound_to 6896
  152.5453  134.0999  159.8366 H   0  0  0  0  0  0  0  0  0  0  0  0  # atno 6909 bound_to 6896
  145.8820  139.3450  143.0700 H   0  0  0  0  0  0  0  0  0  0  0  0  # atno 7974 bound_to 7965
  155.6125  140.3495  155.4626 H   0  0  0  0  0  0  0  0  0  0  0  0  # atno 8008 bound_to 7997
  156.0143  140.1240  157.0446 H   0  0  0  0  0  0  0  0  0  0  0  0  # atno 8009 bound_to 7997
  154.4292  140.1075  156.5860 H   0  0  0  0  0  0  0  0  0  0  0  0  # atno 8010 bound_to 7997
  140.3820  144.1967  150.6130 H   0  0  0  0  0  0  0  0  0  0  0  0  # atno 10167 bound_to 10162
  156.2573  130.7188  151.1110 H   0  0  0  0  0  0  0  0  0  0  0  0  # atno 10718 bound_to 10713
  153.1847  135.4479  155.0073 H   0  0  0  0  0  0  0  0  0  0  0  0  # atno 10763 bound_to 10752
  154.8052  135.3271  154.7451 H   0  0  0  0  0  0  0  0  0  0  0  0  # atno 10764 bound_to 10752
  153.7911  135.6970  153.4926 H   0  0  0  0  0  0  0  0  0  0  0  0  # atno 10765 bound_to 10752
  140.8639  133.7768  156.0107 H   0  0  0  0  0  0  0  0  0  0  0  0  # atno 11005 bound_to 11000
  145.9011  140.9242  143.0502 LP  0  0  0  0  0  0  0  0  0  0  0  0  # atno 17320 bound_to 7965
  144.6727  140.1034  143.7459 LP  0  0  0  0  0  0  0  0  0  0  0  0  # atno 17321 bound_to 7965
  140.4928  143.2342  151.8793 LP  0  0  0  0  0  0  0  0  0  0  0  0  # atno 17342 bound_to 10162
  139.4795  144.5147  151.8885 LP  0  0  0  0  0  0  0  0  0  0  0  0  # atno 17343 bound_to 10162
  157.7237  131.0664  150.6025 LP  0  0  0  0  0  0  0  0  0  0  0  0  # atno 17370 bound_to 10713
  156.6110  130.4380  149.5859 LP  0  0  0  0  0  0  0  0  0  0  0  0  # atno 17371 bound_to 10713
  140.8651  134.2794  157.5217 LP  0  0  0  0  0  0  0  0  0  0  0  0  # atno 17394 bound_to 11000
  139.8708  134.9538  156.4157 LP  0  0  0  0  0  0  0  0  0  0  0  0  # atno 17395 bound_to 11000

$$$$
