AV-unprocessed.smi:373|AV-procd|sdf|2450|dock9
  -GOLD-   2262022393D 1   1.00000     0.00000
 Structure written by MMmdl.
 40 41  0  0  0  0  0  0  0  0  1 V2000
  154.0727  143.0457  163.9456 C   0  0  0  0  0  0  0  0  0  0  0  0
  153.7438  142.2787  162.6592 C   0  0  0  0  0  0  0  0  0  0  0  0
  152.8721  143.0840  161.6873 C   0  0  0  0  0  0  0  0  0  0  0  0
  152.5331  142.2649  160.5772 O   0  0  0  0  0  0  0  0  0  0  0  0
  151.7183  142.8996  159.6006 C   0  0  1  0  0  0  0  0  0  0  0  0
  152.5591  144.0122  158.9510 C   0  0  0  0  0  0  0  0  0  0  0  0
  151.7747  144.6845  157.8135 C   0  0  0  0  0  0  0  0  0  0  0  0
  151.2905  143.6431  156.7916 C   0  0  0  0  0  0  0  0  0  0  0  0
  150.5306  142.5846  157.4521 N   0  0  0  0  0  0  0  0  0  0  0  0
  149.8162  141.7734  156.5514 C   0  0  0  0  0  0  0  0  0  0  0  0
  150.4823  141.2882  155.4755 N   0  0  0  0  0  0  0  0  0  0  0  0
  149.8120  140.5291  154.5835 C   0  0  0  0  0  0  0  0  0  0  0  0
  148.4400  140.2148  154.7030 C   0  0  0  0  0  0  0  0  0  0  0  0
  147.7366  139.3474  153.6996 C   0  0  0  0  0  0  0  0  0  0  0  0
  148.5183  138.6111  152.9038 N   0  0  0  0  0  0  0  0  0  0  0  0
  146.5123  139.3640  153.5880 O   0  0  0  0  0  0  0  0  0  0  0  0
  147.7527  140.7066  155.8327 C   0  0  0  0  0  0  0  0  0  0  0  0
  148.4429  141.5005  156.7696 C   0  0  0  0  0  0  0  0  0  0  0  0
  147.6027  142.0919  158.1612 Cl  0  0  0  0  0  0  0  0  0  0  0  0
  151.2429  141.8959  158.5283 C   0  0  0  0  0  0  0  0  0  0  0  0
  154.7029  142.4466  164.6032 H   0  0  0  0  0  0  0  0  0  0  0  0
  153.1671  143.3008  164.4965 H   0  0  0  0  0  0  0  0  0  0  0  0
  154.6047  143.9720  163.7274 H   0  0  0  0  0  0  0  0  0  0  0  0
  154.6754  142.0078  162.1615 H   0  0  0  0  0  0  0  0  0  0  0  0
  153.2454  141.3410  162.9075 H   0  0  0  0  0  0  0  0  0  0  0  0
  151.9783  143.4430  162.1979 H   0  0  0  0  0  0  0  0  0  0  0  0
  153.4263  143.9590  161.3448 H   0  0  0  0  0  0  0  0  0  0  0  0
  150.8544  143.3606  160.0832 H   0  0  0  0  0  0  0  0  0  0  0  0
  152.8454  144.7532  159.6982 H   0  0  0  0  0  0  0  0  0  0  0  0
  153.4854  143.5920  158.5563 H   0  0  0  0  0  0  0  0  0  0  0  0
  150.9164  145.2169  158.2255 H   0  0  0  0  0  0  0  0  0  0  0  0
  152.3961  145.4317  157.3195 H   0  0  0  0  0  0  0  0  0  0  0  0
  150.6870  144.1317  156.0262 H   0  0  0  0  0  0  0  0  0  0  0  0
  152.1451  143.1974  156.2808 H   0  0  0  0  0  0  0  0  0  0  0  0
  150.3987  140.1646  153.7526 H   0  0  0  0  0  0  0  0  0  0  0  0
  148.1069  138.0024  152.2114 H   0  0  0  0  0  0  0  0  0  0  0  0
  149.5220  138.6630  153.0029 H   0  0  0  0  0  0  0  0  0  0  0  0
  146.7064  140.4832  155.9845 H   0  0  0  0  0  0  0  0  0  0  0  0
  152.1015  141.3650  158.1141 H   0  0  0  0  0  0  0  0  0  0  0  0
  150.5837  141.1488  158.9707 H   0  0  0  0  0  0  0  0  0  0  0  0
  1  2  1  0  0  0  0
  1 21  1  0  0  0  0
  1 22  1  0  0  0  0
  1 23  1  0  0  0  0
  2  3  1  0  0  0  0
  2 24  1  0  0  0  0
  2 25  1  0  0  0  0
  3  4  1  0  0  0  0
  3 26  1  0  0  0  0
  3 27  1  0  0  0  0
  4  5  1  0  0  0  0
  5 20  1  0  0  0  0
  5  6  1  0  0  0  0
  5 28  1  0  0  0  0
  6  7  1  0  0  0  0
  6 29  1  0  0  0  0
  6 30  1  0  0  0  0
  7  8  1  0  0  0  0
  7 31  1  0  0  0  0
  7 32  1  0  0  0  0
  8  9  1  0  0  0  0
  8 33  1  0  0  0  0
  8 34  1  0  0  0  0
  9 10  1  0  0  0  0
  9 20  1  0  0  0  0
 10 18  1  0  0  0  0
 10 11  2  0  0  0  0
 11 12  1  0  0  0  0
 12 13  2  0  0  0  0
 12 35  1  0  0  0  0
 13 14  1  0  0  0  0
 13 17  1  0  0  0  0
 14 15  1  0  0  0  0
 14 16  2  0  0  0  0
 15 36  1  0  0  0  0
 15 37  1  0  0  0  0
 17 18  2  0  0  0  0
 17 38  1  0  0  0  0
 18 19  1  0  0  0  0
 20 39  1  0  0  0  0
 20 40  1  0  0  0  0
M  END
> <s_m_source_file>
AV-unprocessed.smi

> <i_m_source_file_index>
373

> <i_lp_mmshare_version>
43012

> <i_f3d_flags>
0

> <s_epik_input>
W0NIM11bQ0gyXVtDSDJdT1tDQEBIXTFbQ0gyXVtDSDJdW0NIMl1OKFtDSDJdMSljMm5bY0hdYyhDKD1PKVtOSDJdKVtjSF1jMkNs

> <s_epik_cmdline>
J2VwaWtfcHl0aG9uJywgJy1waCcsICc3LjAnLCAnLXRuJywgJzgnLCAnLW1hJywgJzIwMCcsICctbWV0YWxfYmluZGluZycsICctaW1hZScsICc8aW5maWxlLm1hZT4nLCAnLW9tYWUnLCAnPG91dGZpbGUubWFlPic=

> <r_lp_tautomer_probability>
1

> <r_epik_Ionization_Penalty>
3.23666e-05

> <r_epik_Ionization_Penalty_Charging>
0

> <r_epik_Ionization_Penalty_Neutral>
3.23666e-05

> <r_epik_State_Penalty>
-0

> <r_epik_Charging_Adjusted_Penalty>
0

> <i_epik_Tot_Q>
0

> <i_epik_Tot_abs_Q>
0

> <r_epik_Metal_State_Penalty>
-0

> <b_epik_Metal_Only>
0

> <s_lp_Force_Field>
OPLS_2005

> <r_lp_Energy>
19.6268

> <b_lp_Chiralities_Consistent>
1

> <s_lp_Variant>
AV-unprocessed.smi:373-2

> <Gold.Version>
5.8.1

> <Gold.Id.Protein>
6NUR|6NUR_protein|mol2

> <Gold.PLP.Fitness>
39.8412

> <Gold.PLP.PLP>
-38.5547

> <Gold.PLP.part.hbond>
-2.8982

> <Gold.PLP.part.metal>
0.0000

> <Gold.PLP.part.buried>
-1.9539

> <Gold.PLP.part.nonpolar>
-32.9143

> <Gold.PLP.part.repulsive>
0.5002

> <Gold.PLP.ligand.clash>
0.0000

> <Gold.PLP.ligand.torsion>
0.6793

> <Gold.PLP.Chemscore.Hbond>
0.3840

> <Gold.PLP.Chemscore.CHOScore>
0.4036

> <Gold.PLP.Chemscore.Metal>
0.0000

> <Gold.Chemscore.Hbonds>
donor molecule, donor type, donor heavy atom, donor atom, acceptor molecule, acceptor atom, score
      L1  H    15    36       P1  7948  0.38
      L1  C    12    35       P1  7957  0.53

> <Gold.PLP.Chemscore.Internal.Correction>
0.2823

> <Gold.Rescore>
     Score         DG    S(hbond)    S(metal)    S(lipo)     H(rot)  DE(clash)    DE(int)     intcor
     13.79     -14.51       0.00        0.00     111.48       1.57       0.17       0.55       ----

> <Gold.Chemscore.Fitness>
13.7883

> <Gold.Chemscore.DG>
-14.5089

> <Gold.Chemscore.ZeroCoef>
-5.4800

> <Gold.Chemscore.Hbond>
0.0005

> <Gold.Chemscore.Metal>
0.0000

> <Gold.Chemscore.Lipo>
111.4800

> <Gold.Chemscore.Internal_Hbond>
0.0000

> <Gold.Chemscore.DEClash>
0.1734

> <Gold.Chemscore.DEInternal>
0.5472

> <Gold.Chemscore.Rot>
1.5687

> <Gold.Chemscore.Internal.Correction>
   9.000000E+99

> <Gold.Chemscore.Hbonds>
donor molecule, donor type, donor heavy atom, donor atom, acceptor molecule, acceptor atom, score
      L1  H    15    36       P1  7948  0.37

> <Gold.Chemscore.Hbond.Weighted>
-0.0015

> <Gold.Chemscore.Metal.Weighted>
-0.0000

> <Gold.Chemscore.Lipo.Weighted>
-13.0432

> <Gold.Chemscore.Internal_Hbond.Weighted>
0.0000

> <Gold.Chemscore.DEClash.Weighted>
0.1734

> <Gold.Chemscore.DEInternal.Weighted>
0.5472

> <Gold.Chemscore.Rot.Weighted>
4.0158

> <Gold.Chemscore.Internal.Correction.Weighted>
   9.000000E+99

> <Gold.Protein.RotatedTorsions>
[ 6907 6896 6895 6894 ] final -151.09 input  -60.11 | X-H torsion
[ 7974 7965 7964 7962 ] final   35.78 input  175.53 | X-H torsion
[ 8008 7997 7996 7995 ] final  -65.63 input   59.86 | X-H torsion
[ 10167 10162 10161 10158 ] final   96.29 input  -65.29 | X-H torsion
[ 10718 10713 10712 10709 ] final  147.95 input   66.30 | X-H torsion
[ 10763 10752 10751 10750 ] final  105.73 input  -60.55 | X-H torsion
[ 11005 11000 10999 10996 ] final  -71.37 input  -57.11 | X-H torsion

> <Gold.Protein.ActiveResidues>
 VAL166  LYS551  ARG553  GLY616  TRP617  ASP618  TYR619  PRO620  LYS621  CYS622 
 ASP623  PHE694  ASN695  SER759  ASP760  ASP761  ALA762  ILE779  LEU786  VAL792 
 PHE793  MET794  SER795  GLU796  ALA797  LYS798  CYS799  TRP800  GLU811  SER814 

> <Gold.Protein.RotatedAtoms>
  151.2080  133.4572  159.2597 H   0  0  0  0  0  0  0  0  0  0  0  0  # atno 6907 bound_to 6896
  151.1004  134.9969  159.8456 H   0  0  0  0  0  0  0  0  0  0  0  0  # atno 6908 bound_to 6896
  152.5443  134.2007  159.8764 H   0  0  0  0  0  0  0  0  0  0  0  0  # atno 6909 bound_to 6896
  146.1258  139.6100  142.9259 H   0  0  0  0  0  0  0  0  0  0  0  0  # atno 7974 bound_to 7965
  154.4684  140.0929  156.7080 H   0  0  0  0  0  0  0  0  0  0  0  0  # atno 8008 bound_to 7997
  155.4794  140.3467  155.4319 H   0  0  0  0  0  0  0  0  0  0  0  0  # atno 8009 bound_to 7997
  156.0996  140.1418  156.9473 H   0  0  0  0  0  0  0  0  0  0  0  0  # atno 8010 bound_to 7997
  139.7908  144.6852  150.9894 H   0  0  0  0  0  0  0  0  0  0  0  0  # atno 10167 bound_to 10162
  157.3147  131.0894  151.1289 H   0  0  0  0  0  0  0  0  0  0  0  0  # atno 10718 bound_to 10713
  153.3833  135.3900  155.1872 H   0  0  0  0  0  0  0  0  0  0  0  0  # atno 10763 bound_to 10752
  154.8710  135.3731  154.4829 H   0  0  0  0  0  0  0  0  0  0  0  0  # atno 10764 bound_to 10752
  153.5308  135.7086  153.5745 H   0  0  0  0  0  0  0  0  0  0  0  0  # atno 10765 bound_to 10752
  141.1591  133.6815  156.6895 H   0  0  0  0  0  0  0  0  0  0  0  0  # atno 11005 bound_to 11000
  145.5367  141.0423  143.2353 LP  0  0  0  0  0  0  0  0  0  0  0  0  # atno 17320 bound_to 7965
  144.7641  139.6886  143.7222 LP  0  0  0  0  0  0  0  0  0  0  0  0  # atno 17321 bound_to 7965
  140.7820  143.4383  151.0591 LP  0  0  0  0  0  0  0  0  0  0  0  0  # atno 17342 bound_to 10162
  139.8059  143.8018  152.3167 LP  0  0  0  0  0  0  0  0  0  0  0  0  # atno 17343 bound_to 10162
  157.2597  130.6653  149.5969 LP  0  0  0  0  0  0  0  0  0  0  0  0  # atno 17370 bound_to 10713
  155.9680  130.4512  150.5728 LP  0  0  0  0  0  0  0  0  0  0  0  0  # atno 17371 bound_to 10713
  140.3041  134.8139  157.4122 LP  0  0  0  0  0  0  0  0  0  0  0  0  # atno 17394 bound_to 11000
  140.1236  134.5188  155.8163 LP  0  0  0  0  0  0  0  0  0  0  0  0  # atno 17395 bound_to 11000

$$$$
