AV-unprocessed.smi:1613|AV-procd|sdf|6478|dock3
  -GOLD-   22720 7143D 1   1.00000     0.00000
 Structure written by MMmdl.
 53 55  0  0  0  0  0  0  0  0  2 V2000
  143.9732  139.2312  155.3855 O   0  0  0  0  0  0  0  0  0  0  0  0
  143.7309  140.4076  155.6585 C   0  0  0  0  0  0  0  0  0  0  0  0
  142.2905  140.9391  155.6458 C   0  0  0  0  0  0  0  0  0  0  0  0
  142.1459  142.2388  156.3213 N   0  0  0  0  0  0  0  0  0  0  0  0
  142.5056  143.3895  155.6000 C   0  0  0  0  0  0  0  0  0  0  0  0
  142.3930  144.6082  156.1474 C   0  0  0  0  0  0  0  0  0  0  0  0
  141.8802  144.6611  157.5224 C   0  0  0  0  0  0  0  0  0  0  0  0
  141.5485  143.6144  158.1818 N   0  0  0  0  0  0  0  0  0  0  0  0
  141.6634  142.3362  157.6031 C   0  0  0  0  0  0  0  0  0  0  0  0
  141.3390  141.3258  158.2277 O   0  0  0  0  0  0  0  0  0  0  0  0
  144.6845  141.2989  155.9678 N   0  0  0  0  0  0  0  0  0  0  0  0
  146.1122  141.0058  156.0442 C   0  0  2  0  0  0  0  0  0  0  0  0
  146.6570  141.2939  157.4539 C   0  0  0  0  0  0  0  0  0  0  0  0
  148.1765  141.0718  157.5148 C   0  0  0  0  0  0  0  0  0  0  0  0
  148.8913  141.8985  156.5068 N   0  3  1  0  0  0  0  0  0  0  0  0
  150.3670  141.7794  156.6494 C   0  0  0  0  0  0  0  0  0  0  0  0
  150.8726  141.9997  158.0964 C   0  0  0  0  0  0  0  0  0  0  0  0
  150.9760  143.5008  158.4512 C   0  0  0  0  0  0  0  0  0  0  0  0
  151.4615  143.7096  159.8944 C   0  0  0  0  0  0  0  0  0  0  0  0
  152.8143  143.0214  160.1292 C   0  0  0  0  0  0  0  0  0  0  0  0
  152.7473  141.5310  159.7632 C   0  0  0  0  0  0  0  0  0  0  0  0
  152.2454  141.3299  158.3235 C   0  0  0  0  0  0  0  0  0  0  0  0
  148.3964  141.6288  155.1299 C   0  0  0  0  0  0  0  0  0  0  0  0
  146.8790  141.8565  155.0214 C   0  0  0  0  0  0  0  0  0  0  0  0
  141.9391  141.0154  154.6151 H   0  0  0  0  0  0  0  0  0  0  0  0
  141.6485  140.1914  156.1133 H   0  0  0  0  0  0  0  0  0  0  0  0
  142.8631  143.2188  154.5949 H   0  0  0  0  0  0  0  0  0  0  0  0
  142.6475  145.5315  155.6484 H   0  0  0  0  0  0  0  0  0  0  0  0
  141.7980  145.6629  157.9518 H   0  0  0  0  0  0  0  0  0  0  0  0
  144.3985  142.2459  156.1702 H   0  0  0  0  0  0  0  0  0  0  0  0
  146.2744  139.9528  155.8048 H   0  0  0  0  0  0  0  0  0  0  0  0
  146.4278  142.3217  157.7396 H   0  0  0  0  0  0  0  0  0  0  0  0
  146.1665  140.6527  158.1874 H   0  0  0  0  0  0  0  0  0  0  0  0
  148.5308  141.3205  158.5160 H   0  0  0  0  0  0  0  0  0  0  0  0
  148.4071  140.0179  157.3505 H   0  0  0  0  0  0  0  0  0  0  0  0
  150.6437  140.7723  156.3334 H   0  0  0  0  0  0  0  0  0  0  0  0
  150.8659  142.4522  155.9497 H   0  0  0  0  0  0  0  0  0  0  0  0
  150.1735  141.5265  158.7879 H   0  0  0  0  0  0  0  0  0  0  0  0
  151.6675  143.9935  157.7661 H   0  0  0  0  0  0  0  0  0  0  0  0
  150.0174  144.0006  158.3199 H   0  0  0  0  0  0  0  0  0  0  0  0
  151.5459  144.7756  160.1081 H   0  0  0  0  0  0  0  0  0  0  0  0
  150.7218  143.3121  160.5904 H   0  0  0  0  0  0  0  0  0  0  0  0
  153.5822  143.5111  159.5290 H   0  0  0  0  0  0  0  0  0  0  0  0
  153.1153  143.1364  161.1710 H   0  0  0  0  0  0  0  0  0  0  0  0
  153.7314  141.0764  159.8807 H   0  0  0  0  0  0  0  0  0  0  0  0
  152.0839  141.0131  160.4572 H   0  0  0  0  0  0  0  0  0  0  0  0
  152.1803  140.2616  158.1141 H   0  0  0  0  0  0  0  0  0  0  0  0
  152.9765  141.7370  157.6233 H   0  0  0  0  0  0  0  0  0  0  0  0
  148.8868  142.2897  154.4173 H   0  0  0  0  0  0  0  0  0  0  0  0
  148.6466  140.6057  154.8445 H   0  0  0  0  0  0  0  0  0  0  0  0
  146.5436  141.6191  154.0111 H   0  0  0  0  0  0  0  0  0  0  0  0
  146.6603  142.9140  155.1786 H   0  0  0  0  0  0  0  0  0  0  0  0
  148.6622  142.8600  156.7152 H   0  0  0  0  0  0  0  0  0  0  0  0
  1  2  2  0  0  0  0
  2  3  1  0  0  0  0
  2 11  1  0  0  0  0
  3  4  1  0  0  0  0
  3 25  1  0  0  0  0
  3 26  1  0  0  0  0
  4  9  1  0  0  0  0
  4  5  1  0  0  0  0
  5  6  2  0  0  0  0
  5 27  1  0  0  0  0
  6  7  1  0  0  0  0
  6 28  1  0  0  0  0
  7  8  2  0  0  0  0
  7 29  1  0  0  0  0
  8  9  1  0  0  0  0
  9 10  2  0  0  0  0
 11 12  1  0  0  0  0
 11 30  1  0  0  0  0
 12 24  1  0  0  0  0
 12 13  1  0  0  0  0
 12 31  1  0  0  0  0
 13 14  1  0  0  0  0
 13 32  1  0  0  0  0
 13 33  1  0  0  0  0
 14 15  1  0  0  0  0
 14 34  1  0  0  0  0
 14 35  1  0  0  0  0
 15 16  1  0  0  0  0
 15 23  1  0  0  0  0
 15 53  1  0  0  0  0
 16 17  1  0  0  0  0
 16 36  1  0  0  0  0
 16 37  1  0  0  0  0
 17 22  1  0  0  0  0
 17 18  1  0  0  0  0
 17 38  1  0  0  0  0
 18 19  1  0  0  0  0
 18 39  1  0  0  0  0
 18 40  1  0  0  0  0
 19 20  1  0  0  0  0
 19 41  1  0  0  0  0
 19 42  1  0  0  0  0
 20 21  1  0  0  0  0
 20 43  1  0  0  0  0
 20 44  1  0  0  0  0
 21 22  1  0  0  0  0
 21 45  1  0  0  0  0
 21 46  1  0  0  0  0
 22 47  1  0  0  0  0
 22 48  1  0  0  0  0
 23 24  1  0  0  0  0
 23 49  1  0  0  0  0
 23 50  1  0  0  0  0
 24 51  1  0  0  0  0
 24 52  1  0  0  0  0
M  CHG  1  15   1
M  END
> <s_m_source_file>
AV-unprocessed.smi

> <i_m_source_file_index>
1613

> <i_lp_mmshare_version>
43012

> <i_f3d_flags>
0

> <s_epik_input>
Tz1jMW5bY0hdW2NIXVtjSF1uMVtDSDJdQyg9TylbTkhdW0NIXTJbQ0gyXVtDSDJdTihbQ0gyXVtDSDJdMilbQ0gyXVtDSF0zW0NIMl1bQ0gyXVtDSDJdW0NIMl1bQ0gyXTM=

> <s_epik_cmdline>
J2VwaWtfcHl0aG9uJywgJy1waCcsICc3LjAnLCAnLXRuJywgJzgnLCAnLW1hJywgJzIwMCcsICctbWV0YWxfYmluZGluZycsICctaW1hZScsICc8aW5maWxlLm1hZT4nLCAnLW9tYWUnLCAnPG91dGZpbGUubWFlPic=

> <r_lp_tautomer_probability>
1

> <r_epik_Ionization_Penalty>
0.00530026

> <r_epik_Ionization_Penalty_Charging>
0.00529416

> <r_epik_Ionization_Penalty_Neutral>
6.10215e-06

> <r_epik_State_Penalty>
0.00386377

> <r_epik_Charging_Adjusted_Penalty>
0.00915793

> <i_epik_Tot_Q>
1

> <i_epik_Tot_abs_Q>
1

> <r_epik_Metal_State_Penalty>
-0

> <b_epik_Metal_Only>
0

> <s_lp_Force_Field>
OPLS_2005

> <r_lp_Energy>
30.7073

> <b_lp_Chiralities_Consistent>
1

> <s_lp_Variant>
AV-unprocessed.smi:1613-1

> <Gold.Version>
5.8.1

> <Gold.Id.Protein>
6NUR|6NUR_protein|mol2

> <Gold.PLP.Fitness>
47.8330

> <Gold.PLP.PLP>
-40.1886

> <Gold.PLP.part.hbond>
-1.0000

> <Gold.PLP.part.metal>
0.0000

> <Gold.PLP.part.buried>
-3.1773

> <Gold.PLP.part.nonpolar>
-35.6384

> <Gold.PLP.part.repulsive>
0.2048

> <Gold.PLP.ligand.clash>
0.0000

> <Gold.PLP.ligand.torsion>
0.7217

> <Gold.PLP.Chemscore.Hbond>
2.0000

> <Gold.PLP.Chemscore.CHOScore>
1.0000

> <Gold.PLP.Chemscore.Metal>
0.0000

> <Gold.Chemscore.Hbonds>
donor molecule, donor type, donor heavy atom, donor atom, acceptor molecule, acceptor atom, score
      L1  H    15    53       P1  8028  1.01
      L1  C     5    27       P1 10174  0.90

> <Gold.PLP.Chemscore.Internal.Correction>
0.0878

> <Gold.Rescore>
     Score         DG    S(hbond)    S(metal)    S(lipo)     H(rot)  DE(clash)    DE(int)     intcor
     16.87     -17.72       1.00        0.00     116.43       1.84       0.08       0.77       ----

> <Gold.Chemscore.Fitness>
16.8726

> <Gold.Chemscore.DG>
-17.7208

> <Gold.Chemscore.ZeroCoef>
-5.4800

> <Gold.Chemscore.Hbond>
0.9978

> <Gold.Chemscore.Metal>
0.0000

> <Gold.Chemscore.Lipo>
116.4346

> <Gold.Chemscore.Internal_Hbond>
0.0000

> <Gold.Chemscore.DEClash>
0.0777

> <Gold.Chemscore.DEInternal>
0.7705

> <Gold.Chemscore.Rot>
1.8417

> <Gold.Chemscore.Internal.Correction>
   9.000000E+99

> <Gold.Chemscore.Hbonds>
donor molecule, donor type, donor heavy atom, donor atom, acceptor molecule, acceptor atom, score
      L1  H    15    53       P1  8028  0.44

> <Gold.Chemscore.Hbond.Weighted>
-3.3326

> <Gold.Chemscore.Metal.Weighted>
-0.0000

> <Gold.Chemscore.Lipo.Weighted>
-13.6228

> <Gold.Chemscore.Internal_Hbond.Weighted>
0.0000

> <Gold.Chemscore.DEClash.Weighted>
0.0777

> <Gold.Chemscore.DEInternal.Weighted>
0.7705

> <Gold.Chemscore.Rot.Weighted>
4.7147

> <Gold.Chemscore.Internal.Correction.Weighted>
   9.000000E+99

> <Gold.Protein.RotatedTorsions>
[ 6907 6896 6895 6894 ] final -128.60 input  -60.11 | X-H torsion
[ 7974 7965 7964 7962 ] final   -6.16 input  175.53 | X-H torsion
[ 8008 7997 7996 7995 ] final  106.61 input   59.86 | X-H torsion
[ 10167 10162 10161 10158 ] final -116.69 input  -65.29 | X-H torsion
[ 10718 10713 10712 10709 ] final  175.66 input   66.30 | X-H torsion
[ 10763 10752 10751 10750 ] final  -19.28 input  -60.55 | X-H torsion
[ 11005 11000 10999 10996 ] final  -87.49 input  -57.11 | X-H torsion

> <Gold.Protein.ActiveResidues>
 VAL166  LYS551  ARG553  GLY616  TRP617  ASP618  TYR619  PRO620  LYS621  CYS622 
 ASP623  PHE694  ASN695  SER759  ASP760  ASP761  ALA762  ILE779  LEU786  VAL792 
 PHE793  MET794  SER795  GLU796  ALA797  LYS798  CYS799  TRP800  GLU811  SER814 

> <Gold.Protein.RotatedAtoms>
  150.9196  133.6896  159.2834 H   0  0  0  0  0  0  0  0  0  0  0  0  # atno 6907 bound_to 6896
  151.4355  135.1013  159.9664 H   0  0  0  0  0  0  0  0  0  0  0  0  # atno 6908 bound_to 6896
  152.4973  133.8617  159.7308 H   0  0  0  0  0  0  0  0  0  0  0  0  # atno 6909 bound_to 6896
  146.2337  140.2128  142.8335 H   0  0  0  0  0  0  0  0  0  0  0  0  # atno 7974 bound_to 7965
  156.1757  140.3109  155.9055 H   0  0  0  0  0  0  0  0  0  0  0  0  # atno 8008 bound_to 7997
  155.3492  140.0470  157.3063 H   0  0  0  0  0  0  0  0  0  0  0  0  # atno 8009 bound_to 7997
  154.5288  140.2223  155.8852 H   0  0  0  0  0  0  0  0  0  0  0  0  # atno 8010 bound_to 7997
  140.0764  143.4828  152.1950 H   0  0  0  0  0  0  0  0  0  0  0  0  # atno 10167 bound_to 10162
  156.9316  130.9973  151.2986 H   0  0  0  0  0  0  0  0  0  0  0  0  # atno 10718 bound_to 10713
  153.6023  135.6999  153.5379 H   0  0  0  0  0  0  0  0  0  0  0  0  # atno 10763 bound_to 10752
  153.3086  135.4108  155.1316 H   0  0  0  0  0  0  0  0  0  0  0  0  # atno 10764 bound_to 10752
  154.8580  135.3666  154.5559 H   0  0  0  0  0  0  0  0  0  0  0  0  # atno 10765 bound_to 10752
  141.1616  133.7514  156.9315 H   0  0  0  0  0  0  0  0  0  0  0  0  # atno 11005 bound_to 11000
  144.9693  140.8353  143.5465 LP  0  0  0  0  0  0  0  0  0  0  0  0  # atno 17320 bound_to 7965
  145.2108  139.2206  143.5144 LP  0  0  0  0  0  0  0  0  0  0  0  0  # atno 17321 bound_to 7965
  139.5805  144.7508  151.3652 LP  0  0  0  0  0  0  0  0  0  0  0  0  # atno 17342 bound_to 10162
  140.7100  143.7416  150.7549 LP  0  0  0  0  0  0  0  0  0  0  0  0  # atno 17343 bound_to 10162
  157.5843  130.8398  149.8567 LP  0  0  0  0  0  0  0  0  0  0  0  0  # atno 17370 bound_to 10713
  156.0444  130.3731  150.1353 LP  0  0  0  0  0  0  0  0  0  0  0  0  # atno 17371 bound_to 10713
  140.1383  134.9310  157.2432 LP  0  0  0  0  0  0  0  0  0  0  0  0  # atno 17394 bound_to 11000
  140.2868  134.3287  155.7327 LP  0  0  0  0  0  0  0  0  0  0  0  0  # atno 17395 bound_to 11000

$$$$
