AV-unprocessed.smi:1736|AV-procd|sdf|6991|dock1
  -GOLD-   22720 8203D 1   1.00000     0.00000
 Structure written by MMmdl.
 45 46  0  0  0  0  0  0  0  0  2 V2000
  151.1867  140.0353  155.8331 C   0  0  0  0  0  0  0  0  0  0  0  0
  151.0378  139.4587  154.5012 N   0  0  0  0  0  0  0  0  0  0  0  0
  151.4251  138.0506  154.4320 C   0  0  0  0  0  0  0  0  0  0  0  0
  150.4162  137.1360  155.1558 C   0  0  0  0  0  0  0  0  0  0  0  0
  149.0487  137.2879  154.5783 N   0  3  0  0  0  0  0  0  0  0  0  0
  148.0278  136.2843  155.0602 C   0  0  0  0  0  0  0  0  0  0  0  0
  148.5668  134.8381  154.9304 C   0  0  0  0  0  0  0  0  0  0  0  0
  147.6712  136.5219  156.5522 C   0  0  0  0  0  0  0  0  0  0  0  0
  146.7215  136.4677  154.2255 C   0  0  0  0  0  0  0  0  0  0  0  0
  146.6045  135.5589  153.0845 N   0  0  0  0  0  0  0  0  0  0  0  0
  145.5018  134.8834  152.7302 C   0  0  0  0  0  0  0  0  0  0  0  0
  144.4369  134.9484  153.3443 O   0  0  0  0  0  0  0  0  0  0  0  0
  145.7152  134.1483  151.6269 N   0  0  0  0  0  0  0  0  0  0  0  0
  144.7780  133.3386  150.9372 C   0  0  0  0  0  0  0  0  0  0  0  0
  145.0356  132.6724  149.7084 C   0  0  0  0  0  0  0  0  0  0  0  0
  143.9761  131.9912  149.2964 N   0  0  0  0  0  0  0  0  0  0  0  0
  143.0448  132.2160  150.2507 N   0  0  0  0  0  0  0  0  0  0  0  0
  143.4885  133.0307  151.2690 C   0  0  0  0  0  0  0  0  0  0  0  0
  148.6517  138.7243  154.6511 C   0  0  0  0  0  0  0  0  0  0  0  0
  149.6937  139.6233  153.9513 C   0  0  0  0  0  0  0  0  0  0  0  0
  142.1213  131.8107  150.1939 H   0  0  0  0  0  0  0  0  0  0  0  0
  152.2166  139.9313  156.1761 H   0  0  0  0  0  0  0  0  0  0  0  0
  150.5369  139.5653  156.5704 H   0  0  0  0  0  0  0  0  0  0  0  0
  150.9535  141.1004  155.8104 H   0  0  0  0  0  0  0  0  0  0  0  0
  151.4965  137.7588  153.3832 H   0  0  0  0  0  0  0  0  0  0  0  0
  152.4224  137.9259  154.8553 H   0  0  0  0  0  0  0  0  0  0  0  0
  150.7743  136.1139  155.0595 H   0  0  0  0  0  0  0  0  0  0  0  0
  150.4100  137.3573  156.2228 H   0  0  0  0  0  0  0  0  0  0  0  0
  147.8982  134.1193  155.4043 H   0  0  0  0  0  0  0  0  0  0  0  0
  149.5388  134.7239  155.4099 H   0  0  0  0  0  0  0  0  0  0  0  0
  148.6703  134.5308  153.8896 H   0  0  0  0  0  0  0  0  0  0  0  0
  146.8616  135.8750  156.8897 H   0  0  0  0  0  0  0  0  0  0  0  0
  147.3571  137.5511  156.7299 H   0  0  0  0  0  0  0  0  0  0  0  0
  148.5072  136.3006  157.2159 H   0  0  0  0  0  0  0  0  0  0  0  0
  145.8557  136.2912  154.8648 H   0  0  0  0  0  0  0  0  0  0  0  0
  146.6112  137.4883  153.8623 H   0  0  0  0  0  0  0  0  0  0  0  0
  147.4312  135.4384  152.5174 H   0  0  0  0  0  0  0  0  0  0  0  0
  146.6419  134.1826  151.2278 H   0  0  0  0  0  0  0  0  0  0  0  0
  145.9373  132.6619  149.1138 H   0  0  0  0  0  0  0  0  0  0  0  0
  142.8621  133.3041  152.1051 H   0  0  0  0  0  0  0  0  0  0  0  0
  147.7116  138.9005  154.1325 H   0  0  0  0  0  0  0  0  0  0  0  0
  148.5025  139.0278  155.6873 H   0  0  0  0  0  0  0  0  0  0  0  0
  149.3972  140.6708  154.0182 H   0  0  0  0  0  0  0  0  0  0  0  0
  149.7246  139.3813  152.8882 H   0  0  0  0  0  0  0  0  0  0  0  0
  149.1487  137.1004  153.5909 H   0  0  0  0  0  0  0  0  0  0  0  0
  1  2  1  0  0  0  0
  1 22  1  0  0  0  0
  1 23  1  0  0  0  0
  1 24  1  0  0  0  0
  2 20  1  0  0  0  0
  2  3  1  0  0  0  0
  3  4  1  0  0  0  0
  3 25  1  0  0  0  0
  3 26  1  0  0  0  0
  4  5  1  0  0  0  0
  4 27  1  0  0  0  0
  4 28  1  0  0  0  0
  5  6  1  0  0  0  0
  5 19  1  0  0  0  0
  5 45  1  0  0  0  0
  6  7  1  0  0  0  0
  6  8  1  0  0  0  0
  6  9  1  0  0  0  0
  7 29  1  0  0  0  0
  7 30  1  0  0  0  0
  7 31  1  0  0  0  0
  8 32  1  0  0  0  0
  8 33  1  0  0  0  0
  8 34  1  0  0  0  0
  9 10  1  0  0  0  0
  9 35  1  0  0  0  0
  9 36  1  0  0  0  0
 10 11  1  0  0  0  0
 10 37  1  0  0  0  0
 11 12  2  0  0  0  0
 11 13  1  0  0  0  0
 13 14  1  0  0  0  0
 13 38  1  0  0  0  0
 14 18  2  0  0  0  0
 14 15  1  0  0  0  0
 15 16  2  0  0  0  0
 15 39  1  0  0  0  0
 16 17  1  0  0  0  0
 17 21  1  0  0  0  0
 17 18  1  0  0  0  0
 18 40  1  0  0  0  0
 19 20  1  0  0  0  0
 19 41  1  0  0  0  0
 19 42  1  0  0  0  0
 20 43  1  0  0  0  0
 20 44  1  0  0  0  0
M  CHG  1   5   1
M  END
> <s_m_source_file>
AV-unprocessed.smi

> <i_m_source_file_index>
1736

> <i_lp_mmshare_version>
43012

> <i_f3d_flags>
0

> <s_epik_input>
W0NIM11OMVtDSDJdW0NIMl1OKFtDSDJdW0NIMl0xKUMoW0NIM10pKFtDSDNdKVtDSDJdW05IXUMoPU8pW05IXWMyW2NIXW5bbkhdW2NIXTI=

> <s_epik_cmdline>
J2VwaWtfcHl0aG9uJywgJy1waCcsICc3LjAnLCAnLXRuJywgJzgnLCAnLW1hJywgJzIwMCcsICctbWV0YWxfYmluZGluZycsICctaW1hZScsICc8aW5maWxlLm1hZT4nLCAnLW9tYWUnLCAnPG91dGZpbGUubWFlPic=

> <r_epik_Ionization_Penalty>
0.0906742

> <r_epik_Ionization_Penalty_Charging>
0.0886444

> <r_epik_Ionization_Penalty_Neutral>
0.00202984

> <r_epik_State_Penalty>
1.00524

> <r_epik_Charging_Adjusted_Penalty>
1.09388

> <i_epik_Tot_Q>
1

> <i_epik_Tot_abs_Q>
1

> <r_epik_Metal_State_Penalty>
1.00524

> <b_epik_Metal_Only>
0

> <s_lp_Force_Field>
OPLS_2005

> <r_lp_Energy>
30.5106

> <b_lp_Chiralities_Consistent>
1

> <s_lp_Variant>
AV-unprocessed.smi:1736-2

> <Gold.Version>
5.8.1

> <Gold.Id.Protein>
6NUR|6NUR_protein|mol2

> <Gold.PLP.Fitness>
47.6969

> <Gold.PLP.PLP>
-28.0800

> <Gold.PLP.part.hbond>
-5.7526

> <Gold.PLP.part.metal>
0.0000

> <Gold.PLP.part.buried>
-2.6800

> <Gold.PLP.part.nonpolar>
-19.9222

> <Gold.PLP.part.repulsive>
0.5790

> <Gold.PLP.ligand.clash>
0.0000

> <Gold.PLP.ligand.torsion>
0.8781

> <Gold.PLP.Chemscore.Hbond>
5.5147

> <Gold.PLP.Chemscore.CHOScore>
1.5687

> <Gold.PLP.Chemscore.Metal>
0.0000

> <Gold.Chemscore.Hbonds>
donor molecule, donor type, donor heavy atom, donor atom, acceptor molecule, acceptor atom, score
      L1  H     5    45       P1  7948  2.00
      L1  H    10    37       P1  7948  0.94
      L1  H    17    21       P1 10952  0.96
      P1  H  7989  7998       L1     2  0.50
      P1  H 10785 10796       L1    16  0.48
      L1  C    15    39       P1  7921  0.09

> <Gold.PLP.Chemscore.Internal.Correction>
0.1225

> <Gold.Rescore>
     Score         DG    S(hbond)    S(metal)    S(lipo)     H(rot)  DE(clash)    DE(int)     intcor
     16.83     -19.02       3.09        0.00      62.99       1.63       0.22       1.97       ----

> <Gold.Chemscore.Fitness>
16.8285

> <Gold.Chemscore.DG>
-19.0209

> <Gold.Chemscore.ZeroCoef>
-5.4800

> <Gold.Chemscore.Hbond>
3.0946

> <Gold.Chemscore.Metal>
0.0000

> <Gold.Chemscore.Lipo>
62.9870

> <Gold.Chemscore.Internal_Hbond>
0.0000

> <Gold.Chemscore.DEClash>
0.2180

> <Gold.Chemscore.DEInternal>
1.9743

> <Gold.Chemscore.Rot>
1.6267

> <Gold.Chemscore.Internal.Correction>
   9.000000E+99

> <Gold.Chemscore.Hbonds>
donor molecule, donor type, donor heavy atom, donor atom, acceptor molecule, acceptor atom, score
      L1  H     5    45       P1  7948  0.99
      L1  H    10    37       P1  7948  0.91
      L1  H    17    21       P1 10952  0.66
      P1  H  7989  7998       L1     2  0.01
      P1  H 10785 10796       L1    16  0.06

> <Gold.Chemscore.Hbond.Weighted>
-10.3359

> <Gold.Chemscore.Metal.Weighted>
-0.0000

> <Gold.Chemscore.Lipo.Weighted>
-7.3695

> <Gold.Chemscore.Internal_Hbond.Weighted>
0.0000

> <Gold.Chemscore.DEClash.Weighted>
0.2180

> <Gold.Chemscore.DEInternal.Weighted>
1.9743

> <Gold.Chemscore.Rot.Weighted>
4.1645

> <Gold.Chemscore.Internal.Correction.Weighted>
   9.000000E+99

> <Gold.Protein.RotatedTorsions>
[ 6907 6896 6895 6894 ] final -121.56 input  -60.11 | X-H torsion
[ 7974 7965 7964 7962 ] final -134.38 input  175.53 | X-H torsion
[ 8008 7997 7996 7995 ] final -125.43 input   59.86 | X-H torsion
[ 10167 10162 10161 10158 ] final -105.86 input  -65.29 | X-H torsion
[ 10718 10713 10712 10709 ] final -107.79 input   66.30 | X-H torsion
[ 10763 10752 10751 10750 ] final -117.53 input  -60.55 | X-H torsion
[ 11005 11000 10999 10996 ] final -111.69 input  -57.11 | X-H torsion

> <Gold.Protein.ActiveResidues>
 VAL166  LYS551  ARG553  GLY616  TRP617  ASP618  TYR619  PRO620  LYS621  CYS622 
 ASP623  PHE694  ASN695  SER759  ASP760  ASP761  ALA762  ILE779  LEU786  VAL792 
 PHE793  MET794  SER795  GLU796  ALA797  LYS798  CYS799  TRP800  GLU811  SER814 

> <Gold.Protein.RotatedAtoms>
  150.8495  133.7809  159.3030 H   0  0  0  0  0  0  0  0  0  0  0  0  # atno 6907 bound_to 6896
  151.5486  135.1066  159.9953 H   0  0  0  0  0  0  0  0  0  0  0  0  # atno 6908 bound_to 6896
  152.4541  133.7644  159.6820 H   0  0  0  0  0  0  0  0  0  0  0  0  # atno 6909 bound_to 6896
  144.9108  140.6892  143.5026 H   0  0  0  0  0  0  0  0  0  0  0  0  # atno 7974 bound_to 7965
  155.2131  140.0419  157.2936 H   0  0  0  0  0  0  0  0  0  0  0  0  # atno 8008 bound_to 7997
  154.5998  140.2449  155.7778 H   0  0  0  0  0  0  0  0  0  0  0  0  # atno 8009 bound_to 7997
  156.2314  140.2937  156.0207 H   0  0  0  0  0  0  0  0  0  0  0  0  # atno 8010 bound_to 7997
  140.1939  143.3870  152.1184 H   0  0  0  0  0  0  0  0  0  0  0  0  # atno 10167 bound_to 10162
  156.0453  130.5680  150.7870 H   0  0  0  0  0  0  0  0  0  0  0  0  # atno 10718 bound_to 10713
  154.8558  135.4306  154.1994 H   0  0  0  0  0  0  0  0  0  0  0  0  # atno 10763 bound_to 10752
  153.3044  135.6971  153.7179 H   0  0  0  0  0  0  0  0  0  0  0  0  # atno 10764 bound_to 10752
  153.6296  135.3487  155.3011 H   0  0  0  0  0  0  0  0  0  0  0  0  # atno 10765 bound_to 10752
  141.0720  133.9365  157.2467 H   0  0  0  0  0  0  0  0  0  0  0  0  # atno 11005 bound_to 11000
  145.3458  139.1719  143.4461 LP  0  0  0  0  0  0  0  0  0  0  0  0  # atno 17320 bound_to 7965
  146.3157  140.3505  142.8655 LP  0  0  0  0  0  0  0  0  0  0  0  0  # atno 17321 bound_to 7965
  139.5244  144.7084  151.5284 LP  0  0  0  0  0  0  0  0  0  0  0  0  # atno 17342 bound_to 10162
  140.6437  143.8838  150.6716 LP  0  0  0  0  0  0  0  0  0  0  0  0  # atno 17343 bound_to 10162
  157.5321  131.0937  150.9940 LP  0  0  0  0  0  0  0  0  0  0  0  0  # atno 17370 bound_to 10713
  157.0244  130.5686  149.5335 LP  0  0  0  0  0  0  0  0  0  0  0  0  # atno 17371 bound_to 10713
  139.9533  135.0171  156.9055 LP  0  0  0  0  0  0  0  0  0  0  0  0  # atno 17394 bound_to 11000
  140.5654  134.0494  155.7412 LP  0  0  0  0  0  0  0  0  0  0  0  0  # atno 17395 bound_to 11000

$$$$
