AV-unprocessed.smi:114|AV-procd|sdf|1107|dock5
  -GOLD-   2262018223D 1   1.00000     0.00000
 Structure written by MMmdl.
 32 34  0  0  0  0  0  0  0  0  1 V2000
  149.4175  138.4015  153.3845 N   0  0  0  0  0  0  0  0  0  0  0  0
  149.6971  138.5345  154.6886 C   0  0  0  0  0  0  0  0  0  0  0  0
  149.6906  137.4264  155.4660 N   0  0  0  0  0  0  0  0  0  0  0  0
  149.9655  137.5146  156.7739 C   0  0  0  0  0  0  0  0  0  0  0  0
  149.9370  136.3560  157.4732 F   0  0  0  0  0  0  0  0  0  0  0  0
  150.2646  138.6188  157.4676 N   0  0  0  0  0  0  0  0  0  0  0  0
  150.2702  139.7360  156.6848 C   0  0  0  0  0  0  0  0  0  0  0  0
  149.9998  139.7794  155.2918 C   0  0  0  0  0  0  0  0  0  0  0  0
  150.1018  141.0856  154.8304 N   0  0  0  0  0  0  0  0  0  0  0  0
  150.4165  141.7720  155.8970 C   0  0  0  0  0  0  0  0  0  0  0  0
  150.5364  141.0344  157.0559 N   0  0  0  0  0  0  0  0  0  0  0  0
  150.8860  141.4941  158.4340 C   0  0  2  0  0  0  0  0  0  0  0  0
  151.0794  142.8679  158.3962 O   0  0  0  0  0  0  0  0  0  0  0  0
  151.8851  143.2174  159.5095 C   0  0  2  0  0  0  0  0  0  0  0  0
  152.4878  144.6148  159.3020 C   0  0  0  0  0  0  0  0  0  0  0  0
  151.4565  145.5652  159.1426 O   0  0  0  0  0  0  0  0  0  0  0  0
  152.9319  142.0941  159.5361 C   0  0  1  0  0  0  0  0  0  0  0  0
  153.3455  141.8491  160.8654 O   0  0  0  0  0  0  0  0  0  0  0  0
  152.1956  140.8791  158.9686 C   0  0  2  0  0  0  0  0  0  0  0  0
  152.9783  140.2326  157.9800 O   0  0  0  0  0  0  0  0  0  0  0  0
  150.0173  141.2565  159.0504 H   0  0  0  0  0  0  0  0  0  0  0  0
  151.2736  143.1816  160.4143 H   0  0  0  0  0  0  0  0  0  0  0  0
  153.7902  142.3575  158.9155 H   0  0  0  0  0  0  0  0  0  0  0  0
  151.9342  140.1543  159.7411 H   0  0  0  0  0  0  0  0  0  0  0  0
  149.4169  139.2140  152.7845 H   0  0  0  0  0  0  0  0  0  0  0  0
  149.2069  137.4901  153.0043 H   0  0  0  0  0  0  0  0  0  0  0  0
  150.5730  142.8404  155.8654 H   0  0  0  0  0  0  0  0  0  0  0  0
  153.0689  144.9059  160.1773 H   0  0  0  0  0  0  0  0  0  0  0  0
  153.1607  144.6346  158.4442 H   0  0  0  0  0  0  0  0  0  0  0  0
  150.8940  145.2839  158.4372 H   0  0  0  0  0  0  0  0  0  0  0  0
  153.4558  140.9170  160.9777 H   0  0  0  0  0  0  0  0  0  0  0  0
  152.4848  139.5032  157.6374 H   0  0  0  0  0  0  0  0  0  0  0  0
  1  2  1  0  0  0  0
  1 25  1  0  0  0  0
  1 26  1  0  0  0  0
  2  8  1  0  0  0  0
  2  3  2  0  0  0  0
  3  4  1  0  0  0  0
  4  5  1  0  0  0  0
  4  6  2  0  0  0  0
  6  7  1  0  0  0  0
  7 11  1  0  0  0  0
  7  8  2  0  0  0  0
  8  9  1  0  0  0  0
  9 10  2  0  0  0  0
 10 11  1  0  0  0  0
 10 27  1  0  0  0  0
 11 12  1  0  0  0  0
 12 21  1  0  0  0  0
 12 19  1  0  0  0  0
 12 13  1  0  0  0  0
 13 14  1  0  0  0  0
 14 22  1  0  0  0  0
 14 15  1  0  0  0  0
 14 17  1  0  0  0  0
 15 16  1  0  0  0  0
 15 28  1  0  0  0  0
 15 29  1  0  0  0  0
 16 30  1  0  0  0  0
 17 23  1  0  0  0  0
 17 18  1  0  0  0  0
 17 19  1  0  0  0  0
 18 31  1  0  0  0  0
 19 24  1  0  0  0  0
 19 20  1  0  0  0  0
 20 32  1  0  0  0  0
M  END
> <s_m_source_file>
AV-unprocessed.smi

> <i_m_source_file_index>
114

> <i_lp_mmshare_version>
43012

> <i_f3d_flags>
0

> <s_epik_input>
RmMobjEpbmMoW05IMl0pYyhjMTIpbltjSF1uMltDQEBIXTNPW0NASF0oW0NIMl1bT0hdKVtDQEBIXShbT0hdKVtDQEBIXTNbT0hd

> <s_epik_cmdline>
J2VwaWtfcHl0aG9uJywgJy1waCcsICc3LjAnLCAnLXRuJywgJzgnLCAnLW1hJywgJzIwMCcsICctbWV0YWxfYmluZGluZycsICctaW1hZScsICc8aW5maWxlLm1hZT4nLCAnLW9tYWUnLCAnPG91dGZpbGUubWFlPic=

> <r_lp_tautomer_probability>
1

> <r_epik_Ionization_Penalty>
1.13199e-05

> <r_epik_Ionization_Penalty_Charging>
0

> <r_epik_Ionization_Penalty_Neutral>
1.13199e-05

> <r_epik_State_Penalty>
-0

> <r_epik_Charging_Adjusted_Penalty>
0

> <i_epik_Tot_Q>
0

> <i_epik_Tot_abs_Q>
0

> <r_epik_Metal_State_Penalty>
-0

> <b_epik_Metal_Only>
0

> <s_epik_Chemistry_Notes>
This compound contains an acetal/aminal-like group ( X-CH(R)-Y where X, Y are N, S, or O) that may be acid/base labile, releasing an aldehyde.

> <s_lp_Force_Field>
OPLS_2005

> <r_lp_Energy>
35.9839

> <b_lp_Chiralities_Consistent>
1

> <s_lp_Variant>
AV-unprocessed.smi:114-1

> <Gold.Version>
5.8.1

> <Gold.Id.Protein>
6NUR|6NUR_protein|mol2

> <Gold.PLP.Fitness>
44.7815

> <Gold.PLP.PLP>
-31.0028

> <Gold.PLP.part.hbond>
-4.9603

> <Gold.PLP.part.metal>
0.0000

> <Gold.PLP.part.buried>
-4.9710

> <Gold.PLP.part.nonpolar>
-21.3455

> <Gold.PLP.part.repulsive>
0.3586

> <Gold.PLP.ligand.clash>
0.0000

> <Gold.PLP.ligand.torsion>
0.0169

> <Gold.PLP.Chemscore.Hbond>
3.6000

> <Gold.PLP.Chemscore.CHOScore>
1.0000

> <Gold.PLP.Chemscore.Metal>
0.0000

> <Gold.Chemscore.Hbonds>
donor molecule, donor type, donor heavy atom, donor atom, acceptor molecule, acceptor atom, score
      L1  H     1    25       P1  7957  1.00
      L1  H     1    26       P1  7948  1.00
      P1  H  7989  7998       L1     9  0.64
      P1  H  7997  8010       L1    20  0.96
      L1  C    10    27       P1  8028  1.00

> <Gold.PLP.Chemscore.Internal.Correction>
0.0125

> <Gold.Rescore>
     Score         DG    S(hbond)    S(metal)    S(lipo)     H(rot)  DE(clash)    DE(int)     intcor
     10.34     -10.47       2.88        0.00      48.49       4.03       0.06       0.06       ----

> <Gold.Chemscore.Fitness>
10.3449

> <Gold.Chemscore.DG>
-10.4677

> <Gold.Chemscore.ZeroCoef>
-5.4800

> <Gold.Chemscore.Hbond>
2.8818

> <Gold.Chemscore.Metal>
0.0000

> <Gold.Chemscore.Lipo>
48.4916

> <Gold.Chemscore.Internal_Hbond>
0.0000

> <Gold.Chemscore.DEClash>
0.0591

> <Gold.Chemscore.DEInternal>
0.0637

> <Gold.Chemscore.Rot>
4.0277

> <Gold.Chemscore.Internal.Correction>
   9.000000E+99

> <Gold.Chemscore.Hbonds>
donor molecule, donor type, donor heavy atom, donor atom, acceptor molecule, acceptor atom, score
      L1  H     1    25       P1  7957  0.96
      L1  H     1    26       P1  7948  0.98
      P1  H  7989  7998       L1     9  0.16
      P1  H  7997  8010       L1    20  0.24

> <Gold.Chemscore.Hbond.Weighted>
-9.6252

> <Gold.Chemscore.Metal.Weighted>
-0.0000

> <Gold.Chemscore.Lipo.Weighted>
-5.6735

> <Gold.Chemscore.Internal_Hbond.Weighted>
0.0000

> <Gold.Chemscore.DEClash.Weighted>
0.0591

> <Gold.Chemscore.DEInternal.Weighted>
0.0637

> <Gold.Chemscore.Rot.Weighted>
10.3110

> <Gold.Chemscore.Internal.Correction.Weighted>
   9.000000E+99

> <Gold.Protein.RotatedTorsions>
[ 6907 6896 6895 6894 ] final   77.09 input  -60.11 | X-H torsion
[ 7974 7965 7964 7962 ] final  -82.63 input  175.53 | X-H torsion
[ 8008 7997 7996 7995 ] final   39.66 input   59.86 | X-H torsion
[ 10167 10162 10161 10158 ] final  -23.12 input  -65.29 | X-H torsion
[ 10718 10713 10712 10709 ] final -176.12 input   66.30 | X-H torsion
[ 10763 10752 10751 10750 ] final -123.84 input  -60.55 | X-H torsion
[ 11005 11000 10999 10996 ] final   26.13 input  -57.11 | X-H torsion

> <Gold.Protein.ActiveResidues>
 VAL166  LYS551  ARG553  GLY616  TRP617  ASP618  TYR619  PRO620  LYS621  CYS622 
 ASP623  PHE694  ASN695  SER759  ASP760  ASP761  ALA762  ILE779  LEU786  VAL792 
 PHE793  MET794  SER795  GLU796  ALA797  LYS798  CYS799  TRP800  GLU811  SER814 

> <Gold.Protein.RotatedAtoms>
  152.5102  134.3870  159.9370 H   0  0  0  0  0  0  0  0  0  0  0  0  # atno 6907 bound_to 6896
  151.3829  133.3809  159.2720 H   0  0  0  0  0  0  0  0  0  0  0  0  # atno 6908 bound_to 6896
  150.9491  134.8913  159.7719 H   0  0  0  0  0  0  0  0  0  0  0  0  # atno 6909 bound_to 6896
  145.5307  140.9521  143.1605 H   0  0  0  0  0  0  0  0  0  0  0  0  # atno 7974 bound_to 7965
  155.2404  140.3345  155.4293 H   0  0  0  0  0  0  0  0  0  0  0  0  # atno 8008 bound_to 7997
  156.2258  140.1829  156.7411 H   0  0  0  0  0  0  0  0  0  0  0  0  # atno 8009 bound_to 7997
  154.5897  140.0640  156.9206 H   0  0  0  0  0  0  0  0  0  0  0  0  # atno 8010 bound_to 7997
  140.7287  143.4472  151.0569 H   0  0  0  0  0  0  0  0  0  0  0  0  # atno 10167 bound_to 10162
  156.8099  130.9582  151.3116 H   0  0  0  0  0  0  0  0  0  0  0  0  # atno 10718 bound_to 10713
  154.8714  135.4084  154.3009 H   0  0  0  0  0  0  0  0  0  0  0  0  # atno 10763 bound_to 10752
  153.3869  135.7013  153.6529 H   0  0  0  0  0  0  0  0  0  0  0  0  # atno 10764 bound_to 10752
  153.5328  135.3664  155.2655 H   0  0  0  0  0  0  0  0  0  0  0  0  # atno 10765 bound_to 10752
  140.3403  134.2340  155.7691 H   0  0  0  0  0  0  0  0  0  0  0  0  # atno 11005 bound_to 11000
  144.7627  139.6917  143.7227 LP  0  0  0  0  0  0  0  0  0  0  0  0  # atno 17320 bound_to 7965
  146.2046  139.5362  142.9721 LP  0  0  0  0  0  0  0  0  0  0  0  0  # atno 17321 bound_to 7965
  139.8145  143.7905  152.3173 LP  0  0  0  0  0  0  0  0  0  0  0  0  # atno 17342 bound_to 10162
  139.7966  144.7390  150.9882 LP  0  0  0  0  0  0  0  0  0  0  0  0  # atno 17343 bound_to 10162
  157.6511  130.8885  149.9635 LP  0  0  0  0  0  0  0  0  0  0  0  0  # atno 17370 bound_to 10713
  156.1050  130.3653  150.0149 LP  0  0  0  0  0  0  0  0  0  0  0  0  # atno 17371 bound_to 10713
  141.2040  133.7897  157.0309 LP  0  0  0  0  0  0  0  0  0  0  0  0  # atno 17394 bound_to 11000
  140.0786  134.9661  157.1587 LP  0  0  0  0  0  0  0  0  0  0  0  0  # atno 17395 bound_to 11000

$$$$
