AV-unprocessed.smi:2066|AV-procd|sdf|8422|dock6
  -GOLD-   2272011113D 1   1.00000     0.00000
 Structure written by MMmdl.
 39 40  0  0  0  0  0  0  0  0  3 V2000
  149.2047  135.5977  156.8797 C   0  0  0  0  0  0  0  0  0  0  0  0
  149.1396  135.4915  155.3353 C   0  0  0  0  0  0  0  0  0  0  0  0
  150.0732  134.3165  154.9490 C   0  0  0  0  0  0  0  0  0  0  0  0
  147.6861  135.1822  154.8643 C   0  0  0  0  0  0  0  0  0  0  0  0
  147.6253  134.5398  153.5519 N   0  0  0  0  0  0  0  0  0  0  0  0
  146.5916  133.8489  153.0498 C   0  0  0  0  0  0  0  0  0  0  0  0
  145.5589  133.7159  153.7103 O   0  0  0  0  0  0  0  0  0  0  0  0
  146.8253  133.3446  151.8178 N   0  5  0  0  0  0  0  0  0  0  0  0
  145.7963  132.9620  151.0442 C   0  0  0  0  0  0  0  0  0  0  0  0
  144.5237  133.2766  151.3121 N   0  0  0  0  0  0  0  0  0  0  0  0
  143.6193  132.7760  150.3738 C   0  0  0  0  0  0  0  0  0  0  0  0
  144.2183  132.0731  149.3623 C   0  0  0  0  0  0  0  0  0  0  0  0
  145.9466  132.0171  149.5599 S   0  0  0  0  0  0  0  0  0  0  0  0
  149.6496  136.7741  154.7298 N   0  3  0  0  0  0  0  0  0  0  0  0
  148.8419  137.9946  155.0110 C   0  0  0  0  0  0  0  0  0  0  0  0
  149.3580  139.1857  154.1864 C   0  0  0  0  0  0  0  0  0  0  0  0
  150.7302  139.4129  154.4750 O   0  0  0  0  0  0  0  0  0  0  0  0
  151.5310  138.2909  154.1319 C   0  0  0  0  0  0  0  0  0  0  0  0
  151.0926  137.0706  154.9579 C   0  0  0  0  0  0  0  0  0  0  0  0
  149.0504  134.6302  157.3586 H   0  0  0  0  0  0  0  0  0  0  0  0
  148.4389  136.2595  157.2833 H   0  0  0  0  0  0  0  0  0  0  0  0
  150.1762  135.9638  157.2134 H   0  0  0  0  0  0  0  0  0  0  0  0
  149.8516  133.4185  155.5270 H   0  0  0  0  0  0  0  0  0  0  0  0
  151.1198  134.5631  155.1316 H   0  0  0  0  0  0  0  0  0  0  0  0
  149.9708  134.0325  153.9020 H   0  0  0  0  0  0  0  0  0  0  0  0
  147.1549  134.5708  155.5936 H   0  0  0  0  0  0  0  0  0  0  0  0
  147.1121  136.1040  154.7777 H   0  0  0  0  0  0  0  0  0  0  0  0
  148.4454  134.6216  152.9689 H   0  0  0  0  0  0  0  0  0  0  0  0
  142.5650  132.9696  150.5037 H   0  0  0  0  0  0  0  0  0  0  0  0
  143.7525  131.5883  148.5178 H   0  0  0  0  0  0  0  0  0  0  0  0
  147.7937  137.8505  154.7575 H   0  0  0  0  0  0  0  0  0  0  0  0
  148.8865  138.2412  156.0720 H   0  0  0  0  0  0  0  0  0  0  0  0
  149.2222  139.0082  153.1182 H   0  0  0  0  0  0  0  0  0  0  0  0
  148.7931  140.0848  154.4326 H   0  0  0  0  0  0  0  0  0  0  0  0
  151.4578  138.0859  153.0627 H   0  0  0  0  0  0  0  0  0  0  0  0
  152.5745  138.5282  154.3393 H   0  0  0  0  0  0  0  0  0  0  0  0
  151.2768  137.2711  156.0135 H   0  0  0  0  0  0  0  0  0  0  0  0
  151.7247  136.2310  154.6755 H   0  0  0  0  0  0  0  0  0  0  0  0
  149.5660  136.6295  153.7339 H   0  0  0  0  0  0  0  0  0  0  0  0
  1  2  1  0  0  0  0
  1 20  1  0  0  0  0
  1 21  1  0  0  0  0
  1 22  1  0  0  0  0
  2  3  1  0  0  0  0
  2  4  1  0  0  0  0
  2 14  1  0  0  0  0
  3 23  1  0  0  0  0
  3 24  1  0  0  0  0
  3 25  1  0  0  0  0
  4  5  1  0  0  0  0
  4 26  1  0  0  0  0
  4 27  1  0  0  0  0
  5  6  1  0  0  0  0
  5 28  1  0  0  0  0
  6  7  2  0  0  0  0
  6  8  1  0  0  0  0
  8  9  1  0  0  0  0
  9 13  1  0  0  0  0
  9 10  2  0  0  0  0
 10 11  1  0  0  0  0
 11 12  2  0  0  0  0
 11 29  1  0  0  0  0
 12 13  1  0  0  0  0
 12 30  1  0  0  0  0
 14 19  1  0  0  0  0
 14 15  1  0  0  0  0
 14 39  1  0  0  0  0
 15 16  1  0  0  0  0
 15 31  1  0  0  0  0
 15 32  1  0  0  0  0
 16 17  1  0  0  0  0
 16 33  1  0  0  0  0
 16 34  1  0  0  0  0
 17 18  1  0  0  0  0
 18 19  1  0  0  0  0
 18 35  1  0  0  0  0
 18 36  1  0  0  0  0
 19 37  1  0  0  0  0
 19 38  1  0  0  0  0
M  CHG  1   8  -1
M  CHG  1  14   1
M  END
> <s_m_source_file>
AV-unprocessed.smi

> <i_m_source_file_index>
2066

> <i_lp_mmshare_version>
43012

> <i_f3d_flags>
0

> <s_epik_input>
W0NIMl0xW0NIMl1PW0NIMl1bQ0gyXU4xQyhbQ0gzXSkoW0NIM10pW0NIMl1bTkhdQyg9TylbTkhdYzJuW2NIXVtjSF1zMg==

> <s_epik_cmdline>
J2VwaWtfcHl0aG9uJywgJy1waCcsICc3LjAnLCAnLXRuJywgJzgnLCAnLW1hJywgJzIwMCcsICctbWV0YWxfYmluZGluZycsICctaW1hZScsICc8aW5maWxlLm1hZT4nLCAnLW9tYWUnLCAnPG91dGZpbGUubWFlPic=

> <r_lp_tautomer_probability>
0.999

> <r_epik_Ionization_Penalty>
6.71078

> <r_epik_Ionization_Penalty_Charging>
5.8797

> <r_epik_Ionization_Penalty_Neutral>
0.831074

> <r_epik_State_Penalty>
6.07743

> <r_epik_Charging_Adjusted_Penalty>
11.9571

> <i_epik_Tot_Q>
0

> <i_epik_Tot_abs_Q>
2

> <r_epik_Metal_State_Penalty>
2.08929

> <b_epik_Metal_Only>
1

> <s_lp_Force_Field>
OPLS_2005

> <r_lp_Energy>
15.1529

> <b_lp_Chiralities_Consistent>
1

> <s_lp_Variant>
AV-unprocessed.smi:2066-4

> <Gold.Version>
5.8.1

> <Gold.Id.Protein>
6NUR|6NUR_protein|mol2

> <Gold.PLP.Fitness>
41.1798

> <Gold.PLP.PLP>
-28.5496

> <Gold.PLP.part.hbond>
-3.0000

> <Gold.PLP.part.metal>
0.0000

> <Gold.PLP.part.buried>
-3.5792

> <Gold.PLP.part.nonpolar>
-22.8736

> <Gold.PLP.part.repulsive>
0.5524

> <Gold.PLP.ligand.clash>
0.0000

> <Gold.PLP.ligand.torsion>
0.6353

> <Gold.PLP.Chemscore.Hbond>
3.5760

> <Gold.PLP.Chemscore.CHOScore>
1.0000

> <Gold.PLP.Chemscore.Metal>
0.0000

> <Gold.Chemscore.Hbonds>
donor molecule, donor type, donor heavy atom, donor atom, acceptor molecule, acceptor atom, score
      L1  H     5    28       P1  7948  0.54
      L1  H    14    39       P1  7948  2.00
      P1  H  7989  7998       L1    17  1.00
      L1  C    11    29       P1 10186  1.00

> <Gold.PLP.Chemscore.Internal.Correction>
0.1729

> <Gold.Rescore>
     Score         DG    S(hbond)    S(metal)    S(lipo)     H(rot)  DE(clash)    DE(int)     intcor
     13.08     -15.45       1.69        0.00      71.66       1.59       0.17       2.20       ----

> <Gold.Chemscore.Fitness>
13.0757

> <Gold.Chemscore.DG>
-15.4477

> <Gold.Chemscore.ZeroCoef>
-5.4800

> <Gold.Chemscore.Hbond>
1.6947

> <Gold.Chemscore.Metal>
0.0000

> <Gold.Chemscore.Lipo>
71.6625

> <Gold.Chemscore.Internal_Hbond>
0.0000

> <Gold.Chemscore.DEClash>
0.1735

> <Gold.Chemscore.DEInternal>
2.1985

> <Gold.Chemscore.Rot>
1.5926

> <Gold.Chemscore.Internal.Correction>
   9.000000E+99

> <Gold.Chemscore.Hbonds>
donor molecule, donor type, donor heavy atom, donor atom, acceptor molecule, acceptor atom, score
      L1  H     5    28       P1  7948  0.22
      L1  H    14    39       P1  7948  0.73
      P1  H  7989  7998       L1    17  0.28

> <Gold.Chemscore.Hbond.Weighted>
-5.6602

> <Gold.Chemscore.Metal.Weighted>
-0.0000

> <Gold.Chemscore.Lipo.Weighted>
-8.3845

> <Gold.Chemscore.Internal_Hbond.Weighted>
0.0000

> <Gold.Chemscore.DEClash.Weighted>
0.1735

> <Gold.Chemscore.DEInternal.Weighted>
2.1985

> <Gold.Chemscore.Rot.Weighted>
4.0770

> <Gold.Chemscore.Internal.Correction.Weighted>
   9.000000E+99

> <Gold.Protein.RotatedTorsions>
[ 6907 6896 6895 6894 ] final    1.40 input  -60.11 | X-H torsion
[ 7974 7965 7964 7962 ] final   69.86 input  175.53 | X-H torsion
[ 8008 7997 7996 7995 ] final  -60.41 input   59.86 | X-H torsion
[ 10167 10162 10161 10158 ] final -163.39 input  -65.29 | X-H torsion
[ 10718 10713 10712 10709 ] final -137.20 input   66.30 | X-H torsion
[ 10763 10752 10751 10750 ] final -135.43 input  -60.55 | X-H torsion
[ 11005 11000 10999 10996 ] final  157.59 input  -57.11 | X-H torsion

> <Gold.Protein.ActiveResidues>
 VAL166  LYS551  ARG553  GLY616  TRP617  ASP618  TYR619  PRO620  LYS621  CYS622 
 ASP623  PHE694  ASN695  SER759  ASP760  ASP761  ALA762  ILE779  LEU786  VAL792 
 PHE793  MET794  SER795  GLU796  ALA797  LYS798  CYS799  TRP800  GLU811  SER814 

> <Gold.Protein.RotatedAtoms>
  151.5921  135.1053  160.0040 H   0  0  0  0  0  0  0  0  0  0  0  0  # atno 6907 bound_to 6896
  152.4301  133.7259  159.6570 H   0  0  0  0  0  0  0  0  0  0  0  0  # atno 6908 bound_to 6896
  150.8193  133.8210  159.3169 H   0  0  0  0  0  0  0  0  0  0  0  0  # atno 6909 bound_to 6896
  145.7852  139.2907  143.1242 H   0  0  0  0  0  0  0  0  0  0  0  0  # atno 7974 bound_to 7965
  154.4397  140.1040  156.6269 H   0  0  0  0  0  0  0  0  0  0  0  0  # atno 8008 bound_to 7997
  155.5647  140.3488  155.4481 H   0  0  0  0  0  0  0  0  0  0  0  0  # atno 8009 bound_to 7997
  156.0434  140.1287  157.0120 H   0  0  0  0  0  0  0  0  0  0  0  0  # atno 8010 bound_to 7997
  139.6324  144.0414  152.2027 H   0  0  0  0  0  0  0  0  0  0  0  0  # atno 10167 bound_to 10162
  156.2855  130.7345  151.1355 H   0  0  0  0  0  0  0  0  0  0  0  0  # atno 10718 bound_to 10713
  154.8703  135.3704  154.4896 H   0  0  0  0  0  0  0  0  0  0  0  0  # atno 10763 bound_to 10752
  153.5544  135.7024  153.5581 H   0  0  0  0  0  0  0  0  0  0  0  0  # atno 10764 bound_to 10752
  153.3685  135.4027  155.1735 H   0  0  0  0  0  0  0  0  0  0  0  0  # atno 10765 bound_to 10752
  140.1784  134.8493  157.2774 H   0  0  0  0  0  0  0  0  0  0  0  0  # atno 11005 bound_to 11000
  146.0033  140.8501  143.0007 LP  0  0  0  0  0  0  0  0  0  0  0  0  # atno 17320 bound_to 7965
  144.6790  140.2384  143.7347 LP  0  0  0  0  0  0  0  0  0  0  0  0  # atno 17321 bound_to 7965
  140.0083  144.6243  150.7670 LP  0  0  0  0  0  0  0  0  0  0  0  0  # atno 17342 bound_to 10162
  140.7446  143.2864  151.3452 LP  0  0  0  0  0  0  0  0  0  0  0  0  # atno 17343 bound_to 10162
  157.7327  131.0597  150.5614 LP  0  0  0  0  0  0  0  0  0  0  0  0  # atno 17370 bound_to 10713
  156.5725  130.4283  149.6013 LP  0  0  0  0  0  0  0  0  0  0  0  0  # atno 17371 bound_to 10713
  140.2295  134.3926  155.7528 LP  0  0  0  0  0  0  0  0  0  0  0  0  # atno 17394 bound_to 11000
  141.2222  133.7208  156.8619 LP  0  0  0  0  0  0  0  0  0  0  0  0  # atno 17395 bound_to 11000

$$$$
