AV-unprocessed.smi:2303|AV-procd|sdf|9242|dock4
  -GOLD-   2272012463D 1   1.00000     0.00000
 Structure written by MMmdl.
 33 34  0  0  0  0  0  0  0  0  1 V2000
  152.7204  144.8761  157.9578 C   0  0  0  0  0  0  0  0  0  0  0  0
  151.3383  144.2006  158.0104 C   0  0  0  0  0  0  0  0  0  0  0  0
  150.6774  144.4263  159.3820 C   0  0  0  0  0  0  0  0  0  0  0  0
  151.3626  142.7193  157.6312 C   0  0  0  0  0  0  0  0  0  0  0  0
  150.7842  142.1584  156.5498 C   0  0  0  0  0  0  0  0  0  0  0  0
  150.9043  140.7253  156.3435 C   0  0  0  0  0  0  0  0  0  0  0  0
  150.3275  140.1516  155.1268 C   0  0  0  0  0  0  0  0  0  0  0  0
  151.0068  139.6021  154.2592 O   0  0  0  0  0  0  0  0  0  0  0  0
  148.9860  140.2557  154.9905 N   0  0  0  0  0  0  0  0  0  0  0  0
  148.1741  139.8361  153.8559 C   0  0  0  0  0  0  0  0  0  0  0  0
  146.8673  140.5846  154.0456 C   0  0  0  0  0  0  0  0  0  0  0  0
  147.3002  141.7973  154.8540 C   0  0  0  0  0  0  0  0  0  0  0  0
  148.3082  141.2695  155.6988 O   0  0  0  0  0  0  0  0  0  0  0  0
  151.6170  139.9762  157.2212 C   0  0  0  0  0  0  0  0  0  0  0  0
  152.2343  140.5723  158.4080 C   0  0  0  0  0  0  0  0  0  0  0  0
  152.8668  139.9304  159.2432 O   0  0  0  0  0  0  0  0  0  0  0  0
  152.0659  141.9087  158.5351 N   0  0  0  0  0  0  0  0  0  0  0  0
  153.1727  144.7794  156.9704 H   0  0  0  0  0  0  0  0  0  0  0  0
  153.4052  144.4446  158.6888 H   0  0  0  0  0  0  0  0  0  0  0  0
  152.6409  145.9420  158.1728 H   0  0  0  0  0  0  0  0  0  0  0  0
  150.7159  144.6951  157.2631 H   0  0  0  0  0  0  0  0  0  0  0  0
  149.6500  144.0622  159.4034 H   0  0  0  0  0  0  0  0  0  0  0  0
  150.6471  145.4871  159.6321 H   0  0  0  0  0  0  0  0  0  0  0  0
  151.2281  143.9158  160.1728 H   0  0  0  0  0  0  0  0  0  0  0  0
  150.2354  142.7583  155.8389 H   0  0  0  0  0  0  0  0  0  0  0  0
  148.6568  140.1330  152.9232 H   0  0  0  0  0  0  0  0  0  0  0  0
  148.0300  138.7552  153.8425 H   0  0  0  0  0  0  0  0  0  0  0  0
  146.3821  140.8477  153.1053 H   0  0  0  0  0  0  0  0  0  0  0  0
  146.1739  139.9790  154.6307 H   0  0  0  0  0  0  0  0  0  0  0  0
  147.7346  142.5602  154.2061 H   0  0  0  0  0  0  0  0  0  0  0  0
  146.4860  142.2458  155.4233 H   0  0  0  0  0  0  0  0  0  0  0  0
  151.7560  138.9174  157.0545 H   0  0  0  0  0  0  0  0  0  0  0  0
  152.4754  142.3703  159.3342 H   0  0  0  0  0  0  0  0  0  0  0  0
  1  2  1  0  0  0  0
  1 18  1  0  0  0  0
  1 19  1  0  0  0  0
  1 20  1  0  0  0  0
  2  3  1  0  0  0  0
  2 21  1  0  0  0  0
  2  4  1  0  0  0  0
  3 22  1  0  0  0  0
  3 23  1  0  0  0  0
  3 24  1  0  0  0  0
  4 17  1  0  0  0  0
  4  5  2  0  0  0  0
  5 25  1  0  0  0  0
  5  6  1  0  0  0  0
  6  7  1  0  0  0  0
  6 14  2  0  0  0  0
  7  8  2  0  0  0  0
  7  9  1  0  0  0  0
  9 13  1  0  0  0  0
  9 10  1  0  0  0  0
 10 11  1  0  0  0  0
 10 26  1  0  0  0  0
 10 27  1  0  0  0  0
 11 12  1  0  0  0  0
 11 28  1  0  0  0  0
 11 29  1  0  0  0  0
 12 13  1  0  0  0  0
 12 30  1  0  0  0  0
 12 31  1  0  0  0  0
 14 15  1  0  0  0  0
 14 32  1  0  0  0  0
 15 16  2  0  0  0  0
 15 17  1  0  0  0  0
 17 33  1  0  0  0  0
M  END
> <s_m_source_file>
AV-unprocessed.smi

> <i_m_source_file_index>
2303

> <i_lp_mmshare_version>
43012

> <i_f3d_flags>
0

> <s_epik_input>
W0NIM11bQ0hdKFtDSDNdKWMxW2NIXWMoW2NIXWMobjEpW09IXSlDKD1PKU4yW0NIMl1bQ0gyXVtDSDJdTzI=

> <s_epik_cmdline>
J2VwaWtfcHl0aG9uJywgJy1waCcsICc3LjAnLCAnLXRuJywgJzgnLCAnLW1hJywgJzIwMCcsICctbWV0YWxfYmluZGluZycsICctaW1hZScsICc8aW5maWxlLm1hZT4nLCAnLW9tYWUnLCAnPG91dGZpbGUubWFlPic=

> <r_lp_tautomer_probability>
1

> <r_epik_Ionization_Penalty>
8.70942e-05

> <r_epik_Ionization_Penalty_Charging>
8.7046e-05

> <r_epik_Ionization_Penalty_Neutral>
4.82304e-08

> <r_epik_State_Penalty>
-0

> <r_epik_Charging_Adjusted_Penalty>
8.7046e-05

> <i_epik_Tot_Q>
0

> <i_epik_Tot_abs_Q>
0

> <r_epik_Metal_State_Penalty>
0.0811253

> <b_epik_Metal_Only>
0

> <s_epik_Chemistry_Notes>
This compound has a N-S or N-O group and may undergo hydrolysis at high or low pH.

> <s_lp_Force_Field>
OPLS_2005

> <r_lp_Energy>
27.1372

> <b_lp_Chiralities_Consistent>
1

> <s_lp_Variant>
AV-unprocessed.smi:2303-1

> <Gold.Version>
5.8.1

> <Gold.Id.Protein>
6NUR|6NUR_protein|mol2

> <Gold.PLP.Fitness>
35.7587

> <Gold.PLP.PLP>
-34.1463

> <Gold.PLP.part.hbond>
-1.0000

> <Gold.PLP.part.metal>
0.0000

> <Gold.PLP.part.buried>
-2.9632

> <Gold.PLP.part.nonpolar>
-30.8907

> <Gold.PLP.part.repulsive>
0.3177

> <Gold.PLP.ligand.clash>
0.0000

> <Gold.PLP.ligand.torsion>
1.3028

> <Gold.PLP.Chemscore.Hbond>
1.0000

> <Gold.PLP.Chemscore.CHOScore>
0.0000

> <Gold.PLP.Chemscore.Metal>
0.0000

> <Gold.Chemscore.Hbonds>
donor molecule, donor type, donor heavy atom, donor atom, acceptor molecule, acceptor atom, score
      P1  H  7989  7998       L1     8  1.00

> <Gold.PLP.Chemscore.Internal.Correction>
1.2181

> <Gold.Rescore>
     Score         DG    S(hbond)    S(metal)    S(lipo)     H(rot)  DE(clash)    DE(int)     intcor
     13.10     -15.70       0.94        0.00      82.50       1.00       0.05       2.55       ----

> <Gold.Chemscore.Fitness>
13.1003

> <Gold.Chemscore.DG>
-15.7023

> <Gold.Chemscore.ZeroCoef>
-5.4800

> <Gold.Chemscore.Hbond>
0.9370

> <Gold.Chemscore.Metal>
0.0000

> <Gold.Chemscore.Lipo>
82.5021

> <Gold.Chemscore.Internal_Hbond>
0.0000

> <Gold.Chemscore.DEClash>
0.0531

> <Gold.Chemscore.DEInternal>
2.5489

> <Gold.Chemscore.Rot>
1.0000

> <Gold.Chemscore.Internal.Correction>
   9.000000E+99

> <Gold.Chemscore.Hbonds>
donor molecule, donor type, donor heavy atom, donor atom, acceptor molecule, acceptor atom, score
      P1  H  7989  7998       L1     8  0.34

> <Gold.Chemscore.Hbond.Weighted>
-3.1295

> <Gold.Chemscore.Metal.Weighted>
-0.0000

> <Gold.Chemscore.Lipo.Weighted>
-9.6527

> <Gold.Chemscore.Internal_Hbond.Weighted>
0.0000

> <Gold.Chemscore.DEClash.Weighted>
0.0531

> <Gold.Chemscore.DEInternal.Weighted>
2.5489

> <Gold.Chemscore.Rot.Weighted>
2.5600

> <Gold.Chemscore.Internal.Correction.Weighted>
   9.000000E+99

> <Gold.Protein.RotatedTorsions>
[ 6907 6896 6895 6894 ] final   58.53 input  -60.11 | X-H torsion
[ 7974 7965 7964 7962 ] final  -95.07 input  175.53 | X-H torsion
[ 8008 7997 7996 7995 ] final  -49.10 input   59.86 | X-H torsion
[ 10167 10162 10161 10158 ] final   87.19 input  -65.29 | X-H torsion
[ 10718 10713 10712 10709 ] final -106.93 input   66.30 | X-H torsion
[ 10763 10752 10751 10750 ] final  169.31 input  -60.55 | X-H torsion
[ 11005 11000 10999 10996 ] final   11.32 input  -57.11 | X-H torsion

> <Gold.Protein.ActiveResidues>
 VAL166  LYS551  ARG553  GLY616  TRP617  ASP618  TYR619  PRO620  LYS621  CYS622 
 ASP623  PHE694  ASN695  SER759  ASP760  ASP761  ALA762  ILE779  LEU786  VAL792 
 PHE793  MET794  SER795  GLU796  ALA797  LYS798  CYS799  TRP800  GLU811  SER814 

> <Gold.Protein.RotatedAtoms>
  152.3832  134.6558  160.0134 H   0  0  0  0  0  0  0  0  0  0  0  0  # atno 6907 bound_to 6896
  151.6814  133.3306  159.3228 H   0  0  0  0  0  0  0  0  0  0  0  0  # atno 6908 bound_to 6896
  150.7764  134.6713  159.6438 H   0  0  0  0  0  0  0  0  0  0  0  0  # atno 6909 bound_to 6896
  145.3650  140.9497  143.2479 H   0  0  0  0  0  0  0  0  0  0  0  0  # atno 7974 bound_to 7965
  154.4038  140.1305  156.4446 H   0  0  0  0  0  0  0  0  0  0  0  0  # atno 8008 bound_to 7997
  155.7425  140.3489  155.5091 H   0  0  0  0  0  0  0  0  0  0  0  0  # atno 8009 bound_to 7997
  155.9026  140.1022  157.1329 H   0  0  0  0  0  0  0  0  0  0  0  0  # atno 8010 bound_to 7997
  139.8798  144.6446  150.8855 H   0  0  0  0  0  0  0  0  0  0  0  0  # atno 10167 bound_to 10162
  156.0413  130.5637  150.7750 H   0  0  0  0  0  0  0  0  0  0  0  0  # atno 10718 bound_to 10713
  154.3812  135.2753  155.2210 H   0  0  0  0  0  0  0  0  0  0  0  0  # atno 10763 bound_to 10752
  154.4315  135.5976  153.6075 H   0  0  0  0  0  0  0  0  0  0  0  0  # atno 10764 bound_to 10752
  152.9834  135.5997  154.4055 H   0  0  0  0  0  0  0  0  0  0  0  0  # atno 10765 bound_to 10752
  140.5045  134.0713  155.7802 H   0  0  0  0  0  0  0  0  0  0  0  0  # atno 11005 bound_to 11000
  144.8618  139.5165  143.6808 LP  0  0  0  0  0  0  0  0  0  0  0  0  # atno 17320 bound_to 7965
  146.2911  139.7141  142.9160 LP  0  0  0  0  0  0  0  0  0  0  0  0  # atno 17321 bound_to 7965
  140.7746  143.3595  151.1856 LP  0  0  0  0  0  0  0  0  0  0  0  0  # atno 17342 bound_to 10162
  139.7206  143.9229  152.2984 LP  0  0  0  0  0  0  0  0  0  0  0  0  # atno 17343 bound_to 10162
  157.5234  131.0933  151.0050 LP  0  0  0  0  0  0  0  0  0  0  0  0  # atno 17370 bound_to 10713
  157.0374  130.5735  149.5351 LP  0  0  0  0  0  0  0  0  0  0  0  0  # atno 17371 bound_to 10713
  141.1418  133.9125  157.2308 LP  0  0  0  0  0  0  0  0  0  0  0  0  # atno 17394 bound_to 11000
  139.9694  135.0132  156.9472 LP  0  0  0  0  0  0  0  0  0  0  0  0  # atno 17395 bound_to 11000

$$$$
