AV-unprocessed.smi:2355|AV-procd|sdf|9385|dock10
  -GOLD-   2272013 13D 1   1.00000     0.00000
 Structure written by MMmdl.
 48 49  0  0  0  0  0  0  0  0  1 V2000
  151.8996  145.8909  160.1168 C   0  0  0  0  0  0  0  0  0  0  0  0
  151.8213  144.5124  159.4952 C   0  0  0  0  0  0  0  0  0  0  0  0
  152.6307  143.4600  159.9641 C   0  0  0  0  0  0  0  0  0  0  0  0
  152.5102  142.2015  159.3428 C   0  0  0  0  0  0  0  0  0  0  0  0
  153.3523  141.0263  159.7929 C   0  0  0  0  0  0  0  0  0  0  0  0
  151.6574  141.9614  158.3241 N   0  0  0  0  0  0  0  0  0  0  0  0
  150.8717  142.9670  157.8651 C   0  0  0  0  0  0  0  0  0  0  0  0
  149.9396  142.8174  156.8040 N   0  0  0  0  0  0  0  0  0  0  0  0
  149.1569  141.7593  156.5288 C   0  0  0  0  0  0  0  0  0  0  0  0
  149.1429  140.7012  157.1589 O   0  0  0  0  0  0  0  0  0  0  0  0
  148.3749  142.0017  155.4666 N   0  0  0  0  0  0  0  0  0  0  0  0
  147.3700  141.0905  154.9184 C   0  0  2  0  0  0  0  0  0  0  0  0
  147.7786  140.6603  153.4979 C   0  0  0  0  0  0  0  0  0  0  0  0
  145.9433  141.7156  155.0248 C   0  0  2  0  0  0  0  0  0  0  0  0
  145.9111  143.0838  154.2952 C   0  0  0  0  0  0  0  0  0  0  0  0
  145.4303  141.8005  156.4162 N   0  0  0  0  0  0  0  0  0  0  0  0
  145.5582  140.5326  157.1440 C   0  0  0  0  0  0  0  0  0  0  0  0
  145.0422  140.6177  158.5911 C   0  0  0  0  0  0  0  0  0  0  0  0
  145.7274  141.6508  159.2849 O   0  0  0  0  0  0  0  0  0  0  0  0
  145.5620  142.9139  158.6564 C   0  0  0  0  0  0  0  0  0  0  0  0
  146.0854  142.8466  157.2115 C   0  0  0  0  0  0  0  0  0  0  0  0
  150.9313  144.2600  158.4316 C   0  0  0  0  0  0  0  0  0  0  0  0
  152.6152  145.9160  160.9392 H   0  0  0  0  0  0  0  0  0  0  0  0
  150.9244  146.1862  160.5045 H   0  0  0  0  0  0  0  0  0  0  0  0
  152.2104  146.6234  159.3714 H   0  0  0  0  0  0  0  0  0  0  0  0
  153.3253  143.6128  160.7770 H   0  0  0  0  0  0  0  0  0  0  0  0
  153.9311  141.2724  160.6837 H   0  0  0  0  0  0  0  0  0  0  0  0
  154.0469  140.7359  159.0043 H   0  0  0  0  0  0  0  0  0  0  0  0
  152.7183  140.1699  160.0251 H   0  0  0  0  0  0  0  0  0  0  0  0
  149.8453  143.6155  156.1939 H   0  0  0  0  0  0  0  0  0  0  0  0
  148.4569  142.9010  155.0158 H   0  0  0  0  0  0  0  0  0  0  0  0
  147.3713  140.1560  155.4774 H   0  0  0  0  0  0  0  0  0  0  0  0
  147.0005  140.0568  153.0299 H   0  0  0  0  0  0  0  0  0  0  0  0
  148.6859  140.0559  153.5273 H   0  0  0  0  0  0  0  0  0  0  0  0
  147.9864  141.5101  152.8484 H   0  0  0  0  0  0  0  0  0  0  0  0
  145.2766  141.0532  154.4703 H   0  0  0  0  0  0  0  0  0  0  0  0
  146.3139  143.0249  153.2860 H   0  0  0  0  0  0  0  0  0  0  0  0
  146.4806  143.8406  154.8355 H   0  0  0  0  0  0  0  0  0  0  0  0
  144.8970  143.4581  154.1649 H   0  0  0  0  0  0  0  0  0  0  0  0
  144.9893  139.7466  156.6514 H   0  0  0  0  0  0  0  0  0  0  0  0
  146.6015  140.2135  157.1502 H   0  0  0  0  0  0  0  0  0  0  0  0
  143.9678  140.8064  158.6079 H   0  0  0  0  0  0  0  0  0  0  0  0
  145.2088  139.6725  159.1078 H   0  0  0  0  0  0  0  0  0  0  0  0
  144.5100  143.2034  158.6725 H   0  0  0  0  0  0  0  0  0  0  0  0
  146.1094  143.6677  159.2225 H   0  0  0  0  0  0  0  0  0  0  0  0
  147.1643  142.6849  157.2216 H   0  0  0  0  0  0  0  0  0  0  0  0
  145.9141  143.8286  156.7754 H   0  0  0  0  0  0  0  0  0  0  0  0
  150.3003  145.0531  158.0566 H   0  0  0  0  0  0  0  0  0  0  0  0
  1  2  1  0  0  0  0
  1 23  1  0  0  0  0
  1 24  1  0  0  0  0
  1 25  1  0  0  0  0
  2 22  1  0  0  0  0
  2  3  2  0  0  0  0
  3  4  1  0  0  0  0
  3 26  1  0  0  0  0
  4  5  1  0  0  0  0
  4  6  2  0  0  0  0
  5 27  1  0  0  0  0
  5 28  1  0  0  0  0
  5 29  1  0  0  0  0
  6  7  1  0  0  0  0
  7  8  1  0  0  0  0
  7 22  2  0  0  0  0
  8  9  1  0  0  0  0
  8 30  1  0  0  0  0
  9 10  2  0  0  0  0
  9 11  1  0  0  0  0
 11 12  1  0  0  0  0
 11 31  1  0  0  0  0
 12 13  1  0  0  0  0
 12 14  1  0  0  0  0
 12 32  1  0  0  0  0
 13 33  1  0  0  0  0
 13 34  1  0  0  0  0
 13 35  1  0  0  0  0
 14 15  1  0  0  0  0
 14 16  1  0  0  0  0
 14 36  1  0  0  0  0
 15 37  1  0  0  0  0
 15 38  1  0  0  0  0
 15 39  1  0  0  0  0
 16 21  1  0  0  0  0
 16 17  1  0  0  0  0
 17 18  1  0  0  0  0
 17 40  1  0  0  0  0
 17 41  1  0  0  0  0
 18 19  1  0  0  0  0
 18 42  1  0  0  0  0
 18 43  1  0  0  0  0
 19 20  1  0  0  0  0
 20 21  1  0  0  0  0
 20 44  1  0  0  0  0
 20 45  1  0  0  0  0
 21 46  1  0  0  0  0
 21 47  1  0  0  0  0
 22 48  1  0  0  0  0
M  END
> <s_m_source_file>
AV-unprocessed.smi

> <i_m_source_file_index>
2355

> <i_lp_mmshare_version>
43012

> <i_f3d_flags>
0

> <s_epik_input>
W0NIM11jMVtjSF1jKFtDSDNdKW5jKFtjSF0xKVtOSF1DKD1PKVtOSF1bQ0BIXShbQ0gzXSlbQ0BIXShbQ0gzXSlOMltDSDJdW0NIMl1PW0NIMl1bQ0gyXTI=

> <s_epik_cmdline>
J2VwaWtfcHl0aG9uJywgJy1waCcsICc3LjAnLCAnLXRuJywgJzgnLCAnLW1hJywgJzIwMCcsICctbWV0YWxfYmluZGluZycsICctaW1hZScsICc8aW5maWxlLm1hZT4nLCAnLW9tYWUnLCAnPG91dGZpbGUubWFlPic=

> <r_epik_Ionization_Penalty>
0.266238

> <r_epik_Ionization_Penalty_Charging>
0

> <r_epik_Ionization_Penalty_Neutral>
0.266238

> <r_epik_State_Penalty>
0.257924

> <r_epik_Charging_Adjusted_Penalty>
0.257924

> <i_epik_Tot_Q>
0

> <i_epik_Tot_abs_Q>
0

> <r_epik_Metal_State_Penalty>
0.257904

> <b_epik_Metal_Only>
0

> <s_lp_Force_Field>
OPLS_2005

> <r_lp_Energy>
36.7742

> <b_lp_Chiralities_Consistent>
1

> <s_lp_Variant>
AV-unprocessed.smi:2355-1

> <Gold.Version>
5.8.1

> <Gold.Id.Protein>
6NUR|6NUR_protein|mol2

> <Gold.PLP.Fitness>
46.6467

> <Gold.PLP.PLP>
-39.6118

> <Gold.PLP.part.hbond>
-2.7441

> <Gold.PLP.part.metal>
0.0000

> <Gold.PLP.part.buried>
-3.7594

> <Gold.PLP.part.nonpolar>
-33.7972

> <Gold.PLP.part.repulsive>
0.2388

> <Gold.PLP.ligand.clash>
0.0000

> <Gold.PLP.ligand.torsion>
0.4774

> <Gold.PLP.Chemscore.Hbond>
2.6320

> <Gold.PLP.Chemscore.CHOScore>
0.0000

> <Gold.PLP.Chemscore.Metal>
0.0000

> <Gold.Chemscore.Hbonds>
donor molecule, donor type, donor heavy atom, donor atom, acceptor molecule, acceptor atom, score
      L1  H     8    30       P1  8028  0.93
      L1  H    11    31       P1  8028  0.70
      P1  H  6934  6946       L1    19  0.99

> <Gold.PLP.Chemscore.Internal.Correction>
0.0937

> <Gold.Rescore>
     Score         DG    S(hbond)    S(metal)    S(lipo)     H(rot)  DE(clash)    DE(int)     intcor
     19.72     -21.33       2.77        0.00      86.93       1.40       0.16       1.44       ----

> <Gold.Chemscore.Fitness>
19.7193

> <Gold.Chemscore.DG>
-21.3262

> <Gold.Chemscore.ZeroCoef>
-5.4800

> <Gold.Chemscore.Hbond>
2.7735

> <Gold.Chemscore.Metal>
0.0000

> <Gold.Chemscore.Lipo>
86.9262

> <Gold.Chemscore.Internal_Hbond>
0.0000

> <Gold.Chemscore.DEClash>
0.1648

> <Gold.Chemscore.DEInternal>
1.4420

> <Gold.Chemscore.Rot>
1.4015

> <Gold.Chemscore.Internal.Correction>
   9.000000E+99

> <Gold.Chemscore.Hbonds>
donor molecule, donor type, donor heavy atom, donor atom, acceptor molecule, acceptor atom, score
      L1  H     8    30       P1  8028  0.85
      L1  H    11    31       P1  8028  0.69
      P1  H  6934  6946       L1    19  0.64

> <Gold.Chemscore.Hbond.Weighted>
-9.2636

> <Gold.Chemscore.Metal.Weighted>
-0.0000

> <Gold.Chemscore.Lipo.Weighted>
-10.1704

> <Gold.Chemscore.Internal_Hbond.Weighted>
0.0000

> <Gold.Chemscore.DEClash.Weighted>
0.1648

> <Gold.Chemscore.DEInternal.Weighted>
1.4420

> <Gold.Chemscore.Rot.Weighted>
3.5878

> <Gold.Chemscore.Internal.Correction.Weighted>
   9.000000E+99

> <Gold.Protein.RotatedTorsions>
[ 6907 6896 6895 6894 ] final   22.53 input  -60.11 | X-H torsion
[ 7974 7965 7964 7962 ] final   24.27 input  175.53 | X-H torsion
[ 8008 7997 7996 7995 ] final   -4.53 input   59.86 | X-H torsion
[ 10167 10162 10161 10158 ] final -111.36 input  -65.29 | X-H torsion
[ 10718 10713 10712 10709 ] final -119.08 input   66.30 | X-H torsion
[ 10763 10752 10751 10750 ] final   66.97 input  -60.55 | X-H torsion
[ 11005 11000 10999 10996 ] final   15.00 input  -57.11 | X-H torsion

> <Gold.Protein.ActiveResidues>
 VAL166  LYS551  ARG553  GLY616  TRP617  ASP618  TYR619  PRO620  LYS621  CYS622 
 ASP623  PHE694  ASN695  SER759  ASP760  ASP761  ALA762  ILE779  LEU786  VAL792 
 PHE793  MET794  SER795  GLU796  ALA797  LYS798  CYS799  TRP800  GLU811  SER814 

> <Gold.Protein.RotatedAtoms>
  151.9285  135.0267  160.0527 H   0  0  0  0  0  0  0  0  0  0  0  0  # atno 6907 bound_to 6896
  152.2138  133.4927  159.5133 H   0  0  0  0  0  0  0  0  0  0  0  0  # atno 6908 bound_to 6896
  150.6983  134.1348  159.4126 H   0  0  0  0  0  0  0  0  0  0  0  0  # atno 6909 bound_to 6896
  146.1945  139.7629  142.8807 H   0  0  0  0  0  0  0  0  0  0  0  0  # atno 7974 bound_to 7965
  154.6133  140.2481  155.7641 H   0  0  0  0  0  0  0  0  0  0  0  0  # atno 8008 bound_to 7997
  156.2384  140.2942  156.0325 H   0  0  0  0  0  0  0  0  0  0  0  0  # atno 8009 bound_to 7997
  155.2016  140.0394  157.2909 H   0  0  0  0  0  0  0  0  0  0  0  0  # atno 8010 bound_to 7997
  140.1345  143.4332  152.1605 H   0  0  0  0  0  0  0  0  0  0  0  0  # atno 10167 bound_to 10162
  156.1154  130.6282  150.9372 H   0  0  0  0  0  0  0  0  0  0  0  0  # atno 10718 bound_to 10713
  153.0164  135.5301  154.6907 H   0  0  0  0  0  0  0  0  0  0  0  0  # atno 10763 bound_to 10752
  154.6042  135.2871  155.0504 H   0  0  0  0  0  0  0  0  0  0  0  0  # atno 10764 bound_to 10752
  154.1550  135.6557  153.5025 H   0  0  0  0  0  0  0  0  0  0  0  0  # atno 10765 bound_to 10752
  140.4632  134.1106  155.7720 H   0  0  0  0  0  0  0  0  0  0  0  0  # atno 11005 bound_to 11000
  145.3686  141.0339  143.3244 LP  0  0  0  0  0  0  0  0  0  0  0  0  # atno 17320 bound_to 7965
  144.8553  139.5258  143.6837 LP  0  0  0  0  0  0  0  0  0  0  0  0  # atno 17321 bound_to 7965
  139.5503  144.7332  151.4456 LP  0  0  0  0  0  0  0  0  0  0  0  0  # atno 17342 bound_to 10162
  140.6797  143.8109  150.7105 LP  0  0  0  0  0  0  0  0  0  0  0  0  # atno 17343 bound_to 10162
  157.6337  131.0918  150.8390 LP  0  0  0  0  0  0  0  0  0  0  0  0  # atno 17370 bound_to 10713
  156.8494  130.5075  149.5313 LP  0  0  0  0  0  0  0  0  0  0  0  0  # atno 17371 bound_to 10713
  141.1611  133.8790  157.1844 LP  0  0  0  0  0  0  0  0  0  0  0  0  # atno 17394 bound_to 11000
  139.9932  135.0057  157.0022 LP  0  0  0  0  0  0  0  0  0  0  0  0  # atno 17395 bound_to 11000

$$$$
