AV-unprocessed.smi:1628|AV-procd|sdf|6520|dock9
  -GOLD-   22720 7193D 1   1.00000     0.00000
 Structure written by MMmdl.
 55 57  0  0  0  0  0  0  0  0  2 V2000
  147.1138  140.2252  154.0743 O   0  0  0  0  0  0  0  0  0  0  0  0
  147.9807  139.5295  153.5460 C   0  0  0  0  0  0  0  0  0  0  0  0
  147.7232  138.6532  152.5658 N   0  0  0  0  0  0  0  0  0  0  0  0
  146.3964  138.4029  152.0189 C   0  0  0  0  0  0  0  0  0  0  0  0
  145.6757  137.3064  152.8277 C   0  0  0  0  0  0  0  0  0  0  0  0
  146.1014  135.9248  152.4786 N   0  3  0  0  0  0  0  0  0  0  0  0
  145.3239  135.3430  151.3525 C   0  0  0  0  0  0  0  0  0  0  0  0
  146.0988  134.2625  150.5820 C   0  0  0  0  0  0  0  0  0  0  0  0
  146.5532  133.0607  151.4282 C   0  0  0  0  0  0  0  0  0  0  0  0
  147.7527  133.3949  152.3300 C   0  0  0  0  0  0  0  0  0  0  0  0
  147.4203  134.1178  153.6491 C   0  0  0  0  0  0  0  0  0  0  0  0
  146.1730  135.0188  153.6549 C   0  0  0  0  0  0  0  0  0  0  0  0
  149.2903  139.5553  153.8476 N   0  0  0  0  0  0  0  0  0  0  0  0
  149.9463  140.3028  154.8629 C   0  0  0  0  0  0  0  0  0  0  0  0
  151.0767  139.7348  155.4814 C   0  0  0  0  0  0  0  0  0  0  0  0
  151.7301  140.4436  156.5072 C   0  0  0  0  0  0  0  0  0  0  0  0
  151.2311  141.7082  156.8986 C   0  0  0  0  0  0  0  0  0  0  0  0
  151.8683  142.4380  157.9258 N   0  0  0  0  0  0  0  0  0  0  0  0
  151.4714  143.8384  158.0498 C   0  0  0  0  0  0  0  0  0  0  0  0
  152.4422  144.5906  158.9765 C   0  0  0  0  0  0  0  0  0  0  0  0
  152.5247  143.9259  160.2327 O   0  0  0  0  0  0  0  0  0  0  0  0
  153.0218  142.5991  160.0972 C   0  0  0  0  0  0  0  0  0  0  0  0
  152.0688  141.7765  159.2141 C   0  0  0  0  0  0  0  0  0  0  0  0
  150.1312  142.2451  156.3163 N   0  0  0  0  0  0  0  0  0  0  0  0
  149.5090  141.5641  155.3311 C   0  0  0  0  0  0  0  0  0  0  0  0
  148.4920  138.1256  152.1786 H   0  0  0  0  0  0  0  0  0  0  0  0
  145.8215  139.3302  152.0345 H   0  0  0  0  0  0  0  0  0  0  0  0
  146.5034  138.1085  150.9743 H   0  0  0  0  0  0  0  0  0  0  0  0
  145.8416  137.4648  153.8942 H   0  0  0  0  0  0  0  0  0  0  0  0
  144.5976  137.3851  152.6803 H   0  0  0  0  0  0  0  0  0  0  0  0
  144.3715  134.9478  151.7088 H   0  0  0  0  0  0  0  0  0  0  0  0
  145.0733  136.1339  150.6441 H   0  0  0  0  0  0  0  0  0  0  0  0
  145.4563  133.8955  149.7809 H   0  0  0  0  0  0  0  0  0  0  0  0
  146.9595  134.7106  150.0836 H   0  0  0  0  0  0  0  0  0  0  0  0
  145.7262  132.6470  152.0065 H   0  0  0  0  0  0  0  0  0  0  0  0
  146.8606  132.2702  150.7426 H   0  0  0  0  0  0  0  0  0  0  0  0
  148.2819  132.4731  152.5741 H   0  0  0  0  0  0  0  0  0  0  0  0
  148.4685  133.9910  151.7626 H   0  0  0  0  0  0  0  0  0  0  0  0
  147.2916  133.3717  154.4338 H   0  0  0  0  0  0  0  0  0  0  0  0
  148.2905  134.7035  153.9479 H   0  0  0  0  0  0  0  0  0  0  0  0
  146.2023  135.6012  154.5771 H   0  0  0  0  0  0  0  0  0  0  0  0
  145.2665  134.4160  153.7253 H   0  0  0  0  0  0  0  0  0  0  0  0
  149.8953  138.9996  153.2609 H   0  0  0  0  0  0  0  0  0  0  0  0
  151.4431  138.7654  155.1765 H   0  0  0  0  0  0  0  0  0  0  0  0
  152.5898  140.0035  156.9897 H   0  0  0  0  0  0  0  0  0  0  0  0
  151.4465  144.3392  157.0830 H   0  0  0  0  0  0  0  0  0  0  0  0
  150.4597  143.8817  158.4552 H   0  0  0  0  0  0  0  0  0  0  0  0
  153.4331  144.6630  158.5250 H   0  0  0  0  0  0  0  0  0  0  0  0
  152.0917  145.6102  159.1381 H   0  0  0  0  0  0  0  0  0  0  0  0
  154.0272  142.6168  159.6735 H   0  0  0  0  0  0  0  0  0  0  0  0
  153.1013  142.1467  161.0858 H   0  0  0  0  0  0  0  0  0  0  0  0
  151.1061  141.6579  159.7134 H   0  0  0  0  0  0  0  0  0  0  0  0
  152.4855  140.7795  159.0660 H   0  0  0  0  0  0  0  0  0  0  0  0
  148.6279  142.0464  154.9377 H   0  0  0  0  0  0  0  0  0  0  0  0
  147.0495  136.0261  152.1451 H   0  0  0  0  0  0  0  0  0  0  0  0
  1  2  2  0  0  0  0
  2  3  1  0  0  0  0
  2 13  1  0  0  0  0
  3  4  1  0  0  0  0
  3 26  1  0  0  0  0
  4  5  1  0  0  0  0
  4 27  1  0  0  0  0
  4 28  1  0  0  0  0
  5  6  1  0  0  0  0
  5 29  1  0  0  0  0
  5 30  1  0  0  0  0
  6 12  1  0  0  0  0
  6  7  1  0  0  0  0
  6 55  1  0  0  0  0
  7  8  1  0  0  0  0
  7 31  1  0  0  0  0
  7 32  1  0  0  0  0
  8  9  1  0  0  0  0
  8 33  1  0  0  0  0
  8 34  1  0  0  0  0
  9 10  1  0  0  0  0
  9 35  1  0  0  0  0
  9 36  1  0  0  0  0
 10 11  1  0  0  0  0
 10 37  1  0  0  0  0
 10 38  1  0  0  0  0
 11 12  1  0  0  0  0
 11 39  1  0  0  0  0
 11 40  1  0  0  0  0
 12 41  1  0  0  0  0
 12 42  1  0  0  0  0
 13 14  1  0  0  0  0
 13 43  1  0  0  0  0
 14 25  1  0  0  0  0
 14 15  2  0  0  0  0
 15 16  1  0  0  0  0
 15 44  1  0  0  0  0
 16 17  2  0  0  0  0
 16 45  1  0  0  0  0
 17 18  1  0  0  0  0
 17 24  1  0  0  0  0
 18 23  1  0  0  0  0
 18 19  1  0  0  0  0
 19 20  1  0  0  0  0
 19 46  1  0  0  0  0
 19 47  1  0  0  0  0
 20 21  1  0  0  0  0
 20 48  1  0  0  0  0
 20 49  1  0  0  0  0
 21 22  1  0  0  0  0
 22 23  1  0  0  0  0
 22 50  1  0  0  0  0
 22 51  1  0  0  0  0
 23 52  1  0  0  0  0
 23 53  1  0  0  0  0
 24 25  2  0  0  0  0
 25 54  1  0  0  0  0
M  CHG  1   6   1
M  END
> <s_m_source_file>
AV-unprocessed.smi

> <i_m_source_file_index>
1628

> <i_lp_mmshare_version>
43012

> <i_f3d_flags>
0

> <s_epik_input>
W0NIMl0xW0NIMl1bQ0gyXVtDSDJdW0NIMl1bQ0gyXU4xW0NIMl1bQ0gyXVtOSF1DKD1PKVtOSF1jMltjSF1bY0hdYyhuW2NIXTIpTjNbQ0gyXVtDSDJdT1tDSDJdW0NIMl0z

> <s_epik_cmdline>
J2VwaWtfcHl0aG9uJywgJy1waCcsICc3LjAnLCAnLXRuJywgJzgnLCAnLW1hJywgJzIwMCcsICctbWV0YWxfYmluZGluZycsICctaW1hZScsICc8aW5maWxlLm1hZT4nLCAnLW9tYWUnLCAnPG91dGZpbGUubWFlPic=

> <r_lp_tautomer_probability>
1

> <r_epik_Ionization_Penalty>
0.00380107

> <r_epik_Ionization_Penalty_Charging>
0.00211816

> <r_epik_Ionization_Penalty_Neutral>
0.00168291

> <r_epik_State_Penalty>
-0

> <r_epik_Charging_Adjusted_Penalty>
0.00211816

> <i_epik_Tot_Q>
1

> <i_epik_Tot_abs_Q>
1

> <r_epik_Metal_State_Penalty>
-0

> <b_epik_Metal_Only>
0

> <s_lp_Force_Field>
OPLS_2005

> <r_lp_Energy>
41.9459

> <b_lp_Chiralities_Consistent>
1

> <s_lp_Variant>
AV-unprocessed.smi:1628-1

> <Gold.Version>
5.8.1

> <Gold.Id.Protein>
6NUR|6NUR_protein|mol2

> <Gold.PLP.Fitness>
54.8067

> <Gold.PLP.PLP>
-47.5309

> <Gold.PLP.part.hbond>
-4.0000

> <Gold.PLP.part.metal>
0.0000

> <Gold.PLP.part.buried>
-2.6813

> <Gold.PLP.part.nonpolar>
-41.3215

> <Gold.PLP.part.repulsive>
2.0483

> <Gold.PLP.ligand.clash>
0.0000

> <Gold.PLP.ligand.torsion>
1.0991

> <Gold.PLP.Chemscore.Hbond>
2.8160

> <Gold.PLP.Chemscore.CHOScore>
0.2024

> <Gold.PLP.Chemscore.Metal>
0.0000

> <Gold.Chemscore.Hbonds>
donor molecule, donor type, donor heavy atom, donor atom, acceptor molecule, acceptor atom, score
      L1  H     3    26       P1  7948  0.78
      L1  H     6    55       P1  7948  2.00
      L1  H    13    43       P1  7957  0.01
      L1  C    25    54       P1  8028  0.21

> <Gold.PLP.Chemscore.Internal.Correction>
0.4189

> <Gold.Rescore>
     Score         DG    S(hbond)    S(metal)    S(lipo)     H(rot)  DE(clash)    DE(int)     intcor
     17.51     -20.43       1.75        0.00     112.86       1.60       0.78       2.14       ----

> <Gold.Chemscore.Fitness>
17.5075

> <Gold.Chemscore.DG>
-20.4292

> <Gold.Chemscore.ZeroCoef>
-5.4800

> <Gold.Chemscore.Hbond>
1.7467

> <Gold.Chemscore.Metal>
0.0000

> <Gold.Chemscore.Lipo>
112.8649

> <Gold.Chemscore.Internal_Hbond>
0.0000

> <Gold.Chemscore.DEClash>
0.7848

> <Gold.Chemscore.DEInternal>
2.1369

> <Gold.Chemscore.Rot>
1.5976

> <Gold.Chemscore.Internal.Correction>
   9.000000E+99

> <Gold.Chemscore.Hbonds>
donor molecule, donor type, donor heavy atom, donor atom, acceptor molecule, acceptor atom, score
      L1  H     3    26       P1  7948  0.77
      L1  H     6    55       P1  7948  1.00
      L1  H    13    43       P1  7957  0.02

> <Gold.Chemscore.Hbond.Weighted>
-5.8340

> <Gold.Chemscore.Metal.Weighted>
-0.0000

> <Gold.Chemscore.Lipo.Weighted>
-13.2052

> <Gold.Chemscore.Internal_Hbond.Weighted>
0.0000

> <Gold.Chemscore.DEClash.Weighted>
0.7848

> <Gold.Chemscore.DEInternal.Weighted>
2.1369

> <Gold.Chemscore.Rot.Weighted>
4.0899

> <Gold.Chemscore.Internal.Correction.Weighted>
   9.000000E+99

> <Gold.Protein.RotatedTorsions>
[ 6907 6896 6895 6894 ] final   87.17 input  -60.11 | X-H torsion
[ 7974 7965 7964 7962 ] final  156.16 input  175.53 | X-H torsion
[ 8008 7997 7996 7995 ] final -162.66 input   59.86 | X-H torsion
[ 10167 10162 10161 10158 ] final -158.36 input  -65.29 | X-H torsion
[ 10718 10713 10712 10709 ] final   87.42 input   66.30 | X-H torsion
[ 10763 10752 10751 10750 ] final  -93.99 input  -60.55 | X-H torsion
[ 11005 11000 10999 10996 ] final   44.88 input  -57.11 | X-H torsion

> <Gold.Protein.ActiveResidues>
 VAL166  LYS551  ARG553  GLY616  TRP617  ASP618  TYR619  PRO620  LYS621  CYS622 
 ASP623  PHE694  ASN695  SER759  ASP760  ASP761  ALA762  ILE779  LEU786  VAL792 
 PHE793  MET794  SER795  GLU796  ALA797  LYS798  CYS799  TRP800  GLU811  SER814 

> <Gold.Protein.RotatedAtoms>
  152.5407  134.2318  159.8827 H   0  0  0  0  0  0  0  0  0  0  0  0  # atno 6907 bound_to 6896
  151.2290  133.4454  159.2610 H   0  0  0  0  0  0  0  0  0  0  0  0  # atno 6908 bound_to 6896
  151.0733  134.9826  159.8375 H   0  0  0  0  0  0  0  0  0  0  0  0  # atno 6909 bound_to 6896
  144.7980  139.7167  143.6194 H   0  0  0  0  0  0  0  0  0  0  0  0  # atno 7974 bound_to 7965
  155.8100  140.0904  157.1909 H   0  0  0  0  0  0  0  0  0  0  0  0  # atno 8008 bound_to 7997
  154.3980  140.1456  156.3434 H   0  0  0  0  0  0  0  0  0  0  0  0  # atno 8009 bound_to 7997
  155.8375  140.3440  155.5613 H   0  0  0  0  0  0  0  0  0  0  0  0  # atno 8010 bound_to 7997
  139.6698  143.9765  152.2277 H   0  0  0  0  0  0  0  0  0  0  0  0  # atno 10167 bound_to 10162
  157.6940  131.0255  150.3121 H   0  0  0  0  0  0  0  0  0  0  0  0  # atno 10718 bound_to 10713
  154.7012  135.5174  153.8529 H   0  0  0  0  0  0  0  0  0  0  0  0  # atno 10763 bound_to 10752
  153.0705  135.6599  154.0267 H   0  0  0  0  0  0  0  0  0  0  0  0  # atno 10764 bound_to 10752
  154.0125  135.3001  155.3370 H   0  0  0  0  0  0  0  0  0  0  0  0  # atno 10765 bound_to 10752
  140.1511  134.4461  155.8381 H   0  0  0  0  0  0  0  0  0  0  0  0  # atno 11005 bound_to 11000
  146.2253  139.5712  142.9591 LP  0  0  0  0  0  0  0  0  0  0  0  0  # atno 17320 bound_to 7965
  145.5625  141.0403  143.2218 LP  0  0  0  0  0  0  0  0  0  0  0  0  # atno 17321 bound_to 7965
  139.9527  144.6610  150.8156 LP  0  0  0  0  0  0  0  0  0  0  0  0  # atno 17342 bound_to 10162
  140.7613  143.3172  151.2705 LP  0  0  0  0  0  0  0  0  0  0  0  0  # atno 17343 bound_to 10162
  156.3621  130.3849  149.7243 LP  0  0  0  0  0  0  0  0  0  0  0  0  # atno 17370 bound_to 10713
  156.4686  130.7985  151.3004 LP  0  0  0  0  0  0  0  0  0  0  0  0  # atno 17371 bound_to 10713
  141.2199  133.6872  156.7422 LP  0  0  0  0  0  0  0  0  0  0  0  0  # atno 17394 bound_to 11000
  140.2604  134.8471  157.3753 LP  0  0  0  0  0  0  0  0  0  0  0  0  # atno 17395 bound_to 11000

$$$$
