AV-unprocessed.smi:3035|AV-procd|sdf|11581|dock1
  -GOLD-   2272016553D 1   1.00000     0.00000
 Structure written by MMmdl.
 38 39  0  0  0  0  0  0  0  0  1 V2000
  147.2289  140.6993  153.3975 C   0  0  0  0  0  0  0  0  0  0  0  0
  148.5846  141.0180  153.6582 O   0  0  0  0  0  0  0  0  0  0  0  0
  148.8313  141.2642  155.0325 C   0  0  0  0  0  0  0  0  0  0  0  0
  150.0468  140.5100  155.4809 C   0  0  0  0  0  0  0  0  0  0  0  0
  150.4882  140.3766  156.6739 N   0  0  0  0  0  0  0  0  0  0  0  0
  151.5806  139.6270  156.5210 N   0  0  0  0  0  0  0  0  0  0  0  0
  152.3894  139.2202  157.6646 C   0  0  0  0  0  0  0  0  0  0  0  0
  152.0105  140.0132  158.9242 C   0  0  0  0  0  0  0  0  0  0  0  0
  151.7241  141.4011  158.5901 N   0  0  0  0  0  0  0  0  0  0  0  0
  152.4862  142.4405  158.9599 C   0  0  0  0  0  0  0  0  0  0  0  0
  153.5136  142.3155  159.6275 O   0  0  0  0  0  0  0  0  0  0  0  0
  152.0127  143.8323  158.5084 C   0  0  0  0  0  0  0  0  0  0  0  0
  152.8481  144.9658  159.1486 C   0  0  0  0  0  0  0  0  0  0  0  0
  151.8845  145.8166  159.9865 C   0  0  0  0  0  0  0  0  0  0  0  0
  150.6638  144.9319  160.2230 C   0  0  0  0  0  0  0  0  0  0  0  0
  150.5596  144.1056  158.9422 C   0  0  0  0  0  0  0  0  0  0  0  0
  151.8057  139.2946  155.1985 C   0  0  0  0  0  0  0  0  0  0  0  0
  152.7096  138.6172  154.7121 O   0  0  0  0  0  0  0  0  0  0  0  0
  150.8019  139.8756  154.5274 O   0  0  0  0  0  0  0  0  0  0  0  0
  147.0935  140.5177  152.3313 H   0  0  0  0  0  0  0  0  0  0  0  0
  146.5686  141.5184  153.6860 H   0  0  0  0  0  0  0  0  0  0  0  0
  146.9252  139.7992  153.9336 H   0  0  0  0  0  0  0  0  0  0  0  0
  148.9737  142.3333  155.1989 H   0  0  0  0  0  0  0  0  0  0  0  0
  147.9703  140.9557  155.6276 H   0  0  0  0  0  0  0  0  0  0  0  0
  152.2556  138.1510  157.8367 H   0  0  0  0  0  0  0  0  0  0  0  0
  153.4458  139.3661  157.4327 H   0  0  0  0  0  0  0  0  0  0  0  0
  151.1341  139.5669  159.3970 H   0  0  0  0  0  0  0  0  0  0  0  0
  152.8232  139.9790  159.6519 H   0  0  0  0  0  0  0  0  0  0  0  0
  150.8955  141.5839  158.0428 H   0  0  0  0  0  0  0  0  0  0  0  0
  152.0791  143.8918  157.4206 H   0  0  0  0  0  0  0  0  0  0  0  0
  153.6432  144.5753  159.7860 H   0  0  0  0  0  0  0  0  0  0  0  0
  153.3346  145.5754  158.3866 H   0  0  0  0  0  0  0  0  0  0  0  0
  152.3342  146.1634  160.9174 H   0  0  0  0  0  0  0  0  0  0  0  0
  151.5876  146.6978  159.4161 H   0  0  0  0  0  0  0  0  0  0  0  0
  150.8414  144.2761  161.0765 H   0  0  0  0  0  0  0  0  0  0  0  0
  149.7605  145.5076  160.4265 H   0  0  0  0  0  0  0  0  0  0  0  0
  150.0551  144.6894  158.1711 H   0  0  0  0  0  0  0  0  0  0  0  0
  149.9710  143.1989  159.0913 H   0  0  0  0  0  0  0  0  0  0  0  0
  1  2  1  0  0  0  0
  1 20  1  0  0  0  0
  1 21  1  0  0  0  0
  1 22  1  0  0  0  0
  2  3  1  0  0  0  0
  3  4  1  0  0  0  0
  3 23  1  0  0  0  0
  3 24  1  0  0  0  0
  4 19  1  0  0  0  0
  4  5  2  0  0  0  0
  5  6  1  0  0  0  0
  6  7  1  0  0  0  0
  6 17  1  0  0  0  0
  7  8  1  0  0  0  0
  7 25  1  0  0  0  0
  7 26  1  0  0  0  0
  8  9  1  0  0  0  0
  8 27  1  0  0  0  0
  8 28  1  0  0  0  0
  9 10  1  0  0  0  0
  9 29  1  0  0  0  0
 10 11  2  0  0  0  0
 10 12  1  0  0  0  0
 12 16  1  0  0  0  0
 12 13  1  0  0  0  0
 12 30  1  0  0  0  0
 13 14  1  0  0  0  0
 13 31  1  0  0  0  0
 13 32  1  0  0  0  0
 14 15  1  0  0  0  0
 14 33  1  0  0  0  0
 14 34  1  0  0  0  0
 15 16  1  0  0  0  0
 15 35  1  0  0  0  0
 15 36  1  0  0  0  0
 16 37  1  0  0  0  0
 16 38  1  0  0  0  0
 17 18  2  0  0  0  0
 17 19  1  0  0  0  0
M  END
> <s_m_source_file>
AV-unprocessed.smi

> <i_m_source_file_index>
3035

> <i_lp_mmshare_version>
43012

> <i_f3d_flags>
0

> <s_epik_input>
W0NIM11PW0NIMl1jMW5uKGMoPU8pbzEpW0NIMl1bQ0gyXVtOSF1DKD1PKVtDSF0yW0NIMl1bQ0gyXVtDSDJdW0NIMl0y

> <s_epik_cmdline>
J2VwaWtfcHl0aG9uJywgJy1waCcsICc3LjAnLCAnLXRuJywgJzgnLCAnLW1hJywgJzIwMCcsICctbWV0YWxfYmluZGluZycsICctaW1hZScsICc8aW5maWxlLm1hZT4nLCAnLW9tYWUnLCAnPG91dGZpbGUubWFlPic=

> <r_lp_tautomer_probability>
1

> <r_epik_Ionization_Penalty>
6.81406e-08

> <r_epik_Ionization_Penalty_Charging>
1.21446e-09

> <r_epik_Ionization_Penalty_Neutral>
6.69261e-08

> <r_epik_State_Penalty>
-0

> <r_epik_Charging_Adjusted_Penalty>
1.21446e-09

> <i_epik_Tot_Q>
0

> <i_epik_Tot_abs_Q>
0

> <r_epik_Metal_State_Penalty>
-0

> <b_epik_Metal_Only>
0

> <s_lp_Force_Field>
OPLS_2005

> <r_lp_Energy>
26.4396

> <b_lp_Chiralities_Consistent>
1

> <s_lp_Variant>
AV-unprocessed.smi:3035-1

> <Gold.Version>
5.8.1

> <Gold.Id.Protein>
6NUR|6NUR_protein|mol2

> <Gold.PLP.Fitness>
39.6600

> <Gold.PLP.PLP>
-35.1523

> <Gold.PLP.part.hbond>
-2.0000

> <Gold.PLP.part.metal>
0.0000

> <Gold.PLP.part.buried>
-6.2227

> <Gold.PLP.part.nonpolar>
-29.8619

> <Gold.PLP.part.repulsive>
3.1801

> <Gold.PLP.ligand.clash>
0.0067

> <Gold.PLP.ligand.torsion>
0.7686

> <Gold.PLP.Chemscore.Hbond>
1.9760

> <Gold.PLP.Chemscore.CHOScore>
0.0000

> <Gold.PLP.Chemscore.Metal>
0.0000

> <Gold.Chemscore.Hbonds>
donor molecule, donor type, donor heavy atom, donor atom, acceptor molecule, acceptor atom, score
      P1  H  7989  7998       L1    19  1.00
      P1  H  8011  8017       L1     2  0.36

> <Gold.PLP.Chemscore.Internal.Correction>
0.1236

> <Gold.Rescore>
     Score         DG    S(hbond)    S(metal)    S(lipo)     H(rot)  DE(clash)    DE(int)     intcor
     11.13     -13.63       1.37        0.00      82.17       2.36       1.71       0.79       ----

> <Gold.Chemscore.Fitness>
11.1300

> <Gold.Chemscore.DG>
-13.6317

> <Gold.Chemscore.ZeroCoef>
-5.4800

> <Gold.Chemscore.Hbond>
1.3702

> <Gold.Chemscore.Metal>
0.0000

> <Gold.Chemscore.Lipo>
82.1654

> <Gold.Chemscore.Internal_Hbond>
0.0000

> <Gold.Chemscore.DEClash>
1.7144

> <Gold.Chemscore.DEInternal>
0.7873

> <Gold.Chemscore.Rot>
2.3587

> <Gold.Chemscore.Internal.Correction>
   9.000000E+99

> <Gold.Chemscore.Hbonds>
donor molecule, donor type, donor heavy atom, donor atom, acceptor molecule, acceptor atom, score
      P1  H  7989  7998       L1    19  0.28
      P1  H  8011  8017       L1     2  0.29

> <Gold.Chemscore.Hbond.Weighted>
-4.5765

> <Gold.Chemscore.Metal.Weighted>
-0.0000

> <Gold.Chemscore.Lipo.Weighted>
-9.6134

> <Gold.Chemscore.Internal_Hbond.Weighted>
0.0000

> <Gold.Chemscore.DEClash.Weighted>
1.7144

> <Gold.Chemscore.DEInternal.Weighted>
0.7873

> <Gold.Chemscore.Rot.Weighted>
6.0382

> <Gold.Chemscore.Internal.Correction.Weighted>
   9.000000E+99

> <Gold.Protein.RotatedTorsions>
[ 6907 6896 6895 6894 ] final  -47.17 input  -60.11 | X-H torsion
[ 7974 7965 7964 7962 ] final  -86.86 input  175.53 | X-H torsion
[ 8008 7997 7996 7995 ] final  -22.33 input   59.86 | X-H torsion
[ 10167 10162 10161 10158 ] final -178.60 input  -65.29 | X-H torsion
[ 10718 10713 10712 10709 ] final   -4.53 input   66.30 | X-H torsion
[ 10763 10752 10751 10750 ] final  136.61 input  -60.55 | X-H torsion
[ 11005 11000 10999 10996 ] final  -31.77 input  -57.11 | X-H torsion

> <Gold.Protein.ActiveResidues>
 VAL166  LYS551  ARG553  GLY616  TRP617  ASP618  TYR619  PRO620  LYS621  CYS622 
 ASP623  PHE694  ASN695  SER759  ASP760  ASP761  ALA762  ILE779  LEU786  VAL792 
 PHE793  MET794  SER795  GLU796  ALA797  LYS798  CYS799  TRP800  GLU811  SER814 

> <Gold.Protein.RotatedAtoms>
  150.9036  134.8450  159.7376 H   0  0  0  0  0  0  0  0  0  0  0  0  # atno 6907 bound_to 6896
  152.4906  134.4465  159.9570 H   0  0  0  0  0  0  0  0  0  0  0  0  # atno 6908 bound_to 6896
  151.4514  133.3577  159.2831 H   0  0  0  0  0  0  0  0  0  0  0  0  # atno 6909 bound_to 6896
  145.4743  140.9559  143.1900 H   0  0  0  0  0  0  0  0  0  0  0  0  # atno 7974 bound_to 7965
  154.4651  140.2011  156.0140 H   0  0  0  0  0  0  0  0  0  0  0  0  # atno 8008 bound_to 7997
  156.0912  140.3258  155.7789 H   0  0  0  0  0  0  0  0  0  0  0  0  # atno 8009 bound_to 7997
  155.4954  140.0549  157.2938 H   0  0  0  0  0  0  0  0  0  0  0  0  # atno 8010 bound_to 7997
  139.5425  144.2325  152.0923 H   0  0  0  0  0  0  0  0  0  0  0  0  # atno 10167 bound_to 10162
  156.7600  130.5266  149.5787 H   0  0  0  0  0  0  0  0  0  0  0  0  # atno 10718 bound_to 10713
  153.8594  135.3069  155.3437 H   0  0  0  0  0  0  0  0  0  0  0  0  # atno 10763 bound_to 10752
  154.7855  135.4812  153.9940 H   0  0  0  0  0  0  0  0  0  0  0  0  # atno 10764 bound_to 10752
  153.1470  135.6835  153.9033 H   0  0  0  0  0  0  0  0  0  0  0  0  # atno 10765 bound_to 10752
  140.9496  133.7229  156.1200 H   0  0  0  0  0  0  0  0  0  0  0  0  # atno 11005 bound_to 11000
  144.7926  139.6297  143.7106 LP  0  0  0  0  0  0  0  0  0  0  0  0  # atno 17320 bound_to 7965
  146.2378  139.5941  142.9512 LP  0  0  0  0  0  0  0  0  0  0  0  0  # atno 17321 bound_to 7965
  140.1805  144.4848  150.6531 LP  0  0  0  0  0  0  0  0  0  0  0  0  # atno 17342 bound_to 10162
  140.6660  143.2268  151.5741 LP  0  0  0  0  0  0  0  0  0  0  0  0  # atno 17343 bound_to 10162
  156.1345  130.6201  151.0381 LP  0  0  0  0  0  0  0  0  0  0  0  0  # atno 17370 bound_to 10713
  157.6739  131.0855  150.7544 LP  0  0  0  0  0  0  0  0  0  0  0  0  # atno 17371 bound_to 10713
  140.7621  134.3927  157.5524 LP  0  0  0  0  0  0  0  0  0  0  0  0  # atno 17394 bound_to 11000
  139.8843  134.8968  156.2709 LP  0  0  0  0  0  0  0  0  0  0  0  0  # atno 17395 bound_to 11000

$$$$
