AV-unprocessed.smi:745|AV-procd|sdf|3573|dock5
  -GOLD-   22720 0563D 1   1.00000     0.00000
 Structure written by MMmdl.
 42 43  0  0  0  0  0  0  0  0  2 V2000
  144.6283  136.8492  153.4406 C   0  0  0  0  0  0  0  0  0  0  0  0
  145.3874  136.8843  152.1027 C   0  0  1  0  0  0  0  0  0  0  0  0
  146.7380  137.3808  152.3709 N   0  0  0  0  0  0  0  0  0  0  0  0
  147.0568  138.3924  153.1932 C   0  0  0  0  0  0  0  0  0  0  0  0
  146.2224  139.0636  153.8012 O   0  0  0  0  0  0  0  0  0  0  0  0
  148.3885  138.5693  153.2507 N   0  0  0  0  0  0  0  0  0  0  0  0
  149.1144  139.5351  153.9977 C   0  0  0  0  0  0  0  0  0  0  0  0
  150.4343  139.1610  154.3367 C   0  0  0  0  0  0  0  0  0  0  0  0
  151.2379  140.0497  155.0770 C   0  0  0  0  0  0  0  0  0  0  0  0
  150.7004  141.2917  155.4593 C   0  0  0  0  0  0  0  0  0  0  0  0
  149.3779  141.5863  155.0803 C   0  0  0  0  0  0  0  0  0  0  0  0
  148.6061  140.7364  154.3704 N   0  0  0  0  0  0  0  0  0  0  0  0
  145.4309  135.5087  151.3803 C   0  0  2  0  0  0  0  0  0  0  0  0
  144.0279  134.8753  151.2243 C   0  0  0  0  0  0  0  0  0  0  0  0
  144.0851  133.4920  150.5564 C   0  0  0  0  0  0  0  0  0  0  0  0
  144.9763  132.5769  151.3070 N   0  3  1  0  0  0  0  0  0  0  0  0
  144.9560  131.2001  150.7683 C   0  0  0  0  0  0  0  0  0  0  0  0
  146.3497  133.1221  151.4160 C   0  0  0  0  0  0  0  0  0  0  0  0
  146.3439  134.4958  152.1068 C   0  0  0  0  0  0  0  0  0  0  0  0
  143.5690  136.6364  153.3018 H   0  0  0  0  0  0  0  0  0  0  0  0
  144.6889  137.8127  153.9482 H   0  0  0  0  0  0  0  0  0  0  0  0
  145.0387  136.0949  154.1127 H   0  0  0  0  0  0  0  0  0  0  0  0
  144.8629  137.5911  151.4570 H   0  0  0  0  0  0  0  0  0  0  0  0
  147.4941  136.8943  151.9114 H   0  0  0  0  0  0  0  0  0  0  0  0
  148.9496  137.9378  152.6986 H   0  0  0  0  0  0  0  0  0  0  0  0
  150.8315  138.2026  154.0349 H   0  0  0  0  0  0  0  0  0  0  0  0
  152.2490  139.7819  155.3462 H   0  0  0  0  0  0  0  0  0  0  0  0
  151.2858  141.9994  156.0274 H   0  0  0  0  0  0  0  0  0  0  0  0
  148.9274  142.5292  155.3531 H   0  0  0  0  0  0  0  0  0  0  0  0
  145.8365  135.6669  150.3795 H   0  0  0  0  0  0  0  0  0  0  0  0
  143.5535  134.7872  152.2029 H   0  0  0  0  0  0  0  0  0  0  0  0
  143.3805  135.5162  150.6261 H   0  0  0  0  0  0  0  0  0  0  0  0
  143.0805  133.0691  150.5129 H   0  0  0  0  0  0  0  0  0  0  0  0
  144.4360  133.5847  149.5272 H   0  0  0  0  0  0  0  0  0  0  0  0
  145.3383  131.1737  149.7471 H   0  0  0  0  0  0  0  0  0  0  0  0
  143.9403  130.8035  150.7647 H   0  0  0  0  0  0  0  0  0  0  0  0
  145.5691  130.5383  151.3810 H   0  0  0  0  0  0  0  0  0  0  0  0
  146.9723  132.4319  151.9866 H   0  0  0  0  0  0  0  0  0  0  0  0
  146.7932  133.2020  150.4220 H   0  0  0  0  0  0  0  0  0  0  0  0
  147.3695  134.8618  152.1455 H   0  0  0  0  0  0  0  0  0  0  0  0
  146.0172  134.3811  153.1414 H   0  0  0  0  0  0  0  0  0  0  0  0
  144.6103  132.5231  152.2469 H   0  0  0  0  0  0  0  0  0  0  0  0
  1  2  1  0  0  0  0
  1 20  1  0  0  0  0
  1 21  1  0  0  0  0
  1 22  1  0  0  0  0
  2  3  1  0  0  0  0
  2 13  1  0  0  0  0
  2 23  1  0  0  0  0
  3  4  1  0  0  0  0
  3 24  1  0  0  0  0
  4  5  2  0  0  0  0
  4  6  1  0  0  0  0
  6  7  1  0  0  0  0
  6 25  1  0  0  0  0
  7 12  1  0  0  0  0
  7  8  2  0  0  0  0
  8  9  1  0  0  0  0
  8 26  1  0  0  0  0
  9 10  2  0  0  0  0
  9 27  1  0  0  0  0
 10 11  1  0  0  0  0
 10 28  1  0  0  0  0
 11 12  2  0  0  0  0
 11 29  1  0  0  0  0
 13 19  1  0  0  0  0
 13 14  1  0  0  0  0
 13 30  1  0  0  0  0
 14 15  1  0  0  0  0
 14 31  1  0  0  0  0
 14 32  1  0  0  0  0
 15 16  1  0  0  0  0
 15 33  1  0  0  0  0
 15 34  1  0  0  0  0
 16 17  1  0  0  0  0
 16 18  1  0  0  0  0
 16 42  1  0  0  0  0
 17 35  1  0  0  0  0
 17 36  1  0  0  0  0
 17 37  1  0  0  0  0
 18 19  1  0  0  0  0
 18 38  1  0  0  0  0
 18 39  1  0  0  0  0
 19 40  1  0  0  0  0
 19 41  1  0  0  0  0
M  CHG  1  16   1
M  END
> <s_m_source_file>
AV-unprocessed.smi

> <i_m_source_file_index>
745

> <i_lp_mmshare_version>
43012

> <i_f3d_flags>
0

> <s_epik_input>
W0NIMl0xW0NIMl1OKFtDSDNdKVtDSDJdW0NIMl1bQ0hdMVtDQEhdKFtDSDNdKVtOSF1DKD1PKVtOSF1jMltjSF1bY0hdW2NIXVtjSF1uMg==

> <s_epik_cmdline>
J2VwaWtfcHl0aG9uJywgJy1waCcsICc3LjAnLCAnLXRuJywgJzgnLCAnLW1hJywgJzIwMCcsICctbWV0YWxfYmluZGluZycsICctaW1hZScsICc8aW5maWxlLm1hZT4nLCAnLW9tYWUnLCAnPG91dGZpbGUubWFlPic=

> <r_epik_Ionization_Penalty>
0.0011087

> <r_epik_Ionization_Penalty_Charging>
0.00106265

> <r_epik_Ionization_Penalty_Neutral>
4.60506e-05

> <r_epik_State_Penalty>
0.000695551

> <r_epik_Charging_Adjusted_Penalty>
0.0017582

> <i_epik_Tot_Q>
1

> <i_epik_Tot_abs_Q>
1

> <r_epik_Metal_State_Penalty>
-0

> <b_epik_Metal_Only>
0

> <s_lp_Force_Field>
OPLS_2005

> <r_lp_Energy>
20.1287

> <b_lp_Chiralities_Consistent>
1

> <s_lp_Variant>
AV-unprocessed.smi:745-2

> <Gold.Version>
5.8.1

> <Gold.Id.Protein>
6NUR|6NUR_protein|mol2

> <Gold.PLP.Fitness>
41.1391

> <Gold.PLP.PLP>
-33.2232

> <Gold.PLP.part.hbond>
-2.8944

> <Gold.PLP.part.metal>
0.0000

> <Gold.PLP.part.buried>
-0.7243

> <Gold.PLP.part.nonpolar>
-30.6647

> <Gold.PLP.part.repulsive>
0.8438

> <Gold.PLP.ligand.clash>
0.0000

> <Gold.PLP.ligand.torsion>
0.4300

> <Gold.PLP.Chemscore.Hbond>
1.9193

> <Gold.PLP.Chemscore.CHOScore>
1.0000

> <Gold.PLP.Chemscore.Metal>
0.0000

> <Gold.Chemscore.Hbonds>
donor molecule, donor type, donor heavy atom, donor atom, acceptor molecule, acceptor atom, score
      L1  H     3    24       P1  7948  1.00
      L1  H     6    25       P1  7948  0.90
      L1  C    11    29       P1  8028  1.00

> <Gold.PLP.Chemscore.Internal.Correction>
0.0180

> <Gold.Rescore>
     Score         DG    S(hbond)    S(metal)    S(lipo)     H(rot)  DE(clash)    DE(int)     intcor
     14.44     -17.66       1.92        0.00      76.83       1.26       0.23       2.99       ----

> <Gold.Chemscore.Fitness>
14.4436

> <Gold.Chemscore.DG>
-17.6630

> <Gold.Chemscore.ZeroCoef>
-5.4800

> <Gold.Chemscore.Hbond>
1.9222

> <Gold.Chemscore.Metal>
0.0000

> <Gold.Chemscore.Lipo>
76.8263

> <Gold.Chemscore.Internal_Hbond>
0.0000

> <Gold.Chemscore.DEClash>
0.2287

> <Gold.Chemscore.DEInternal>
2.9907

> <Gold.Chemscore.Rot>
1.2601

> <Gold.Chemscore.Internal.Correction>
   9.000000E+99

> <Gold.Chemscore.Hbonds>
donor molecule, donor type, donor heavy atom, donor atom, acceptor molecule, acceptor atom, score
      L1  H     3    24       P1  7948  0.96
      L1  H     6    25       P1  7948  0.88

> <Gold.Chemscore.Hbond.Weighted>
-6.4202

> <Gold.Chemscore.Metal.Weighted>
-0.0000

> <Gold.Chemscore.Lipo.Weighted>
-8.9887

> <Gold.Chemscore.Internal_Hbond.Weighted>
0.0000

> <Gold.Chemscore.DEClash.Weighted>
0.2287

> <Gold.Chemscore.DEInternal.Weighted>
2.9907

> <Gold.Chemscore.Rot.Weighted>
3.2260

> <Gold.Chemscore.Internal.Correction.Weighted>
   9.000000E+99

> <Gold.Protein.RotatedTorsions>
[ 6907 6896 6895 6894 ] final -125.19 input  -60.11 | X-H torsion
[ 7974 7965 7964 7962 ] final -163.67 input  175.53 | X-H torsion
[ 8008 7997 7996 7995 ] final  -51.80 input   59.86 | X-H torsion
[ 10167 10162 10161 10158 ] final   90.47 input  -65.29 | X-H torsion
[ 10718 10713 10712 10709 ] final  -22.39 input   66.30 | X-H torsion
[ 10763 10752 10751 10750 ] final   51.46 input  -60.55 | X-H torsion
[ 11005 11000 10999 10996 ] final   90.38 input  -57.11 | X-H torsion

> <Gold.Protein.ActiveResidues>
 VAL166  LYS551  ARG553  GLY616  TRP617  ASP618  TYR619  PRO620  LYS621  CYS622 
 ASP623  PHE694  ASN695  SER759  ASP760  ASP761  ALA762  ILE779  LEU786  VAL792 
 PHE793  MET794  SER795  GLU796  ALA797  LYS798  CYS799  TRP800  GLU811  SER814 

> <Gold.Protein.RotatedAtoms>
  150.8843  133.7329  159.2922 H   0  0  0  0  0  0  0  0  0  0  0  0  # atno 6907 bound_to 6896
  151.4900  135.1055  159.9810 H   0  0  0  0  0  0  0  0  0  0  0  0  # atno 6908 bound_to 6896
  152.4780  133.8138  159.7073 H   0  0  0  0  0  0  0  0  0  0  0  0  # atno 6909 bound_to 6896
  144.7319  140.3073  143.6194 H   0  0  0  0  0  0  0  0  0  0  0  0  # atno 7974 bound_to 7965
  154.4091  140.1239  156.4888 H   0  0  0  0  0  0  0  0  0  0  0  0  # atno 8008 bound_to 7997
  155.7011  140.3494  155.4914 H   0  0  0  0  0  0  0  0  0  0  0  0  # atno 8009 bound_to 7997
  155.9384  140.1082  157.1065 H   0  0  0  0  0  0  0  0  0  0  0  0  # atno 8010 bound_to 7997
  139.8470  144.6613  150.9215 H   0  0  0  0  0  0  0  0  0  0  0  0  # atno 10167 bound_to 10162
  156.5052  130.4597  149.6679 H   0  0  0  0  0  0  0  0  0  0  0  0  # atno 10718 bound_to 10713
  152.9785  135.5845  154.4419 H   0  0  0  0  0  0  0  0  0  0  0  0  # atno 10763 bound_to 10752
  154.4019  135.2769  155.2093 H   0  0  0  0  0  0  0  0  0  0  0  0  # atno 10764 bound_to 10752
  154.3920  135.6123  153.5903 H   0  0  0  0  0  0  0  0  0  0  0  0  # atno 10765 bound_to 10752
  139.8857  134.8610  156.3276 H   0  0  0  0  0  0  0  0  0  0  0  0  # atno 11005 bound_to 11000
  145.7700  139.1854  143.2218 LP  0  0  0  0  0  0  0  0  0  0  0  0  # atno 17320 bound_to 7965
  146.0918  140.7647  142.9591 LP  0  0  0  0  0  0  0  0  0  0  0  0  # atno 17321 bound_to 7965
  140.7792  143.3861  151.1391 LP  0  0  0  0  0  0  0  0  0  0  0  0  # atno 17342 bound_to 10162
  139.7503  143.8790  152.3075 LP  0  0  0  0  0  0  0  0  0  0  0  0  # atno 17343 bound_to 10162
  156.3294  130.7323  151.2250 LP  0  0  0  0  0  0  0  0  0  0  0  0  # atno 17370 bound_to 10713
  157.7458  131.0434  150.4741 LP  0  0  0  0  0  0  0  0  0  0  0  0  # atno 17371 bound_to 10713
  140.9744  133.7307  156.0581 LP  0  0  0  0  0  0  0  0  0  0  0  0  # atno 17394 bound_to 11000
  140.7829  134.3704  157.5483 LP  0  0  0  0  0  0  0  0  0  0  0  0  # atno 17395 bound_to 11000

$$$$
