AV-unprocessed.smi:1200|AV-procd|sdf|5023|dock5
  -GOLD-   22720 4 43D 1   1.00000     0.00000
 Structure written by MMmdl.
 43 44  0  0  0  0  0  0  0  0  2 V2000
  148.2552  126.9842  151.0781 C   0  0  0  0  0  0  0  0  0  0  0  0
  148.7305  127.6699  152.2703 N   0  0  0  0  0  0  0  0  0  0  0  0
  147.9938  128.5271  152.9907 C   0  0  0  0  0  0  0  0  0  0  0  0
  146.8334  128.8251  152.7046 O   0  0  0  0  0  0  0  0  0  0  0  0
  148.6815  129.1539  154.2080 C   0  0  0  0  0  0  0  0  0  0  0  0
  148.9443  130.6066  154.0418 N   0  3  2  0  0  0  0  0  0  0  0  0
  149.3064  131.2689  155.3207 C   0  0  0  0  0  0  0  0  0  0  0  0
  149.7196  132.7324  155.0897 C   0  0  0  0  0  0  0  0  0  0  0  0
  148.6092  133.5166  154.3724 C   0  0  1  0  0  0  0  0  0  0  0  0
  149.0630  134.8752  154.0879 N   0  0  0  0  0  0  0  0  0  0  0  0
  149.5476  135.7336  154.9972 C   0  0  0  0  0  0  0  0  0  0  0  0
  149.6621  135.4585  156.1910 O   0  0  0  0  0  0  0  0  0  0  0  0
  149.8884  136.9020  154.4259 N   0  0  0  0  0  0  0  0  0  0  0  0
  150.4669  138.0582  155.0194 C   0  0  0  0  0  0  0  0  0  0  0  0
  151.1444  138.0760  156.2635 C   0  0  0  0  0  0  0  0  0  0  0  0
  151.6648  139.2962  156.7370 C   0  0  0  0  0  0  0  0  0  0  0  0
  151.4846  140.4539  155.9562 C   0  0  0  0  0  0  0  0  0  0  0  0
  150.8316  140.4548  154.7754 N   0  0  0  0  0  0  0  0  0  0  0  0
  150.3361  139.2816  154.3275 C   0  0  0  0  0  0  0  0  0  0  0  0
  148.2193  132.7886  153.0733 C   0  0  0  0  0  0  0  0  0  0  0  0
  147.8408  131.3240  153.3487 C   0  0  0  0  0  0  0  0  0  0  0  0
  149.0569  126.3813  150.6513 H   0  0  0  0  0  0  0  0  0  0  0  0
  147.9260  127.6984  150.3220 H   0  0  0  0  0  0  0  0  0  0  0  0
  147.4219  126.3224  151.3182 H   0  0  0  0  0  0  0  0  0  0  0  0
  149.6786  127.4814  152.5627 H   0  0  0  0  0  0  0  0  0  0  0  0
  148.0949  128.9799  155.1117 H   0  0  0  0  0  0  0  0  0  0  0  0
  149.6246  128.6217  154.3394 H   0  0  0  0  0  0  0  0  0  0  0  0
  148.4620  131.2181  156.0100 H   0  0  0  0  0  0  0  0  0  0  0  0
  150.1332  130.7355  155.7912 H   0  0  0  0  0  0  0  0  0  0  0  0
  149.9536  133.2039  156.0452 H   0  0  0  0  0  0  0  0  0  0  0  0
  150.6365  132.7600  154.4984 H   0  0  0  0  0  0  0  0  0  0  0  0
  147.7407  133.5565  155.0333 H   0  0  0  0  0  0  0  0  0  0  0  0
  149.0066  135.1839  153.1282 H   0  0  0  0  0  0  0  0  0  0  0  0
  149.7664  136.9535  153.4250 H   0  0  0  0  0  0  0  0  0  0  0  0
  151.2705  137.1930  156.8692 H   0  0  0  0  0  0  0  0  0  0  0  0
  152.1890  139.3438  157.6801 H   0  0  0  0  0  0  0  0  0  0  0  0
  151.8715  141.4048  156.2912 H   0  0  0  0  0  0  0  0  0  0  0  0
  149.8194  139.3215  153.3795 H   0  0  0  0  0  0  0  0  0  0  0  0
  147.3836  133.2979  152.5920 H   0  0  0  0  0  0  0  0  0  0  0  0
  149.0491  132.8204  152.3655 H   0  0  0  0  0  0  0  0  0  0  0  0
  147.6070  130.8321  152.4042 H   0  0  0  0  0  0  0  0  0  0  0  0
  146.9364  131.2798  153.9578 H   0  0  0  0  0  0  0  0  0  0  0  0
  149.7583  130.6744  153.4470 H   0  0  0  0  0  0  0  0  0  0  0  0
  1  2  1  0  0  0  0
  1 22  1  0  0  0  0
  1 23  1  0  0  0  0
  1 24  1  0  0  0  0
  2  3  1  0  0  0  0
  2 25  1  0  0  0  0
  3  4  2  0  0  0  0
  3  5  1  0  0  0  0
  5  6  1  0  0  0  0
  5 26  1  0  0  0  0
  5 27  1  0  0  0  0
  6 21  1  0  0  0  0
  6  7  1  0  0  0  0
  6 43  1  0  0  0  0
  7  8  1  0  0  0  0
  7 28  1  0  0  0  0
  7 29  1  0  0  0  0
  8  9  1  0  0  0  0
  8 30  1  0  0  0  0
  8 31  1  0  0  0  0
  9 10  1  0  0  0  0
  9 20  1  0  0  0  0
  9 32  1  0  0  0  0
 10 11  1  0  0  0  0
 10 33  1  0  0  0  0
 11 12  2  0  0  0  0
 11 13  1  0  0  0  0
 13 14  1  0  0  0  0
 13 34  1  0  0  0  0
 14 19  1  0  0  0  0
 14 15  2  0  0  0  0
 15 16  1  0  0  0  0
 15 35  1  0  0  0  0
 16 17  2  0  0  0  0
 16 36  1  0  0  0  0
 17 18  1  0  0  0  0
 17 37  1  0  0  0  0
 18 19  2  0  0  0  0
 19 38  1  0  0  0  0
 20 21  1  0  0  0  0
 20 39  1  0  0  0  0
 20 40  1  0  0  0  0
 21 41  1  0  0  0  0
 21 42  1  0  0  0  0
M  CHG  1   6   1
M  END
> <s_m_source_file>
AV-unprocessed.smi

> <i_m_source_file_index>
1200

> <i_lp_mmshare_version>
43012

> <i_f3d_flags>
0

> <s_epik_input>
W0NIM11bTkhdQyg9TylbQ0gyXU4xW0NIMl1bQ0gyXVtDSF0oW0NIMl1bQ0gyXTEpW05IXUMoPU8pW05IXWMyW2NIXVtjSF1bY0hdbltjSF0y

> <s_epik_cmdline>
J2VwaWtfcHl0aG9uJywgJy1waCcsICc3LjAnLCAnLXRuJywgJzgnLCAnLW1hJywgJzIwMCcsICctbWV0YWxfYmluZGluZycsICctaW1hZScsICc8aW5maWxlLm1hZT4nLCAnLW9tYWUnLCAnPG91dGZpbGUubWFlPic=

> <r_epik_Ionization_Penalty>
0.842849

> <r_epik_Ionization_Penalty_Charging>
0.838844

> <r_epik_Ionization_Penalty_Neutral>
0.00400543

> <r_epik_State_Penalty>
0.858736

> <r_epik_Charging_Adjusted_Penalty>
1.69758

> <i_epik_Tot_Q>
1

> <i_epik_Tot_abs_Q>
1

> <r_epik_Metal_State_Penalty>
0.860766

> <b_epik_Metal_Only>
0

> <s_lp_Force_Field>
OPLS_2005

> <r_lp_Energy>
18.0189

> <b_lp_Chiralities_Consistent>
1

> <s_lp_Variant>
AV-unprocessed.smi:1200-2

> <Gold.Version>
5.8.1

> <Gold.Id.Protein>
6NUR|6NUR_protein|mol2

> <Gold.PLP.Fitness>
51.0726

> <Gold.PLP.PLP>
-36.7077

> <Gold.PLP.part.hbond>
-4.0516

> <Gold.PLP.part.metal>
0.0000

> <Gold.PLP.part.buried>
-4.0444

> <Gold.PLP.part.nonpolar>
-27.7883

> <Gold.PLP.part.repulsive>
0.3827

> <Gold.PLP.ligand.clash>
0.0000

> <Gold.PLP.ligand.torsion>
0.3259

> <Gold.PLP.Chemscore.Hbond>
4.0000

> <Gold.PLP.Chemscore.CHOScore>
1.0000

> <Gold.PLP.Chemscore.Metal>
0.0000

> <Gold.Chemscore.Hbonds>
donor molecule, donor type, donor heavy atom, donor atom, acceptor molecule, acceptor atom, score
      L1  H    10    33       P1  7948  1.00
      L1  H    13    34       P1  7948  0.98
      P1  H  7989  7998       L1    18  0.95
      L1  C    19    38       P1  7957  1.00

> <Gold.PLP.Chemscore.Internal.Correction>
0.0167

> <Gold.Rescore>
     Score         DG    S(hbond)    S(metal)    S(lipo)     H(rot)  DE(clash)    DE(int)     intcor
     16.22     -18.34       2.70        0.00      69.89       1.69       0.08       2.04       ----

> <Gold.Chemscore.Fitness>
16.2205

> <Gold.Chemscore.DG>
-18.3406

> <Gold.Chemscore.ZeroCoef>
-5.4800

> <Gold.Chemscore.Hbond>
2.6956

> <Gold.Chemscore.Metal>
0.0000

> <Gold.Chemscore.Lipo>
69.8865

> <Gold.Chemscore.Internal_Hbond>
0.0000

> <Gold.Chemscore.DEClash>
0.0765

> <Gold.Chemscore.DEInternal>
2.0436

> <Gold.Chemscore.Rot>
1.6873

> <Gold.Chemscore.Internal.Correction>
   9.000000E+99

> <Gold.Chemscore.Hbonds>
donor molecule, donor type, donor heavy atom, donor atom, acceptor molecule, acceptor atom, score
      L1  H     2    25       P1 10737  0.01
      L1  H    10    33       P1  7948  0.25
      L1  H    13    34       P1  7948  0.47
      P1  H  7989  7998       L1    18  0.19

> <Gold.Chemscore.Hbond.Weighted>
-9.0032

> <Gold.Chemscore.Metal.Weighted>
-0.0000

> <Gold.Chemscore.Lipo.Weighted>
-8.1767

> <Gold.Chemscore.Internal_Hbond.Weighted>
0.0000

> <Gold.Chemscore.DEClash.Weighted>
0.0765

> <Gold.Chemscore.DEInternal.Weighted>
2.0436

> <Gold.Chemscore.Rot.Weighted>
4.3194

> <Gold.Chemscore.Internal.Correction.Weighted>
   9.000000E+99

> <Gold.Protein.RotatedTorsions>
[ 6907 6896 6895 6894 ] final  -41.09 input  -60.11 | X-H torsion
[ 7974 7965 7964 7962 ] final   48.04 input  175.53 | X-H torsion
[ 8008 7997 7996 7995 ] final   93.44 input   59.86 | X-H torsion
[ 10167 10162 10161 10158 ] final  -70.85 input  -65.29 | X-H torsion
[ 10718 10713 10712 10709 ] final  114.49 input   66.30 | X-H torsion
[ 10763 10752 10751 10750 ] final -124.22 input  -60.55 | X-H torsion
[ 11005 11000 10999 10996 ] final -129.21 input  -57.11 | X-H torsion

> <Gold.Protein.ActiveResidues>
 VAL166  LYS551  ARG553  GLY616  TRP617  ASP618  TYR619  PRO620  LYS621  CYS622 
 ASP623  PHE694  ASN695  SER759  ASP760  ASP761  ALA762  ILE779  LEU786  VAL792 
 PHE793  MET794  SER795  GLU796  ALA797  LYS798  CYS799  TRP800  GLU811  SER814 

> <Gold.Protein.RotatedAtoms>
  150.9708  134.9081  159.7786 H   0  0  0  0  0  0  0  0  0  0  0  0  # atno 6907 bound_to 6896
  152.5189  134.3544  159.9272 H   0  0  0  0  0  0  0  0  0  0  0  0  # atno 6908 bound_to 6896
  151.3553  133.3869  159.2719 H   0  0  0  0  0  0  0  0  0  0  0  0  # atno 6909 bound_to 6896
  146.0242  139.4686  142.9878 H   0  0  0  0  0  0  0  0  0  0  0  0  # atno 7974 bound_to 7965
  156.0468  140.3313  155.7305 H   0  0  0  0  0  0  0  0  0  0  0  0  # atno 8008 bound_to 7997
  155.5662  140.0623  157.2835 H   0  0  0  0  0  0  0  0  0  0  0  0  # atno 8009 bound_to 7997
  154.4417  140.1869  156.0821 H   0  0  0  0  0  0  0  0  0  0  0  0  # atno 8010 bound_to 7997
  140.5320  143.2321  151.7245 H   0  0  0  0  0  0  0  0  0  0  0  0  # atno 10167 bound_to 10162
  157.6278  131.0999  150.7194 H   0  0  0  0  0  0  0  0  0  0  0  0  # atno 10718 bound_to 10713
  154.8720  135.4071  154.3070 H   0  0  0  0  0  0  0  0  0  0  0  0  # atno 10763 bound_to 10752
  153.3920  135.7015  153.6493 H   0  0  0  0  0  0  0  0  0  0  0  0  # atno 10764 bound_to 10752
  153.5272  135.3675  155.2630 H   0  0  0  0  0  0  0  0  0  0  0  0  # atno 10765 bound_to 10752
  140.9451  134.1141  157.4115 H   0  0  0  0  0  0  0  0  0  0  0  0  # atno 11005 bound_to 11000
  145.7145  141.0095  143.1435 LP  0  0  0  0  0  0  0  0  0  0  0  0  # atno 17320 bound_to 7965
  144.7002  139.8797  143.7446 LP  0  0  0  0  0  0  0  0  0  0  0  0  # atno 17321 bound_to 7965
  139.4957  144.4100  152.0091 LP  0  0  0  0  0  0  0  0  0  0  0  0  # atno 17342 bound_to 10162
  140.3203  144.3436  150.6011 LP  0  0  0  0  0  0  0  0  0  0  0  0  # atno 17343 bound_to 10162
  156.7539  130.4777  149.5451 LP  0  0  0  0  0  0  0  0  0  0  0  0  # atno 17370 bound_to 10713
  156.1461  130.6278  151.0533 LP  0  0  0  0  0  0  0  0  0  0  0  0  # atno 17371 bound_to 10713
  139.8831  135.0049  156.6277 LP  0  0  0  0  0  0  0  0  0  0  0  0  # atno 17394 bound_to 11000
  140.7680  133.8762  155.8469 LP  0  0  0  0  0  0  0  0  0  0  0  0  # atno 17395 bound_to 11000

$$$$
