AV-unprocessed.smi:187|AV-procd|sdf|1470|dock8
  -GOLD-   2262019283D 1   1.00000     0.00000
 Structure written by MMmdl.
 53 56  0  0  0  0  0  0  0  0  1 V2000
  152.1142  139.6805  159.5800 C   0  0  0  0  0  0  0  0  0  0  0  0
  152.6254  141.1082  159.2930 C   0  0  2  0  0  0  0  0  0  0  0  0
  152.7147  141.9019  160.6131 C   0  0  0  0  0  0  0  0  0  0  0  0
  153.1599  143.3560  160.3798 C   0  0  0  0  0  0  0  0  0  0  0  0
  152.2905  144.0717  159.3243 C   0  0  2  0  0  0  0  0  0  0  0  0
  150.9003  144.4594  159.8644 C   0  0  0  0  0  0  0  0  0  0  0  0
  150.8538  145.4590  160.7492 N   0  0  0  0  0  0  0  0  0  0  0  0
  149.8817  143.8817  159.4891 O   0  0  0  0  0  0  0  0  0  0  0  0
  152.2108  143.2082  158.0470 C   0  0  0  0  0  0  0  0  0  0  0  0
  151.7904  141.8329  158.3242 N   0  0  0  0  0  0  0  0  0  0  0  0
  151.5127  141.1596  157.1855 C   0  0  0  0  0  0  0  0  0  0  0  0
  152.3434  140.1720  156.7593 N   0  0  0  0  0  0  0  0  0  0  0  0
  152.0547  139.4995  155.6412 C   0  0  0  0  0  0  0  0  0  0  0  0
  151.0103  139.6487  154.8233 N   0  0  0  0  0  0  0  0  0  0  0  0
  150.1750  140.6392  155.2525 C   0  0  0  0  0  0  0  0  0  0  0  0
  150.3550  141.4393  156.4147 C   0  0  0  0  0  0  0  0  0  0  0  0
  149.3105  142.3447  156.5414 N   0  0  0  0  0  0  0  0  0  0  0  0
  148.5508  142.0932  155.5104 C   0  0  0  0  0  0  0  0  0  0  0  0
  148.9916  141.0832  154.6829 N   0  0  0  0  0  0  0  0  0  0  0  0
  148.3410  140.6103  153.4929 C   0  0  0  0  0  0  0  0  0  0  0  0
  146.8545  140.8757  153.2403 C   0  0  0  0  0  0  0  0  0  0  0  0
  146.7432  139.5099  152.5220 C   0  0  0  0  0  0  0  0  0  0  0  0
  145.4896  138.6614  152.8130 C   0  0  0  0  0  0  0  0  0  0  0  0
  144.2943  139.3101  152.4261 O   0  0  0  0  0  0  0  0  0  0  0  0
  146.9196  139.5551  150.9927 C   0  0  0  0  0  0  0  0  0  0  0  0
  147.0422  138.2587  150.4430 O   0  0  0  0  0  0  0  0  0  0  0  0
  148.0289  139.1249  153.2919 C   0  0  0  0  0  0  0  0  0  0  0  0
  152.7205  139.1954  160.3453 H   0  0  0  0  0  0  0  0  0  0  0  0
  152.1548  139.0455  158.6946 H   0  0  0  0  0  0  0  0  0  0  0  0
  151.0828  139.6944  159.9343 H   0  0  0  0  0  0  0  0  0  0  0  0
  153.6301  141.0334  158.8740 H   0  0  0  0  0  0  0  0  0  0  0  0
  151.7484  141.8881  161.1182 H   0  0  0  0  0  0  0  0  0  0  0  0
  153.4142  141.4143  161.2929 H   0  0  0  0  0  0  0  0  0  0  0  0
  153.1469  143.9046  161.3226 H   0  0  0  0  0  0  0  0  0  0  0  0
  154.1978  143.3590  160.0447 H   0  0  0  0  0  0  0  0  0  0  0  0
  152.7964  145.0001  159.0544 H   0  0  0  0  0  0  0  0  0  0  0  0
  149.9675  145.7526  161.1335 H   0  0  0  0  0  0  0  0  0  0  0  0
  151.7079  145.9183  161.0302 H   0  0  0  0  0  0  0  0  0  0  0  0
  151.5205  143.6656  157.3359 H   0  0  0  0  0  0  0  0  0  0  0  0
  153.1887  143.1931  157.5628 H   0  0  0  0  0  0  0  0  0  0  0  0
  152.7593  138.7298  155.3629 H   0  0  0  0  0  0  0  0  0  0  0  0
  147.6390  142.6429  155.3270 H   0  0  0  0  0  0  0  0  0  0  0  0
  148.9289  140.9810  152.6510 H   0  0  0  0  0  0  0  0  0  0  0  0
  146.2716  140.9325  154.1602 H   0  0  0  0  0  0  0  0  0  0  0  0
  146.6585  141.7439  152.6104 H   0  0  0  0  0  0  0  0  0  0  0  0
  145.5295  137.7078  152.2861 H   0  0  0  0  0  0  0  0  0  0  0  0
  145.4154  138.4307  153.8761 H   0  0  0  0  0  0  0  0  0  0  0  0
  144.5134  140.0285  151.8529 H   0  0  0  0  0  0  0  0  0  0  0  0
  146.0703  140.0410  150.5117 H   0  0  0  0  0  0  0  0  0  0  0  0
  147.7999  140.1370  150.7168 H   0  0  0  0  0  0  0  0  0  0  0  0
  147.2114  137.6490  151.1452 H   0  0  0  0  0  0  0  0  0  0  0  0
  148.7716  138.5895  152.6999 H   0  0  0  0  0  0  0  0  0  0  0  0
  147.8419  138.6032  154.2310 H   0  0  0  0  0  0  0  0  0  0  0  0
  1  2  1  0  0  0  0
  1 28  1  0  0  0  0
  1 29  1  0  0  0  0
  1 30  1  0  0  0  0
  2 10  1  0  0  0  0
  2  3  1  0  0  0  0
  2 31  1  0  0  0  0
  3  4  1  0  0  0  0
  3 32  1  0  0  0  0
  3 33  1  0  0  0  0
  4  5  1  0  0  0  0
  4 34  1  0  0  0  0
  4 35  1  0  0  0  0
  5  6  1  0  0  0  0
  5  9  1  0  0  0  0
  5 36  1  0  0  0  0
  6  7  1  0  0  0  0
  6  8  2  0  0  0  0
  7 37  1  0  0  0  0
  7 38  1  0  0  0  0
  9 10  1  0  0  0  0
  9 39  1  0  0  0  0
  9 40  1  0  0  0  0
 10 11  1  0  0  0  0
 11 16  1  0  0  0  0
 11 12  2  0  0  0  0
 12 13  1  0  0  0  0
 13 14  2  0  0  0  0
 13 41  1  0  0  0  0
 14 15  1  0  0  0  0
 15 19  1  0  0  0  0
 15 16  2  0  0  0  0
 16 17  1  0  0  0  0
 17 18  2  0  0  0  0
 18 19  1  0  0  0  0
 18 42  1  0  0  0  0
 19 20  1  0  0  0  0
 20 27  1  0  0  0  0
 20 21  1  0  0  0  0
 20 43  1  0  0  0  0
 21 22  1  0  0  0  0
 21 44  1  0  0  0  0
 21 45  1  0  0  0  0
 22 23  1  0  0  0  0
 22 25  1  0  0  0  0
 22 27  1  0  0  0  0
 23 24  1  0  0  0  0
 23 46  1  0  0  0  0
 23 47  1  0  0  0  0
 24 48  1  0  0  0  0
 25 26  1  0  0  0  0
 25 49  1  0  0  0  0
 25 50  1  0  0  0  0
 26 51  1  0  0  0  0
 27 52  1  0  0  0  0
 27 53  1  0  0  0  0
M  END
> <s_m_source_file>
AV-unprocessed.smi

> <i_m_source_file_index>
187

> <i_lp_mmshare_version>
43012

> <i_f3d_flags>
0

> <s_epik_input>
W0NIM11bQ0BASF0xW0NIMl1bQ0gyXVtDQEBIXShDKD1PKVtOSDJdKVtDSDJdTjFjKG5bY0hdbjIpYyhjMjMpbltjSF1uM1tDSF0oW0NIMl00KVtDSDJdQzQoW0NIMl1bT0hdKVtDSDJdW09IXQ==

> <s_epik_cmdline>
J2VwaWtfcHl0aG9uJywgJy1waCcsICc3LjAnLCAnLXRuJywgJzgnLCAnLW1hJywgJzIwMCcsICctbWV0YWxfYmluZGluZycsICctaW1hZScsICc8aW5maWxlLm1hZT4nLCAnLW9tYWUnLCAnPG91dGZpbGUubWFlPic=

> <r_lp_tautomer_probability>
1

> <r_epik_Ionization_Penalty>
0.0017711

> <r_epik_Ionization_Penalty_Charging>
0

> <r_epik_Ionization_Penalty_Neutral>
0.0017711

> <r_epik_State_Penalty>
0.00107211

> <r_epik_Charging_Adjusted_Penalty>
0.00107211

> <i_epik_Tot_Q>
0

> <i_epik_Tot_abs_Q>
0

> <r_epik_Metal_State_Penalty>
-0

> <b_epik_Metal_Only>
0

> <s_lp_Force_Field>
OPLS_2005

> <r_lp_Energy>
40.7321

> <b_lp_Chiralities_Consistent>
1

> <s_lp_Variant>
AV-unprocessed.smi:187-3

> <Gold.Version>
5.8.1

> <Gold.Id.Protein>
6NUR|6NUR_protein|mol2

> <Gold.PLP.Fitness>
57.3445

> <Gold.PLP.PLP>
-46.9367

> <Gold.PLP.part.hbond>
-6.6917

> <Gold.PLP.part.metal>
0.0000

> <Gold.PLP.part.buried>
0.6226

> <Gold.PLP.part.nonpolar>
-41.4659

> <Gold.PLP.part.repulsive>
1.2324

> <Gold.PLP.ligand.clash>
0.0000

> <Gold.PLP.ligand.torsion>
1.2953

> <Gold.PLP.Chemscore.Hbond>
4.1251

> <Gold.PLP.Chemscore.CHOScore>
0.0000

> <Gold.PLP.Chemscore.Metal>
0.0000

> <Gold.Chemscore.Hbonds>
donor molecule, donor type, donor heavy atom, donor atom, acceptor molecule, acceptor atom, score
      L1  H    26    51       P1  7948  0.22
      P1  H  7954  7966       L1    26  0.17
      P1  H  7989  7998       L1    14  0.40
      P1  H  7997  8010       L1    12  0.93
      L1  C    18    42       P1  8028  0.20

> <Gold.PLP.Chemscore.Internal.Correction>
0.6230

> <Gold.Rescore>
     Score         DG    S(hbond)    S(metal)    S(lipo)     H(rot)  DE(clash)    DE(int)     intcor
     10.53     -14.91       2.43        0.00      98.53       3.99       1.83       2.56       ----

> <Gold.Chemscore.Fitness>
10.5263

> <Gold.Chemscore.DG>
-14.9084

> <Gold.Chemscore.ZeroCoef>
-5.4800

> <Gold.Chemscore.Hbond>
2.4298

> <Gold.Chemscore.Metal>
0.0000

> <Gold.Chemscore.Lipo>
98.5257

> <Gold.Chemscore.Internal_Hbond>
0.0000

> <Gold.Chemscore.DEClash>
1.8257

> <Gold.Chemscore.DEInternal>
2.5564

> <Gold.Chemscore.Rot>
3.9902

> <Gold.Chemscore.Internal.Correction>
   9.000000E+99

> <Gold.Chemscore.Hbonds>
donor molecule, donor type, donor heavy atom, donor atom, acceptor molecule, acceptor atom, score
      L1  H    26    51       P1  7948  0.21
      P1  H  7954  7966       L1    26  0.01
      P1  H  7997  8010       L1    12  0.19

> <Gold.Chemscore.Hbond.Weighted>
-8.1157

> <Gold.Chemscore.Metal.Weighted>
-0.0000

> <Gold.Chemscore.Lipo.Weighted>
-11.5275

> <Gold.Chemscore.Internal_Hbond.Weighted>
0.0000

> <Gold.Chemscore.DEClash.Weighted>
1.8257

> <Gold.Chemscore.DEInternal.Weighted>
2.5564

> <Gold.Chemscore.Rot.Weighted>
10.2148

> <Gold.Chemscore.Internal.Correction.Weighted>
   9.000000E+99

> <Gold.Protein.RotatedTorsions>
[ 6907 6896 6895 6894 ] final   12.91 input  -60.11 | X-H torsion
[ 7974 7965 7964 7962 ] final    7.87 input  175.53 | X-H torsion
[ 8008 7997 7996 7995 ] final   58.27 input   59.86 | X-H torsion
[ 10167 10162 10161 10158 ] final  -18.90 input  -65.29 | X-H torsion
[ 10718 10713 10712 10709 ] final  159.78 input   66.30 | X-H torsion
[ 10763 10752 10751 10750 ] final -112.58 input  -60.55 | X-H torsion
[ 11005 11000 10999 10996 ] final   57.29 input  -57.11 | X-H torsion

> <Gold.Protein.ActiveResidues>
 VAL166  LYS551  ARG553  GLY616  TRP617  ASP618  TYR619  PRO620  LYS621  CYS622 
 ASP623  PHE694  ASN695  SER759  ASP760  ASP761  ALA762  ILE779  LEU786  VAL792 
 PHE793  MET794  SER795  GLU796  ALA797  LYS798  CYS799  TRP800  GLU811  SER814 

> <Gold.Protein.RotatedAtoms>
  151.7779  135.0769  160.0369 H   0  0  0  0  0  0  0  0  0  0  0  0  # atno 6907 bound_to 6896
  152.3243  133.5884  159.5774 H   0  0  0  0  0  0  0  0  0  0  0  0  # atno 6908 bound_to 6896
  150.7387  133.9879  159.3639 H   0  0  0  0  0  0  0  0  0  0  0  0  # atno 6909 bound_to 6896
  146.2422  140.0018  142.8415 H   0  0  0  0  0  0  0  0  0  0  0  0  # atno 7974 bound_to 7965
  155.5472  140.3485  155.4460 H   0  0  0  0  0  0  0  0  0  0  0  0  # atno 8008 bound_to 7997
  156.0609  140.1340  156.9968 H   0  0  0  0  0  0  0  0  0  0  0  0  # atno 8009 bound_to 7997
  154.4479  140.0985  156.6500 H   0  0  0  0  0  0  0  0  0  0  0  0  # atno 8010 bound_to 7997
  140.7263  143.4871  151.0040 H   0  0  0  0  0  0  0  0  0  0  0  0  # atno 10167 bound_to 10162
  157.1595  131.0584  151.2239 H   0  0  0  0  0  0  0  0  0  0  0  0  # atno 10718 bound_to 10713
  154.8356  135.4485  154.1216 H   0  0  0  0  0  0  0  0  0  0  0  0  # atno 10763 bound_to 10752
  153.2451  135.6920  153.7747 H   0  0  0  0  0  0  0  0  0  0  0  0  # atno 10764 bound_to 10752
  153.7080  135.3361  155.3216 H   0  0  0  0  0  0  0  0  0  0  0  0  # atno 10765 bound_to 10752
  140.0463  134.5800  155.9318 H   0  0  0  0  0  0  0  0  0  0  0  0  # atno 11005 bound_to 11000
  145.1408  140.9570  143.4489 LP  0  0  0  0  0  0  0  0  0  0  0  0  # atno 17320 bound_to 7965
  145.0297  139.3351  143.6030 LP  0  0  0  0  0  0  0  0  0  0  0  0  # atno 17321 bound_to 7965
  139.8573  143.7360  152.3175 LP  0  0  0  0  0  0  0  0  0  0  0  0  # atno 17342 bound_to 10162
  139.7563  144.7520  151.0431 LP  0  0  0  0  0  0  0  0  0  0  0  0  # atno 17343 bound_to 10162
  157.4146  130.7404  149.6865 LP  0  0  0  0  0  0  0  0  0  0  0  0  # atno 17370 bound_to 10713
  155.9756  130.4086  150.3836 LP  0  0  0  0  0  0  0  0  0  0  0  0  # atno 17371 bound_to 10713
  141.1909  133.6570  156.5431 LP  0  0  0  0  0  0  0  0  0  0  0  0  # atno 17394 bound_to 11000
  140.3988  134.7375  157.4767 LP  0  0  0  0  0  0  0  0  0  0  0  0  # atno 17395 bound_to 11000

$$$$
