AV-unprocessed.smi:593|AV-procd|sdf|3013|dock10
  -GOLD-   2262023523D 1   1.00000     0.00000
 Structure written by MMmdl.
 40 41  0  0  0  0  0  0  0  0  3 V2000
  151.8194  136.4343  156.0087 O   0  0  0  0  0  0  0  0  0  0  0  0
  151.1218  136.6137  155.0116 C   0  0  0  0  0  0  0  0  0  0  0  0
  151.2260  137.9495  154.2543 C   0  0  0  0  0  0  0  0  0  0  0  0
  150.8661  139.1415  155.0452 N   0  0  0  0  0  0  0  0  0  0  0  0
  151.6845  139.4435  156.1514 C   0  0  0  0  0  0  0  0  0  0  0  0
  151.4585  140.5129  156.9392 C   0  0  0  0  0  0  0  0  0  0  0  0
  152.3141  140.8111  158.0665 N   0  3  0  0  0  0  0  0  0  0  0  0
  152.1041  141.8344  158.7099 O   0  0  0  0  0  0  0  0  0  0  0  0
  153.2231  140.0350  158.3459 O   0  5  0  0  0  0  0  0  0  0  0  0
  150.3288  141.3620  156.6151 C   0  0  0  0  0  0  0  0  0  0  0  0
  149.5446  141.0816  155.5558 C   0  0  0  0  0  0  0  0  0  0  0  0
  149.7955  139.9200  154.6969 C   0  0  0  0  0  0  0  0  0  0  0  0
  149.0921  139.6672  153.7189 O   0  0  0  0  0  0  0  0  0  0  0  0
  150.2635  135.6902  154.5503 N   0  0  0  0  0  0  0  0  0  0  0  0
  150.0063  134.3970  155.1675 C   0  0  0  0  0  0  0  0  0  0  0  0
  149.4593  133.3911  154.1364 C   0  0  0  0  0  0  0  0  0  0  0  0
  148.0289  133.7451  153.6682 C   0  0  0  0  0  0  0  0  0  0  0  0
  147.4916  132.7221  152.6542 C   0  0  0  0  0  0  0  0  0  0  0  0
  147.5419  131.2949  153.2197 C   0  0  0  0  0  0  0  0  0  0  0  0
  148.9621  130.9330  153.6785 C   0  0  0  0  0  0  0  0  0  0  0  0
  149.4963  131.9545  154.6956 C   0  0  0  0  0  0  0  0  0  0  0  0
  152.2413  138.0464  153.8661 H   0  0  0  0  0  0  0  0  0  0  0  0
  150.5945  137.8832  153.3672 H   0  0  0  0  0  0  0  0  0  0  0  0
  152.5031  138.7546  156.3036 H   0  0  0  0  0  0  0  0  0  0  0  0
  150.1041  142.2293  157.2186 H   0  0  0  0  0  0  0  0  0  0  0  0
  148.7091  141.7286  155.3317 H   0  0  0  0  0  0  0  0  0  0  0  0
  149.7295  135.9113  153.7225 H   0  0  0  0  0  0  0  0  0  0  0  0
  150.9374  134.0272  155.5988 H   0  0  0  0  0  0  0  0  0  0  0  0
  149.2964  134.5110  155.9888 H   0  0  0  0  0  0  0  0  0  0  0  0
  150.1140  133.4222  153.2638 H   0  0  0  0  0  0  0  0  0  0  0  0
  147.3611  133.7877  154.5295 H   0  0  0  0  0  0  0  0  0  0  0  0
  148.0075  134.7364  153.2141 H   0  0  0  0  0  0  0  0  0  0  0  0
  146.4674  132.9755  152.3787 H   0  0  0  0  0  0  0  0  0  0  0  0
  148.0801  132.7733  151.7374 H   0  0  0  0  0  0  0  0  0  0  0  0
  146.8530  131.2098  154.0610 H   0  0  0  0  0  0  0  0  0  0  0  0
  147.2012  130.5835  152.4671 H   0  0  0  0  0  0  0  0  0  0  0  0
  148.9669  129.9349  154.1171 H   0  0  0  0  0  0  0  0  0  0  0  0
  149.6271  130.8946  152.8148 H   0  0  0  0  0  0  0  0  0  0  0  0
  150.5166  131.6893  154.9746 H   0  0  0  0  0  0  0  0  0  0  0  0
  148.9036  131.8995  155.6099 H   0  0  0  0  0  0  0  0  0  0  0  0
  1  2  2  0  0  0  0
  2  3  1  0  0  0  0
  2 14  1  0  0  0  0
  3  4  1  0  0  0  0
  3 22  1  0  0  0  0
  3 23  1  0  0  0  0
  4 12  1  0  0  0  0
  4  5  1  0  0  0  0
  5  6  2  0  0  0  0
  5 24  1  0  0  0  0
  6  7  1  0  0  0  0
  6 10  1  0  0  0  0
  7  8  2  0  0  0  0
  7  9  1  0  0  0  0
 10 11  2  0  0  0  0
 10 25  1  0  0  0  0
 11 12  1  0  0  0  0
 11 26  1  0  0  0  0
 12 13  2  0  0  0  0
 14 15  1  0  0  0  0
 14 27  1  0  0  0  0
 15 16  1  0  0  0  0
 15 28  1  0  0  0  0
 15 29  1  0  0  0  0
 16 21  1  0  0  0  0
 16 17  1  0  0  0  0
 16 30  1  0  0  0  0
 17 18  1  0  0  0  0
 17 31  1  0  0  0  0
 17 32  1  0  0  0  0
 18 19  1  0  0  0  0
 18 33  1  0  0  0  0
 18 34  1  0  0  0  0
 19 20  1  0  0  0  0
 19 35  1  0  0  0  0
 19 36  1  0  0  0  0
 20 21  1  0  0  0  0
 20 37  1  0  0  0  0
 20 38  1  0  0  0  0
 21 39  1  0  0  0  0
 21 40  1  0  0  0  0
M  CHG  1   7   1
M  CHG  1   9  -1
M  END
> <s_m_source_file>
AV-unprocessed.smi

> <i_m_source_file_index>
593

> <i_lp_mmshare_version>
43012

> <i_f3d_flags>
0

> <s_epik_input>
W0NIMl0xW0NIMl1bQ0gyXVtDSDJdW0NIMl1bQ0hdMVtDSDJdW05IXUMoPU8pW0NIMl1uMltjSF1jKFtOK10oPU8pW08tXSlbY0hdW2NIXWMyPU8=

> <s_epik_cmdline>
J2VwaWtfcHl0aG9uJywgJy1waCcsICc3LjAnLCAnLXRuJywgJzgnLCAnLW1hJywgJzIwMCcsICctbWV0YWxfYmluZGluZycsICctaW1hZScsICc8aW5maWxlLm1hZT4nLCAnLW9tYWUnLCAnPG91dGZpbGUubWFlPic=

> <r_lp_tautomer_probability>
1

> <r_epik_Ionization_Penalty>
1.98738e-08

> <r_epik_Ionization_Penalty_Charging>
7.60687e-11

> <r_epik_Ionization_Penalty_Neutral>
1.97978e-08

> <r_epik_State_Penalty>
-0

> <r_epik_Charging_Adjusted_Penalty>
7.60687e-11

> <i_epik_Tot_Q>
0

> <i_epik_Tot_abs_Q>
2

> <r_epik_Metal_State_Penalty>
-0

> <b_epik_Metal_Only>
0

> <s_lp_Force_Field>
OPLS_2005

> <r_lp_Energy>
22.1176

> <b_lp_Chiralities_Consistent>
1

> <s_lp_Variant>
AV-unprocessed.smi:593-1

> <Gold.Version>
5.8.1

> <Gold.Id.Protein>
6NUR|6NUR_protein|mol2

> <Gold.PLP.Fitness>
44.4445

> <Gold.PLP.PLP>
-35.9295

> <Gold.PLP.part.hbond>
-3.5532

> <Gold.PLP.part.metal>
0.0000

> <Gold.PLP.part.buried>
-3.5203

> <Gold.PLP.part.nonpolar>
-33.4861

> <Gold.PLP.part.repulsive>
3.9124

> <Gold.PLP.ligand.clash>
0.0000

> <Gold.PLP.ligand.torsion>
0.2534

> <Gold.PLP.Chemscore.Hbond>
3.0000

> <Gold.PLP.Chemscore.CHOScore>
0.0000

> <Gold.PLP.Chemscore.Metal>
0.0000

> <Gold.Chemscore.Hbonds>
donor molecule, donor type, donor heavy atom, donor atom, acceptor molecule, acceptor atom, score
      L1  H    14    27       P1  7948  0.95
      P1  H  7997  8009       L1     9  0.99
      P1  H 10752 10764       L1     1  0.90

> <Gold.PLP.Chemscore.Internal.Correction>
0.0219

> <Gold.Rescore>
     Score         DG    S(hbond)    S(metal)    S(lipo)     H(rot)  DE(clash)    DE(int)     intcor
     16.24     -17.26       2.65        0.00      64.12       1.78       0.23       0.79       ----

> <Gold.Chemscore.Fitness>
16.2405

> <Gold.Chemscore.DG>
-17.2560

> <Gold.Chemscore.ZeroCoef>
-5.4800

> <Gold.Chemscore.Hbond>
2.6458

> <Gold.Chemscore.Metal>
0.0000

> <Gold.Chemscore.Lipo>
64.1164

> <Gold.Chemscore.Internal_Hbond>
0.0000

> <Gold.Chemscore.DEClash>
0.2284

> <Gold.Chemscore.DEInternal>
0.7870

> <Gold.Chemscore.Rot>
1.7823

> <Gold.Chemscore.Internal.Correction>
   9.000000E+99

> <Gold.Chemscore.Hbonds>
donor molecule, donor type, donor heavy atom, donor atom, acceptor molecule, acceptor atom, score
      L1  H    14    27       P1  7948  0.21
      P1  H  7997  8009       L1     9  0.66
      P1  H 10752 10764       L1     1  0.17

> <Gold.Chemscore.Hbond.Weighted>
-8.8370

> <Gold.Chemscore.Metal.Weighted>
-0.0000

> <Gold.Chemscore.Lipo.Weighted>
-7.5016

> <Gold.Chemscore.Internal_Hbond.Weighted>
0.0000

> <Gold.Chemscore.DEClash.Weighted>
0.2284

> <Gold.Chemscore.DEInternal.Weighted>
0.7870

> <Gold.Chemscore.Rot.Weighted>
4.5627

> <Gold.Chemscore.Internal.Correction.Weighted>
   9.000000E+99

> <Gold.Protein.RotatedTorsions>
[ 6907 6896 6895 6894 ] final   -4.95 input  -60.11 | X-H torsion
[ 7974 7965 7964 7962 ] final   -5.20 input  175.53 | X-H torsion
[ 8008 7997 7996 7995 ] final  163.05 input   59.86 | X-H torsion
[ 10167 10162 10161 10158 ] final  -24.15 input  -65.29 | X-H torsion
[ 10718 10713 10712 10709 ] final  -29.90 input   66.30 | X-H torsion
[ 10763 10752 10751 10750 ] final  -18.50 input  -60.55 | X-H torsion
[ 11005 11000 10999 10996 ] final  139.16 input  -57.11 | X-H torsion

> <Gold.Protein.ActiveResidues>
 VAL166  LYS551  ARG553  GLY616  TRP617  ASP618  TYR619  PRO620  LYS621  CYS622 
 ASP623  PHE694  ASN695  SER759  ASP760  ASP761  ALA762  ILE779  LEU786  VAL792 
 PHE793  MET794  SER795  GLU796  ALA797  LYS798  CYS799  TRP800  GLU811  SER814 

> <Gold.Protein.RotatedAtoms>
  151.4894  135.1056  159.9798 H   0  0  0  0  0  0  0  0  0  0  0  0  # atno 6907 bound_to 6896
  152.4747  133.8107  159.7012 H   0  0  0  0  0  0  0  0  0  0  0  0  # atno 6908 bound_to 6896
  150.8778  133.7353  159.2967 H   0  0  0  0  0  0  0  0  0  0  0  0  # atno 6909 bound_to 6896
  146.2357  140.1986  142.8333 H   0  0  0  0  0  0  0  0  0  0  0  0  # atno 7974 bound_to 7965
  156.1986  140.1734  156.7946 H   0  0  0  0  0  0  0  0  0  0  0  0  # atno 8008 bound_to 7997
  154.5562  140.0708  156.8778 H   0  0  0  0  0  0  0  0  0  0  0  0  # atno 8009 bound_to 7997
  155.2934  140.3357  155.4253 H   0  0  0  0  0  0  0  0  0  0  0  0  # atno 8010 bound_to 7997
  140.7288  143.4378  151.0702 H   0  0  0  0  0  0  0  0  0  0  0  0  # atno 10167 bound_to 10162
  156.4066  130.4400  149.7283 H   0  0  0  0  0  0  0  0  0  0  0  0  # atno 10718 bound_to 10713
  153.5902  135.7002  153.5426 H   0  0  0  0  0  0  0  0  0  0  0  0  # atno 10763 bound_to 10752
  153.3185  135.4081  155.1396 H   0  0  0  0  0  0  0  0  0  0  0  0  # atno 10764 bound_to 10752
  154.8602  135.3689  154.5433 H   0  0  0  0  0  0  0  0  0  0  0  0  # atno 10765 bound_to 10752
  140.0235  134.9386  157.0521 H   0  0  0  0  0  0  0  0  0  0  0  0  # atno 11005 bound_to 11000
  144.9800  140.8450  143.5403 LP  0  0  0  0  0  0  0  0  0  0  0  0  # atno 17320 bound_to 7965
  145.1978  139.2268  143.5209 LP  0  0  0  0  0  0  0  0  0  0  0  0  # atno 17321 bound_to 7965
  139.8042  143.8041  152.3166 LP  0  0  0  0  0  0  0  0  0  0  0  0  # atno 17342 bound_to 10162
  139.8068  144.7352  150.9751 LP  0  0  0  0  0  0  0  0  0  0  0  0  # atno 17343 bound_to 10162
  156.4278  130.7800  151.2819 LP  0  0  0  0  0  0  0  0  0  0  0  0  # atno 17370 bound_to 10713
  157.7506  131.0163  150.3540 LP  0  0  0  0  0  0  0  0  0  0  0  0  # atno 17371 bound_to 10713
  140.4347  134.1744  155.7170 LP  0  0  0  0  0  0  0  0  0  0  0  0  # atno 17394 bound_to 11000
  141.1788  133.8457  157.1329 LP  0  0  0  0  0  0  0  0  0  0  0  0  # atno 17395 bound_to 11000

$$$$
