AV-unprocessed.smi:153|AV-procd|sdf|1265|dock3
  -GOLD-   2262018513D 1   1.00000     0.00000
 Structure written by MMmdl.
 59 62  0  0  0  0  0  0  0  0  1 V2000
  154.0662  141.6920  159.8121 C   0  0  0  0  0  0  0  0  0  0  0  0
  152.6308  142.1855  160.0563 C   0  0  1  0  0  0  0  0  0  0  0  0
  152.7819  143.5066  160.5805 O   0  0  0  0  0  0  0  0  0  0  0  0
  151.9248  144.4160  159.9088 C   0  0  0  0  0  0  0  0  0  0  0  0
  151.7836  143.8178  158.5168 C   0  0  0  0  0  0  0  0  0  0  0  0
  151.7199  142.3247  158.8041 C   0  0  2  0  0  0  0  0  0  0  0  0
  150.3901  142.0299  159.1972 O   0  0  0  0  0  0  0  0  0  0  0  0
  152.0478  141.4657  157.5512 C   0  0  0  0  0  0  0  0  0  0  0  0
  150.9278  141.1960  156.6544 N   0  0  0  0  0  0  0  0  0  0  0  0
  149.9503  142.0700  156.2306 C   0  0  0  0  0  0  0  0  0  0  0  0
  149.0724  141.5679  155.4076 N   0  0  0  0  0  0  0  0  0  0  0  0
  149.4795  140.2520  155.2235 C   0  0  0  0  0  0  0  0  0  0  0  0
  148.9888  139.1492  154.4612 C   0  0  0  0  0  0  0  0  0  0  0  0
  147.8540  139.1852  153.7076 N   0  0  0  0  0  0  0  0  0  0  0  0
  147.4771  140.4542  153.0889 C   0  0  0  0  0  0  0  0  0  0  0  0
  147.4457  137.9587  153.0216 C   0  0  0  0  0  0  0  0  0  0  0  0
  146.2033  138.1433  152.1203 C   0  0  1  0  0  0  0  0  0  0  0  0
  146.5127  137.8689  150.7681 O   0  0  0  0  0  0  0  0  0  0  0  0
  145.0000  137.2702  152.5428 C   0  0  0  0  0  0  0  0  0  0  0  0
  144.8986  135.9415  151.9306 N   0  0  0  0  0  0  0  0  0  0  0  0
  143.6341  135.2695  152.2239 C   0  0  0  0  0  0  0  0  0  0  0  0
  143.5684  133.8673  151.5939 C   0  0  0  0  0  0  0  0  0  0  0  0
  144.6729  133.0876  152.0398 O   0  0  0  0  0  0  0  0  0  0  0  0
  145.9262  133.6865  151.7289 C   0  0  0  0  0  0  0  0  0  0  0  0
  145.9982  135.0855  152.3642 C   0  0  0  0  0  0  0  0  0  0  0  0
  149.7114  137.9972  154.5101 N   0  0  0  0  0  0  0  0  0  0  0  0
  150.8140  137.9139  155.2581 C   0  0  0  0  0  0  0  0  0  0  0  0
  151.3700  138.8487  156.0283 N   0  0  0  0  0  0  0  0  0  0  0  0
  150.6632  140.0139  155.9806 C   0  0  0  0  0  0  0  0  0  0  0  0
  154.0951  140.6317  159.5711 H   0  0  0  0  0  0  0  0  0  0  0  0
  154.6725  141.8217  160.7086 H   0  0  0  0  0  0  0  0  0  0  0  0
  154.5487  142.2438  159.0051 H   0  0  0  0  0  0  0  0  0  0  0  0
  152.1652  141.5507  160.8121 H   0  0  0  0  0  0  0  0  0  0  0  0
  150.9616  144.4492  160.4196 H   0  0  0  0  0  0  0  0  0  0  0  0
  152.3402  145.4238  159.8956 H   0  0  0  0  0  0  0  0  0  0  0  0
  150.9187  144.1992  157.9723 H   0  0  0  0  0  0  0  0  0  0  0  0
  152.6751  144.0534  157.9338 H   0  0  0  0  0  0  0  0  0  0  0  0
  149.9719  142.8331  159.4668 H   0  0  0  0  0  0  0  0  0  0  0  0
  152.8337  141.9447  156.9659 H   0  0  0  0  0  0  0  0  0  0  0  0
  152.4640  140.5102  157.8711 H   0  0  0  0  0  0  0  0  0  0  0  0
  149.8973  143.1014  156.5442 H   0  0  0  0  0  0  0  0  0  0  0  0
  147.4702  141.2587  153.8253 H   0  0  0  0  0  0  0  0  0  0  0  0
  146.4765  140.3930  152.6609 H   0  0  0  0  0  0  0  0  0  0  0  0
  148.1708  140.7194  152.2903 H   0  0  0  0  0  0  0  0  0  0  0  0
  148.2666  137.4975  152.4771 H   0  0  0  0  0  0  0  0  0  0  0  0
  147.1975  137.2385  153.8021 H   0  0  0  0  0  0  0  0  0  0  0  0
  145.8756  139.1827  152.1602 H   0  0  0  0  0  0  0  0  0  0  0  0
  145.7413  138.0320  150.2472 H   0  0  0  0  0  0  0  0  0  0  0  0
  145.0914  137.1307  153.6208 H   0  0  0  0  0  0  0  0  0  0  0  0
  144.0689  137.8222  152.4040 H   0  0  0  0  0  0  0  0  0  0  0  0
  143.4989  135.1885  153.3035 H   0  0  0  0  0  0  0  0  0  0  0  0
  142.7970  135.8538  151.8448 H   0  0  0  0  0  0  0  0  0  0  0  0
  142.6421  133.3671  151.8766 H   0  0  0  0  0  0  0  0  0  0  0  0
  143.5773  133.9340  150.5047 H   0  0  0  0  0  0  0  0  0  0  0  0
  146.7282  133.0550  152.1108 H   0  0  0  0  0  0  0  0  0  0  0  0
  146.0516  133.7462  150.6465 H   0  0  0  0  0  0  0  0  0  0  0  0
  146.9517  135.5470  152.1050 H   0  0  0  0  0  0  0  0  0  0  0  0
  145.9849  134.9880  153.4509 H   0  0  0  0  0  0  0  0  0  0  0  0
  151.3198  136.9598  155.2407 H   0  0  0  0  0  0  0  0  0  0  0  0
  1  2  1  0  0  0  0
  1 30  1  0  0  0  0
  1 31  1  0  0  0  0
  1 32  1  0  0  0  0
  2  6  1  0  0  0  0
  2  3  1  0  0  0  0
  2 33  1  0  0  0  0
  3  4  1  0  0  0  0
  4  5  1  0  0  0  0
  4 34  1  0  0  0  0
  4 35  1  0  0  0  0
  5  6  1  0  0  0  0
  5 36  1  0  0  0  0
  5 37  1  0  0  0  0
  6  7  1  0  0  0  0
  6  8  1  0  0  0  0
  7 38  1  0  0  0  0
  8  9  1  0  0  0  0
  8 39  1  0  0  0  0
  8 40  1  0  0  0  0
  9 29  1  0  0  0  0
  9 10  1  0  0  0  0
 10 11  2  0  0  0  0
 10 41  1  0  0  0  0
 11 12  1  0  0  0  0
 12 29  2  0  0  0  0
 12 13  1  0  0  0  0
 13 14  1  0  0  0  0
 13 26  2  0  0  0  0
 14 15  1  0  0  0  0
 14 16  1  0  0  0  0
 15 42  1  0  0  0  0
 15 43  1  0  0  0  0
 15 44  1  0  0  0  0
 16 17  1  0  0  0  0
 16 45  1  0  0  0  0
 16 46  1  0  0  0  0
 17 18  1  0  0  0  0
 17 19  1  0  0  0  0
 17 47  1  0  0  0  0
 18 48  1  0  0  0  0
 19 20  1  0  0  0  0
 19 49  1  0  0  0  0
 19 50  1  0  0  0  0
 20 25  1  0  0  0  0
 20 21  1  0  0  0  0
 21 22  1  0  0  0  0
 21 51  1  0  0  0  0
 21 52  1  0  0  0  0
 22 23  1  0  0  0  0
 22 53  1  0  0  0  0
 22 54  1  0  0  0  0
 23 24  1  0  0  0  0
 24 25  1  0  0  0  0
 24 55  1  0  0  0  0
 24 56  1  0  0  0  0
 25 57  1  0  0  0  0
 25 58  1  0  0  0  0
 26 27  1  0  0  0  0
 27 28  2  0  0  0  0
 27 59  1  0  0  0  0
 28 29  1  0  0  0  0
M  END
> <s_m_source_file>
AV-unprocessed.smi

> <i_m_source_file_index>
153

> <i_lp_mmshare_version>
43012

> <i_f3d_flags>
0

> <s_epik_input>
W0NIMl0xW0NIMl1PW0NAQEhdKFtDSDNdKVtDQEBdMShbT0hdKVtDSDJdbihbY0hdbjIpYyhjMjMpbltjSF1uYzNOKFtDSDNdKVtDSDJdW0NASF0oW09IXSlbQ0gyXU40W0NIMl1bQ0gyXU9bQ0gyXVtDSDJdNA==

> <s_epik_cmdline>
J2VwaWtfcHl0aG9uJywgJy1waCcsICc3LjAnLCAnLXRuJywgJzgnLCAnLW1hJywgJzIwMCcsICctbWV0YWxfYmluZGluZycsICctaW1hZScsICc8aW5maWxlLm1hZT4nLCAnLW9tYWUnLCAnPG91dGZpbGUubWFlPic=

> <r_lp_tautomer_probability>
1

> <r_epik_Ionization_Penalty>
0.424123

> <r_epik_Ionization_Penalty_Charging>
0

> <r_epik_Ionization_Penalty_Neutral>
0.424123

> <r_epik_State_Penalty>
0.421495

> <r_epik_Charging_Adjusted_Penalty>
0.421495

> <i_epik_Tot_Q>
0

> <i_epik_Tot_abs_Q>
0

> <r_epik_Metal_State_Penalty>
0.421223

> <b_epik_Metal_Only>
0

> <s_lp_Force_Field>
OPLS_2005

> <r_lp_Energy>
59.9447

> <b_lp_Chiralities_Consistent>
1

> <s_lp_Variant>
AV-unprocessed.smi:153-16

> <Gold.Version>
5.8.1

> <Gold.Id.Protein>
6NUR|6NUR_protein|mol2

> <Gold.PLP.Fitness>
50.0032

> <Gold.PLP.PLP>
-44.7835

> <Gold.PLP.part.hbond>
-3.9238

> <Gold.PLP.part.metal>
0.0000

> <Gold.PLP.part.buried>
0.2884

> <Gold.PLP.part.nonpolar>
-42.7021

> <Gold.PLP.part.repulsive>
0.6307

> <Gold.PLP.ligand.clash>
0.0234

> <Gold.PLP.ligand.torsion>
2.2215

> <Gold.PLP.Chemscore.Hbond>
2.0000

> <Gold.PLP.Chemscore.CHOScore>
1.0000

> <Gold.PLP.Chemscore.Metal>
0.0000

> <Gold.Chemscore.Hbonds>
donor molecule, donor type, donor heavy atom, donor atom, acceptor molecule, acceptor atom, score
      L1  H    18    48       P1 10171  1.00
      P1  H  7954  7966       L1    18  1.00
      L1  C    10    41       P1  8028  1.00

> <Gold.PLP.Chemscore.Internal.Correction>
0.6861

> <Gold.Rescore>
     Score         DG    S(hbond)    S(metal)    S(lipo)     H(rot)  DE(clash)    DE(int)     intcor
     10.39     -15.76       1.93        0.00     109.84       3.52       2.76       2.61       ----

> <Gold.Chemscore.Fitness>
10.3864

> <Gold.Chemscore.DG>
-15.7573

> <Gold.Chemscore.ZeroCoef>
-5.4800

> <Gold.Chemscore.Hbond>
1.9252

> <Gold.Chemscore.Metal>
0.0000

> <Gold.Chemscore.Lipo>
109.8358

> <Gold.Chemscore.Internal_Hbond>
0.0000

> <Gold.Chemscore.DEClash>
2.7647

> <Gold.Chemscore.DEInternal>
2.6062

> <Gold.Chemscore.Rot>
3.5170

> <Gold.Chemscore.Internal.Correction>
   9.000000E+99

> <Gold.Chemscore.Hbonds>
donor molecule, donor type, donor heavy atom, donor atom, acceptor molecule, acceptor atom, score
      L1  H    18    48       P1 10171  0.97
      P1  H  7954  7966       L1    18  0.92

> <Gold.Chemscore.Hbond.Weighted>
-6.4301

> <Gold.Chemscore.Metal.Weighted>
-0.0000

> <Gold.Chemscore.Lipo.Weighted>
-12.8508

> <Gold.Chemscore.Internal_Hbond.Weighted>
0.0000

> <Gold.Chemscore.DEClash.Weighted>
2.7647

> <Gold.Chemscore.DEInternal.Weighted>
2.6062

> <Gold.Chemscore.Rot.Weighted>
9.0036

> <Gold.Chemscore.Internal.Correction.Weighted>
   9.000000E+99

> <Gold.Protein.RotatedTorsions>
[ 6907 6896 6895 6894 ] final  -56.03 input  -60.11 | X-H torsion
[ 7974 7965 7964 7962 ] final  -87.25 input  175.53 | X-H torsion
[ 8008 7997 7996 7995 ] final -148.31 input   59.86 | X-H torsion
[ 10167 10162 10161 10158 ] final -112.97 input  -65.29 | X-H torsion
[ 10718 10713 10712 10709 ] final   92.40 input   66.30 | X-H torsion
[ 10763 10752 10751 10750 ] final  -50.94 input  -60.55 | X-H torsion
[ 11005 11000 10999 10996 ] final  -16.63 input  -57.11 | X-H torsion

> <Gold.Protein.ActiveResidues>
 VAL166  LYS551  ARG553  GLY616  TRP617  ASP618  TYR619  PRO620  LYS621  CYS622 
 ASP623  PHE694  ASN695  SER759  ASP760  ASP761  ALA762  ILE779  LEU786  VAL792 
 PHE793  MET794  SER795  GLU796  ALA797  LYS798  CYS799  TRP800  GLU811  SER814 

> <Gold.Protein.RotatedAtoms>
  150.8202  134.7405  159.6764 H   0  0  0  0  0  0  0  0  0  0  0  0  # atno 6907 bound_to 6896
  152.4318  134.5760  159.9944 H   0  0  0  0  0  0  0  0  0  0  0  0  # atno 6908 bound_to 6896
  151.5947  133.3325  159.3071 H   0  0  0  0  0  0  0  0  0  0  0  0  # atno 6909 bound_to 6896
  145.4690  140.9560  143.1927 H   0  0  0  0  0  0  0  0  0  0  0  0  # atno 7974 bound_to 7965
  155.5895  140.0651  157.2762 H   0  0  0  0  0  0  0  0  0  0  0  0  # atno 8008 bound_to 7997
  154.4309  140.1838  156.1107 H   0  0  0  0  0  0  0  0  0  0  0  0  # atno 8009 bound_to 7997
  156.0243  140.3313  155.7075 H   0  0  0  0  0  0  0  0  0  0  0  0  # atno 8010 bound_to 7997
  140.1170  143.4477  152.1716 H   0  0  0  0  0  0  0  0  0  0  0  0  # atno 10167 bound_to 10162
  157.6958  131.0442  150.3876 H   0  0  0  0  0  0  0  0  0  0  0  0  # atno 10718 bound_to 10713
  154.1185  135.6538  153.4898 H   0  0  0  0  0  0  0  0  0  0  0  0  # atno 10763 bound_to 10752
  153.0233  135.5264  154.7120 H   0  0  0  0  0  0  0  0  0  0  0  0  # atno 10764 bound_to 10752
  154.6321  135.2977  155.0174 H   0  0  0  0  0  0  0  0  0  0  0  0  # atno 10765 bound_to 10752
  140.8087  133.8157  155.9542 H   0  0  0  0  0  0  0  0  0  0  0  0  # atno 11005 bound_to 11000
  144.7956  139.6240  143.7094 LP  0  0  0  0  0  0  0  0  0  0  0  0  # atno 17320 bound_to 7965
  146.2407  139.5996  142.9493 LP  0  0  0  0  0  0  0  0  0  0  0  0  # atno 17321 bound_to 7965
  139.5589  144.7392  151.4213 LP  0  0  0  0  0  0  0  0  0  0  0  0  # atno 17342 bound_to 10162
  140.6894  143.7898  150.7232 LP  0  0  0  0  0  0  0  0  0  0  0  0  # atno 17343 bound_to 10162
  156.4283  130.3967  149.6778 LP  0  0  0  0  0  0  0  0  0  0  0  0  # atno 17370 bound_to 10713
  156.4004  130.7672  151.2679 LP  0  0  0  0  0  0  0  0  0  0  0  0  # atno 17371 bound_to 10713
  140.9220  134.2130  157.4920 LP  0  0  0  0  0  0  0  0  0  0  0  0  # atno 17394 bound_to 11000
  139.8716  134.9796  156.5044 LP  0  0  0  0  0  0  0  0  0  0  0  0  # atno 17395 bound_to 11000

$$$$
