AV-unprocessed.smi:1041|AV-procd|sdf|4535|dock9
  -GOLD-   22720 2563D 1   1.00000     0.00000
 Structure written by MMmdl.
 51 52  0  0  0  0  0  0  0  0  2 V2000
  151.8361  144.4989  160.4366 C   0  0  0  0  0  0  0  0  0  0  0  0
  151.9196  143.0888  160.3306 O   0  0  0  0  0  0  0  0  0  0  0  0
  152.4121  142.6663  159.0692 C   0  0  0  0  0  0  0  0  0  0  0  0
  151.2524  142.4924  158.0737 C   0  0  0  0  0  0  0  0  0  0  0  0
  150.4276  141.2970  158.2614 N   0  0  0  0  0  0  0  0  0  0  0  0
  151.1754  140.0555  158.0468 C   0  0  0  0  0  0  0  0  0  0  0  0
  150.3191  138.7990  158.2808 C   0  0  0  0  0  0  0  0  0  0  0  0
  149.0702  138.8053  157.3813 C   0  0  0  0  0  0  0  0  0  0  0  0
  148.1813  137.5755  157.6425 C   0  0  0  0  0  0  0  0  0  0  0  0
  148.0397  137.3234  159.0697 N   0  0  0  0  0  0  0  0  0  0  0  0
  148.4100  136.1932  159.6873 C   0  0  0  0  0  0  0  0  0  0  0  0
  148.8917  135.2262  159.0976 O   0  0  0  0  0  0  0  0  0  0  0  0
  148.2164  136.1550  161.2041 C   0  0  0  0  0  0  0  0  0  0  0  0
  146.8379  135.6971  161.6787 C   0  0  0  0  0  0  0  0  0  0  0  0
  146.5988  134.4530  162.1856 C   0  0  0  0  0  0  0  0  0  0  0  0
  147.6774  133.3910  162.3189 C   0  0  0  0  0  0  0  0  0  0  0  0
  145.3158  134.0791  162.6200 N   0  0  0  0  0  0  0  0  0  0  0  0
  144.3552  134.9194  162.5430 C   0  0  0  0  0  0  0  0  0  0  0  0
  142.9762  134.5121  163.0162 C   0  0  0  0  0  0  0  0  0  0  0  0
  144.4907  136.1981  162.0519 N   0  5  0  0  0  0  0  0  0  0  0  0
  145.7016  136.6335  161.6008 C   0  0  0  0  0  0  0  0  0  0  0  0
  145.8570  137.7635  161.1395 O   0  0  0  0  0  0  0  0  0  0  0  0
  148.3202  140.1390  157.5775 C   0  0  0  0  0  0  0  0  0  0  0  0
  149.2676  141.3323  157.3706 C   0  0  0  0  0  0  0  0  0  0  0  0
  151.4669  144.7708  161.4253 H   0  0  0  0  0  0  0  0  0  0  0  0
  151.1477  144.9088  159.6965 H   0  0  0  0  0  0  0  0  0  0  0  0
  152.8133  144.9641  160.3023 H   0  0  0  0  0  0  0  0  0  0  0  0
  153.1477  143.3714  158.6780 H   0  0  0  0  0  0  0  0  0  0  0  0
  152.9196  141.7090  159.1977 H   0  0  0  0  0  0  0  0  0  0  0  0
  150.6091  143.3659  158.1878 H   0  0  0  0  0  0  0  0  0  0  0  0
  151.6311  142.5369  157.0514 H   0  0  0  0  0  0  0  0  0  0  0  0
  151.5839  140.0383  157.0351 H   0  0  0  0  0  0  0  0  0  0  0  0
  152.0247  140.0077  158.7266 H   0  0  0  0  0  0  0  0  0  0  0  0
  150.9159  137.9067  158.0895 H   0  0  0  0  0  0  0  0  0  0  0  0
  150.0212  138.7539  159.3292 H   0  0  0  0  0  0  0  0  0  0  0  0
  149.4090  138.7588  156.3448 H   0  0  0  0  0  0  0  0  0  0  0  0
  147.1912  137.7316  157.2112 H   0  0  0  0  0  0  0  0  0  0  0  0
  148.6058  136.6942  157.1584 H   0  0  0  0  0  0  0  0  0  0  0  0
  147.6537  138.0683  159.6312 H   0  0  0  0  0  0  0  0  0  0  0  0
  148.9638  135.4948  161.6456 H   0  0  0  0  0  0  0  0  0  0  0  0
  148.4598  137.1411  161.6001 H   0  0  0  0  0  0  0  0  0  0  0  0
  148.0768  133.1250  161.3404 H   0  0  0  0  0  0  0  0  0  0  0  0
  147.2811  132.4823  162.7732 H   0  0  0  0  0  0  0  0  0  0  0  0
  148.4956  133.7464  162.9449 H   0  0  0  0  0  0  0  0  0  0  0  0
  142.2185  134.8153  162.2929 H   0  0  0  0  0  0  0  0  0  0  0  0
  142.7518  134.9864  163.9720 H   0  0  0  0  0  0  0  0  0  0  0  0
  142.9093  133.4311  163.1445 H   0  0  0  0  0  0  0  0  0  0  0  0
  147.4848  140.2164  156.8812 H   0  0  0  0  0  0  0  0  0  0  0  0
  147.8925  140.1820  158.5803 H   0  0  0  0  0  0  0  0  0  0  0  0
  148.7074  142.2537  157.5341 H   0  0  0  0  0  0  0  0  0  0  0  0
  149.6001  141.3558  156.3315 H   0  0  0  0  0  0  0  0  0  0  0  0
  1  2  1  0  0  0  0
  1 25  1  0  0  0  0
  1 26  1  0  0  0  0
  1 27  1  0  0  0  0
  2  3  1  0  0  0  0
  3  4  1  0  0  0  0
  3 28  1  0  0  0  0
  3 29  1  0  0  0  0
  4  5  1  0  0  0  0
  4 30  1  0  0  0  0
  4 31  1  0  0  0  0
  5 24  1  0  0  0  0
  5  6  1  0  0  0  0
  6  7  1  0  0  0  0
  6 32  1  0  0  0  0
  6 33  1  0  0  0  0
  7  8  1  0  0  0  0
  7 34  1  0  0  0  0
  7 35  1  0  0  0  0
  8  9  1  0  0  0  0
  8 23  1  0  0  0  0
  8 36  1  0  0  0  0
  9 10  1  0  0  0  0
  9 37  1  0  0  0  0
  9 38  1  0  0  0  0
 10 11  1  0  0  0  0
 10 39  1  0  0  0  0
 11 12  2  0  0  0  0
 11 13  1  0  0  0  0
 13 14  1  0  0  0  0
 13 40  1  0  0  0  0
 13 41  1  0  0  0  0
 14 21  1  0  0  0  0
 14 15  2  0  0  0  0
 15 16  1  0  0  0  0
 15 17  1  0  0  0  0
 16 42  1  0  0  0  0
 16 43  1  0  0  0  0
 16 44  1  0  0  0  0
 17 18  2  0  0  0  0
 18 19  1  0  0  0  0
 18 20  1  0  0  0  0
 19 45  1  0  0  0  0
 19 46  1  0  0  0  0
 19 47  1  0  0  0  0
 20 21  1  0  0  0  0
 21 22  2  0  0  0  0
 23 24  1  0  0  0  0
 23 48  1  0  0  0  0
 23 49  1  0  0  0  0
 24 50  1  0  0  0  0
 24 51  1  0  0  0  0
M  CHG  1  20  -1
M  END
> <s_m_source_file>
AV-unprocessed.smi

> <i_m_source_file_index>
1041

> <i_lp_mmshare_version>
43012

> <i_f3d_flags>
0

> <s_epik_input>
W0NIM11PW0NIMl1bQ0gyXU4xW0NIMl1bQ0gyXVtDSF0oW0NIMl1bQ0gyXTEpW0NIMl1bTkhdQyg9TylbQ0gyXWMyYyhbQ0gzXSluYyhbQ0gzXSlbbkhdYzI9Tw==

> <s_epik_cmdline>
J2VwaWtfcHl0aG9uJywgJy1waCcsICc3LjAnLCAnLXRuJywgJzgnLCAnLW1hJywgJzIwMCcsICctbWV0YWxfYmluZGluZycsICctaW1hZScsICc8aW5maWxlLm1hZT4nLCAnLW9tYWUnLCAnPG91dGZpbGUubWFlPic=

> <r_lp_tautomer_probability>
0.839158

> <r_epik_Ionization_Penalty>
9.04559

> <r_epik_Ionization_Penalty_Charging>
6.70107e-08

> <r_epik_Ionization_Penalty_Neutral>
9.04559

> <r_epik_State_Penalty>
7.10582

> <r_epik_Charging_Adjusted_Penalty>
7.10582

> <i_epik_Tot_Q>
-1

> <i_epik_Tot_abs_Q>
1

> <r_epik_Metal_State_Penalty>
3.46994

> <b_epik_Metal_Only>
1

> <s_lp_Force_Field>
OPLS_2005

> <r_lp_Energy>
32.0623

> <b_lp_Chiralities_Consistent>
1

> <s_lp_Variant>
AV-unprocessed.smi:1041-8

> <Gold.Version>
5.8.1

> <Gold.Id.Protein>
6NUR|6NUR_protein|mol2

> <Gold.PLP.Fitness>
44.5390

> <Gold.PLP.PLP>
-40.6575

> <Gold.PLP.part.hbond>
-2.0000

> <Gold.PLP.part.metal>
0.0000

> <Gold.PLP.part.buried>
-7.6464

> <Gold.PLP.part.nonpolar>
-30.9585

> <Gold.PLP.part.repulsive>
0.3144

> <Gold.PLP.ligand.clash>
0.0000

> <Gold.PLP.ligand.torsion>
0.9799

> <Gold.PLP.Chemscore.Hbond>
1.9280

> <Gold.PLP.Chemscore.CHOScore>
0.0000

> <Gold.PLP.Chemscore.Metal>
0.0000

> <Gold.Chemscore.Hbonds>
donor molecule, donor type, donor heavy atom, donor atom, acceptor molecule, acceptor atom, score
      P1  H  6896  6908       L1    12  1.00
      P1  H  6934  6947       L1    22  1.00

> <Gold.PLP.Chemscore.Internal.Correction>
0.0573

> <Gold.Rescore>
     Score         DG    S(hbond)    S(metal)    S(lipo)     H(rot)  DE(clash)    DE(int)     intcor
     14.69     -16.76       1.98        0.00      89.83       2.28       0.03       2.04       ----

> <Gold.Chemscore.Fitness>
14.6883

> <Gold.Chemscore.DG>
-16.7623

> <Gold.Chemscore.ZeroCoef>
-5.4800

> <Gold.Chemscore.Hbond>
1.9801

> <Gold.Chemscore.Metal>
0.0000

> <Gold.Chemscore.Lipo>
89.8267

> <Gold.Chemscore.Internal_Hbond>
0.0000

> <Gold.Chemscore.DEClash>
0.0298

> <Gold.Chemscore.DEInternal>
2.0442

> <Gold.Chemscore.Rot>
2.2816

> <Gold.Chemscore.Internal.Correction>
   9.000000E+99

> <Gold.Chemscore.Hbonds>
donor molecule, donor type, donor heavy atom, donor atom, acceptor molecule, acceptor atom, score
      P1  H  6896  6908       L1    12  0.97
      P1  H  6934  6947       L1    22  0.95

> <Gold.Chemscore.Hbond.Weighted>
-6.6135

> <Gold.Chemscore.Metal.Weighted>
-0.0000

> <Gold.Chemscore.Lipo.Weighted>
-10.5097

> <Gold.Chemscore.Internal_Hbond.Weighted>
0.0000

> <Gold.Chemscore.DEClash.Weighted>
0.0298

> <Gold.Chemscore.DEInternal.Weighted>
2.0442

> <Gold.Chemscore.Rot.Weighted>
5.8409

> <Gold.Chemscore.Internal.Correction.Weighted>
   9.000000E+99

> <Gold.Protein.RotatedTorsions>
[ 6907 6896 6895 6894 ] final  155.19 input  -60.11 | X-H torsion
[ 7974 7965 7964 7962 ] final  -76.00 input  175.53 | X-H torsion
[ 8008 7997 7996 7995 ] final  -75.12 input   59.86 | X-H torsion
[ 10167 10162 10161 10158 ] final  -44.62 input  -65.29 | X-H torsion
[ 10718 10713 10712 10709 ] final  -44.77 input   66.30 | X-H torsion
[ 10763 10752 10751 10750 ] final   83.79 input  -60.55 | X-H torsion
[ 11005 11000 10999 10996 ] final  -73.06 input  -57.11 | X-H torsion

> <Gold.Protein.ActiveResidues>
 VAL166  LYS551  ARG553  GLY616  TRP617  ASP618  TYR619  PRO620  LYS621  CYS622 
 ASP623  PHE694  ASN695  SER759  ASP760  ASP761  ALA762  ILE779  LEU786  VAL792 
 PHE793  MET794  SER795  GLU796  ALA797  LYS798  CYS799  TRP800  GLU811  SER814 

> <Gold.Protein.RotatedAtoms>
  152.0477  133.4005  159.4363 H   0  0  0  0  0  0  0  0  0  0  0  0  # atno 6907 bound_to 6896
  150.6872  134.3343  159.4850 H   0  0  0  0  0  0  0  0  0  0  0  0  # atno 6908 bound_to 6896
  152.1149  134.9247  160.0616 H   0  0  0  0  0  0  0  0  0  0  0  0  # atno 6909 bound_to 6896
  145.6187  140.9368  143.1150 H   0  0  0  0  0  0  0  0  0  0  0  0  # atno 7974 bound_to 7965
  154.5389  140.0749  156.8476 H   0  0  0  0  0  0  0  0  0  0  0  0  # atno 8008 bound_to 7997
  155.3221  140.3396  155.4223 H   0  0  0  0  0  0  0  0  0  0  0  0  # atno 8009 bound_to 7997
  156.1855  140.1667  156.8179 H   0  0  0  0  0  0  0  0  0  0  0  0  # atno 8010 bound_to 7997
  140.6890  143.2921  151.3521 H   0  0  0  0  0  0  0  0  0  0  0  0  # atno 10167 bound_to 10162
  156.2351  130.4175  149.8827 H   0  0  0  0  0  0  0  0  0  0  0  0  # atno 10718 bound_to 10713
  153.1323  135.4678  154.9368 H   0  0  0  0  0  0  0  0  0  0  0  0  # atno 10763 bound_to 10752
  154.7675  135.3149  154.8259 H   0  0  0  0  0  0  0  0  0  0  0  0  # atno 10764 bound_to 10752
  153.8799  135.6895  153.4821 H   0  0  0  0  0  0  0  0  0  0  0  0  # atno 10765 bound_to 10752
  141.1617  133.6866  156.7154 H   0  0  0  0  0  0  0  0  0  0  0  0  # atno 11005 bound_to 11000
  144.7240  139.7936  143.7372 LP  0  0  0  0  0  0  0  0  0  0  0  0  # atno 17320 bound_to 7965
  146.1448  139.4515  143.0086 LP  0  0  0  0  0  0  0  0  0  0  0  0  # atno 17321 bound_to 7965
  139.6274  144.0787  152.2446 LP  0  0  0  0  0  0  0  0  0  0  0  0  # atno 17342 bound_to 10162
  140.0251  144.6124  150.7534 LP  0  0  0  0  0  0  0  0  0  0  0  0  # atno 17343 bound_to 10162
  156.6428  130.8712  151.3517 LP  0  0  0  0  0  0  0  0  0  0  0  0  # atno 17370 bound_to 10713
  157.7151  130.9487  150.1225 LP  0  0  0  0  0  0  0  0  0  0  0  0  # atno 17371 bound_to 10713
  140.2856  134.8282  157.3971 LP  0  0  0  0  0  0  0  0  0  0  0  0  # atno 17394 bound_to 11000
  140.1394  134.4992  155.8043 LP  0  0  0  0  0  0  0  0  0  0  0  0  # atno 17395 bound_to 11000

$$$$
