AV-unprocessed.smi:2606|AV-procd|sdf|10197|dock6
  -GOLD-   2272014203D 1   1.00000     0.00000
 Structure written by MMmdl.
 42 43  0  0  0  0  0  0  0  0  1 V2000
  148.2812  140.1711  156.3511 O   0  0  0  0  0  0  0  0  0  0  0  0
  148.5633  141.1965  155.7285 C   0  0  0  0  0  0  0  0  0  0  0  0
  150.0246  141.4626  155.3522 C   0  0  0  0  0  0  0  0  0  0  0  0
  150.9056  141.4015  156.5288 N   0  0  0  0  0  0  0  0  0  0  0  0
  150.9242  142.5317  157.3697 C   0  0  0  0  0  0  0  0  0  0  0  0
  151.6948  142.6141  158.4712 C   0  0  0  0  0  0  0  0  0  0  0  0
  151.6539  143.8278  159.3867 C   0  0  0  0  0  0  0  0  0  0  0  0
  150.4000  144.1381  159.7169 F   0  0  0  0  0  0  0  0  0  0  0  0
  152.3273  143.5723  160.5074 F   0  0  0  0  0  0  0  0  0  0  0  0
  152.2085  144.8905  158.8023 F   0  0  0  0  0  0  0  0  0  0  0  0
  152.4989  141.4492  158.7840 C   0  0  0  0  0  0  0  0  0  0  0  0
  152.4887  140.3579  157.9939 C   0  0  0  0  0  0  0  0  0  0  0  0
  151.6655  140.2945  156.7841 C   0  0  0  0  0  0  0  0  0  0  0  0
  151.6618  139.3094  156.0453 O   0  0  0  0  0  0  0  0  0  0  0  0
  147.6800  142.1381  155.3385 N   0  0  0  0  0  0  0  0  0  0  0  0
  146.3508  142.1567  155.5510 C   0  0  0  0  0  0  0  0  0  0  0  0
  145.7306  141.3944  156.2958 O   0  0  0  0  0  0  0  0  0  0  0  0
  145.7650  143.1291  154.8366 N   0  0  0  0  0  0  0  0  0  0  0  0
  144.4521  143.7054  155.1119 C   0  0  0  0  0  0  0  0  0  0  0  0
  144.1420  144.8506  154.1255 C   0  0  0  0  0  0  0  0  0  0  0  0
  142.7984  145.5238  154.4495 C   0  0  0  0  0  0  0  0  0  0  0  0
  142.7596  146.0229  155.9021 C   0  0  0  0  0  0  0  0  0  0  0  0
  143.0610  144.8828  156.8874 C   0  0  0  0  0  0  0  0  0  0  0  0
  144.4057  144.2099  156.5667 C   0  0  0  0  0  0  0  0  0  0  0  0
  150.3372  140.7274  154.6090 H   0  0  0  0  0  0  0  0  0  0  0  0
  150.1040  142.4251  154.8430 H   0  0  0  0  0  0  0  0  0  0  0  0
  150.2709  143.3336  157.0564 H   0  0  0  0  0  0  0  0  0  0  0  0
  153.1242  141.4525  159.6647 H   0  0  0  0  0  0  0  0  0  0  0  0
  153.1030  139.5090  158.2567 H   0  0  0  0  0  0  0  0  0  0  0  0
  148.0641  142.9260  154.8374 H   0  0  0  0  0  0  0  0  0  0  0  0
  146.2652  143.5029  154.0433 H   0  0  0  0  0  0  0  0  0  0  0  0
  143.6932  142.9284  154.9999 H   0  0  0  0  0  0  0  0  0  0  0  0
  144.9376  145.5963  154.1625 H   0  0  0  0  0  0  0  0  0  0  0  0
  144.1213  144.4730  153.1025 H   0  0  0  0  0  0  0  0  0  0  0  0
  142.6249  146.3549  153.7654 H   0  0  0  0  0  0  0  0  0  0  0  0
  141.9867  144.8139  154.2857 H   0  0  0  0  0  0  0  0  0  0  0  0
  143.4898  146.8226  156.0340 H   0  0  0  0  0  0  0  0  0  0  0  0
  141.7833  146.4559  156.1210 H   0  0  0  0  0  0  0  0  0  0  0  0
  143.0716  145.2668  157.9079 H   0  0  0  0  0  0  0  0  0  0  0  0
  142.2618  144.1416  156.8441 H   0  0  0  0  0  0  0  0  0  0  0  0
  144.5741  143.3812  157.2560 H   0  0  0  0  0  0  0  0  0  0  0  0
  145.2144  144.9224  156.7375 H   0  0  0  0  0  0  0  0  0  0  0  0
  1  2  2  0  0  0  0
  2  3  1  0  0  0  0
  2 15  1  0  0  0  0
  3  4  1  0  0  0  0
  3 25  1  0  0  0  0
  3 26  1  0  0  0  0
  4 13  1  0  0  0  0
  4  5  1  0  0  0  0
  5  6  2  0  0  0  0
  5 27  1  0  0  0  0
  6  7  1  0  0  0  0
  6 11  1  0  0  0  0
  7  8  1  0  0  0  0
  7  9  1  0  0  0  0
  7 10  1  0  0  0  0
 11 12  2  0  0  0  0
 11 28  1  0  0  0  0
 12 13  1  0  0  0  0
 12 29  1  0  0  0  0
 13 14  2  0  0  0  0
 15 16  1  0  0  0  0
 15 30  1  0  0  0  0
 16 17  2  0  0  0  0
 16 18  1  0  0  0  0
 18 19  1  0  0  0  0
 18 31  1  0  0  0  0
 19 24  1  0  0  0  0
 19 20  1  0  0  0  0
 19 32  1  0  0  0  0
 20 21  1  0  0  0  0
 20 33  1  0  0  0  0
 20 34  1  0  0  0  0
 21 22  1  0  0  0  0
 21 35  1  0  0  0  0
 21 36  1  0  0  0  0
 22 23  1  0  0  0  0
 22 37  1  0  0  0  0
 22 38  1  0  0  0  0
 23 24  1  0  0  0  0
 23 39  1  0  0  0  0
 23 40  1  0  0  0  0
 24 41  1  0  0  0  0
 24 42  1  0  0  0  0
M  END
> <s_m_source_file>
AV-unprocessed.smi

> <i_m_source_file_index>
2606

> <i_lp_mmshare_version>
43012

> <i_f3d_flags>
0

> <s_epik_input>
Tz1jMVtjSF1bY0hdYyhDKEYpKEYpRilbY0hdbjFbQ0gyXUMoPU8pW05IXUMoPU8pW05IXVtDSF0yW0NIMl1bQ0gyXVtDSDJdW0NIMl1bQ0gyXTI=

> <s_epik_cmdline>
J2VwaWtfcHl0aG9uJywgJy1waCcsICc3LjAnLCAnLXRuJywgJzgnLCAnLW1hJywgJzIwMCcsICctbWV0YWxfYmluZGluZycsICctaW1hZScsICc8aW5maWxlLm1hZT4nLCAnLW9tYWUnLCAnPG91dGZpbGUubWFlPic=

> <r_lp_tautomer_probability>
1

> <r_epik_Ionization_Penalty>
3.27177e-05

> <r_epik_Ionization_Penalty_Charging>
1.42456e-08

> <r_epik_Ionization_Penalty_Neutral>
3.27035e-05

> <r_epik_State_Penalty>
-0

> <r_epik_Charging_Adjusted_Penalty>
1.42456e-08

> <i_epik_Tot_Q>
0

> <i_epik_Tot_abs_Q>
0

> <r_epik_Metal_State_Penalty>
-0

> <b_epik_Metal_Only>
0

> <s_lp_Force_Field>
OPLS_2005

> <r_lp_Energy>
22.0809

> <b_lp_Chiralities_Consistent>
1

> <s_lp_Variant>
AV-unprocessed.smi:2606-1

> <Gold.Version>
5.8.1

> <Gold.Id.Protein>
6NUR|6NUR_protein|mol2

> <Gold.PLP.Fitness>
50.6197

> <Gold.PLP.PLP>
-48.0960

> <Gold.PLP.part.hbond>
-1.0000

> <Gold.PLP.part.metal>
0.0000

> <Gold.PLP.part.buried>
-6.7926

> <Gold.PLP.part.nonpolar>
-40.1012

> <Gold.PLP.part.repulsive>
0.2665

> <Gold.PLP.ligand.clash>
0.3677

> <Gold.PLP.ligand.torsion>
0.6392

> <Gold.PLP.Chemscore.Hbond>
0.3682

> <Gold.PLP.Chemscore.CHOScore>
1.0000

> <Gold.PLP.Chemscore.Metal>
0.0000

> <Gold.Chemscore.Hbonds>
donor molecule, donor type, donor heavy atom, donor atom, acceptor molecule, acceptor atom, score
      L1  H    15    30       P1  8028  0.47
      L1  C     5    27       P1  8028  1.00

> <Gold.PLP.Chemscore.Internal.Correction>
0.0654

> <Gold.Rescore>
     Score         DG    S(hbond)    S(metal)    S(lipo)     H(rot)  DE(clash)    DE(int)     intcor
     11.54     -13.43       0.49        0.00      89.90       1.65       0.05       1.84       ----

> <Gold.Chemscore.Fitness>
11.5368

> <Gold.Chemscore.DG>
-13.4277

> <Gold.Chemscore.ZeroCoef>
-5.4800

> <Gold.Chemscore.Hbond>
0.4942

> <Gold.Chemscore.Metal>
0.0000

> <Gold.Chemscore.Lipo>
89.9037

> <Gold.Chemscore.Internal_Hbond>
0.0000

> <Gold.Chemscore.DEClash>
0.0477

> <Gold.Chemscore.DEInternal>
1.8432

> <Gold.Chemscore.Rot>
1.6491

> <Gold.Chemscore.Internal.Correction>
   9.000000E+99

> <Gold.Chemscore.Hbonds>
donor molecule, donor type, donor heavy atom, donor atom, acceptor molecule, acceptor atom, score
      L1  H    15    30       P1  8028  0.43

> <Gold.Chemscore.Hbond.Weighted>
-1.6506

> <Gold.Chemscore.Metal.Weighted>
-0.0000

> <Gold.Chemscore.Lipo.Weighted>
-10.5187

> <Gold.Chemscore.Internal_Hbond.Weighted>
0.0000

> <Gold.Chemscore.DEClash.Weighted>
0.0477

> <Gold.Chemscore.DEInternal.Weighted>
1.8432

> <Gold.Chemscore.Rot.Weighted>
4.2216

> <Gold.Chemscore.Internal.Correction.Weighted>
   9.000000E+99

> <Gold.Protein.RotatedTorsions>
[ 6907 6896 6895 6894 ] final  -24.17 input  -60.11 | X-H torsion
[ 7974 7965 7964 7962 ] final  172.13 input  175.53 | X-H torsion
[ 8008 7997 7996 7995 ] final   79.68 input   59.86 | X-H torsion
[ 10167 10162 10161 10158 ] final  -10.15 input  -65.29 | X-H torsion
[ 10718 10713 10712 10709 ] final    5.78 input   66.30 | X-H torsion
[ 10763 10752 10751 10750 ] final   31.47 input  -60.55 | X-H torsion
[ 11005 11000 10999 10996 ] final  -61.32 input  -57.11 | X-H torsion

> <Gold.Protein.ActiveResidues>
 VAL166  LYS551  ARG553  GLY616  TRP617  ASP618  TYR619  PRO620  LYS621  CYS622 
 ASP623  PHE694  ASN695  SER759  ASP760  ASP761  ALA762  ILE779  LEU786  VAL792 
 PHE793  MET794  SER795  GLU796  ALA797  LYS798  CYS799  TRP800  GLU811  SER814 

> <Gold.Protein.RotatedAtoms>
  151.1934  135.0412  159.8841 H   0  0  0  0  0  0  0  0  0  0  0  0  # atno 6907 bound_to 6896
  152.5438  134.0930  159.8295 H   0  0  0  0  0  0  0  0  0  0  0  0  # atno 6908 bound_to 6896
  151.1062  133.5160  159.2640 H   0  0  0  0  0  0  0  0  0  0  0  0  # atno 6909 bound_to 6896
  144.7276  139.9453  143.6430 H   0  0  0  0  0  0  0  0  0  0  0  0  # atno 7974 bound_to 7965
  155.8730  140.3448  155.5834 H   0  0  0  0  0  0  0  0  0  0  0  0  # atno 8008 bound_to 7997
  155.7806  140.0858  157.2080 H   0  0  0  0  0  0  0  0  0  0  0  0  # atno 8009 bound_to 7997
  154.4019  140.1501  156.3035 H   0  0  0  0  0  0  0  0  0  0  0  0  # atno 8010 bound_to 7997
  140.7106  143.5780  150.9022 H   0  0  0  0  0  0  0  0  0  0  0  0  # atno 10167 bound_to 10162
  156.9124  130.5761  149.5647 H   0  0  0  0  0  0  0  0  0  0  0  0  # atno 10718 bound_to 10713
  153.0314  135.6438  154.1204 H   0  0  0  0  0  0  0  0  0  0  0  0  # atno 10763 bound_to 10752
  154.0926  135.2865  155.3270 H   0  0  0  0  0  0  0  0  0  0  0  0  # atno 10764 bound_to 10752
  154.6454  135.5445  153.7902 H   0  0  0  0  0  0  0  0  0  0  0  0  # atno 10765 bound_to 10752
  141.1320  133.6629  156.5358 H   0  0  0  0  0  0  0  0  0  0  0  0  # atno 11005 bound_to 11000
  146.0753  139.3741  143.0498 LP  0  0  0  0  0  0  0  0  0  0  0  0  # atno 17320 bound_to 7965
  145.7914  140.9813  143.1047 LP  0  0  0  0  0  0  0  0  0  0  0  0  # atno 17321 bound_to 7965
  139.9506  143.6277  152.3030 LP  0  0  0  0  0  0  0  0  0  0  0  0  # atno 17342 bound_to 10162
  139.6794  144.7656  151.1636 LP  0  0  0  0  0  0  0  0  0  0  0  0  # atno 17343 bound_to 10162
  156.0529  130.5596  150.9029 LP  0  0  0  0  0  0  0  0  0  0  0  0  # atno 17370 bound_to 10713
  157.5959  131.0943  150.9042 LP  0  0  0  0  0  0  0  0  0  0  0  0  # atno 17371 bound_to 10713
  140.4179  134.7213  157.4873 LP  0  0  0  0  0  0  0  0  0  0  0  0  # atno 17394 bound_to 11000
  140.0380  134.6308  155.9017 LP  0  0  0  0  0  0  0  0  0  0  0  0  # atno 17395 bound_to 11000

$$$$
