AV-unprocessed.smi:1433|AV-procd|sdf|5835|dock1
  -GOLD-   22720 5493D 1   1.00000     0.00000
 Structure written by MMmdl.
 44 45  0  0  0  0  0  0  0  0  1 V2000
  149.7554  141.1839  156.9831 C   0  0  0  0  0  0  0  0  0  0  0  0
  150.2167  141.2655  155.5177 C   0  0  2  0  0  0  0  0  0  0  0  0
  149.1107  140.8925  154.5100 C   0  0  0  0  0  0  0  0  0  0  0  0
  148.8277  139.4555  154.4691 N   0  0  0  0  0  0  0  0  0  0  0  0
  147.7639  139.1043  153.5033 C   0  0  2  0  0  0  0  0  0  0  0  0
  146.7425  140.2406  153.2662 C   0  0  0  0  0  0  0  0  0  0  0  0
  146.9759  137.8221  153.8781 C   0  0  0  0  0  0  0  0  0  0  0  0
  146.7200  136.9825  152.7098 N   0  0  0  0  0  0  0  0  0  0  0  0
  145.5391  136.8355  152.0884 C   0  0  0  0  0  0  0  0  0  0  0  0
  144.4981  137.3744  152.4629 O   0  0  0  0  0  0  0  0  0  0  0  0
  145.5326  135.9550  150.8375 C   0  0  0  0  0  0  0  0  0  0  0  0
  144.7144  134.7695  151.0247 N   0  0  0  0  0  0  0  0  0  0  0  0
  144.6586  133.6347  150.2423 C   0  0  0  0  0  0  0  0  0  0  0  0
  143.7459  132.7934  150.8110 C   0  0  0  0  0  0  0  0  0  0  0  0
  143.2914  133.5098  151.9532 C   0  0  0  0  0  0  0  0  0  0  0  0
  143.8723  134.6921  152.0788 N   0  0  0  0  0  0  0  0  0  0  0  0
  150.0854  138.7560  154.2008 C   0  0  0  0  0  0  0  0  0  0  0  0
  151.1681  139.0755  155.2461 C   0  0  1  0  0  0  0  0  0  0  0  0
  152.5013  138.3942  154.9206 C   0  0  0  0  0  0  0  0  0  0  0  0
  151.3867  140.4826  155.2858 O   0  0  0  0  0  0  0  0  0  0  0  0
  148.9366  141.8789  157.1703 H   0  0  0  0  0  0  0  0  0  0  0  0
  150.5685  141.4415  157.6620 H   0  0  0  0  0  0  0  0  0  0  0  0
  149.4013  140.1877  157.2474 H   0  0  0  0  0  0  0  0  0  0  0  0
  150.5017  142.3016  155.3324 H   0  0  0  0  0  0  0  0  0  0  0  0
  148.2177  141.4560  154.7763 H   0  0  0  0  0  0  0  0  0  0  0  0
  149.4066  141.2310  153.5160 H   0  0  0  0  0  0  0  0  0  0  0  0
  148.2372  138.9077  152.5401 H   0  0  0  0  0  0  0  0  0  0  0  0
  145.9138  139.9040  152.6425 H   0  0  0  0  0  0  0  0  0  0  0  0
  147.1865  141.0878  152.7445 H   0  0  0  0  0  0  0  0  0  0  0  0
  146.3222  140.6049  154.2044 H   0  0  0  0  0  0  0  0  0  0  0  0
  147.5565  137.2285  154.5848 H   0  0  0  0  0  0  0  0  0  0  0  0
  146.0587  138.0615  154.4161 H   0  0  0  0  0  0  0  0  0  0  0  0
  147.5150  136.4949  152.3223 H   0  0  0  0  0  0  0  0  0  0  0  0
  145.1426  136.5161  149.9871 H   0  0  0  0  0  0  0  0  0  0  0  0
  146.5539  135.6623  150.5878 H   0  0  0  0  0  0  0  0  0  0  0  0
  145.2651  133.5237  149.3553 H   0  0  0  0  0  0  0  0  0  0  0  0
  143.4480  131.8152  150.4641 H   0  0  0  0  0  0  0  0  0  0  0  0
  142.5617  133.2081  152.6901 H   0  0  0  0  0  0  0  0  0  0  0  0
  149.9373  137.6786  154.2061 H   0  0  0  0  0  0  0  0  0  0  0  0
  150.4470  139.0157  153.2046 H   0  0  0  0  0  0  0  0  0  0  0  0
  150.8389  138.7298  156.2265 H   0  0  0  0  0  0  0  0  0  0  0  0
  152.3902  137.3098  154.8901 H   0  0  0  0  0  0  0  0  0  0  0  0
  153.2529  138.6296  155.6745 H   0  0  0  0  0  0  0  0  0  0  0  0
  152.8854  138.7193  153.9534 H   0  0  0  0  0  0  0  0  0  0  0  0
  1  2  1  0  0  0  0
  1 21  1  0  0  0  0
  1 22  1  0  0  0  0
  1 23  1  0  0  0  0
  2 20  1  0  0  0  0
  2  3  1  0  0  0  0
  2 24  1  0  0  0  0
  3  4  1  0  0  0  0
  3 25  1  0  0  0  0
  3 26  1  0  0  0  0
  4  5  1  0  0  0  0
  4 17  1  0  0  0  0
  5  6  1  0  0  0  0
  5  7  1  0  0  0  0
  5 27  1  0  0  0  0
  6 28  1  0  0  0  0
  6 29  1  0  0  0  0
  6 30  1  0  0  0  0
  7  8  1  0  0  0  0
  7 31  1  0  0  0  0
  7 32  1  0  0  0  0
  8  9  1  0  0  0  0
  8 33  1  0  0  0  0
  9 10  2  0  0  0  0
  9 11  1  0  0  0  0
 11 12  1  0  0  0  0
 11 34  1  0  0  0  0
 11 35  1  0  0  0  0
 12 16  1  0  0  0  0
 12 13  1  0  0  0  0
 13 14  2  0  0  0  0
 13 36  1  0  0  0  0
 14 15  1  0  0  0  0
 14 37  1  0  0  0  0
 15 16  2  0  0  0  0
 15 38  1  0  0  0  0
 17 18  1  0  0  0  0
 17 39  1  0  0  0  0
 17 40  1  0  0  0  0
 18 19  1  0  0  0  0
 18 20  1  0  0  0  0
 18 41  1  0  0  0  0
 19 42  1  0  0  0  0
 19 43  1  0  0  0  0
 19 44  1  0  0  0  0
M  END
> <s_m_source_file>
AV-unprocessed.smi

> <i_m_source_file_index>
1433

> <i_lp_mmshare_version>
43012

> <i_f3d_flags>
0

> <s_epik_input>
W0NIM11bQ0BASF0xW0NIMl1OKFtDSDJdW0NASF0oTzEpW0NIM10pW0NASF0oW0NIM10pW0NIMl1bTkhdQyg9TylbQ0gyXW4yW2NIXVtjSF1bY0hdbjI=

> <s_epik_cmdline>
J2VwaWtfcHl0aG9uJywgJy1waCcsICc3LjAnLCAnLXRuJywgJzgnLCAnLW1hJywgJzIwMCcsICctbWV0YWxfYmluZGluZycsICctaW1hZScsICc8aW5maWxlLm1hZT4nLCAnLW9tYWUnLCAnPG91dGZpbGUubWFlPic=

> <r_lp_tautomer_probability>
1

> <r_epik_Ionization_Penalty>
0.196927

> <r_epik_Ionization_Penalty_Charging>
0

> <r_epik_Ionization_Penalty_Neutral>
0.196927

> <r_epik_State_Penalty>
0.186684

> <r_epik_Charging_Adjusted_Penalty>
0.186684

> <i_epik_Tot_Q>
0

> <i_epik_Tot_abs_Q>
0

> <r_epik_Metal_State_Penalty>
0.186682

> <b_epik_Metal_Only>
0

> <s_lp_Force_Field>
OPLS_2005

> <r_lp_Energy>
34.3038

> <b_lp_Chiralities_Consistent>
1

> <s_lp_Variant>
AV-unprocessed.smi:1433-1

> <Gold.Version>
5.8.1

> <Gold.Id.Protein>
6NUR|6NUR_protein|mol2

> <Gold.PLP.Fitness>
45.5753

> <Gold.PLP.PLP>
-36.7634

> <Gold.PLP.part.hbond>
-1.8947

> <Gold.PLP.part.metal>
0.0000

> <Gold.PLP.part.buried>
-3.3270

> <Gold.PLP.part.nonpolar>
-33.6290

> <Gold.PLP.part.repulsive>
1.3929

> <Gold.PLP.ligand.clash>
0.0000

> <Gold.PLP.ligand.torsion>
1.4823

> <Gold.PLP.Chemscore.Hbond>
1.8873

> <Gold.PLP.Chemscore.CHOScore>
2.0000

> <Gold.PLP.Chemscore.Metal>
0.0000

> <Gold.Chemscore.Hbonds>
donor molecule, donor type, donor heavy atom, donor atom, acceptor molecule, acceptor atom, score
      L1  H     8    33       P1  7948  0.98
      P1  H  7989  7998       L1    20  0.85
      L1  C    13    36       P1  7921  1.00
      L1  C    15    38       P1 10957  1.00

> <Gold.PLP.Chemscore.Internal.Correction>
0.1147

> <Gold.Rescore>
     Score         DG    S(hbond)    S(metal)    S(lipo)     H(rot)  DE(clash)    DE(int)     intcor
     11.62     -14.61       1.01        0.00      88.58       1.80       0.13       2.86       ----

> <Gold.Chemscore.Fitness>
11.6201

> <Gold.Chemscore.DG>
-14.6053

> <Gold.Chemscore.ZeroCoef>
-5.4800

> <Gold.Chemscore.Hbond>
1.0116

> <Gold.Chemscore.Metal>
0.0000

> <Gold.Chemscore.Lipo>
88.5842

> <Gold.Chemscore.Internal_Hbond>
0.0000

> <Gold.Chemscore.DEClash>
0.1282

> <Gold.Chemscore.DEInternal>
2.8570

> <Gold.Chemscore.Rot>
1.8038

> <Gold.Chemscore.Internal.Correction>
   9.000000E+99

> <Gold.Chemscore.Hbonds>
donor molecule, donor type, donor heavy atom, donor atom, acceptor molecule, acceptor atom, score
      L1  H     8    33       P1  7948  0.92
      P1  H  7989  7998       L1    20  0.07

> <Gold.Chemscore.Hbond.Weighted>
-3.3787

> <Gold.Chemscore.Metal.Weighted>
-0.0000

> <Gold.Chemscore.Lipo.Weighted>
-10.3644

> <Gold.Chemscore.Internal_Hbond.Weighted>
0.0000

> <Gold.Chemscore.DEClash.Weighted>
0.1282

> <Gold.Chemscore.DEInternal.Weighted>
2.8570

> <Gold.Chemscore.Rot.Weighted>
4.6178

> <Gold.Chemscore.Internal.Correction.Weighted>
   9.000000E+99

> <Gold.Protein.RotatedTorsions>
[ 6907 6896 6895 6894 ] final  -50.96 input  -60.11 | X-H torsion
[ 7974 7965 7964 7962 ] final -118.35 input  175.53 | X-H torsion
[ 8008 7997 7996 7995 ] final  -43.25 input   59.86 | X-H torsion
[ 10167 10162 10161 10158 ] final -124.23 input  -65.29 | X-H torsion
[ 10718 10713 10712 10709 ] final -179.69 input   66.30 | X-H torsion
[ 10763 10752 10751 10750 ] final -177.65 input  -60.55 | X-H torsion
[ 11005 11000 10999 10996 ] final   14.98 input  -57.11 | X-H torsion

> <Gold.Protein.ActiveResidues>
 VAL166  LYS551  ARG553  GLY616  TRP617  ASP618  TYR619  PRO620  LYS621  CYS622 
 ASP623  PHE694  ASN695  SER759  ASP760  ASP761  ALA762  ILE779  LEU786  VAL792 
 PHE793  MET794  SER795  GLU796  ALA797  LYS798  CYS799  TRP800  GLU811  SER814 

> <Gold.Protein.RotatedAtoms>
  150.8657  134.8020  159.7116 H   0  0  0  0  0  0  0  0  0  0  0  0  # atno 6907 bound_to 6896
  152.4679  134.5027  159.9739 H   0  0  0  0  0  0  0  0  0  0  0  0  # atno 6908 bound_to 6896
  151.5124  133.3444  159.2923 H   0  0  0  0  0  0  0  0  0  0  0  0  # atno 6909 bound_to 6896
  145.0749  140.8385  143.4074 H   0  0  0  0  0  0  0  0  0  0  0  0  # atno 7974 bound_to 7965
  154.3997  140.1452  156.3489 H   0  0  0  0  0  0  0  0  0  0  0  0  # atno 8008 bound_to 7997
  155.8288  140.3466  155.5538 H   0  0  0  0  0  0  0  0  0  0  0  0  # atno 8009 bound_to 7997
  155.8211  140.0898  157.1839 H   0  0  0  0  0  0  0  0  0  0  0  0  # atno 8010 bound_to 7997
  139.9950  143.5600  152.2326 H   0  0  0  0  0  0  0  0  0  0  0  0  # atno 10167 bound_to 10162
  156.8629  130.9757  151.3081 H   0  0  0  0  0  0  0  0  0  0  0  0  # atno 10718 bound_to 10713
  154.5574  135.2817  155.0951 H   0  0  0  0  0  0  0  0  0  0  0  0  # atno 10763 bound_to 10752
  154.2373  135.6363  153.5199 H   0  0  0  0  0  0  0  0  0  0  0  0  # atno 10764 bound_to 10752
  153.0019  135.5551  154.6159 H   0  0  0  0  0  0  0  0  0  0  0  0  # atno 10765 bound_to 10752
  140.4634  134.1104  155.7720 H   0  0  0  0  0  0  0  0  0  0  0  0  # atno 11005 bound_to 11000
  145.1248  139.2670  143.5570 LP  0  0  0  0  0  0  0  0  0  0  0  0  # atno 17320 bound_to 7965
  146.3530  140.0882  142.8614 LP  0  0  0  0  0  0  0  0  0  0  0  0  # atno 17321 bound_to 7965
  139.6312  144.7644  151.2532 LP  0  0  0  0  0  0  0  0  0  0  0  0  # atno 17342 bound_to 10162
  140.7440  143.6476  150.8278 LP  0  0  0  0  0  0  0  0  0  0  0  0  # atno 17343 bound_to 10162
  157.6240  130.8677  149.9157 LP  0  0  0  0  0  0  0  0  0  0  0  0  # atno 17370 bound_to 10713
  156.0767  130.3678  150.0663 LP  0  0  0  0  0  0  0  0  0  0  0  0  # atno 17371 bound_to 10713
  141.1611  133.8792  157.1846 LP  0  0  0  0  0  0  0  0  0  0  0  0  # atno 17394 bound_to 11000
  139.9931  135.0057  157.0020 LP  0  0  0  0  0  0  0  0  0  0  0  0  # atno 17395 bound_to 11000

$$$$
