AV-unprocessed.smi:1054|AV-procd|sdf|4623|dock1
  -GOLD-   22720 3123D 1   1.00000     0.00000
 Structure written by MMmdl.
 35 36  0  0  0  0  0  0  0  0  1 V2000
  150.6541  141.0292  158.0860 O   0  0  0  0  0  0  0  0  0  0  0  0
  150.2242  141.9897  157.4472 C   0  0  0  0  0  0  0  0  0  0  0  0
  150.3505  143.2785  157.8093 N   0  0  0  0  0  0  0  0  0  0  0  0
  150.9806  143.8097  158.9662 C   0  0  0  0  0  0  0  0  0  0  0  0
  151.2342  145.1994  158.9234 C   0  0  0  0  0  0  0  0  0  0  0  0
  151.8561  145.8247  160.0213 C   0  0  0  0  0  0  0  0  0  0  0  0
  152.2092  145.0432  161.1357 C   0  0  0  0  0  0  0  0  0  0  0  0
  151.9209  143.6666  161.0981 C   0  0  0  0  0  0  0  0  0  0  0  0
  151.3252  143.0651  160.0466 N   0  0  0  0  0  0  0  0  0  0  0  0
  149.5580  141.8821  156.2847 N   0  0  0  0  0  0  0  0  0  0  0  0
  149.1853  140.6621  155.5523 C   0  0  0  0  0  0  0  0  0  0  0  0
  148.3676  141.0261  154.2806 C   0  0  0  0  0  0  0  0  0  0  0  0
  149.2034  141.3804  153.1964 O   0  0  0  0  0  0  0  0  0  0  0  0
  150.5045  139.9310  155.1995 C   0  0  0  0  0  0  0  0  0  0  0  0
  150.2788  138.4881  154.7164 C   0  0  0  0  0  0  0  0  0  0  0  0
  149.5642  137.7546  155.7012 O   0  0  0  0  0  0  0  0  0  0  0  0
  148.2689  138.2861  155.9434 C   0  0  0  0  0  0  0  0  0  0  0  0
  148.3747  139.7233  156.4847 C   0  0  0  0  0  0  0  0  0  0  0  0
  149.9451  143.9598  157.1854 H   0  0  0  0  0  0  0  0  0  0  0  0
  150.9563  145.7850  158.0590 H   0  0  0  0  0  0  0  0  0  0  0  0
  152.0588  146.8855  160.0074 H   0  0  0  0  0  0  0  0  0  0  0  0
  152.6883  145.4864  161.9962 H   0  0  0  0  0  0  0  0  0  0  0  0
  152.1751  143.0313  161.9337 H   0  0  0  0  0  0  0  0  0  0  0  0
  149.2536  142.7454  155.8595 H   0  0  0  0  0  0  0  0  0  0  0  0
  147.7482  140.1896  153.9592 H   0  0  0  0  0  0  0  0  0  0  0  0
  147.6803  141.8500  154.4716 H   0  0  0  0  0  0  0  0  0  0  0  0
  149.2642  140.6411  152.6111 H   0  0  0  0  0  0  0  0  0  0  0  0
  151.0747  140.4869  154.4546 H   0  0  0  0  0  0  0  0  0  0  0  0
  151.1407  139.8883  156.0853 H   0  0  0  0  0  0  0  0  0  0  0  0
  149.7463  138.4646  153.7649 H   0  0  0  0  0  0  0  0  0  0  0  0
  151.2386  137.9995  154.5491 H   0  0  0  0  0  0  0  0  0  0  0  0
  147.6705  138.2476  155.0326 H   0  0  0  0  0  0  0  0  0  0  0  0
  147.7643  137.6527  156.6730 H   0  0  0  0  0  0  0  0  0  0  0  0
  148.8561  139.6794  157.4630 H   0  0  0  0  0  0  0  0  0  0  0  0
  147.3723  140.1148  156.6580 H   0  0  0  0  0  0  0  0  0  0  0  0
  1  2  2  0  0  0  0
  2  3  1  0  0  0  0
  2 10  1  0  0  0  0
  3  4  1  0  0  0  0
  3 19  1  0  0  0  0
  4  9  1  0  0  0  0
  4  5  2  0  0  0  0
  5  6  1  0  0  0  0
  5 20  1  0  0  0  0
  6  7  2  0  0  0  0
  6 21  1  0  0  0  0
  7  8  1  0  0  0  0
  7 22  1  0  0  0  0
  8  9  2  0  0  0  0
  8 23  1  0  0  0  0
 10 11  1  0  0  0  0
 10 24  1  0  0  0  0
 11 18  1  0  0  0  0
 11 12  1  0  0  0  0
 11 14  1  0  0  0  0
 12 13  1  0  0  0  0
 12 25  1  0  0  0  0
 12 26  1  0  0  0  0
 13 27  1  0  0  0  0
 14 15  1  0  0  0  0
 14 28  1  0  0  0  0
 14 29  1  0  0  0  0
 15 16  1  0  0  0  0
 15 30  1  0  0  0  0
 15 31  1  0  0  0  0
 16 17  1  0  0  0  0
 17 18  1  0  0  0  0
 17 32  1  0  0  0  0
 17 33  1  0  0  0  0
 18 34  1  0  0  0  0
 18 35  1  0  0  0  0
M  END
> <s_m_source_file>
AV-unprocessed.smi

> <i_m_source_file_index>
1054

> <i_lp_mmshare_version>
43012

> <i_f3d_flags>
0

> <s_epik_input>
W0NIMl0xW0NIMl1PW0NIMl1bQ0gyXUMxKFtDSDJdW09IXSlbTkhdQyg9TylbTkhdYzJbY0hdW2NIXVtjSF1bY0hdbjI=

> <s_epik_cmdline>
J2VwaWtfcHl0aG9uJywgJy1waCcsICc3LjAnLCAnLXRuJywgJzgnLCAnLW1hJywgJzIwMCcsICctbWV0YWxfYmluZGluZycsICctaW1hZScsICc8aW5maWxlLm1hZT4nLCAnLW9tYWUnLCAnPG91dGZpbGUubWFlPic=

> <r_lp_tautomer_probability>
1

> <r_epik_Ionization_Penalty>
4.33411e-05

> <r_epik_Ionization_Penalty_Charging>
0

> <r_epik_Ionization_Penalty_Neutral>
4.33411e-05

> <r_epik_State_Penalty>
-0

> <r_epik_Charging_Adjusted_Penalty>
0

> <i_epik_Tot_Q>
0

> <i_epik_Tot_abs_Q>
0

> <r_epik_Metal_State_Penalty>
-0

> <b_epik_Metal_Only>
0

> <s_lp_Force_Field>
OPLS_2005

> <r_lp_Energy>
17.545

> <b_lp_Chiralities_Consistent>
1

> <s_lp_Variant>
AV-unprocessed.smi:1054-1

> <Gold.Version>
5.8.1

> <Gold.Id.Protein>
6NUR|6NUR_protein|mol2

> <Gold.PLP.Fitness>
43.3656

> <Gold.PLP.PLP>
-32.6370

> <Gold.PLP.part.hbond>
-5.0216

> <Gold.PLP.part.metal>
0.0000

> <Gold.PLP.part.buried>
-2.7539

> <Gold.PLP.part.nonpolar>
-24.1343

> <Gold.PLP.part.repulsive>
0.1776

> <Gold.PLP.ligand.clash>
0.0000

> <Gold.PLP.ligand.torsion>
0.4472

> <Gold.PLP.Chemscore.Hbond>
3.8700

> <Gold.PLP.Chemscore.CHOScore>
0.0000

> <Gold.PLP.Chemscore.Metal>
0.0000

> <Gold.Chemscore.Hbonds>
donor molecule, donor type, donor heavy atom, donor atom, acceptor molecule, acceptor atom, score
      L1  H     3    19       P1  8028  1.00
      L1  H    10    24       P1  8028  1.00
      L1  H    13    27       P1  7957  0.98
      P1  H  8011  8017       L1    13  0.80

> <Gold.PLP.Chemscore.Internal.Correction>
0.0131

> <Gold.Rescore>
     Score         DG    S(hbond)    S(metal)    S(lipo)     H(rot)  DE(clash)    DE(int)     intcor
     17.32     -20.39       3.28        0.00      74.83       1.88       0.27       2.80       ----

> <Gold.Chemscore.Fitness>
17.3239

> <Gold.Chemscore.DG>
-20.3925

> <Gold.Chemscore.ZeroCoef>
-5.4800

> <Gold.Chemscore.Hbond>
3.2820

> <Gold.Chemscore.Metal>
0.0000

> <Gold.Chemscore.Lipo>
74.8339

> <Gold.Chemscore.Internal_Hbond>
0.0000

> <Gold.Chemscore.DEClash>
0.2680

> <Gold.Chemscore.DEInternal>
2.8007

> <Gold.Chemscore.Rot>
1.8769

> <Gold.Chemscore.Internal.Correction>
   9.000000E+99

> <Gold.Chemscore.Hbonds>
donor molecule, donor type, donor heavy atom, donor atom, acceptor molecule, acceptor atom, score
      L1  H     3    19       P1  8028  0.83
      L1  H    10    24       P1  8028  0.94
      L1  H    13    27       P1  7957  0.92
      P1  H  8011  8017       L1    13  0.18

> <Gold.Chemscore.Hbond.Weighted>
-10.9617

> <Gold.Chemscore.Metal.Weighted>
-0.0000

> <Gold.Chemscore.Lipo.Weighted>
-8.7556

> <Gold.Chemscore.Internal_Hbond.Weighted>
0.0000

> <Gold.Chemscore.DEClash.Weighted>
0.2680

> <Gold.Chemscore.DEInternal.Weighted>
2.8007

> <Gold.Chemscore.Rot.Weighted>
4.8048

> <Gold.Chemscore.Internal.Correction.Weighted>
   9.000000E+99

> <Gold.Protein.RotatedTorsions>
[ 6907 6896 6895 6894 ] final -154.01 input  -60.11 | X-H torsion
[ 7974 7965 7964 7962 ] final   63.32 input  175.53 | X-H torsion
[ 8008 7997 7996 7995 ] final   85.81 input   59.86 | X-H torsion
[ 10167 10162 10161 10158 ] final   97.80 input  -65.29 | X-H torsion
[ 10718 10713 10712 10709 ] final  -31.71 input   66.30 | X-H torsion
[ 10763 10752 10751 10750 ] final   75.84 input  -60.55 | X-H torsion
[ 11005 11000 10999 10996 ] final  -99.96 input  -57.11 | X-H torsion

> <Gold.Protein.ActiveResidues>
 VAL166  LYS551  ARG553  GLY616  TRP617  ASP618  TYR619  PRO620  LYS621  CYS622 
 ASP623  PHE694  ASN695  SER759  ASP760  ASP761  ALA762  ILE779  LEU786  VAL792 
 PHE793  MET794  SER795  GLU796  ALA797  LYS798  CYS799  TRP800  GLU811  SER814 

> <Gold.Protein.RotatedAtoms>
  151.2511  133.4350  159.2611 H   0  0  0  0  0  0  0  0  0  0  0  0  # atno 6907 bound_to 6896
  151.0617  134.9741  159.8274 H   0  0  0  0  0  0  0  0  0  0  0  0  # atno 6908 bound_to 6896
  152.5399  134.2461  159.8933 H   0  0  0  0  0  0  0  0  0  0  0  0  # atno 6909 bound_to 6896
  145.8632  139.3329  143.0806 H   0  0  0  0  0  0  0  0  0  0  0  0  # atno 7974 bound_to 7965
  155.9548  140.3398  155.6439 H   0  0  0  0  0  0  0  0  0  0  0  0  # atno 8008 bound_to 7997
  155.6874  140.0745  157.2480 H   0  0  0  0  0  0  0  0  0  0  0  0  # atno 8009 bound_to 7997
  154.4130  140.1663  156.2036 H   0  0  0  0  0  0  0  0  0  0  0  0  # atno 8010 bound_to 7997
  139.7767  144.6903  151.0079 H   0  0  0  0  0  0  0  0  0  0  0  0  # atno 10167 bound_to 10162
  156.3839  130.4361  149.7447 H   0  0  0  0  0  0  0  0  0  0  0  0  # atno 10718 bound_to 10713
  153.0683  135.4973  154.8249 H   0  0  0  0  0  0  0  0  0  0  0  0  # atno 10763 bound_to 10752
  154.6986  135.2997  154.9377 H   0  0  0  0  0  0  0  0  0  0  0  0  # atno 10764 bound_to 10752
  154.0109  135.6754  153.4818 H   0  0  0  0  0  0  0  0  0  0  0  0  # atno 10765 bound_to 10752
  141.1289  133.8361  157.1040 H   0  0  0  0  0  0  0  0  0  0  0  0  # atno 11005 bound_to 11000
  145.9223  140.9106  143.0398 LP  0  0  0  0  0  0  0  0  0  0  0  0  # atno 17320 bound_to 7965
  144.6726  140.1306  143.7444 LP  0  0  0  0  0  0  0  0  0  0  0  0  # atno 17321 bound_to 7965
  140.7816  143.4528  151.0388 LP  0  0  0  0  0  0  0  0  0  0  0  0  # atno 17342 bound_to 10162
  139.8210  143.7820  152.3177 LP  0  0  0  0  0  0  0  0  0  0  0  0  # atno 17343 bound_to 10162
  156.4527  130.7914  151.2935 LP  0  0  0  0  0  0  0  0  0  0  0  0  # atno 17370 bound_to 10713
  157.7494  131.0090  150.3251 LP  0  0  0  0  0  0  0  0  0  0  0  0  # atno 17371 bound_to 10713
  140.0316  134.9898  157.0791 LP  0  0  0  0  0  0  0  0  0  0  0  0  # atno 17394 bound_to 11000
  140.4276  134.1814  155.7167 LP  0  0  0  0  0  0  0  0  0  0  0  0  # atno 17395 bound_to 11000

$$$$
