AV-unprocessed.smi:2592|AV-procd|sdf|10162|dock3
  -GOLD-   2272014173D 1   1.00000     0.00000
 Structure written by MMmdl.
 41 42  0  0  0  0  0  0  0  0  2 V2000
  151.4447  144.4246  159.1808 C   0  0  0  0  0  0  0  0  0  0  0  0
  152.0014  143.0385  159.2909 C   0  0  0  0  0  0  0  0  0  0  0  0
  151.9788  142.1942  158.1779 N   0  0  0  0  0  0  0  0  0  0  0  0
  152.5126  140.9905  158.4071 C   0  0  0  0  0  0  0  0  0  0  0  0
  152.5820  140.0296  157.4711 N   0  5  0  0  0  0  0  0  0  0  0  0
  151.7324  140.0465  156.4189 C   0  0  0  0  0  0  0  0  0  0  0  0
  152.0454  140.0223  155.2260 O   0  0  0  0  0  0  0  0  0  0  0  0
  150.4392  140.0894  156.7708 N   0  0  0  0  0  0  0  0  0  0  0  0
  149.3035  140.1009  155.8551 C   0  0  0  0  0  0  0  0  0  0  0  0
  149.4684  141.1704  154.7635 C   0  0  0  0  0  0  0  0  0  0  0  0
  148.1460  141.4659  154.0360 C   0  0  0  0  0  0  0  0  0  0  0  0
  147.2040  142.3029  154.7780 N   0  0  0  0  0  0  0  0  0  0  0  0
  146.1588  142.8161  153.8989 C   0  0  0  0  0  0  0  0  0  0  0  0
  145.1511  143.6988  154.6555 C   0  0  0  0  0  0  0  0  0  0  0  0
  144.5840  142.9580  155.7309 O   0  0  0  0  0  0  0  0  0  0  0  0
  145.5660  142.4750  156.6418 C   0  0  0  0  0  0  0  0  0  0  0  0
  146.5795  141.5924  155.8926 C   0  0  0  0  0  0  0  0  0  0  0  0
  153.0725  140.8259  160.0718 S   0  0  0  0  0  0  0  0  0  0  0  0
  152.5568  142.4576  160.4040 C   0  0  0  0  0  0  0  0  0  0  0  0
  152.7412  143.0595  161.7570 C   0  0  0  0  0  0  0  0  0  0  0  0
  150.5099  144.5154  159.7341 H   0  0  0  0  0  0  0  0  0  0  0  0
  151.2427  144.6972  158.1444 H   0  0  0  0  0  0  0  0  0  0  0  0
  152.1406  145.1609  159.5834 H   0  0  0  0  0  0  0  0  0  0  0  0
  150.2296  140.1107  157.7582 H   0  0  0  0  0  0  0  0  0  0  0  0
  149.2294  139.1134  155.3996 H   0  0  0  0  0  0  0  0  0  0  0  0
  148.3763  140.2573  156.4088 H   0  0  0  0  0  0  0  0  0  0  0  0
  149.8589  142.0815  155.2163 H   0  0  0  0  0  0  0  0  0  0  0  0
  150.2143  140.8383  154.0402 H   0  0  0  0  0  0  0  0  0  0  0  0
  148.3918  141.9654  153.0977 H   0  0  0  0  0  0  0  0  0  0  0  0
  147.6654  140.5267  153.7577 H   0  0  0  0  0  0  0  0  0  0  0  0
  146.6064  143.3948  153.0900 H   0  0  0  0  0  0  0  0  0  0  0  0
  145.6283  141.9854  153.4307 H   0  0  0  0  0  0  0  0  0  0  0  0
  145.6353  144.5983  155.0388 H   0  0  0  0  0  0  0  0  0  0  0  0
  144.3541  144.0234  153.9867 H   0  0  0  0  0  0  0  0  0  0  0  0
  146.0686  143.3146  157.1246 H   0  0  0  0  0  0  0  0  0  0  0  0
  145.0725  141.9028  157.4274 H   0  0  0  0  0  0  0  0  0  0  0  0
  146.0756  140.6971  155.5251 H   0  0  0  0  0  0  0  0  0  0  0  0
  147.3359  141.2572  156.6014 H   0  0  0  0  0  0  0  0  0  0  0  0
  153.5867  143.7475  161.7600 H   0  0  0  0  0  0  0  0  0  0  0  0
  152.9285  142.2912  162.5074 H   0  0  0  0  0  0  0  0  0  0  0  0
  151.8528  143.6136  162.0607 H   0  0  0  0  0  0  0  0  0  0  0  0
  1  2  1  0  0  0  0
  1 21  1  0  0  0  0
  1 22  1  0  0  0  0
  1 23  1  0  0  0  0
  2 19  2  0  0  0  0
  2  3  1  0  0  0  0
  3  4  2  0  0  0  0
  4  5  1  0  0  0  0
  4 18  1  0  0  0  0
  5  6  1  0  0  0  0
  6  7  2  0  0  0  0
  6  8  1  0  0  0  0
  8  9  1  0  0  0  0
  8 24  1  0  0  0  0
  9 10  1  0  0  0  0
  9 25  1  0  0  0  0
  9 26  1  0  0  0  0
 10 11  1  0  0  0  0
 10 27  1  0  0  0  0
 10 28  1  0  0  0  0
 11 12  1  0  0  0  0
 11 29  1  0  0  0  0
 11 30  1  0  0  0  0
 12 17  1  0  0  0  0
 12 13  1  0  0  0  0
 13 14  1  0  0  0  0
 13 31  1  0  0  0  0
 13 32  1  0  0  0  0
 14 15  1  0  0  0  0
 14 33  1  0  0  0  0
 14 34  1  0  0  0  0
 15 16  1  0  0  0  0
 16 17  1  0  0  0  0
 16 35  1  0  0  0  0
 16 36  1  0  0  0  0
 17 37  1  0  0  0  0
 17 38  1  0  0  0  0
 18 19  1  0  0  0  0
 19 20  1  0  0  0  0
 20 39  1  0  0  0  0
 20 40  1  0  0  0  0
 20 41  1  0  0  0  0
M  CHG  1   5  -1
M  END
> <s_m_source_file>
AV-unprocessed.smi

> <i_m_source_file_index>
2592

> <i_lp_mmshare_version>
43012

> <i_f3d_flags>
0

> <s_epik_input>
W0NIM11jMW5jKHNjMVtDSDNdKVtOSF1DKD1PKVtOSF1bQ0gyXVtDSDJdW0NIMl1OMltDSDJdW0NIMl1PW0NIMl1bQ0gyXTI=

> <s_epik_cmdline>
J2VwaWtfcHl0aG9uJywgJy1waCcsICc3LjAnLCAnLXRuJywgJzgnLCAnLW1hJywgJzIwMCcsICctbWV0YWxfYmluZGluZycsICctaW1hZScsICc8aW5maWxlLm1hZT4nLCAnLW9tYWUnLCAnPG91dGZpbGUubWFlPic=

> <r_lp_tautomer_probability>
0.999

> <r_epik_Ionization_Penalty>
8.38414

> <r_epik_Ionization_Penalty_Charging>
6.24826

> <r_epik_Ionization_Penalty_Neutral>
2.13587

> <r_epik_State_Penalty>
6.83636

> <r_epik_Charging_Adjusted_Penalty>
13.0846

> <i_epik_Tot_Q>
-1

> <i_epik_Tot_abs_Q>
1

> <r_epik_Metal_State_Penalty>
2.77797

> <b_epik_Metal_Only>
1

> <s_lp_Force_Field>
OPLS_2005

> <r_lp_Energy>
16.0962

> <b_lp_Chiralities_Consistent>
1

> <s_lp_Variant>
AV-unprocessed.smi:2592-4

> <Gold.Version>
5.8.1

> <Gold.Id.Protein>
6NUR|6NUR_protein|mol2

> <Gold.PLP.Fitness>
47.6316

> <Gold.PLP.PLP>
-40.7145

> <Gold.PLP.part.hbond>
-2.0000

> <Gold.PLP.part.metal>
0.0000

> <Gold.PLP.part.buried>
-5.8519

> <Gold.PLP.part.nonpolar>
-32.6889

> <Gold.PLP.part.repulsive>
0.8097

> <Gold.PLP.ligand.clash>
0.0000

> <Gold.PLP.ligand.torsion>
0.8853

> <Gold.PLP.Chemscore.Hbond>
2.8480

> <Gold.PLP.Chemscore.CHOScore>
0.0000

> <Gold.PLP.Chemscore.Metal>
0.0000

> <Gold.Chemscore.Hbonds>
donor molecule, donor type, donor heavy atom, donor atom, acceptor molecule, acceptor atom, score
      P1  H  7989  7998       L1     7  0.80
      P1  H  7997  8009       L1     5  2.00

> <Gold.PLP.Chemscore.Internal.Correction>
0.1438

> <Gold.Rescore>
     Score         DG    S(hbond)    S(metal)    S(lipo)     H(rot)  DE(clash)    DE(int)     intcor
     14.33     -16.58       1.51        0.00      87.72       1.65       0.03       2.22       ----

> <Gold.Chemscore.Fitness>
14.3301

> <Gold.Chemscore.DG>
-16.5848

> <Gold.Chemscore.ZeroCoef>
-5.4800

> <Gold.Chemscore.Hbond>
1.5131

> <Gold.Chemscore.Metal>
0.0000

> <Gold.Chemscore.Lipo>
87.7178

> <Gold.Chemscore.Internal_Hbond>
0.0000

> <Gold.Chemscore.DEClash>
0.0328

> <Gold.Chemscore.DEInternal>
2.2219

> <Gold.Chemscore.Rot>
1.6452

> <Gold.Chemscore.Internal.Correction>
   9.000000E+99

> <Gold.Chemscore.Hbonds>
donor molecule, donor type, donor heavy atom, donor atom, acceptor molecule, acceptor atom, score
      P1  H  7989  7998       L1     7  0.79
      P1  H  7997  8009       L1     5  0.20

> <Gold.Chemscore.Hbond.Weighted>
-5.0536

> <Gold.Chemscore.Metal.Weighted>
-0.0000

> <Gold.Chemscore.Lipo.Weighted>
-10.2630

> <Gold.Chemscore.Internal_Hbond.Weighted>
0.0000

> <Gold.Chemscore.DEClash.Weighted>
0.0328

> <Gold.Chemscore.DEInternal.Weighted>
2.2219

> <Gold.Chemscore.Rot.Weighted>
4.2118

> <Gold.Chemscore.Internal.Correction.Weighted>
   9.000000E+99

> <Gold.Protein.RotatedTorsions>
[ 6907 6896 6895 6894 ] final  132.11 input  -60.11 | X-H torsion
[ 7974 7965 7964 7962 ] final   54.61 input  175.53 | X-H torsion
[ 8008 7997 7996 7995 ] final -173.00 input   59.86 | X-H torsion
[ 10167 10162 10161 10158 ] final  148.12 input  -65.29 | X-H torsion
[ 10718 10713 10712 10709 ] final  138.10 input   66.30 | X-H torsion
[ 10763 10752 10751 10750 ] final  -12.93 input  -60.55 | X-H torsion
[ 11005 11000 10999 10996 ] final  163.94 input  -57.11 | X-H torsion

> <Gold.Protein.ActiveResidues>
 VAL166  LYS551  ARG553  GLY616  TRP617  ASP618  TYR619  PRO620  LYS621  CYS622 
 ASP623  PHE694  ASN695  SER759  ASP760  ASP761  ALA762  ILE779  LEU786  VAL792 
 PHE793  MET794  SER795  GLU796  ALA797  LYS798  CYS799  TRP800  GLU811  SER814 

> <Gold.Protein.RotatedAtoms>
  152.3357  133.6009  159.5840 H   0  0  0  0  0  0  0  0  0  0  0  0  # atno 6907 bound_to 6896
  150.7449  133.9799  159.3582 H   0  0  0  0  0  0  0  0  0  0  0  0  # atno 6908 bound_to 6896
  151.7669  135.0797  160.0405 H   0  0  0  0  0  0  0  0  0  0  0  0  # atno 6909 bound_to 6896
  145.9590  139.4042  143.0259 H   0  0  0  0  0  0  0  0  0  0  0  0  # atno 7974 bound_to 7965
  155.9519  140.1128  157.0970 H   0  0  0  0  0  0  0  0  0  0  0  0  # atno 8008 bound_to 7997
  154.4111  140.1199  156.5130 H   0  0  0  0  0  0  0  0  0  0  0  0  # atno 8009 bound_to 7997
  155.6832  140.3473  155.4866 H   0  0  0  0  0  0  0  0  0  0  0  0  # atno 8010 bound_to 7997
  139.4879  144.5704  151.7066 H   0  0  0  0  0  0  0  0  0  0  0  0  # atno 10167 bound_to 10162
  157.4290  131.1046  151.0271 H   0  0  0  0  0  0  0  0  0  0  0  0  # atno 10718 bound_to 10713
  153.5057  135.7017  153.5807 H   0  0  0  0  0  0  0  0  0  0  0  0  # atno 10763 bound_to 10752
  153.3920  135.3893  155.1929 H   0  0  0  0  0  0  0  0  0  0  0  0  # atno 10764 bound_to 10752
  154.8707  135.3860  154.4532 H   0  0  0  0  0  0  0  0  0  0  0  0  # atno 10765 bound_to 10752
  140.2408  134.8052  157.3409 H   0  0  0  0  0  0  0  0  0  0  0  0  # atno 11005 bound_to 11000
  145.8066  140.9746  143.0971 LP  0  0  0  0  0  0  0  0  0  0  0  0  # atno 17320 bound_to 7965
  144.6811  139.9868  143.7484 LP  0  0  0  0  0  0  0  0  0  0  0  0  # atno 17321 bound_to 7965
  140.5290  144.0760  150.6047 LP  0  0  0  0  0  0  0  0  0  0  0  0  # atno 17342 bound_to 10162
  140.3744  143.2837  152.0242 LP  0  0  0  0  0  0  0  0  0  0  0  0  # atno 17343 bound_to 10162
  157.1174  130.6047  149.5496 LP  0  0  0  0  0  0  0  0  0  0  0  0  # atno 17370 bound_to 10713
  155.9906  130.4958  150.7266 LP  0  0  0  0  0  0  0  0  0  0  0  0  # atno 17371 bound_to 10713
  140.1655  134.4674  155.7866 LP  0  0  0  0  0  0  0  0  0  0  0  0  # atno 17394 bound_to 11000
  141.2210  133.6919  156.7618 LP  0  0  0  0  0  0  0  0  0  0  0  0  # atno 17395 bound_to 11000

$$$$
