AV-unprocessed.smi:1815|AV-procd|sdf|7355|dock2
  -GOLD-   22720 9 13D 1   1.00000     0.00000
 Structure written by MMmdl.
 40 41  0  0  0  0  0  0  0  0  2 V2000
  147.0206  131.9837  153.6684 C   0  0  0  0  0  0  0  0  0  0  0  0
  146.8107  133.1139  152.6549 C   0  0  2  0  0  0  0  0  0  0  0  0
  146.4543  134.4475  153.3379 C   0  0  0  0  0  0  0  0  0  0  0  0
  146.1852  135.4969  152.3263 N   0  3  2  0  0  0  0  0  0  0  0  0
  145.8991  136.8153  152.9451 C   0  0  0  0  0  0  0  0  0  0  0  0
  146.1147  137.9856  151.9660 C   0  0  0  0  0  0  0  0  0  0  0  0
  147.2831  138.7797  152.3289 N   0  0  0  0  0  0  0  0  0  0  0  0
  147.5719  139.1901  153.5723 C   0  0  0  0  0  0  0  0  0  0  0  0
  146.8632  138.9388  154.5477 O   0  0  0  0  0  0  0  0  0  0  0  0
  148.7138  139.8991  153.6013 N   0  0  0  0  0  0  0  0  0  0  0  0
  149.3390  140.5088  154.7206 C   0  0  0  0  0  0  0  0  0  0  0  0
  150.6480  140.4331  154.9883 N   0  0  0  0  0  0  0  0  0  0  0  0
  150.9857  141.1258  156.1538 C   0  0  0  0  0  0  0  0  0  0  0  0
  149.9136  141.7263  156.7655 C   0  0  0  0  0  0  0  0  0  0  0  0
  148.4287  141.4458  155.8964 S   0  0  0  0  0  0  0  0  0  0  0  0
  145.1379  135.0426  151.3787 C   0  0  0  0  0  0  0  0  0  0  0  0
  145.5287  133.6917  150.7493 C   0  0  2  0  0  0  0  0  0  0  0  0
  144.4351  133.1475  149.8237 C   0  0  0  0  0  0  0  0  0  0  0  0
  145.7476  132.7405  151.7853 O   0  0  0  0  0  0  0  0  0  0  0  0
  147.8378  132.2158  154.3518 H   0  0  0  0  0  0  0  0  0  0  0  0
  147.2658  131.0488  153.1641 H   0  0  0  0  0  0  0  0  0  0  0  0
  146.1231  131.8151  154.2645 H   0  0  0  0  0  0  0  0  0  0  0  0
  147.7266  133.2313  152.0729 H   0  0  0  0  0  0  0  0  0  0  0  0
  145.5771  134.3242  153.9755 H   0  0  0  0  0  0  0  0  0  0  0  0
  147.2777  134.7596  153.9818 H   0  0  0  0  0  0  0  0  0  0  0  0
  144.8834  136.8258  153.3438 H   0  0  0  0  0  0  0  0  0  0  0  0
  146.5657  136.9499  153.7982 H   0  0  0  0  0  0  0  0  0  0  0  0
  146.2189  137.6162  150.9443 H   0  0  0  0  0  0  0  0  0  0  0  0
  145.2563  138.6563  151.9684 H   0  0  0  0  0  0  0  0  0  0  0  0
  147.9180  139.0277  151.5838 H   0  0  0  0  0  0  0  0  0  0  0  0
  149.1914  140.0205  152.7205 H   0  0  0  0  0  0  0  0  0  0  0  0
  152.0163  141.1395  156.4763 H   0  0  0  0  0  0  0  0  0  0  0  0
  149.9078  142.3146  157.6711 H   0  0  0  0  0  0  0  0  0  0  0  0
  144.1859  134.9517  151.9047 H   0  0  0  0  0  0  0  0  0  0  0  0
  144.9972  135.7782  150.5876 H   0  0  0  0  0  0  0  0  0  0  0  0
  146.4461  133.8081  150.1695 H   0  0  0  0  0  0  0  0  0  0  0  0
  144.2337  133.8386  149.0048 H   0  0  0  0  0  0  0  0  0  0  0  0
  143.5020  132.9886  150.3648 H   0  0  0  0  0  0  0  0  0  0  0  0
  144.7332  132.1939  149.3872 H   0  0  0  0  0  0  0  0  0  0  0  0
  147.0389  135.6053  151.7973 H   0  0  0  0  0  0  0  0  0  0  0  0
  1  2  1  0  0  0  0
  1 20  1  0  0  0  0
  1 21  1  0  0  0  0
  1 22  1  0  0  0  0
  2 19  1  0  0  0  0
  2  3  1  0  0  0  0
  2 23  1  0  0  0  0
  3  4  1  0  0  0  0
  3 24  1  0  0  0  0
  3 25  1  0  0  0  0
  4  5  1  0  0  0  0
  4 16  1  0  0  0  0
  4 40  1  0  0  0  0
  5  6  1  0  0  0  0
  5 26  1  0  0  0  0
  5 27  1  0  0  0  0
  6  7  1  0  0  0  0
  6 28  1  0  0  0  0
  6 29  1  0  0  0  0
  7  8  1  0  0  0  0
  7 30  1  0  0  0  0
  8  9  2  0  0  0  0
  8 10  1  0  0  0  0
 10 11  1  0  0  0  0
 10 31  1  0  0  0  0
 11 15  1  0  0  0  0
 11 12  2  0  0  0  0
 12 13  1  0  0  0  0
 13 14  2  0  0  0  0
 13 32  1  0  0  0  0
 14 15  1  0  0  0  0
 14 33  1  0  0  0  0
 16 17  1  0  0  0  0
 16 34  1  0  0  0  0
 16 35  1  0  0  0  0
 17 18  1  0  0  0  0
 17 19  1  0  0  0  0
 17 36  1  0  0  0  0
 18 37  1  0  0  0  0
 18 38  1  0  0  0  0
 18 39  1  0  0  0  0
M  CHG  1   4   1
M  END
> <s_m_source_file>
AV-unprocessed.smi

> <i_m_source_file_index>
1815

> <i_lp_mmshare_version>
43012

> <i_f3d_flags>
0

> <s_epik_input>
W0NIM11bQ0BASF0xW0NIMl1OKFtDSDJdW0NASF0oTzEpW0NIM10pW0NIMl1bQ0gyXVtOSF1DKD1PKVtOSF1jMm5bY0hdW2NIXXMy

> <s_epik_cmdline>
J2VwaWtfcHl0aG9uJywgJy1waCcsICc3LjAnLCAnLXRuJywgJzgnLCAnLW1hJywgJzIwMCcsICctbWV0YWxfYmluZGluZycsICctaW1hZScsICc8aW5maWxlLm1hZT4nLCAnLW9tYWUnLCAnPG91dGZpbGUubWFlPic=

> <r_lp_tautomer_probability>
0.999

> <r_epik_Ionization_Penalty>
0.695838

> <r_epik_Ionization_Penalty_Charging>
0.695697

> <r_epik_Ionization_Penalty_Neutral>
0.000141198

> <r_epik_State_Penalty>
0.717972

> <r_epik_Charging_Adjusted_Penalty>
1.41367

> <i_epik_Tot_Q>
1

> <i_epik_Tot_abs_Q>
1

> <r_epik_Metal_State_Penalty>
0.756405

> <b_epik_Metal_Only>
0

> <s_lp_Force_Field>
OPLS_2005

> <r_lp_Energy>
12.0644

> <b_lp_Chiralities_Consistent>
1

> <s_lp_Variant>
AV-unprocessed.smi:1815-6

> <Gold.Version>
5.8.1

> <Gold.Id.Protein>
6NUR|6NUR_protein|mol2

> <Gold.PLP.Fitness>
44.6689

> <Gold.PLP.PLP>
-32.4539

> <Gold.PLP.part.hbond>
-5.0000

> <Gold.PLP.part.metal>
0.0000

> <Gold.PLP.part.buried>
-4.6010

> <Gold.PLP.part.nonpolar>
-23.9666

> <Gold.PLP.part.repulsive>
0.4874

> <Gold.PLP.ligand.clash>
0.0000

> <Gold.PLP.ligand.torsion>
0.9659

> <Gold.PLP.Chemscore.Hbond>
4.7040

> <Gold.PLP.Chemscore.CHOScore>
0.0000

> <Gold.PLP.Chemscore.Metal>
0.0000

> <Gold.Chemscore.Hbonds>
donor molecule, donor type, donor heavy atom, donor atom, acceptor molecule, acceptor atom, score
      L1  H     4    40       P1  7948  1.86
      L1  H     7    30       P1  7957  0.91
      L1  H    10    31       P1  7957  1.00
      P1  H  7989  7998       L1    12  1.00

> <Gold.PLP.Chemscore.Internal.Correction>
0.0347

> <Gold.Rescore>
     Score         DG    S(hbond)    S(metal)    S(lipo)     H(rot)  DE(clash)    DE(int)     intcor
     18.18     -20.50       3.55        0.00      62.79       1.64       0.03       2.30       ----

> <Gold.Chemscore.Fitness>
18.1752

> <Gold.Chemscore.DG>
-20.4995

> <Gold.Chemscore.ZeroCoef>
-5.4800

> <Gold.Chemscore.Hbond>
3.5532

> <Gold.Chemscore.Metal>
0.0000

> <Gold.Chemscore.Lipo>
62.7894

> <Gold.Chemscore.Internal_Hbond>
0.0000

> <Gold.Chemscore.DEClash>
0.0260

> <Gold.Chemscore.DEInternal>
2.2984

> <Gold.Chemscore.Rot>
1.6385

> <Gold.Chemscore.Internal.Correction>
   9.000000E+99

> <Gold.Chemscore.Hbonds>
donor molecule, donor type, donor heavy atom, donor atom, acceptor molecule, acceptor atom, score
      L1  H     4    40       P1  7948  0.88
      L1  H     7    30       P1  7957  0.76
      L1  H    10    31       P1  7957  0.99
      P1  H  7989  7998       L1    12  0.65

> <Gold.Chemscore.Hbond.Weighted>
-11.8677

> <Gold.Chemscore.Metal.Weighted>
-0.0000

> <Gold.Chemscore.Lipo.Weighted>
-7.3464

> <Gold.Chemscore.Internal_Hbond.Weighted>
0.0000

> <Gold.Chemscore.DEClash.Weighted>
0.0260

> <Gold.Chemscore.DEInternal.Weighted>
2.2984

> <Gold.Chemscore.Rot.Weighted>
4.1945

> <Gold.Chemscore.Internal.Correction.Weighted>
   9.000000E+99

> <Gold.Protein.RotatedTorsions>
[ 6907 6896 6895 6894 ] final   36.86 input  -60.11 | X-H torsion
[ 7974 7965 7964 7962 ] final   40.59 input  175.53 | X-H torsion
[ 8008 7997 7996 7995 ] final -106.30 input   59.86 | X-H torsion
[ 10167 10162 10161 10158 ] final  -63.65 input  -65.29 | X-H torsion
[ 10718 10713 10712 10709 ] final   13.20 input   66.30 | X-H torsion
[ 10763 10752 10751 10750 ] final  -67.06 input  -60.55 | X-H torsion
[ 11005 11000 10999 10996 ] final  -69.35 input  -57.11 | X-H torsion

> <Gold.Protein.ActiveResidues>
 VAL166  LYS551  ARG553  GLY616  TRP617  ASP618  TYR619  PRO620  LYS621  CYS622 
 ASP623  PHE694  ASN695  SER759  ASP760  ASP761  ALA762  ILE779  LEU786  VAL792 
 PHE793  MET794  SER795  GLU796  ALA797  LYS798  CYS799  TRP800  GLU811  SER814 

> <Gold.Protein.RotatedAtoms>
  152.1354  134.9103  160.0556 H   0  0  0  0  0  0  0  0  0  0  0  0  # atno 6907 bound_to 6896
  152.0191  133.3886  159.4259 H   0  0  0  0  0  0  0  0  0  0  0  0  # atno 6908 bound_to 6896
  150.6860  134.3567  159.4976 H   0  0  0  0  0  0  0  0  0  0  0  0  # atno 6909 bound_to 6896
  146.0892  139.5515  142.9487 H   0  0  0  0  0  0  0  0  0  0  0  0  # atno 7974 bound_to 7965
  154.9125  140.0409  157.1954 H   0  0  0  0  0  0  0  0  0  0  0  0  # atno 8008 bound_to 7997
  154.8334  140.2903  155.5685 H   0  0  0  0  0  0  0  0  0  0  0  0  # atno 8009 bound_to 7997
  156.2988  140.2496  156.3264 H   0  0  0  0  0  0  0  0  0  0  0  0  # atno 8010 bound_to 7997
  140.5856  143.2333  151.6249 H   0  0  0  0  0  0  0  0  0  0  0  0  # atno 10167 bound_to 10162
  157.0212  130.6155  149.5721 H   0  0  0  0  0  0  0  0  0  0  0  0  # atno 10718 bound_to 10713
  154.3690  135.6099  153.5730 H   0  0  0  0  0  0  0  0  0  0  0  0  # atno 10763 bound_to 10752
  152.9791  135.5833  154.4544 H   0  0  0  0  0  0  0  0  0  0  0  0  # atno 10764 bound_to 10752
  154.4295  135.2847  155.1900 H   0  0  0  0  0  0  0  0  0  0  0  0  # atno 10765 bound_to 10752
  141.1552  133.6762  156.6585 H   0  0  0  0  0  0  0  0  0  0  0  0  # atno 11005 bound_to 11000
  145.6071  141.0346  143.1986 LP  0  0  0  0  0  0  0  0  0  0  0  0  # atno 17320 bound_to 7965
  144.7348  139.7619  143.7333 LP  0  0  0  0  0  0  0  0  0  0  0  0  # atno 17321 bound_to 7965
  139.5196  144.3249  152.0877 LP  0  0  0  0  0  0  0  0  0  0  0  0  # atno 17342 bound_to 10162
  140.2406  144.4273  150.6261 LP  0  0  0  0  0  0  0  0  0  0  0  0  # atno 17343 bound_to 10162
  156.0102  130.5192  150.7962 LP  0  0  0  0  0  0  0  0  0  0  0  0  # atno 17370 bound_to 10713
  157.5248  131.0933  151.0031 LP  0  0  0  0  0  0  0  0  0  0  0  0  # atno 17371 bound_to 10713
  140.3265  134.7964  157.4293 LP  0  0  0  0  0  0  0  0  0  0  0  0  # atno 17394 bound_to 11000
  140.1052  134.5419  155.8316 LP  0  0  0  0  0  0  0  0  0  0  0  0  # atno 17395 bound_to 11000

$$$$
