AV-unprocessed.smi:1047|AV-procd|sdf|4578|dock3
  -GOLD-   22720 3 43D 1   1.00000     0.00000
 Structure written by MMmdl.
 56 58  0  0  0  0  0  0  0  0  2 V2000
  144.0463  145.9654  157.8829 C   0  0  0  0  0  0  0  0  0  0  0  0
  143.9177  146.3010  156.3906 C   0  0  0  0  0  0  0  0  0  0  0  0
  143.3127  145.1891  155.6105 N   0  3  1  0  0  0  0  0  0  0  0  0
  143.1452  145.4658  154.1611 C   0  0  0  0  0  0  0  0  0  0  0  0
  144.4765  145.3159  153.4005 C   0  0  0  0  0  0  0  0  0  0  0  0
  145.0264  144.0274  153.6463 O   0  0  0  0  0  0  0  0  0  0  0  0
  145.3157  143.8105  155.0241 C   0  0  2  0  0  0  0  0  0  0  0  0
  145.9787  142.4322  155.1602 C   0  0  0  0  0  0  0  0  0  0  0  0
  146.9236  142.1940  154.0741 N   0  0  0  0  0  0  0  0  0  0  0  0
  147.3268  140.7957  153.9571 C   0  0  0  0  0  0  0  0  0  0  0  0
  148.7727  140.5889  154.4485 C   0  0  1  0  0  0  0  0  0  0  0  0
  149.6469  140.8164  153.3625 O   0  0  0  0  0  0  0  0  0  0  0  0
  149.1849  141.5536  155.5777 C   0  0  0  0  0  0  0  0  0  0  0  0
  150.1824  140.9825  156.4646 N   0  0  0  0  0  0  0  0  0  0  0  0
  150.6637  139.7249  156.4357 C   0  0  0  0  0  0  0  0  0  0  0  0
  151.5756  139.4003  157.3473 N   0  0  0  0  0  0  0  0  0  0  0  0
  151.7064  140.5883  158.0460 C   0  0  0  0  0  0  0  0  0  0  0  0
  152.5231  140.9166  159.1502 C   0  0  0  0  0  0  0  0  0  0  0  0
  152.4932  142.2120  159.7141 C   0  0  0  0  0  0  0  0  0  0  0  0
  153.3876  142.5218  160.9018 C   0  0  0  0  0  0  0  0  0  0  0  0
  151.6357  143.2029  159.1722 C   0  0  0  0  0  0  0  0  0  0  0  0
  151.5863  144.6016  159.7616 C   0  0  0  0  0  0  0  0  0  0  0  0
  150.8124  142.8915  158.0698 C   0  0  0  0  0  0  0  0  0  0  0  0
  150.8510  141.5990  157.5174 C   0  0  0  0  0  0  0  0  0  0  0  0
  143.9910  143.8850  155.8128 C   0  0  0  0  0  0  0  0  0  0  0  0
  144.5863  146.7545  158.4067 H   0  0  0  0  0  0  0  0  0  0  0  0
  144.5960  145.0356  158.0323 H   0  0  0  0  0  0  0  0  0  0  0  0
  143.0747  145.8646  158.3658 H   0  0  0  0  0  0  0  0  0  0  0  0
  143.3546  147.2243  156.2558 H   0  0  0  0  0  0  0  0  0  0  0  0
  144.9207  146.4970  156.0097 H   0  0  0  0  0  0  0  0  0  0  0  0
  142.4259  144.7496  153.7620 H   0  0  0  0  0  0  0  0  0  0  0  0
  142.7141  146.4519  153.9926 H   0  0  0  0  0  0  0  0  0  0  0  0
  144.3071  145.4246  152.3292 H   0  0  0  0  0  0  0  0  0  0  0  0
  145.1898  146.0905  153.6844 H   0  0  0  0  0  0  0  0  0  0  0  0
  146.0041  144.5762  155.3868 H   0  0  0  0  0  0  0  0  0  0  0  0
  146.5082  142.3784  156.1123 H   0  0  0  0  0  0  0  0  0  0  0  0
  145.2154  141.6532  155.1836 H   0  0  0  0  0  0  0  0  0  0  0  0
  146.5196  142.5058  153.1962 H   0  0  0  0  0  0  0  0  0  0  0  0
  146.6414  140.1454  154.5027 H   0  0  0  0  0  0  0  0  0  0  0  0
  147.2526  140.5055  152.9092 H   0  0  0  0  0  0  0  0  0  0  0  0
  148.9083  139.5631  154.7947 H   0  0  0  0  0  0  0  0  0  0  0  0
  149.4266  140.2111  152.6707 H   0  0  0  0  0  0  0  0  0  0  0  0
  149.5948  142.4732  155.1574 H   0  0  0  0  0  0  0  0  0  0  0  0
  148.3149  141.8436  156.1684 H   0  0  0  0  0  0  0  0  0  0  0  0
  150.3212  139.0059  155.7055 H   0  0  0  0  0  0  0  0  0  0  0  0
  153.1753  140.1610  159.5629 H   0  0  0  0  0  0  0  0  0  0  0  0
  154.0751  143.3328  160.6617 H   0  0  0  0  0  0  0  0  0  0  0  0
  153.9820  141.6544  161.1902 H   0  0  0  0  0  0  0  0  0  0  0  0
  152.7888  142.8177  161.7635 H   0  0  0  0  0  0  0  0  0  0  0  0
  150.8791  145.2346  159.2248 H   0  0  0  0  0  0  0  0  0  0  0  0
  152.5670  145.0745  159.7067 H   0  0  0  0  0  0  0  0  0  0  0  0
  151.2764  144.5653  160.8062 H   0  0  0  0  0  0  0  0  0  0  0  0
  150.1535  143.6367  157.6497 H   0  0  0  0  0  0  0  0  0  0  0  0
  144.1589  143.7048  156.8752 H   0  0  0  0  0  0  0  0  0  0  0  0
  143.3201  143.0947  155.4727 H   0  0  0  0  0  0  0  0  0  0  0  0
  142.3839  145.0771  155.9920 H   0  0  0  0  0  0  0  0  0  0  0  0
  1  2  1  0  0  0  0
  1 26  1  0  0  0  0
  1 27  1  0  0  0  0
  1 28  1  0  0  0  0
  2  3  1  0  0  0  0
  2 29  1  0  0  0  0
  2 30  1  0  0  0  0
  3 25  1  0  0  0  0
  3  4  1  0  0  0  0
  3 56  1  0  0  0  0
  4  5  1  0  0  0  0
  4 31  1  0  0  0  0
  4 32  1  0  0  0  0
  5  6  1  0  0  0  0
  5 33  1  0  0  0  0
  5 34  1  0  0  0  0
  6  7  1  0  0  0  0
  7  8  1  0  0  0  0
  7 25  1  0  0  0  0
  7 35  1  0  0  0  0
  8  9  1  0  0  0  0
  8 36  1  0  0  0  0
  8 37  1  0  0  0  0
  9 10  1  0  0  0  0
  9 38  1  0  0  0  0
 10 11  1  0  0  0  0
 10 39  1  0  0  0  0
 10 40  1  0  0  0  0
 11 12  1  0  0  0  0
 11 13  1  0  0  0  0
 11 41  1  0  0  0  0
 12 42  1  0  0  0  0
 13 14  1  0  0  0  0
 13 43  1  0  0  0  0
 13 44  1  0  0  0  0
 14 24  1  0  0  0  0
 14 15  1  0  0  0  0
 15 16  2  0  0  0  0
 15 45  1  0  0  0  0
 16 17  1  0  0  0  0
 17 24  2  0  0  0  0
 17 18  1  0  0  0  0
 18 19  2  0  0  0  0
 18 46  1  0  0  0  0
 19 20  1  0  0  0  0
 19 21  1  0  0  0  0
 20 47  1  0  0  0  0
 20 48  1  0  0  0  0
 20 49  1  0  0  0  0
 21 22  1  0  0  0  0
 21 23  2  0  0  0  0
 22 50  1  0  0  0  0
 22 51  1  0  0  0  0
 22 52  1  0  0  0  0
 23 24  1  0  0  0  0
 23 53  1  0  0  0  0
 25 54  1  0  0  0  0
 25 55  1  0  0  0  0
M  CHG  1   3   1
M  END
> <s_m_source_file>
AV-unprocessed.smi

> <i_m_source_file_index>
1047

> <i_lp_mmshare_version>
43012

> <i_f3d_flags>
0

> <s_epik_input>
W0NIM11bQ0gyXU4xW0NIMl1bQ0gyXU9bQ0BIXShbQ0gyXTEpW0NIMl1bTkhdW0NIMl1bQ0BIXShbT0hdKVtDSDJdbihbY0hdbjIpYyhjMjMpW2NIXWMoW0NIM10pYyhbY0hdMylbQ0gzXQ==

> <s_epik_cmdline>
J2VwaWtfcHl0aG9uJywgJy1waCcsICc3LjAnLCAnLXRuJywgJzgnLCAnLW1hJywgJzIwMCcsICctbWV0YWxfYmluZGluZycsICctaW1hZScsICc8aW5maWxlLm1hZT4nLCAnLW9tYWUnLCAnPG91dGZpbGUubWFlPic=

> <r_epik_Ionization_Penalty>
1.19246

> <r_epik_Ionization_Penalty_Charging>
0.210041

> <r_epik_Ionization_Penalty_Neutral>
0.982415

> <r_epik_State_Penalty>
1.57595

> <r_epik_Charging_Adjusted_Penalty>
1.78599

> <i_epik_Tot_Q>
1

> <i_epik_Tot_abs_Q>
1

> <r_epik_Metal_State_Penalty>
1.46172

> <b_epik_Metal_Only>
0

> <s_lp_Force_Field>
OPLS_2005

> <r_lp_Energy>
33.2573

> <b_lp_Chiralities_Consistent>
1

> <s_lp_Variant>
AV-unprocessed.smi:1047-19

> <Gold.Version>
5.8.1

> <Gold.Id.Protein>
6NUR|6NUR_protein|mol2

> <Gold.PLP.Fitness>
53.0510

> <Gold.PLP.PLP>
-49.2717

> <Gold.PLP.part.hbond>
-2.3015

> <Gold.PLP.part.metal>
0.0000

> <Gold.PLP.part.buried>
-8.3192

> <Gold.PLP.part.nonpolar>
-40.6038

> <Gold.PLP.part.repulsive>
0.1988

> <Gold.PLP.ligand.clash>
0.0000

> <Gold.PLP.ligand.torsion>
1.3207

> <Gold.PLP.Chemscore.Hbond>
2.0560

> <Gold.PLP.Chemscore.CHOScore>
0.0000

> <Gold.PLP.Chemscore.Metal>
0.0000

> <Gold.Chemscore.Hbonds>
donor molecule, donor type, donor heavy atom, donor atom, acceptor molecule, acceptor atom, score
      L1  H    12    42       P1  7957  0.80
      P1  H  7989  7998       L1    12  0.29
      P1  H  8011  8017       L1    12  0.95

> <Gold.PLP.Chemscore.Internal.Correction>
0.2526

> <Gold.Rescore>
     Score         DG    S(hbond)    S(metal)    S(lipo)     H(rot)  DE(clash)    DE(int)     intcor
     17.31     -18.86       1.31        0.00     134.24       2.62       0.25       1.31       ----

> <Gold.Chemscore.Fitness>
17.3054

> <Gold.Chemscore.DG>
-18.8644

> <Gold.Chemscore.ZeroCoef>
-5.4800

> <Gold.Chemscore.Hbond>
1.3137

> <Gold.Chemscore.Metal>
0.0000

> <Gold.Chemscore.Lipo>
134.2431

> <Gold.Chemscore.Internal_Hbond>
0.0000

> <Gold.Chemscore.DEClash>
0.2480

> <Gold.Chemscore.DEInternal>
1.3111

> <Gold.Chemscore.Rot>
2.6209

> <Gold.Chemscore.Internal.Correction>
   9.000000E+99

> <Gold.Chemscore.Hbonds>
donor molecule, donor type, donor heavy atom, donor atom, acceptor molecule, acceptor atom, score
      L1  H    12    42       P1  7957  0.74
      P1  H  7989  7998       L1    12  0.17
      P1  H  8011  8017       L1    12  0.21

> <Gold.Chemscore.Hbond.Weighted>
-4.3876

> <Gold.Chemscore.Metal.Weighted>
-0.0000

> <Gold.Chemscore.Lipo.Weighted>
-15.7064

> <Gold.Chemscore.Internal_Hbond.Weighted>
0.0000

> <Gold.Chemscore.DEClash.Weighted>
0.2480

> <Gold.Chemscore.DEInternal.Weighted>
1.3111

> <Gold.Chemscore.Rot.Weighted>
6.7096

> <Gold.Chemscore.Internal.Correction.Weighted>
   9.000000E+99

> <Gold.Protein.RotatedTorsions>
[ 6907 6896 6895 6894 ] final  -76.53 input  -60.11 | X-H torsion
[ 7974 7965 7964 7962 ] final   61.81 input  175.53 | X-H torsion
[ 8008 7997 7996 7995 ] final   -5.38 input   59.86 | X-H torsion
[ 10167 10162 10161 10158 ] final -131.40 input  -65.29 | X-H torsion
[ 10718 10713 10712 10709 ] final  -42.34 input   66.30 | X-H torsion
[ 10763 10752 10751 10750 ] final -123.08 input  -60.55 | X-H torsion
[ 11005 11000 10999 10996 ] final   70.05 input  -57.11 | X-H torsion

> <Gold.Protein.ActiveResidues>
 VAL166  LYS551  ARG553  GLY616  TRP617  ASP618  TYR619  PRO620  LYS621  CYS622 
 ASP623  PHE694  ASN695  SER759  ASP760  ASP761  ALA762  ILE779  LEU786  VAL792 
 PHE793  MET794  SER795  GLU796  ALA797  LYS798  CYS799  TRP800  GLU811  SER814 

> <Gold.Protein.RotatedAtoms>
  150.7024  134.4558  159.5357 H   0  0  0  0  0  0  0  0  0  0  0  0  # atno 6907 bound_to 6896
  152.2242  134.8381  160.0491 H   0  0  0  0  0  0  0  0  0  0  0  0  # atno 6908 bound_to 6896
  151.9221  133.3553  159.3937 H   0  0  0  0  0  0  0  0  0  0  0  0  # atno 6909 bound_to 6896
  145.8805  139.3440  143.0709 H   0  0  0  0  0  0  0  0  0  0  0  0  # atno 7974 bound_to 7965
  154.6045  140.2460  155.7748 H   0  0  0  0  0  0  0  0  0  0  0  0  # atno 8008 bound_to 7997
  156.2332  140.2959  156.0195 H   0  0  0  0  0  0  0  0  0  0  0  0  # atno 8009 bound_to 7997
  155.2155  140.0398  157.2930 H   0  0  0  0  0  0  0  0  0  0  0  0  # atno 8010 bound_to 7997
  139.9193  143.6402  152.2557 H   0  0  0  0  0  0  0  0  0  0  0  0  # atno 10167 bound_to 10162
  156.2607  130.4196  149.8546 H   0  0  0  0  0  0  0  0  0  0  0  0  # atno 10718 bound_to 10713
  154.8701  135.4110  154.2886 H   0  0  0  0  0  0  0  0  0  0  0  0  # atno 10763 bound_to 10752
  153.3766  135.7010  153.6603 H   0  0  0  0  0  0  0  0  0  0  0  0  # atno 10764 bound_to 10752
  153.5442  135.3642  155.2703 H   0  0  0  0  0  0  0  0  0  0  0  0  # atno 10765 bound_to 10752
  139.9619  134.7046  156.0627 H   0  0  0  0  0  0  0  0  0  0  0  0  # atno 11005 bound_to 11000
  145.9029  140.9231  143.0493 LP  0  0  0  0  0  0  0  0  0  0  0  0  # atno 17320 bound_to 7965
  144.6727  140.1057  143.7458 LP  0  0  0  0  0  0  0  0  0  0  0  0  # atno 17321 bound_to 7965
  139.6875  144.7650  151.1497 LP  0  0  0  0  0  0  0  0  0  0  0  0  # atno 17342 bound_to 10162
  140.7666  143.5636  150.9072 LP  0  0  0  0  0  0  0  0  0  0  0  0  # atno 17343 bound_to 10162
  156.6062  130.8567  151.3443 LP  0  0  0  0  0  0  0  0  0  0  0  0  # atno 17370 bound_to 10713
  157.7249  130.9609  150.1593 LP  0  0  0  0  0  0  0  0  0  0  0  0  # atno 17371 bound_to 10713
  141.1297  133.6590  156.3431 LP  0  0  0  0  0  0  0  0  0  0  0  0  # atno 17394 bound_to 11000
  140.5481  134.6055  157.5399 LP  0  0  0  0  0  0  0  0  0  0  0  0  # atno 17395 bound_to 11000

$$$$
