AV-unprocessed.smi:2546|AV-procd|sdf|10000|dock4
  -GOLD-   2272014 43D 1   1.00000     0.00000
 Structure written by MMmdl.
 16 16  0  0  0  0  0  0  0  0  3 V2000
  148.5642  138.6711  153.1561 N   0  3  0  0  0  0  0  0  0  0  0  0
  149.2954  138.7431  154.4312 C   0  0  0  0  0  0  0  0  0  0  0  0
  150.7851  139.0268  154.2064 C   0  0  0  0  0  0  0  0  0  0  0  0
  151.4582  139.4942  155.4768 C   0  0  0  0  0  0  0  0  0  0  0  0
  152.5785  138.9510  155.9888 N   0  0  0  0  0  0  0  0  0  0  0  0
  152.8677  139.6611  157.0623 N   0  5  0  0  0  0  0  0  0  0  0  0
  151.9386  140.6191  157.1846 C   0  0  0  0  0  0  0  0  0  0  0  0
  151.0507  140.5447  156.2045 N   0  0  0  0  0  0  0  0  0  0  0  0
  147.6406  139.0612  153.2780 H   0  0  0  0  0  0  0  0  0  0  0  0
  148.4874  137.7064  152.8672 H   0  0  0  0  0  0  0  0  0  0  0  0
  148.8505  139.5244  155.0485 H   0  0  0  0  0  0  0  0  0  0  0  0
  149.1664  137.7997  154.9627 H   0  0  0  0  0  0  0  0  0  0  0  0
  151.2943  138.1304  153.8494 H   0  0  0  0  0  0  0  0  0  0  0  0
  150.9153  139.7906  153.4387 H   0  0  0  0  0  0  0  0  0  0  0  0
  151.9732  141.3325  157.9987 H   0  0  0  0  0  0  0  0  0  0  0  0
  149.0630  139.1963  152.4523 H   0  0  0  0  0  0  0  0  0  0  0  0
  1  2  1  0  0  0  0
  1  9  1  0  0  0  0
  1 10  1  0  0  0  0
  1 16  1  0  0  0  0
  2  3  1  0  0  0  0
  2 11  1  0  0  0  0
  2 12  1  0  0  0  0
  3 13  1  0  0  0  0
  3 14  1  0  0  0  0
  3  4  1  0  0  0  0
  4  8  1  0  0  0  0
  4  5  2  0  0  0  0
  5  6  1  0  0  0  0
  6  7  1  0  0  0  0
  7  8  2  0  0  0  0
  7 15  1  0  0  0  0
M  CHG  1   1   1
M  CHG  1   6  -1
M  END
> <s_m_source_file>
AV-unprocessed.smi

> <i_m_source_file_index>
2546

> <i_lp_mmshare_version>
43012

> <i_f3d_flags>
0

> <s_epik_input>
W05IMl1bQ0gyXVtDSDJdYzFubltjSF1bbkhdMQ==

> <s_epik_cmdline>
J2VwaWtfcHl0aG9uJywgJy1waCcsICc3LjAnLCAnLXRuJywgJzgnLCAnLW1hJywgJzIwMCcsICctbWV0YWxfYmluZGluZycsICctaW1hZScsICc8aW5maWxlLm1hZT4nLCAnLW9tYWUnLCAnPG91dGZpbGUubWFlPic=

> <r_lp_tautomer_probability>
0.948284

> <r_epik_Ionization_Penalty>
6.40664

> <r_epik_Ionization_Penalty_Charging>
6.40664

> <r_epik_Ionization_Penalty_Neutral>
1.41162e-13

> <r_epik_State_Penalty>
2.81126

> <r_epik_Charging_Adjusted_Penalty>
9.2179

> <i_epik_Tot_Q>
0

> <i_epik_Tot_abs_Q>
2

> <r_epik_Metal_State_Penalty>
0.674554

> <b_epik_Metal_Only>
1

> <s_lp_Force_Field>
OPLS_2005

> <r_lp_Energy>
-3.27829

> <b_lp_Chiralities_Consistent>
1

> <s_lp_Variant>
AV-unprocessed.smi:2546-4

> <Gold.Version>
5.8.1

> <Gold.Id.Protein>
6NUR|6NUR_protein|mol2

> <Gold.PLP.Fitness>
29.0778

> <Gold.PLP.PLP>
-14.2829

> <Gold.PLP.part.hbond>
-3.7489

> <Gold.PLP.part.metal>
0.0000

> <Gold.PLP.part.buried>
-1.8799

> <Gold.PLP.part.nonpolar>
-7.9947

> <Gold.PLP.part.repulsive>
0.0817

> <Gold.PLP.ligand.clash>
0.0000

> <Gold.PLP.ligand.torsion>
0.1054

> <Gold.PLP.Chemscore.Hbond>
5.0000

> <Gold.PLP.Chemscore.CHOScore>
0.0000

> <Gold.PLP.Chemscore.Metal>
0.0000

> <Gold.Chemscore.Hbonds>
donor molecule, donor type, donor heavy atom, donor atom, acceptor molecule, acceptor atom, score
      L1  H     1    10       P1  7948  2.00
      L1  H     1    16       P1  7957  1.00
      P1  H  7997  8008       L1     6  2.00

> <Gold.PLP.Chemscore.Internal.Correction>
0.0057

> <Gold.Rescore>
     Score         DG    S(hbond)    S(metal)    S(lipo)     H(rot)  DE(clash)    DE(int)     intcor
     12.14     -12.29       2.81        0.00      14.30       1.66       0.04       0.11       ----

> <Gold.Chemscore.Fitness>
12.1410

> <Gold.Chemscore.DG>
-12.2937

> <Gold.Chemscore.ZeroCoef>
-5.4800

> <Gold.Chemscore.Hbond>
2.8112

> <Gold.Chemscore.Metal>
0.0000

> <Gold.Chemscore.Lipo>
14.2967

> <Gold.Chemscore.Internal_Hbond>
0.0000

> <Gold.Chemscore.DEClash>
0.0383

> <Gold.Chemscore.DEInternal>
0.1144

> <Gold.Chemscore.Rot>
1.6595

> <Gold.Chemscore.Internal.Correction>
   9.000000E+99

> <Gold.Chemscore.Hbonds>
donor molecule, donor type, donor heavy atom, donor atom, acceptor molecule, acceptor atom, score
      L1  H     1    10       P1  7948  0.97
      L1  H     1    16       P1  7957  0.99
      P1  H  7997  8008       L1     6  0.43

> <Gold.Chemscore.Hbond.Weighted>
-9.3894

> <Gold.Chemscore.Metal.Weighted>
-0.0000

> <Gold.Chemscore.Lipo.Weighted>
-1.6727

> <Gold.Chemscore.Internal_Hbond.Weighted>
0.0000

> <Gold.Chemscore.DEClash.Weighted>
0.0383

> <Gold.Chemscore.DEInternal.Weighted>
0.1144

> <Gold.Chemscore.Rot.Weighted>
4.2484

> <Gold.Chemscore.Internal.Correction.Weighted>
   9.000000E+99

> <Gold.Protein.RotatedTorsions>
[ 6907 6896 6895 6894 ] final  -51.19 input  -60.11 | X-H torsion
[ 7974 7965 7964 7962 ] final  -91.03 input  175.53 | X-H torsion
[ 8008 7997 7996 7995 ] final  -76.52 input   59.86 | X-H torsion
[ 10167 10162 10161 10158 ] final  -92.52 input  -65.29 | X-H torsion
[ 10718 10713 10712 10709 ] final -156.03 input   66.30 | X-H torsion
[ 10763 10752 10751 10750 ] final  115.53 input  -60.55 | X-H torsion
[ 11005 11000 10999 10996 ] final  -34.80 input  -57.11 | X-H torsion

> <Gold.Protein.ActiveResidues>
 VAL166  LYS551  ARG553  GLY616  TRP617  ASP618  TYR619  PRO620  LYS621  CYS622 
 ASP623  PHE694  ASN695  SER759  ASP760  ASP761  ALA762  ILE779  LEU786  VAL792 
 PHE793  MET794  SER795  GLU796  ALA797  LYS798  CYS799  TRP800  GLU811  SER814 

> <Gold.Protein.RotatedAtoms>
  150.8635  134.7992  159.7100 H   0  0  0  0  0  0  0  0  0  0  0  0  # atno 6907 bound_to 6896
  152.4664  134.5062  159.9749 H   0  0  0  0  0  0  0  0  0  0  0  0  # atno 6908 bound_to 6896
  151.5162  133.3437  159.2929 H   0  0  0  0  0  0  0  0  0  0  0  0  # atno 6909 bound_to 6896
  145.4185  140.9549  143.2194 H   0  0  0  0  0  0  0  0  0  0  0  0  # atno 7974 bound_to 7965
  154.5512  140.0726  156.8671 H   0  0  0  0  0  0  0  0  0  0  0  0  # atno 8008 bound_to 7997
  155.2989  140.3383  155.4230 H   0  0  0  0  0  0  0  0  0  0  0  0  # atno 8009 bound_to 7997
  156.1963  140.1705  156.7977 H   0  0  0  0  0  0  0  0  0  0  0  0  # atno 8010 bound_to 7997
  140.3339  143.2979  151.9911 H   0  0  0  0  0  0  0  0  0  0  0  0  # atno 10167 bound_to 10162
  156.5209  130.8477  151.2681 H   0  0  0  0  0  0  0  0  0  0  0  0  # atno 10718 bound_to 10713
  153.5235  135.3593  155.2643 H   0  0  0  0  0  0  0  0  0  0  0  0  # atno 10763 bound_to 10752
  154.8733  135.4051  154.3232 H   0  0  0  0  0  0  0  0  0  0  0  0  # atno 10764 bound_to 10752
  153.3907  135.7071  153.6564 H   0  0  0  0  0  0  0  0  0  0  0  0  # atno 10765 bound_to 10752
  140.9745  133.7090  156.1579 H   0  0  0  0  0  0  0  0  0  0  0  0  # atno 11005 bound_to 11000
  144.8261  139.5708  143.6965 LP  0  0  0  0  0  0  0  0  0  0  0  0  # atno 17320 bound_to 7965
  146.2669  139.6540  142.9323 LP  0  0  0  0  0  0  0  0  0  0  0  0  # atno 17321 bound_to 7965
  139.4851  144.6212  151.7251 LP  0  0  0  0  0  0  0  0  0  0  0  0  # atno 17342 bound_to 10162
  140.5371  144.0638  150.6074 LP  0  0  0  0  0  0  0  0  0  0  0  0  # atno 17343 bound_to 10162
  157.7437  130.9917  150.2612 LP  0  0  0  0  0  0  0  0  0  0  0  0  # atno 17370 bound_to 10713
  156.3150  130.3777  149.7626 LP  0  0  0  0  0  0  0  0  0  0  0  0  # atno 17371 bound_to 10713
  140.7279  134.4287  157.5569 LP  0  0  0  0  0  0  0  0  0  0  0  0  # atno 17394 bound_to 11000
  139.8925  134.8753  156.2267 LP  0  0  0  0  0  0  0  0  0  0  0  0  # atno 17395 bound_to 11000

$$$$
