AV-unprocessed.smi:2126|AV-procd|sdf|8675|dock6
  -GOLD-   2272011423D 1   1.00000     0.00000
 Structure written by MMmdl.
 40 42  0  0  0  0  0  0  0  0  1 V2000
  143.6676  146.0058  153.8597 C   0  0  0  0  0  0  0  0  0  0  0  0
  143.4329  144.8177  154.6013 O   0  0  0  0  0  0  0  0  0  0  0  0
  144.4020  143.8378  154.5789 C   0  0  0  0  0  0  0  0  0  0  0  0
  145.6523  143.9672  153.9258 C   0  0  0  0  0  0  0  0  0  0  0  0
  146.5832  142.9109  153.9541 C   0  0  0  0  0  0  0  0  0  0  0  0
  146.2957  141.7084  154.6294 C   0  0  0  0  0  0  0  0  0  0  0  0
  147.2650  140.7284  154.6066 O   0  0  0  0  0  0  0  0  0  0  0  0
  148.6258  141.1312  154.5217 C   0  0  0  0  0  0  0  0  0  0  0  0
  149.2418  141.1224  155.9284 C   0  0  2  0  0  0  0  0  0  0  0  0
  148.6143  142.1317  156.6949 O   0  0  0  0  0  0  0  0  0  0  0  0
  150.7659  141.3518  155.9066 C   0  0  0  0  0  0  0  0  0  0  0  0
  151.3268  141.4900  157.2390 N   0  0  0  0  0  0  0  0  0  0  0  0
  151.6168  140.4980  158.1028 C   0  0  0  0  0  0  0  0  0  0  0  0
  152.1262  140.8455  159.2812 N   0  0  0  0  0  0  0  0  0  0  0  0
  152.1737  142.2246  159.1695 C   0  0  0  0  0  0  0  0  0  0  0  0
  152.6164  143.2046  160.0867 C   0  0  0  0  0  0  0  0  0  0  0  0
  152.5669  144.5732  159.7492 C   0  0  0  0  0  0  0  0  0  0  0  0
  152.0747  144.9829  158.4931 C   0  0  0  0  0  0  0  0  0  0  0  0
  151.6280  144.0250  157.5626 C   0  0  0  0  0  0  0  0  0  0  0  0
  151.6799  142.6602  157.9027 C   0  0  0  0  0  0  0  0  0  0  0  0
  145.0452  141.5794  155.2823 C   0  0  0  0  0  0  0  0  0  0  0  0
  144.1142  142.6352  155.2538 C   0  0  0  0  0  0  0  0  0  0  0  0
  142.8134  146.6735  153.9711 H   0  0  0  0  0  0  0  0  0  0  0  0
  143.7849  145.7956  152.7958 H   0  0  0  0  0  0  0  0  0  0  0  0
  144.5496  146.5348  154.2236 H   0  0  0  0  0  0  0  0  0  0  0  0
  145.9223  144.8675  153.3952 H   0  0  0  0  0  0  0  0  0  0  0  0
  147.5313  143.0264  153.4496 H   0  0  0  0  0  0  0  0  0  0  0  0
  149.1870  140.4648  153.8644 H   0  0  0  0  0  0  0  0  0  0  0  0
  148.6771  142.1390  154.1057 H   0  0  0  0  0  0  0  0  0  0  0  0
  149.0240  140.1661  156.4058 H   0  0  0  0  0  0  0  0  0  0  0  0
  148.5744  142.9206  156.1757 H   0  0  0  0  0  0  0  0  0  0  0  0
  151.2662  140.5184  155.4116 H   0  0  0  0  0  0  0  0  0  0  0  0
  151.0106  142.2450  155.3306 H   0  0  0  0  0  0  0  0  0  0  0  0
  151.4414  139.4617  157.8527 H   0  0  0  0  0  0  0  0  0  0  0  0
  152.9938  142.9030  161.0526 H   0  0  0  0  0  0  0  0  0  0  0  0
  152.9075  145.3129  160.4586 H   0  0  0  0  0  0  0  0  0  0  0  0
  152.0394  146.0336  158.2448 H   0  0  0  0  0  0  0  0  0  0  0  0
  151.2476  144.3349  156.6006 H   0  0  0  0  0  0  0  0  0  0  0  0
  144.7737  140.6796  155.8126 H   0  0  0  0  0  0  0  0  0  0  0  0
  143.1655  142.5192  155.7568 H   0  0  0  0  0  0  0  0  0  0  0  0
  1  2  1  0  0  0  0
  1 23  1  0  0  0  0
  1 24  1  0  0  0  0
  1 25  1  0  0  0  0
  2  3  1  0  0  0  0
  3 22  1  0  0  0  0
  3  4  2  0  0  0  0
  4  5  1  0  0  0  0
  4 26  1  0  0  0  0
  5  6  2  0  0  0  0
  5 27  1  0  0  0  0
  6  7  1  0  0  0  0
  6 21  1  0  0  0  0
  7  8  1  0  0  0  0
  8  9  1  0  0  0  0
  8 28  1  0  0  0  0
  8 29  1  0  0  0  0
  9 10  1  0  0  0  0
  9 11  1  0  0  0  0
  9 30  1  0  0  0  0
 10 31  1  0  0  0  0
 11 12  1  0  0  0  0
 11 32  1  0  0  0  0
 11 33  1  0  0  0  0
 12 20  1  0  0  0  0
 12 13  1  0  0  0  0
 13 14  2  0  0  0  0
 13 34  1  0  0  0  0
 14 15  1  0  0  0  0
 15 20  2  0  0  0  0
 15 16  1  0  0  0  0
 16 17  2  0  0  0  0
 16 35  1  0  0  0  0
 17 18  1  0  0  0  0
 17 36  1  0  0  0  0
 18 19  2  0  0  0  0
 18 37  1  0  0  0  0
 19 20  1  0  0  0  0
 19 38  1  0  0  0  0
 21 22  2  0  0  0  0
 21 39  1  0  0  0  0
 22 40  1  0  0  0  0
M  END
> <s_m_source_file>
AV-unprocessed.smi

> <i_m_source_file_index>
2126

> <i_lp_mmshare_version>
43012

> <i_f3d_flags>
0

> <s_epik_input>
W0NIM11PYzFbY0hdW2NIXWMoW2NIXVtjSF0xKU9bQ0gyXVtDQEhdKFtPSF0pW0NIMl1uKFtjSF1uMiljKGMyMylbY0hdW2NIXVtjSF1bY0hdMw==

> <s_epik_cmdline>
J2VwaWtfcHl0aG9uJywgJy1waCcsICc3LjAnLCAnLXRuJywgJzgnLCAnLW1hJywgJzIwMCcsICctbWV0YWxfYmluZGluZycsICctaW1hZScsICc8aW5maWxlLm1hZT4nLCAnLW9tYWUnLCAnPG91dGZpbGUubWFlPic=

> <r_lp_tautomer_probability>
1

> <r_epik_Ionization_Penalty>
0.0608933

> <r_epik_Ionization_Penalty_Charging>
0

> <r_epik_Ionization_Penalty_Neutral>
0.0608933

> <r_epik_State_Penalty>
0.0528196

> <r_epik_Charging_Adjusted_Penalty>
0.0528196

> <i_epik_Tot_Q>
0

> <i_epik_Tot_abs_Q>
0

> <r_epik_Metal_State_Penalty>
5.52429e-05

> <b_epik_Metal_Only>
0

> <s_lp_Force_Field>
OPLS_2005

> <r_lp_Energy>
18.1491

> <b_lp_Chiralities_Consistent>
1

> <s_lp_Variant>
AV-unprocessed.smi:2126-1

> <Gold.Version>
5.8.1

> <Gold.Id.Protein>
6NUR|6NUR_protein|mol2

> <Gold.PLP.Fitness>
48.7328

> <Gold.PLP.PLP>
-47.5829

> <Gold.PLP.part.hbond>
-1.0000

> <Gold.PLP.part.metal>
0.0000

> <Gold.PLP.part.buried>
-7.0584

> <Gold.PLP.part.nonpolar>
-39.9234

> <Gold.PLP.part.repulsive>
0.1983

> <Gold.PLP.ligand.clash>
0.0000

> <Gold.PLP.ligand.torsion>
0.9741

> <Gold.PLP.Chemscore.Hbond>
1.0000

> <Gold.PLP.Chemscore.CHOScore>
0.0000

> <Gold.PLP.Chemscore.Metal>
0.0000

> <Gold.Chemscore.Hbonds>
donor molecule, donor type, donor heavy atom, donor atom, acceptor molecule, acceptor atom, score
      L1  H    10    31       P1  8028  1.00

> <Gold.PLP.Chemscore.Internal.Correction>
0.0981

> <Gold.Rescore>
     Score         DG    S(hbond)    S(metal)    S(lipo)     H(rot)  DE(clash)    DE(int)     intcor
     16.36     -17.37       0.96        0.00     129.00       2.51       0.06       0.95       ----

> <Gold.Chemscore.Fitness>
16.3644

> <Gold.Chemscore.DG>
-17.3750

> <Gold.Chemscore.ZeroCoef>
-5.4800

> <Gold.Chemscore.Hbond>
0.9648

> <Gold.Chemscore.Metal>
0.0000

> <Gold.Chemscore.Lipo>
129.0046

> <Gold.Chemscore.Internal_Hbond>
0.0000

> <Gold.Chemscore.DEClash>
0.0636

> <Gold.Chemscore.DEInternal>
0.9469

> <Gold.Chemscore.Rot>
2.5083

> <Gold.Chemscore.Internal.Correction>
   9.000000E+99

> <Gold.Chemscore.Hbonds>
donor molecule, donor type, donor heavy atom, donor atom, acceptor molecule, acceptor atom, score
      L1  H    10    31       P1  8028  0.96

> <Gold.Chemscore.Hbond.Weighted>
-3.2226

> <Gold.Chemscore.Metal.Weighted>
-0.0000

> <Gold.Chemscore.Lipo.Weighted>
-15.0935

> <Gold.Chemscore.Internal_Hbond.Weighted>
0.0000

> <Gold.Chemscore.DEClash.Weighted>
0.0636

> <Gold.Chemscore.DEInternal.Weighted>
0.9469

> <Gold.Chemscore.Rot.Weighted>
6.4212

> <Gold.Chemscore.Internal.Correction.Weighted>
   9.000000E+99

> <Gold.Protein.RotatedTorsions>
[ 6907 6896 6895 6894 ] final   -7.52 input  -60.11 | X-H torsion
[ 7974 7965 7964 7962 ] final   42.28 input  175.53 | X-H torsion
[ 8008 7997 7996 7995 ] final  -53.50 input   59.86 | X-H torsion
[ 10167 10162 10161 10158 ] final   26.90 input  -65.29 | X-H torsion
[ 10718 10713 10712 10709 ] final  -94.49 input   66.30 | X-H torsion
[ 10763 10752 10751 10750 ] final  -87.22 input  -60.55 | X-H torsion
[ 11005 11000 10999 10996 ] final  -50.88 input  -57.11 | X-H torsion

> <Gold.Protein.ActiveResidues>
 VAL166  LYS551  ARG553  GLY616  TRP617  ASP618  TYR619  PRO620  LYS621  CYS622 
 ASP623  PHE694  ASN695  SER759  ASP760  ASP761  ALA762  ILE779  LEU786  VAL792 
 PHE793  MET794  SER795  GLU796  ALA797  LYS798  CYS799  TRP800  GLU811  SER814 

> <Gold.Protein.RotatedAtoms>
  151.4482  135.1027  159.9689 H   0  0  0  0  0  0  0  0  0  0  0  0  # atno 6907 bound_to 6896
  152.4898  133.8464  159.7190 H   0  0  0  0  0  0  0  0  0  0  0  0  # atno 6908 bound_to 6896
  150.9040  133.7022  159.2899 H   0  0  0  0  0  0  0  0  0  0  0  0  # atno 6909 bound_to 6896
  146.0754  139.5319  142.9571 H   0  0  0  0  0  0  0  0  0  0  0  0  # atno 7974 bound_to 7965
  154.4135  140.1198  156.5165 H   0  0  0  0  0  0  0  0  0  0  0  0  # atno 8008 bound_to 7997
  155.6746  140.3496  155.4812 H   0  0  0  0  0  0  0  0  0  0  0  0  # atno 8009 bound_to 7997
  155.9603  140.1121  157.0891 H   0  0  0  0  0  0  0  0  0  0  0  0  # atno 8010 bound_to 7997
  140.4983  144.0355  150.6323 H   0  0  0  0  0  0  0  0  0  0  0  0  # atno 10167 bound_to 10162
  156.0028  130.5070  150.5934 H   0  0  0  0  0  0  0  0  0  0  0  0  # atno 10718 bound_to 10713
  154.6312  135.5421  153.7682 H   0  0  0  0  0  0  0  0  0  0  0  0  # atno 10763 bound_to 10752
  153.0285  135.6436  154.1299 H   0  0  0  0  0  0  0  0  0  0  0  0  # atno 10764 bound_to 10752
  154.1228  135.2919  155.3184 H   0  0  0  0  0  0  0  0  0  0  0  0  # atno 10765 bound_to 10752
  141.0840  133.6646  156.3795 H   0  0  0  0  0  0  0  0  0  0  0  0  # atno 11005 bound_to 11000
  145.6316  141.0303  143.1860 LP  0  0  0  0  0  0  0  0  0  0  0  0  # atno 17320 bound_to 7965
  144.7258  139.7881  143.7365 LP  0  0  0  0  0  0  0  0  0  0  0  0  # atno 17321 bound_to 7965
  140.3644  143.2889  152.0348 LP  0  0  0  0  0  0  0  0  0  0  0  0  # atno 17342 bound_to 10162
  139.4866  144.6278  151.7130 LP  0  0  0  0  0  0  0  0  0  0  0  0  # atno 17343 bound_to 10162
  157.3795  131.0778  151.1489 LP  0  0  0  0  0  0  0  0  0  0  0  0  # atno 17370 bound_to 10713
  157.2216  130.6484  149.5813 LP  0  0  0  0  0  0  0  0  0  0  0  0  # atno 17371 bound_to 10713
  140.5404  134.6125  157.5378 LP  0  0  0  0  0  0  0  0  0  0  0  0  # atno 17394 bound_to 11000
  139.9656  134.7378  156.0145 LP  0  0  0  0  0  0  0  0  0  0  0  0  # atno 17395 bound_to 11000

$$$$
