AV-unprocessed.smi:67|AV-procd|sdf|637|dock7
  -GOLD-   2262016533D 1   1.00000     0.00000
 Structure written by MMmdl.
 48 50  0  0  0  0  0  0  0  0  2 V2000
  145.6522  139.2051  153.5811 O   0  0  0  0  0  0  0  0  0  0  0  0
  146.6750  139.9362  154.2337 C   0  0  1  0  0  0  0  0  0  0  0  0
  147.7920  138.9477  154.6666 C   0  0  0  0  0  0  0  0  0  0  0  0
  149.1613  139.5335  154.7479 N   0  3  2  0  0  0  0  0  0  0  0  0
  150.1791  138.4881  155.0375 C   0  0  0  0  0  0  0  0  0  0  0  0
  151.6079  139.0539  154.9976 C   0  0  0  0  0  0  0  0  0  0  0  0
  151.7729  140.2296  155.9783 C   0  0  2  0  0  0  0  0  0  0  0  0
  151.5893  139.8105  157.3291 O   0  0  0  0  0  0  0  0  0  0  0  0
  152.1142  140.5579  158.3633 C   0  0  0  0  0  0  0  0  0  0  0  0
  153.0046  140.0619  159.3483 C   0  0  0  0  0  0  0  0  0  0  0  0
  153.4892  140.9111  160.3613 C   0  0  0  0  0  0  0  0  0  0  0  0
  153.0927  142.2602  160.4050 C   0  0  0  0  0  0  0  0  0  0  0  0
  152.2046  142.7693  159.4349 C   0  0  0  0  0  0  0  0  0  0  0  0
  151.7814  144.2302  159.4712 C   0  0  0  0  0  0  0  0  0  0  0  0
  151.9475  144.7450  160.6903 F   0  0  0  0  0  0  0  0  0  0  0  0
  152.5002  144.9538  158.6121 F   0  0  0  0  0  0  0  0  0  0  0  0
  150.4945  144.3214  159.1384 F   0  0  0  0  0  0  0  0  0  0  0  0
  151.7287  141.9132  158.4184 C   0  0  0  0  0  0  0  0  0  0  0  0
  150.7008  141.2838  155.6708 C   0  0  0  0  0  0  0  0  0  0  0  0
  149.2824  140.6860  155.6811 C   0  0  0  0  0  0  0  0  0  0  0  0
  147.1674  141.1202  153.3707 C   0  0  0  0  0  0  0  0  0  0  0  0
  146.7003  142.3790  154.0999 C   0  0  0  0  0  0  0  0  0  0  0  0
  146.5801  141.9749  155.4875 N   0  0  0  0  0  0  0  0  0  0  0  0
  146.0355  140.6288  155.4569 C   0  0  0  0  0  0  0  0  0  0  0  0
  144.9348  139.7907  153.3925 H   0  0  0  0  0  0  0  0  0  0  0  0
  147.5361  138.4555  155.6061 H   0  0  0  0  0  0  0  0  0  0  0  0
  147.8264  138.1533  153.9196 H   0  0  0  0  0  0  0  0  0  0  0  0
  149.9777  138.0451  156.0142 H   0  0  0  0  0  0  0  0  0  0  0  0
  150.1015  137.6834  154.3053 H   0  0  0  0  0  0  0  0  0  0  0  0
  152.3220  138.2599  155.2137 H   0  0  0  0  0  0  0  0  0  0  0  0
  151.8326  139.3934  153.9857 H   0  0  0  0  0  0  0  0  0  0  0  0
  152.7457  140.7058  155.8549 H   0  0  0  0  0  0  0  0  0  0  0  0
  153.3346  139.0349  159.3520 H   0  0  0  0  0  0  0  0  0  0  0  0
  154.1693  140.5264  161.1070 H   0  0  0  0  0  0  0  0  0  0  0  0
  153.4754  142.9026  161.1845 H   0  0  0  0  0  0  0  0  0  0  0  0
  151.0564  142.2975  157.6654 H   0  0  0  0  0  0  0  0  0  0  0  0
  150.7651  142.1005  156.3905 H   0  0  0  0  0  0  0  0  0  0  0  0
  150.8974  141.7236  154.6921 H   0  0  0  0  0  0  0  0  0  0  0  0
  148.5962  141.4783  155.3922 H   0  0  0  0  0  0  0  0  0  0  0  0
  149.0080  140.3731  156.6898 H   0  0  0  0  0  0  0  0  0  0  0  0
  148.2568  141.1396  153.3290 H   0  0  0  0  0  0  0  0  0  0  0  0
  146.8005  141.0878  152.3438 H   0  0  0  0  0  0  0  0  0  0  0  0
  147.3870  143.2168  153.9758 H   0  0  0  0  0  0  0  0  0  0  0  0
  145.7253  142.6852  153.7183 H   0  0  0  0  0  0  0  0  0  0  0  0
  145.9623  142.6026  155.9931 H   0  0  0  0  0  0  0  0  0  0  0  0
  144.9529  140.6917  155.3319 H   0  0  0  0  0  0  0  0  0  0  0  0
  146.2147  140.1037  156.3956 H   0  0  0  0  0  0  0  0  0  0  0  0
  149.3713  139.8855  153.8245 H   0  0  0  0  0  0  0  0  0  0  0  0
  1  2  1  0  0  0  0
  1 25  1  0  0  0  0
  2 24  1  0  0  0  0
  2  3  1  0  0  0  0
  2 21  1  0  0  0  0
  3  4  1  0  0  0  0
  3 26  1  0  0  0  0
  3 27  1  0  0  0  0
  4 20  1  0  0  0  0
  4  5  1  0  0  0  0
  4 48  1  0  0  0  0
  5  6  1  0  0  0  0
  5 28  1  0  0  0  0
  5 29  1  0  0  0  0
  6  7  1  0  0  0  0
  6 30  1  0  0  0  0
  6 31  1  0  0  0  0
  7  8  1  0  0  0  0
  7 19  1  0  0  0  0
  7 32  1  0  0  0  0
  8  9  1  0  0  0  0
  9 18  1  0  0  0  0
  9 10  2  0  0  0  0
 10 11  1  0  0  0  0
 10 33  1  0  0  0  0
 11 12  2  0  0  0  0
 11 34  1  0  0  0  0
 12 13  1  0  0  0  0
 12 35  1  0  0  0  0
 13 14  1  0  0  0  0
 13 18  2  0  0  0  0
 14 15  1  0  0  0  0
 14 16  1  0  0  0  0
 14 17  1  0  0  0  0
 18 36  1  0  0  0  0
 19 20  1  0  0  0  0
 19 37  1  0  0  0  0
 19 38  1  0  0  0  0
 20 39  1  0  0  0  0
 20 40  1  0  0  0  0
 21 22  1  0  0  0  0
 21 41  1  0  0  0  0
 21 42  1  0  0  0  0
 22 23  1  0  0  0  0
 22 43  1  0  0  0  0
 22 44  1  0  0  0  0
 23 24  1  0  0  0  0
 23 45  1  0  0  0  0
 24 46  1  0  0  0  0
 24 47  1  0  0  0  0
M  CHG  1   4   1
M  END
> <s_m_source_file>
AV-unprocessed.smi

> <i_m_source_file_index>
67

> <i_lp_mmshare_version>
43012

> <i_f3d_flags>
0

> <s_epik_input>
W0NIMl0xW05IXVtDSDJdW0NIMl1bQ0BAXTEoW09IXSlbQ0gyXU4yW0NIMl1bQ0gyXVtDSF0oW0NIMl1bQ0gyXTIpT2MzW2NIXVtjSF1bY0hdYyhDKEYpKEYpRilbY0hdMw==

> <s_epik_cmdline>
J2VwaWtfcHl0aG9uJywgJy1waCcsICc3LjAnLCAnLXRuJywgJzgnLCAnLW1hJywgJzIwMCcsICctbWV0YWxfYmluZGluZycsICctaW1hZScsICc8aW5maWxlLm1hZT4nLCAnLW9tYWUnLCAnPG91dGZpbGUubWFlPic=

> <r_epik_Ionization_Penalty>
2.37709

> <r_epik_Ionization_Penalty_Charging>
0.0305656

> <r_epik_Ionization_Penalty_Neutral>
2.34653

> <r_epik_State_Penalty>
2.56959

> <r_epik_Charging_Adjusted_Penalty>
2.60016

> <i_epik_Tot_Q>
1

> <i_epik_Tot_abs_Q>
1

> <r_epik_Metal_State_Penalty>
2.56925

> <b_epik_Metal_Only>
0

> <s_lp_Force_Field>
OPLS_2005

> <r_lp_Energy>
51.6978

> <b_lp_Chiralities_Consistent>
1

> <s_lp_Variant>
AV-unprocessed.smi:67-9

> <Gold.Version>
5.8.1

> <Gold.Id.Protein>
6NUR|6NUR_protein|mol2

> <Gold.PLP.Fitness>
54.3606

> <Gold.PLP.PLP>
-53.0824

> <Gold.PLP.part.hbond>
-1.0000

> <Gold.PLP.part.metal>
0.0000

> <Gold.PLP.part.buried>
-7.4570

> <Gold.PLP.part.nonpolar>
-45.0467

> <Gold.PLP.part.repulsive>
0.0630

> <Gold.PLP.ligand.clash>
0.0000

> <Gold.PLP.ligand.torsion>
1.7350

> <Gold.PLP.Chemscore.Hbond>
1.0000

> <Gold.PLP.Chemscore.CHOScore>
0.0000

> <Gold.PLP.Chemscore.Metal>
0.0000

> <Gold.Chemscore.Hbonds>
donor molecule, donor type, donor heavy atom, donor atom, acceptor molecule, acceptor atom, score
      L1  H     1    25       P1 10175  1.00

> <Gold.PLP.Chemscore.Internal.Correction>
1.7482

> <Gold.Rescore>
     Score         DG    S(hbond)    S(metal)    S(lipo)     H(rot)  DE(clash)    DE(int)     intcor
     15.60     -17.46       1.00        0.00     121.40       2.17       0.00       1.85       ----

> <Gold.Chemscore.Fitness>
15.6024

> <Gold.Chemscore.DG>
-17.4591

> <Gold.Chemscore.ZeroCoef>
-5.4800

> <Gold.Chemscore.Hbond>
0.9997

> <Gold.Chemscore.Metal>
0.0000

> <Gold.Chemscore.Lipo>
121.4026

> <Gold.Chemscore.Internal_Hbond>
0.0000

> <Gold.Chemscore.DEClash>
0.0048

> <Gold.Chemscore.DEInternal>
1.8519

> <Gold.Chemscore.Rot>
2.1734

> <Gold.Chemscore.Internal.Correction>
   9.000000E+99

> <Gold.Chemscore.Hbonds>
donor molecule, donor type, donor heavy atom, donor atom, acceptor molecule, acceptor atom, score
      L1  H     1    25       P1 10175  0.99

> <Gold.Chemscore.Hbond.Weighted>
-3.3390

> <Gold.Chemscore.Metal.Weighted>
-0.0000

> <Gold.Chemscore.Lipo.Weighted>
-14.2041

> <Gold.Chemscore.Internal_Hbond.Weighted>
0.0000

> <Gold.Chemscore.DEClash.Weighted>
0.0048

> <Gold.Chemscore.DEInternal.Weighted>
1.8519

> <Gold.Chemscore.Rot.Weighted>
5.5640

> <Gold.Chemscore.Internal.Correction.Weighted>
   9.000000E+99

> <Gold.Protein.RotatedTorsions>
[ 6907 6896 6895 6894 ] final  -30.54 input  -60.11 | X-H torsion
[ 7974 7965 7964 7962 ] final  -71.75 input  175.53 | X-H torsion
[ 8008 7997 7996 7995 ] final  -47.71 input   59.86 | X-H torsion
[ 10167 10162 10161 10158 ] final   37.15 input  -65.29 | X-H torsion
[ 10718 10713 10712 10709 ] final   70.60 input   66.30 | X-H torsion
[ 10763 10752 10751 10750 ] final  -69.51 input  -60.55 | X-H torsion
[ 11005 11000 10999 10996 ] final -179.48 input  -57.11 | X-H torsion

> <Gold.Protein.ActiveResidues>
 VAL166  LYS551  ARG553  GLY616  TRP617  ASP618  TYR619  PRO620  LYS621  CYS622 
 ASP623  PHE694  ASN695  SER759  ASP760  ASP761  ALA762  ILE779  LEU786  VAL792 
 PHE793  MET794  SER795  GLU796  ALA797  LYS798  CYS799  TRP800  GLU811  SER814 

> <Gold.Protein.RotatedAtoms>
  151.1042  134.9990  159.8462 H   0  0  0  0  0  0  0  0  0  0  0  0  # atno 6907 bound_to 6896
  152.5439  134.1913  159.8685 H   0  0  0  0  0  0  0  0  0  0  0  0  # atno 6908 bound_to 6896
  151.1959  133.4595  159.2629 H   0  0  0  0  0  0  0  0  0  0  0  0  # atno 6909 bound_to 6896
  145.6740  140.9211  143.0867 H   0  0  0  0  0  0  0  0  0  0  0  0  # atno 7974 bound_to 7965
  154.4020  140.1339  156.4220 H   0  0  0  0  0  0  0  0  0  0  0  0  # atno 8008 bound_to 7997
  155.7633  140.3485  155.5189 H   0  0  0  0  0  0  0  0  0  0  0  0  # atno 8009 bound_to 7997
  155.8837  140.0991  157.1457 H   0  0  0  0  0  0  0  0  0  0  0  0  # atno 8010 bound_to 7997
  140.4060  144.1658  150.6136 H   0  0  0  0  0  0  0  0  0  0  0  0  # atno 10167 bound_to 10162
  157.6408  130.9486  150.0674 H   0  0  0  0  0  0  0  0  0  0  0  0  # atno 10718 bound_to 10713
  154.4045  135.6023  153.5916 H   0  0  0  0  0  0  0  0  0  0  0  0  # atno 10763 bound_to 10752
  152.9789  135.5914  154.4144 H   0  0  0  0  0  0  0  0  0  0  0  0  # atno 10764 bound_to 10752
  154.3948  135.2842  155.2111 H   0  0  0  0  0  0  0  0  0  0  0  0  # atno 10765 bound_to 10752
  140.4182  134.6630  157.4650 H   0  0  0  0  0  0  0  0  0  0  0  0  # atno 11005 bound_to 11000
  144.7047  139.8610  143.7433 LP  0  0  0  0  0  0  0  0  0  0  0  0  # atno 17320 bound_to 7965
  146.1021  139.4017  143.0340 LP  0  0  0  0  0  0  0  0  0  0  0  0  # atno 17321 bound_to 7965
  140.4689  143.2420  151.9116 LP  0  0  0  0  0  0  0  0  0  0  0  0  # atno 17342 bound_to 10162
  139.4783  144.5390  151.8556 LP  0  0  0  0  0  0  0  0  0  0  0  0  # atno 17343 bound_to 10162
  156.1688  130.3646  149.9194 LP  0  0  0  0  0  0  0  0  0  0  0  0  # atno 17370 bound_to 10713
  156.7175  130.8994  151.3615 LP  0  0  0  0  0  0  0  0  0  0  0  0  # atno 17371 bound_to 10713
  140.0219  134.6534  155.9227 LP  0  0  0  0  0  0  0  0  0  0  0  0  # atno 17394 bound_to 11000
  141.1795  133.6544  156.4961 LP  0  0  0  0  0  0  0  0  0  0  0  0  # atno 17395 bound_to 11000

$$$$
