AV-unprocessed.smi:2855|AV-procd|sdf|10978|dock7
  -GOLD-   2272015433D 1   1.00000     0.00000
 Structure written by MMmdl.
 47 48  0  0  0  0  0  0  0  0  1 V2000
  152.2318  139.6048  154.9636 C   0  0  0  0  0  0  0  0  0  0  0  0
  150.8101  139.3041  155.4591 C   0  0  1  0  0  0  0  0  0  0  0  0
  150.1971  140.5191  156.1849 C   0  0  0  0  0  0  0  0  0  0  0  0
  148.7434  140.2521  156.6193 C   0  0  0  0  0  0  0  0  0  0  0  0
  147.8373  139.8668  155.4224 C   0  0  1  0  0  0  0  0  0  0  0  0
  147.5774  141.0592  154.4346 C   0  0  0  0  0  0  0  0  0  0  0  0
  148.8802  141.6020  153.8128 C   0  0  0  0  0  0  0  0  0  0  0  0
  146.8224  142.2460  155.0659 C   0  0  0  0  0  0  0  0  0  0  0  0
  148.4635  138.5749  154.8122 C   0  0  1  0  0  0  0  0  0  0  0  0
  147.6541  137.9328  153.7809 N   0  0  0  0  0  0  0  0  0  0  0  0
  146.3359  137.6930  153.8603 C   0  0  0  0  0  0  0  0  0  0  0  0
  145.6565  137.9840  154.8460 O   0  0  0  0  0  0  0  0  0  0  0  0
  145.7012  137.0426  152.6224 C   0  0  0  0  0  0  0  0  0  0  0  0
  144.4145  136.3888  152.9030 N   0  0  0  0  0  0  0  0  0  0  0  0
  143.2243  137.0544  152.6452 C   0  0  0  0  0  0  0  0  0  0  0  0
  142.0038  136.5244  152.8966 C   0  0  0  0  0  0  0  0  0  0  0  0
  141.8825  135.1881  153.4693 C   0  0  0  0  0  0  0  0  0  0  0  0
  140.8235  134.6229  153.7330 O   0  0  0  0  0  0  0  0  0  0  0  0
  143.1018  134.5516  153.7156 N   0  0  0  0  0  0  0  0  0  0  0  0
  144.3631  135.0923  153.4602 C   0  0  0  0  0  0  0  0  0  0  0  0
  145.3769  134.4459  153.7215 O   0  0  0  0  0  0  0  0  0  0  0  0
  149.8988  138.8248  154.3107 C   0  0  0  0  0  0  0  0  0  0  0  0
  143.0680  133.6249  154.1151 H   0  0  0  0  0  0  0  0  0  0  0  0
  152.2347  140.4202  154.2396 H   0  0  0  0  0  0  0  0  0  0  0  0
  152.6737  138.7313  154.4837 H   0  0  0  0  0  0  0  0  0  0  0  0
  152.8824  139.8916  155.7905 H   0  0  0  0  0  0  0  0  0  0  0  0
  150.8823  138.4909  156.1828 H   0  0  0  0  0  0  0  0  0  0  0  0
  150.7973  140.7624  157.0623 H   0  0  0  0  0  0  0  0  0  0  0  0
  150.2364  141.3980  155.5412 H   0  0  0  0  0  0  0  0  0  0  0  0
  148.7416  139.4359  157.3431 H   0  0  0  0  0  0  0  0  0  0  0  0
  148.3479  141.1041  157.1697 H   0  0  0  0  0  0  0  0  0  0  0  0
  146.8688  139.5964  155.8454 H   0  0  0  0  0  0  0  0  0  0  0  0
  146.9659  140.7055  153.6053 H   0  0  0  0  0  0  0  0  0  0  0  0
  149.6024  141.8781  154.5817 H   0  0  0  0  0  0  0  0  0  0  0  0
  148.6916  142.4872  153.2048 H   0  0  0  0  0  0  0  0  0  0  0  0
  149.3495  140.8771  153.1488 H   0  0  0  0  0  0  0  0  0  0  0  0
  147.2752  142.5517  156.0096 H   0  0  0  0  0  0  0  0  0  0  0  0
  145.7744  142.0134  155.2453 H   0  0  0  0  0  0  0  0  0  0  0  0
  146.8222  143.1142  154.4064 H   0  0  0  0  0  0  0  0  0  0  0  0
  148.5453  137.8385  155.6147 H   0  0  0  0  0  0  0  0  0  0  0  0
  148.1322  137.6619  152.9338 H   0  0  0  0  0  0  0  0  0  0  0  0
  145.5645  137.8132  151.8619 H   0  0  0  0  0  0  0  0  0  0  0  0
  146.4091  136.3342  152.1878 H   0  0  0  0  0  0  0  0  0  0  0  0
  143.2666  138.0496  152.2260 H   0  0  0  0  0  0  0  0  0  0  0  0
  141.1123  137.0932  152.6751 H   0  0  0  0  0  0  0  0  0  0  0  0
  149.8960  139.5520  153.4988 H   0  0  0  0  0  0  0  0  0  0  0  0
  150.3057  137.9042  153.8906 H   0  0  0  0  0  0  0  0  0  0  0  0
  1  2  1  0  0  0  0
  1 24  1  0  0  0  0
  1 25  1  0  0  0  0
  1 26  1  0  0  0  0
  2 22  1  0  0  0  0
  2  3  1  0  0  0  0
  2 27  1  0  0  0  0
  3  4  1  0  0  0  0
  3 28  1  0  0  0  0
  3 29  1  0  0  0  0
  4  5  1  0  0  0  0
  4 30  1  0  0  0  0
  4 31  1  0  0  0  0
  5  6  1  0  0  0  0
  5  9  1  0  0  0  0
  5 32  1  0  0  0  0
  6  7  1  0  0  0  0
  6  8  1  0  0  0  0
  6 33  1  0  0  0  0
  7 34  1  0  0  0  0
  7 35  1  0  0  0  0
  7 36  1  0  0  0  0
  8 37  1  0  0  0  0
  8 38  1  0  0  0  0
  8 39  1  0  0  0  0
  9 10  1  0  0  0  0
  9 22  1  0  0  0  0
  9 40  1  0  0  0  0
 10 11  1  0  0  0  0
 10 41  1  0  0  0  0
 11 12  2  0  0  0  0
 11 13  1  0  0  0  0
 13 14  1  0  0  0  0
 13 42  1  0  0  0  0
 13 43  1  0  0  0  0
 14 20  1  0  0  0  0
 14 15  1  0  0  0  0
 15 16  2  0  0  0  0
 15 44  1  0  0  0  0
 16 17  1  0  0  0  0
 16 45  1  0  0  0  0
 17 18  2  0  0  0  0
 17 19  1  0  0  0  0
 19 23  1  0  0  0  0
 19 20  1  0  0  0  0
 20 21  2  0  0  0  0
 22 46  1  0  0  0  0
 22 47  1  0  0  0  0
M  END
> <s_m_source_file>
AV-unprocessed.smi

> <i_m_source_file_index>
2855

> <i_lp_mmshare_version>
43012

> <i_f3d_flags>
0

> <s_epik_input>
W0NIM11bQ0BASF0xW0NIMl1bQ0gyXVtDQEBIXShbQ0hdKFtDSDNdKVtDSDNdKVtDQEhdKFtDSDJdMSlbTkhdQyg9TylbQ0gyXW4yW2NIXVtjSF1jKD1PKVtuSF1jMj1P

> <s_epik_cmdline>
J2VwaWtfcHl0aG9uJywgJy1waCcsICc3LjAnLCAnLXRuJywgJzgnLCAnLW1hJywgJzIwMCcsICctbWV0YWxfYmluZGluZycsICctaW1hZScsICc8aW5maWxlLm1hZT4nLCAnLW9tYWUnLCAnPG91dGZpbGUubWFlPic=

> <r_lp_tautomer_probability>
0.999537

> <r_epik_Ionization_Penalty>
0.00306256

> <r_epik_Ionization_Penalty_Charging>
0.00306254

> <r_epik_Ionization_Penalty_Neutral>
2.0223e-08

> <r_epik_State_Penalty>
0.0021533

> <r_epik_Charging_Adjusted_Penalty>
0.00521583

> <i_epik_Tot_Q>
0

> <i_epik_Tot_abs_Q>
0

> <r_epik_Metal_State_Penalty>
0.362116

> <b_epik_Metal_Only>
0

> <s_lp_Force_Field>
OPLS_2005

> <r_lp_Energy>
18.9466

> <b_lp_Chiralities_Consistent>
1

> <s_lp_Variant>
AV-unprocessed.smi:2855-2

> <Gold.Version>
5.8.1

> <Gold.Id.Protein>
6NUR|6NUR_protein|mol2

> <Gold.PLP.Fitness>
39.1568

> <Gold.PLP.PLP>
-28.2045

> <Gold.PLP.part.hbond>
-4.0000

> <Gold.PLP.part.metal>
0.0000

> <Gold.PLP.part.buried>
0.3535

> <Gold.PLP.part.nonpolar>
-24.2749

> <Gold.PLP.part.repulsive>
0.3627

> <Gold.PLP.ligand.clash>
2.5954

> <Gold.PLP.ligand.torsion>
0.7158

> <Gold.PLP.Chemscore.Hbond>
2.9913

> <Gold.PLP.Chemscore.CHOScore>
1.9823

> <Gold.PLP.Chemscore.Metal>
0.0000

> <Gold.Chemscore.Hbonds>
donor molecule, donor type, donor heavy atom, donor atom, acceptor molecule, acceptor atom, score
      L1  H    10    41       P1  7948  0.99
      L1  H    19    23       P1 10957  1.00
      P1  H 11000 11005       L1    18  0.91
      L1  C    15    44       P1 10171  0.91
      L1  C    15    44       P1 10175  1.00

> <Gold.PLP.Chemscore.Internal.Correction>
0.0588

> <Gold.Rescore>
     Score         DG    S(hbond)    S(metal)    S(lipo)     H(rot)  DE(clash)    DE(int)     intcor
     11.47     -18.85       2.94        0.00      70.95       1.85       3.23       4.15       ----

> <Gold.Chemscore.Fitness>
11.4701

> <Gold.Chemscore.DG>
-18.8512

> <Gold.Chemscore.ZeroCoef>
-5.4800

> <Gold.Chemscore.Hbond>
2.9390

> <Gold.Chemscore.Metal>
0.0000

> <Gold.Chemscore.Lipo>
70.9491

> <Gold.Chemscore.Internal_Hbond>
0.0000

> <Gold.Chemscore.DEClash>
3.2329

> <Gold.Chemscore.DEInternal>
4.1482

> <Gold.Chemscore.Rot>
1.8539

> <Gold.Chemscore.Internal.Correction>
   9.000000E+99

> <Gold.Chemscore.Hbonds>
donor molecule, donor type, donor heavy atom, donor atom, acceptor molecule, acceptor atom, score
      L1  H    10    41       P1  7948  0.92
      L1  H    19    23       P1 10957  0.94
      P1  H 10995 11001       L1    18  0.01
      P1  H 11000 11005       L1    18  0.82

> <Gold.Chemscore.Hbond.Weighted>
-9.8162

> <Gold.Chemscore.Metal.Weighted>
-0.0000

> <Gold.Chemscore.Lipo.Weighted>
-8.3010

> <Gold.Chemscore.Internal_Hbond.Weighted>
0.0000

> <Gold.Chemscore.DEClash.Weighted>
3.2329

> <Gold.Chemscore.DEInternal.Weighted>
4.1482

> <Gold.Chemscore.Rot.Weighted>
4.7460

> <Gold.Chemscore.Internal.Correction.Weighted>
   9.000000E+99

> <Gold.Protein.RotatedTorsions>
[ 6907 6896 6895 6894 ] final   22.83 input  -60.11 | X-H torsion
[ 7974 7965 7964 7962 ] final   27.13 input  175.53 | X-H torsion
[ 8008 7997 7996 7995 ] final  -96.35 input   59.86 | X-H torsion
[ 10167 10162 10161 10158 ] final  -54.66 input  -65.29 | X-H torsion
[ 10718 10713 10712 10709 ] final   -2.82 input   66.30 | X-H torsion
[ 10763 10752 10751 10750 ] final  155.59 input  -60.55 | X-H torsion
[ 11005 11000 10999 10996 ] final   13.90 input  -57.11 | X-H torsion

> <Gold.Protein.ActiveResidues>
 VAL166  LYS551  ARG553  GLY616  TRP617  ASP618  TYR619  PRO620  LYS621  CYS622 
 ASP623  PHE694  ASN695  SER759  ASP760  ASP761  ALA762  ILE779  LEU786  VAL792 
 PHE793  MET794  SER795  GLU796  ALA797  LYS798  CYS799  TRP800  GLU811  SER814 

> <Gold.Protein.RotatedAtoms>
  151.9332  135.0247  160.0530 H   0  0  0  0  0  0  0  0  0  0  0  0  # atno 6907 bound_to 6896
  152.2101  133.4900  159.5113 H   0  0  0  0  0  0  0  0  0  0  0  0  # atno 6908 bound_to 6896
  150.6974  134.1395  159.4142 H   0  0  0  0  0  0  0  0  0  0  0  0  # atno 6909 bound_to 6896
  146.1801  139.7233  142.8907 H   0  0  0  0  0  0  0  0  0  0  0  0  # atno 7974 bound_to 7965
  154.7733  140.0472  157.1069 H   0  0  0  0  0  0  0  0  0  0  0  0  # atno 8008 bound_to 7997
  154.9794  140.3099  155.4933 H   0  0  0  0  0  0  0  0  0  0  0  0  # atno 8009 bound_to 7997
  156.2925  140.2239  156.4892 H   0  0  0  0  0  0  0  0  0  0  0  0  # atno 8010 bound_to 7997
  140.6418  143.2512  151.4968 H   0  0  0  0  0  0  0  0  0  0  0  0  # atno 10167 bound_to 10162
  156.7852  130.5344  149.5744 H   0  0  0  0  0  0  0  0  0  0  0  0  # atno 10718 bound_to 10713
  154.1708  135.2804  155.3081 H   0  0  0  0  0  0  0  0  0  0  0  0  # atno 10763 bound_to 10752
  154.6077  135.5509  153.7443 H   0  0  0  0  0  0  0  0  0  0  0  0  # atno 10764 bound_to 10752
  153.0165  135.6407  154.1848 H   0  0  0  0  0  0  0  0  0  0  0  0  # atno 10765 bound_to 10752
  140.4755  134.0987  155.7741 H   0  0  0  0  0  0  0  0  0  0  0  0  # atno 11005 bound_to 11000
  145.4102  141.0395  143.3021 LP  0  0  0  0  0  0  0  0  0  0  0  0  # atno 17320 bound_to 7965
  144.8300  139.5645  143.6948 LP  0  0  0  0  0  0  0  0  0  0  0  0  # atno 17321 bound_to 7965
  139.5627  144.2116  152.1717 LP  0  0  0  0  0  0  0  0  0  0  0  0  # atno 17342 bound_to 10162
  140.1389  144.5220  150.6756 LP  0  0  0  0  0  0  0  0  0  0  0  0  # atno 17343 bound_to 10162
  156.1193  130.6098  151.0169 LP  0  0  0  0  0  0  0  0  0  0  0  0  # atno 17370 bound_to 10713
  157.6627  131.0878  150.7801 LP  0  0  0  0  0  0  0  0  0  0  0  0  # atno 17371 bound_to 10713
  141.1556  133.8888  157.1985 LP  0  0  0  0  0  0  0  0  0  0  0  0  # atno 17394 bound_to 11000
  139.9858  135.0082  156.9859 LP  0  0  0  0  0  0  0  0  0  0  0  0  # atno 17395 bound_to 11000

$$$$
