AV-unprocessed.smi:210|AV-procd|sdf|1612|dock5
  -GOLD-   2262019533D 1   1.00000     0.00000
 Structure written by MMmdl.
 57 61  0  0  0  0  0  0  0  0  1 V2000
  153.1517  142.1663  162.2105 C   0  0  0  0  0  0  0  0  0  0  0  0
  152.2282  142.4058  161.1630 O   0  0  0  0  0  0  0  0  0  0  0  0
  152.7849  142.1792  159.8778 C   0  0  1  0  0  0  0  0  0  0  0  0
  152.3676  140.8247  159.2994 C   0  0  0  0  0  0  0  0  0  0  0  0
  152.3312  141.5167  157.9265 C   0  0  1  0  0  0  0  0  0  0  0  0
  151.2588  141.0490  157.0424 N   0  0  0  0  0  0  0  0  0  0  0  0
  150.6270  142.0488  156.1891 C   0  0  0  0  0  0  0  0  0  0  0  0
  151.4890  139.9047  156.3528 C   0  0  0  0  0  0  0  0  0  0  0  0
  152.4710  139.8573  155.4127 N   0  0  0  0  0  0  0  0  0  0  0  0
  152.6817  138.7348  154.7188 C   0  0  0  0  0  0  0  0  0  0  0  0
  152.0379  137.5686  154.8018 N   0  0  0  0  0  0  0  0  0  0  0  0
  151.0517  137.6125  155.7434 C   0  0  0  0  0  0  0  0  0  0  0  0
  150.7092  138.7329  156.5509 C   0  0  0  0  0  0  0  0  0  0  0  0
  149.6444  138.4118  157.3837 N   0  0  0  0  0  0  0  0  0  0  0  0
  149.3672  137.1731  157.0789 C   0  0  0  0  0  0  0  0  0  0  0  0
  150.1803  136.6063  156.1227 N   0  0  0  0  0  0  0  0  0  0  0  0
  150.0743  135.2859  155.5742 C   0  0  0  0  0  0  0  0  0  0  0  0
  148.9139  134.3563  155.9467 C   0  0  0  0  0  0  0  0  0  0  0  0
  149.8602  133.1415  155.8041 C   0  0  0  0  0  0  0  0  0  0  0  0
  149.6926  132.0097  156.8374 C   0  0  0  0  0  0  0  0  0  0  0  0
  149.9643  132.4342  158.1581 O   0  0  0  0  0  0  0  0  0  0  0  0
  149.8408  132.4894  154.4082 C   0  0  0  0  0  0  0  0  0  0  0  0
  148.6026  131.8607  154.1453 O   0  0  0  0  0  0  0  0  0  0  0  0
  150.9993  134.1594  156.0445 C   0  0  0  0  0  0  0  0  0  0  0  0
  152.0344  142.8286  158.6927 C   0  0  0  0  0  0  0  0  0  0  0  0
  152.4684  144.1947  158.1473 C   0  0  0  0  0  0  0  0  0  0  0  0
  151.1532  144.7967  158.6547 C   0  0  0  0  0  0  0  0  0  0  0  0
  150.6060  143.3831  158.8759 C   0  0  0  0  0  0  0  0  0  0  0  0
  152.6839  142.3893  163.1691 H   0  0  0  0  0  0  0  0  0  0  0  0
  154.0387  142.7916  162.1155 H   0  0  0  0  0  0  0  0  0  0  0  0
  153.4643  141.1215  162.2244 H   0  0  0  0  0  0  0  0  0  0  0  0
  153.8684  142.3129  159.8316 H   0  0  0  0  0  0  0  0  0  0  0  0
  153.1158  140.0379  159.3965 H   0  0  0  0  0  0  0  0  0  0  0  0
  151.3867  140.4959  159.6492 H   0  0  0  0  0  0  0  0  0  0  0  0
  153.3159  141.5376  157.4553 H   0  0  0  0  0  0  0  0  0  0  0  0
  149.7272  141.6564  155.7142 H   0  0  0  0  0  0  0  0  0  0  0  0
  151.3141  142.3713  155.4058 H   0  0  0  0  0  0  0  0  0  0  0  0
  150.3346  142.9274  156.7617 H   0  0  0  0  0  0  0  0  0  0  0  0
  153.4799  138.7772  153.9925 H   0  0  0  0  0  0  0  0  0  0  0  0
  148.5584  136.6351  157.5520 H   0  0  0  0  0  0  0  0  0  0  0  0
  150.1389  135.4074  154.4917 H   0  0  0  0  0  0  0  0  0  0  0  0
  148.5618  134.5222  156.9661 H   0  0  0  0  0  0  0  0  0  0  0  0
  148.0806  134.3730  155.2433 H   0  0  0  0  0  0  0  0  0  0  0  0
  148.6770  131.6129  156.8166 H   0  0  0  0  0  0  0  0  0  0  0  0
  150.3604  131.1762  156.6184 H   0  0  0  0  0  0  0  0  0  0  0  0
  149.9006  131.6866  158.7328 H   0  0  0  0  0  0  0  0  0  0  0  0
  150.0318  133.2272  153.6281 H   0  0  0  0  0  0  0  0  0  0  0  0
  150.6227  131.7356  154.3110 H   0  0  0  0  0  0  0  0  0  0  0  0
  148.0238  132.0184  154.8756 H   0  0  0  0  0  0  0  0  0  0  0  0
  151.8847  134.0190  155.4238 H   0  0  0  0  0  0  0  0  0  0  0  0
  151.2775  134.2653  157.0946 H   0  0  0  0  0  0  0  0  0  0  0  0
  153.3598  144.6054  158.6226 H   0  0  0  0  0  0  0  0  0  0  0  0
  152.5512  144.2143  157.0603 H   0  0  0  0  0  0  0  0  0  0  0  0
  151.2697  145.3570  159.5827 H   0  0  0  0  0  0  0  0  0  0  0  0
  150.6089  145.3729  157.9058 H   0  0  0  0  0  0  0  0  0  0  0  0
  149.9050  143.0895  158.0952 H   0  0  0  0  0  0  0  0  0  0  0  0
  150.1742  143.2257  159.8643 H   0  0  0  0  0  0  0  0  0  0  0  0
  1  2  1  0  0  0  0
  1 29  1  0  0  0  0
  1 30  1  0  0  0  0
  1 31  1  0  0  0  0
  2  3  1  0  0  0  0
  3 25  1  0  0  0  0
  3  4  1  0  0  0  0
  3 32  1  0  0  0  0
  4  5  1  0  0  0  0
  4 33  1  0  0  0  0
  4 34  1  0  0  0  0
  5  6  1  0  0  0  0
  5 25  1  0  0  0  0
  5 35  1  0  0  0  0
  6  7  1  0  0  0  0
  6  8  1  0  0  0  0
  7 36  1  0  0  0  0
  7 37  1  0  0  0  0
  7 38  1  0  0  0  0
  8 13  1  0  0  0  0
  8  9  2  0  0  0  0
  9 10  1  0  0  0  0
 10 11  2  0  0  0  0
 10 39  1  0  0  0  0
 11 12  1  0  0  0  0
 12 16  1  0  0  0  0
 12 13  2  0  0  0  0
 13 14  1  0  0  0  0
 14 15  2  0  0  0  0
 15 16  1  0  0  0  0
 15 40  1  0  0  0  0
 16 17  1  0  0  0  0
 17 24  1  0  0  0  0
 17 18  1  0  0  0  0
 17 41  1  0  0  0  0
 18 19  1  0  0  0  0
 18 42  1  0  0  0  0
 18 43  1  0  0  0  0
 19 20  1  0  0  0  0
 19 22  1  0  0  0  0
 19 24  1  0  0  0  0
 20 21  1  0  0  0  0
 20 44  1  0  0  0  0
 20 45  1  0  0  0  0
 21 46  1  0  0  0  0
 22 23  1  0  0  0  0
 22 47  1  0  0  0  0
 22 48  1  0  0  0  0
 23 49  1  0  0  0  0
 24 50  1  0  0  0  0
 24 51  1  0  0  0  0
 25 28  1  0  0  0  0
 25 26  1  0  0  0  0
 26 27  1  0  0  0  0
 26 52  1  0  0  0  0
 26 53  1  0  0  0  0
 27 28  1  0  0  0  0
 27 54  1  0  0  0  0
 27 55  1  0  0  0  0
 28 56  1  0  0  0  0
 28 57  1  0  0  0  0
M  END
> <s_m_source_file>
AV-unprocessed.smi

> <i_m_source_file_index>
210

> <i_lp_mmshare_version>
43012

> <i_f3d_flags>
0

> <s_epik_input>
W0NIMl0xW0NIMl1bQ0gyXUMxMltDQEhdKE9bQ0gzXSlbQ0gyXVtDQEhdMk4oW0NIM10pYyhuW2NIXW4zKWMoYzM0KW5bY0hdbjRbQ0hdKFtDSDJdNSlbQ0gyXUM1KFtDSDJdW09IXSlbQ0gyXVtPSF0=

> <s_epik_cmdline>
J2VwaWtfcHl0aG9uJywgJy1waCcsICc3LjAnLCAnLXRuJywgJzgnLCAnLW1hJywgJzIwMCcsICctbWV0YWxfYmluZGluZycsICctaW1hZScsICc8aW5maWxlLm1hZT4nLCAnLW9tYWUnLCAnPG91dGZpbGUubWFlPic=

> <r_lp_tautomer_probability>
1

> <r_epik_Ionization_Penalty>
0.00313676

> <r_epik_Ionization_Penalty_Charging>
0

> <r_epik_Ionization_Penalty_Neutral>
0.00313676

> <r_epik_State_Penalty>
0.00199132

> <r_epik_Charging_Adjusted_Penalty>
0.00199132

> <i_epik_Tot_Q>
0

> <i_epik_Tot_abs_Q>
0

> <r_epik_Metal_State_Penalty>
-0

> <b_epik_Metal_Only>
0

> <s_lp_Force_Field>
OPLS_2005

> <r_lp_Energy>
61.2051

> <b_lp_Chiralities_Consistent>
1

> <s_lp_Variant>
AV-unprocessed.smi:210-2

> <Gold.Version>
5.8.1

> <Gold.Id.Protein>
6NUR|6NUR_protein|mol2

> <Gold.PLP.Fitness>
52.7556

> <Gold.PLP.PLP>
-47.7424

> <Gold.PLP.part.hbond>
-4.2133

> <Gold.PLP.part.metal>
0.0000

> <Gold.PLP.part.buried>
-8.3852

> <Gold.PLP.part.nonpolar>
-34.6850

> <Gold.PLP.part.repulsive>
0.1694

> <Gold.PLP.ligand.clash>
0.0019

> <Gold.PLP.ligand.torsion>
1.5418

> <Gold.PLP.Chemscore.Hbond>
2.2928

> <Gold.PLP.Chemscore.CHOScore>
0.0000

> <Gold.PLP.Chemscore.Metal>
0.0000

> <Gold.Chemscore.Hbonds>
donor molecule, donor type, donor heavy atom, donor atom, acceptor molecule, acceptor atom, score
      P1  H  6896  6907       L1    21  1.00
      P1  H  7989  7998       L1     9  0.11
      P1  H  7997  8008       L1     9  0.96
      P1  H 10752 10765       L1    11  0.18

> <Gold.PLP.Chemscore.Internal.Correction>
1.2204

> <Gold.Rescore>
     Score         DG    S(hbond)    S(metal)    S(lipo)     H(rot)  DE(clash)    DE(int)     intcor
     12.96     -15.60       1.62        0.00     118.38       3.57       0.25       2.40       ----

> <Gold.Chemscore.Fitness>
12.9555

> <Gold.Chemscore.DG>
-15.6022

> <Gold.Chemscore.ZeroCoef>
-5.4800

> <Gold.Chemscore.Hbond>
1.6211

> <Gold.Chemscore.Metal>
0.0000

> <Gold.Chemscore.Lipo>
118.3755

> <Gold.Chemscore.Internal_Hbond>
0.0000

> <Gold.Chemscore.DEClash>
0.2454

> <Gold.Chemscore.DEInternal>
2.4013

> <Gold.Chemscore.Rot>
3.5712

> <Gold.Chemscore.Internal.Correction>
   9.000000E+99

> <Gold.Chemscore.Hbonds>
donor molecule, donor type, donor heavy atom, donor atom, acceptor molecule, acceptor atom, score
      P1  H  6896  6907       L1    21  0.30
      P1  H  7997  8008       L1     9  0.21
      P1  H 10752 10765       L1    11  0.17

> <Gold.Chemscore.Hbond.Weighted>
-5.4146

> <Gold.Chemscore.Metal.Weighted>
-0.0000

> <Gold.Chemscore.Lipo.Weighted>
-13.8499

> <Gold.Chemscore.Internal_Hbond.Weighted>
0.0000

> <Gold.Chemscore.DEClash.Weighted>
0.2454

> <Gold.Chemscore.DEInternal.Weighted>
2.4013

> <Gold.Chemscore.Rot.Weighted>
9.1423

> <Gold.Chemscore.Internal.Correction.Weighted>
   9.000000E+99

> <Gold.Protein.RotatedTorsions>
[ 6907 6896 6895 6894 ] final -129.13 input  -60.11 | X-H torsion
[ 7974 7965 7964 7962 ] final -147.58 input  175.53 | X-H torsion
[ 8008 7997 7996 7995 ] final  -32.36 input   59.86 | X-H torsion
[ 10167 10162 10161 10158 ] final  149.16 input  -65.29 | X-H torsion
[ 10718 10713 10712 10709 ] final  -87.86 input   66.30 | X-H torsion
[ 10763 10752 10751 10750 ] final  136.96 input  -60.55 | X-H torsion
[ 11005 11000 10999 10996 ] final  -71.70 input  -57.11 | X-H torsion

> <Gold.Protein.ActiveResidues>
 VAL166  LYS551  ARG553  GLY616  TRP617  ASP618  TYR619  PRO620  LYS621  CYS622 
 ASP623  PHE694  ASN695  SER759  ASP760  ASP761  ALA762  ILE779  LEU786  VAL792 
 PHE793  MET794  SER795  GLU796  ALA797  LYS798  CYS799  TRP800  GLU811  SER814 

> <Gold.Protein.RotatedAtoms>
  150.9253  133.6831  159.2822 H   0  0  0  0  0  0  0  0  0  0  0  0  # atno 6907 bound_to 6896
  151.4271  135.1004  159.9641 H   0  0  0  0  0  0  0  0  0  0  0  0  # atno 6908 bound_to 6896
  152.5000  133.8692  159.7344 H   0  0  0  0  0  0  0  0  0  0  0  0  # atno 6909 bound_to 6896
  144.8084  140.5308  143.5659 H   0  0  0  0  0  0  0  0  0  0  0  0  # atno 7974 bound_to 7965
  154.4182  140.1739  156.1715 H   0  0  0  0  0  0  0  0  0  0  0  0  # atno 8008 bound_to 7997
  155.9756  140.3382  155.6592 H   0  0  0  0  0  0  0  0  0  0  0  0  # atno 8009 bound_to 7997
  155.6568  140.0696  157.2559 H   0  0  0  0  0  0  0  0  0  0  0  0  # atno 8010 bound_to 7997
  139.4865  144.5623  151.7208 H   0  0  0  0  0  0  0  0  0  0  0  0  # atno 10167 bound_to 10162
  155.9984  130.4815  150.4931 H   0  0  0  0  0  0  0  0  0  0  0  0  # atno 10718 bound_to 10713
  153.8652  135.3062  155.3439 H   0  0  0  0  0  0  0  0  0  0  0  0  # atno 10763 bound_to 10752
  154.7831  135.4825  153.9890 H   0  0  0  0  0  0  0  0  0  0  0  0  # atno 10764 bound_to 10752
  153.1438  135.6829  153.9080 H   0  0  0  0  0  0  0  0  0  0  0  0  # atno 10765 bound_to 10752
  141.1596  133.6825  156.6946 H   0  0  0  0  0  0  0  0  0  0  0  0  # atno 11005 bound_to 11000
  145.5383  139.1475  143.3461 LP  0  0  0  0  0  0  0  0  0  0  0  0  # atno 17320 bound_to 7965
  146.2379  140.5523  142.8947 LP  0  0  0  0  0  0  0  0  0  0  0  0  # atno 17321 bound_to 7965
  140.5195  144.0901  150.6018 LP  0  0  0  0  0  0  0  0  0  0  0  0  # atno 17342 bound_to 10162
  140.3854  143.2780  152.0122 LP  0  0  0  0  0  0  0  0  0  0  0  0  # atno 17343 bound_to 10162
  157.2924  131.0629  151.2124 LP  0  0  0  0  0  0  0  0  0  0  0  0  # atno 17370 bound_to 10713
  157.3132  130.6900  149.6227 LP  0  0  0  0  0  0  0  0  0  0  0  0  # atno 17371 bound_to 10713
  140.3005  134.8168  157.4093 LP  0  0  0  0  0  0  0  0  0  0  0  0  # atno 17394 bound_to 11000
  140.1266  134.5149  155.8139 LP  0  0  0  0  0  0  0  0  0  0  0  0  # atno 17395 bound_to 11000

$$$$
