AV-unprocessed.smi:2855|AV-procd|sdf|10992|dock1
  -GOLD-   2272015443D 1   1.00000     0.00000
 Structure written by MMmdl.
 46 47  0  0  0  0  0  0  0  0  2 V2000
  155.0389  140.2927  162.5734 C   0  0  0  0  0  0  0  0  0  0  0  0
  154.0118  141.0456  161.7161 C   0  0  1  0  0  0  0  0  0  0  0  0
  153.4863  142.2980  162.4343 C   0  0  0  0  0  0  0  0  0  0  0  0
  152.4588  143.0563  161.5795 C   0  0  0  0  0  0  0  0  0  0  0  0
  153.0191  143.4592  160.1910 C   0  0  2  0  0  0  0  0  0  0  0  0
  151.9742  144.2531  159.3455 C   0  0  0  0  0  0  0  0  0  0  0  0
  152.5165  144.6809  157.9678 C   0  0  0  0  0  0  0  0  0  0  0  0
  151.4474  145.5011  160.0797 C   0  0  0  0  0  0  0  0  0  0  0  0
  153.5876  142.2036  159.4687 C   0  0  2  0  0  0  0  0  0  0  0  0
  152.4999  141.3294  159.0397 N   0  0  0  0  0  0  0  0  0  0  0  0
  152.6153  140.1102  158.4893 C   0  0  0  0  0  0  0  0  0  0  0  0
  153.6985  139.5537  158.3137 O   0  0  0  0  0  0  0  0  0  0  0  0
  151.3198  139.3976  158.0638 C   0  0  0  0  0  0  0  0  0  0  0  0
  150.6769  139.9730  156.8671 N   0  0  0  0  0  0  0  0  0  0  0  0
  149.4998  140.7186  157.0557 C   0  0  0  0  0  0  0  0  0  0  0  0
  148.8648  141.3155  156.0290 C   0  0  0  0  0  0  0  0  0  0  0  0
  149.4280  141.1730  154.6922 C   0  0  0  0  0  0  0  0  0  0  0  0
  148.8627  141.7127  153.7433 O   0  0  0  0  0  0  0  0  0  0  0  0
  150.5716  140.4390  154.5603 N   0  5  0  0  0  0  0  0  0  0  0  0
  151.2089  139.8406  155.6138 C   0  0  0  0  0  0  0  0  0  0  0  0
  152.2498  139.1979  155.4753 O   0  0  0  0  0  0  0  0  0  0  0  0
  154.5987  141.4374  160.3483 C   0  0  0  0  0  0  0  0  0  0  0  0
  155.9116  140.9117  162.7831 H   0  0  0  0  0  0  0  0  0  0  0  0
  155.3840  139.3901  162.0682 H   0  0  0  0  0  0  0  0  0  0  0  0
  154.6070  139.9907  163.5279 H   0  0  0  0  0  0  0  0  0  0  0  0
  153.1702  140.3716  161.5494 H   0  0  0  0  0  0  0  0  0  0  0  0
  153.0307  142.0176  163.3846 H   0  0  0  0  0  0  0  0  0  0  0  0
  154.3173  142.9624  162.6753 H   0  0  0  0  0  0  0  0  0  0  0  0
  151.5648  142.4432  161.4552 H   0  0  0  0  0  0  0  0  0  0  0  0
  152.1482  143.9358  162.1411 H   0  0  0  0  0  0  0  0  0  0  0  0
  153.8635  144.1275  160.3674 H   0  0  0  0  0  0  0  0  0  0  0  0
  151.1142  143.6071  159.1633 H   0  0  0  0  0  0  0  0  0  0  0  0
  153.4333  145.2630  158.0653 H   0  0  0  0  0  0  0  0  0  0  0  0
  151.7901  145.2932  157.4328 H   0  0  0  0  0  0  0  0  0  0  0  0
  152.7254  143.8238  157.3281 H   0  0  0  0  0  0  0  0  0  0  0  0
  152.2633  146.1602  160.3776 H   0  0  0  0  0  0  0  0  0  0  0  0
  150.8777  145.2434  160.9714 H   0  0  0  0  0  0  0  0  0  0  0  0
  150.7752  146.0762  159.4422 H   0  0  0  0  0  0  0  0  0  0  0  0
  154.1296  142.5316  158.5810 H   0  0  0  0  0  0  0  0  0  0  0  0
  151.5658  141.7014  159.1353 H   0  0  0  0  0  0  0  0  0  0  0  0
  151.5384  138.3402  157.9057 H   0  0  0  0  0  0  0  0  0  0  0  0
  150.6284  139.4213  158.9072 H   0  0  0  0  0  0  0  0  0  0  0  0
  149.1550  140.7827  158.0774 H   0  0  0  0  0  0  0  0  0  0  0  0
  147.9641  141.8891  156.1913 H   0  0  0  0  0  0  0  0  0  0  0  0
  155.4792  142.0629  160.5005 H   0  0  0  0  0  0  0  0  0  0  0  0
  154.9517  140.5481  159.8247 H   0  0  0  0  0  0  0  0  0  0  0  0
  1  2  1  0  0  0  0
  1 23  1  0  0  0  0
  1 24  1  0  0  0  0
  1 25  1  0  0  0  0
  2 22  1  0  0  0  0
  2  3  1  0  0  0  0
  2 26  1  0  0  0  0
  3  4  1  0  0  0  0
  3 27  1  0  0  0  0
  3 28  1  0  0  0  0
  4  5  1  0  0  0  0
  4 29  1  0  0  0  0
  4 30  1  0  0  0  0
  5  6  1  0  0  0  0
  5  9  1  0  0  0  0
  5 31  1  0  0  0  0
  6  7  1  0  0  0  0
  6  8  1  0  0  0  0
  6 32  1  0  0  0  0
  7 33  1  0  0  0  0
  7 34  1  0  0  0  0
  7 35  1  0  0  0  0
  8 36  1  0  0  0  0
  8 37  1  0  0  0  0
  8 38  1  0  0  0  0
  9 10  1  0  0  0  0
  9 22  1  0  0  0  0
  9 39  1  0  0  0  0
 10 11  1  0  0  0  0
 10 40  1  0  0  0  0
 11 12  2  0  0  0  0
 11 13  1  0  0  0  0
 13 14  1  0  0  0  0
 13 41  1  0  0  0  0
 13 42  1  0  0  0  0
 14 20  1  0  0  0  0
 14 15  1  0  0  0  0
 15 16  2  0  0  0  0
 15 43  1  0  0  0  0
 16 17  1  0  0  0  0
 16 44  1  0  0  0  0
 17 18  2  0  0  0  0
 17 19  1  0  0  0  0
 19 20  1  0  0  0  0
 20 21  2  0  0  0  0
 22 45  1  0  0  0  0
 22 46  1  0  0  0  0
M  CHG  1  19  -1
M  END
> <s_m_source_file>
AV-unprocessed.smi

> <i_m_source_file_index>
2855

> <i_lp_mmshare_version>
43012

> <i_f3d_flags>
0

> <s_epik_input>
W0NIM11bQ0BASF0xW0NIMl1bQ0gyXVtDQEBIXShbQ0hdKFtDSDNdKVtDSDNdKVtDQEhdKFtDSDJdMSlbTkhdQyg9TylbQ0gyXW4yW2NIXVtjSF1jKD1PKVtuSF1jMj1P

> <s_epik_cmdline>
J2VwaWtfcHl0aG9uJywgJy1waCcsICc3LjAnLCAnLXRuJywgJzgnLCAnLW1hJywgJzIwMCcsICctbWV0YWxfYmluZGluZycsICctaW1hZScsICc8aW5maWxlLm1hZT4nLCAnLW9tYWUnLCAnPG91dGZpbGUubWFlPic=

> <r_lp_tautomer_probability>
0.999537

> <r_epik_Ionization_Penalty>
3.12102

> <r_epik_Ionization_Penalty_Charging>
2.9581e-08

> <r_epik_Ionization_Penalty_Neutral>
3.12102

> <r_epik_State_Penalty>
3.12011

> <r_epik_Charging_Adjusted_Penalty>
3.12011

> <i_epik_Tot_Q>
-1

> <i_epik_Tot_abs_Q>
1

> <r_epik_Metal_State_Penalty>
0.463583

> <b_epik_Metal_Only>
1

> <s_lp_Force_Field>
OPLS_2005

> <r_lp_Energy>
20.8659

> <b_lp_Chiralities_Consistent>
1

> <s_lp_Variant>
AV-unprocessed.smi:2855-16

> <Gold.Version>
5.8.1

> <Gold.Id.Protein>
6NUR|6NUR_protein|mol2

> <Gold.PLP.Fitness>
61.5463

> <Gold.PLP.PLP>
-54.4143

> <Gold.PLP.part.hbond>
-3.0000

> <Gold.PLP.part.metal>
0.0000

> <Gold.PLP.part.buried>
-6.7497

> <Gold.PLP.part.nonpolar>
-44.4502

> <Gold.PLP.part.repulsive>
0.4060

> <Gold.PLP.ligand.clash>
0.0000

> <Gold.PLP.ligand.torsion>
0.3474

> <Gold.PLP.Chemscore.Hbond>
2.5920

> <Gold.PLP.Chemscore.CHOScore>
0.0000

> <Gold.PLP.Chemscore.Metal>
0.0000

> <Gold.Chemscore.Hbonds>
donor molecule, donor type, donor heavy atom, donor atom, acceptor molecule, acceptor atom, score
      P1  H  7989  7998       L1    19  1.00
      P1  H  7997  8010       L1    12  1.00
      P1  H  8011  8017       L1    18  0.62

> <Gold.PLP.Chemscore.Internal.Correction>
0.0507

> <Gold.Rescore>
     Score         DG    S(hbond)    S(metal)    S(lipo)     H(rot)  DE(clash)    DE(int)     intcor
     22.08     -23.70       2.38        0.00     127.55       1.81       0.02       1.60       ----

> <Gold.Chemscore.Fitness>
22.0828

> <Gold.Chemscore.DG>
-23.7042

> <Gold.Chemscore.ZeroCoef>
-5.4800

> <Gold.Chemscore.Hbond>
2.3755

> <Gold.Chemscore.Metal>
0.0000

> <Gold.Chemscore.Lipo>
127.5521

> <Gold.Chemscore.Internal_Hbond>
0.0000

> <Gold.Chemscore.DEClash>
0.0249

> <Gold.Chemscore.DEInternal>
1.5965

> <Gold.Chemscore.Rot>
1.8100

> <Gold.Chemscore.Internal.Correction>
   9.000000E+99

> <Gold.Chemscore.Hbonds>
donor molecule, donor type, donor heavy atom, donor atom, acceptor molecule, acceptor atom, score
      P1  H  7989  7998       L1    19  0.66
      P1  H  7997  8010       L1    12  0.99
      P1  H  8011  8017       L1    18  0.61

> <Gold.Chemscore.Hbond.Weighted>
-7.9340

> <Gold.Chemscore.Metal.Weighted>
-0.0000

> <Gold.Chemscore.Lipo.Weighted>
-14.9236

> <Gold.Chemscore.Internal_Hbond.Weighted>
0.0000

> <Gold.Chemscore.DEClash.Weighted>
0.0249

> <Gold.Chemscore.DEInternal.Weighted>
1.5965

> <Gold.Chemscore.Rot.Weighted>
4.6335

> <Gold.Chemscore.Internal.Correction.Weighted>
   9.000000E+99

> <Gold.Protein.RotatedTorsions>
[ 6907 6896 6895 6894 ] final   75.73 input  -60.11 | X-H torsion
[ 7974 7965 7964 7962 ] final  -77.51 input  175.53 | X-H torsion
[ 8008 7997 7996 7995 ] final   15.16 input   59.86 | X-H torsion
[ 10167 10162 10161 10158 ] final -144.39 input  -65.29 | X-H torsion
[ 10718 10713 10712 10709 ] final  142.93 input   66.30 | X-H torsion
[ 10763 10752 10751 10750 ] final  139.93 input  -60.55 | X-H torsion
[ 11005 11000 10999 10996 ] final    2.71 input  -57.11 | X-H torsion

> <Gold.Protein.ActiveResidues>
 VAL166  LYS551  ARG553  GLY616  TRP617  ASP618  TYR619  PRO620  LYS621  CYS622 
 ASP623  PHE694  ASN695  SER759  ASP760  ASP761  ALA762  ILE779  LEU786  VAL792 
 PHE793  MET794  SER795  GLU796  ALA797  LYS798  CYS799  TRP800  GLU811  SER814 

> <Gold.Protein.RotatedAtoms>
  152.5040  134.4076  159.9437 H   0  0  0  0  0  0  0  0  0  0  0  0  # atno 6907 bound_to 6896
  151.4043  133.3741  159.2744 H   0  0  0  0  0  0  0  0  0  0  0  0  # atno 6908 bound_to 6896
  150.9339  134.8774  159.7628 H   0  0  0  0  0  0  0  0  0  0  0  0  # atno 6909 bound_to 6896
  145.5987  140.9413  143.1253 H   0  0  0  0  0  0  0  0  0  0  0  0  # atno 7974 bound_to 7965
  154.8587  140.2941  155.5553 H   0  0  0  0  0  0  0  0  0  0  0  0  # atno 8008 bound_to 7997
  156.3019  140.2482  156.3490 H   0  0  0  0  0  0  0  0  0  0  0  0  # atno 8009 bound_to 7997
  154.8942  140.0393  157.1845 H   0  0  0  0  0  0  0  0  0  0  0  0  # atno 8010 bound_to 7997
  139.7904  143.7975  152.2649 H   0  0  0  0  0  0  0  0  0  0  0  0  # atno 10167 bound_to 10162
  157.3748  131.0984  151.0794 H   0  0  0  0  0  0  0  0  0  0  0  0  # atno 10718 bound_to 10713
  153.9142  135.3008  155.3448 H   0  0  0  0  0  0  0  0  0  0  0  0  # atno 10763 bound_to 10752
  154.7608  135.4935  153.9463 H   0  0  0  0  0  0  0  0  0  0  0  0  # atno 10764 bound_to 10752
  153.1176  135.6774  153.9493 H   0  0  0  0  0  0  0  0  0  0  0  0  # atno 10765 bound_to 10752
  140.6012  133.9834  155.8133 H   0  0  0  0  0  0  0  0  0  0  0  0  # atno 11005 bound_to 11000
  144.7319  139.7699  143.7344 LP  0  0  0  0  0  0  0  0  0  0  0  0  # atno 17320 bound_to 7965
  146.1593  139.4701  142.9999 LP  0  0  0  0  0  0  0  0  0  0  0  0  # atno 17321 bound_to 7965
  139.8064  144.7353  150.9755 LP  0  0  0  0  0  0  0  0  0  0  0  0  # atno 17342 bound_to 10162
  140.7820  143.4294  151.0718 LP  0  0  0  0  0  0  0  0  0  0  0  0  # atno 17343 bound_to 10162
  157.1885  130.6341  149.5696 LP  0  0  0  0  0  0  0  0  0  0  0  0  # atno 17370 bound_to 10713
  155.9763  130.4730  150.6518 LP  0  0  0  0  0  0  0  0  0  0  0  0  # atno 17371 bound_to 10713
  141.0871  133.9974  157.3297 LP  0  0  0  0  0  0  0  0  0  0  0  0  # atno 17394 bound_to 11000
  139.9231  135.0201  156.8138 LP  0  0  0  0  0  0  0  0  0  0  0  0  # atno 17395 bound_to 11000

$$$$
