AV-unprocessed.smi:2166|AV-procd|sdf|8814|dock1
  -GOLD-   2272012 03D 1   1.00000     0.00000
 Structure written by MMmdl.
 38 39  0  0  0  0  0  0  0  0  1 V2000
  154.6410  137.2279  164.4633 C   0  0  0  0  0  0  0  0  0  0  0  0
  154.0408  135.6747  163.7431 S   0  0  0  0  0  0  0  0  0  0  0  0
  154.6687  135.8129  162.0422 C   0  0  2  0  0  0  0  0  0  0  0  0
  156.2001  135.9470  162.0495 C   0  0  0  0  0  0  0  0  0  0  0  0
  154.0124  136.9724  161.2814 C   0  0  0  0  0  0  0  0  0  0  0  0
  153.1723  136.7368  160.4122 O   0  0  0  0  0  0  0  0  0  0  0  0
  154.4268  138.2059  161.6283 N   0  0  0  0  0  0  0  0  0  0  0  0
  154.0209  139.4566  161.0932 C   0  0  0  0  0  0  0  0  0  0  0  0
  154.2971  140.5730  161.9132 C   0  0  0  0  0  0  0  0  0  0  0  0
  153.9407  141.8618  161.4728 C   0  0  0  0  0  0  0  0  0  0  0  0
  153.3149  142.0077  160.2203 C   0  0  0  0  0  0  0  0  0  0  0  0
  152.9566  143.2845  159.7650 N   0  0  0  0  0  0  0  0  0  0  0  0
  152.4172  143.2893  158.4108 C   0  0  0  0  0  0  0  0  0  0  0  0
  152.1634  144.7356  157.9501 C   0  0  0  0  0  0  0  0  0  0  0  0
  151.3025  145.3890  158.8787 O   0  0  0  0  0  0  0  0  0  0  0  0
  151.8695  145.4453  160.1849 C   0  0  0  0  0  0  0  0  0  0  0  0
  152.1156  144.0172  160.7031 C   0  0  0  0  0  0  0  0  0  0  0  0
  153.0730  140.8370  159.4677 C   0  0  0  0  0  0  0  0  0  0  0  0
  153.4142  139.6011  159.8893 N   0  0  0  0  0  0  0  0  0  0  0  0
  154.2969  137.3189  165.4935 H   0  0  0  0  0  0  0  0  0  0  0  0
  154.2669  138.0814  163.8981 H   0  0  0  0  0  0  0  0  0  0  0  0
  155.7304  137.2588  164.4641 H   0  0  0  0  0  0  0  0  0  0  0  0
  154.4257  134.8785  161.5338 H   0  0  0  0  0  0  0  0  0  0  0  0
  156.5954  136.0391  161.0371 H   0  0  0  0  0  0  0  0  0  0  0  0
  156.6641  135.0706  162.5025 H   0  0  0  0  0  0  0  0  0  0  0  0
  156.5256  136.8207  162.6158 H   0  0  0  0  0  0  0  0  0  0  0  0
  155.1243  138.2511  162.3565 H   0  0  0  0  0  0  0  0  0  0  0  0
  154.7802  140.4486  162.8715 H   0  0  0  0  0  0  0  0  0  0  0  0
  154.1481  142.7243  162.0892 H   0  0  0  0  0  0  0  0  0  0  0  0
  153.1164  142.7981  157.7330 H   0  0  0  0  0  0  0  0  0  0  0  0
  151.4845  142.7245  158.3797 H   0  0  0  0  0  0  0  0  0  0  0  0
  153.1015  145.2855  157.8590 H   0  0  0  0  0  0  0  0  0  0  0  0
  151.6947  144.7401  156.9660 H   0  0  0  0  0  0  0  0  0  0  0  0
  152.7985  146.0175  160.1647 H   0  0  0  0  0  0  0  0  0  0  0  0
  151.1843  145.9735  160.8480 H   0  0  0  0  0  0  0  0  0  0  0  0
  151.1629  143.5011  160.8286 H   0  0  0  0  0  0  0  0  0  0  0  0
  152.5964  144.0523  161.6816 H   0  0  0  0  0  0  0  0  0  0  0  0
  152.5936  140.8883  158.5012 H   0  0  0  0  0  0  0  0  0  0  0  0
  1  2  1  0  0  0  0
  1 20  1  0  0  0  0
  1 21  1  0  0  0  0
  1 22  1  0  0  0  0
  2  3  1  0  0  0  0
  3  4  1  0  0  0  0
  3  5  1  0  0  0  0
  3 23  1  0  0  0  0
  4 24  1  0  0  0  0
  4 25  1  0  0  0  0
  4 26  1  0  0  0  0
  5  6  2  0  0  0  0
  5  7  1  0  0  0  0
  7  8  1  0  0  0  0
  7 27  1  0  0  0  0
  8 19  1  0  0  0  0
  8  9  2  0  0  0  0
  9 10  1  0  0  0  0
  9 28  1  0  0  0  0
 10 11  2  0  0  0  0
 10 29  1  0  0  0  0
 11 12  1  0  0  0  0
 11 18  1  0  0  0  0
 12 17  1  0  0  0  0
 12 13  1  0  0  0  0
 13 14  1  0  0  0  0
 13 30  1  0  0  0  0
 13 31  1  0  0  0  0
 14 15  1  0  0  0  0
 14 32  1  0  0  0  0
 14 33  1  0  0  0  0
 15 16  1  0  0  0  0
 16 17  1  0  0  0  0
 16 34  1  0  0  0  0
 16 35  1  0  0  0  0
 17 36  1  0  0  0  0
 17 37  1  0  0  0  0
 18 19  2  0  0  0  0
 18 38  1  0  0  0  0
M  END
> <s_m_source_file>
AV-unprocessed.smi

> <i_m_source_file_index>
2166

> <i_lp_mmshare_version>
43012

> <i_f3d_flags>
0

> <s_epik_input>
W0NIM11TW0NASF0oW0NIM10pQyg9TylbTkhdYzFbY0hdW2NIXWMoW2NIXW4xKU4yW0NIMl1bQ0gyXU9bQ0gyXVtDSDJdMg==

> <s_epik_cmdline>
J2VwaWtfcHl0aG9uJywgJy1waCcsICc3LjAnLCAnLXRuJywgJzgnLCAnLW1hJywgJzIwMCcsICctbWV0YWxfYmluZGluZycsICctaW1hZScsICc8aW5maWxlLm1hZT4nLCAnLW9tYWUnLCAnPG91dGZpbGUubWFlPic=

> <r_lp_tautomer_probability>
1

> <r_epik_Ionization_Penalty>
0.0038652

> <r_epik_Ionization_Penalty_Charging>
0

> <r_epik_Ionization_Penalty_Neutral>
0.0038652

> <r_epik_State_Penalty>
0.00681294

> <r_epik_Charging_Adjusted_Penalty>
0.00681294

> <i_epik_Tot_Q>
0

> <i_epik_Tot_abs_Q>
0

> <r_epik_Metal_State_Penalty>
-0

> <b_epik_Metal_Only>
0

> <s_lp_Force_Field>
OPLS_2005

> <r_lp_Energy>
27.7309

> <b_lp_Chiralities_Consistent>
1

> <s_lp_Variant>
AV-unprocessed.smi:2166-1

> <Gold.Version>
5.8.1

> <Gold.Id.Protein>
6NUR|6NUR_protein|mol2

> <Gold.PLP.Fitness>
44.9571

> <Gold.PLP.PLP>
-42.6364

> <Gold.PLP.part.hbond>
-1.5976

> <Gold.PLP.part.metal>
0.0000

> <Gold.PLP.part.buried>
-5.4573

> <Gold.PLP.part.nonpolar>
-35.5276

> <Gold.PLP.part.repulsive>
0.1399

> <Gold.PLP.ligand.clash>
0.0108

> <Gold.PLP.ligand.torsion>
0.4040

> <Gold.PLP.Chemscore.Hbond>
1.0000

> <Gold.PLP.Chemscore.CHOScore>
0.0000

> <Gold.PLP.Chemscore.Metal>
0.0000

> <Gold.Chemscore.Hbonds>
donor molecule, donor type, donor heavy atom, donor atom, acceptor molecule, acceptor atom, score
      P1  H  6896  6908       L1     6  0.93

> <Gold.PLP.Chemscore.Internal.Correction>
0.1395

> <Gold.Rescore>
     Score         DG    S(hbond)    S(metal)    S(lipo)     H(rot)  DE(clash)    DE(int)     intcor
     16.45     -18.06       1.00        0.00     107.78       1.31       0.00       1.61       ----

> <Gold.Chemscore.Fitness>
16.4468

> <Gold.Chemscore.DG>
-18.0601

> <Gold.Chemscore.ZeroCoef>
-5.4800

> <Gold.Chemscore.Hbond>
0.9953

> <Gold.Chemscore.Metal>
0.0000

> <Gold.Chemscore.Lipo>
107.7830

> <Gold.Chemscore.Internal_Hbond>
0.0000

> <Gold.Chemscore.DEClash>
0.0004

> <Gold.Chemscore.DEInternal>
1.6128

> <Gold.Chemscore.Rot>
1.3105

> <Gold.Chemscore.Internal.Correction>
   9.000000E+99

> <Gold.Chemscore.Hbonds>
donor molecule, donor type, donor heavy atom, donor atom, acceptor molecule, acceptor atom, score
      P1  H  6896  6908       L1     6  0.89

> <Gold.Chemscore.Hbond.Weighted>
-3.3244

> <Gold.Chemscore.Metal.Weighted>
-0.0000

> <Gold.Chemscore.Lipo.Weighted>
-12.6106

> <Gold.Chemscore.Internal_Hbond.Weighted>
0.0000

> <Gold.Chemscore.DEClash.Weighted>
0.0004

> <Gold.Chemscore.DEInternal.Weighted>
1.6128

> <Gold.Chemscore.Rot.Weighted>
3.3549

> <Gold.Chemscore.Internal.Correction.Weighted>
   9.000000E+99

> <Gold.Protein.RotatedTorsions>
[ 6907 6896 6895 6894 ] final  -90.93 input  -60.11 | X-H torsion
[ 7974 7965 7964 7962 ] final   -8.04 input  175.53 | X-H torsion
[ 8008 7997 7996 7995 ] final  144.24 input   59.86 | X-H torsion
[ 10167 10162 10161 10158 ] final  141.09 input  -65.29 | X-H torsion
[ 10718 10713 10712 10709 ] final -125.52 input   66.30 | X-H torsion
[ 10763 10752 10751 10750 ] final   -5.39 input  -60.55 | X-H torsion
[ 11005 11000 10999 10996 ] final  -68.14 input  -57.11 | X-H torsion

> <Gold.Protein.ActiveResidues>
 VAL166  LYS551  ARG553  GLY616  TRP617  ASP618  TYR619  PRO620  LYS621  CYS622 
 ASP623  PHE694  ASN695  SER759  ASP760  ASP761  ALA762  ILE779  LEU786  VAL792 
 PHE793  MET794  SER795  GLU796  ALA797  LYS798  CYS799  TRP800  GLU811  SER814 

> <Gold.Protein.RotatedAtoms>
  150.6887  134.2356  159.4451 H   0  0  0  0  0  0  0  0  0  0  0  0  # atno 6907 bound_to 6896
  152.0303  134.9769  160.0581 H   0  0  0  0  0  0  0  0  0  0  0  0  # atno 6908 bound_to 6896
  152.1311  133.4373  159.4758 H   0  0  0  0  0  0  0  0  0  0  0  0  # atno 6909 bound_to 6896
  146.2291  140.2409  142.8343 H   0  0  0  0  0  0  0  0  0  0  0  0  # atno 7974 bound_to 7965
  156.2912  140.2241  156.5020 H   0  0  0  0  0  0  0  0  0  0  0  0  # atno 8008 bound_to 7997
  154.7681  140.0468  157.1050 H   0  0  0  0  0  0  0  0  0  0  0  0  # atno 8009 bound_to 7997
  154.9907  140.3090  155.4910 H   0  0  0  0  0  0  0  0  0  0  0  0  # atno 8010 bound_to 7997
  139.5030  144.6193  151.6088 H   0  0  0  0  0  0  0  0  0  0  0  0  # atno 10167 bound_to 10162
  156.1683  130.6650  151.0145 H   0  0  0  0  0  0  0  0  0  0  0  0  # atno 10718 bound_to 10713
  153.3979  135.7004  153.6447 H   0  0  0  0  0  0  0  0  0  0  0  0  # atno 10763 bound_to 10752
  153.4993  135.3655  155.2532 H   0  0  0  0  0  0  0  0  0  0  0  0  # atno 10764 bound_to 10752
  154.8708  135.4108  154.3308 H   0  0  0  0  0  0  0  0  0  0  0  0  # atno 10765 bound_to 10752
  141.1525  133.6734  156.6400 H   0  0  0  0  0  0  0  0  0  0  0  0  # atno 11005 bound_to 11000
  144.9485  140.8153  143.5586 LP  0  0  0  0  0  0  0  0  0  0  0  0  # atno 17320 bound_to 7965
  145.2368  139.2090  143.5014 LP  0  0  0  0  0  0  0  0  0  0  0  0  # atno 17321 bound_to 7965
  140.5891  143.9812  150.6313 LP  0  0  0  0  0  0  0  0  0  0  0  0  # atno 17342 bound_to 10162
  140.2986  143.3276  152.0993 LP  0  0  0  0  0  0  0  0  0  0  0  0  # atno 17343 bound_to 10162
  157.6784  131.0844  150.7434 LP  0  0  0  0  0  0  0  0  0  0  0  0  # atno 17370 bound_to 10713
  156.7494  130.4764  149.5460 LP  0  0  0  0  0  0  0  0  0  0  0  0  # atno 17371 bound_to 10713
  140.3400  134.7857  157.4391 LP  0  0  0  0  0  0  0  0  0  0  0  0  # atno 17394 bound_to 11000
  140.0945  134.5555  155.8411 LP  0  0  0  0  0  0  0  0  0  0  0  0  # atno 17395 bound_to 11000

$$$$
