AV-unprocessed.smi:290|AV-procd|sdf|2223|dock9
  -GOLD-   2262022 73D 1   1.00000     0.00000
 Structure written by MMmdl.
 59 62  0  0  0  0  0  0  0  0  2 V2000
  151.2201  142.0957  157.3393 C   0  0  0  0  0  0  0  0  0  0  0  0
  151.3212  140.5658  157.2477 C   0  0  2  0  0  0  0  0  0  0  0  0
  152.2833  140.1814  156.2693 O   0  0  0  0  0  0  0  0  0  0  0  0
  151.8823  138.9705  155.6344 C   0  0  0  0  0  0  0  0  0  0  0  0
  150.6418  138.4987  156.3876 C   0  0  0  0  0  0  0  0  0  0  0  0
  150.0325  139.8061  156.8787 C   0  0  1  0  0  0  0  0  0  0  0  0
  149.2654  139.5443  158.0388 O   0  0  0  0  0  0  0  0  0  0  0  0
  149.1549  140.5274  155.8187 C   0  0  0  0  0  0  0  0  0  0  0  0
  148.2059  139.6568  155.1435 N   0  0  0  0  0  0  0  0  0  0  0  0
  148.1809  139.3412  153.8029 C   0  0  0  0  0  0  0  0  0  0  0  0
  147.2217  138.5342  153.4374 N   0  0  0  0  0  0  0  0  0  0  0  0
  146.5260  138.2890  154.6140 C   0  0  0  0  0  0  0  0  0  0  0  0
  145.3859  137.5104  154.9395 C   0  0  0  0  0  0  0  0  0  0  0  0
  144.7334  136.7888  154.0018 N   0  0  0  0  0  0  0  0  0  0  0  0
  143.3770  137.2355  153.7276 C   0  0  0  0  0  0  0  0  0  0  0  0
  142.7323  136.1125  152.9075 C   0  0  0  0  0  0  0  0  0  0  0  0
  143.5779  134.8586  153.2236 C   0  0  1  0  0  0  0  0  0  0  0  0
  144.1415  134.1564  152.0283 N   0  3  2  0  0  0  0  0  0  0  0  0
  144.9114  135.0109  151.0875 C   0  0  0  0  0  0  0  0  0  0  0  0
  143.1550  133.3002  151.3207 C   0  0  0  0  0  0  0  0  0  0  0  0
  143.8209  132.3637  150.2978 C   0  0  0  0  0  0  0  0  0  0  0  0
  142.9228  132.0828  149.2451 O   0  0  0  0  0  0  0  0  0  0  0  0
  144.6393  135.3531  154.2289 C   0  0  1  0  0  0  0  0  0  0  0  0
  145.9970  134.6217  154.2404 C   0  0  0  0  0  0  0  0  0  0  0  0
  144.9665  137.5008  156.2321 N   0  0  0  0  0  0  0  0  0  0  0  0
  145.6259  138.2138  157.1508 C   0  0  0  0  0  0  0  0  0  0  0  0
  146.7046  138.9848  156.9931 N   0  0  0  0  0  0  0  0  0  0  0  0
  147.1265  138.9899  155.6956 C   0  0  0  0  0  0  0  0  0  0  0  0
  142.9541  134.1470  153.7638 H   0  0  0  0  0  0  0  0  0  0  0  0
  144.2046  135.2169  155.2209 H   0  0  0  0  0  0  0  0  0  0  0  0
  150.4571  142.3955  158.0578 H   0  0  0  0  0  0  0  0  0  0  0  0
  150.9741  142.5427  156.3761 H   0  0  0  0  0  0  0  0  0  0  0  0
  152.1680  142.5246  157.6642 H   0  0  0  0  0  0  0  0  0  0  0  0
  151.6918  140.1861  158.2021 H   0  0  0  0  0  0  0  0  0  0  0  0
  151.6417  139.1850  154.5926 H   0  0  0  0  0  0  0  0  0  0  0  0
  152.6819  138.2299  155.6508 H   0  0  0  0  0  0  0  0  0  0  0  0
  149.9784  137.8837  155.7812 H   0  0  0  0  0  0  0  0  0  0  0  0
  150.9575  137.8888  157.2359 H   0  0  0  0  0  0  0  0  0  0  0  0
  149.7284  138.9136  158.5692 H   0  0  0  0  0  0  0  0  0  0  0  0
  148.5876  141.3351  156.2823 H   0  0  0  0  0  0  0  0  0  0  0  0
  149.7821  140.9959  155.0593 H   0  0  0  0  0  0  0  0  0  0  0  0
  148.9071  139.7254  153.1012 H   0  0  0  0  0  0  0  0  0  0  0  0
  142.8271  137.3853  154.6580 H   0  0  0  0  0  0  0  0  0  0  0  0
  143.3782  138.1798  153.1820 H   0  0  0  0  0  0  0  0  0  0  0  0
  141.6890  135.9746  153.1927 H   0  0  0  0  0  0  0  0  0  0  0  0
  142.7321  136.3731  151.8512 H   0  0  0  0  0  0  0  0  0  0  0  0
  144.2574  135.5834  150.4299 H   0  0  0  0  0  0  0  0  0  0  0  0
  145.5404  134.3848  150.4542 H   0  0  0  0  0  0  0  0  0  0  0  0
  145.5671  135.7097  151.6052 H   0  0  0  0  0  0  0  0  0  0  0  0
  142.5832  132.7244  152.0498 H   0  0  0  0  0  0  0  0  0  0  0  0
  142.4302  133.9226  150.7930 H   0  0  0  0  0  0  0  0  0  0  0  0
  144.7412  132.7815  149.8915 H   0  0  0  0  0  0  0  0  0  0  0  0
  144.0870  131.4222  150.7789 H   0  0  0  0  0  0  0  0  0  0  0  0
  142.2373  132.7341  149.2505 H   0  0  0  0  0  0  0  0  0  0  0  0
  145.8588  133.5469  154.3588 H   0  0  0  0  0  0  0  0  0  0  0  0
  146.6150  134.9613  155.0721 H   0  0  0  0  0  0  0  0  0  0  0  0
  146.5674  134.7891  153.3275 H   0  0  0  0  0  0  0  0  0  0  0  0
  145.2342  138.1574  158.1558 H   0  0  0  0  0  0  0  0  0  0  0  0
  144.8208  133.5082  152.4019 H   0  0  0  0  0  0  0  0  0  0  0  0
  1  2  1  0  0  0  0
  1 31  1  0  0  0  0
  1 32  1  0  0  0  0
  1 33  1  0  0  0  0
  2  6  1  0  0  0  0
  2  3  1  0  0  0  0
  2 34  1  0  0  0  0
  3  4  1  0  0  0  0
  4  5  1  0  0  0  0
  4 35  1  0  0  0  0
  4 36  1  0  0  0  0
  5  6  1  0  0  0  0
  5 37  1  0  0  0  0
  5 38  1  0  0  0  0
  6  7  1  0  0  0  0
  6  8  1  0  0  0  0
  7 39  1  0  0  0  0
  8  9  1  0  0  0  0
  8 40  1  0  0  0  0
  8 41  1  0  0  0  0
  9 28  1  0  0  0  0
  9 10  1  0  0  0  0
 10 11  2  0  0  0  0
 10 42  1  0  0  0  0
 11 12  1  0  0  0  0
 12 28  2  0  0  0  0
 12 13  1  0  0  0  0
 13 14  1  0  0  0  0
 13 25  2  0  0  0  0
 14 23  1  0  0  0  0
 14 15  1  0  0  0  0
 15 16  1  0  0  0  0
 15 43  1  0  0  0  0
 15 44  1  0  0  0  0
 16 17  1  0  0  0  0
 16 45  1  0  0  0  0
 16 46  1  0  0  0  0
 17 29  1  0  0  0  0
 17 18  1  0  0  0  0
 17 23  1  0  0  0  0
 18 19  1  0  0  0  0
 18 20  1  0  0  0  0
 18 59  1  0  0  0  0
 19 47  1  0  0  0  0
 19 48  1  0  0  0  0
 19 49  1  0  0  0  0
 20 21  1  0  0  0  0
 20 50  1  0  0  0  0
 20 51  1  0  0  0  0
 21 22  1  0  0  0  0
 21 52  1  0  0  0  0
 21 53  1  0  0  0  0
 22 54  1  0  0  0  0
 23 30  1  0  0  0  0
 23 24  1  0  0  0  0
 24 55  1  0  0  0  0
 24 56  1  0  0  0  0
 24 57  1  0  0  0  0
 25 26  1  0  0  0  0
 26 27  2  0  0  0  0
 26 58  1  0  0  0  0
 27 28  1  0  0  0  0
M  CHG  1  18   1
M  END
> <s_m_source_file>
AV-unprocessed.smi

> <i_m_source_file_index>
290

> <i_lp_mmshare_version>
43012

> <i_f3d_flags>
0

> <s_epik_input>
W0NIMl0xW0NIMl1PW0NAQEhdKFtDSDNdKVtDQEBdMShbT0hdKVtDSDJdbihbY0hdbjIpYyhjMjMpbltjSF1uYzNONFtDSDJdW0NIMl1bQ0BIXShbQ0BIXTRbQ0gzXSlOKFtDSDNdKVtDSDJdW0NIMl1bT0hd

> <s_epik_cmdline>
J2VwaWtfcHl0aG9uJywgJy1waCcsICc3LjAnLCAnLXRuJywgJzgnLCAnLW1hJywgJzIwMCcsICctbWV0YWxfYmluZGluZycsICctaW1hZScsICc8aW5maWxlLm1hZT4nLCAnLW9tYWUnLCAnPG91dGZpbGUubWFlPic=

> <r_lp_tautomer_probability>
1

> <r_epik_Ionization_Penalty>
0.0036983

> <r_epik_Ionization_Penalty_Charging>
0.0032725

> <r_epik_Ionization_Penalty_Neutral>
0.000425798

> <r_epik_State_Penalty>
-0

> <r_epik_Charging_Adjusted_Penalty>
0.0032725

> <i_epik_Tot_Q>
1

> <i_epik_Tot_abs_Q>
1

> <r_epik_Metal_State_Penalty>
-0

> <b_epik_Metal_Only>
0

> <s_lp_Force_Field>
OPLS_2005

> <r_lp_Energy>
69.2508

> <b_lp_Chiralities_Consistent>
1

> <s_lp_Variant>
AV-unprocessed.smi:290-9

> <Gold.Version>
5.8.1

> <Gold.Id.Protein>
6NUR|6NUR_protein|mol2

> <Gold.PLP.Fitness>
39.4634

> <Gold.PLP.PLP>
-28.9670

> <Gold.PLP.part.hbond>
-4.0000

> <Gold.PLP.part.metal>
0.0000

> <Gold.PLP.part.buried>
-3.6333

> <Gold.PLP.part.nonpolar>
-21.6745

> <Gold.PLP.part.repulsive>
0.2783

> <Gold.PLP.ligand.clash>
0.0000

> <Gold.PLP.ligand.torsion>
0.6564

> <Gold.PLP.Chemscore.Hbond>
2.8850

> <Gold.PLP.Chemscore.CHOScore>
1.0000

> <Gold.PLP.Chemscore.Metal>
0.0000

> <Gold.Chemscore.Hbonds>
donor molecule, donor type, donor heavy atom, donor atom, acceptor molecule, acceptor atom, score
      L1  H    22    54       P1 10186  0.83
      P1  H  7997  8009       L1     3  0.96
      P1  H 10785 10796       L1    22  1.00
      L1  C    10    42       P1  7957  1.00

> <Gold.PLP.Chemscore.Internal.Correction>
0.1543

> <Gold.Rescore>
     Score         DG    S(hbond)    S(metal)    S(lipo)     H(rot)  DE(clash)    DE(int)     intcor
      9.88     -12.08       2.47        0.00      66.14       3.67       0.11       2.09       ----

> <Gold.Chemscore.Fitness>
9.8818

> <Gold.Chemscore.DG>
-12.0823

> <Gold.Chemscore.ZeroCoef>
-5.4800

> <Gold.Chemscore.Hbond>
2.4696

> <Gold.Chemscore.Metal>
0.0000

> <Gold.Chemscore.Lipo>
66.1380

> <Gold.Chemscore.Internal_Hbond>
0.0000

> <Gold.Chemscore.DEClash>
0.1139

> <Gold.Chemscore.DEInternal>
2.0866

> <Gold.Chemscore.Rot>
3.6658

> <Gold.Chemscore.Internal.Correction>
   9.000000E+99

> <Gold.Chemscore.Hbonds>
donor molecule, donor type, donor heavy atom, donor atom, acceptor molecule, acceptor atom, score
      L1  H    22    54       P1 10186  0.82
      P1  H  7997  8009       L1     3  0.50
      P1  H 10785 10796       L1    22  0.57

> <Gold.Chemscore.Hbond.Weighted>
-8.2486

> <Gold.Chemscore.Metal.Weighted>
-0.0000

> <Gold.Chemscore.Lipo.Weighted>
-7.7382

> <Gold.Chemscore.Internal_Hbond.Weighted>
0.0000

> <Gold.Chemscore.DEClash.Weighted>
0.1139

> <Gold.Chemscore.DEInternal.Weighted>
2.0866

> <Gold.Chemscore.Rot.Weighted>
9.3844

> <Gold.Chemscore.Internal.Correction.Weighted>
   9.000000E+99

> <Gold.Protein.RotatedTorsions>
[ 6907 6896 6895 6894 ] final   72.03 input  -60.11 | X-H torsion
[ 7974 7965 7964 7962 ] final  121.54 input  175.53 | X-H torsion
[ 8008 7997 7996 7995 ] final -162.11 input   59.86 | X-H torsion
[ 10167 10162 10161 10158 ] final  111.13 input  -65.29 | X-H torsion
[ 10718 10713 10712 10709 ] final -147.82 input   66.30 | X-H torsion
[ 10763 10752 10751 10750 ] final  162.09 input  -60.55 | X-H torsion
[ 11005 11000 10999 10996 ] final  -76.18 input  -57.11 | X-H torsion

> <Gold.Protein.ActiveResidues>
 VAL166  LYS551  ARG553  GLY616  TRP617  ASP618  TYR619  PRO620  LYS621  CYS622 
 ASP623  PHE694  ASN695  SER759  ASP760  ASP761  ALA762  ILE779  LEU786  VAL792 
 PHE793  MET794  SER795  GLU796  ALA797  LYS798  CYS799  TRP800  GLU811  SER814 

> <Gold.Protein.RotatedAtoms>
  152.4844  134.4632  159.9611 H   0  0  0  0  0  0  0  0  0  0  0  0  # atno 6907 bound_to 6896
  151.4632  133.3581  159.2820 H   0  0  0  0  0  0  0  0  0  0  0  0  # atno 6908 bound_to 6896
  150.8942  134.8374  159.7376 H   0  0  0  0  0  0  0  0  0  0  0  0  # atno 6909 bound_to 6896
  145.1181  139.3407  143.4728 H   0  0  0  0  0  0  0  0  0  0  0  0  # atno 7974 bound_to 7965
  155.8020  140.0893  157.1952 H   0  0  0  0  0  0  0  0  0  0  0  0  # atno 8008 bound_to 7997
  154.3982  140.1470  156.3345 H   0  0  0  0  0  0  0  0  0  0  0  0  # atno 8009 bound_to 7997
  155.8453  140.3437  155.5660 H   0  0  0  0  0  0  0  0  0  0  0  0  # atno 8010 bound_to 7997
  139.6635  144.7128  151.1820 H   0  0  0  0  0  0  0  0  0  0  0  0  # atno 10167 bound_to 10162
  156.4123  130.7988  151.2206 H   0  0  0  0  0  0  0  0  0  0  0  0  # atno 10718 bound_to 10713
  154.2730  135.2765  155.2730 H   0  0  0  0  0  0  0  0  0  0  0  0  # atno 10763 bound_to 10752
  154.5285  135.5736  153.6742 H   0  0  0  0  0  0  0  0  0  0  0  0  # atno 10764 bound_to 10752
  152.9942  135.6222  154.2885 H   0  0  0  0  0  0  0  0  0  0  0  0  # atno 10765 bound_to 10752
  141.1652  133.6974  156.7629 H   0  0  0  0  0  0  0  0  0  0  0  0  # atno 11005 bound_to 11000
  146.3522  140.1129  142.8603 LP  0  0  0  0  0  0  0  0  0  0  0  0  # atno 17320 bound_to 7965
  145.0771  140.9195  143.4847 LP  0  0  0  0  0  0  0  0  0  0  0  0  # atno 17321 bound_to 7965
  140.7590  143.5956  150.8751 LP  0  0  0  0  0  0  0  0  0  0  0  0  # atno 17342 bound_to 10162
  139.9616  143.6158  152.3000 LP  0  0  0  0  0  0  0  0  0  0  0  0  # atno 17343 bound_to 10162
  157.7507  131.0253  150.3916 LP  0  0  0  0  0  0  0  0  0  0  0  0  # atno 17370 bound_to 10713
  156.4216  130.3954  149.6821 LP  0  0  0  0  0  0  0  0  0  0  0  0  # atno 17371 bound_to 10713
  140.2521  134.8533  157.3677 LP  0  0  0  0  0  0  0  0  0  0  0  0  # atno 17394 bound_to 11000
  140.1693  134.4629  155.7842 LP  0  0  0  0  0  0  0  0  0  0  0  0  # atno 17395 bound_to 11000

$$$$
