AV-unprocessed.smi:1995|AV-procd|sdf|8083|dock8
  -GOLD-   2272010303D 1   1.00000     0.00000
 Structure written by MMmdl.
 42 43  0  0  0  0  0  0  0  0  3 V2000
  147.4199  141.5143  153.8477 C   0  0  0  0  0  0  0  0  0  0  0  0
  146.6054  140.2351  154.1089 C   0  0  0  0  0  0  0  0  0  0  0  0
  147.0066  138.9782  153.2783 C   0  0  2  0  0  0  0  0  0  0  0  0
  147.1661  139.3777  151.7866 C   0  0  0  0  0  0  0  0  0  0  0  0
  145.8792  137.9036  153.3422 C   0  0  0  0  0  0  0  0  0  0  0  0
  146.2156  136.7017  152.5763 N   0  0  0  0  0  0  0  0  0  0  0  0
  145.5311  135.5495  152.5493 C   0  0  0  0  0  0  0  0  0  0  0  0
  144.4439  135.4609  153.1227 O   0  0  0  0  0  0  0  0  0  0  0  0
  146.1661  134.5603  151.8840 N   0  5  0  0  0  0  0  0  0  0  0  0
  145.4532  133.6508  151.2000 C   0  0  0  0  0  0  0  0  0  0  0  0
  146.0182  132.6950  150.4530 N   0  0  0  0  0  0  0  0  0  0  0  0
  145.0910  131.8587  149.8284 C   0  0  0  0  0  0  0  0  0  0  0  0
  143.7903  132.1899  150.1013 C   0  0  0  0  0  0  0  0  0  0  0  0
  143.6902  133.5699  151.1573 S   0  0  0  0  0  0  0  0  0  0  0  0
  148.2858  138.3732  153.8052 N   0  3  0  0  0  0  0  0  0  0  0  0
  149.4502  139.2843  153.9845 C   0  0  0  0  0  0  0  0  0  0  0  0
  150.7156  138.4678  154.3070 C   0  0  0  0  0  0  0  0  0  0  0  0
  150.5036  137.6591  155.4568 O   0  0  0  0  0  0  0  0  0  0  0  0
  149.4393  136.7368  155.2647 C   0  0  0  0  0  0  0  0  0  0  0  0
  148.1424  137.5205  155.0174 C   0  0  0  0  0  0  0  0  0  0  0  0
  147.0360  142.3367  154.4516 H   0  0  0  0  0  0  0  0  0  0  0  0
  147.3631  141.8276  152.8058 H   0  0  0  0  0  0  0  0  0  0  0  0
  148.4703  141.3906  154.1097 H   0  0  0  0  0  0  0  0  0  0  0  0
  146.6751  140.0049  155.1726 H   0  0  0  0  0  0  0  0  0  0  0  0
  145.5604  140.4845  153.9252 H   0  0  0  0  0  0  0  0  0  0  0  0
  146.2062  139.6150  151.3276 H   0  0  0  0  0  0  0  0  0  0  0  0
  147.6009  138.5709  151.1951 H   0  0  0  0  0  0  0  0  0  0  0  0
  147.7959  140.2596  151.6645 H   0  0  0  0  0  0  0  0  0  0  0  0
  145.6296  137.6503  154.3728 H   0  0  0  0  0  0  0  0  0  0  0  0
  144.9550  138.2963  152.9186 H   0  0  0  0  0  0  0  0  0  0  0  0
  147.0879  136.7232  152.0682 H   0  0  0  0  0  0  0  0  0  0  0  0
  145.4462  131.0523  149.2044 H   0  0  0  0  0  0  0  0  0  0  0  0
  142.8899  131.7108  149.7473 H   0  0  0  0  0  0  0  0  0  0  0  0
  149.6636  139.8574  153.0844 H   0  0  0  0  0  0  0  0  0  0  0  0
  149.2451  139.9985  154.7828 H   0  0  0  0  0  0  0  0  0  0  0  0
  150.9967  137.8408  153.4590 H   0  0  0  0  0  0  0  0  0  0  0  0
  151.5549  139.1368  154.4978 H   0  0  0  0  0  0  0  0  0  0  0  0
  149.6590  136.0651  154.4328 H   0  0  0  0  0  0  0  0  0  0  0  0
  149.3419  136.1196  156.1577 H   0  0  0  0  0  0  0  0  0  0  0  0
  147.9300  138.1382  155.8908 H   0  0  0  0  0  0  0  0  0  0  0  0
  147.3148  136.8211  154.9183 H   0  0  0  0  0  0  0  0  0  0  0  0
  148.5704  137.7406  153.0695 H   0  0  0  0  0  0  0  0  0  0  0  0
  1  2  1  0  0  0  0
  1 21  1  0  0  0  0
  1 22  1  0  0  0  0
  1 23  1  0  0  0  0
  2  3  1  0  0  0  0
  2 24  1  0  0  0  0
  2 25  1  0  0  0  0
  3  4  1  0  0  0  0
  3  5  1  0  0  0  0
  3 15  1  0  0  0  0
  4 26  1  0  0  0  0
  4 27  1  0  0  0  0
  4 28  1  0  0  0  0
  5  6  1  0  0  0  0
  5 29  1  0  0  0  0
  5 30  1  0  0  0  0
  6  7  1  0  0  0  0
  6 31  1  0  0  0  0
  7  8  2  0  0  0  0
  7  9  1  0  0  0  0
  9 10  1  0  0  0  0
 10 14  1  0  0  0  0
 10 11  2  0  0  0  0
 11 12  1  0  0  0  0
 12 13  2  0  0  0  0
 12 32  1  0  0  0  0
 13 14  1  0  0  0  0
 13 33  1  0  0  0  0
 15 20  1  0  0  0  0
 15 16  1  0  0  0  0
 15 42  1  0  0  0  0
 16 17  1  0  0  0  0
 16 34  1  0  0  0  0
 16 35  1  0  0  0  0
 17 18  1  0  0  0  0
 17 36  1  0  0  0  0
 17 37  1  0  0  0  0
 18 19  1  0  0  0  0
 19 20  1  0  0  0  0
 19 38  1  0  0  0  0
 19 39  1  0  0  0  0
 20 40  1  0  0  0  0
 20 41  1  0  0  0  0
M  CHG  1   9  -1
M  CHG  1  15   1
M  END
> <s_m_source_file>
AV-unprocessed.smi

> <i_m_source_file_index>
1995

> <i_lp_mmshare_version>
43012

> <i_f3d_flags>
0

> <s_epik_input>
W0NIMl0xW0NIMl1PW0NIMl1bQ0gyXU4xW0NAQF0oW0NIM10pKFtDSDJdW0NIM10pW0NIMl1bTkhdQyg9TylbTkhdYzJuW2NIXVtjSF1zMg==

> <s_epik_cmdline>
J2VwaWtfcHl0aG9uJywgJy1waCcsICc3LjAnLCAnLXRuJywgJzgnLCAnLW1hJywgJzIwMCcsICctbWV0YWxfYmluZGluZycsICctaW1hZScsICc8aW5maWxlLm1hZT4nLCAnLW9tYWUnLCAnPG91dGZpbGUubWFlPic=

> <r_lp_tautomer_probability>
0.999

> <r_epik_Ionization_Penalty>
8.09417

> <r_epik_Ionization_Penalty_Charging>
6.70334

> <r_epik_Ionization_Penalty_Neutral>
1.39083

> <r_epik_State_Penalty>
6.86521

> <r_epik_Charging_Adjusted_Penalty>
13.5685

> <i_epik_Tot_Q>
0

> <i_epik_Tot_abs_Q>
2

> <r_epik_Metal_State_Penalty>
2.79608

> <b_epik_Metal_Only>
1

> <s_lp_Force_Field>
OPLS_2005

> <r_lp_Energy>
20.9753

> <b_lp_Chiralities_Consistent>
1

> <s_lp_Variant>
AV-unprocessed.smi:1995-8

> <Gold.Version>
5.8.1

> <Gold.Id.Protein>
6NUR|6NUR_protein|mol2

> <Gold.PLP.Fitness>
40.4493

> <Gold.PLP.PLP>
-29.7963

> <Gold.PLP.part.hbond>
-2.0000

> <Gold.PLP.part.metal>
0.0000

> <Gold.PLP.part.buried>
-1.0645

> <Gold.PLP.part.nonpolar>
-27.9630

> <Gold.PLP.part.repulsive>
0.4908

> <Gold.PLP.ligand.clash>
0.0000

> <Gold.PLP.ligand.torsion>
0.7601

> <Gold.PLP.Chemscore.Hbond>
3.0000

> <Gold.PLP.Chemscore.CHOScore>
1.0000

> <Gold.PLP.Chemscore.Metal>
0.0000

> <Gold.Chemscore.Hbonds>
donor molecule, donor type, donor heavy atom, donor atom, acceptor molecule, acceptor atom, score
      L1  H     6    31       P1  7948  1.00
      L1  H    15    42       P1  7948  2.00
      L1  C    13    33       P1 10952  1.00

> <Gold.PLP.Chemscore.Internal.Correction>
0.1732

> <Gold.Rescore>
     Score         DG    S(hbond)    S(metal)    S(lipo)     H(rot)  DE(clash)    DE(int)     intcor
     12.57     -17.47       2.00        0.00      83.78       1.75       1.81       3.09       ----

> <Gold.Chemscore.Fitness>
12.5743

> <Gold.Chemscore.DG>
-17.4742

> <Gold.Chemscore.ZeroCoef>
-5.4800

> <Gold.Chemscore.Hbond>
1.9993

> <Gold.Chemscore.Metal>
0.0000

> <Gold.Chemscore.Lipo>
83.7818

> <Gold.Chemscore.Internal_Hbond>
0.0000

> <Gold.Chemscore.DEClash>
1.8070

> <Gold.Chemscore.DEInternal>
3.0930

> <Gold.Chemscore.Rot>
1.7523

> <Gold.Chemscore.Internal.Correction>
   9.000000E+99

> <Gold.Chemscore.Hbonds>
donor molecule, donor type, donor heavy atom, donor atom, acceptor molecule, acceptor atom, score
      L1  H     6    31       P1  7948  0.96
      L1  H    15    42       P1  7948  0.99

> <Gold.Chemscore.Hbond.Weighted>
-6.6776

> <Gold.Chemscore.Metal.Weighted>
-0.0000

> <Gold.Chemscore.Lipo.Weighted>
-9.8025

> <Gold.Chemscore.Internal_Hbond.Weighted>
0.0000

> <Gold.Chemscore.DEClash.Weighted>
1.8070

> <Gold.Chemscore.DEInternal.Weighted>
3.0930

> <Gold.Chemscore.Rot.Weighted>
4.4858

> <Gold.Chemscore.Internal.Correction.Weighted>
   9.000000E+99

> <Gold.Protein.RotatedTorsions>
[ 6907 6896 6895 6894 ] final  163.99 input  -60.11 | X-H torsion
[ 7974 7965 7964 7962 ] final   58.70 input  175.53 | X-H torsion
[ 8008 7997 7996 7995 ] final  -57.90 input   59.86 | X-H torsion
[ 10167 10162 10161 10158 ] final -164.09 input  -65.29 | X-H torsion
[ 10718 10713 10712 10709 ] final -125.25 input   66.30 | X-H torsion
[ 10763 10752 10751 10750 ] final  -48.79 input  -60.55 | X-H torsion
[ 11005 11000 10999 10996 ] final  -30.06 input  -57.11 | X-H torsion

> <Gold.Protein.ActiveResidues>
 VAL166  LYS551  ARG553  GLY616  TRP617  ASP618  TYR619  PRO620  LYS621  CYS622 
 ASP623  PHE694  ASN695  SER759  ASP760  ASP761  ALA762  ILE779  LEU786  VAL792 
 PHE793  MET794  SER795  GLU796  ALA797  LYS798  CYS799  TRP800  GLU811  SER814 

> <Gold.Protein.RotatedAtoms>
  151.9167  133.3575  159.3882 H   0  0  0  0  0  0  0  0  0  0  0  0  # atno 6907 bound_to 6896
  150.7046  134.4677  159.5420 H   0  0  0  0  0  0  0  0  0  0  0  0  # atno 6908 bound_to 6896
  152.2293  134.8337  160.0526 H   0  0  0  0  0  0  0  0  0  0  0  0  # atno 6909 bound_to 6896
  145.9152  139.3686  143.0511 H   0  0  0  0  0  0  0  0  0  0  0  0  # atno 7974 bound_to 7965
  154.4287  140.1096  156.5871 H   0  0  0  0  0  0  0  0  0  0  0  0  # atno 8008 bound_to 7997
  155.6051  140.3493  155.4586 H   0  0  0  0  0  0  0  0  0  0  0  0  # atno 8009 bound_to 7997
  156.0143  140.1226  157.0411 H   0  0  0  0  0  0  0  0  0  0  0  0  # atno 8010 bound_to 7997
  139.6275  144.0504  152.1987 H   0  0  0  0  0  0  0  0  0  0  0  0  # atno 10167 bound_to 10162
  156.1659  130.6634  151.0114 H   0  0  0  0  0  0  0  0  0  0  0  0  # atno 10718 bound_to 10713
  154.0835  135.6587  153.4841 H   0  0  0  0  0  0  0  0  0  0  0  0  # atno 10763 bound_to 10752
  153.0347  135.5185  154.7450 H   0  0  0  0  0  0  0  0  0  0  0  0  # atno 10764 bound_to 10752
  154.6552  135.3007  154.9904 H   0  0  0  0  0  0  0  0  0  0  0  0  # atno 10765 bound_to 10752
  140.9350  133.7314  156.0992 H   0  0  0  0  0  0  0  0  0  0  0  0  # atno 11005 bound_to 11000
  145.8620  140.9470  143.0695 LP  0  0  0  0  0  0  0  0  0  0  0  0  # atno 17320 bound_to 7965
  144.6747  140.0543  143.7478 LP  0  0  0  0  0  0  0  0  0  0  0  0  # atno 17321 bound_to 7965
  140.0161  144.6187  150.7605 LP  0  0  0  0  0  0  0  0  0  0  0  0  # atno 17342 bound_to 10162
  140.7419  143.2825  151.3558 LP  0  0  0  0  0  0  0  0  0  0  0  0  # atno 17343 bound_to 10162
  157.6767  131.0848  150.7475 LP  0  0  0  0  0  0  0  0  0  0  0  0  # atno 17370 bound_to 10713
  156.7536  130.4776  149.5451 LP  0  0  0  0  0  0  0  0  0  0  0  0  # atno 17371 bound_to 10713
  140.7811  134.3725  157.5487 LP  0  0  0  0  0  0  0  0  0  0  0  0  # atno 17394 bound_to 11000
  139.8806  134.9082  156.2962 LP  0  0  0  0  0  0  0  0  0  0  0  0  # atno 17395 bound_to 11000

$$$$
