AV-unprocessed.smi:1328|AV-procd|sdf|5480|dock5
  -GOLD-   22720 5 53D 1   1.00000     0.00000
 Structure written by MMmdl.
 38 39  0  0  0  0  0  0  0  0  1 V2000
  150.7455  140.2193  155.0681 C   0  0  0  0  0  0  0  0  0  0  0  0
  150.9790  138.7438  155.2229 C   0  0  0  0  0  0  0  0  0  0  0  0
  151.1737  137.9988  154.1479 N   0  0  0  0  0  0  0  0  0  0  0  0
  151.3625  136.6946  154.6147 O   0  0  0  0  0  0  0  0  0  0  0  0
  151.2719  136.7051  155.9689 C   0  0  0  0  0  0  0  0  0  0  0  0
  151.4520  135.3949  156.6594 C   0  0  0  0  0  0  0  0  0  0  0  0
  151.0244  137.9731  156.4202 C   0  0  0  0  0  0  0  0  0  0  0  0
  150.8492  138.4545  157.8379 C   0  0  0  0  0  0  0  0  0  0  0  0
  151.7563  139.6599  158.0807 C   0  0  0  0  0  0  0  0  0  0  0  0
  152.5167  140.0503  157.1951 O   0  0  0  0  0  0  0  0  0  0  0  0
  151.6753  140.2251  159.2943 N   0  0  0  0  0  0  0  0  0  0  0  0
  152.5180  141.3079  159.7895 C   0  0  1  0  0  0  0  0  0  0  0  0
  153.9998  140.9242  159.6399 C   0  0  0  0  0  0  0  0  0  0  0  0
  152.1633  142.5950  159.0215 C   0  0  2  0  0  0  0  0  0  0  0  0
  153.0960  143.7776  159.2796 C   0  0  0  0  0  0  0  0  0  0  0  0
  152.2343  144.9837  158.9416 C   0  0  0  0  0  0  0  0  0  0  0  0
  150.8016  144.4434  158.9838 C   0  0  0  0  0  0  0  0  0  0  0  0
  150.9151  143.1098  159.4610 O   0  0  0  0  0  0  0  0  0  0  0  0
  151.1919  140.7766  155.8916 H   0  0  0  0  0  0  0  0  0  0  0  0
  149.6792  140.4453  155.0533 H   0  0  0  0  0  0  0  0  0  0  0  0
  151.1801  140.5994  154.1429 H   0  0  0  0  0  0  0  0  0  0  0  0
  152.0096  135.5159  157.5878 H   0  0  0  0  0  0  0  0  0  0  0  0
  152.0001  134.6932  156.0306 H   0  0  0  0  0  0  0  0  0  0  0  0
  150.4862  134.9510  156.9006 H   0  0  0  0  0  0  0  0  0  0  0  0
  149.8154  138.7399  158.0363 H   0  0  0  0  0  0  0  0  0  0  0  0
  151.0903  137.6717  158.5583 H   0  0  0  0  0  0  0  0  0  0  0  0
  151.0176  139.8311  159.9512 H   0  0  0  0  0  0  0  0  0  0  0  0
  152.3034  141.4707  160.8475 H   0  0  0  0  0  0  0  0  0  0  0  0
  154.6526  141.7004  160.0392 H   0  0  0  0  0  0  0  0  0  0  0  0
  154.2662  140.7703  158.5938 H   0  0  0  0  0  0  0  0  0  0  0  0
  154.2254  140.0039  160.1796 H   0  0  0  0  0  0  0  0  0  0  0  0
  152.1028  142.3971  157.9492 H   0  0  0  0  0  0  0  0  0  0  0  0
  153.3766  143.8135  160.3332 H   0  0  0  0  0  0  0  0  0  0  0  0
  154.0107  143.7328  158.6881 H   0  0  0  0  0  0  0  0  0  0  0  0
  152.3883  145.7921  159.6573 H   0  0  0  0  0  0  0  0  0  0  0  0
  152.4661  145.3664  157.9470 H   0  0  0  0  0  0  0  0  0  0  0  0
  150.1515  145.0320  159.6315 H   0  0  0  0  0  0  0  0  0  0  0  0
  150.3657  144.4319  157.9839 H   0  0  0  0  0  0  0  0  0  0  0  0
  1  2  1  0  0  0  0
  1 19  1  0  0  0  0
  1 20  1  0  0  0  0
  1 21  1  0  0  0  0
  2  7  1  0  0  0  0
  2  3  2  0  0  0  0
  3  4  1  0  0  0  0
  4  5  1  0  0  0  0
  5  6  1  0  0  0  0
  5  7  2  0  0  0  0
  6 22  1  0  0  0  0
  6 23  1  0  0  0  0
  6 24  1  0  0  0  0
  7  8  1  0  0  0  0
  8  9  1  0  0  0  0
  8 25  1  0  0  0  0
  8 26  1  0  0  0  0
  9 10  2  0  0  0  0
  9 11  1  0  0  0  0
 11 12  1  0  0  0  0
 11 27  1  0  0  0  0
 12 13  1  0  0  0  0
 12 14  1  0  0  0  0
 12 28  1  0  0  0  0
 13 29  1  0  0  0  0
 13 30  1  0  0  0  0
 13 31  1  0  0  0  0
 14 18  1  0  0  0  0
 14 15  1  0  0  0  0
 14 32  1  0  0  0  0
 15 16  1  0  0  0  0
 15 33  1  0  0  0  0
 15 34  1  0  0  0  0
 16 17  1  0  0  0  0
 16 35  1  0  0  0  0
 16 36  1  0  0  0  0
 17 18  1  0  0  0  0
 17 37  1  0  0  0  0
 17 38  1  0  0  0  0
M  END
> <s_m_source_file>
AV-unprocessed.smi

> <i_m_source_file_index>
1328

> <i_lp_mmshare_version>
43012

> <i_f3d_flags>
0

> <s_epik_input>
W0NIM11jMW5vYyhbQ0gzXSljMVtDSDJdQyg9TylbTkhdW0NASF0oW0NIM10pW0NAQEhdMltDSDJdW0NIMl1bQ0gyXU8y

> <s_epik_cmdline>
J2VwaWtfcHl0aG9uJywgJy1waCcsICc3LjAnLCAnLXRuJywgJzgnLCAnLW1hJywgJzIwMCcsICctbWV0YWxfYmluZGluZycsICctaW1hZScsICc8aW5maWxlLm1hZT4nLCAnLW9tYWUnLCAnPG91dGZpbGUubWFlPic=

> <r_lp_tautomer_probability>
1

> <r_epik_Ionization_Penalty>
2.66156e-08

> <r_epik_Ionization_Penalty_Charging>
0

> <r_epik_Ionization_Penalty_Neutral>
2.66156e-08

> <r_epik_State_Penalty>
-0

> <r_epik_Charging_Adjusted_Penalty>
0

> <i_epik_Tot_Q>
0

> <i_epik_Tot_abs_Q>
0

> <r_epik_Metal_State_Penalty>
-0

> <b_epik_Metal_Only>
0

> <s_lp_Force_Field>
OPLS_2005

> <r_lp_Energy>
11.7374

> <b_lp_Chiralities_Consistent>
1

> <s_lp_Variant>
AV-unprocessed.smi:1328-2

> <Gold.Version>
5.8.1

> <Gold.Id.Protein>
6NUR|6NUR_protein|mol2

> <Gold.PLP.Fitness>
37.0740

> <Gold.PLP.PLP>
-31.6478

> <Gold.PLP.part.hbond>
-2.3227

> <Gold.PLP.part.metal>
0.0000

> <Gold.PLP.part.buried>
-2.6691

> <Gold.PLP.part.nonpolar>
-26.3526

> <Gold.PLP.part.repulsive>
0.6089

> <Gold.PLP.ligand.clash>
0.0000

> <Gold.PLP.ligand.torsion>
0.3056

> <Gold.PLP.Chemscore.Hbond>
2.0000

> <Gold.PLP.Chemscore.CHOScore>
0.0000

> <Gold.PLP.Chemscore.Metal>
0.0000

> <Gold.Chemscore.Hbonds>
donor molecule, donor type, donor heavy atom, donor atom, acceptor molecule, acceptor atom, score
      P1  H  7997  8008       L1    10  1.00
      P1  H 10752 10765       L1     4  1.00

> <Gold.PLP.Chemscore.Internal.Correction>
0.0375

> <Gold.Rescore>
     Score         DG    S(hbond)    S(metal)    S(lipo)     H(rot)  DE(clash)    DE(int)     intcor
     16.71     -18.96       1.88        0.00      94.57       1.52       0.02       2.23       ----

> <Gold.Chemscore.Fitness>
16.7140

> <Gold.Chemscore.DG>
-18.9581

> <Gold.Chemscore.ZeroCoef>
-5.4800

> <Gold.Chemscore.Hbond>
1.8843

> <Gold.Chemscore.Metal>
0.0000

> <Gold.Chemscore.Lipo>
94.5747

> <Gold.Chemscore.Internal_Hbond>
0.0000

> <Gold.Chemscore.DEClash>
0.0166

> <Gold.Chemscore.DEInternal>
2.2275

> <Gold.Chemscore.Rot>
1.5159

> <Gold.Chemscore.Internal.Correction>
   9.000000E+99

> <Gold.Chemscore.Hbonds>
donor molecule, donor type, donor heavy atom, donor atom, acceptor molecule, acceptor atom, score
      P1  H  7997  8008       L1    10  0.95
      P1  H 10752 10765       L1     4  0.39

> <Gold.Chemscore.Hbond.Weighted>
-6.2936

> <Gold.Chemscore.Metal.Weighted>
-0.0000

> <Gold.Chemscore.Lipo.Weighted>
-11.0652

> <Gold.Chemscore.Internal_Hbond.Weighted>
0.0000

> <Gold.Chemscore.DEClash.Weighted>
0.0166

> <Gold.Chemscore.DEInternal.Weighted>
2.2275

> <Gold.Chemscore.Rot.Weighted>
3.8807

> <Gold.Chemscore.Internal.Correction.Weighted>
   9.000000E+99

> <Gold.Protein.RotatedTorsions>
[ 6907 6896 6895 6894 ] final    2.92 input  -60.11 | X-H torsion
[ 7974 7965 7964 7962 ] final  -50.29 input  175.53 | X-H torsion
[ 8008 7997 7996 7995 ] final  -70.71 input   59.86 | X-H torsion
[ 10167 10162 10161 10158 ] final   45.98 input  -65.29 | X-H torsion
[ 10718 10713 10712 10709 ] final  -25.48 input   66.30 | X-H torsion
[ 10763 10752 10751 10750 ] final  161.63 input  -60.55 | X-H torsion
[ 11005 11000 10999 10996 ] final   83.77 input  -57.11 | X-H torsion

> <Gold.Protein.ActiveResidues>
 VAL166  LYS551  ARG553  GLY616  TRP617  ASP618  TYR619  PRO620  LYS621  CYS622 
 ASP623  PHE694  ASN695  SER759  ASP760  ASP761  ALA762  ILE779  LEU786  VAL792 
 PHE793  MET794  SER795  GLU796  ALA797  LYS798  CYS799  TRP800  GLU811  SER814 

> <Gold.Protein.RotatedAtoms>
  151.6166  135.1035  160.0092 H   0  0  0  0  0  0  0  0  0  0  0  0  # atno 6907 bound_to 6896
  152.4180  133.7065  159.6465 H   0  0  0  0  0  0  0  0  0  0  0  0  # atno 6908 bound_to 6896
  150.8067  133.8422  159.3223 H   0  0  0  0  0  0  0  0  0  0  0  0  # atno 6909 bound_to 6896
  145.9315  140.7745  142.9597 H   0  0  0  0  0  0  0  0  0  0  0  0  # atno 7974 bound_to 7965
  154.5032  140.0829  156.7841 H   0  0  0  0  0  0  0  0  0  0  0  0  # atno 8008 bound_to 7997
  155.3954  140.3434  155.4235 H   0  0  0  0  0  0  0  0  0  0  0  0  # atno 8009 bound_to 7997
  156.1483  140.1550  156.8799 H   0  0  0  0  0  0  0  0  0  0  0  0  # atno 8010 bound_to 7997
  140.3186  144.2733  150.6186 H   0  0  0  0  0  0  0  0  0  0  0  0  # atno 10167 bound_to 10162
  156.4638  130.4509  149.6912 H   0  0  0  0  0  0  0  0  0  0  0  0  # atno 10718 bound_to 10713
  154.2659  135.2767  155.2759 H   0  0  0  0  0  0  0  0  0  0  0  0  # atno 10763 bound_to 10752
  154.5344  135.5720  153.6789 H   0  0  0  0  0  0  0  0  0  0  0  0  # atno 10764 bound_to 10752
  152.9954  135.6235  154.2811 H   0  0  0  0  0  0  0  0  0  0  0  0  # atno 10765 bound_to 10752
  139.9021  134.8168  156.2354 H   0  0  0  0  0  0  0  0  0  0  0  0  # atno 11005 bound_to 11000
  144.6765  140.2134  143.7374 LP  0  0  0  0  0  0  0  0  0  0  0  0  # atno 17320 bound_to 7965
  145.8420  139.2134  143.1822 LP  0  0  0  0  0  0  0  0  0  0  0  0  # atno 17321 bound_to 7965
  140.5504  143.2207  151.7937 LP  0  0  0  0  0  0  0  0  0  0  0  0  # atno 17342 bound_to 10162
  139.4879  144.4484  151.9683 LP  0  0  0  0  0  0  0  0  0  0  0  0  # atno 17343 bound_to 10162
  156.3689  130.7520  151.2501 LP  0  0  0  0  0  0  0  0  0  0  0  0  # atno 17370 bound_to 10713
  157.7496  131.0329  150.4246 LP  0  0  0  0  0  0  0  0  0  0  0  0  # atno 17371 bound_to 10713
  141.0319  133.6984  156.1444 LP  0  0  0  0  0  0  0  0  0  0  0  0  # atno 17394 bound_to 11000
  140.7084  134.4488  157.5583 LP  0  0  0  0  0  0  0  0  0  0  0  0  # atno 17395 bound_to 11000

$$$$
