AV-unprocessed.smi:1832|AV-procd|sdf|7464|dock7
  -GOLD-   22720 9153D 1   1.00000     0.00000
 Structure written by MMmdl.
 35 35  0  0  0  0  0  0  0  0  1 V2000
  147.3977  142.5299  153.9695 C   0  0  0  0  0  0  0  0  0  0  0  0
  148.8171  141.9566  154.0389 C   0  0  0  0  0  0  0  0  0  0  0  0
  149.2176  141.5536  155.4673 C   0  0  0  0  0  0  0  0  0  0  0  0
  149.9642  142.6122  156.1368 N   0  0  0  0  0  0  0  0  0  0  0  0
  151.1264  142.4458  156.7860 C   0  0  0  0  0  0  0  0  0  0  0  0
  151.6856  141.3537  156.8980 O   0  0  0  0  0  0  0  0  0  0  0  0
  151.7291  143.7090  157.4177 C   0  0  0  0  0  0  0  0  0  0  0  0
  152.0430  143.5527  158.8483 N   0  0  0  0  0  0  0  0  0  0  0  0
  152.9051  142.4955  159.2022 C   0  0  0  0  0  0  0  0  0  0  0  0
  153.2689  142.2599  160.4824 C   0  0  0  0  0  0  0  0  0  0  0  0
  154.1718  141.1766  160.8820 C   0  0  0  0  0  0  0  0  0  0  0  0
  154.7181  140.4050  160.0924 O   0  0  0  0  0  0  0  0  0  0  0  0
  154.3665  141.0801  162.2086 N   0  0  0  0  0  0  0  0  0  0  0  0
  155.2123  140.0839  162.8483 C   0  0  0  0  0  0  0  0  0  0  0  0
  152.7307  143.1436  161.4987 C   0  0  0  0  0  0  0  0  0  0  0  0
  151.9106  144.1596  161.1661 C   0  0  0  0  0  0  0  0  0  0  0  0
  151.5257  144.4148  159.7754 C   0  0  0  0  0  0  0  0  0  0  0  0
  150.7835  145.3463  159.4630 O   0  0  0  0  0  0  0  0  0  0  0  0
  147.1394  142.8056  152.9470 H   0  0  0  0  0  0  0  0  0  0  0  0
  147.3038  143.4223  154.5887 H   0  0  0  0  0  0  0  0  0  0  0  0
  146.6619  141.8027  154.3139 H   0  0  0  0  0  0  0  0  0  0  0  0
  148.8870  141.0904  153.3800 H   0  0  0  0  0  0  0  0  0  0  0  0
  149.5183  142.6965  153.6515 H   0  0  0  0  0  0  0  0  0  0  0  0
  148.3354  141.2885  156.0528 H   0  0  0  0  0  0  0  0  0  0  0  0
  149.8481  140.6646  155.4384 H   0  0  0  0  0  0  0  0  0  0  0  0
  149.5712  143.5417  156.0975 H   0  0  0  0  0  0  0  0  0  0  0  0
  152.6246  143.9974  156.8637 H   0  0  0  0  0  0  0  0  0  0  0  0
  151.0279  144.5312  157.2686 H   0  0  0  0  0  0  0  0  0  0  0  0
  153.2458  141.9128  158.3584 H   0  0  0  0  0  0  0  0  0  0  0  0
  153.8929  141.7381  162.8102 H   0  0  0  0  0  0  0  0  0  0  0  0
  155.1887  140.2166  163.9300 H   0  0  0  0  0  0  0  0  0  0  0  0
  156.2463  140.1804  162.5150 H   0  0  0  0  0  0  0  0  0  0  0  0
  154.8644  139.0754  162.6209 H   0  0  0  0  0  0  0  0  0  0  0  0
  152.9835  142.9983  162.5392 H   0  0  0  0  0  0  0  0  0  0  0  0
  151.5259  144.8033  161.9434 H   0  0  0  0  0  0  0  0  0  0  0  0
  1  2  1  0  0  0  0
  1 19  1  0  0  0  0
  1 20  1  0  0  0  0
  1 21  1  0  0  0  0
  2  3  1  0  0  0  0
  2 22  1  0  0  0  0
  2 23  1  0  0  0  0
  3  4  1  0  0  0  0
  3 24  1  0  0  0  0
  3 25  1  0  0  0  0
  4  5  1  0  0  0  0
  4 26  1  0  0  0  0
  5  6  2  0  0  0  0
  5  7  1  0  0  0  0
  7  8  1  0  0  0  0
  7 27  1  0  0  0  0
  7 28  1  0  0  0  0
  8 17  1  0  0  0  0
  8  9  1  0  0  0  0
  9 10  2  0  0  0  0
  9 29  1  0  0  0  0
 10 11  1  0  0  0  0
 10 15  1  0  0  0  0
 11 12  2  0  0  0  0
 11 13  1  0  0  0  0
 13 14  1  0  0  0  0
 13 30  1  0  0  0  0
 14 31  1  0  0  0  0
 14 32  1  0  0  0  0
 14 33  1  0  0  0  0
 15 16  2  0  0  0  0
 15 34  1  0  0  0  0
 16 17  1  0  0  0  0
 16 35  1  0  0  0  0
 17 18  2  0  0  0  0
M  END
> <s_m_source_file>
AV-unprocessed.smi

> <i_m_source_file_index>
1832

> <i_lp_mmshare_version>
43012

> <i_f3d_flags>
0

> <s_epik_input>
W0NIM11bQ0gyXVtDSDJdW05IXUMoPU8pW0NIMl1uMVtjSF1jKEMoPU8pW05IXVtDSDNdKVtjSF1bY0hdYzE9Tw==

> <s_epik_cmdline>
J2VwaWtfcHl0aG9uJywgJy1waCcsICc3LjAnLCAnLXRuJywgJzgnLCAnLW1hJywgJzIwMCcsICctbWV0YWxfYmluZGluZycsICctaW1hZScsICc8aW5maWxlLm1hZT4nLCAnLW9tYWUnLCAnPG91dGZpbGUubWFlPic=

> <r_lp_tautomer_probability>
1

> <r_epik_Ionization_Penalty>
3.67838e-07

> <r_epik_Ionization_Penalty_Charging>
4.72549e-08

> <r_epik_Ionization_Penalty_Neutral>
3.20583e-07

> <r_epik_State_Penalty>
-0

> <r_epik_Charging_Adjusted_Penalty>
4.72549e-08

> <i_epik_Tot_Q>
0

> <i_epik_Tot_abs_Q>
0

> <r_epik_Metal_State_Penalty>
-0

> <b_epik_Metal_Only>
0

> <s_lp_Force_Field>
OPLS_2005

> <r_lp_Energy>
14.7098

> <b_lp_Chiralities_Consistent>
1

> <s_lp_Variant>
AV-unprocessed.smi:1832-1

> <Gold.Version>
5.8.1

> <Gold.Id.Protein>
6NUR|6NUR_protein|mol2

> <Gold.PLP.Fitness>
47.0784

> <Gold.PLP.PLP>
-45.5985

> <Gold.PLP.part.hbond>
-2.0000

> <Gold.PLP.part.metal>
0.0000

> <Gold.PLP.part.buried>
-4.8221

> <Gold.PLP.part.nonpolar>
-38.4688

> <Gold.PLP.part.repulsive>
0.2844

> <Gold.PLP.ligand.clash>
0.8230

> <Gold.PLP.ligand.torsion>
0.3645

> <Gold.PLP.Chemscore.Hbond>
1.0000

> <Gold.PLP.Chemscore.CHOScore>
0.0000

> <Gold.PLP.Chemscore.Metal>
0.0000

> <Gold.Chemscore.Hbonds>
donor molecule, donor type, donor heavy atom, donor atom, acceptor molecule, acceptor atom, score
      L1  H     4    26       P1  8028  0.75

> <Gold.PLP.Chemscore.Internal.Correction>
0.0320

> <Gold.Rescore>
     Score         DG    S(hbond)    S(metal)    S(lipo)     H(rot)  DE(clash)    DE(int)     intcor
     12.62     -14.30       1.00        0.00      85.72       1.78       0.17       1.51       ----

> <Gold.Chemscore.Fitness>
12.6150

> <Gold.Chemscore.DG>
-14.2957

> <Gold.Chemscore.ZeroCoef>
-5.4800

> <Gold.Chemscore.Hbond>
0.9999

> <Gold.Chemscore.Metal>
0.0000

> <Gold.Chemscore.Lipo>
85.7203

> <Gold.Chemscore.Internal_Hbond>
0.0000

> <Gold.Chemscore.DEClash>
0.1747

> <Gold.Chemscore.DEInternal>
1.5061

> <Gold.Chemscore.Rot>
1.7785

> <Gold.Chemscore.Internal.Correction>
   9.000000E+99

> <Gold.Chemscore.Hbonds>
donor molecule, donor type, donor heavy atom, donor atom, acceptor molecule, acceptor atom, score
      L1  H     4    26       P1  8028  0.75

> <Gold.Chemscore.Hbond.Weighted>
-3.3395

> <Gold.Chemscore.Metal.Weighted>
-0.0000

> <Gold.Chemscore.Lipo.Weighted>
-10.0293

> <Gold.Chemscore.Internal_Hbond.Weighted>
0.0000

> <Gold.Chemscore.DEClash.Weighted>
0.1747

> <Gold.Chemscore.DEInternal.Weighted>
1.5061

> <Gold.Chemscore.Rot.Weighted>
4.5530

> <Gold.Chemscore.Internal.Correction.Weighted>
   9.000000E+99

> <Gold.Protein.RotatedTorsions>
[ 6907 6896 6895 6894 ] final   89.17 input  -60.11 | X-H torsion
[ 7974 7965 7964 7962 ] final  172.92 input  175.53 | X-H torsion
[ 8008 7997 7996 7995 ] final  -16.38 input   59.86 | X-H torsion
[ 10167 10162 10161 10158 ] final   91.57 input  -65.29 | X-H torsion
[ 10718 10713 10712 10709 ] final   53.89 input   66.30 | X-H torsion
[ 10763 10752 10751 10750 ] final  158.77 input  -60.55 | X-H torsion
[ 11005 11000 10999 10996 ] final  146.90 input  -57.11 | X-H torsion

> <Gold.Protein.ActiveResidues>
 VAL166  LYS551  ARG553  GLY616  TRP617  ASP618  TYR619  PRO620  LYS621  CYS622 
 ASP623  PHE694  ASN695  SER759  ASP760  ASP761  ALA762  ILE779  LEU786  VAL792 
 PHE793  MET794  SER795  GLU796  ALA797  LYS798  CYS799  TRP800  GLU811  SER814 

> <Gold.Protein.RotatedAtoms>
  152.5433  134.2008  159.8711 H   0  0  0  0  0  0  0  0  0  0  0  0  # atno 6907 bound_to 6896
  151.1997  133.4611  159.2603 H   0  0  0  0  0  0  0  0  0  0  0  0  # atno 6908 bound_to 6896
  151.1001  134.9980  159.8500 H   0  0  0  0  0  0  0  0  0  0  0  0  # atno 6909 bound_to 6896
  144.7256  139.9570  143.6433 H   0  0  0  0  0  0  0  0  0  0  0  0  # atno 7974 bound_to 7965
  154.5057  140.2171  155.9256 H   0  0  0  0  0  0  0  0  0  0  0  0  # atno 8008 bound_to 7997
  156.1490  140.3165  155.8584 H   0  0  0  0  0  0  0  0  0  0  0  0  # atno 8009 bound_to 7997
  155.3974  140.0482  157.3029 H   0  0  0  0  0  0  0  0  0  0  0  0  # atno 8010 bound_to 7997
  139.8362  144.6663  150.9339 H   0  0  0  0  0  0  0  0  0  0  0  0  # atno 10167 bound_to 10162
  157.5208  130.8564  149.8556 H   0  0  0  0  0  0  0  0  0  0  0  0  # atno 10718 bound_to 10713
  154.2213  135.2782  155.2924 H   0  0  0  0  0  0  0  0  0  0  0  0  # atno 10763 bound_to 10752
  154.5699  135.5621  153.7089 H   0  0  0  0  0  0  0  0  0  0  0  0  # atno 10764 bound_to 10752
  153.0041  135.6319  154.2353 H   0  0  0  0  0  0  0  0  0  0  0  0  # atno 10765 bound_to 10752
  140.0831  134.9085  157.1532 H   0  0  0  0  0  0  0  0  0  0  0  0  # atno 11005 bound_to 11000
  146.0667  139.3658  143.0548 LP  0  0  0  0  0  0  0  0  0  0  0  0  # atno 17320 bound_to 7965
  145.8022  140.9766  143.0993 LP  0  0  0  0  0  0  0  0  0  0  0  0  # atno 17321 bound_to 7965
  140.7802  143.3955  151.1237 LP  0  0  0  0  0  0  0  0  0  0  0  0  # atno 17342 bound_to 10162
  139.7605  143.8642  152.3099 LP  0  0  0  0  0  0  0  0  0  0  0  0  # atno 17343 bound_to 10162
  156.0352  130.3753  150.1579 LP  0  0  0  0  0  0  0  0  0  0  0  0  # atno 17370 bound_to 10713
  156.9767  130.9851  151.3446 LP  0  0  0  0  0  0  0  0  0  0  0  0  # atno 17371 bound_to 10713
  140.3459  134.2652  155.7205 LP  0  0  0  0  0  0  0  0  0  0  0  0  # atno 17394 bound_to 11000
  141.2053  133.7862  157.0238 LP  0  0  0  0  0  0  0  0  0  0  0  0  # atno 17395 bound_to 11000

$$$$
