AV-unprocessed.smi:701|AV-procd|sdf|3413|dock2
  -GOLD-   22720 0393D 1   1.00000     0.00000
 Structure written by MMmdl.
 48 50  0  0  0  0  0  0  0  0  2 V2000
  149.5853  133.7242  153.9895 C   0  0  0  0  0  0  0  0  0  0  0  0
  148.2241  134.0843  154.5879 C   0  0  0  0  0  0  0  0  0  0  0  0
  147.4753  134.7915  153.6142 O   0  0  0  0  0  0  0  0  0  0  0  0
  146.1055  134.9511  153.9625 C   0  0  1  0  0  0  0  0  0  0  0  0
  145.8841  136.1266  154.9224 C   0  0  0  0  0  0  0  0  0  0  0  0
  145.6322  137.0124  153.6938 C   0  0  1  0  0  0  0  0  0  0  0  0
  146.8523  137.6897  153.2532 N   0  0  0  0  0  0  0  0  0  0  0  0
  147.3666  138.7870  153.8254 C   0  0  0  0  0  0  0  0  0  0  0  0
  146.8466  139.3457  154.7926 O   0  0  0  0  0  0  0  0  0  0  0  0
  148.6824  139.3002  153.2235 C   0  0  0  0  0  0  0  0  0  0  0  0
  149.7931  139.3280  154.1886 N   0  0  0  0  0  0  0  0  0  0  0  0
  150.7805  138.3337  154.0728 C   0  0  0  0  0  0  0  0  0  0  0  0
  151.8276  138.2706  154.9167 C   0  0  0  0  0  0  0  0  0  0  0  0
  151.9237  139.2707  155.9726 C   0  0  0  0  0  0  0  0  0  0  0  0
  152.8762  139.2320  156.7491 O   0  0  0  0  0  0  0  0  0  0  0  0
  150.9382  140.2126  156.0466 N   0  5  0  0  0  0  0  0  0  0  0  0
  149.8757  140.2610  155.1842 C   0  0  0  0  0  0  0  0  0  0  0  0
  148.9933  141.1155  155.2734 O   0  0  0  0  0  0  0  0  0  0  0  0
  145.3054  135.7273  152.8822 C   0  0  0  0  0  0  0  0  0  0  0  0
  145.8197  135.6376  151.4279 C   0  0  0  0  0  0  0  0  0  0  0  0
  145.5808  134.2567  150.7949 C   0  0  0  0  0  0  0  0  0  0  0  0
  144.0911  133.8942  150.8046 C   0  0  0  0  0  0  0  0  0  0  0  0
  143.5043  134.0103  152.2162 C   0  0  0  0  0  0  0  0  0  0  0  0
  143.7998  135.3893  152.8328 C   0  0  0  0  0  0  0  0  0  0  0  0
  150.1945  133.1753  154.7078 H   0  0  0  0  0  0  0  0  0  0  0  0
  150.1341  134.6208  153.7003 H   0  0  0  0  0  0  0  0  0  0  0  0
  149.4700  133.1005  153.1027 H   0  0  0  0  0  0  0  0  0  0  0  0
  147.6933  133.1778  154.8820 H   0  0  0  0  0  0  0  0  0  0  0  0
  148.3630  134.6905  155.4836 H   0  0  0  0  0  0  0  0  0  0  0  0
  145.6334  134.0199  154.2784 H   0  0  0  0  0  0  0  0  0  0  0  0
  144.9929  136.0025  155.5388 H   0  0  0  0  0  0  0  0  0  0  0  0
  146.7450  136.4040  155.5314 H   0  0  0  0  0  0  0  0  0  0  0  0
  144.7791  137.6829  153.8098 H   0  0  0  0  0  0  0  0  0  0  0  0
  147.3433  137.2862  152.4686 H   0  0  0  0  0  0  0  0  0  0  0  0
  148.9386  138.6643  152.3750 H   0  0  0  0  0  0  0  0  0  0  0  0
  148.5225  140.2925  152.7976 H   0  0  0  0  0  0  0  0  0  0  0  0
  150.6296  137.6280  153.2692 H   0  0  0  0  0  0  0  0  0  0  0  0
  152.5750  137.4974  154.8172 H   0  0  0  0  0  0  0  0  0  0  0  0
  145.3366  136.4004  150.8158 H   0  0  0  0  0  0  0  0  0  0  0  0
  146.8863  135.8549  151.3709 H   0  0  0  0  0  0  0  0  0  0  0  0
  145.9578  134.2455  149.7720 H   0  0  0  0  0  0  0  0  0  0  0  0
  146.1468  133.5008  151.3408 H   0  0  0  0  0  0  0  0  0  0  0  0
  143.5519  134.5633  150.1329 H   0  0  0  0  0  0  0  0  0  0  0  0
  143.9462  132.8847  150.4188 H   0  0  0  0  0  0  0  0  0  0  0  0
  142.4277  133.8407  152.1840 H   0  0  0  0  0  0  0  0  0  0  0  0
  143.9186  133.2249  152.8488 H   0  0  0  0  0  0  0  0  0  0  0  0
  143.3651  135.4229  153.8323 H   0  0  0  0  0  0  0  0  0  0  0  0
  143.2688  136.1529  152.2626 H   0  0  0  0  0  0  0  0  0  0  0  0
  1  2  1  0  0  0  0
  1 25  1  0  0  0  0
  1 26  1  0  0  0  0
  1 27  1  0  0  0  0
  2  3  1  0  0  0  0
  2 28  1  0  0  0  0
  2 29  1  0  0  0  0
  3  4  1  0  0  0  0
  4 19  1  0  0  0  0
  4  5  1  0  0  0  0
  4 30  1  0  0  0  0
  5  6  1  0  0  0  0
  5 31  1  0  0  0  0
  5 32  1  0  0  0  0
  6  7  1  0  0  0  0
  6 19  1  0  0  0  0
  6 33  1  0  0  0  0
  7  8  1  0  0  0  0
  7 34  1  0  0  0  0
  8  9  2  0  0  0  0
  8 10  1  0  0  0  0
 10 11  1  0  0  0  0
 10 35  1  0  0  0  0
 10 36  1  0  0  0  0
 11 17  1  0  0  0  0
 11 12  1  0  0  0  0
 12 13  2  0  0  0  0
 12 37  1  0  0  0  0
 13 14  1  0  0  0  0
 13 38  1  0  0  0  0
 14 15  2  0  0  0  0
 14 16  1  0  0  0  0
 16 17  1  0  0  0  0
 17 18  2  0  0  0  0
 19 24  1  0  0  0  0
 19 20  1  0  0  0  0
 20 21  1  0  0  0  0
 20 39  1  0  0  0  0
 20 40  1  0  0  0  0
 21 22  1  0  0  0  0
 21 41  1  0  0  0  0
 21 42  1  0  0  0  0
 22 23  1  0  0  0  0
 22 43  1  0  0  0  0
 22 44  1  0  0  0  0
 23 24  1  0  0  0  0
 23 45  1  0  0  0  0
 23 46  1  0  0  0  0
 24 47  1  0  0  0  0
 24 48  1  0  0  0  0
M  CHG  1  16  -1
M  END
> <s_m_source_file>
AV-unprocessed.smi

> <i_m_source_file_index>
701

> <i_lp_mmshare_version>
43012

> <i_f3d_flags>
0

> <s_epik_input>
W0NIMl0xW0NIMl1bQ0gyXVtDSDJdW0NIMl1DMTJbQ0BIXShPW0NIMl1bQ0gzXSlbQ0gyXVtDQEhdMltOSF1DKD1PKVtDSDJdbjNbY0hdW2NIXWMoPU8pW25IXWMzPU8=

> <s_epik_cmdline>
J2VwaWtfcHl0aG9uJywgJy1waCcsICc3LjAnLCAnLXRuJywgJzgnLCAnLW1hJywgJzIwMCcsICctbWV0YWxfYmluZGluZycsICctaW1hZScsICc8aW5maWxlLm1hZT4nLCAnLW9tYWUnLCAnPG91dGZpbGUubWFlPic=

> <r_lp_tautomer_probability>
0.999537

> <r_epik_Ionization_Penalty>
3.12423

> <r_epik_Ionization_Penalty_Charging>
2.92877e-08

> <r_epik_Ionization_Penalty_Neutral>
3.12423

> <r_epik_State_Penalty>
3.12332

> <r_epik_Charging_Adjusted_Penalty>
3.12332

> <i_epik_Tot_Q>
-1

> <i_epik_Tot_abs_Q>
1

> <r_epik_Metal_State_Penalty>
0.463873

> <b_epik_Metal_Only>
1

> <s_lp_Force_Field>
OPLS_2005

> <r_lp_Energy>
39.3964

> <b_lp_Chiralities_Consistent>
1

> <s_lp_Variant>
AV-unprocessed.smi:701-6

> <Gold.Version>
5.8.1

> <Gold.Id.Protein>
6NUR|6NUR_protein|mol2

> <Gold.PLP.Fitness>
38.2034

> <Gold.PLP.PLP>
-29.3254

> <Gold.PLP.part.hbond>
-2.0000

> <Gold.PLP.part.metal>
0.0000

> <Gold.PLP.part.buried>
0.0799

> <Gold.PLP.part.nonpolar>
-29.8244

> <Gold.PLP.part.repulsive>
2.7401

> <Gold.PLP.ligand.clash>
0.0000

> <Gold.PLP.ligand.torsion>
0.4530

> <Gold.PLP.Chemscore.Hbond>
1.9760

> <Gold.PLP.Chemscore.CHOScore>
1.1639

> <Gold.PLP.Chemscore.Metal>
0.0000

> <Gold.Chemscore.Hbonds>
donor molecule, donor type, donor heavy atom, donor atom, acceptor molecule, acceptor atom, score
      L1  H     7    34       P1  7948  0.94
      P1  H  7997  8009       L1    15  1.00
      L1  C    12    37       P1  7948  0.50
      L1  C    12    37       P1  7949  0.65

> <Gold.PLP.Chemscore.Internal.Correction>
0.3643

> <Gold.Rescore>
     Score         DG    S(hbond)    S(metal)    S(lipo)     H(rot)  DE(clash)    DE(int)     intcor
     10.62     -14.33       1.92        0.00      65.62       2.04       1.99       1.73       ----

> <Gold.Chemscore.Fitness>
10.6150

> <Gold.Chemscore.DG>
-14.3334

> <Gold.Chemscore.ZeroCoef>
-5.4800

> <Gold.Chemscore.Hbond>
1.9154

> <Gold.Chemscore.Metal>
0.0000

> <Gold.Chemscore.Lipo>
65.6246

> <Gold.Chemscore.Internal_Hbond>
0.0000

> <Gold.Chemscore.DEClash>
1.9916

> <Gold.Chemscore.DEInternal>
1.7268

> <Gold.Chemscore.Rot>
2.0399

> <Gold.Chemscore.Internal.Correction>
   9.000000E+99

> <Gold.Chemscore.Hbonds>
donor molecule, donor type, donor heavy atom, donor atom, acceptor molecule, acceptor atom, score
      L1  H     7    34       P1  7948  0.87
      P1  H  7997  8009       L1    15  1.00

> <Gold.Chemscore.Hbond.Weighted>
-6.3975

> <Gold.Chemscore.Metal.Weighted>
-0.0000

> <Gold.Chemscore.Lipo.Weighted>
-7.6781

> <Gold.Chemscore.Internal_Hbond.Weighted>
0.0000

> <Gold.Chemscore.DEClash.Weighted>
1.9916

> <Gold.Chemscore.DEInternal.Weighted>
1.7268

> <Gold.Chemscore.Rot.Weighted>
5.2222

> <Gold.Chemscore.Internal.Correction.Weighted>
   9.000000E+99

> <Gold.Protein.RotatedTorsions>
[ 6907 6896 6895 6894 ] final  -77.46 input  -60.11 | X-H torsion
[ 7974 7965 7964 7962 ] final  -95.59 input  175.53 | X-H torsion
[ 8008 7997 7996 7995 ] final -179.78 input   59.86 | X-H torsion
[ 10167 10162 10161 10158 ] final  -42.45 input  -65.29 | X-H torsion
[ 10718 10713 10712 10709 ] final   72.47 input   66.30 | X-H torsion
[ 10763 10752 10751 10750 ] final  120.36 input  -60.55 | X-H torsion
[ 11005 11000 10999 10996 ] final   66.20 input  -57.11 | X-H torsion

> <Gold.Protein.ActiveResidues>
 VAL166  LYS551  ARG553  GLY616  TRP617  ASP618  TYR619  PRO620  LYS621  CYS622 
 ASP623  PHE694  ASN695  SER759  ASP760  ASP761  ALA762  ILE779  LEU786  VAL792 
 PHE793  MET794  SER795  GLU796  ALA797  LYS798  CYS799  TRP800  GLU811  SER814 

> <Gold.Protein.RotatedAtoms>
  150.6998  134.4419  159.5295 H   0  0  0  0  0  0  0  0  0  0  0  0  # atno 6907 bound_to 6896
  152.2128  134.8483  160.0504 H   0  0  0  0  0  0  0  0  0  0  0  0  # atno 6908 bound_to 6896
  151.9362  133.3590  159.3985 H   0  0  0  0  0  0  0  0  0  0  0  0  # atno 6909 bound_to 6896
  145.3581  140.9487  143.2516 H   0  0  0  0  0  0  0  0  0  0  0  0  # atno 7974 bound_to 7965
  156.0344  140.1289  157.0223 H   0  0  0  0  0  0  0  0  0  0  0  0  # atno 8008 bound_to 7997
  154.4363  140.1043  156.6216 H   0  0  0  0  0  0  0  0  0  0  0  0  # atno 8009 bound_to 7997
  155.5759  140.3467  155.4529 H   0  0  0  0  0  0  0  0  0  0  0  0  # atno 8010 bound_to 7997
  140.6969  143.3037  151.3210 H   0  0  0  0  0  0  0  0  0  0  0  0  # atno 10167 bound_to 10162
  157.6502  130.9580  150.0933 H   0  0  0  0  0  0  0  0  0  0  0  0  # atno 10718 bound_to 10713
  153.5973  135.3454  155.2932 H   0  0  0  0  0  0  0  0  0  0  0  0  # atno 10763 bound_to 10752
  154.8642  135.4219  154.2451 H   0  0  0  0  0  0  0  0  0  0  0  0  # atno 10764 bound_to 10752
  153.3272  135.7042  153.7051 H   0  0  0  0  0  0  0  0  0  0  0  0  # atno 10765 bound_to 10752
  139.9847  134.6687  156.0198 H   0  0  0  0  0  0  0  0  0  0  0  0  # atno 11005 bound_to 11000
  144.8667  139.5097  143.6787 LP  0  0  0  0  0  0  0  0  0  0  0  0  # atno 17320 bound_to 7965
  146.2939  139.7220  142.9141 LP  0  0  0  0  0  0  0  0  0  0  0  0  # atno 17321 bound_to 7965
  139.6435  144.0495  152.2573 LP  0  0  0  0  0  0  0  0  0  0  0  0  # atno 17342 bound_to 10162
  140.0008  144.6295  150.7732 LP  0  0  0  0  0  0  0  0  0  0  0  0  # atno 17343 bound_to 10162
  156.1876  130.3653  149.8952 LP  0  0  0  0  0  0  0  0  0  0  0  0  # atno 17370 bound_to 10713
  156.6889  130.8888  151.3585 LP  0  0  0  0  0  0  0  0  0  0  0  0  # atno 17371 bound_to 10713
  141.1514  133.6548  156.4024 LP  0  0  0  0  0  0  0  0  0  0  0  0  # atno 17394 bound_to 11000
  140.5026  134.6471  157.5254 LP  0  0  0  0  0  0  0  0  0  0  0  0  # atno 17395 bound_to 11000

$$$$
