AV-unprocessed.smi:2424|AV-procd|sdf|9571|dock1
  -GOLD-   2272013203D 1   1.00000     0.00000
 Structure written by MMmdl.
 49 50  0  0  0  0  0  0  0  0  2 V2000
  147.1240  140.9001  153.1814 C   0  0  0  0  0  0  0  0  0  0  0  0
  146.7703  139.4905  153.6855 C   0  0  0  0  0  0  0  0  0  0  0  0
  147.6029  138.9978  154.8934 C   0  0  0  0  0  0  0  0  0  0  0  0
  147.1131  139.7201  156.1773 C   0  0  0  0  0  0  0  0  0  0  0  0
  145.6354  139.5142  156.5601 C   0  0  0  0  0  0  0  0  0  0  0  0
  147.7429  137.4574  155.0865 C   0  0  1  0  0  0  0  0  0  0  0  0
  147.5843  136.6857  153.8502 N   0  0  0  0  0  0  0  0  0  0  0  0
  146.6176  135.7899  153.6119 C   0  0  0  0  0  0  0  0  0  0  0  0
  145.7264  135.5246  154.4177 O   0  0  0  0  0  0  0  0  0  0  0  0
  146.7714  135.2418  152.3940 N   0  0  0  0  0  0  0  0  0  0  0  0
  145.9716  134.2854  151.7566 C   0  0  0  0  0  0  0  0  0  0  0  0
  144.9809  134.6802  150.8809 C   0  0  0  0  0  0  0  0  0  0  0  0
  144.1180  133.9162  150.1771 N   0  5  0  0  0  0  0  0  0  0  0  0
  144.1960  132.5621  150.3192 C   0  0  0  0  0  0  0  0  0  0  0  0
  143.4467  131.8030  149.7058 O   0  0  0  0  0  0  0  0  0  0  0  0
  145.2080  131.9992  151.2358 C   0  0  0  0  0  0  0  0  0  0  0  0
  145.2828  130.4908  151.4019 C   0  0  0  0  0  0  0  0  0  0  0  0
  146.0411  132.8323  151.9083 C   0  0  0  0  0  0  0  0  0  0  0  0
  149.2293  137.6495  155.4376 C   0  0  1  0  0  0  0  0  0  0  0  0
  150.2635  136.5992  155.0383 C   0  0  0  0  0  0  0  0  0  0  0  0
  149.1393  138.9759  154.6676 C   0  0  2  0  0  0  0  0  0  0  0  0
  149.8276  140.0577  155.2755 O   0  0  0  0  0  0  0  0  0  0  0  0
  151.2194  139.8304  155.4129 C   0  0  0  0  0  0  0  0  0  0  0  0
  146.4304  141.2119  152.4007 H   0  0  0  0  0  0  0  0  0  0  0  0
  148.1259  140.9396  152.7555 H   0  0  0  0  0  0  0  0  0  0  0  0
  147.0724  141.6393  153.9801 H   0  0  0  0  0  0  0  0  0  0  0  0
  145.7097  139.4855  153.9378 H   0  0  0  0  0  0  0  0  0  0  0  0
  146.8416  138.7858  152.8577 H   0  0  0  0  0  0  0  0  0  0  0  0
  147.7333  139.4319  157.0262 H   0  0  0  0  0  0  0  0  0  0  0  0
  147.2734  140.7938  156.0809 H   0  0  0  0  0  0  0  0  0  0  0  0
  145.3710  140.1536  157.4024 H   0  0  0  0  0  0  0  0  0  0  0  0
  145.4324  138.4886  156.8668 H   0  0  0  0  0  0  0  0  0  0  0  0
  144.9594  139.7598  155.7425 H   0  0  0  0  0  0  0  0  0  0  0  0
  147.1652  137.0745  155.9296 H   0  0  0  0  0  0  0  0  0  0  0  0
  148.2713  136.8405  153.1274 H   0  0  0  0  0  0  0  0  0  0  0  0
  147.5685  135.5516  151.8578 H   0  0  0  0  0  0  0  0  0  0  0  0
  144.8683  135.7739  150.7174 H   0  0  0  0  0  0  0  0  0  0  0  0
  146.0629  130.2063  152.1086 H   0  0  0  0  0  0  0  0  0  0  0  0
  145.5029  130.0129  150.4466 H   0  0  0  0  0  0  0  0  0  0  0  0
  144.3344  130.1006  151.7725 H   0  0  0  0  0  0  0  0  0  0  0  0
  146.7621  132.3868  152.5738 H   0  0  0  0  0  0  0  0  0  0  0  0
  149.3057  137.8546  156.5065 H   0  0  0  0  0  0  0  0  0  0  0  0
  150.3598  136.5169  153.9554 H   0  0  0  0  0  0  0  0  0  0  0  0
  149.9922  135.6154  155.4214 H   0  0  0  0  0  0  0  0  0  0  0  0
  151.2486  136.8422  155.4353 H   0  0  0  0  0  0  0  0  0  0  0  0
  149.3893  138.8623  153.6101 H   0  0  0  0  0  0  0  0  0  0  0  0
  151.6900  140.7105  155.8509 H   0  0  0  0  0  0  0  0  0  0  0  0
  151.6870  139.6468  154.4448 H   0  0  0  0  0  0  0  0  0  0  0  0
  151.4240  138.9842  156.0681 H   0  0  0  0  0  0  0  0  0  0  0  0
  1  2  1  0  0  0  0
  1 24  1  0  0  0  0
  1 25  1  0  0  0  0
  1 26  1  0  0  0  0
  2  3  1  0  0  0  0
  2 27  1  0  0  0  0
  2 28  1  0  0  0  0
  3 21  1  0  0  0  0
  3  4  1  0  0  0  0
  3  6  1  0  0  0  0
  4  5  1  0  0  0  0
  4 29  1  0  0  0  0
  4 30  1  0  0  0  0
  5 31  1  0  0  0  0
  5 32  1  0  0  0  0
  5 33  1  0  0  0  0
  6  7  1  0  0  0  0
  6 19  1  0  0  0  0
  6 34  1  0  0  0  0
  7  8  1  0  0  0  0
  7 35  1  0  0  0  0
  8  9  2  0  0  0  0
  8 10  1  0  0  0  0
 10 11  1  0  0  0  0
 10 36  1  0  0  0  0
 11 18  1  0  0  0  0
 11 12  2  0  0  0  0
 12 13  1  0  0  0  0
 12 37  1  0  0  0  0
 13 14  1  0  0  0  0
 14 15  2  0  0  0  0
 14 16  1  0  0  0  0
 16 17  1  0  0  0  0
 16 18  2  0  0  0  0
 17 38  1  0  0  0  0
 17 39  1  0  0  0  0
 17 40  1  0  0  0  0
 18 41  1  0  0  0  0
 19 20  1  0  0  0  0
 19 21  1  0  0  0  0
 19 42  1  0  0  0  0
 20 43  1  0  0  0  0
 20 44  1  0  0  0  0
 20 45  1  0  0  0  0
 21 22  1  0  0  0  0
 21 46  1  0  0  0  0
 22 23  1  0  0  0  0
 23 47  1  0  0  0  0
 23 48  1  0  0  0  0
 23 49  1  0  0  0  0
M  CHG  1  13  -1
M  END
> <s_m_source_file>
AV-unprocessed.smi

> <i_m_source_file_index>
2424

> <i_lp_mmshare_version>
43012

> <i_f3d_flags>
0

> <s_epik_input>
W0NIM11PW0NAQEhdMVtDQEhdKFtDSDNdKVtDQEBIXShDMShbQ0gyXVtDSDNdKVtDSDJdW0NIM10pW05IXUMoPU8pW05IXWMyW2NIXVtuSF1jKD1PKWMoW0NIM10pW2NIXTI=

> <s_epik_cmdline>
J2VwaWtfcHl0aG9uJywgJy1waCcsICc3LjAnLCAnLXRuJywgJzgnLCAnLW1hJywgJzIwMCcsICctbWV0YWxfYmluZGluZycsICctaW1hZScsICc8aW5maWxlLm1hZT4nLCAnLW9tYWUnLCAnPG91dGZpbGUubWFlPic=

> <r_lp_tautomer_probability>
1

> <r_epik_Ionization_Penalty>
7.6122

> <r_epik_Ionization_Penalty_Charging>
1.53843

> <r_epik_Ionization_Penalty_Neutral>
6.07377

> <r_epik_State_Penalty>
6.07371

> <r_epik_Charging_Adjusted_Penalty>
7.61214

> <i_epik_Tot_Q>
-1

> <i_epik_Tot_abs_Q>
1

> <r_epik_Metal_State_Penalty>
2.02136

> <b_epik_Metal_Only>
1

> <s_lp_Force_Field>
OPLS_2005

> <r_lp_Energy>
40.0486

> <b_lp_Chiralities_Consistent>
1

> <s_lp_Variant>
AV-unprocessed.smi:2424-13

> <Gold.Version>
5.8.1

> <Gold.Id.Protein>
6NUR|6NUR_protein|mol2

> <Gold.PLP.Fitness>
35.3318

> <Gold.PLP.PLP>
-28.6739

> <Gold.PLP.part.hbond>
-2.4588

> <Gold.PLP.part.metal>
0.0000

> <Gold.PLP.part.buried>
-5.0800

> <Gold.PLP.part.nonpolar>
-22.8657

> <Gold.PLP.part.repulsive>
1.3334

> <Gold.PLP.ligand.clash>
0.0000

> <Gold.PLP.ligand.torsion>
1.2561

> <Gold.PLP.Chemscore.Hbond>
2.8631

> <Gold.PLP.Chemscore.CHOScore>
0.0000

> <Gold.PLP.Chemscore.Metal>
0.0000

> <Gold.Chemscore.Hbonds>
donor molecule, donor type, donor heavy atom, donor atom, acceptor molecule, acceptor atom, score
      L1  H     7    35       P1  7948  0.91
      L1  H    10    36       P1  7948  0.93
      P1  H 10785 10796       L1    15  1.00

> <Gold.PLP.Chemscore.Internal.Correction>
0.5809

> <Gold.Rescore>
     Score         DG    S(hbond)    S(metal)    S(lipo)     H(rot)  DE(clash)    DE(int)     intcor
     16.59     -18.81       2.65        0.00      71.51       1.52       1.03       1.19       ----

> <Gold.Chemscore.Fitness>
16.5863

> <Gold.Chemscore.DG>
-18.8097

> <Gold.Chemscore.ZeroCoef>
-5.4800

> <Gold.Chemscore.Hbond>
2.6513

> <Gold.Chemscore.Metal>
0.0000

> <Gold.Chemscore.Lipo>
71.5098

> <Gold.Chemscore.Internal_Hbond>
0.0000

> <Gold.Chemscore.DEClash>
1.0289

> <Gold.Chemscore.DEInternal>
1.1945

> <Gold.Chemscore.Rot>
1.5204

> <Gold.Chemscore.Internal.Correction>
   9.000000E+99

> <Gold.Chemscore.Hbonds>
donor molecule, donor type, donor heavy atom, donor atom, acceptor molecule, acceptor atom, score
      L1  H     7    35       P1  7948  0.85
      L1  H    10    36       P1  7948  0.84
      P1  H 10785 10796       L1    15  0.96

> <Gold.Chemscore.Hbond.Weighted>
-8.8553

> <Gold.Chemscore.Metal.Weighted>
-0.0000

> <Gold.Chemscore.Lipo.Weighted>
-8.3666

> <Gold.Chemscore.Internal_Hbond.Weighted>
0.0000

> <Gold.Chemscore.DEClash.Weighted>
1.0289

> <Gold.Chemscore.DEInternal.Weighted>
1.1945

> <Gold.Chemscore.Rot.Weighted>
3.8922

> <Gold.Chemscore.Internal.Correction.Weighted>
   9.000000E+99

> <Gold.Protein.RotatedTorsions>
[ 6907 6896 6895 6894 ] final  166.93 input  -60.11 | X-H torsion
[ 7974 7965 7964 7962 ] final  -51.54 input  175.53 | X-H torsion
[ 8008 7997 7996 7995 ] final -178.18 input   59.86 | X-H torsion
[ 10167 10162 10161 10158 ] final -142.90 input  -65.29 | X-H torsion
[ 10718 10713 10712 10709 ] final  173.41 input   66.30 | X-H torsion
[ 10763 10752 10751 10750 ] final  -92.50 input  -60.55 | X-H torsion
[ 11005 11000 10999 10996 ] final  -10.37 input  -57.11 | X-H torsion

> <Gold.Protein.ActiveResidues>
 VAL166  LYS551  ARG553  GLY616  TRP617  ASP618  TYR619  PRO620  LYS621  CYS622 
 ASP623  PHE694  ASN695  SER759  ASP760  ASP761  ALA762  ILE779  LEU786  VAL792 
 PHE793  MET794  SER795  GLU796  ALA797  LYS798  CYS799  TRP800  GLU811  SER814 

> <Gold.Protein.RotatedAtoms>
  151.8712  133.3476  159.3735 H   0  0  0  0  0  0  0  0  0  0  0  0  # atno 6907 bound_to 6896
  150.7152  134.5110  159.5617 H   0  0  0  0  0  0  0  0  0  0  0  0  # atno 6908 bound_to 6896
  152.2643  134.8001  160.0476 H   0  0  0  0  0  0  0  0  0  0  0  0  # atno 6909 bound_to 6896
  145.9179  140.7859  142.9662 H   0  0  0  0  0  0  0  0  0  0  0  0  # atno 7974 bound_to 7965
  156.0158  140.1250  157.0408 H   0  0  0  0  0  0  0  0  0  0  0  0  # atno 8008 bound_to 7997
  154.4293  140.1078  156.5964 H   0  0  0  0  0  0  0  0  0  0  0  0  # atno 8009 bound_to 7997
  155.6015  140.3470  155.4597 H   0  0  0  0  0  0  0  0  0  0  0  0  # atno 8010 bound_to 7997
  139.8044  143.7789  152.2660 H   0  0  0  0  0  0  0  0  0  0  0  0  # atno 10167 bound_to 10162
  156.9648  131.0072  151.2919 H   0  0  0  0  0  0  0  0  0  0  0  0  # atno 10718 bound_to 10713
  154.6867  135.5229  153.8336 H   0  0  0  0  0  0  0  0  0  0  0  0  # atno 10763 bound_to 10752
  153.0603  135.6566  154.0489 H   0  0  0  0  0  0  0  0  0  0  0  0  # atno 10764 bound_to 10752
  154.0369  135.2980  155.3340 H   0  0  0  0  0  0  0  0  0  0  0  0  # atno 10765 bound_to 10752
  140.7440  133.8647  155.8991 H   0  0  0  0  0  0  0  0  0  0  0  0  # atno 11005 bound_to 11000
  144.6750  140.1929  143.7395 LP  0  0  0  0  0  0  0  0  0  0  0  0  # atno 17320 bound_to 7965
  145.8588  139.2212  143.1729 LP  0  0  0  0  0  0  0  0  0  0  0  0  # atno 17321 bound_to 7965
  139.7919  144.7407  150.9944 LP  0  0  0  0  0  0  0  0  0  0  0  0  # atno 17342 bound_to 10162
  140.7819  143.4434  151.0518 LP  0  0  0  0  0  0  0  0  0  0  0  0  # atno 17343 bound_to 10162
  157.5633  130.8261  149.8295 LP  0  0  0  0  0  0  0  0  0  0  0  0  # atno 17370 bound_to 10713
  156.0307  130.3765  150.1695 LP  0  0  0  0  0  0  0  0  0  0  0  0  # atno 17371 bound_to 10713
  140.9811  134.1404  157.4493 LP  0  0  0  0  0  0  0  0  0  0  0  0  # atno 17394 bound_to 11000
  139.8800  135.0011  156.6046 LP  0  0  0  0  0  0  0  0  0  0  0  0  # atno 17395 bound_to 11000

$$$$
