AV-unprocessed.smi:2171|AV-procd|sdf|8829|dock2
  -GOLD-   2272012 23D 1   1.00000     0.00000
 Structure written by MMmdl.
 39 41  0  0  0  0  0  0  0  0  2 V2000
  147.0445  141.0577  155.0221 O   0  0  0  0  0  0  0  0  0  0  0  0
  147.8542  140.9537  154.1015 C   0  0  0  0  0  0  0  0  0  0  0  0
  149.1828  141.7113  154.1601 C   0  0  0  0  0  0  0  0  0  0  0  0
  149.9449  141.3539  155.3458 N   0  0  0  0  0  0  0  0  0  0  0  0
  149.7924  141.8205  156.6353 C   0  0  0  0  0  0  0  0  0  0  0  0
  150.7441  141.2129  157.4031 C   0  0  0  0  0  0  0  0  0  0  0  0
  151.4375  140.3764  156.4839 C   0  0  0  0  0  0  0  0  0  0  0  0
  150.9572  140.4626  155.2541 N   0  0  0  0  0  0  0  0  0  0  0  0
  147.6534  140.1758  153.0253 N   0  0  0  0  0  0  0  0  0  0  0  0
  146.5180  139.2777  152.8316 C   0  0  1  0  0  0  0  0  0  0  0  0
  146.5020  138.6219  151.4374 C   0  0  0  0  0  0  0  0  0  0  0  0
  146.0987  137.1666  151.6970 C   0  0  0  0  0  0  0  0  0  0  0  0
  146.6906  136.8919  153.0113 N   0  3  2  0  0  0  0  0  0  0  0  0
  146.3082  135.6500  153.7130 C   0  0  0  0  0  0  0  0  0  0  0  0
  147.1984  135.5042  154.9662 C   0  0  0  0  0  0  0  0  0  0  0  0
  147.1755  136.7711  155.8513 C   0  0  0  0  0  0  0  0  0  0  0  0
  147.4540  138.0493  155.0316 C   0  0  0  0  0  0  0  0  0  0  0  0
  146.4878  138.0975  153.8330 C   0  0  1  0  0  0  0  0  0  0  0  0
  149.7743  141.4839  153.2725 H   0  0  0  0  0  0  0  0  0  0  0  0
  149.0053  142.7881  154.1640 H   0  0  0  0  0  0  0  0  0  0  0  0
  149.0300  142.5401  156.8957 H   0  0  0  0  0  0  0  0  0  0  0  0
  150.9171  141.3435  158.4611 H   0  0  0  0  0  0  0  0  0  0  0  0
  152.2700  139.7142  156.6720 H   0  0  0  0  0  0  0  0  0  0  0  0
  148.3715  140.1633  152.3155 H   0  0  0  0  0  0  0  0  0  0  0  0
  145.5925  139.8462  152.9436 H   0  0  0  0  0  0  0  0  0  0  0  0
  145.8257  139.1237  150.7446 H   0  0  0  0  0  0  0  0  0  0  0  0
  147.4998  138.6439  150.9961 H   0  0  0  0  0  0  0  0  0  0  0  0
  145.0130  137.0725  151.7540 H   0  0  0  0  0  0  0  0  0  0  0  0
  146.4678  136.4835  150.9315 H   0  0  0  0  0  0  0  0  0  0  0  0
  145.2523  135.6811  153.9859 H   0  0  0  0  0  0  0  0  0  0  0  0
  146.4476  134.7945  153.0512 H   0  0  0  0  0  0  0  0  0  0  0  0
  146.8865  134.6362  155.5477 H   0  0  0  0  0  0  0  0  0  0  0  0
  148.2253  135.3094  154.6535 H   0  0  0  0  0  0  0  0  0  0  0  0
  146.1981  136.8565  156.3281 H   0  0  0  0  0  0  0  0  0  0  0  0
  147.9026  136.6781  156.6585 H   0  0  0  0  0  0  0  0  0  0  0  0
  147.3248  138.9267  155.6657 H   0  0  0  0  0  0  0  0  0  0  0  0
  148.4897  138.0549  154.6882 H   0  0  0  0  0  0  0  0  0  0  0  0
  145.4692  138.0580  154.2252 H   0  0  0  0  0  0  0  0  0  0  0  0
  147.6856  136.8316  152.8486 H   0  0  0  0  0  0  0  0  0  0  0  0
  1  2  2  0  0  0  0
  2  3  1  0  0  0  0
  2  9  1  0  0  0  0
  3  4  1  0  0  0  0
  3 19  1  0  0  0  0
  3 20  1  0  0  0  0
  4  8  1  0  0  0  0
  4  5  1  0  0  0  0
  5  6  2  0  0  0  0
  5 21  1  0  0  0  0
  6  7  1  0  0  0  0
  6 22  1  0  0  0  0
  7  8  2  0  0  0  0
  7 23  1  0  0  0  0
  9 10  1  0  0  0  0
  9 24  1  0  0  0  0
 10 18  1  0  0  0  0
 10 11  1  0  0  0  0
 10 25  1  0  0  0  0
 11 12  1  0  0  0  0
 11 26  1  0  0  0  0
 11 27  1  0  0  0  0
 12 13  1  0  0  0  0
 12 28  1  0  0  0  0
 12 29  1  0  0  0  0
 13 18  1  0  0  0  0
 13 14  1  0  0  0  0
 13 39  1  0  0  0  0
 14 15  1  0  0  0  0
 14 30  1  0  0  0  0
 14 31  1  0  0  0  0
 15 16  1  0  0  0  0
 15 32  1  0  0  0  0
 15 33  1  0  0  0  0
 16 17  1  0  0  0  0
 16 34  1  0  0  0  0
 16 35  1  0  0  0  0
 17 18  1  0  0  0  0
 17 36  1  0  0  0  0
 17 37  1  0  0  0  0
 18 38  1  0  0  0  0
M  CHG  1  13   1
M  END
> <s_m_source_file>
AV-unprocessed.smi

> <i_m_source_file_index>
2171

> <i_lp_mmshare_version>
43012

> <i_f3d_flags>
0

> <s_epik_input>
bjFbY0hdW2NIXVtjSF1uMVtDSDJdQyg9TylbTkhdW0NASF0oW0NIMl1bQ0gyXTIpW0NAQEhdKE4yMylbQ0gyXVtDSDJdW0NIMl1bQ0gyXTM=

> <s_epik_cmdline>
J2VwaWtfcHl0aG9uJywgJy1waCcsICc3LjAnLCAnLXRuJywgJzgnLCAnLW1hJywgJzIwMCcsICctbWV0YWxfYmluZGluZycsICctaW1hZScsICc8aW5maWxlLm1hZT4nLCAnLW9tYWUnLCAnPG91dGZpbGUubWFlPic=

> <r_lp_tautomer_probability>
1

> <r_epik_Ionization_Penalty>
0.00204179

> <r_epik_Ionization_Penalty_Charging>
0.00203239

> <r_epik_Ionization_Penalty_Neutral>
9.40205e-06

> <r_epik_State_Penalty>
0.00138983

> <r_epik_Charging_Adjusted_Penalty>
0.00342221

> <i_epik_Tot_Q>
1

> <i_epik_Tot_abs_Q>
1

> <r_epik_Metal_State_Penalty>
-0

> <b_epik_Metal_Only>
0

> <s_lp_Force_Field>
OPLS_2005

> <r_lp_Energy>
40.8782

> <b_lp_Chiralities_Consistent>
1

> <s_lp_Variant>
AV-unprocessed.smi:2171-4

> <Gold.Version>
5.8.1

> <Gold.Id.Protein>
6NUR|6NUR_protein|mol2

> <Gold.PLP.Fitness>
37.1979

> <Gold.PLP.PLP>
-23.6014

> <Gold.PLP.part.hbond>
-3.0000

> <Gold.PLP.part.metal>
0.0000

> <Gold.PLP.part.buried>
5.2408

> <Gold.PLP.part.nonpolar>
-25.3740

> <Gold.PLP.part.repulsive>
0.2401

> <Gold.PLP.ligand.clash>
0.0000

> <Gold.PLP.ligand.torsion>
0.3236

> <Gold.PLP.Chemscore.Hbond>
3.9200

> <Gold.PLP.Chemscore.CHOScore>
0.8265

> <Gold.PLP.Chemscore.Metal>
0.0000

> <Gold.Chemscore.Hbonds>
donor molecule, donor type, donor heavy atom, donor atom, acceptor molecule, acceptor atom, score
      L1  H     9    24       P1  7957  1.00
      L1  H    13    39       P1  7948  1.89
      P1  H  7989  7998       L1     8  0.99
      L1  C     5    21       P1  8028  0.81

> <Gold.PLP.Chemscore.Internal.Correction>
0.0043

> <Gold.Rescore>
     Score         DG    S(hbond)    S(metal)    S(lipo)     H(rot)  DE(clash)    DE(int)     intcor
     14.87     -16.71       2.39        0.00      59.18       1.44       1.60       0.24       ----

> <Gold.Chemscore.Fitness>
14.8653

> <Gold.Chemscore.DG>
-16.7094

> <Gold.Chemscore.ZeroCoef>
-5.4800

> <Gold.Chemscore.Hbond>
2.3933

> <Gold.Chemscore.Metal>
0.0000

> <Gold.Chemscore.Lipo>
59.1847

> <Gold.Chemscore.Internal_Hbond>
0.0000

> <Gold.Chemscore.DEClash>
1.6042

> <Gold.Chemscore.DEInternal>
0.2399

> <Gold.Chemscore.Rot>
1.4410

> <Gold.Chemscore.Internal.Correction>
   9.000000E+99

> <Gold.Chemscore.Hbonds>
donor molecule, donor type, donor heavy atom, donor atom, acceptor molecule, acceptor atom, score
      L1  H     9    24       P1  7957  1.00
      L1  H    13    39       P1  7948  0.91
      P1  H  7989  7998       L1     8  0.24

> <Gold.Chemscore.Hbond.Weighted>
-7.9937

> <Gold.Chemscore.Metal.Weighted>
-0.0000

> <Gold.Chemscore.Lipo.Weighted>
-6.9246

> <Gold.Chemscore.Internal_Hbond.Weighted>
0.0000

> <Gold.Chemscore.DEClash.Weighted>
1.6042

> <Gold.Chemscore.DEInternal.Weighted>
0.2399

> <Gold.Chemscore.Rot.Weighted>
3.6889

> <Gold.Chemscore.Internal.Correction.Weighted>
   9.000000E+99

> <Gold.Protein.RotatedTorsions>
[ 6907 6896 6895 6894 ] final  170.63 input  -60.11 | X-H torsion
[ 7974 7965 7964 7962 ] final  -75.66 input  175.53 | X-H torsion
[ 8008 7997 7996 7995 ] final -119.28 input   59.86 | X-H torsion
[ 10167 10162 10161 10158 ] final  145.65 input  -65.29 | X-H torsion
[ 10718 10713 10712 10709 ] final  166.86 input   66.30 | X-H torsion
[ 10763 10752 10751 10750 ] final   75.11 input  -60.55 | X-H torsion
[ 11005 11000 10999 10996 ] final -173.89 input  -57.11 | X-H torsion

> <Gold.Protein.ActiveResidues>
 VAL166  LYS551  ARG553  GLY616  TRP617  ASP618  TYR619  PRO620  LYS621  CYS622 
 ASP623  PHE694  ASN695  SER759  ASP760  ASP761  ALA762  ILE779  LEU786  VAL792 
 PHE793  MET794  SER795  GLU796  ALA797  LYS798  CYS799  TRP800  GLU811  SER814 

> <Gold.Protein.RotatedAtoms>
  151.8131  133.3384  159.3561 H   0  0  0  0  0  0  0  0  0  0  0  0  # atno 6907 bound_to 6896
  150.7319  134.5645  159.5868 H   0  0  0  0  0  0  0  0  0  0  0  0  # atno 6908 bound_to 6896
  152.3060  134.7555  160.0398 H   0  0  0  0  0  0  0  0  0  0  0  0  # atno 6909 bound_to 6896
  145.6230  140.9358  143.1128 H   0  0  0  0  0  0  0  0  0  0  0  0  # atno 7974 bound_to 7965
  155.1132  140.0397  157.2730 H   0  0  0  0  0  0  0  0  0  0  0  0  # atno 8008 bound_to 7997
  154.6669  140.2603  155.7022 H   0  0  0  0  0  0  0  0  0  0  0  0  # atno 8009 bound_to 7997
  156.2642  140.2805  156.1163 H   0  0  0  0  0  0  0  0  0  0  0  0  # atno 8010 bound_to 7997
  139.4922  144.5886  151.6727 H   0  0  0  0  0  0  0  0  0  0  0  0  # atno 10167 bound_to 10162
  157.0598  131.0336  151.2651 H   0  0  0  0  0  0  0  0  0  0  0  0  # atno 10718 bound_to 10713
  153.0632  135.5001  154.8142 H   0  0  0  0  0  0  0  0  0  0  0  0  # atno 10763 bound_to 10752
  154.6915  135.2985  154.9475 H   0  0  0  0  0  0  0  0  0  0  0  0  # atno 10764 bound_to 10752
  154.0228  135.6740  153.4827 H   0  0  0  0  0  0  0  0  0  0  0  0  # atno 10765 bound_to 10752
  140.4807  134.6078  157.4918 H   0  0  0  0  0  0  0  0  0  0  0  0  # atno 11005 bound_to 11000
  144.7223  139.7988  143.7377 LP  0  0  0  0  0  0  0  0  0  0  0  0  # atno 17320 bound_to 7965
  146.1416  139.4474  143.0105 LP  0  0  0  0  0  0  0  0  0  0  0  0  # atno 17321 bound_to 7965
  140.5508  144.0428  150.6126 LP  0  0  0  0  0  0  0  0  0  0  0  0  # atno 17342 bound_to 10162
  140.3482  143.2979  152.0516 LP  0  0  0  0  0  0  0  0  0  0  0  0  # atno 17343 bound_to 10162
  157.4964  130.7853  149.7559 LP  0  0  0  0  0  0  0  0  0  0  0  0  # atno 17370 bound_to 10713
  155.9982  130.3895  150.2711 LP  0  0  0  0  0  0  0  0  0  0  0  0  # atno 17371 bound_to 10713
  139.9828  134.7109  155.9828 LP  0  0  0  0  0  0  0  0  0  0  0  0  # atno 17394 bound_to 11000
  141.1533  133.6546  156.4080 LP  0  0  0  0  0  0  0  0  0  0  0  0  # atno 17395 bound_to 11000

$$$$
