AV-unprocessed.smi:2783|AV-procd|sdf|10723|dock1
  -GOLD-   2272015163D 1   1.00000     0.00000
 Structure written by MMmdl.
 29 29  0  0  0  0  0  0  0  0  3 V2000
  151.1487  144.9385  159.8688 C   0  0  0  0  0  0  0  0  0  0  0  0
  150.5615  143.8738  159.1227 O   0  0  0  0  0  0  0  0  0  0  0  0
  151.3813  143.1799  158.1704 C   0  0  0  0  0  0  0  0  0  0  0  0
  151.9027  144.2625  157.2089 C   0  0  0  0  0  0  0  0  0  0  0  0
  152.5805  142.5023  158.8747 C   0  0  0  0  0  0  0  0  0  0  0  0
  150.5449  142.1595  157.3627 C   0  0  0  0  0  0  0  0  0  0  0  0
  149.3416  142.0455  157.5957 O   0  0  0  0  0  0  0  0  0  0  0  0
  151.2171  141.4280  156.4523 N   0  0  0  0  0  0  0  0  0  0  0  0
  150.7623  140.4228  155.5504 C   0  0  0  0  0  0  0  0  0  0  0  0
  149.4540  140.3757  155.0022 C   0  0  0  0  0  0  0  0  0  0  0  0
  149.1102  139.3371  154.1134 C   0  0  0  0  0  0  0  0  0  0  0  0
  150.0226  138.3990  153.7851 N   0  3  0  0  0  0  0  0  0  0  0  0
  151.2798  138.4040  154.2733 C   0  0  0  0  0  0  0  0  0  0  0  0
  151.6850  139.4158  155.1671 C   0  0  0  0  0  0  0  0  0  0  0  0
  152.9656  139.4021  155.6455 O   0  5  0  0  0  0  0  0  0  0  0  0
  150.4434  145.2687  160.6311 H   0  0  0  0  0  0  0  0  0  0  0  0
  151.3638  145.7988  159.2351 H   0  0  0  0  0  0  0  0  0  0  0  0
  152.0663  144.6433  160.3775 H   0  0  0  0  0  0  0  0  0  0  0  0
  152.5487  143.8394  156.4384 H   0  0  0  0  0  0  0  0  0  0  0  0
  152.4812  145.0161  157.7444 H   0  0  0  0  0  0  0  0  0  0  0  0
  151.0834  144.7790  156.7067 H   0  0  0  0  0  0  0  0  0  0  0  0
  153.3083  142.1295  158.1528 H   0  0  0  0  0  0  0  0  0  0  0  0
  152.2723  141.6533  159.4859 H   0  0  0  0  0  0  0  0  0  0  0  0
  153.1012  143.2067  159.5237 H   0  0  0  0  0  0  0  0  0  0  0  0
  152.2103  141.6085  156.4037 H   0  0  0  0  0  0  0  0  0  0  0  0
  148.7019  141.1119  155.2339 H   0  0  0  0  0  0  0  0  0  0  0  0
  148.1377  139.2319  153.6559 H   0  0  0  0  0  0  0  0  0  0  0  0
  151.9216  137.6035  153.9352 H   0  0  0  0  0  0  0  0  0  0  0  0
  149.7533  137.6565  153.1397 H   0  0  0  0  0  0  0  0  0  0  0  0
  1  2  1  0  0  0  0
  1 16  1  0  0  0  0
  1 17  1  0  0  0  0
  1 18  1  0  0  0  0
  2  3  1  0  0  0  0
  3  4  1  0  0  0  0
  3  5  1  0  0  0  0
  3  6  1  0  0  0  0
  4 19  1  0  0  0  0
  4 20  1  0  0  0  0
  4 21  1  0  0  0  0
  5 22  1  0  0  0  0
  5 23  1  0  0  0  0
  5 24  1  0  0  0  0
  6  7  2  0  0  0  0
  6  8  1  0  0  0  0
  8 25  1  0  0  0  0
  8  9  1  0  0  0  0
  9 10  2  0  0  0  0
  9 14  1  0  0  0  0
 10 11  1  0  0  0  0
 10 26  1  0  0  0  0
 11 12  2  0  0  0  0
 11 27  1  0  0  0  0
 12 13  1  0  0  0  0
 12 29  1  0  0  0  0
 13 14  2  0  0  0  0
 13 28  1  0  0  0  0
 14 15  1  0  0  0  0
M  CHG  1  12   1
M  CHG  1  15  -1
M  END
> <s_m_source_file>
AV-unprocessed.smi

> <i_m_source_file_index>
2783

> <i_lp_mmshare_version>
43012

> <i_f3d_flags>
0

> <s_epik_input>
W0NIM11PQyhbQ0gzXSkoW0NIM10pQyg9TylbTkhdYzFbY0hdW2NIXW5bY0hdYzFbT0hd

> <s_epik_cmdline>
J2VwaWtfcHl0aG9uJywgJy1waCcsICc3LjAnLCAnLXRuJywgJzgnLCAnLW1hJywgJzIwMCcsICctbWV0YWxfYmluZGluZycsICctaW1hZScsICc8aW5maWxlLm1hZT4nLCAnLW9tYWUnLCAnPG91dGZpbGUubWFlPic=

> <r_lp_tautomer_probability>
0.56342

> <r_epik_Ionization_Penalty>
0.0178972

> <r_epik_Ionization_Penalty_Charging>
0.0178972

> <r_epik_Ionization_Penalty_Neutral>
5.02838e-10

> <r_epik_State_Penalty>
0.346878

> <r_epik_Charging_Adjusted_Penalty>
0.364775

> <i_epik_Tot_Q>
0

> <i_epik_Tot_abs_Q>
2

> <r_epik_Metal_State_Penalty>
0.59989

> <b_epik_Metal_Only>
0

> <s_lp_Force_Field>
OPLS_2005

> <r_lp_Energy>
13.0422

> <b_lp_Chiralities_Consistent>
1

> <s_lp_Variant>
AV-unprocessed.smi:2783-1

> <Gold.Version>
5.8.1

> <Gold.Id.Protein>
6NUR|6NUR_protein|mol2

> <Gold.PLP.Fitness>
42.8610

> <Gold.PLP.PLP>
-31.2973

> <Gold.PLP.part.hbond>
-2.5799

> <Gold.PLP.part.metal>
0.0000

> <Gold.PLP.part.buried>
-3.7029

> <Gold.PLP.part.nonpolar>
-25.9015

> <Gold.PLP.part.repulsive>
0.4230

> <Gold.PLP.ligand.clash>
0.0000

> <Gold.PLP.ligand.torsion>
0.2348

> <Gold.PLP.Chemscore.Hbond>
4.0000

> <Gold.PLP.Chemscore.CHOScore>
0.0000

> <Gold.PLP.Chemscore.Metal>
0.0000

> <Gold.Chemscore.Hbonds>
donor molecule, donor type, donor heavy atom, donor atom, acceptor molecule, acceptor atom, score
      L1  H    12    29       P1  7948  1.98
      P1  H  7997  8008       L1    15  2.00

> <Gold.PLP.Chemscore.Internal.Correction>
0.0334

> <Gold.Rescore>
     Score         DG    S(hbond)    S(metal)    S(lipo)     H(rot)  DE(clash)    DE(int)     intcor
     17.58     -18.03       1.89        0.00      80.79       1.26       0.09       0.36       ----

> <Gold.Chemscore.Fitness>
17.5792

> <Gold.Chemscore.DG>
-18.0326

> <Gold.Chemscore.ZeroCoef>
-5.4800

> <Gold.Chemscore.Hbond>
1.8919

> <Gold.Chemscore.Metal>
0.0000

> <Gold.Chemscore.Lipo>
80.7909

> <Gold.Chemscore.Internal_Hbond>
0.0000

> <Gold.Chemscore.DEClash>
0.0929

> <Gold.Chemscore.DEInternal>
0.3604

> <Gold.Chemscore.Rot>
1.2574

> <Gold.Chemscore.Internal.Correction>
   9.000000E+99

> <Gold.Chemscore.Hbonds>
donor molecule, donor type, donor heavy atom, donor atom, acceptor molecule, acceptor atom, score
      L1  H    12    29       P1  7948  0.56
      P1  H  7997  8008       L1    15  1.00

> <Gold.Chemscore.Hbond.Weighted>
-6.3191

> <Gold.Chemscore.Metal.Weighted>
-0.0000

> <Gold.Chemscore.Lipo.Weighted>
-9.4525

> <Gold.Chemscore.Internal_Hbond.Weighted>
0.0000

> <Gold.Chemscore.DEClash.Weighted>
0.0929

> <Gold.Chemscore.DEInternal.Weighted>
0.3604

> <Gold.Chemscore.Rot.Weighted>
3.2190

> <Gold.Chemscore.Internal.Correction.Weighted>
   9.000000E+99

> <Gold.Protein.RotatedTorsions>
[ 6907 6896 6895 6894 ] final -164.52 input  -60.11 | X-H torsion
[ 7974 7965 7964 7962 ] final  165.03 input  175.53 | X-H torsion
[ 8008 7997 7996 7995 ] final  -42.29 input   59.86 | X-H torsion
[ 10167 10162 10161 10158 ] final  -67.45 input  -65.29 | X-H torsion
[ 10718 10713 10712 10709 ] final  -14.81 input   66.30 | X-H torsion
[ 10763 10752 10751 10750 ] final  -20.06 input  -60.55 | X-H torsion
[ 11005 11000 10999 10996 ] final   67.47 input  -57.11 | X-H torsion

> <Gold.Protein.ActiveResidues>
 VAL166  LYS551  ARG553  GLY616  TRP617  ASP618  TYR619  PRO620  LYS621  CYS622 
 ASP623  PHE694  ASN695  SER759  ASP760  ASP761  ALA762  ILE779  LEU786  VAL792 
 PHE793  MET794  SER795  GLU796  ALA797  LYS798  CYS799  TRP800  GLU811  SER814 

> <Gold.Protein.RotatedAtoms>
  151.4131  133.3721  159.2746 H   0  0  0  0  0  0  0  0  0  0  0  0  # atno 6907 bound_to 6896
  150.9348  134.8763  159.7585 H   0  0  0  0  0  0  0  0  0  0  0  0  # atno 6908 bound_to 6896
  152.5045  134.4078  159.9490 H   0  0  0  0  0  0  0  0  0  0  0  0  # atno 6909 bound_to 6896
  144.7520  139.8411  143.6363 H   0  0  0  0  0  0  0  0  0  0  0  0  # atno 7974 bound_to 7965
  154.3999  140.1477  156.3331 H   0  0  0  0  0  0  0  0  0  0  0  0  # atno 8008 bound_to 7997
  155.8425  140.3461  155.5620 H   0  0  0  0  0  0  0  0  0  0  0  0  # atno 8009 bound_to 7997
  155.8071  140.0878  157.1915 H   0  0  0  0  0  0  0  0  0  0  0  0  # atno 8010 bound_to 7997
  140.5582  143.2312  151.6780 H   0  0  0  0  0  0  0  0  0  0  0  0  # atno 10167 bound_to 10162
  156.6106  130.4848  149.6203 H   0  0  0  0  0  0  0  0  0  0  0  0  # atno 10718 bound_to 10713
  153.6145  135.6995  153.5334 H   0  0  0  0  0  0  0  0  0  0  0  0  # atno 10763 bound_to 10752
  153.2989  135.4135  155.1234 H   0  0  0  0  0  0  0  0  0  0  0  0  # atno 10764 bound_to 10752
  154.8556  135.3644  154.5684 H   0  0  0  0  0  0  0  0  0  0  0  0  # atno 10765 bound_to 10752
  139.9769  134.6808  156.0337 H   0  0  0  0  0  0  0  0  0  0  0  0  # atno 11005 bound_to 11000
  146.1482  139.4558  143.0065 LP  0  0  0  0  0  0  0  0  0  0  0  0  # atno 17320 bound_to 7965
  145.6911  141.0164  143.1555 LP  0  0  0  0  0  0  0  0  0  0  0  0  # atno 17321 bound_to 7965
  139.5057  144.3706  152.0474 LP  0  0  0  0  0  0  0  0  0  0  0  0  # atno 17342 bound_to 10162
  140.2830  144.3839  150.6113 LP  0  0  0  0  0  0  0  0  0  0  0  0  # atno 17343 bound_to 10162
  156.2393  130.6841  151.1540 LP  0  0  0  0  0  0  0  0  0  0  0  0  # atno 17370 bound_to 10713
  157.7255  131.0652  150.5950 LP  0  0  0  0  0  0  0  0  0  0  0  0  # atno 17371 bound_to 10713
  141.1445  133.6558  156.3826 LP  0  0  0  0  0  0  0  0  0  0  0  0  # atno 17394 bound_to 11000
  140.5177  134.6334  157.5307 LP  0  0  0  0  0  0  0  0  0  0  0  0  # atno 17395 bound_to 11000

$$$$
