AV-unprocessed.smi:2567|AV-procd|sdf|10083|dock3
  -GOLD-   2272014113D 1   1.00000     0.00000
 Structure written by MMmdl.
 33 34  0  0  0  0  0  0  0  0  1 V2000
  149.8032  134.4004  155.9102 C   0  0  0  0  0  0  0  0  0  0  0  0
  149.3776  132.9290  155.7584 C   0  0  0  0  0  0  0  0  0  0  0  0
  150.6182  132.0161  155.8695 C   0  0  0  0  0  0  0  0  0  0  0  0
  148.4322  132.5352  156.9152 C   0  0  0  0  0  0  0  0  0  0  0  0
  148.7000  132.7329  154.4219 C   0  0  0  0  0  0  0  0  0  0  0  0
  149.1411  131.8272  153.5451 N   0  0  0  0  0  0  0  0  0  0  0  0
  148.2003  131.8739  152.5795 N   0  0  0  0  0  0  0  0  0  0  0  0
  147.2445  132.7317  152.9363 C   0  0  0  0  0  0  0  0  0  0  0  0
  146.0382  132.9781  152.0862 C   0  0  1  0  0  0  0  0  0  0  0  0
  146.3843  133.7140  150.7771 C   0  0  0  0  0  0  0  0  0  0  0  0
  145.1919  133.8509  149.9423 N   0  0  0  0  0  0  0  0  0  0  0  0
  144.5692  132.5513  149.6946 C   0  0  0  0  0  0  0  0  0  0  0  0
  144.2725  131.8368  151.0254 C   0  0  0  0  0  0  0  0  0  0  0  0
  145.4748  131.7060  151.7765 O   0  0  0  0  0  0  0  0  0  0  0  0
  147.4838  133.2878  154.1195 N   0  0  0  0  0  0  0  0  0  0  0  0
  148.2386  131.3092  151.7430 H   0  0  0  0  0  0  0  0  0  0  0  0
  150.3020  134.5732  156.8643 H   0  0  0  0  0  0  0  0  0  0  0  0
  148.9428  135.0690  155.8626 H   0  0  0  0  0  0  0  0  0  0  0  0
  150.4932  134.6961  155.1189 H   0  0  0  0  0  0  0  0  0  0  0  0
  151.3683  132.2592  155.1160 H   0  0  0  0  0  0  0  0  0  0  0  0
  150.3523  130.9659  155.7429 H   0  0  0  0  0  0  0  0  0  0  0  0
  151.1003  132.1173  156.8425 H   0  0  0  0  0  0  0  0  0  0  0  0
  148.9258  132.6361  157.8824 H   0  0  0  0  0  0  0  0  0  0  0  0
  148.1004  131.5001  156.8233 H   0  0  0  0  0  0  0  0  0  0  0  0
  147.5432  133.1659  156.9454 H   0  0  0  0  0  0  0  0  0  0  0  0
  145.3197  133.5605  152.6667 H   0  0  0  0  0  0  0  0  0  0  0  0
  146.8019  134.6969  150.9972 H   0  0  0  0  0  0  0  0  0  0  0  0
  147.1522  133.1607  150.2349 H   0  0  0  0  0  0  0  0  0  0  0  0
  145.4442  134.2802  149.0577 H   0  0  0  0  0  0  0  0  0  0  0  0
  143.6491  132.6794  149.1244 H   0  0  0  0  0  0  0  0  0  0  0  0
  145.2310  131.9328  149.0874 H   0  0  0  0  0  0  0  0  0  0  0  0
  143.5238  132.3813  151.6033 H   0  0  0  0  0  0  0  0  0  0  0  0
  143.8661  130.8437  150.8347 H   0  0  0  0  0  0  0  0  0  0  0  0
  1  2  1  0  0  0  0
  1 17  1  0  0  0  0
  1 18  1  0  0  0  0
  1 19  1  0  0  0  0
  2  3  1  0  0  0  0
  2  4  1  0  0  0  0
  2  5  1  0  0  0  0
  3 20  1  0  0  0  0
  3 21  1  0  0  0  0
  3 22  1  0  0  0  0
  4 23  1  0  0  0  0
  4 24  1  0  0  0  0
  4 25  1  0  0  0  0
  5 15  1  0  0  0  0
  5  6  2  0  0  0  0
  6  7  1  0  0  0  0
  7 16  1  0  0  0  0
  7  8  1  0  0  0  0
  8  9  1  0  0  0  0
  8 15  2  0  0  0  0
  9 14  1  0  0  0  0
  9 10  1  0  0  0  0
  9 26  1  0  0  0  0
 10 11  1  0  0  0  0
 10 27  1  0  0  0  0
 10 28  1  0  0  0  0
 11 12  1  0  0  0  0
 11 29  1  0  0  0  0
 12 13  1  0  0  0  0
 12 30  1  0  0  0  0
 12 31  1  0  0  0  0
 13 14  1  0  0  0  0
 13 32  1  0  0  0  0
 13 33  1  0  0  0  0
M  END
> <s_m_source_file>
AV-unprocessed.smi

> <i_m_source_file_index>
2567

> <i_lp_mmshare_version>
43012

> <i_f3d_flags>
0

> <s_epik_input>
W0NIM11DKFtDSDNdKShbQ0gzXSljMW5bbkhdYyhuMSlbQ0BASF0yW0NIMl1bTkhdW0NIMl1bQ0gyXU8y

> <s_epik_cmdline>
J2VwaWtfcHl0aG9uJywgJy1waCcsICc3LjAnLCAnLXRuJywgJzgnLCAnLW1hJywgJzIwMCcsICctbWV0YWxfYmluZGluZycsICctaW1hZScsICc8aW5maWxlLm1hZT4nLCAnLW9tYWUnLCAnPG91dGZpbGUubWFlPic=

> <r_epik_Ionization_Penalty>
0.981987

> <r_epik_Ionization_Penalty_Charging>
0

> <r_epik_Ionization_Penalty_Neutral>
0.981987

> <r_epik_State_Penalty>
2.09479

> <r_epik_Charging_Adjusted_Penalty>
2.09479

> <i_epik_Tot_Q>
0

> <i_epik_Tot_abs_Q>
0

> <r_epik_Metal_State_Penalty>
2.40362

> <b_epik_Metal_Only>
0

> <s_lp_Force_Field>
OPLS_2005

> <r_lp_Energy>
12.9727

> <b_lp_Chiralities_Consistent>
1

> <s_lp_Variant>
AV-unprocessed.smi:2567-8

> <Gold.Version>
5.8.1

> <Gold.Id.Protein>
6NUR|6NUR_protein|mol2

> <Gold.PLP.Fitness>
29.5554

> <Gold.PLP.PLP>
-23.9755

> <Gold.PLP.part.hbond>
-2.0000

> <Gold.PLP.part.metal>
0.0000

> <Gold.PLP.part.buried>
-4.1387

> <Gold.PLP.part.nonpolar>
-17.8864

> <Gold.PLP.part.repulsive>
0.3459

> <Gold.PLP.ligand.clash>
0.0000

> <Gold.PLP.ligand.torsion>
0.2278

> <Gold.PLP.Chemscore.Hbond>
1.9440

> <Gold.PLP.Chemscore.CHOScore>
0.0000

> <Gold.PLP.Chemscore.Metal>
0.0000

> <Gold.Chemscore.Hbonds>
donor molecule, donor type, donor heavy atom, donor atom, acceptor molecule, acceptor atom, score
      L1  H     7    16       P1 10747  1.00
      L1  H    11    29       P1  7921  1.00

> <Gold.PLP.Chemscore.Internal.Correction>
0.2036

> <Gold.Rescore>
     Score         DG    S(hbond)    S(metal)    S(lipo)     H(rot)  DE(clash)    DE(int)     intcor
     14.19     -14.53       1.95        0.00      48.91       1.25       0.00       0.34       ----

> <Gold.Chemscore.Fitness>
14.1906

> <Gold.Chemscore.DG>
-14.5350

> <Gold.Chemscore.ZeroCoef>
-5.4800

> <Gold.Chemscore.Hbond>
1.9520

> <Gold.Chemscore.Metal>
0.0000

> <Gold.Chemscore.Lipo>
48.9096

> <Gold.Chemscore.Internal_Hbond>
0.0000

> <Gold.Chemscore.DEClash>
0.0004

> <Gold.Chemscore.DEInternal>
0.3439

> <Gold.Chemscore.Rot>
1.2450

> <Gold.Chemscore.Internal.Correction>
   9.000000E+99

> <Gold.Chemscore.Hbonds>
donor molecule, donor type, donor heavy atom, donor atom, acceptor molecule, acceptor atom, score
      L1  H     7    16       P1 10747  0.95
      L1  H    11    29       P1  7921  0.94

> <Gold.Chemscore.Hbond.Weighted>
-6.5198

> <Gold.Chemscore.Metal.Weighted>
-0.0000

> <Gold.Chemscore.Lipo.Weighted>
-5.7224

> <Gold.Chemscore.Internal_Hbond.Weighted>
0.0000

> <Gold.Chemscore.DEClash.Weighted>
0.0004

> <Gold.Chemscore.DEInternal.Weighted>
0.3439

> <Gold.Chemscore.Rot.Weighted>
3.1872

> <Gold.Chemscore.Internal.Correction.Weighted>
   9.000000E+99

> <Gold.Protein.RotatedTorsions>
[ 6907 6896 6895 6894 ] final  133.91 input  -60.11 | X-H torsion
[ 7974 7965 7964 7962 ] final  140.07 input  175.53 | X-H torsion
[ 8008 7997 7996 7995 ] final   72.36 input   59.86 | X-H torsion
[ 10167 10162 10161 10158 ] final   68.53 input  -65.29 | X-H torsion
[ 10718 10713 10712 10709 ] final  139.14 input   66.30 | X-H torsion
[ 10763 10752 10751 10750 ] final -117.44 input  -60.55 | X-H torsion
[ 11005 11000 10999 10996 ] final  -85.69 input  -57.11 | X-H torsion

> <Gold.Protein.ActiveResidues>
 VAL166  LYS551  ARG553  GLY616  TRP617  ASP618  TYR619  PRO620  LYS621  CYS622 
 ASP623  PHE694  ASN695  SER759  ASP760  ASP761  ALA762  ILE779  LEU786  VAL792 
 PHE793  MET794  SER795  GLU796  ALA797  LYS798  CYS799  TRP800  GLU811  SER814 

> <Gold.Protein.RotatedAtoms>
  152.3170  133.5812  159.5718 H   0  0  0  0  0  0  0  0  0  0  0  0  # atno 6907 bound_to 6896
  150.7351  134.0068  159.3665 H   0  0  0  0  0  0  0  0  0  0  0  0  # atno 6908 bound_to 6896
  151.7956  135.0724  160.0444 H   0  0  0  0  0  0  0  0  0  0  0  0  # atno 6909 bound_to 6896
  144.9220  139.5155  143.5658 H   0  0  0  0  0  0  0  0  0  0  0  0  # atno 7974 bound_to 7965
  155.7676  140.3485  155.5230 H   0  0  0  0  0  0  0  0  0  0  0  0  # atno 8008 bound_to 7997
  155.8853  140.1009  157.1478 H   0  0  0  0  0  0  0  0  0  0  0  0  # atno 8009 bound_to 7997
  154.4028  140.1314  156.4234 H   0  0  0  0  0  0  0  0  0  0  0  0  # atno 8010 bound_to 7997
  140.0777  144.5098  150.7183 H   0  0  0  0  0  0  0  0  0  0  0  0  # atno 10167 bound_to 10162
  157.4177  131.1035  151.0387 H   0  0  0  0  0  0  0  0  0  0  0  0  # atno 10718 bound_to 10713
  154.8555  135.4309  154.1980 H   0  0  0  0  0  0  0  0  0  0  0  0  # atno 10763 bound_to 10752
  153.3034  135.6970  153.7188 H   0  0  0  0  0  0  0  0  0  0  0  0  # atno 10764 bound_to 10752
  153.6309  135.3485  155.3016 H   0  0  0  0  0  0  0  0  0  0  0  0  # atno 10765 bound_to 10752
  141.1638  133.7413  156.9052 H   0  0  0  0  0  0  0  0  0  0  0  0  # atno 11005 bound_to 11000
  146.3209  139.8107  142.8946 LP  0  0  0  0  0  0  0  0  0  0  0  0  # atno 17320 bound_to 7965
  145.3280  141.0260  143.3462 LP  0  0  0  0  0  0  0  0  0  0  0  0  # atno 17321 bound_to 7965
  140.7094  143.2493  151.4629 LP  0  0  0  0  0  0  0  0  0  0  0  0  # atno 17342 bound_to 10162
  139.5798  144.1736  152.1953 LP  0  0  0  0  0  0  0  0  0  0  0  0  # atno 17343 bound_to 10162
  157.1329  130.6110  149.5534 LP  0  0  0  0  0  0  0  0  0  0  0  0  # atno 17370 bound_to 10713
  155.9870  130.4908  150.7106 LP  0  0  0  0  0  0  0  0  0  0  0  0  # atno 17371 bound_to 10713
  140.1555  134.9201  157.2647 LP  0  0  0  0  0  0  0  0  0  0  0  0  # atno 17394 bound_to 11000
  140.2673  134.3502  155.7385 LP  0  0  0  0  0  0  0  0  0  0  0  0  # atno 17395 bound_to 11000

$$$$
