AV-unprocessed.smi:1767|AV-procd|sdf|7142|dock3
  -GOLD-   22720 8383D 1   1.00000     0.00000
 Structure written by MMmdl.
 33 35  0  0  0  0  0  0  0  0  2 V2000
  150.1789  139.6881  157.6663 O   0  0  0  0  0  0  0  0  0  0  0  0
  151.4059  140.3384  157.3964 C   0  0  1  0  0  0  0  0  0  0  0  0
  151.5145  140.6353  155.8877 C   0  0  0  0  0  0  0  0  0  0  0  0
  150.5840  139.8351  155.0810 N   0  0  0  0  0  0  0  0  0  0  0  0
  150.6607  138.5340  154.6904 C   0  0  0  0  0  0  0  0  0  0  0  0
  149.5490  138.2607  153.9525 N   0  3  0  0  0  0  0  0  0  0  0  0
  148.7515  139.4043  153.8690 C   0  0  0  0  0  0  0  0  0  0  0  0
  147.5334  139.6231  153.2326 C   0  0  0  0  0  0  0  0  0  0  0  0
  146.9857  140.9185  153.3423 C   0  0  0  0  0  0  0  0  0  0  0  0
  147.6445  141.9366  154.0621 C   0  0  0  0  0  0  0  0  0  0  0  0
  148.8789  141.7036  154.7040 C   0  0  0  0  0  0  0  0  0  0  0  0
  149.4122  140.4204  154.5913 C   0  0  0  0  0  0  0  0  0  0  0  0
  151.5823  141.6036  158.2210 C   0  0  0  0  0  0  0  0  0  0  0  0
  152.6239  141.6854  159.1701 C   0  0  0  0  0  0  0  0  0  0  0  0
  152.8004  142.8570  159.9317 C   0  0  0  0  0  0  0  0  0  0  0  0
  151.9377  143.9546  159.7471 C   0  0  0  0  0  0  0  0  0  0  0  0
  152.1084  145.0806  160.4793 F   0  0  0  0  0  0  0  0  0  0  0  0
  150.8990  143.8805  158.7993 C   0  0  0  0  0  0  0  0  0  0  0  0
  150.7219  142.7090  158.0376 C   0  0  0  0  0  0  0  0  0  0  0  0
  150.3126  138.7551  157.5945 H   0  0  0  0  0  0  0  0  0  0  0  0
  152.1944  139.6384  157.6761 H   0  0  0  0  0  0  0  0  0  0  0  0
  151.2991  141.6863  155.6893 H   0  0  0  0  0  0  0  0  0  0  0  0
  152.5276  140.4542  155.5261 H   0  0  0  0  0  0  0  0  0  0  0  0
  151.4606  137.8450  154.9213 H   0  0  0  0  0  0  0  0  0  0  0  0
  147.0267  138.8453  152.6801 H   0  0  0  0  0  0  0  0  0  0  0  0
  146.0417  141.1358  152.8640 H   0  0  0  0  0  0  0  0  0  0  0  0
  147.1939  142.9167  154.1232 H   0  0  0  0  0  0  0  0  0  0  0  0
  149.3768  142.4896  155.2525 H   0  0  0  0  0  0  0  0  0  0  0  0
  153.2933  140.8505  159.3172 H   0  0  0  0  0  0  0  0  0  0  0  0
  153.5986  142.9141  160.6571 H   0  0  0  0  0  0  0  0  0  0  0  0
  150.2384  144.7228  158.6552 H   0  0  0  0  0  0  0  0  0  0  0  0
  149.9244  142.6636  157.3103 H   0  0  0  0  0  0  0  0  0  0  0  0
  149.3530  137.3590  153.5367 H   0  0  0  0  0  0  0  0  0  0  0  0
  1  2  1  0  0  0  0
  1 20  1  0  0  0  0
  2  3  1  0  0  0  0
  2 13  1  0  0  0  0
  2 21  1  0  0  0  0
  3  4  1  0  0  0  0
  3 22  1  0  0  0  0
  3 23  1  0  0  0  0
  4 12  1  0  0  0  0
  4  5  1  0  0  0  0
  5  6  2  0  0  0  0
  5 24  1  0  0  0  0
  6  7  1  0  0  0  0
  6 33  1  0  0  0  0
  7 12  2  0  0  0  0
  7  8  1  0  0  0  0
  8  9  2  0  0  0  0
  8 25  1  0  0  0  0
  9 10  1  0  0  0  0
  9 26  1  0  0  0  0
 10 11  2  0  0  0  0
 10 27  1  0  0  0  0
 11 12  1  0  0  0  0
 11 28  1  0  0  0  0
 13 19  1  0  0  0  0
 13 14  2  0  0  0  0
 14 15  1  0  0  0  0
 14 29  1  0  0  0  0
 15 16  2  0  0  0  0
 15 30  1  0  0  0  0
 16 17  1  0  0  0  0
 16 18  1  0  0  0  0
 18 19  2  0  0  0  0
 18 31  1  0  0  0  0
 19 32  1  0  0  0  0
M  CHG  1   6   1
M  END
> <s_m_source_file>
AV-unprocessed.smi

> <i_m_source_file_index>
1767

> <i_lp_mmshare_version>
43012

> <i_f3d_flags>
0

> <s_epik_input>
W2NIXTFbY0hdYyhGKVtjSF1bY0hdYzFbQ0BIXShbT0hdKVtDSDJdbihbY0hdbjIpYyhjMjMpW2NIXVtjSF1bY0hdW2NIXTM=

> <s_epik_cmdline>
J2VwaWtfcHl0aG9uJywgJy1waCcsICc3LjAnLCAnLXRuJywgJzgnLCAnLW1hJywgJzIwMCcsICctbWV0YWxfYmluZGluZycsICctaW1hZScsICc8aW5maWxlLm1hZT4nLCAnLW9tYWUnLCAnPG91dGZpbGUubWFlPic=

> <r_epik_Ionization_Penalty>
1.3029

> <r_epik_Ionization_Penalty_Charging>
1.3029

> <r_epik_Ionization_Penalty_Neutral>
1.79538e-06

> <r_epik_State_Penalty>
1.377

> <r_epik_Charging_Adjusted_Penalty>
2.6799

> <i_epik_Tot_Q>
1

> <i_epik_Tot_abs_Q>
1

> <r_epik_Metal_State_Penalty>
5.40879

> <b_epik_Metal_Only>
0

> <s_lp_Force_Field>
OPLS_2005

> <r_lp_Energy>
16.37

> <b_lp_Chiralities_Consistent>
1

> <s_lp_Variant>
AV-unprocessed.smi:1767-4

> <Gold.Version>
5.8.1

> <Gold.Id.Protein>
6NUR|6NUR_protein|mol2

> <Gold.PLP.Fitness>
48.8278

> <Gold.PLP.PLP>
-44.4850

> <Gold.PLP.part.hbond>
-1.1557

> <Gold.PLP.part.metal>
0.0000

> <Gold.PLP.part.buried>
0.2378

> <Gold.PLP.part.nonpolar>
-43.2014

> <Gold.PLP.part.repulsive>
0.0403

> <Gold.PLP.ligand.clash>
0.0000

> <Gold.PLP.ligand.torsion>
0.8195

> <Gold.PLP.Chemscore.Hbond>
1.9840

> <Gold.PLP.Chemscore.CHOScore>
0.0000

> <Gold.PLP.Chemscore.Metal>
0.0000

> <Gold.Chemscore.Hbonds>
donor molecule, donor type, donor heavy atom, donor atom, acceptor molecule, acceptor atom, score
      L1  H     6    33       P1  7948  1.93

> <Gold.PLP.Chemscore.Internal.Correction>
0.0297

> <Gold.Rescore>
     Score         DG    S(hbond)    S(metal)    S(lipo)     H(rot)  DE(clash)    DE(int)     intcor
     15.20     -16.51       0.94        0.00     110.58       1.97       0.43       0.89       ----

> <Gold.Chemscore.Fitness>
15.1956

> <Gold.Chemscore.DG>
-16.5104

> <Gold.Chemscore.ZeroCoef>
-5.4800

> <Gold.Chemscore.Hbond>
0.9370

> <Gold.Chemscore.Metal>
0.0000

> <Gold.Chemscore.Lipo>
110.5818

> <Gold.Chemscore.Internal_Hbond>
0.0000

> <Gold.Chemscore.DEClash>
0.4295

> <Gold.Chemscore.DEInternal>
0.8853

> <Gold.Chemscore.Rot>
1.9677

> <Gold.Chemscore.Internal.Correction>
   9.000000E+99

> <Gold.Chemscore.Hbonds>
donor molecule, donor type, donor heavy atom, donor atom, acceptor molecule, acceptor atom, score
      L1  H     6    33       P1  7948  0.84

> <Gold.Chemscore.Hbond.Weighted>
-3.1296

> <Gold.Chemscore.Metal.Weighted>
-0.0000

> <Gold.Chemscore.Lipo.Weighted>
-12.9381

> <Gold.Chemscore.Internal_Hbond.Weighted>
0.0000

> <Gold.Chemscore.DEClash.Weighted>
0.4295

> <Gold.Chemscore.DEInternal.Weighted>
0.8853

> <Gold.Chemscore.Rot.Weighted>
5.0372

> <Gold.Chemscore.Internal.Correction.Weighted>
   9.000000E+99

> <Gold.Protein.RotatedTorsions>
[ 6907 6896 6895 6894 ] final  101.92 input  -60.11 | X-H torsion
[ 7974 7965 7964 7962 ] final  -94.95 input  175.53 | X-H torsion
[ 8008 7997 7996 7995 ] final  110.00 input   59.86 | X-H torsion
[ 10167 10162 10161 10158 ] final   38.11 input  -65.29 | X-H torsion
[ 10718 10713 10712 10709 ] final  -67.52 input   66.30 | X-H torsion
[ 10763 10752 10751 10750 ] final  -52.68 input  -60.55 | X-H torsion
[ 11005 11000 10999 10996 ] final   57.10 input  -57.11 | X-H torsion

> <Gold.Protein.ActiveResidues>
 VAL166  LYS551  ARG553  GLY616  TRP617  ASP618  TYR619  PRO620  LYS621  CYS622 
 ASP623  PHE694  ASN695  SER759  ASP760  ASP761  ALA762  ILE779  LEU786  VAL792 
 PHE793  MET794  SER795  GLU796  ALA797  LYS798  CYS799  TRP800  GLU811  SER814 

> <Gold.Protein.RotatedAtoms>
  152.5337  134.0053  159.7913 H   0  0  0  0  0  0  0  0  0  0  0  0  # atno 6907 bound_to 6896
  151.0265  133.5821  159.2672 H   0  0  0  0  0  0  0  0  0  0  0  0  # atno 6908 bound_to 6896
  151.2842  135.0730  159.9234 H   0  0  0  0  0  0  0  0  0  0  0  0  # atno 6909 bound_to 6896
  145.3665  140.9499  143.2471 H   0  0  0  0  0  0  0  0  0  0  0  0  # atno 7974 bound_to 7965
  156.2021  140.3047  155.9548 H   0  0  0  0  0  0  0  0  0  0  0  0  # atno 8008 bound_to 7997
  155.2930  140.0443  157.3041 H   0  0  0  0  0  0  0  0  0  0  0  0  # atno 8009 bound_to 7997
  154.5584  140.2313  155.8383 H   0  0  0  0  0  0  0  0  0  0  0  0  # atno 8010 bound_to 7997
  140.3968  144.1777  150.6132 H   0  0  0  0  0  0  0  0  0  0  0  0  # atno 10167 bound_to 10162
  156.0553  130.4279  150.1867 H   0  0  0  0  0  0  0  0  0  0  0  0  # atno 10718 bound_to 10713
  154.1466  135.6496  153.4954 H   0  0  0  0  0  0  0  0  0  0  0  0  # atno 10763 bound_to 10752
  153.0150  135.5328  154.6851 H   0  0  0  0  0  0  0  0  0  0  0  0  # atno 10764 bound_to 10752
  154.6127  135.2955  155.0386 H   0  0  0  0  0  0  0  0  0  0  0  0  # atno 10765 bound_to 10752
  140.0478  134.5780  155.9300 H   0  0  0  0  0  0  0  0  0  0  0  0  # atno 11005 bound_to 11000
  144.8608  139.5181  143.6813 LP  0  0  0  0  0  0  0  0  0  0  0  0  # atno 17320 bound_to 7965
  146.2904  139.7123  142.9165 LP  0  0  0  0  0  0  0  0  0  0  0  0  # atno 17321 bound_to 7965
  140.4781  143.2388  151.8994 LP  0  0  0  0  0  0  0  0  0  0  0  0  # atno 17342 bound_to 10162
  139.4786  144.5298  151.8683 LP  0  0  0  0  0  0  0  0  0  0  0  0  # atno 17343 bound_to 10162
  156.9944  130.9903  151.3407 LP  0  0  0  0  0  0  0  0  0  0  0  0  # atno 17370 bound_to 10713
  157.5517  130.8187  149.8154 LP  0  0  0  0  0  0  0  0  0  0  0  0  # atno 17371 bound_to 10713
  141.1916  133.6572  156.5462 LP  0  0  0  0  0  0  0  0  0  0  0  0  # atno 17394 bound_to 11000
  140.3965  134.7394  157.4754 LP  0  0  0  0  0  0  0  0  0  0  0  0  # atno 17395 bound_to 11000

$$$$
