AV-unprocessed.smi:910|AV-procd|sdf|4117|dock5
  -GOLD-   22720 2 13D 1   1.00000     0.00000
 Structure written by MMmdl.
 46 47  0  0  0  0  0  0  0  0  1 V2000
  149.8230  132.7507  160.7397 C   0  0  0  0  0  0  0  0  0  0  0  0
  149.6931  134.2327  160.5773 C   0  0  0  0  0  0  0  0  0  0  0  0
  149.9887  134.8748  159.3831 N   0  0  0  0  0  0  0  0  0  0  0  0
  149.7549  136.1648  159.6296 C   0  0  0  0  0  0  0  0  0  0  0  0
  149.9150  137.2406  158.7214 N   0  0  0  0  0  0  0  0  0  0  0  0
  150.9975  138.0188  158.5578 C   0  0  0  0  0  0  0  0  0  0  0  0
  152.0660  137.8844  159.1548 O   0  0  0  0  0  0  0  0  0  0  0  0
  150.7677  138.9855  157.6580 N   0  0  0  0  0  0  0  0  0  0  0  0
  151.6974  140.0558  157.3112 C   0  0  0  0  0  0  0  0  0  0  0  0
  151.2534  141.4058  157.8949 C   0  0  0  0  0  0  0  0  0  0  0  0
  151.9585  141.6278  159.1069 O   0  0  0  0  0  0  0  0  0  0  0  0
  152.8850  142.7062  159.0671 C   0  0  1  0  0  0  0  0  0  0  0  0
  152.1847  143.9877  158.5719 C   0  0  0  0  0  0  0  0  0  0  0  0
  151.1074  144.4659  159.5596 C   0  0  0  0  0  0  0  0  0  0  0  0
  151.6892  144.6595  160.9682 C   0  0  0  0  0  0  0  0  0  0  0  0
  152.3769  143.3794  161.4695 C   0  0  0  0  0  0  0  0  0  0  0  0
  153.4632  142.8990  160.4864 C   0  0  1  0  0  0  0  0  0  0  0  0
  154.1743  141.6332  160.9926 C   0  0  0  0  0  0  0  0  0  0  0  0
  149.3287  136.4146  160.8962 O   0  0  0  0  0  0  0  0  0  0  0  0
  149.2960  135.1796  161.4870 C   0  0  0  0  0  0  0  0  0  0  0  0
  148.8626  135.1012  162.9114 C   0  0  0  0  0  0  0  0  0  0  0  0
  150.6308  132.5016  161.4278 H   0  0  0  0  0  0  0  0  0  0  0  0
  150.0346  132.2599  159.7892 H   0  0  0  0  0  0  0  0  0  0  0  0
  148.9047  132.3177  161.1366 H   0  0  0  0  0  0  0  0  0  0  0  0
  149.1076  137.4600  158.1574 H   0  0  0  0  0  0  0  0  0  0  0  0
  149.8614  139.0151  157.2145 H   0  0  0  0  0  0  0  0  0  0  0  0
  152.7021  139.8043  157.6541 H   0  0  0  0  0  0  0  0  0  0  0  0
  151.7452  140.1235  156.2241 H   0  0  0  0  0  0  0  0  0  0  0  0
  151.4585  142.2054  157.1819 H   0  0  0  0  0  0  0  0  0  0  0  0
  150.1783  141.4005  158.0753 H   0  0  0  0  0  0  0  0  0  0  0  0
  153.7118  142.4656  158.3964 H   0  0  0  0  0  0  0  0  0  0  0  0
  152.9279  144.7758  158.4457 H   0  0  0  0  0  0  0  0  0  0  0  0
  151.7438  143.8293  157.5880 H   0  0  0  0  0  0  0  0  0  0  0  0
  150.6699  145.4003  159.2073 H   0  0  0  0  0  0  0  0  0  0  0  0
  150.2951  143.7390  159.5961 H   0  0  0  0  0  0  0  0  0  0  0  0
  152.4081  145.4797  160.9569 H   0  0  0  0  0  0  0  0  0  0  0  0
  150.8986  144.9514  161.6596 H   0  0  0  0  0  0  0  0  0  0  0  0
  152.8172  143.5631  162.4501 H   0  0  0  0  0  0  0  0  0  0  0  0
  151.6311  142.5958  161.6099 H   0  0  0  0  0  0  0  0  0  0  0  0
  154.2184  143.6842  160.4262 H   0  0  0  0  0  0  0  0  0  0  0  0
  153.4786  140.8015  161.1072 H   0  0  0  0  0  0  0  0  0  0  0  0
  154.6431  141.8078  161.9610 H   0  0  0  0  0  0  0  0  0  0  0  0
  154.9556  141.3177  160.3006 H   0  0  0  0  0  0  0  0  0  0  0  0
  147.8342  134.7470  162.9818 H   0  0  0  0  0  0  0  0  0  0  0  0
  148.9179  136.0780  163.3922 H   0  0  0  0  0  0  0  0  0  0  0  0
  149.4967  134.4137  163.4713 H   0  0  0  0  0  0  0  0  0  0  0  0
  1  2  1  0  0  0  0
  1 22  1  0  0  0  0
  1 23  1  0  0  0  0
  1 24  1  0  0  0  0
  2 20  2  0  0  0  0
  2  3  1  0  0  0  0
  3  4  2  0  0  0  0
  4  5  1  0  0  0  0
  4 19  1  0  0  0  0
  5  6  1  0  0  0  0
  5 25  1  0  0  0  0
  6  7  2  0  0  0  0
  6  8  1  0  0  0  0
  8  9  1  0  0  0  0
  8 26  1  0  0  0  0
  9 10  1  0  0  0  0
  9 27  1  0  0  0  0
  9 28  1  0  0  0  0
 10 11  1  0  0  0  0
 10 29  1  0  0  0  0
 10 30  1  0  0  0  0
 11 12  1  0  0  0  0
 12 17  1  0  0  0  0
 12 13  1  0  0  0  0
 12 31  1  0  0  0  0
 13 14  1  0  0  0  0
 13 32  1  0  0  0  0
 13 33  1  0  0  0  0
 14 15  1  0  0  0  0
 14 34  1  0  0  0  0
 14 35  1  0  0  0  0
 15 16  1  0  0  0  0
 15 36  1  0  0  0  0
 15 37  1  0  0  0  0
 16 17  1  0  0  0  0
 16 38  1  0  0  0  0
 16 39  1  0  0  0  0
 17 18  1  0  0  0  0
 17 40  1  0  0  0  0
 18 41  1  0  0  0  0
 18 42  1  0  0  0  0
 18 43  1  0  0  0  0
 19 20  1  0  0  0  0
 20 21  1  0  0  0  0
 21 44  1  0  0  0  0
 21 45  1  0  0  0  0
 21 46  1  0  0  0  0
M  END
> <s_m_source_file>
AV-unprocessed.smi

> <i_m_source_file_index>
910

> <i_lp_mmshare_version>
43012

> <i_f3d_flags>
0

> <s_epik_input>
W0NIM11jMW5jKG9jMVtDSDNdKVtOSF1DKD1PKVtOSF1bQ0gyXVtDSDJdT1tDQEBIXTJbQ0gyXVtDSDJdW0NIMl1bQ0gyXVtDQEhdMltDSDNd

> <s_epik_cmdline>
J2VwaWtfcHl0aG9uJywgJy1waCcsICc3LjAnLCAnLXRuJywgJzgnLCAnLW1hJywgJzIwMCcsICctbWV0YWxfYmluZGluZycsICctaW1hZScsICc8aW5maWxlLm1hZT4nLCAnLW9tYWUnLCAnPG91dGZpbGUubWFlPic=

> <r_lp_tautomer_probability>
0.785861

> <r_epik_Ionization_Penalty>
4.15957e-05

> <r_epik_Ionization_Penalty_Charging>
0

> <r_epik_Ionization_Penalty_Neutral>
4.15957e-05

> <r_epik_State_Penalty>
0.0240523

> <r_epik_Charging_Adjusted_Penalty>
0.0240523

> <i_epik_Tot_Q>
0

> <i_epik_Tot_abs_Q>
0

> <r_epik_Metal_State_Penalty>
0.057053

> <b_epik_Metal_Only>
0

> <s_lp_Force_Field>
OPLS_2005

> <r_lp_Energy>
9.72379

> <b_lp_Chiralities_Consistent>
1

> <s_lp_Variant>
AV-unprocessed.smi:910-2

> <Gold.Version>
5.8.1

> <Gold.Id.Protein>
6NUR|6NUR_protein|mol2

> <Gold.PLP.Fitness>
50.5285

> <Gold.PLP.PLP>
-47.2270

> <Gold.PLP.part.hbond>
-2.4717

> <Gold.PLP.part.metal>
0.0000

> <Gold.PLP.part.buried>
-6.8072

> <Gold.PLP.part.nonpolar>
-39.0786

> <Gold.PLP.part.repulsive>
0.2375

> <Gold.PLP.ligand.clash>
0.0000

> <Gold.PLP.ligand.torsion>
1.4672

> <Gold.PLP.Chemscore.Hbond>
2.0682

> <Gold.PLP.Chemscore.CHOScore>
0.0000

> <Gold.PLP.Chemscore.Metal>
0.0000

> <Gold.Chemscore.Hbonds>
donor molecule, donor type, donor heavy atom, donor atom, acceptor molecule, acceptor atom, score
      P1  H  6931  6943       L1    19  0.73

> <Gold.PLP.Chemscore.Internal.Correction>
0.0312

> <Gold.Rescore>
     Score         DG    S(hbond)    S(metal)    S(lipo)     H(rot)  DE(clash)    DE(int)     intcor
     20.22     -21.79       1.88        0.00     122.02       1.66       0.03       1.54       ----

> <Gold.Chemscore.Fitness>
20.2192

> <Gold.Chemscore.DG>
-21.7877

> <Gold.Chemscore.ZeroCoef>
-5.4800

> <Gold.Chemscore.Hbond>
1.8788

> <Gold.Chemscore.Metal>
0.0000

> <Gold.Chemscore.Lipo>
122.0183

> <Gold.Chemscore.Internal_Hbond>
0.0000

> <Gold.Chemscore.DEClash>
0.0274

> <Gold.Chemscore.DEInternal>
1.5411

> <Gold.Chemscore.Rot>
1.6576

> <Gold.Chemscore.Internal.Correction>
   9.000000E+99

> <Gold.Chemscore.Hbonds>
donor molecule, donor type, donor heavy atom, donor atom, acceptor molecule, acceptor atom, score
      P1  H  6931  6943       L1    19  0.71

> <Gold.Chemscore.Hbond.Weighted>
-6.2751

> <Gold.Chemscore.Metal.Weighted>
-0.0000

> <Gold.Chemscore.Lipo.Weighted>
-14.2761

> <Gold.Chemscore.Internal_Hbond.Weighted>
0.0000

> <Gold.Chemscore.DEClash.Weighted>
0.0274

> <Gold.Chemscore.DEInternal.Weighted>
1.5411

> <Gold.Chemscore.Rot.Weighted>
4.2436

> <Gold.Chemscore.Internal.Correction.Weighted>
   9.000000E+99

> <Gold.Protein.RotatedTorsions>
[ 6907 6896 6895 6894 ] final   48.81 input  -60.11 | X-H torsion
[ 7974 7965 7964 7962 ] final  -68.82 input  175.53 | X-H torsion
[ 8008 7997 7996 7995 ] final  121.98 input   59.86 | X-H torsion
[ 10167 10162 10161 10158 ] final   98.62 input  -65.29 | X-H torsion
[ 10718 10713 10712 10709 ] final  179.36 input   66.30 | X-H torsion
[ 10763 10752 10751 10750 ] final   70.60 input  -60.55 | X-H torsion
[ 11005 11000 10999 10996 ] final  -68.31 input  -57.11 | X-H torsion

> <Gold.Protein.ActiveResidues>
 VAL166  LYS551  ARG553  GLY616  TRP617  ASP618  TYR619  PRO620  LYS621  CYS622 
 ASP623  PHE694  ASN695  SER759  ASP760  ASP761  ALA762  ILE779  LEU786  VAL792 
 PHE793  MET794  SER795  GLU796  ALA797  LYS798  CYS799  TRP800  GLU811  SER814 

> <Gold.Protein.RotatedAtoms>
  152.2837  134.7800  160.0391 H   0  0  0  0  0  0  0  0  0  0  0  0  # atno 6907 bound_to 6896
  151.8370  133.3412  159.3639 H   0  0  0  0  0  0  0  0  0  0  0  0  # atno 6908 bound_to 6896
  150.7200  134.5356  159.5766 H   0  0  0  0  0  0  0  0  0  0  0  0  # atno 6909 bound_to 6896
  145.7116  140.9076  143.0677 H   0  0  0  0  0  0  0  0  0  0  0  0  # atno 7974 bound_to 7965
  156.2709  140.2796  156.1395 H   0  0  0  0  0  0  0  0  0  0  0  0  # atno 8008 bound_to 7997
  155.0969  140.0389  157.2703 H   0  0  0  0  0  0  0  0  0  0  0  0  # atno 8009 bound_to 7997
  154.6846  140.2616  155.6880 H   0  0  0  0  0  0  0  0  0  0  0  0  # atno 8010 bound_to 7997
  139.7692  144.6928  151.0180 H   0  0  0  0  0  0  0  0  0  0  0  0  # atno 10167 bound_to 10162
  156.8769  130.9803  151.3066 H   0  0  0  0  0  0  0  0  0  0  0  0  # atno 10718 bound_to 10713
  153.0351  135.5168  154.7466 H   0  0  0  0  0  0  0  0  0  0  0  0  # atno 10763 bound_to 10752
  154.6449  135.2917  155.0060 H   0  0  0  0  0  0  0  0  0  0  0  0  # atno 10764 bound_to 10752
  154.0965  135.6642  153.4913 H   0  0  0  0  0  0  0  0  0  0  0  0  # atno 10765 bound_to 10752
  141.1529  133.6738  156.6426 H   0  0  0  0  0  0  0  0  0  0  0  0  # atno 11005 bound_to 11000
  144.6940  139.9082  143.7462 LP  0  0  0  0  0  0  0  0  0  0  0  0  # atno 17320 bound_to 7965
  146.0707  139.3696  143.0524 LP  0  0  0  0  0  0  0  0  0  0  0  0  # atno 17321 bound_to 7965
  140.7813  143.4608  151.0281 LP  0  0  0  0  0  0  0  0  0  0  0  0  # atno 17342 bound_to 10162
  139.8292  143.7714  152.3179 LP  0  0  0  0  0  0  0  0  0  0  0  0  # atno 17343 bound_to 10162
  157.6163  130.8621  149.9034 LP  0  0  0  0  0  0  0  0  0  0  0  0  # atno 17370 bound_to 10713
  156.0697  130.3687  150.0802 LP  0  0  0  0  0  0  0  0  0  0  0  0  # atno 17371 bound_to 10713
  140.3381  134.7872  157.4377 LP  0  0  0  0  0  0  0  0  0  0  0  0  # atno 17394 bound_to 11000
  140.0960  134.5536  155.8398 LP  0  0  0  0  0  0  0  0  0  0  0  0  # atno 17395 bound_to 11000

$$$$
