AV-unprocessed.smi:2276|AV-procd|sdf|9174|dock1
  -GOLD-   2272012393D 1   1.00000     0.00000
 Structure written by MMmdl.
 53 54  0  0  0  0  0  0  0  0  2 V2000
  152.0878  145.8014  160.2868 C   0  0  0  0  0  0  0  0  0  0  0  0
  152.0430  144.4004  159.7141 C   0  0  0  0  0  0  0  0  0  0  0  0
  152.7462  143.3456  160.3268 C   0  0  0  0  0  0  0  0  0  0  0  0
  152.6653  142.0658  159.7442 C   0  0  0  0  0  0  0  0  0  0  0  0
  153.3970  140.8868  160.3504 C   0  0  0  0  0  0  0  0  0  0  0  0
  151.9493  141.8080  158.6287 N   0  0  0  0  0  0  0  0  0  0  0  0
  151.2684  142.8163  158.0294 C   0  0  0  0  0  0  0  0  0  0  0  0
  150.4850  142.6494  156.8566 N   0  0  0  0  0  0  0  0  0  0  0  0
  150.2790  141.5245  156.1492 C   0  0  0  0  0  0  0  0  0  0  0  0
  150.7713  140.4234  156.3976 O   0  0  0  0  0  0  0  0  0  0  0  0
  149.4574  141.7431  155.1136 N   0  0  0  0  0  0  0  0  0  0  0  0
  149.0350  140.7126  154.1731 C   0  0  0  0  0  0  0  0  0  0  0  0
  147.5047  140.5120  154.1877 C   0  0  2  0  0  0  0  0  0  0  0  0
  147.0233  139.7367  152.9476 C   0  0  0  0  0  0  0  0  0  0  0  0
  146.7615  141.8631  154.2847 C   0  0  0  0  0  0  0  0  0  0  0  0
  145.3268  141.7220  154.6443 N   0  3  0  0  0  0  0  0  0  0  0  0
  144.6607  143.0116  154.9576 C   0  0  0  0  0  0  0  0  0  0  0  0
  143.1617  142.7929  155.2529 C   0  0  0  0  0  0  0  0  0  0  0  0
  142.9449  141.8394  156.3420 N   0  0  0  0  0  0  0  0  0  0  0  0
  143.3044  142.3728  157.6515 C   0  0  0  0  0  0  0  0  0  0  0  0
  143.6093  140.5724  156.0334 C   0  0  0  0  0  0  0  0  0  0  0  0
  145.1150  140.7581  155.7512 C   0  0  0  0  0  0  0  0  0  0  0  0
  151.2943  144.1292  158.5509 C   0  0  0  0  0  0  0  0  0  0  0  0
  152.6092  145.8219  161.2445 H   0  0  0  0  0  0  0  0  0  0  0  0
  151.0772  146.1802  160.4413 H   0  0  0  0  0  0  0  0  0  0  0  0
  152.6060  146.4721  159.6011 H   0  0  0  0  0  0  0  0  0  0  0  0
  153.3319  143.5128  161.2190 H   0  0  0  0  0  0  0  0  0  0  0  0
  153.8145  141.1400  161.3253 H   0  0  0  0  0  0  0  0  0  0  0  0
  154.2139  140.5745  159.6995 H   0  0  0  0  0  0  0  0  0  0  0  0
  152.7189  140.0429  160.4813 H   0  0  0  0  0  0  0  0  0  0  0  0
  150.0230  143.4822  156.5228 H   0  0  0  0  0  0  0  0  0  0  0  0
  149.0929  142.6744  154.9746 H   0  0  0  0  0  0  0  0  0  0  0  0
  149.3713  141.0033  153.1769 H   0  0  0  0  0  0  0  0  0  0  0  0
  149.5364  139.7737  154.4150 H   0  0  0  0  0  0  0  0  0  0  0  0
  147.2493  139.9040  155.0551 H   0  0  0  0  0  0  0  0  0  0  0  0
  147.2789  140.2629  152.0273 H   0  0  0  0  0  0  0  0  0  0  0  0
  145.9413  139.6040  152.9634 H   0  0  0  0  0  0  0  0  0  0  0  0
  147.4667  138.7421  152.8954 H   0  0  0  0  0  0  0  0  0  0  0  0
  147.2645  142.4743  155.0359 H   0  0  0  0  0  0  0  0  0  0  0  0
  146.8391  142.4148  153.3464 H   0  0  0  0  0  0  0  0  0  0  0  0
  145.1586  143.4970  155.7979 H   0  0  0  0  0  0  0  0  0  0  0  0
  144.7489  143.6930  154.1126 H   0  0  0  0  0  0  0  0  0  0  0  0
  142.6794  143.7407  155.4948 H   0  0  0  0  0  0  0  0  0  0  0  0
  142.6657  142.4152  154.3575 H   0  0  0  0  0  0  0  0  0  0  0  0
  143.0655  141.6499  158.4323 H   0  0  0  0  0  0  0  0  0  0  0  0
  142.7352  143.2798  157.8577 H   0  0  0  0  0  0  0  0  0  0  0  0
  144.3635  142.6152  157.7299 H   0  0  0  0  0  0  0  0  0  0  0  0
  143.4594  139.8699  156.8542 H   0  0  0  0  0  0  0  0  0  0  0  0
  143.1271  140.1323  155.1593 H   0  0  0  0  0  0  0  0  0  0  0  0
  145.5431  139.7935  155.4760 H   0  0  0  0  0  0  0  0  0  0  0  0
  145.6461  141.0901  156.6444 H   0  0  0  0  0  0  0  0  0  0  0  0
  150.7475  144.9244  158.0646 H   0  0  0  0  0  0  0  0  0  0  0  0
  144.8595  141.3323  153.8380 H   0  0  0  0  0  0  0  0  0  0  0  0
  1  2  1  0  0  0  0
  1 24  1  0  0  0  0
  1 25  1  0  0  0  0
  1 26  1  0  0  0  0
  2 23  1  0  0  0  0
  2  3  2  0  0  0  0
  3  4  1  0  0  0  0
  3 27  1  0  0  0  0
  4  5  1  0  0  0  0
  4  6  2  0  0  0  0
  5 28  1  0  0  0  0
  5 29  1  0  0  0  0
  5 30  1  0  0  0  0
  6  7  1  0  0  0  0
  7  8  1  0  0  0  0
  7 23  2  0  0  0  0
  8  9  1  0  0  0  0
  8 31  1  0  0  0  0
  9 10  2  0  0  0  0
  9 11  1  0  0  0  0
 11 12  1  0  0  0  0
 11 32  1  0  0  0  0
 12 13  1  0  0  0  0
 12 33  1  0  0  0  0
 12 34  1  0  0  0  0
 13 14  1  0  0  0  0
 13 15  1  0  0  0  0
 13 35  1  0  0  0  0
 14 36  1  0  0  0  0
 14 37  1  0  0  0  0
 14 38  1  0  0  0  0
 15 16  1  0  0  0  0
 15 39  1  0  0  0  0
 15 40  1  0  0  0  0
 16 22  1  0  0  0  0
 16 17  1  0  0  0  0
 16 53  1  0  0  0  0
 17 18  1  0  0  0  0
 17 41  1  0  0  0  0
 17 42  1  0  0  0  0
 18 19  1  0  0  0  0
 18 43  1  0  0  0  0
 18 44  1  0  0  0  0
 19 20  1  0  0  0  0
 19 21  1  0  0  0  0
 20 45  1  0  0  0  0
 20 46  1  0  0  0  0
 20 47  1  0  0  0  0
 21 22  1  0  0  0  0
 21 48  1  0  0  0  0
 21 49  1  0  0  0  0
 22 50  1  0  0  0  0
 22 51  1  0  0  0  0
 23 52  1  0  0  0  0
M  CHG  1  16   1
M  END
> <s_m_source_file>
AV-unprocessed.smi

> <i_m_source_file_index>
2276

> <i_lp_mmshare_version>
43012

> <i_f3d_flags>
0

> <s_epik_input>
W0NIM11jMVtjSF1jKFtDSDNdKW5jKFtjSF0xKVtOSF1DKD1PKVtOSF1bQ0gyXVtDQEhdKFtDSDNdKVtDSDJdTjJbQ0gyXVtDSDJdTihbQ0gzXSlbQ0gyXVtDSDJdMg==

> <s_epik_cmdline>
J2VwaWtfcHl0aG9uJywgJy1waCcsICc3LjAnLCAnLXRuJywgJzgnLCAnLW1hJywgJzIwMCcsICctbWV0YWxfYmluZGluZycsICctaW1hZScsICc8aW5maWxlLm1hZT4nLCAnLW9tYWUnLCAnPG91dGZpbGUubWFlPic=

> <r_epik_Ionization_Penalty>
0.0485334

> <r_epik_Ionization_Penalty_Charging>
0.0462531

> <r_epik_Ionization_Penalty_Neutral>
0.00228028

> <r_epik_State_Penalty>
0.692588

> <r_epik_Charging_Adjusted_Penalty>
0.738841

> <i_epik_Tot_Q>
1

> <i_epik_Tot_abs_Q>
1

> <r_epik_Metal_State_Penalty>
0.692605

> <b_epik_Metal_Only>
0

> <s_lp_Force_Field>
OPLS_2005

> <r_lp_Energy>
23.0257

> <b_lp_Chiralities_Consistent>
1

> <s_lp_Variant>
AV-unprocessed.smi:2276-3

> <Gold.Version>
5.8.1

> <Gold.Id.Protein>
6NUR|6NUR_protein|mol2

> <Gold.PLP.Fitness>
55.6940

> <Gold.PLP.PLP>
-44.2543

> <Gold.PLP.part.hbond>
-3.0000

> <Gold.PLP.part.metal>
0.0000

> <Gold.PLP.part.buried>
-5.1036

> <Gold.PLP.part.nonpolar>
-37.8776

> <Gold.PLP.part.repulsive>
0.3443

> <Gold.PLP.ligand.clash>
0.0000

> <Gold.PLP.ligand.torsion>
0.3079

> <Gold.PLP.Chemscore.Hbond>
3.9760

> <Gold.PLP.Chemscore.CHOScore>
0.0000

> <Gold.PLP.Chemscore.Metal>
0.0000

> <Gold.Chemscore.Hbonds>
donor molecule, donor type, donor heavy atom, donor atom, acceptor molecule, acceptor atom, score
      L1  H     8    31       P1  8028  1.00
      L1  H    11    32       P1  8028  0.68
      L1  H    16    53       P1 10175  2.00

> <Gold.PLP.Chemscore.Internal.Correction>
0.1275

> <Gold.Rescore>
     Score         DG    S(hbond)    S(metal)    S(lipo)     H(rot)  DE(clash)    DE(int)     intcor
     21.23     -22.74       2.78        0.00     103.85       1.63       0.04       1.48       ----

> <Gold.Chemscore.Fitness>
21.2264

> <Gold.Chemscore.DG>
-22.7422

> <Gold.Chemscore.ZeroCoef>
-5.4800

> <Gold.Chemscore.Hbond>
2.7782

> <Gold.Chemscore.Metal>
0.0000

> <Gold.Chemscore.Lipo>
103.8548

> <Gold.Chemscore.Internal_Hbond>
0.0000

> <Gold.Chemscore.DEClash>
0.0352

> <Gold.Chemscore.DEInternal>
1.4805

> <Gold.Chemscore.Rot>
1.6282

> <Gold.Chemscore.Internal.Correction>
   9.000000E+99

> <Gold.Chemscore.Hbonds>
donor molecule, donor type, donor heavy atom, donor atom, acceptor molecule, acceptor atom, score
      L1  H     8    31       P1  8028  1.00
      L1  H    11    32       P1  8028  0.66
      L1  H    16    53       P1 10175  0.39

> <Gold.Chemscore.Hbond.Weighted>
-9.2793

> <Gold.Chemscore.Metal.Weighted>
-0.0000

> <Gold.Chemscore.Lipo.Weighted>
-12.1510

> <Gold.Chemscore.Internal_Hbond.Weighted>
0.0000

> <Gold.Chemscore.DEClash.Weighted>
0.0352

> <Gold.Chemscore.DEInternal.Weighted>
1.4805

> <Gold.Chemscore.Rot.Weighted>
4.1682

> <Gold.Chemscore.Internal.Correction.Weighted>
   9.000000E+99

> <Gold.Protein.RotatedTorsions>
[ 6907 6896 6895 6894 ] final   50.64 input  -60.11 | X-H torsion
[ 7974 7965 7964 7962 ] final  135.19 input  175.53 | X-H torsion
[ 8008 7997 7996 7995 ] final  174.70 input   59.86 | X-H torsion
[ 10167 10162 10161 10158 ] final   99.01 input  -65.29 | X-H torsion
[ 10718 10713 10712 10709 ] final  108.12 input   66.30 | X-H torsion
[ 10763 10752 10751 10750 ] final  130.57 input  -60.55 | X-H torsion
[ 11005 11000 10999 10996 ] final  159.46 input  -57.11 | X-H torsion

> <Gold.Protein.ActiveResidues>
 VAL166  LYS551  ARG553  GLY616  TRP617  ASP618  TYR619  PRO620  LYS621  CYS622 
 ASP623  PHE694  ASN695  SER759  ASP760  ASP761  ALA762  ILE779  LEU786  VAL792 
 PHE793  MET794  SER795  GLU796  ALA797  LYS798  CYS799  TRP800  GLU811  SER814 

> <Gold.Protein.RotatedAtoms>
  152.3040  134.7577  160.0351 H   0  0  0  0  0  0  0  0  0  0  0  0  # atno 6907 bound_to 6896
  151.8080  133.3373  159.3555 H   0  0  0  0  0  0  0  0  0  0  0  0  # atno 6908 bound_to 6896
  150.7287  134.5620  159.5891 H   0  0  0  0  0  0  0  0  0  0  0  0  # atno 6909 bound_to 6896
  144.9688  139.4628  143.5443 H   0  0  0  0  0  0  0  0  0  0  0  0  # atno 7974 bound_to 7965
  156.0947  140.1428  156.9546 H   0  0  0  0  0  0  0  0  0  0  0  0  # atno 8008 bound_to 7997
  154.4664  140.0925  156.7077 H   0  0  0  0  0  0  0  0  0  0  0  0  # atno 8009 bound_to 7997
  155.4860  140.3446  155.4349 H   0  0  0  0  0  0  0  0  0  0  0  0  # atno 8010 bound_to 7997
  139.7657  144.6940  151.0228 H   0  0  0  0  0  0  0  0  0  0  0  0  # atno 10167 bound_to 10162
  157.6600  131.0887  150.6258 H   0  0  0  0  0  0  0  0  0  0  0  0  # atno 10718 bound_to 10713
  153.7602  135.3197  155.3336 H   0  0  0  0  0  0  0  0  0  0  0  0  # atno 10763 bound_to 10752
  154.8232  135.4588  154.0845 H   0  0  0  0  0  0  0  0  0  0  0  0  # atno 10764 bound_to 10752
  153.2074  135.6931  153.8240 H   0  0  0  0  0  0  0  0  0  0  0  0  # atno 10765 bound_to 10752
  140.1964  134.8369  157.2970 H   0  0  0  0  0  0  0  0  0  0  0  0  # atno 11005 bound_to 11000
  146.3376  139.8886  142.8812 LP  0  0  0  0  0  0  0  0  0  0  0  0  # atno 17320 bound_to 7965
  145.2590  141.0070  143.3837 LP  0  0  0  0  0  0  0  0  0  0  0  0  # atno 17321 bound_to 7965
  140.7810  143.4646  151.0230 LP  0  0  0  0  0  0  0  0  0  0  0  0  # atno 17342 bound_to 10162
  139.8331  143.7664  152.3180 LP  0  0  0  0  0  0  0  0  0  0  0  0  # atno 17343 bound_to 10162
  156.6561  130.4499  149.5703 LP  0  0  0  0  0  0  0  0  0  0  0  0  # atno 17370 bound_to 10713
  156.2101  130.6673  151.1260 LP  0  0  0  0  0  0  0  0  0  0  0  0  # atno 17371 bound_to 10713
  140.2102  134.4148  155.7617 LP  0  0  0  0  0  0  0  0  0  0  0  0  # atno 17394 bound_to 11000
  141.2227  133.7114  156.8326 LP  0  0  0  0  0  0  0  0  0  0  0  0  # atno 17395 bound_to 11000

$$$$
