AV-unprocessed.smi:3159|AV-procd|sdf|12049|dock4
  -GOLD-   2272017473D 1   1.00000     0.00000
 Structure written by MMmdl.
 35 36  0  0  0  0  0  0  0  0  1 V2000
  154.1482  141.4032  160.8720 C   0  0  0  0  0  0  0  0  0  0  0  0
  153.2282  142.1226  159.9303 C   0  0  0  0  0  0  0  0  0  0  0  0
  152.4800  141.5775  158.8465 C   0  0  0  0  0  0  0  0  0  0  0  0
  151.8295  142.6733  158.3484 C   0  0  0  0  0  0  0  0  0  0  0  0
  150.9689  142.7538  157.2989 N   0  0  0  0  0  0  0  0  0  0  0  0
  150.6671  141.8145  156.3855 C   0  0  0  0  0  0  0  0  0  0  0  0
  151.1479  140.6821  156.3402 O   0  0  0  0  0  0  0  0  0  0  0  0
  149.7607  142.2688  155.5078 N   0  0  0  0  0  0  0  0  0  0  0  0
  149.2092  141.5097  154.3894 C   0  0  0  0  0  0  0  0  0  0  0  0
  147.6726  141.4267  154.4543 C   0  0  2  0  0  0  0  0  0  0  0  0
  146.9699  142.6339  153.8677 C   0  0  0  0  0  0  0  0  0  0  0  0
  145.5703  142.5093  154.4632 C   0  0  0  0  0  0  0  0  0  0  0  0
  145.7363  141.8626  155.7221 O   0  0  0  0  0  0  0  0  0  0  0  0
  147.0783  141.4071  155.8638 C   0  0  0  0  0  0  0  0  0  0  0  0
  152.1797  143.7762  159.0954 N   0  0  0  0  0  0  0  0  0  0  0  0
  151.7559  145.1558  158.9561 C   0  0  0  0  0  0  0  0  0  0  0  0
  153.0457  143.4306  160.0725 N   0  0  0  0  0  0  0  0  0  0  0  0
  154.2188  140.3444  160.6219 H   0  0  0  0  0  0  0  0  0  0  0  0
  153.7939  141.4781  161.9003 H   0  0  0  0  0  0  0  0  0  0  0  0
  155.1550  141.8204  160.8338 H   0  0  0  0  0  0  0  0  0  0  0  0
  152.4426  140.5526  158.5094 H   0  0  0  0  0  0  0  0  0  0  0  0
  150.4892  143.6366  157.2039 H   0  0  0  0  0  0  0  0  0  0  0  0
  149.4228  143.2132  155.6224 H   0  0  0  0  0  0  0  0  0  0  0  0
  149.5332  141.9290  153.4352 H   0  0  0  0  0  0  0  0  0  0  0  0
  149.6286  140.5045  154.4361 H   0  0  0  0  0  0  0  0  0  0  0  0
  147.3342  140.5378  153.9186 H   0  0  0  0  0  0  0  0  0  0  0  0
  147.4413  143.5547  154.2149 H   0  0  0  0  0  0  0  0  0  0  0  0
  146.9671  142.6420  152.7774 H   0  0  0  0  0  0  0  0  0  0  0  0
  145.0787  143.4763  154.5732 H   0  0  0  0  0  0  0  0  0  0  0  0
  144.9421  141.8800  153.8315 H   0  0  0  0  0  0  0  0  0  0  0  0
  147.1158  140.4183  156.3215 H   0  0  0  0  0  0  0  0  0  0  0  0
  147.6092  142.1019  156.5162 H   0  0  0  0  0  0  0  0  0  0  0  0
  150.6676  145.2034  158.9107 H   0  0  0  0  0  0  0  0  0  0  0  0
  152.1706  145.5740  158.0387 H   0  0  0  0  0  0  0  0  0  0  0  0
  152.0988  145.7506  159.8037 H   0  0  0  0  0  0  0  0  0  0  0  0
  1  2  1  0  0  0  0
  1 18  1  0  0  0  0
  1 19  1  0  0  0  0
  1 20  1  0  0  0  0
  2 17  2  0  0  0  0
  2  3  1  0  0  0  0
  3  4  2  0  0  0  0
  3 21  1  0  0  0  0
  4  5  1  0  0  0  0
  4 15  1  0  0  0  0
  5  6  1  0  0  0  0
  5 22  1  0  0  0  0
  6  7  2  0  0  0  0
  6  8  1  0  0  0  0
  8  9  1  0  0  0  0
  8 23  1  0  0  0  0
  9 10  1  0  0  0  0
  9 24  1  0  0  0  0
  9 25  1  0  0  0  0
 10 14  1  0  0  0  0
 10 11  1  0  0  0  0
 10 26  1  0  0  0  0
 11 12  1  0  0  0  0
 11 27  1  0  0  0  0
 11 28  1  0  0  0  0
 12 13  1  0  0  0  0
 12 29  1  0  0  0  0
 12 30  1  0  0  0  0
 13 14  1  0  0  0  0
 14 31  1  0  0  0  0
 14 32  1  0  0  0  0
 15 16  1  0  0  0  0
 15 17  1  0  0  0  0
 16 33  1  0  0  0  0
 16 34  1  0  0  0  0
 16 35  1  0  0  0  0
M  END
> <s_m_source_file>
AV-unprocessed.smi

> <i_m_source_file_index>
3159

> <i_lp_mmshare_version>
43012

> <i_f3d_flags>
0

> <s_epik_input>
W0NIM11jMVtjSF1jKG4objEpW0NIM10pW05IXUMoPU8pW05IXVtDSDJdW0NAQEhdMltDSDJdW0NIMl1PW0NIMl0y

> <s_epik_cmdline>
J2VwaWtfcHl0aG9uJywgJy1waCcsICc3LjAnLCAnLXRuJywgJzgnLCAnLW1hJywgJzIwMCcsICctbWV0YWxfYmluZGluZycsICctaW1hZScsICc8aW5maWxlLm1hZT4nLCAnLW9tYWUnLCAnPG91dGZpbGUubWFlPic=

> <r_lp_tautomer_probability>
1

> <r_epik_Ionization_Penalty>
9.40319e-05

> <r_epik_Ionization_Penalty_Charging>
0

> <r_epik_Ionization_Penalty_Neutral>
9.40319e-05

> <r_epik_State_Penalty>
-0

> <r_epik_Charging_Adjusted_Penalty>
0

> <i_epik_Tot_Q>
0

> <i_epik_Tot_abs_Q>
0

> <r_epik_Metal_State_Penalty>
-0

> <b_epik_Metal_Only>
0

> <s_lp_Force_Field>
OPLS_2005

> <r_lp_Energy>
20.0318

> <b_lp_Chiralities_Consistent>
1

> <s_lp_Variant>
AV-unprocessed.smi:3159-1

> <Gold.Version>
5.8.1

> <Gold.Id.Protein>
6NUR|6NUR_protein|mol2

> <Gold.PLP.Fitness>
41.2592

> <Gold.PLP.PLP>
-38.8861

> <Gold.PLP.part.hbond>
-1.0089

> <Gold.PLP.part.metal>
0.0000

> <Gold.PLP.part.buried>
-5.3880

> <Gold.PLP.part.nonpolar>
-32.1179

> <Gold.PLP.part.repulsive>
0.3281

> <Gold.PLP.ligand.clash>
0.0000

> <Gold.PLP.ligand.torsion>
0.3163

> <Gold.PLP.Chemscore.Hbond>
1.0000

> <Gold.PLP.Chemscore.CHOScore>
0.0000

> <Gold.PLP.Chemscore.Metal>
0.0000

> <Gold.Chemscore.Hbonds>
donor molecule, donor type, donor heavy atom, donor atom, acceptor molecule, acceptor atom, score
      L1  H     8    23       P1  8028  1.00

> <Gold.PLP.Chemscore.Internal.Correction>
0.0057

> <Gold.Rescore>
     Score         DG    S(hbond)    S(metal)    S(lipo)     H(rot)  DE(clash)    DE(int)     intcor
     15.30     -16.77       1.90        0.00      69.55       1.25       0.11       1.36       ----

> <Gold.Chemscore.Fitness>
15.3021

> <Gold.Chemscore.DG>
-16.7708

> <Gold.Chemscore.ZeroCoef>
-5.4800

> <Gold.Chemscore.Hbond>
1.9007

> <Gold.Chemscore.Metal>
0.0000

> <Gold.Chemscore.Lipo>
69.5477

> <Gold.Chemscore.Internal_Hbond>
0.0000

> <Gold.Chemscore.DEClash>
0.1087

> <Gold.Chemscore.DEInternal>
1.3601

> <Gold.Chemscore.Rot>
1.2478

> <Gold.Chemscore.Internal.Correction>
   9.000000E+99

> <Gold.Chemscore.Hbonds>
donor molecule, donor type, donor heavy atom, donor atom, acceptor molecule, acceptor atom, score
      L1  H     5    22       P1  8028  0.03
      L1  H     8    23       P1  8028  0.99

> <Gold.Chemscore.Hbond.Weighted>
-6.3482

> <Gold.Chemscore.Metal.Weighted>
-0.0000

> <Gold.Chemscore.Lipo.Weighted>
-8.1371

> <Gold.Chemscore.Internal_Hbond.Weighted>
0.0000

> <Gold.Chemscore.DEClash.Weighted>
0.1087

> <Gold.Chemscore.DEInternal.Weighted>
1.3601

> <Gold.Chemscore.Rot.Weighted>
3.1944

> <Gold.Chemscore.Internal.Correction.Weighted>
   9.000000E+99

> <Gold.Protein.RotatedTorsions>
[ 6907 6896 6895 6894 ] final   94.58 input  -60.11 | X-H torsion
[ 7974 7965 7964 7962 ] final   -8.87 input  175.53 | X-H torsion
[ 8008 7997 7996 7995 ] final  -42.54 input   59.86 | X-H torsion
[ 10167 10162 10161 10158 ] final  -14.04 input  -65.29 | X-H torsion
[ 10718 10713 10712 10709 ] final  -14.89 input   66.30 | X-H torsion
[ 10763 10752 10751 10750 ] final  169.58 input  -60.55 | X-H torsion
[ 11005 11000 10999 10996 ] final -176.00 input  -57.11 | X-H torsion

> <Gold.Protein.ActiveResidues>
 VAL166  LYS551  ARG553  GLY616  TRP617  ASP618  TYR619  PRO620  LYS621  CYS622 
 ASP623  PHE694  ASN695  SER759  ASP760  ASP761  ALA762  ILE779  LEU786  VAL792 
 PHE793  MET794  SER795  GLU796  ALA797  LYS798  CYS799  TRP800  GLU811  SER814 

> <Gold.Protein.RotatedAtoms>
  152.5449  134.1172  159.8383 H   0  0  0  0  0  0  0  0  0  0  0  0  # atno 6907 bound_to 6896
  151.1232  133.5082  159.2609 H   0  0  0  0  0  0  0  0  0  0  0  0  # atno 6908 bound_to 6896
  151.1756  135.0347  159.8825 H   0  0  0  0  0  0  0  0  0  0  0  0  # atno 6909 bound_to 6896
  146.2268  140.2533  142.8348 H   0  0  0  0  0  0  0  0  0  0  0  0  # atno 7974 bound_to 7965
  154.3999  140.1471  156.3371 H   0  0  0  0  0  0  0  0  0  0  0  0  # atno 8008 bound_to 7997
  155.8390  140.3463  155.5599 H   0  0  0  0  0  0  0  0  0  0  0  0  # atno 8009 bound_to 7997
  155.8107  140.0883  157.1896 H   0  0  0  0  0  0  0  0  0  0  0  0  # atno 8010 bound_to 7997
  140.7194  143.5363  150.9461 H   0  0  0  0  0  0  0  0  0  0  0  0  # atno 10167 bound_to 10162
  156.6095  130.4846  149.6207 H   0  0  0  0  0  0  0  0  0  0  0  0  # atno 10718 bound_to 10713
  154.3852  135.2753  155.2187 H   0  0  0  0  0  0  0  0  0  0  0  0  # atno 10763 bound_to 10752
  154.4277  135.5985  153.6053 H   0  0  0  0  0  0  0  0  0  0  0  0  # atno 10764 bound_to 10752
  152.9833  135.5988  154.4100 H   0  0  0  0  0  0  0  0  0  0  0  0  # atno 10765 bound_to 10752
  140.4569  134.6291  157.4826 H   0  0  0  0  0  0  0  0  0  0  0  0  # atno 11005 bound_to 11000
  144.9395  140.8063  143.5639 LP  0  0  0  0  0  0  0  0  0  0  0  0  # atno 17320 bound_to 7965
  145.2483  139.2042  143.4956 LP  0  0  0  0  0  0  0  0  0  0  0  0  # atno 17321 bound_to 7965
  139.9084  143.6750  152.3119 LP  0  0  0  0  0  0  0  0  0  0  0  0  # atno 17342 bound_to 10162
  139.7124  144.7618  151.1089 LP  0  0  0  0  0  0  0  0  0  0  0  0  # atno 17343 bound_to 10162
  156.2401  130.6846  151.1547 LP  0  0  0  0  0  0  0  0  0  0  0  0  # atno 17370 bound_to 10713
  157.7258  131.0651  150.5938 LP  0  0  0  0  0  0  0  0  0  0  0  0  # atno 17371 bound_to 10713
  139.9970  134.6895  155.9593 LP  0  0  0  0  0  0  0  0  0  0  0  0  # atno 17394 bound_to 11000
  141.1639  133.6537  156.4411 LP  0  0  0  0  0  0  0  0  0  0  0  0  # atno 17395 bound_to 11000

$$$$
