AV-unprocessed.smi:1641|AV-procd|sdf|6567|dock2
  -GOLD-   22720 7253D 1   1.00000     0.00000
 Structure written by MMmdl.
 41 42  0  0  0  0  0  0  0  0  3 V2000
  150.7257  141.6116  156.3020 C   0  0  0  0  0  0  0  0  0  0  0  0
  151.1028  140.1899  156.0616 C   0  0  0  0  0  0  0  0  0  0  0  0
  152.2943  139.6911  156.3997 N   0  0  0  0  0  0  0  0  0  0  0  0
  152.4082  138.3464  156.0778 N   0  0  0  0  0  0  0  0  0  0  0  0
  151.3010  137.8455  155.5117 C   0  0  0  0  0  0  0  0  0  0  0  0
  151.2065  136.5626  155.1245 N   0  5  0  0  0  0  0  0  0  0  0  0
  149.9909  135.9924  154.9685 C   0  0  0  0  0  0  0  0  0  0  0  0
  148.9005  136.5153  155.2112 O   0  0  0  0  0  0  0  0  0  0  0  0
  150.0401  134.7357  154.5044 N   0  0  0  0  0  0  0  0  0  0  0  0
  148.8877  133.8787  154.2537 C   0  0  0  0  0  0  0  0  0  0  0  0
  149.1270  132.9623  153.0398 C   0  0  0  0  0  0  0  0  0  0  0  0
  147.8569  132.4811  152.4431 N   0  3  1  0  0  0  0  0  0  0  0  0
  147.0875  131.6155  153.3677 C   0  0  0  0  0  0  0  0  0  0  0  0
  145.8062  131.0829  152.6964 C   0  0  2  0  0  0  0  0  0  0  0  0
  146.0697  129.9842  151.6511 C   0  0  0  0  0  0  0  0  0  0  0  0
  145.0424  132.1646  152.1625 O   0  0  0  0  0  0  0  0  0  0  0  0
  145.7452  132.9982  151.2443 C   0  0  1  0  0  0  0  0  0  0  0  0
  144.7866  134.1006  150.7808 C   0  0  0  0  0  0  0  0  0  0  0  0
  146.9976  133.5745  151.9287 C   0  0  0  0  0  0  0  0  0  0  0  0
  150.0139  139.0344  155.3122 S   0  0  0  0  0  0  0  0  0  0  0  0
  150.4050  141.7416  157.3357 H   0  0  0  0  0  0  0  0  0  0  0  0
  149.9084  141.9028  155.6417 H   0  0  0  0  0  0  0  0  0  0  0  0
  151.5765  142.2664  156.1120 H   0  0  0  0  0  0  0  0  0  0  0  0
  150.9527  134.3469  154.3156 H   0  0  0  0  0  0  0  0  0  0  0  0
  148.6625  133.3053  155.1533 H   0  0  0  0  0  0  0  0  0  0  0  0
  148.0242  134.5188  154.0709 H   0  0  0  0  0  0  0  0  0  0  0  0
  149.6834  133.5313  152.2932 H   0  0  0  0  0  0  0  0  0  0  0  0
  149.7542  132.1093  153.3042 H   0  0  0  0  0  0  0  0  0  0  0  0
  147.7040  130.7807  153.7039 H   0  0  0  0  0  0  0  0  0  0  0  0
  146.8249  132.1914  154.2567 H   0  0  0  0  0  0  0  0  0  0  0  0
  145.1878  130.6335  153.4740 H   0  0  0  0  0  0  0  0  0  0  0  0
  146.5318  129.1126  152.1155 H   0  0  0  0  0  0  0  0  0  0  0  0
  146.7368  130.3183  150.8570 H   0  0  0  0  0  0  0  0  0  0  0  0
  145.1382  129.6552  151.1900 H   0  0  0  0  0  0  0  0  0  0  0  0
  146.0393  132.4176  150.3697 H   0  0  0  0  0  0  0  0  0  0  0  0
  145.2696  134.7656  150.0642 H   0  0  0  0  0  0  0  0  0  0  0  0
  144.4445  134.7058  151.6209 H   0  0  0  0  0  0  0  0  0  0  0  0
  143.9070  133.6746  150.2975 H   0  0  0  0  0  0  0  0  0  0  0  0
  146.7100  134.2295  152.7530 H   0  0  0  0  0  0  0  0  0  0  0  0
  147.5484  134.1866  151.2154 H   0  0  0  0  0  0  0  0  0  0  0  0
  148.1099  131.9020  151.6553 H   0  0  0  0  0  0  0  0  0  0  0  0
  1  2  1  0  0  0  0
  1 21  1  0  0  0  0
  1 22  1  0  0  0  0
  1 23  1  0  0  0  0
  2 20  1  0  0  0  0
  2  3  2  0  0  0  0
  3  4  1  0  0  0  0
  4  5  2  0  0  0  0
  5  6  1  0  0  0  0
  5 20  1  0  0  0  0
  6  7  1  0  0  0  0
  7  8  2  0  0  0  0
  7  9  1  0  0  0  0
  9 10  1  0  0  0  0
  9 24  1  0  0  0  0
 10 11  1  0  0  0  0
 10 25  1  0  0  0  0
 10 26  1  0  0  0  0
 11 12  1  0  0  0  0
 11 27  1  0  0  0  0
 11 28  1  0  0  0  0
 12 19  1  0  0  0  0
 12 13  1  0  0  0  0
 12 41  1  0  0  0  0
 13 14  1  0  0  0  0
 13 29  1  0  0  0  0
 13 30  1  0  0  0  0
 14 15  1  0  0  0  0
 14 16  1  0  0  0  0
 14 31  1  0  0  0  0
 15 32  1  0  0  0  0
 15 33  1  0  0  0  0
 15 34  1  0  0  0  0
 16 17  1  0  0  0  0
 17 18  1  0  0  0  0
 17 19  1  0  0  0  0
 17 35  1  0  0  0  0
 18 36  1  0  0  0  0
 18 37  1  0  0  0  0
 18 38  1  0  0  0  0
 19 39  1  0  0  0  0
 19 40  1  0  0  0  0
M  CHG  1   6  -1
M  CHG  1  12   1
M  END
> <s_m_source_file>
AV-unprocessed.smi

> <i_m_source_file_index>
1641

> <i_lp_mmshare_version>
43012

> <i_f3d_flags>
0

> <s_epik_input>
W0NIM11jMW5uYyhzMSlbTkhdQyg9TylbTkhdW0NIMl1bQ0gyXU4yW0NIMl1bQ0BASF0oW0NIM10pT1tDQEBIXShbQ0gzXSlbQ0gyXTI=

> <s_epik_cmdline>
J2VwaWtfcHl0aG9uJywgJy1waCcsICc3LjAnLCAnLXRuJywgJzgnLCAnLW1hJywgJzIwMCcsICctbWV0YWxfYmluZGluZycsICctaW1hZScsICc8aW5maWxlLm1hZT4nLCAnLW9tYWUnLCAnPG91dGZpbGUubWFlPic=

> <r_lp_tautomer_probability>
1

> <r_epik_Ionization_Penalty>
3.5343

> <r_epik_Ionization_Penalty_Charging>
3.42778

> <r_epik_Ionization_Penalty_Neutral>
0.106519

> <r_epik_State_Penalty>
3.62118

> <r_epik_Charging_Adjusted_Penalty>
7.04896

> <i_epik_Tot_Q>
0

> <i_epik_Tot_abs_Q>
2

> <r_epik_Metal_State_Penalty>
1.13984

> <b_epik_Metal_Only>
1

> <s_lp_Force_Field>
OPLS_2005

> <r_lp_Energy>
10.2007

> <b_lp_Chiralities_Consistent>
1

> <s_lp_Variant>
AV-unprocessed.smi:1641-12

> <Gold.Version>
5.8.1

> <Gold.Id.Protein>
6NUR|6NUR_protein|mol2

> <Gold.PLP.Fitness>
43.8550

> <Gold.PLP.PLP>
-32.5468

> <Gold.PLP.part.hbond>
-3.5622

> <Gold.PLP.part.metal>
0.0000

> <Gold.PLP.part.buried>
-4.9935

> <Gold.PLP.part.nonpolar>
-23.7054

> <Gold.PLP.part.repulsive>
0.4751

> <Gold.PLP.ligand.clash>
0.0000

> <Gold.PLP.ligand.torsion>
0.4023

> <Gold.PLP.Chemscore.Hbond>
4.0000

> <Gold.PLP.Chemscore.CHOScore>
0.0000

> <Gold.PLP.Chemscore.Metal>
0.0000

> <Gold.Chemscore.Hbonds>
donor molecule, donor type, donor heavy atom, donor atom, acceptor molecule, acceptor atom, score
      L1  H    12    41       P1 10747  1.00
      P1  H  7997  8008       L1     3  0.73
      P1  H 10752 10765       L1     6  1.85

> <Gold.PLP.Chemscore.Internal.Correction>
0.1128

> <Gold.Rescore>
     Score         DG    S(hbond)    S(metal)    S(lipo)     H(rot)  DE(clash)    DE(int)     intcor
     16.23     -18.21       2.55        0.00      71.27       1.61       0.18       1.79       ----

> <Gold.Chemscore.Fitness>
16.2306

> <Gold.Chemscore.DG>
-18.2082

> <Gold.Chemscore.ZeroCoef>
-5.4800

> <Gold.Chemscore.Hbond>
2.5460

> <Gold.Chemscore.Metal>
0.0000

> <Gold.Chemscore.Lipo>
71.2696

> <Gold.Chemscore.Internal_Hbond>
0.0000

> <Gold.Chemscore.DEClash>
0.1847

> <Gold.Chemscore.DEInternal>
1.7929

> <Gold.Chemscore.Rot>
1.6070

> <Gold.Chemscore.Internal.Correction>
   9.000000E+99

> <Gold.Chemscore.Hbonds>
donor molecule, donor type, donor heavy atom, donor atom, acceptor molecule, acceptor atom, score
      L1  H    12    41       P1 10747  0.99
      P1  H  7997  8008       L1     3  0.12
      P1  H 10752 10765       L1     6  0.83

> <Gold.Chemscore.Hbond.Weighted>
-8.5035

> <Gold.Chemscore.Metal.Weighted>
-0.0000

> <Gold.Chemscore.Lipo.Weighted>
-8.3385

> <Gold.Chemscore.Internal_Hbond.Weighted>
0.0000

> <Gold.Chemscore.DEClash.Weighted>
0.1847

> <Gold.Chemscore.DEInternal.Weighted>
1.7929

> <Gold.Chemscore.Rot.Weighted>
4.1139

> <Gold.Chemscore.Internal.Correction.Weighted>
   9.000000E+99

> <Gold.Protein.RotatedTorsions>
[ 6907 6896 6895 6894 ] final  -23.58 input  -60.11 | X-H torsion
[ 7974 7965 7964 7962 ] final  121.66 input  175.53 | X-H torsion
[ 8008 7997 7996 7995 ] final  -50.89 input   59.86 | X-H torsion
[ 10167 10162 10161 10158 ] final   49.48 input  -65.29 | X-H torsion
[ 10718 10713 10712 10709 ] final  102.86 input   66.30 | X-H torsion
[ 10763 10752 10751 10750 ] final -172.17 input  -60.55 | X-H torsion
[ 11005 11000 10999 10996 ] final  -79.30 input  -57.11 | X-H torsion

> <Gold.Protein.ActiveResidues>
 VAL166  LYS551  ARG553  GLY616  TRP617  ASP618  TYR619  PRO620  LYS621  CYS622 
 ASP623  PHE694  ASN695  SER759  ASP760  ASP761  ALA762  ILE779  LEU786  VAL792 
 PHE793  MET794  SER795  GLU796  ALA797  LYS798  CYS799  TRP800  GLU811  SER814 

> <Gold.Protein.RotatedAtoms>
  151.2020  135.0446  159.8875 H   0  0  0  0  0  0  0  0  0  0  0  0  # atno 6907 bound_to 6896
  152.5432  134.0839  159.8258 H   0  0  0  0  0  0  0  0  0  0  0  0  # atno 6908 bound_to 6896
  151.0981  133.5216  159.2643 H   0  0  0  0  0  0  0  0  0  0  0  0  # atno 6909 bound_to 6896
  145.1166  139.3416  143.4735 H   0  0  0  0  0  0  0  0  0  0  0  0  # atno 7974 bound_to 7965
  154.4071  140.1261  156.4740 H   0  0  0  0  0  0  0  0  0  0  0  0  # atno 8008 bound_to 7997
  155.7151  140.3493  155.4971 H   0  0  0  0  0  0  0  0  0  0  0  0  # atno 8009 bound_to 7997
  155.9265  140.1062  157.1156 H   0  0  0  0  0  0  0  0  0  0  0  0  # atno 8010 bound_to 7997
  140.2824  144.3140  150.6261 H   0  0  0  0  0  0  0  0  0  0  0  0  # atno 10167 bound_to 10162
  157.6790  131.0764  150.5467 H   0  0  0  0  0  0  0  0  0  0  0  0  # atno 10718 bound_to 10713
  154.6223  135.2876  155.0312 H   0  0  0  0  0  0  0  0  0  0  0  0  # atno 10763 bound_to 10752
  154.1502  135.6504  153.4965 H   0  0  0  0  0  0  0  0  0  0  0  0  # atno 10764 bound_to 10752
  153.0241  135.5354  154.7018 H   0  0  0  0  0  0  0  0  0  0  0  0  # atno 10765 bound_to 10752
  141.1667  133.7100  156.8102 H   0  0  0  0  0  0  0  0  0  0  0  0  # atno 11005 bound_to 11000
  146.3523  140.1108  142.8604 LP  0  0  0  0  0  0  0  0  0  0  0  0  # atno 17320 bound_to 7965
  145.0787  140.9206  143.4838 LP  0  0  0  0  0  0  0  0  0  0  0  0  # atno 17321 bound_to 7965
  140.5800  143.2173  151.7445 LP  0  0  0  0  0  0  0  0  0  0  0  0  # atno 17342 bound_to 10162
  139.4959  144.4094  152.0097 LP  0  0  0  0  0  0  0  0  0  0  0  0  # atno 17343 bound_to 10162
  156.5773  130.4295  149.5993 LP  0  0  0  0  0  0  0  0  0  0  0  0  # atno 17370 bound_to 10713
  156.2691  130.7006  151.1798 LP  0  0  0  0  0  0  0  0  0  0  0  0  # atno 17371 bound_to 10713
  140.2193  134.8769  157.3360 LP  0  0  0  0  0  0  0  0  0  0  0  0  # atno 17394 bound_to 11000
  140.2004  134.4261  155.7666 LP  0  0  0  0  0  0  0  0  0  0  0  0  # atno 17395 bound_to 11000

$$$$
