AV-unprocessed.smi:34|AV-procd|sdf|229|dock5
  -GOLD-   2262015553D 1   1.00000     0.00000
 Structure written by MMmdl.
 55 59  0  0  0  0  0  0  0  0  1 V2000
  150.6370  140.3253  156.3615 O   0  0  0  0  0  0  0  0  0  0  0  0
  150.4758  141.5179  156.6229 C   0  0  0  0  0  0  0  0  0  0  0  0
  149.4445  142.3173  155.9857 N   0  0  0  0  0  0  0  0  0  0  0  0
  148.5004  141.9136  155.1038 C   0  0  0  0  0  0  0  0  0  0  0  0
  148.0034  142.7346  154.1416 N   0  0  0  0  0  0  0  0  0  0  0  0
  147.0691  142.2905  153.2967 C   0  0  0  0  0  0  0  0  0  0  0  0
  146.5051  141.0829  153.2406 N   0  0  0  0  0  0  0  0  0  0  0  0
  147.0012  140.2483  154.1983 C   0  0  0  0  0  0  0  0  0  0  0  0
  147.9960  140.5879  155.1574 C   0  0  0  0  0  0  0  0  0  0  0  0
  148.2570  139.4941  155.9720 N   0  0  0  0  0  0  0  0  0  0  0  0
  147.4570  138.5663  155.5205 C   0  0  0  0  0  0  0  0  0  0  0  0
  146.6607  138.9347  154.4590 N   0  0  0  0  0  0  0  0  0  0  0  0
  145.6453  138.0856  153.7564 C   0  0  2  0  0  0  0  0  0  0  0  0
  145.6065  136.8108  154.3288 O   0  0  0  0  0  0  0  0  0  0  0  0
  145.5160  135.7968  153.3225 C   0  0  2  0  0  0  0  0  0  0  0  0
  146.8185  134.9805  153.3212 C   0  0  0  0  0  0  0  0  0  0  0  0
  146.5021  133.6104  153.1336 O   0  0  0  0  0  0  0  0  0  0  0  0
  147.4150  132.6585  153.4097 C   0  0  0  0  0  0  0  0  0  0  0  0
  148.5076  132.8895  153.9320 O   0  0  0  0  0  0  0  0  0  0  0  0
  146.9587  131.2909  153.0288 C   0  0  0  0  0  0  0  0  0  0  0  0
  145.7617  131.1403  152.2905 C   0  0  0  0  0  0  0  0  0  0  0  0
  145.3086  129.8614  151.9119 C   0  0  0  0  0  0  0  0  0  0  0  0
  146.0471  128.7178  152.2671 C   0  0  0  0  0  0  0  0  0  0  0  0
  147.2391  128.8544  153.0017 C   0  0  0  0  0  0  0  0  0  0  0  0
  147.6941  130.1324  153.3806 C   0  0  0  0  0  0  0  0  0  0  0  0
  145.2707  136.5708  152.0224 C   0  0  2  0  0  0  0  0  0  0  0  0
  145.6788  135.9561  150.9107 F   0  0  0  0  0  0  0  0  0  0  0  0
  145.9374  137.9121  152.2606 C   0  0  2  0  0  0  0  0  0  0  0  0
  147.3211  137.8970  151.9543 O   0  0  0  0  0  0  0  0  0  0  0  0
  151.3959  142.2533  157.5526 C   0  0  0  0  0  0  0  0  0  0  0  0
  152.1150  141.5448  158.5412 C   0  0  0  0  0  0  0  0  0  0  0  0
  152.9725  142.2276  159.4256 C   0  0  0  0  0  0  0  0  0  0  0  0
  153.1106  143.6254  159.3349 C   0  0  0  0  0  0  0  0  0  0  0  0
  152.3878  144.3407  158.3615 C   0  0  0  0  0  0  0  0  0  0  0  0
  151.5309  143.6589  157.4754 C   0  0  0  0  0  0  0  0  0  0  0  0
  149.4353  143.2977  156.2258 H   0  0  0  0  0  0  0  0  0  0  0  0
  146.7227  143.0034  152.5627 H   0  0  0  0  0  0  0  0  0  0  0  0
  147.4203  137.5792  155.9585 H   0  0  0  0  0  0  0  0  0  0  0  0
  144.6911  138.5814  153.9401 H   0  0  0  0  0  0  0  0  0  0  0  0
  144.6731  135.1368  153.5312 H   0  0  0  0  0  0  0  0  0  0  0  0
  147.4680  135.3026  152.5067 H   0  0  0  0  0  0  0  0  0  0  0  0
  147.3662  135.1320  154.2512 H   0  0  0  0  0  0  0  0  0  0  0  0
  145.1791  132.0041  152.0049 H   0  0  0  0  0  0  0  0  0  0  0  0
  144.3938  129.7589  151.3473 H   0  0  0  0  0  0  0  0  0  0  0  0
  145.7000  127.7371  151.9767 H   0  0  0  0  0  0  0  0  0  0  0  0
  147.8072  127.9774  153.2748 H   0  0  0  0  0  0  0  0  0  0  0  0
  148.6136  130.2018  153.9430 H   0  0  0  0  0  0  0  0  0  0  0  0
  144.1974  136.7281  151.9054 H   0  0  0  0  0  0  0  0  0  0  0  0
  145.4637  138.7153  151.6955 H   0  0  0  0  0  0  0  0  0  0  0  0
  147.6983  137.1064  152.3091 H   0  0  0  0  0  0  0  0  0  0  0  0
  152.0190  140.4718  158.6239 H   0  0  0  0  0  0  0  0  0  0  0  0
  153.5238  141.6777  160.1738 H   0  0  0  0  0  0  0  0  0  0  0  0
  153.7677  144.1488  160.0139 H   0  0  0  0  0  0  0  0  0  0  0  0
  152.4884  145.4140  158.2956 H   0  0  0  0  0  0  0  0  0  0  0  0
  150.9787  144.2275  156.7411 H   0  0  0  0  0  0  0  0  0  0  0  0
  1  2  2  0  0  0  0
  2  3  1  0  0  0  0
  2 30  1  0  0  0  0
  3  4  1  0  0  0  0
  3 36  1  0  0  0  0
  4  9  1  0  0  0  0
  4  5  2  0  0  0  0
  5  6  1  0  0  0  0
  6  7  2  0  0  0  0
  6 37  1  0  0  0  0
  7  8  1  0  0  0  0
  8 12  1  0  0  0  0
  8  9  2  0  0  0  0
  9 10  1  0  0  0  0
 10 11  2  0  0  0  0
 11 12  1  0  0  0  0
 11 38  1  0  0  0  0
 12 13  1  0  0  0  0
 13 28  1  0  0  0  0
 13 14  1  0  0  0  0
 13 39  1  0  0  0  0
 14 15  1  0  0  0  0
 15 16  1  0  0  0  0
 15 26  1  0  0  0  0
 15 40  1  0  0  0  0
 16 17  1  0  0  0  0
 16 41  1  0  0  0  0
 16 42  1  0  0  0  0
 17 18  1  0  0  0  0
 18 19  2  0  0  0  0
 18 20  1  0  0  0  0
 20 25  1  0  0  0  0
 20 21  2  0  0  0  0
 21 22  1  0  0  0  0
 21 43  1  0  0  0  0
 22 23  2  0  0  0  0
 22 44  1  0  0  0  0
 23 24  1  0  0  0  0
 23 45  1  0  0  0  0
 24 25  2  0  0  0  0
 24 46  1  0  0  0  0
 25 47  1  0  0  0  0
 26 27  1  0  0  0  0
 26 28  1  0  0  0  0
 26 48  1  0  0  0  0
 28 29  1  0  0  0  0
 28 49  1  0  0  0  0
 29 50  1  0  0  0  0
 30 35  1  0  0  0  0
 30 31  2  0  0  0  0
 31 32  1  0  0  0  0
 31 51  1  0  0  0  0
 32 33  2  0  0  0  0
 32 52  1  0  0  0  0
 33 34  1  0  0  0  0
 33 53  1  0  0  0  0
 34 35  2  0  0  0  0
 34 54  1  0  0  0  0
 35 55  1  0  0  0  0
M  END
> <s_m_source_file>
AV-unprocessed.smi

> <i_m_source_file_index>
34

> <i_lp_mmshare_version>
43012

> <i_f3d_flags>
0

> <s_epik_input>
W2NIXTFbY0hdW2NIXVtjSF1bY0hdYzFDKD1PKVtOSF1jKG5bY0hdbjIpYyhjMjMpbltjSF1uM1tDQEBIXTRPW0NASF0oW0NAQEhdKEYpW0NASF00W09IXSlbQ0gyXU9DKD1PKWM1W2NIXVtjSF1bY0hdW2NIXVtjSF01

> <s_epik_cmdline>
J2VwaWtfcHl0aG9uJywgJy1waCcsICc3LjAnLCAnLXRuJywgJzgnLCAnLW1hJywgJzIwMCcsICctbWV0YWxfYmluZGluZycsICctaW1hZScsICc8aW5maWxlLm1hZT4nLCAnLW9tYWUnLCAnPG91dGZpbGUubWFlPic=

> <r_lp_tautomer_probability>
1

> <r_epik_Ionization_Penalty>
0.00257489

> <r_epik_Ionization_Penalty_Charging>
0

> <r_epik_Ionization_Penalty_Neutral>
0.00257489

> <r_epik_State_Penalty>
0.00519398

> <r_epik_Charging_Adjusted_Penalty>
0.00519398

> <i_epik_Tot_Q>
0

> <i_epik_Tot_abs_Q>
0

> <r_epik_Metal_State_Penalty>
0.335891

> <b_epik_Metal_Only>
0

> <s_epik_Chemistry_Notes>
This compound has an ester and may undergo hydrolysis at high or low pH. This compound contains an acetal/aminal-like group ( X-CH(R)-Y where X, Y are N, S, or O) that may be acid/base labile, releasing an aldehyde.

> <s_lp_Force_Field>
OPLS_2005

> <r_lp_Energy>
55.6649

> <b_lp_Chiralities_Consistent>
1

> <s_lp_Variant>
AV-unprocessed.smi:34-15

> <Gold.Version>
5.8.1

> <Gold.Id.Protein>
6NUR|6NUR_protein|mol2

> <Gold.PLP.Fitness>
55.9824

> <Gold.PLP.PLP>
-48.7382

> <Gold.PLP.part.hbond>
-4.6118

> <Gold.PLP.part.metal>
0.0000

> <Gold.PLP.part.buried>
-2.0172

> <Gold.PLP.part.nonpolar>
-47.0094

> <Gold.PLP.part.repulsive>
4.8028

> <Gold.PLP.ligand.clash>
0.0000

> <Gold.PLP.ligand.torsion>
1.1309

> <Gold.PLP.Chemscore.Hbond>
3.0042

> <Gold.PLP.Chemscore.CHOScore>
0.0000

> <Gold.PLP.Chemscore.Metal>
0.0000

> <Gold.Chemscore.Hbonds>
donor molecule, donor type, donor heavy atom, donor atom, acceptor molecule, acceptor atom, score
      L1  H     3    36       P1  8028  0.82
      L1  H    29    50       P1  7948  0.61
      P1  H  7954  7966       L1    29  0.52
      P1  H  8022  8030       L1     5  0.60

> <Gold.PLP.Chemscore.Internal.Correction>
0.4934

> <Gold.Rescore>
     Score         DG    S(hbond)    S(metal)    S(lipo)     H(rot)  DE(clash)    DE(int)     intcor
     11.58     -21.91       2.19        0.00     137.52       2.72       6.18       4.16       ----

> <Gold.Chemscore.Fitness>
11.5759

> <Gold.Chemscore.DG>
-21.9147

> <Gold.Chemscore.ZeroCoef>
-5.4800

> <Gold.Chemscore.Hbond>
2.1892

> <Gold.Chemscore.Metal>
0.0000

> <Gold.Chemscore.Lipo>
137.5192

> <Gold.Chemscore.Internal_Hbond>
0.0000

> <Gold.Chemscore.DEClash>
6.1757

> <Gold.Chemscore.DEInternal>
4.1631

> <Gold.Chemscore.Rot>
2.7215

> <Gold.Chemscore.Internal.Correction>
   9.000000E+99

> <Gold.Chemscore.Hbonds>
donor molecule, donor type, donor heavy atom, donor atom, acceptor molecule, acceptor atom, score
      L1  H     3    36       P1  8028  0.81
      L1  H    29    50       P1  7948  0.61
      P1  H  7954  7966       L1    29  0.13
      P1  H  8022  8030       L1     5  0.43

> <Gold.Chemscore.Hbond.Weighted>
-7.3120

> <Gold.Chemscore.Metal.Weighted>
-0.0000

> <Gold.Chemscore.Lipo.Weighted>
-16.0897

> <Gold.Chemscore.Internal_Hbond.Weighted>
0.0000

> <Gold.Chemscore.DEClash.Weighted>
6.1757

> <Gold.Chemscore.DEInternal.Weighted>
4.1631

> <Gold.Chemscore.Rot.Weighted>
6.9670

> <Gold.Chemscore.Internal.Correction.Weighted>
   9.000000E+99

> <Gold.Protein.RotatedTorsions>
[ 6907 6896 6895 6894 ] final  125.62 input  -60.11 | X-H torsion
[ 7974 7965 7964 7962 ] final  147.59 input  175.53 | X-H torsion
[ 8008 7997 7996 7995 ] final  -18.94 input   59.86 | X-H torsion
[ 10167 10162 10161 10158 ] final  149.33 input  -65.29 | X-H torsion
[ 10718 10713 10712 10709 ] final   27.82 input   66.30 | X-H torsion
[ 10763 10752 10751 10750 ] final  -83.19 input  -60.55 | X-H torsion
[ 11005 11000 10999 10996 ] final -137.03 input  -57.11 | X-H torsion

> <Gold.Protein.ActiveResidues>
 VAL166  LYS551  ARG553  GLY616  TRP617  ASP618  TYR619  PRO620  LYS621  CYS622 
 ASP623  PHE694  ASN695  SER759  ASP760  ASP761  ALA762  ILE779  LEU786  VAL792 
 PHE793  MET794  SER795  GLU796  ALA797  LYS798  CYS799  TRP800  GLU811  SER814 

> <Gold.Protein.RotatedAtoms>
  152.3975  133.6769  159.6288 H   0  0  0  0  0  0  0  0  0  0  0  0  # atno 6907 bound_to 6896
  150.7872  133.8848  159.3305 H   0  0  0  0  0  0  0  0  0  0  0  0  # atno 6908 bound_to 6896
  151.6621  135.0989  160.0233 H   0  0  0  0  0  0  0  0  0  0  0  0  # atno 6909 bound_to 6896
  144.8579  139.6048  143.5944 H   0  0  0  0  0  0  0  0  0  0  0  0  # atno 7974 bound_to 7965
  154.4871  140.2102  155.9632 H   0  0  0  0  0  0  0  0  0  0  0  0  # atno 8008 bound_to 7997
  156.1251  140.3206  155.8234 H   0  0  0  0  0  0  0  0  0  0  0  0  # atno 8009 bound_to 7997
  155.4398  140.0509  157.3002 H   0  0  0  0  0  0  0  0  0  0  0  0  # atno 8010 bound_to 7997
  139.4863  144.5610  151.7231 H   0  0  0  0  0  0  0  0  0  0  0  0  # atno 10167 bound_to 10162
  157.2252  130.6997  149.6288 H   0  0  0  0  0  0  0  0  0  0  0  0  # atno 10718 bound_to 10713
  154.5847  135.5565  153.7220 H   0  0  0  0  0  0  0  0  0  0  0  0  # atno 10763 bound_to 10752
  153.0094  135.6328  154.1933 H   0  0  0  0  0  0  0  0  0  0  0  0  # atno 10764 bound_to 10752
  154.1874  135.2884  155.3013 H   0  0  0  0  0  0  0  0  0  0  0  0  # atno 10765 bound_to 10752
  140.8750  134.2003  157.4627 H   0  0  0  0  0  0  0  0  0  0  0  0  # atno 11005 bound_to 11000
  146.2838  139.6948  142.9210 LP  0  0  0  0  0  0  0  0  0  0  0  0  # atno 17320 bound_to 7965
  145.4369  141.0419  143.2879 LP  0  0  0  0  0  0  0  0  0  0  0  0  # atno 17321 bound_to 7965
  140.5180  144.0923  150.6014 LP  0  0  0  0  0  0  0  0  0  0  0  0  # atno 17342 bound_to 10162
  140.3871  143.2772  152.0103 LP  0  0  0  0  0  0  0  0  0  0  0  0  # atno 17343 bound_to 10162
  155.9679  130.4507  150.5706 LP  0  0  0  0  0  0  0  0  0  0  0  0  # atno 17370 bound_to 10713
  157.3535  131.0737  151.1694 LP  0  0  0  0  0  0  0  0  0  0  0  0  # atno 17371 bound_to 10713
  139.8715  134.9791  156.5025 LP  0  0  0  0  0  0  0  0  0  0  0  0  # atno 17394 bound_to 11000
  140.8529  133.8118  155.9186 LP  0  0  0  0  0  0  0  0  0  0  0  0  # atno 17395 bound_to 11000

$$$$
