AV-unprocessed.smi:544|AV-procd|sdf|2877|dock1
  -GOLD-   2262023373D 1   1.00000     0.00000
 Structure written by MMmdl.
 49 51  0  0  0  0  0  0  0  0  1 V2000
  145.9473  143.9588  153.1740 C   0  0  0  0  0  0  0  0  0  0  0  0
  146.8057  142.7742  153.6223 C   0  0  0  0  0  0  0  0  0  0  0  0
  146.8983  142.7921  155.0353 O   0  0  0  0  0  0  0  0  0  0  0  0
  147.7759  141.8051  155.5475 C   0  0  0  0  0  0  0  0  0  0  0  0
  149.2303  142.2756  155.3947 C   0  0  0  0  0  0  0  0  0  0  0  0
  150.1934  141.2713  155.8382 N   0  0  0  0  0  0  0  0  0  0  0  0
  151.1158  141.3668  156.8306 C   0  0  0  0  0  0  0  0  0  0  0  0
  151.2439  142.5281  157.5845 N   0  0  0  0  0  0  0  0  0  0  0  0
  151.1589  143.8795  157.0395 C   0  0  0  0  0  0  0  0  0  0  0  0
  152.3249  144.7552  157.5268 C   0  0  0  0  0  0  0  0  0  0  0  0
  152.3542  144.8043  159.0609 C   0  0  0  0  0  0  0  0  0  0  0  0
  152.3520  143.3788  159.6420 C   0  0  1  0  0  0  0  0  0  0  0  0
  152.2921  143.3941  161.1753 C   0  0  0  0  0  0  0  0  0  0  0  0
  151.1876  142.5635  159.0430 C   0  0  0  0  0  0  0  0  0  0  0  0
  151.8787  140.2842  156.9989 N   0  0  0  0  0  0  0  0  0  0  0  0
  151.3957  139.4164  156.0298 C   0  0  0  0  0  0  0  0  0  0  0  0
  150.3918  139.9923  155.3199 C   0  0  0  0  0  0  0  0  0  0  0  0
  149.7107  139.3061  154.2157 C   0  0  0  0  0  0  0  0  0  0  0  0
  148.8033  139.8134  153.5600 O   0  0  0  0  0  0  0  0  0  0  0  0
  150.1907  138.0589  153.9898 N   0  0  0  0  0  0  0  0  0  0  0  0
  151.1975  137.4210  154.6618 C   0  0  0  0  0  0  0  0  0  0  0  0
  151.5349  136.2853  154.3283 O   0  0  0  0  0  0  0  0  0  0  0  0
  151.7991  138.0920  155.6963 N   0  0  0  0  0  0  0  0  0  0  0  0
  152.8810  137.4612  156.4547 C   0  0  0  0  0  0  0  0  0  0  0  0
  149.7600  137.5436  153.2361 H   0  0  0  0  0  0  0  0  0  0  0  0
  145.8502  143.9812  152.0886 H   0  0  0  0  0  0  0  0  0  0  0  0
  146.3889  144.9038  153.4914 H   0  0  0  0  0  0  0  0  0  0  0  0
  144.9452  143.8977  153.5991 H   0  0  0  0  0  0  0  0  0  0  0  0
  146.3568  141.8391  153.2851 H   0  0  0  0  0  0  0  0  0  0  0  0
  147.7997  142.8451  153.1789 H   0  0  0  0  0  0  0  0  0  0  0  0
  147.5450  141.6176  156.5967 H   0  0  0  0  0  0  0  0  0  0  0  0
  147.6363  140.8654  155.0114 H   0  0  0  0  0  0  0  0  0  0  0  0
  149.4399  142.5282  154.3555 H   0  0  0  0  0  0  0  0  0  0  0  0
  149.3801  143.1962  155.9571 H   0  0  0  0  0  0  0  0  0  0  0  0
  151.1499  143.8352  155.9507 H   0  0  0  0  0  0  0  0  0  0  0  0
  150.2074  144.3230  157.3356 H   0  0  0  0  0  0  0  0  0  0  0  0
  153.2682  144.3560  157.1525 H   0  0  0  0  0  0  0  0  0  0  0  0
  152.2316  145.7626  157.1204 H   0  0  0  0  0  0  0  0  0  0  0  0
  153.2322  145.3542  159.4013 H   0  0  0  0  0  0  0  0  0  0  0  0
  151.4823  145.3519  159.4220 H   0  0  0  0  0  0  0  0  0  0  0  0
  153.2863  142.8950  159.3543 H   0  0  0  0  0  0  0  0  0  0  0  0
  151.3746  143.8639  161.5311 H   0  0  0  0  0  0  0  0  0  0  0  0
  153.1341  143.9445  161.5959 H   0  0  0  0  0  0  0  0  0  0  0  0
  152.3251  142.3817  161.5784 H   0  0  0  0  0  0  0  0  0  0  0  0
  150.2294  142.9827  159.3525 H   0  0  0  0  0  0  0  0  0  0  0  0
  151.2174  141.5419  159.4239 H   0  0  0  0  0  0  0  0  0  0  0  0
  152.6294  136.4346  156.7247 H   0  0  0  0  0  0  0  0  0  0  0  0
  153.0956  137.9881  157.3842 H   0  0  0  0  0  0  0  0  0  0  0  0
  153.7962  137.4440  155.8623 H   0  0  0  0  0  0  0  0  0  0  0  0
  1  2  1  0  0  0  0
  1 26  1  0  0  0  0
  1 27  1  0  0  0  0
  1 28  1  0  0  0  0
  2  3  1  0  0  0  0
  2 29  1  0  0  0  0
  2 30  1  0  0  0  0
  3  4  1  0  0  0  0
  4  5  1  0  0  0  0
  4 31  1  0  0  0  0
  4 32  1  0  0  0  0
  5  6  1  0  0  0  0
  5 33  1  0  0  0  0
  5 34  1  0  0  0  0
  6 17  1  0  0  0  0
  6  7  1  0  0  0  0
  7  8  1  0  0  0  0
  7 15  2  0  0  0  0
  8 14  1  0  0  0  0
  8  9  1  0  0  0  0
  9 10  1  0  0  0  0
  9 35  1  0  0  0  0
  9 36  1  0  0  0  0
 10 11  1  0  0  0  0
 10 37  1  0  0  0  0
 10 38  1  0  0  0  0
 11 12  1  0  0  0  0
 11 39  1  0  0  0  0
 11 40  1  0  0  0  0
 12 13  1  0  0  0  0
 12 14  1  0  0  0  0
 12 41  1  0  0  0  0
 13 42  1  0  0  0  0
 13 43  1  0  0  0  0
 13 44  1  0  0  0  0
 14 45  1  0  0  0  0
 14 46  1  0  0  0  0
 15 16  1  0  0  0  0
 16 23  1  0  0  0  0
 16 17  2  0  0  0  0
 17 18  1  0  0  0  0
 18 19  2  0  0  0  0
 18 20  1  0  0  0  0
 20 25  1  0  0  0  0
 20 21  1  0  0  0  0
 21 22  2  0  0  0  0
 21 23  1  0  0  0  0
 23 24  1  0  0  0  0
 24 47  1  0  0  0  0
 24 48  1  0  0  0  0
 24 49  1  0  0  0  0
M  END
> <s_m_source_file>
AV-unprocessed.smi

> <i_m_source_file_index>
544

> <i_lp_mmshare_version>
43012

> <i_f3d_flags>
0

> <s_epik_input>
W0NIM11uMWMoPU8pW25IXWMoPU8pYyhjMTIpbihbQ0gyXVtDSDJdT1tDSDJdW0NIM10pYyhuMilOM1tDSDJdW0NIMl1bQ0gyXVtDQEBIXShbQ0gzXSlbQ0gyXTM=

> <s_epik_cmdline>
J2VwaWtfcHl0aG9uJywgJy1waCcsICc3LjAnLCAnLXRuJywgJzgnLCAnLW1hJywgJzIwMCcsICctbWV0YWxfYmluZGluZycsICctaW1hZScsICc8aW5maWxlLm1hZT4nLCAnLW9tYWUnLCAnPG91dGZpbGUubWFlPic=

> <r_lp_tautomer_probability>
1

> <r_epik_Ionization_Penalty>
0.000382477

> <r_epik_Ionization_Penalty_Charging>
0.000119472

> <r_epik_Ionization_Penalty_Neutral>
0.000263005

> <r_epik_State_Penalty>
-0

> <r_epik_Charging_Adjusted_Penalty>
0.000119472

> <i_epik_Tot_Q>
0

> <i_epik_Tot_abs_Q>
0

> <r_epik_Metal_State_Penalty>
0.0919313

> <b_epik_Metal_Only>
0

> <s_lp_Force_Field>
OPLS_2005

> <r_lp_Energy>
37.8306

> <b_lp_Chiralities_Consistent>
1

> <s_lp_Variant>
AV-unprocessed.smi:544-1

> <Gold.Version>
5.8.1

> <Gold.Id.Protein>
6NUR|6NUR_protein|mol2

> <Gold.PLP.Fitness>
48.7602

> <Gold.PLP.PLP>
-43.5979

> <Gold.PLP.part.hbond>
-1.9072

> <Gold.PLP.part.metal>
0.0000

> <Gold.PLP.part.buried>
-0.1171

> <Gold.PLP.part.nonpolar>
-46.4018

> <Gold.PLP.part.repulsive>
4.4322

> <Gold.PLP.ligand.clash>
0.0137

> <Gold.PLP.ligand.torsion>
0.9142

> <Gold.PLP.Chemscore.Hbond>
1.9425

> <Gold.PLP.Chemscore.CHOScore>
0.0000

> <Gold.PLP.Chemscore.Metal>
0.0000

> <Gold.Chemscore.Hbonds>
donor molecule, donor type, donor heavy atom, donor atom, acceptor molecule, acceptor atom, score
      L1  H    20    25       P1  7948  1.00
      P1  H 10752 10765       L1    22  1.00

> <Gold.PLP.Chemscore.Internal.Correction>
1.1768

> <Gold.Rescore>
     Score         DG    S(hbond)    S(metal)    S(lipo)     H(rot)  DE(clash)    DE(int)     intcor
     15.80     -19.85       1.85        0.00     104.65       1.58       2.06       2.00       ----

> <Gold.Chemscore.Fitness>
15.7975

> <Gold.Chemscore.DG>
-19.8549

> <Gold.Chemscore.ZeroCoef>
-5.4800

> <Gold.Chemscore.Hbond>
1.8496

> <Gold.Chemscore.Metal>
0.0000

> <Gold.Chemscore.Lipo>
104.6465

> <Gold.Chemscore.Internal_Hbond>
0.0000

> <Gold.Chemscore.DEClash>
2.0606

> <Gold.Chemscore.DEInternal>
1.9968

> <Gold.Chemscore.Rot>
1.5806

> <Gold.Chemscore.Internal.Correction>
   9.000000E+99

> <Gold.Chemscore.Hbonds>
donor molecule, donor type, donor heavy atom, donor atom, acceptor molecule, acceptor atom, score
      L1  H    20    25       P1  7948  0.61
      P1  H 10752 10765       L1    22  0.95

> <Gold.Chemscore.Hbond.Weighted>
-6.1775

> <Gold.Chemscore.Metal.Weighted>
-0.0000

> <Gold.Chemscore.Lipo.Weighted>
-12.2436

> <Gold.Chemscore.Internal_Hbond.Weighted>
0.0000

> <Gold.Chemscore.DEClash.Weighted>
2.0606

> <Gold.Chemscore.DEInternal.Weighted>
1.9968

> <Gold.Chemscore.Rot.Weighted>
4.0463

> <Gold.Chemscore.Internal.Correction.Weighted>
   9.000000E+99

> <Gold.Protein.RotatedTorsions>
[ 6907 6896 6895 6894 ] final  -56.49 input  -60.11 | X-H torsion
[ 7974 7965 7964 7962 ] final  -11.68 input  175.53 | X-H torsion
[ 8008 7997 7996 7995 ] final -177.65 input   59.86 | X-H torsion
[ 10167 10162 10161 10158 ] final   89.81 input  -65.29 | X-H torsion
[ 10718 10713 10712 10709 ] final  161.17 input   66.30 | X-H torsion
[ 10763 10752 10751 10750 ] final  174.09 input  -60.55 | X-H torsion
[ 11005 11000 10999 10996 ] final    8.58 input  -57.11 | X-H torsion

> <Gold.Protein.ActiveResidues>
 VAL166  LYS551  ARG553  GLY616  TRP617  ASP618  TYR619  PRO620  LYS621  CYS622 
 ASP623  PHE694  ASN695  SER759  ASP760  ASP761  ALA762  ILE779  LEU786  VAL792 
 PHE793  MET794  SER795  GLU796  ALA797  LYS798  CYS799  TRP800  GLU811  SER814 

> <Gold.Protein.RotatedAtoms>
  150.8163  134.7347  159.6732 H   0  0  0  0  0  0  0  0  0  0  0  0  # atno 6907 bound_to 6896
  152.4282  134.5825  159.9961 H   0  0  0  0  0  0  0  0  0  0  0  0  # atno 6908 bound_to 6896
  151.6021  133.3318  159.3085 H   0  0  0  0  0  0  0  0  0  0  0  0  # atno 6909 bound_to 6896
  146.2179  140.2946  142.8371 H   0  0  0  0  0  0  0  0  0  0  0  0  # atno 7974 bound_to 7965
  156.0094  140.1237  157.0468 H   0  0  0  0  0  0  0  0  0  0  0  0  # atno 8008 bound_to 7997
  154.4270  140.1090  156.5878 H   0  0  0  0  0  0  0  0  0  0  0  0  # atno 8009 bound_to 7997
  155.6100  140.3471  155.4622 H   0  0  0  0  0  0  0  0  0  0  0  0  # atno 8010 bound_to 7997
  139.8536  144.6581  150.9141 H   0  0  0  0  0  0  0  0  0  0  0  0  # atno 10167 bound_to 10162
  157.1402  131.0538  151.2330 H   0  0  0  0  0  0  0  0  0  0  0  0  # atno 10718 bound_to 10713
  154.4491  135.2764  155.1794 H   0  0  0  0  0  0  0  0  0  0  0  0  # atno 10763 bound_to 10752
  154.3628  135.6125  153.5703 H   0  0  0  0  0  0  0  0  0  0  0  0  # atno 10764 bound_to 10752
  152.9846  135.5838  154.4832 H   0  0  0  0  0  0  0  0  0  0  0  0  # atno 10765 bound_to 10752
  140.5354  134.0426  155.7886 H   0  0  0  0  0  0  0  0  0  0  0  0  # atno 11005 bound_to 11000
  144.9102  140.7747  143.5812 LP  0  0  0  0  0  0  0  0  0  0  0  0  # atno 17320 bound_to 7965
  145.2876  139.1895  143.4757 LP  0  0  0  0  0  0  0  0  0  0  0  0  # atno 17321 bound_to 7965
  140.7784  143.3806  151.1484 LP  0  0  0  0  0  0  0  0  0  0  0  0  # atno 17342 bound_to 10162
  139.7442  143.8878  152.3058 LP  0  0  0  0  0  0  0  0  0  0  0  0  # atno 17343 bound_to 10162
  157.4314  130.7492  149.6993 LP  0  0  0  0  0  0  0  0  0  0  0  0  # atno 17370 bound_to 10713
  155.9790  130.4045  150.3614 LP  0  0  0  0  0  0  0  0  0  0  0  0  # atno 17371 bound_to 10713
  141.1258  133.9386  157.2638 LP  0  0  0  0  0  0  0  0  0  0  0  0  # atno 17394 bound_to 11000
  139.9532  135.0171  156.9054 LP  0  0  0  0  0  0  0  0  0  0  0  0  # atno 17395 bound_to 11000

$$$$
