AV-unprocessed.smi:2990|AV-procd|sdf|11393|dock10
  -GOLD-   2272016313D 1   1.00000     0.00000
 Structure written by MMmdl.
 39 41  0  0  0  0  0  0  0  0  1 V2000
  152.0413  139.1799  155.3979 C   0  0  0  0  0  0  0  0  0  0  0  0
  152.2234  140.0112  156.6281 C   0  0  0  0  0  0  0  0  0  0  0  0
  153.0363  139.6453  157.6193 N   0  0  0  0  0  0  0  0  0  0  0  0
  152.8878  140.6748  158.5285 C   0  0  0  0  0  0  0  0  0  0  0  0
  153.4853  140.8763  159.7934 C   0  0  0  0  0  0  0  0  0  0  0  0
  153.1744  142.0218  160.5552 C   0  0  0  0  0  0  0  0  0  0  0  0
  152.2649  142.9807  160.0640 C   0  0  0  0  0  0  0  0  0  0  0  0
  151.6598  142.8002  158.8053 C   0  0  0  0  0  0  0  0  0  0  0  0
  151.9721  141.6544  158.0493 C   0  0  0  0  0  0  0  0  0  0  0  0
  151.5657  141.1835  156.8043 N   0  0  0  0  0  0  0  0  0  0  0  0
  150.6246  141.8276  155.8978 C   0  0  0  0  0  0  0  0  0  0  0  0
  149.5420  140.8614  155.3752 C   0  0  2  0  0  0  0  0  0  0  0  0
  149.6310  140.7531  153.9683 O   0  0  0  0  0  0  0  0  0  0  0  0
  148.1219  141.3223  155.7347 C   0  0  0  0  0  0  0  0  0  0  0  0
  147.5635  142.0162  154.6266 O   0  0  0  0  0  0  0  0  0  0  0  0
  146.4066  142.7388  154.8256 C   0  0  0  0  0  0  0  0  0  0  0  0
  145.9530  143.5305  153.7499 C   0  0  0  0  0  0  0  0  0  0  0  0
  144.7806  144.3020  153.8659 C   0  0  0  0  0  0  0  0  0  0  0  0
  144.0466  144.2895  155.0663 C   0  0  0  0  0  0  0  0  0  0  0  0
  144.4874  143.5048  156.1478 C   0  0  0  0  0  0  0  0  0  0  0  0
  145.6598  142.7326  156.0314 C   0  0  0  0  0  0  0  0  0  0  0  0
  152.6799  138.2968  155.4364 H   0  0  0  0  0  0  0  0  0  0  0  0
  152.3030  139.7525  154.5085 H   0  0  0  0  0  0  0  0  0  0  0  0
  151.0057  138.8497  155.3154 H   0  0  0  0  0  0  0  0  0  0  0  0
  154.1831  140.1478  160.1784 H   0  0  0  0  0  0  0  0  0  0  0  0
  153.6358  142.1651  161.5213 H   0  0  0  0  0  0  0  0  0  0  0  0
  152.0318  143.8549  160.6541 H   0  0  0  0  0  0  0  0  0  0  0  0
  150.9649  143.5342  158.4251 H   0  0  0  0  0  0  0  0  0  0  0  0
  150.1651  142.6717  156.4124 H   0  0  0  0  0  0  0  0  0  0  0  0
  151.1833  142.2539  155.0637 H   0  0  0  0  0  0  0  0  0  0  0  0
  149.7047  139.8658  155.7888 H   0  0  0  0  0  0  0  0  0  0  0  0
  148.8651  141.1558  153.5880 H   0  0  0  0  0  0  0  0  0  0  0  0
  147.5059  140.4617  156.0017 H   0  0  0  0  0  0  0  0  0  0  0  0
  148.1619  141.9909  156.5966 H   0  0  0  0  0  0  0  0  0  0  0  0
  146.5104  143.5461  152.8248 H   0  0  0  0  0  0  0  0  0  0  0  0
  144.4451  144.9036  153.0340 H   0  0  0  0  0  0  0  0  0  0  0  0
  143.1475  144.8809  155.1574 H   0  0  0  0  0  0  0  0  0  0  0  0
  143.9257  143.4950  157.0701 H   0  0  0  0  0  0  0  0  0  0  0  0
  145.9657  142.1448  156.8833 H   0  0  0  0  0  0  0  0  0  0  0  0
  1  2  1  0  0  0  0
  1 22  1  0  0  0  0
  1 23  1  0  0  0  0
  1 24  1  0  0  0  0
  2 10  1  0  0  0  0
  2  3  2  0  0  0  0
  3  4  1  0  0  0  0
  4  9  2  0  0  0  0
  4  5  1  0  0  0  0
  5  6  2  0  0  0  0
  5 25  1  0  0  0  0
  6  7  1  0  0  0  0
  6 26  1  0  0  0  0
  7  8  2  0  0  0  0
  7 27  1  0  0  0  0
  8  9  1  0  0  0  0
  8 28  1  0  0  0  0
  9 10  1  0  0  0  0
 10 11  1  0  0  0  0
 11 12  1  0  0  0  0
 11 29  1  0  0  0  0
 11 30  1  0  0  0  0
 12 13  1  0  0  0  0
 12 14  1  0  0  0  0
 12 31  1  0  0  0  0
 13 32  1  0  0  0  0
 14 15  1  0  0  0  0
 14 33  1  0  0  0  0
 14 34  1  0  0  0  0
 15 16  1  0  0  0  0
 16 21  1  0  0  0  0
 16 17  2  0  0  0  0
 17 18  1  0  0  0  0
 17 35  1  0  0  0  0
 18 19  2  0  0  0  0
 18 36  1  0  0  0  0
 19 20  1  0  0  0  0
 19 37  1  0  0  0  0
 20 21  2  0  0  0  0
 20 38  1  0  0  0  0
 21 39  1  0  0  0  0
M  END
> <s_m_source_file>
AV-unprocessed.smi

> <i_m_source_file_index>
2990

> <i_lp_mmshare_version>
43012

> <i_f3d_flags>
0

> <s_epik_input>
W2NIXTFbY0hdW2NIXVtjSF1jKGMxMiluKGMobjIpW0NIM10pW0NIMl1bQ0BIXShbT0hdKVtDSDJdT2MzW2NIXVtjSF1bY0hdW2NIXVtjSF0z

> <s_epik_cmdline>
J2VwaWtfcHl0aG9uJywgJy1waCcsICc3LjAnLCAnLXRuJywgJzgnLCAnLW1hJywgJzIwMCcsICctbWV0YWxfYmluZGluZycsICctaW1hZScsICc8aW5maWxlLm1hZT4nLCAnLW9tYWUnLCAnPG91dGZpbGUubWFlPic=

> <r_lp_tautomer_probability>
1

> <r_epik_Ionization_Penalty>
0.119634

> <r_epik_Ionization_Penalty_Charging>
0

> <r_epik_Ionization_Penalty_Neutral>
0.119634

> <r_epik_State_Penalty>
0.10919

> <r_epik_Charging_Adjusted_Penalty>
0.10919

> <i_epik_Tot_Q>
0

> <i_epik_Tot_abs_Q>
0

> <r_epik_Metal_State_Penalty>
0.000119887

> <b_epik_Metal_Only>
0

> <s_lp_Force_Field>
OPLS_2005

> <r_lp_Energy>
14.3575

> <b_lp_Chiralities_Consistent>
1

> <s_lp_Variant>
AV-unprocessed.smi:2990-1

> <Gold.Version>
5.8.1

> <Gold.Id.Protein>
6NUR|6NUR_protein|mol2

> <Gold.PLP.Fitness>
47.2273

> <Gold.PLP.PLP>
-45.2346

> <Gold.PLP.part.hbond>
-3.0000

> <Gold.PLP.part.metal>
0.0000

> <Gold.PLP.part.buried>
-4.9169

> <Gold.PLP.part.nonpolar>
-36.5209

> <Gold.PLP.part.repulsive>
0.1529

> <Gold.PLP.ligand.clash>
0.0000

> <Gold.PLP.ligand.torsion>
1.4466

> <Gold.PLP.Chemscore.Hbond>
1.6027

> <Gold.PLP.Chemscore.CHOScore>
0.0000

> <Gold.PLP.Chemscore.Metal>
0.0000

> <Gold.Chemscore.Hbonds>
donor molecule, donor type, donor heavy atom, donor atom, acceptor molecule, acceptor atom, score
      P1  H  7989  7998       L1    13  0.52
      P1  H  7997  8009       L1     3  0.88

> <Gold.PLP.Chemscore.Internal.Correction>
0.0779

> <Gold.Rescore>
     Score         DG    S(hbond)    S(metal)    S(lipo)     H(rot)  DE(clash)    DE(int)     intcor
     14.17     -16.62       0.82        0.00     116.37       2.04       0.22       2.23       ----

> <Gold.Chemscore.Fitness>
14.1701

> <Gold.Chemscore.DG>
-16.6206

> <Gold.Chemscore.ZeroCoef>
-5.4800

> <Gold.Chemscore.Hbond>
0.8198

> <Gold.Chemscore.Metal>
0.0000

> <Gold.Chemscore.Lipo>
116.3680

> <Gold.Chemscore.Internal_Hbond>
0.0000

> <Gold.Chemscore.DEClash>
0.2176

> <Gold.Chemscore.DEInternal>
2.2330

> <Gold.Chemscore.Rot>
2.0361

> <Gold.Chemscore.Internal.Correction>
   9.000000E+99

> <Gold.Chemscore.Hbonds>
donor molecule, donor type, donor heavy atom, donor atom, acceptor molecule, acceptor atom, score
      P1  H  7989  7998       L1    13  0.33
      P1  H  7997  8009       L1     3  0.09

> <Gold.Chemscore.Hbond.Weighted>
-2.7380

> <Gold.Chemscore.Metal.Weighted>
-0.0000

> <Gold.Chemscore.Lipo.Weighted>
-13.6151

> <Gold.Chemscore.Internal_Hbond.Weighted>
0.0000

> <Gold.Chemscore.DEClash.Weighted>
0.2176

> <Gold.Chemscore.DEInternal.Weighted>
2.2330

> <Gold.Chemscore.Rot.Weighted>
5.2124

> <Gold.Chemscore.Internal.Correction.Weighted>
   9.000000E+99

> <Gold.Protein.RotatedTorsions>
[ 6907 6896 6895 6894 ] final  -92.20 input  -60.11 | X-H torsion
[ 7974 7965 7964 7962 ] final  161.34 input  175.53 | X-H torsion
[ 8008 7997 7996 7995 ] final  147.57 input   59.86 | X-H torsion
[ 10167 10162 10161 10158 ] final    2.75 input  -65.29 | X-H torsion
[ 10718 10713 10712 10709 ] final   94.35 input   66.30 | X-H torsion
[ 10763 10752 10751 10750 ] final   89.67 input  -60.55 | X-H torsion
[ 11005 11000 10999 10996 ] final   75.93 input  -57.11 | X-H torsion

> <Gold.Protein.ActiveResidues>
 VAL166  LYS551  ARG553  GLY616  TRP617  ASP618  TYR619  PRO620  LYS621  CYS622 
 ASP623  PHE694  ASN695  SER759  ASP760  ASP761  ALA762  ILE779  LEU786  VAL792 
 PHE793  MET794  SER795  GLU796  ALA797  LYS798  CYS799  TRP800  GLU811  SER814 

> <Gold.Protein.RotatedAtoms>
  150.6903  134.2158  159.4377 H   0  0  0  0  0  0  0  0  0  0  0  0  # atno 6907 bound_to 6896
  152.0117  134.9870  160.0577 H   0  0  0  0  0  0  0  0  0  0  0  0  # atno 6908 bound_to 6896
  152.1482  133.4470  159.4837 H   0  0  0  0  0  0  0  0  0  0  0  0  # atno 6909 bound_to 6896
  144.7691  139.7884  143.6304 H   0  0  0  0  0  0  0  0  0  0  0  0  # atno 7974 bound_to 7965
  156.2820  140.2152  156.5558 H   0  0  0  0  0  0  0  0  0  0  0  0  # atno 8008 bound_to 7997
  154.7253  140.0500  157.0700 H   0  0  0  0  0  0  0  0  0  0  0  0  # atno 8009 bound_to 7997
  155.0424  140.3147  155.4723 H   0  0  0  0  0  0  0  0  0  0  0  0  # atno 8010 bound_to 7997
  140.6620  143.7279  150.7756 H   0  0  0  0  0  0  0  0  0  0  0  0  # atno 10167 bound_to 10162
  157.6948  131.0509  150.4172 H   0  0  0  0  0  0  0  0  0  0  0  0  # atno 10718 bound_to 10713
  153.1895  135.4462  155.0131 H   0  0  0  0  0  0  0  0  0  0  0  0  # atno 10763 bound_to 10752
  154.8081  135.3283  154.7380 H   0  0  0  0  0  0  0  0  0  0  0  0  # atno 10764 bound_to 10752
  153.7835  135.6975  153.4939 H   0  0  0  0  0  0  0  0  0  0  0  0  # atno 10765 bound_to 10752
  139.9321  134.7558  156.1332 H   0  0  0  0  0  0  0  0  0  0  0  0  # atno 11005 bound_to 11000
  146.1823  139.5021  142.9859 LP  0  0  0  0  0  0  0  0  0  0  0  0  # atno 17320 bound_to 7965
  145.6379  141.0290  143.1827 LP  0  0  0  0  0  0  0  0  0  0  0  0  # atno 17321 bound_to 7965
  140.0950  143.4842  152.2457 LP  0  0  0  0  0  0  0  0  0  0  0  0  # atno 17342 bound_to 10162
  139.5856  144.7529  151.3528 LP  0  0  0  0  0  0  0  0  0  0  0  0  # atno 17343 bound_to 10162
  156.4551  130.4020  149.6611 LP  0  0  0  0  0  0  0  0  0  0  0  0  # atno 17370 bound_to 10713
  156.3747  130.7548  151.2535 LP  0  0  0  0  0  0  0  0  0  0  0  0  # atno 17371 bound_to 10713
  141.0916  133.6712  156.2552 LP  0  0  0  0  0  0  0  0  0  0  0  0  # atno 17394 bound_to 11000
  140.6173  134.5397  157.5542 LP  0  0  0  0  0  0  0  0  0  0  0  0  # atno 17395 bound_to 11000

$$$$
