AV-unprocessed.smi:1278|AV-procd|sdf|5352|dock6
  -GOLD-   22720 4483D 1   1.00000     0.00000
 Structure written by MMmdl.
 38 39  0  0  0  0  0  0  0  0  3 V2000
  143.8556  132.5134  149.0076 C   0  0  0  0  0  0  0  0  0  0  0  0
  143.8805  132.8408  150.5110 C   0  0  1  0  0  0  0  0  0  0  0  0
  144.9005  131.9900  151.2906 C   0  0  0  0  0  0  0  0  0  0  0  0
  146.3380  132.4558  151.0193 C   0  0  0  0  0  0  0  0  0  0  0  0
  146.4897  133.9627  151.2803 C   0  0  0  0  0  0  0  0  0  0  0  0
  145.5141  134.7467  150.4798 N   0  3  2  0  0  0  0  0  0  0  0  0
  145.7392  136.2089  150.5956 C   0  0  0  0  0  0  0  0  0  0  0  0
  145.3669  136.7490  151.9896 C   0  0  0  0  0  0  0  0  0  0  0  0
  146.5508  137.1733  152.7273 N   0  0  0  0  0  0  0  0  0  0  0  0
  146.5497  137.8746  153.8700 C   0  0  0  0  0  0  0  0  0  0  0  0
  145.4794  138.2079  154.3847 O   0  0  0  0  0  0  0  0  0  0  0  0
  147.7867  138.1503  154.3397 N   0  5  0  0  0  0  0  0  0  0  0  0
  148.2179  139.4213  154.3893 C   0  0  0  0  0  0  0  0  0  0  0  0
  149.3851  139.7744  154.9395 N   0  0  0  0  0  0  0  0  0  0  0  0
  149.6350  141.1466  154.8789 C   0  0  0  0  0  0  0  0  0  0  0  0
  148.6385  141.8538  154.2601 C   0  0  0  0  0  0  0  0  0  0  0  0
  147.3498  140.8109  153.7301 S   0  0  0  0  0  0  0  0  0  0  0  0
  144.1127  134.3427  150.7766 C   0  0  0  0  0  0  0  0  0  0  0  0
  144.8005  132.7564  148.5217 H   0  0  0  0  0  0  0  0  0  0  0  0
  143.0712  133.0746  148.4989 H   0  0  0  0  0  0  0  0  0  0  0  0
  143.6592  131.4541  148.8408 H   0  0  0  0  0  0  0  0  0  0  0  0
  142.8904  132.5912  150.8946 H   0  0  0  0  0  0  0  0  0  0  0  0
  144.6960  132.0740  152.3588 H   0  0  0  0  0  0  0  0  0  0  0  0
  144.7903  130.9339  151.0411 H   0  0  0  0  0  0  0  0  0  0  0  0
  147.0324  131.8994  151.6496 H   0  0  0  0  0  0  0  0  0  0  0  0
  146.6150  132.2310  149.9889 H   0  0  0  0  0  0  0  0  0  0  0  0
  146.3506  134.1796  152.3406 H   0  0  0  0  0  0  0  0  0  0  0  0
  147.5062  134.2651  151.0256 H   0  0  0  0  0  0  0  0  0  0  0  0
  146.7752  136.4474  150.3495 H   0  0  0  0  0  0  0  0  0  0  0  0
  145.1234  136.7206  149.8547 H   0  0  0  0  0  0  0  0  0  0  0  0
  144.6626  137.5782  151.9054 H   0  0  0  0  0  0  0  0  0  0  0  0
  144.8739  135.9829  152.5867 H   0  0  0  0  0  0  0  0  0  0  0  0
  147.4488  136.9151  152.3441 H   0  0  0  0  0  0  0  0  0  0  0  0
  150.5497  141.5343  155.3019 H   0  0  0  0  0  0  0  0  0  0  0  0
  148.5846  142.9172  154.0828 H   0  0  0  0  0  0  0  0  0  0  0  0
  143.4097  134.9241  150.1809 H   0  0  0  0  0  0  0  0  0  0  0  0
  143.8923  134.5696  151.8211 H   0  0  0  0  0  0  0  0  0  0  0  0
  145.6918  134.5111  149.5139 H   0  0  0  0  0  0  0  0  0  0  0  0
  1  2  1  0  0  0  0
  1 19  1  0  0  0  0
  1 20  1  0  0  0  0
  1 21  1  0  0  0  0
  2 18  1  0  0  0  0
  2  3  1  0  0  0  0
  2 22  1  0  0  0  0
  3  4  1  0  0  0  0
  3 23  1  0  0  0  0
  3 24  1  0  0  0  0
  4  5  1  0  0  0  0
  4 25  1  0  0  0  0
  4 26  1  0  0  0  0
  5  6  1  0  0  0  0
  5 27  1  0  0  0  0
  5 28  1  0  0  0  0
  6  7  1  0  0  0  0
  6 18  1  0  0  0  0
  6 38  1  0  0  0  0
  7  8  1  0  0  0  0
  7 29  1  0  0  0  0
  7 30  1  0  0  0  0
  8  9  1  0  0  0  0
  8 31  1  0  0  0  0
  8 32  1  0  0  0  0
  9 10  1  0  0  0  0
  9 33  1  0  0  0  0
 10 11  2  0  0  0  0
 10 12  1  0  0  0  0
 12 13  1  0  0  0  0
 13 17  1  0  0  0  0
 13 14  2  0  0  0  0
 14 15  1  0  0  0  0
 15 16  2  0  0  0  0
 15 34  1  0  0  0  0
 16 17  1  0  0  0  0
 16 35  1  0  0  0  0
 18 36  1  0  0  0  0
 18 37  1  0  0  0  0
M  CHG  1   6   1
M  CHG  1  12  -1
M  END
> <s_m_source_file>
AV-unprocessed.smi

> <i_m_source_file_index>
1278

> <i_lp_mmshare_version>
43012

> <i_f3d_flags>
0

> <s_epik_input>
W0NIM11bQ0BASF0xW0NIMl1bQ0gyXVtDSDJdTihbQ0gyXTEpW0NIMl1bQ0gyXVtOSF1DKD1PKVtOSF1jMm5bY0hdW2NIXXMy

> <s_epik_cmdline>
J2VwaWtfcHl0aG9uJywgJy1waCcsICc3LjAnLCAnLXRuJywgJzgnLCAnLW1hJywgJzIwMCcsICctbWV0YWxfYmluZGluZycsICctaW1hZScsICc8aW5maWxlLm1hZT4nLCAnLW9tYWUnLCAnPG91dGZpbGUubWFlPic=

> <r_lp_tautomer_probability>
0.999

> <r_epik_Ionization_Penalty>
6.22019

> <r_epik_Ionization_Penalty_Charging>
5.38911

> <r_epik_Ionization_Penalty_Neutral>
0.831074

> <r_epik_State_Penalty>
5.38904

> <r_epik_Charging_Adjusted_Penalty>
10.7782

> <i_epik_Tot_Q>
0

> <i_epik_Tot_abs_Q>
2

> <r_epik_Metal_State_Penalty>
1.41502

> <b_epik_Metal_Only>
1

> <s_lp_Force_Field>
OPLS_2005

> <r_lp_Energy>
8.87374

> <b_lp_Chiralities_Consistent>
1

> <s_lp_Variant>
AV-unprocessed.smi:1278-6

> <Gold.Version>
5.8.1

> <Gold.Id.Protein>
6NUR|6NUR_protein|mol2

> <Gold.PLP.Fitness>
39.1161

> <Gold.PLP.PLP>
-32.1713

> <Gold.PLP.part.hbond>
-2.0000

> <Gold.PLP.part.metal>
0.0000

> <Gold.PLP.part.buried>
-1.9997

> <Gold.PLP.part.nonpolar>
-28.8872

> <Gold.PLP.part.repulsive>
0.3955

> <Gold.PLP.ligand.clash>
0.0000

> <Gold.PLP.ligand.torsion>
1.0715

> <Gold.PLP.Chemscore.Hbond>
2.0000

> <Gold.PLP.Chemscore.CHOScore>
1.0000

> <Gold.PLP.Chemscore.Metal>
0.0000

> <Gold.Chemscore.Hbonds>
donor molecule, donor type, donor heavy atom, donor atom, acceptor molecule, acceptor atom, score
      L1  H     6    38       P1  7921  1.00
      L1  H     9    33       P1  7948  1.00
      L1  C    16    35       P1  8028  1.00

> <Gold.PLP.Chemscore.Internal.Correction>
0.0878

> <Gold.Rescore>
     Score         DG    S(hbond)    S(metal)    S(lipo)     H(rot)  DE(clash)    DE(int)     intcor
     17.38     -18.55       1.96        0.00      90.15       1.57       0.08       1.08       ----

> <Gold.Chemscore.Fitness>
17.3827

> <Gold.Chemscore.DG>
-18.5456

> <Gold.Chemscore.ZeroCoef>
-5.4800

> <Gold.Chemscore.Hbond>
1.9553

> <Gold.Chemscore.Metal>
0.0000

> <Gold.Chemscore.Lipo>
90.1548

> <Gold.Chemscore.Internal_Hbond>
0.0000

> <Gold.Chemscore.DEClash>
0.0849

> <Gold.Chemscore.DEInternal>
1.0781

> <Gold.Chemscore.Rot>
1.5676

> <Gold.Chemscore.Internal.Correction>
   9.000000E+99

> <Gold.Chemscore.Hbonds>
donor molecule, donor type, donor heavy atom, donor atom, acceptor molecule, acceptor atom, score
      L1  H     6    38       P1  7921  0.83
      L1  H     9    33       P1  7948  1.00

> <Gold.Chemscore.Hbond.Weighted>
-6.5305

> <Gold.Chemscore.Metal.Weighted>
-0.0000

> <Gold.Chemscore.Lipo.Weighted>
-10.5481

> <Gold.Chemscore.Internal_Hbond.Weighted>
0.0000

> <Gold.Chemscore.DEClash.Weighted>
0.0849

> <Gold.Chemscore.DEInternal.Weighted>
1.0781

> <Gold.Chemscore.Rot.Weighted>
4.0130

> <Gold.Chemscore.Internal.Correction.Weighted>
   9.000000E+99

> <Gold.Protein.RotatedTorsions>
[ 6907 6896 6895 6894 ] final  100.16 input  -60.11 | X-H torsion
[ 7974 7965 7964 7962 ] final  -40.87 input  175.53 | X-H torsion
[ 8008 7997 7996 7995 ] final  -20.48 input   59.86 | X-H torsion
[ 10167 10162 10161 10158 ] final   18.89 input  -65.29 | X-H torsion
[ 10718 10713 10712 10709 ] final   91.15 input   66.30 | X-H torsion
[ 10763 10752 10751 10750 ] final   46.26 input  -60.55 | X-H torsion
[ 11005 11000 10999 10996 ] final  -46.30 input  -57.11 | X-H torsion

> <Gold.Protein.ActiveResidues>
 VAL166  LYS551  ARG553  GLY616  TRP617  ASP618  TYR619  PRO620  LYS621  CYS622 
 ASP623  PHE694  ASN695  SER759  ASP760  ASP761  ALA762  ILE779  LEU786  VAL792 
 PHE793  MET794  SER795  GLU796  ALA797  LYS798  CYS799  TRP800  GLU811  SER814 

> <Gold.Protein.RotatedAtoms>
  152.5378  134.0319  159.8028 H   0  0  0  0  0  0  0  0  0  0  0  0  # atno 6907 bound_to 6896
  151.0489  133.5634  159.2651 H   0  0  0  0  0  0  0  0  0  0  0  0  # atno 6908 bound_to 6896
  151.2576  135.0650  159.9139 H   0  0  0  0  0  0  0  0  0  0  0  0  # atno 6909 bound_to 6896
  146.0265  140.6786  142.9153 H   0  0  0  0  0  0  0  0  0  0  0  0  # atno 7974 bound_to 7965
  154.4767  140.2060  155.9862 H   0  0  0  0  0  0  0  0  0  0  0  0  # atno 8008 bound_to 7997
  156.1100  140.3230  155.8029 H   0  0  0  0  0  0  0  0  0  0  0  0  # atno 8009 bound_to 7997
  155.4652  140.0527  157.2977 H   0  0  0  0  0  0  0  0  0  0  0  0  # atno 8010 bound_to 7997
  140.5620  143.9320  150.6649 H   0  0  0  0  0  0  0  0  0  0  0  0  # atno 10167 bound_to 10162
  157.6960  131.0397  150.3686 H   0  0  0  0  0  0  0  0  0  0  0  0  # atno 10718 bound_to 10713
  152.9813  135.6014  154.3570 H   0  0  0  0  0  0  0  0  0  0  0  0  # atno 10763 bound_to 10752
  154.3255  135.2769  155.2500 H   0  0  0  0  0  0  0  0  0  0  0  0  # atno 10764 bound_to 10752
  154.4647  135.5957  153.6336 H   0  0  0  0  0  0  0  0  0  0  0  0  # atno 10765 bound_to 10752
  141.0570  133.6722  156.3135 H   0  0  0  0  0  0  0  0  0  0  0  0  # atno 11005 bound_to 11000
  144.7011  140.3658  143.7155 LP  0  0  0  0  0  0  0  0  0  0  0  0  # atno 17320 bound_to 7965
  145.7110  139.1685  143.2538 LP  0  0  0  0  0  0  0  0  0  0  0  0  # atno 17321 bound_to 7965
  140.2773  143.3414  152.1183 LP  0  0  0  0  0  0  0  0  0  0  0  0  # atno 17342 bound_to 10162
  139.5074  144.6832  151.5955 LP  0  0  0  0  0  0  0  0  0  0  0  0  # atno 17343 bound_to 10162
  156.4114  130.3935  149.6889 LP  0  0  0  0  0  0  0  0  0  0  0  0  # atno 17370 bound_to 10713
  156.4172  130.7751  151.2767 LP  0  0  0  0  0  0  0  0  0  0  0  0  # atno 17371 bound_to 10713
  140.5944  134.5618  157.5506 LP  0  0  0  0  0  0  0  0  0  0  0  0  # atno 17394 bound_to 11000
  139.9399  134.7807  156.0706 LP  0  0  0  0  0  0  0  0  0  0  0  0  # atno 17395 bound_to 11000

$$$$
