AV-unprocessed.smi:1465|AV-procd|sdf|5952|dock1
  -GOLD-   22720 6 33D 1   1.00000     0.00000
 Structure written by MMmdl.
 54 55  0  0  0  0  0  0  0  0  2 V2000
  152.7836  141.7338  159.8190 C   0  0  0  0  0  0  0  0  0  0  0  0
  153.1253  140.4062  159.4599 O   0  0  0  0  0  0  0  0  0  0  0  0
  152.2940  139.8923  158.4334 C   0  0  0  0  0  0  0  0  0  0  0  0
  152.9121  138.5940  157.8937 C   0  0  0  0  0  0  0  0  0  0  0  0
  152.1242  138.0515  156.7792 N   0  0  0  0  0  0  0  0  0  0  0  0
  151.6017  136.7541  156.9417 C   0  0  0  0  0  0  0  0  0  0  0  0
  150.8755  136.1431  155.9853 C   0  0  0  0  0  0  0  0  0  0  0  0
  150.3740  134.7862  156.2140 C   0  0  0  0  0  0  0  0  0  0  0  0
  150.5995  134.1191  157.2247 O   0  0  0  0  0  0  0  0  0  0  0  0
  149.6268  134.3093  155.2035 N   0  0  0  0  0  0  0  0  0  0  0  0
  149.0147  132.9825  155.1459 C   0  0  2  0  0  0  0  0  0  0  0  0
  149.2565  132.3408  153.7693 C   0  0  0  0  0  0  0  0  0  0  0  0
  148.4320  133.0206  152.6608 C   0  0  0  0  0  0  0  0  0  0  0  0
  146.9817  133.0219  152.9911 N   0  3  2  0  0  0  0  0  0  0  0  0
  146.1276  133.5537  151.8971 C   0  0  0  0  0  0  0  0  0  0  0  0
  145.8404  132.5170  150.7888 C   0  0  0  0  0  0  0  0  0  0  0  0
  144.6150  132.9368  149.9634 C   0  0  0  0  0  0  0  0  0  0  0  0
  145.6426  131.1033  151.3615 C   0  0  0  0  0  0  0  0  0  0  0  0
  146.7195  133.7004  154.2866 C   0  0  0  0  0  0  0  0  0  0  0  0
  147.5014  133.0351  155.4330 C   0  0  0  0  0  0  0  0  0  0  0  0
  150.6373  136.8833  154.7546 C   0  0  0  0  0  0  0  0  0  0  0  0
  151.1431  138.1216  154.5913 C   0  0  0  0  0  0  0  0  0  0  0  0
  151.9443  138.7725  155.6323 C   0  0  0  0  0  0  0  0  0  0  0  0
  152.4253  139.8954  155.4794 O   0  0  0  0  0  0  0  0  0  0  0  0
  153.4482  142.0823  160.6096 H   0  0  0  0  0  0  0  0  0  0  0  0
  151.7593  141.7908  160.1903 H   0  0  0  0  0  0  0  0  0  0  0  0
  152.8866  142.4113  158.9700 H   0  0  0  0  0  0  0  0  0  0  0  0
  151.2935  139.7018  158.8253 H   0  0  0  0  0  0  0  0  0  0  0  0
  152.1998  140.6249  157.6300 H   0  0  0  0  0  0  0  0  0  0  0  0
  153.9362  138.7850  157.5689 H   0  0  0  0  0  0  0  0  0  0  0  0
  153.0032  137.8620  158.6982 H   0  0  0  0  0  0  0  0  0  0  0  0
  151.8443  136.2941  157.8898 H   0  0  0  0  0  0  0  0  0  0  0  0
  149.4901  134.9090  154.4030 H   0  0  0  0  0  0  0  0  0  0  0  0
  149.4958  132.3564  155.8997 H   0  0  0  0  0  0  0  0  0  0  0  0
  150.3179  132.3706  153.5192 H   0  0  0  0  0  0  0  0  0  0  0  0
  148.9866  131.2847  153.8148 H   0  0  0  0  0  0  0  0  0  0  0  0
  148.7731  134.0461  152.5107 H   0  0  0  0  0  0  0  0  0  0  0  0
  148.6087  132.4933  151.7246 H   0  0  0  0  0  0  0  0  0  0  0  0
  145.1715  133.8813  152.3085 H   0  0  0  0  0  0  0  0  0  0  0  0
  146.5969  134.4454  151.4785 H   0  0  0  0  0  0  0  0  0  0  0  0
  146.6831  132.4841  150.0992 H   0  0  0  0  0  0  0  0  0  0  0  0
  143.7165  132.9822  150.5798 H   0  0  0  0  0  0  0  0  0  0  0  0
  144.4263  132.2318  149.1530 H   0  0  0  0  0  0  0  0  0  0  0  0
  144.7604  133.9196  149.5139 H   0  0  0  0  0  0  0  0  0  0  0  0
  144.8088  131.0724  152.0639 H   0  0  0  0  0  0  0  0  0  0  0  0
  146.5330  130.7547  151.8849 H   0  0  0  0  0  0  0  0  0  0  0  0
  145.4332  130.3852  150.5680 H   0  0  0  0  0  0  0  0  0  0  0  0
  146.9829  134.7564  154.2080 H   0  0  0  0  0  0  0  0  0  0  0  0
  145.6540  133.6571  154.5155 H   0  0  0  0  0  0  0  0  0  0  0  0
  147.1303  132.0187  155.5712 H   0  0  0  0  0  0  0  0  0  0  0  0
  147.3044  133.5553  156.3710 H   0  0  0  0  0  0  0  0  0  0  0  0
  150.0535  136.4633  153.9491 H   0  0  0  0  0  0  0  0  0  0  0  0
  150.9539  138.6517  153.6695 H   0  0  0  0  0  0  0  0  0  0  0  0
  146.7073  132.0583  153.1200 H   0  0  0  0  0  0  0  0  0  0  0  0
  1  2  1  0  0  0  0
  1 25  1  0  0  0  0
  1 26  1  0  0  0  0
  1 27  1  0  0  0  0
  2  3  1  0  0  0  0
  3  4  1  0  0  0  0
  3 28  1  0  0  0  0
  3 29  1  0  0  0  0
  4  5  1  0  0  0  0
  4 30  1  0  0  0  0
  4 31  1  0  0  0  0
  5 23  1  0  0  0  0
  5  6  1  0  0  0  0
  6  7  2  0  0  0  0
  6 32  1  0  0  0  0
  7  8  1  0  0  0  0
  7 21  1  0  0  0  0
  8  9  2  0  0  0  0
  8 10  1  0  0  0  0
 10 11  1  0  0  0  0
 10 33  1  0  0  0  0
 11 20  1  0  0  0  0
 11 12  1  0  0  0  0
 11 34  1  0  0  0  0
 12 13  1  0  0  0  0
 12 35  1  0  0  0  0
 12 36  1  0  0  0  0
 13 14  1  0  0  0  0
 13 37  1  0  0  0  0
 13 38  1  0  0  0  0
 14 15  1  0  0  0  0
 14 19  1  0  0  0  0
 14 54  1  0  0  0  0
 15 16  1  0  0  0  0
 15 39  1  0  0  0  0
 15 40  1  0  0  0  0
 16 17  1  0  0  0  0
 16 18  1  0  0  0  0
 16 41  1  0  0  0  0
 17 42  1  0  0  0  0
 17 43  1  0  0  0  0
 17 44  1  0  0  0  0
 18 45  1  0  0  0  0
 18 46  1  0  0  0  0
 18 47  1  0  0  0  0
 19 20  1  0  0  0  0
 19 48  1  0  0  0  0
 19 49  1  0  0  0  0
 20 50  1  0  0  0  0
 20 51  1  0  0  0  0
 21 22  2  0  0  0  0
 21 52  1  0  0  0  0
 22 23  1  0  0  0  0
 22 53  1  0  0  0  0
 23 24  2  0  0  0  0
M  CHG  1  14   1
M  END
> <s_m_source_file>
AV-unprocessed.smi

> <i_m_source_file_index>
1465

> <i_lp_mmshare_version>
43012

> <i_f3d_flags>
0

> <s_epik_input>
W0NIM11PW0NIMl1bQ0gyXW4xW2NIXWMoW2NIXVtjSF1jMT1PKUMoPU8pW05IXVtDSF0yW0NIMl1bQ0gyXU4oW0NIMl1bQ0gyXTIpW0NIMl1bQ0hdKFtDSDNdKVtDSDNd

> <s_epik_cmdline>
J2VwaWtfcHl0aG9uJywgJy1waCcsICc3LjAnLCAnLXRuJywgJzgnLCAnLW1hJywgJzIwMCcsICctbWV0YWxfYmluZGluZycsICctaW1hZScsICc8aW5maWxlLm1hZT4nLCAnLW9tYWUnLCAnPG91dGZpbGUubWFlPic=

> <r_lp_tautomer_probability>
1

> <r_epik_Ionization_Penalty>
0.00386091

> <r_epik_Ionization_Penalty_Charging>
0.0038603

> <r_epik_Ionization_Penalty_Neutral>
6.13806e-07

> <r_epik_State_Penalty>
0.00275716

> <r_epik_Charging_Adjusted_Penalty>
0.00661746

> <i_epik_Tot_Q>
1

> <i_epik_Tot_abs_Q>
1

> <r_epik_Metal_State_Penalty>
-0

> <b_epik_Metal_Only>
0

> <s_lp_Force_Field>
OPLS_2005

> <r_lp_Energy>
34.4783

> <b_lp_Chiralities_Consistent>
1

> <s_lp_Variant>
AV-unprocessed.smi:1465-2

> <Gold.Version>
5.8.1

> <Gold.Id.Protein>
6NUR|6NUR_protein|mol2

> <Gold.PLP.Fitness>
44.6301

> <Gold.PLP.PLP>
-39.3985

> <Gold.PLP.part.hbond>
-3.0000

> <Gold.PLP.part.metal>
0.0000

> <Gold.PLP.part.buried>
-5.9473

> <Gold.PLP.part.nonpolar>
-31.8462

> <Gold.PLP.part.repulsive>
0.0336

> <Gold.PLP.ligand.clash>
0.0000

> <Gold.PLP.ligand.torsion>
0.7085

> <Gold.PLP.Chemscore.Hbond>
2.1561

> <Gold.PLP.Chemscore.CHOScore>
0.0000

> <Gold.PLP.Chemscore.Metal>
0.0000

> <Gold.Chemscore.Hbonds>
donor molecule, donor type, donor heavy atom, donor atom, acceptor molecule, acceptor atom, score
      P1  H  6896  6909       L1     9  0.53
      P1  H  7989  7998       L1    24  0.17
      P1  H  7997  8009       L1    24  0.89

> <Gold.PLP.Chemscore.Internal.Correction>
0.1802

> <Gold.Rescore>
     Score         DG    S(hbond)    S(metal)    S(lipo)     H(rot)  DE(clash)    DE(int)     intcor
     18.10     -18.75       1.97        0.00      96.02       1.78       0.03       0.62       ----

> <Gold.Chemscore.Fitness>
18.0984

> <Gold.Chemscore.DG>
-18.7501

> <Gold.Chemscore.ZeroCoef>
-5.4800

> <Gold.Chemscore.Hbond>
1.9714

> <Gold.Chemscore.Metal>
0.0000

> <Gold.Chemscore.Lipo>
96.0218

> <Gold.Chemscore.Internal_Hbond>
0.0000

> <Gold.Chemscore.DEClash>
0.0310

> <Gold.Chemscore.DEInternal>
0.6207

> <Gold.Chemscore.Rot>
1.7769

> <Gold.Chemscore.Internal.Correction>
   9.000000E+99

> <Gold.Chemscore.Hbonds>
donor molecule, donor type, donor heavy atom, donor atom, acceptor molecule, acceptor atom, score
      P1  H  6896  6909       L1     9  0.51
      P1  H  7989  7998       L1    24  0.14
      P1  H  7997  8009       L1    24  0.84

> <Gold.Chemscore.Hbond.Weighted>
-6.5845

> <Gold.Chemscore.Metal.Weighted>
-0.0000

> <Gold.Chemscore.Lipo.Weighted>
-11.2346

> <Gold.Chemscore.Internal_Hbond.Weighted>
0.0000

> <Gold.Chemscore.DEClash.Weighted>
0.0310

> <Gold.Chemscore.DEInternal.Weighted>
0.6207

> <Gold.Chemscore.Rot.Weighted>
4.5490

> <Gold.Chemscore.Internal.Correction.Weighted>
   9.000000E+99

> <Gold.Protein.RotatedTorsions>
[ 6907 6896 6895 6894 ] final   11.90 input  -60.11 | X-H torsion
[ 7974 7965 7964 7962 ] final  -47.90 input  175.53 | X-H torsion
[ 8008 7997 7996 7995 ] final -138.19 input   59.86 | X-H torsion
[ 10167 10162 10161 10158 ] final   -2.71 input  -65.29 | X-H torsion
[ 10718 10713 10712 10709 ] final  173.86 input   66.30 | X-H torsion
[ 10763 10752 10751 10750 ] final   97.25 input  -60.55 | X-H torsion
[ 11005 11000 10999 10996 ] final -155.55 input  -57.11 | X-H torsion

> <Gold.Protein.ActiveResidues>
 VAL166  LYS551  ARG553  GLY616  TRP617  ASP618  TYR619  PRO620  LYS621  CYS622 
 ASP623  PHE694  ASN695  SER759  ASP760  ASP761  ALA762  ILE779  LEU786  VAL792 
 PHE793  MET794  SER795  GLU796  ALA797  LYS798  CYS799  TRP800  GLU811  SER814 

> <Gold.Protein.RotatedAtoms>
  151.7617  135.0808  160.0346 H   0  0  0  0  0  0  0  0  0  0  0  0  # atno 6907 bound_to 6896
  152.3349  133.5995  159.5844 H   0  0  0  0  0  0  0  0  0  0  0  0  # atno 6908 bound_to 6896
  150.7444  133.9728  159.3593 H   0  0  0  0  0  0  0  0  0  0  0  0  # atno 6909 bound_to 6896
  145.9568  140.7518  142.9477 H   0  0  0  0  0  0  0  0  0  0  0  0  # atno 7974 bound_to 7965
  155.4242  140.0520  157.3023 H   0  0  0  0  0  0  0  0  0  0  0  0  # atno 8008 bound_to 7997
  154.4889  140.2112  155.9552 H   0  0  0  0  0  0  0  0  0  0  0  0  # atno 8009 bound_to 7997
  156.1314  140.3171  155.8359 H   0  0  0  0  0  0  0  0  0  0  0  0  # atno 8010 bound_to 7997
  140.6862  143.6625  150.8254 H   0  0  0  0  0  0  0  0  0  0  0  0  # atno 10167 bound_to 10162
  156.9580  131.0052  151.2934 H   0  0  0  0  0  0  0  0  0  0  0  0  # atno 10718 bound_to 10713
  153.2747  135.4190  155.1021 H   0  0  0  0  0  0  0  0  0  0  0  0  # atno 10763 bound_to 10752
  154.8468  135.3480  154.6195 H   0  0  0  0  0  0  0  0  0  0  0  0  # atno 10764 bound_to 10752
  153.6615  135.7048  153.5233 H   0  0  0  0  0  0  0  0  0  0  0  0  # atno 10765 bound_to 10752
  140.6852  134.4101  157.5223 H   0  0  0  0  0  0  0  0  0  0  0  0  # atno 11005 bound_to 11000
  144.6807  140.2525  143.7329 LP  0  0  0  0  0  0  0  0  0  0  0  0  # atno 17320 bound_to 7965
  145.8095  139.1997  143.2001 LP  0  0  0  0  0  0  0  0  0  0  0  0  # atno 17321 bound_to 7965
  140.0332  143.5422  152.2751 LP  0  0  0  0  0  0  0  0  0  0  0  0  # atno 17342 bound_to 10162
  139.6222  144.7631  151.2715 LP  0  0  0  0  0  0  0  0  0  0  0  0  # atno 17343 bound_to 10162
  157.5677  130.8289  149.8349 LP  0  0  0  0  0  0  0  0  0  0  0  0  # atno 17370 bound_to 10713
  156.0334  130.3758  150.1625 LP  0  0  0  0  0  0  0  0  0  0  0  0  # atno 17371 bound_to 10713
  139.8939  134.8718  156.2199 LP  0  0  0  0  0  0  0  0  0  0  0  0  # atno 17394 bound_to 11000
  141.0285  133.7001  156.1389 LP  0  0  0  0  0  0  0  0  0  0  0  0  # atno 17395 bound_to 11000

$$$$
