AV-unprocessed.smi:2759|AV-procd|sdf|10627|dock1
  -GOLD-   2272015 73D 1   1.00000     0.00000
 Structure written by MMmdl.
 43 44  0  0  0  0  0  0  0  0  1 V2000
  151.2599  138.6430  157.1213 C   0  0  0  0  0  0  0  0  0  0  0  0
  151.7408  138.4706  155.6683 C   0  0  0  0  0  0  0  0  0  0  0  0
  151.2826  139.6892  154.8435 C   0  0  0  0  0  0  0  0  0  0  0  0
  151.2696  137.1349  155.0327 C   0  0  1  0  0  0  0  0  0  0  0  0
  152.0832  136.8596  153.9067 O   0  0  0  0  0  0  0  0  0  0  0  0
  151.3644  135.9152  155.9761 C   0  0  0  0  0  0  0  0  0  0  0  0
  150.7586  134.6778  155.3974 C   0  0  0  0  0  0  0  0  0  0  0  0
  150.3572  134.4899  154.1426 N   0  0  0  0  0  0  0  0  0  0  0  0
  149.8654  133.2213  154.2116 C   0  0  0  0  0  0  0  0  0  0  0  0
  149.2899  132.5085  153.0274 C   0  0  0  0  0  0  0  0  0  0  0  0
  148.0729  133.2438  152.4529 C   0  0  0  0  0  0  0  0  0  0  0  0
  147.5594  134.1841  153.0611 O   0  0  0  0  0  0  0  0  0  0  0  0
  147.6156  132.7970  151.2728 N   0  0  0  0  0  0  0  0  0  0  0  0
  146.4786  133.3559  150.5455 C   0  0  0  0  0  0  0  0  0  0  0  0
  145.2990  133.6330  151.4975 C   0  0  0  0  0  0  0  0  0  0  0  0
  144.0642  133.0247  150.8304 C   0  0  0  0  0  0  0  0  0  0  0  0
  144.6119  131.8569  150.0165 C   0  0  0  0  0  0  0  0  0  0  0  0
  145.9511  132.3687  149.4854 C   0  0  0  0  0  0  0  0  0  0  0  0
  149.9074  132.6491  155.4099 N   0  0  0  0  0  0  0  0  0  0  0  0
  150.5045  133.6287  156.2162 O   0  0  0  0  0  0  0  0  0  0  0  0
  150.1756  138.5525  157.1933 H   0  0  0  0  0  0  0  0  0  0  0  0
  151.5349  139.6239  157.5103 H   0  0  0  0  0  0  0  0  0  0  0  0
  151.7056  137.9097  157.7919 H   0  0  0  0  0  0  0  0  0  0  0  0
  152.8319  138.4762  155.6820 H   0  0  0  0  0  0  0  0  0  0  0  0
  150.1957  139.7260  154.7630 H   0  0  0  0  0  0  0  0  0  0  0  0
  151.6909  139.6734  153.8329 H   0  0  0  0  0  0  0  0  0  0  0  0
  151.6116  140.6216  155.3032 H   0  0  0  0  0  0  0  0  0  0  0  0
  150.2387  137.2518  154.6950 H   0  0  0  0  0  0  0  0  0  0  0  0
  151.5242  136.7201  153.1572 H   0  0  0  0  0  0  0  0  0  0  0  0
  152.4024  135.7162  156.2462 H   0  0  0  0  0  0  0  0  0  0  0  0
  150.8388  136.1062  156.9099 H   0  0  0  0  0  0  0  0  0  0  0  0
  150.0613  132.4027  152.2630 H   0  0  0  0  0  0  0  0  0  0  0  0
  148.9897  131.5012  153.3173 H   0  0  0  0  0  0  0  0  0  0  0  0
  148.0936  132.0190  150.8417 H   0  0  0  0  0  0  0  0  0  0  0  0
  146.7736  134.2875  150.0585 H   0  0  0  0  0  0  0  0  0  0  0  0
  145.4574  133.1463  152.4613 H   0  0  0  0  0  0  0  0  0  0  0  0
  145.1708  134.6981  151.6935 H   0  0  0  0  0  0  0  0  0  0  0  0
  143.3054  132.7173  151.5506 H   0  0  0  0  0  0  0  0  0  0  0  0
  143.6107  133.7561  150.1603 H   0  0  0  0  0  0  0  0  0  0  0  0
  144.7780  130.9992  150.6698 H   0  0  0  0  0  0  0  0  0  0  0  0
  143.9356  131.5448  149.2202 H   0  0  0  0  0  0  0  0  0  0  0  0
  145.7852  132.9039  148.5494 H   0  0  0  0  0  0  0  0  0  0  0  0
  146.6417  131.5530  149.2671 H   0  0  0  0  0  0  0  0  0  0  0  0
  1  2  1  0  0  0  0
  1 21  1  0  0  0  0
  1 22  1  0  0  0  0
  1 23  1  0  0  0  0
  2  3  1  0  0  0  0
  2  4  1  0  0  0  0
  2 24  1  0  0  0  0
  3 25  1  0  0  0  0
  3 26  1  0  0  0  0
  3 27  1  0  0  0  0
  4  5  1  0  0  0  0
  4  6  1  0  0  0  0
  4 28  1  0  0  0  0
  5 29  1  0  0  0  0
  6  7  1  0  0  0  0
  6 30  1  0  0  0  0
  6 31  1  0  0  0  0
  7 20  1  0  0  0  0
  7  8  2  0  0  0  0
  8  9  1  0  0  0  0
  9 10  1  0  0  0  0
  9 19  2  0  0  0  0
 10 11  1  0  0  0  0
 10 32  1  0  0  0  0
 10 33  1  0  0  0  0
 11 12  2  0  0  0  0
 11 13  1  0  0  0  0
 13 14  1  0  0  0  0
 13 34  1  0  0  0  0
 14 18  1  0  0  0  0
 14 15  1  0  0  0  0
 14 35  1  0  0  0  0
 15 16  1  0  0  0  0
 15 36  1  0  0  0  0
 15 37  1  0  0  0  0
 16 17  1  0  0  0  0
 16 38  1  0  0  0  0
 16 39  1  0  0  0  0
 17 18  1  0  0  0  0
 17 40  1  0  0  0  0
 17 41  1  0  0  0  0
 18 42  1  0  0  0  0
 18 43  1  0  0  0  0
 19 20  1  0  0  0  0
M  END
> <s_m_source_file>
AV-unprocessed.smi

> <i_m_source_file_index>
2759

> <i_lp_mmshare_version>
43012

> <i_f3d_flags>
0

> <s_epik_input>
W0NIM11bQ0hdKFtDSDNdKVtDQEhdKFtPSF0pW0NIMl1jMW5jKG5vMSlbQ0gyXUMoPU8pW05IXVtDSF0yW0NIMl1bQ0gyXVtDSDJdW0NIMl0y

> <s_epik_cmdline>
J2VwaWtfcHl0aG9uJywgJy1waCcsICc3LjAnLCAnLXRuJywgJzgnLCAnLW1hJywgJzIwMCcsICctbWV0YWxfYmluZGluZycsICctaW1hZScsICc8aW5maWxlLm1hZT4nLCAnLW9tYWUnLCAnPG91dGZpbGUubWFlPic=

> <r_lp_tautomer_probability>
1

> <r_epik_Ionization_Penalty>
1.20032e-07

> <r_epik_Ionization_Penalty_Charging>
0

> <r_epik_Ionization_Penalty_Neutral>
1.20032e-07

> <r_epik_State_Penalty>
-0

> <r_epik_Charging_Adjusted_Penalty>
0

> <i_epik_Tot_Q>
0

> <i_epik_Tot_abs_Q>
0

> <r_epik_Metal_State_Penalty>
-0

> <b_epik_Metal_Only>
0

> <s_lp_Force_Field>
OPLS_2005

> <r_lp_Energy>
21.2868

> <b_lp_Chiralities_Consistent>
1

> <s_lp_Variant>
AV-unprocessed.smi:2759-2

> <Gold.Version>
5.8.1

> <Gold.Id.Protein>
6NUR|6NUR_protein|mol2

> <Gold.PLP.Fitness>
42.9855

> <Gold.PLP.PLP>
-35.5029

> <Gold.PLP.part.hbond>
-3.0000

> <Gold.PLP.part.metal>
0.0000

> <Gold.PLP.part.buried>
-4.3437

> <Gold.PLP.part.nonpolar>
-29.4070

> <Gold.PLP.part.repulsive>
1.3903

> <Gold.PLP.ligand.clash>
0.0000

> <Gold.PLP.ligand.torsion>
0.7632

> <Gold.PLP.Chemscore.Hbond>
2.9760

> <Gold.PLP.Chemscore.CHOScore>
0.0000

> <Gold.PLP.Chemscore.Metal>
0.0000

> <Gold.Chemscore.Hbonds>
donor molecule, donor type, donor heavy atom, donor atom, acceptor molecule, acceptor atom, score
      L1  H     5    29       P1  7949  1.00
      L1  H    13    34       P1 10747  1.00
      P1  H 10752 10763       L1     5  0.90

> <Gold.PLP.Chemscore.Internal.Correction>
0.0810

> <Gold.Rescore>
     Score         DG    S(hbond)    S(metal)    S(lipo)     H(rot)  DE(clash)    DE(int)     intcor
     12.16     -16.80       2.62        0.00      80.06       2.65       1.66       2.98       ----

> <Gold.Chemscore.Fitness>
12.1578

> <Gold.Chemscore.DG>
-16.8007

> <Gold.Chemscore.ZeroCoef>
-5.4800

> <Gold.Chemscore.Hbond>
2.6193

> <Gold.Chemscore.Metal>
0.0000

> <Gold.Chemscore.Lipo>
80.0604

> <Gold.Chemscore.Internal_Hbond>
0.0000

> <Gold.Chemscore.DEClash>
1.6594

> <Gold.Chemscore.DEInternal>
2.9835

> <Gold.Chemscore.Rot>
2.6543

> <Gold.Chemscore.Internal.Correction>
   9.000000E+99

> <Gold.Chemscore.Hbonds>
donor molecule, donor type, donor heavy atom, donor atom, acceptor molecule, acceptor atom, score
      L1  H     5    29       P1  7949  0.89
      L1  H    13    34       P1 10747  0.96
      P1  H 10752 10763       L1     5  0.31

> <Gold.Chemscore.Hbond.Weighted>
-8.7486

> <Gold.Chemscore.Metal.Weighted>
-0.0000

> <Gold.Chemscore.Lipo.Weighted>
-9.3671

> <Gold.Chemscore.Internal_Hbond.Weighted>
0.0000

> <Gold.Chemscore.DEClash.Weighted>
1.6594

> <Gold.Chemscore.DEInternal.Weighted>
2.9835

> <Gold.Chemscore.Rot.Weighted>
6.7950

> <Gold.Chemscore.Internal.Correction.Weighted>
   9.000000E+99

> <Gold.Protein.RotatedTorsions>
[ 6907 6896 6895 6894 ] final  -75.60 input  -60.11 | X-H torsion
[ 7974 7965 7964 7962 ] final  -46.42 input  175.53 | X-H torsion
[ 8008 7997 7996 7995 ] final  129.95 input   59.86 | X-H torsion
[ 10167 10162 10161 10158 ] final -175.52 input  -65.29 | X-H torsion
[ 10718 10713 10712 10709 ] final   57.46 input   66.30 | X-H torsion
[ 10763 10752 10751 10750 ] final   48.37 input  -60.55 | X-H torsion
[ 11005 11000 10999 10996 ] final   86.52 input  -57.11 | X-H torsion

> <Gold.Protein.ActiveResidues>
 VAL166  LYS551  ARG553  GLY616  TRP617  ASP618  TYR619  PRO620  LYS621  CYS622 
 ASP623  PHE694  ASN695  SER759  ASP760  ASP761  ALA762  ILE779  LEU786  VAL792 
 PHE793  MET794  SER795  GLU796  ALA797  LYS798  CYS799  TRP800  GLU811  SER814 

> <Gold.Protein.RotatedAtoms>
  150.7054  134.4697  159.5419 H   0  0  0  0  0  0  0  0  0  0  0  0  # atno 6907 bound_to 6896
  152.2356  134.8276  160.0476 H   0  0  0  0  0  0  0  0  0  0  0  0  # atno 6908 bound_to 6896
  151.9077  133.3518  159.3889 H   0  0  0  0  0  0  0  0  0  0  0  0  # atno 6909 bound_to 6896
  145.9721  140.7372  142.9405 H   0  0  0  0  0  0  0  0  0  0  0  0  # atno 7974 bound_to 7965
  156.2946  140.2608  156.2682 H   0  0  0  0  0  0  0  0  0  0  0  0  # atno 8008 bound_to 7997
  154.9721  140.0391  157.2258 H   0  0  0  0  0  0  0  0  0  0  0  0  # atno 8009 bound_to 7997
  154.7849  140.2801  155.6040 H   0  0  0  0  0  0  0  0  0  0  0  0  # atno 8010 bound_to 7997
  139.5577  144.1948  152.1186 H   0  0  0  0  0  0  0  0  0  0  0  0  # atno 10167 bound_to 10162
  157.5517  130.8770  149.8973 H   0  0  0  0  0  0  0  0  0  0  0  0  # atno 10718 bound_to 10713
  152.9792  135.5946  154.3915 H   0  0  0  0  0  0  0  0  0  0  0  0  # atno 10763 bound_to 10752
  154.3570  135.2767  155.2343 H   0  0  0  0  0  0  0  0  0  0  0  0  # atno 10764 bound_to 10752
  154.4357  135.6025  153.6152 H   0  0  0  0  0  0  0  0  0  0  0  0  # atno 10765 bound_to 10752
  139.8942  134.8361  156.2732 H   0  0  0  0  0  0  0  0  0  0  0  0  # atno 11005 bound_to 11000
  144.6839  140.2766  143.7298 LP  0  0  0  0  0  0  0  0  0  0  0  0  # atno 17320 bound_to 7965
  145.7891  139.1920  143.2113 LP  0  0  0  0  0  0  0  0  0  0  0  0  # atno 17321 bound_to 7965
  140.1456  144.5162  150.6718 LP  0  0  0  0  0  0  0  0  0  0  0  0  # atno 17342 bound_to 10162
  140.6852  143.2346  151.5279 LP  0  0  0  0  0  0  0  0  0  0  0  0  # atno 17343 bound_to 10162
  156.0582  130.3704  150.1042 LP  0  0  0  0  0  0  0  0  0  0  0  0  # atno 17370 bound_to 10713
  156.9214  130.9684  151.3548 LP  0  0  0  0  0  0  0  0  0  0  0  0  # atno 17371 bound_to 10713
  141.0087  133.7108  156.1076 LP  0  0  0  0  0  0  0  0  0  0  0  0  # atno 17394 bound_to 11000
  140.7397  134.4163  157.5556 LP  0  0  0  0  0  0  0  0  0  0  0  0  # atno 17395 bound_to 11000

$$$$
