AV-unprocessed.smi:2652|AV-procd|sdf|10294|dock10
  -GOLD-   2272014303D 1   1.00000     0.00000
 Structure written by MMmdl.
 37 38  0  0  0  0  0  0  0  0  2 V2000
  151.3622  145.4272  160.2128 C   0  0  0  0  0  0  0  0  0  0  0  0
  152.0764  144.1769  160.6977 C   0  0  0  0  0  0  0  0  0  0  0  0
  152.3054  143.8602  161.9765 C   0  0  0  0  0  0  0  0  0  0  0  0
  153.1207  142.3262  162.1572 S   0  0  0  0  0  0  0  0  0  0  0  0
  153.1399  142.1156  160.3693 C   0  0  0  0  0  0  0  0  0  0  0  0
  153.6298  141.1301  159.8203 O   0  0  0  0  0  0  0  0  0  0  0  0
  152.5340  143.2236  159.7766 N   0  0  0  0  0  0  0  0  0  0  0  0
  152.4005  143.3727  158.3211 C   0  0  0  0  0  0  0  0  0  0  0  0
  151.5292  142.2887  157.6713 C   0  0  0  0  0  0  0  0  0  0  0  0
  150.4963  142.5949  157.0755 O   0  0  0  0  0  0  0  0  0  0  0  0
  151.9957  141.0337  157.8108 N   0  0  0  0  0  0  0  0  0  0  0  0
  151.4902  139.7319  157.3430 C   0  0  0  0  0  0  0  0  0  0  0  0
  151.8118  139.6958  155.8264 C   0  0  0  0  0  0  0  0  0  0  0  0
  150.8562  139.7655  155.0215 O   0  0  0  0  0  0  0  0  0  0  0  0
  153.0079  139.5526  155.4859 O   0  5  0  0  0  0  0  0  0  0  0  0
  152.0922  138.4910  158.0785 C   0  0  0  0  0  0  0  0  0  0  0  0
  151.4174  137.1622  157.6856 C   0  0  0  0  0  0  0  0  0  0  0  0
  149.9029  137.2162  157.9306 C   0  0  0  0  0  0  0  0  0  0  0  0
  149.2668  138.4084  157.2019 C   0  0  0  0  0  0  0  0  0  0  0  0
  149.9539  139.7321  157.5914 C   0  0  0  0  0  0  0  0  0  0  0  0
  150.7724  145.8620  161.0203 H   0  0  0  0  0  0  0  0  0  0  0  0
  150.6786  145.2127  159.3914 H   0  0  0  0  0  0  0  0  0  0  0  0
  152.0860  146.1726  159.8826 H   0  0  0  0  0  0  0  0  0  0  0  0
  152.0281  144.4452  162.8411 H   0  0  0  0  0  0  0  0  0  0  0  0
  152.0024  144.3562  158.0706 H   0  0  0  0  0  0  0  0  0  0  0  0
  153.3890  143.3374  157.8602 H   0  0  0  0  0  0  0  0  0  0  0  0
  152.8469  140.9571  158.3482 H   0  0  0  0  0  0  0  0  0  0  0  0
  153.1675  138.4125  157.9105 H   0  0  0  0  0  0  0  0  0  0  0  0
  151.9638  138.6106  159.1550 H   0  0  0  0  0  0  0  0  0  0  0  0
  151.6139  136.9330  156.6380 H   0  0  0  0  0  0  0  0  0  0  0  0
  151.8531  136.3454  158.2614 H   0  0  0  0  0  0  0  0  0  0  0  0
  149.4381  136.2865  157.6017 H   0  0  0  0  0  0  0  0  0  0  0  0
  149.7097  137.2981  159.0009 H   0  0  0  0  0  0  0  0  0  0  0  0
  149.3276  138.2549  156.1239 H   0  0  0  0  0  0  0  0  0  0  0  0
  148.2044  138.4613  157.4407 H   0  0  0  0  0  0  0  0  0  0  0  0
  149.7668  139.9178  158.6502 H   0  0  0  0  0  0  0  0  0  0  0  0
  149.4711  140.5587  157.0679 H   0  0  0  0  0  0  0  0  0  0  0  0
  1  2  1  0  0  0  0
  1 21  1  0  0  0  0
  1 22  1  0  0  0  0
  1 23  1  0  0  0  0
  2  7  1  0  0  0  0
  2  3  2  0  0  0  0
  3  4  1  0  0  0  0
  3 24  1  0  0  0  0
  4  5  1  0  0  0  0
  5  6  2  0  0  0  0
  5  7  1  0  0  0  0
  7  8  1  0  0  0  0
  8  9  1  0  0  0  0
  8 25  1  0  0  0  0
  8 26  1  0  0  0  0
  9 10  2  0  0  0  0
  9 11  1  0  0  0  0
 11 12  1  0  0  0  0
 11 27  1  0  0  0  0
 12 20  1  0  0  0  0
 12 13  1  0  0  0  0
 12 16  1  0  0  0  0
 13 14  2  0  0  0  0
 13 15  1  0  0  0  0
 16 17  1  0  0  0  0
 16 28  1  0  0  0  0
 16 29  1  0  0  0  0
 17 18  1  0  0  0  0
 17 30  1  0  0  0  0
 17 31  1  0  0  0  0
 18 19  1  0  0  0  0
 18 32  1  0  0  0  0
 18 33  1  0  0  0  0
 19 20  1  0  0  0  0
 19 34  1  0  0  0  0
 19 35  1  0  0  0  0
 20 36  1  0  0  0  0
 20 37  1  0  0  0  0
M  CHG  1  15  -1
M  END
> <s_m_source_file>
AV-unprocessed.smi

> <i_m_source_file_index>
2652

> <i_lp_mmshare_version>
43012

> <i_f3d_flags>
0

> <s_epik_input>
W0NIM11jMVtjSF1zYyg9TyluMVtDSDJdQyg9TylbTkhdQzIoQyg9TylbT0hdKVtDSDJdW0NIMl1bQ0gyXVtDSDJdW0NIMl0y

> <s_epik_cmdline>
J2VwaWtfcHl0aG9uJywgJy1waCcsICc3LjAnLCAnLXRuJywgJzgnLCAnLW1hJywgJzIwMCcsICctbWV0YWxfYmluZGluZycsICctaW1hZScsICc8aW5maWxlLm1hZT4nLCAnLW9tYWUnLCAnPG91dGZpbGUubWFlPic=

> <r_epik_Ionization_Penalty>
0.000325241

> <r_epik_Ionization_Penalty_Charging>
0.000325125

> <r_epik_Ionization_Penalty_Neutral>
1.16183e-07

> <r_epik_State_Penalty>
0.000195685

> <r_epik_Charging_Adjusted_Penalty>
0.00052081

> <i_epik_Tot_Q>
-1

> <i_epik_Tot_abs_Q>
1

> <r_epik_Metal_State_Penalty>
-0

> <b_epik_Metal_Only>
0

> <s_lp_Force_Field>
OPLS_2005

> <r_lp_Energy>
9.07631

> <b_lp_Chiralities_Consistent>
1

> <s_lp_Variant>
AV-unprocessed.smi:2652-1

> <Gold.Version>
5.8.1

> <Gold.Id.Protein>
6NUR|6NUR_protein|mol2

> <Gold.PLP.Fitness>
49.2378

> <Gold.PLP.PLP>
-41.2378

> <Gold.PLP.part.hbond>
-2.0000

> <Gold.PLP.part.metal>
0.0000

> <Gold.PLP.part.buried>
-7.8348

> <Gold.PLP.part.nonpolar>
-32.7832

> <Gold.PLP.part.repulsive>
1.4237

> <Gold.PLP.ligand.clash>
0.0000

> <Gold.PLP.ligand.torsion>
0.5259

> <Gold.PLP.Chemscore.Hbond>
3.0000

> <Gold.PLP.Chemscore.CHOScore>
0.0000

> <Gold.PLP.Chemscore.Metal>
0.0000

> <Gold.Chemscore.Hbonds>
donor molecule, donor type, donor heavy atom, donor atom, acceptor molecule, acceptor atom, score
      P1  H  7989  7998       L1    14  0.99
      P1  H  7997  8010       L1    15  2.00

> <Gold.PLP.Chemscore.Internal.Correction>
0.0518

> <Gold.Rescore>
     Score         DG    S(hbond)    S(metal)    S(lipo)     H(rot)  DE(clash)    DE(int)     intcor
     13.08     -15.97       1.95        0.00      78.95       2.05       0.35       2.54       ----

> <Gold.Chemscore.Fitness>
13.0778

> <Gold.Chemscore.DG>
-15.9720

> <Gold.Chemscore.ZeroCoef>
-5.4800

> <Gold.Chemscore.Hbond>
1.9507

> <Gold.Chemscore.Metal>
0.0000

> <Gold.Chemscore.Lipo>
78.9506

> <Gold.Chemscore.Internal_Hbond>
0.0000

> <Gold.Chemscore.DEClash>
0.3521

> <Gold.Chemscore.DEInternal>
2.5420

> <Gold.Chemscore.Rot>
2.0550

> <Gold.Chemscore.Internal.Correction>
   9.000000E+99

> <Gold.Chemscore.Hbonds>
donor molecule, donor type, donor heavy atom, donor atom, acceptor molecule, acceptor atom, score
      P1  H  7989  7998       L1    14  0.37
      P1  H  7997  8010       L1    15  0.99

> <Gold.Chemscore.Hbond.Weighted>
-6.5155

> <Gold.Chemscore.Metal.Weighted>
-0.0000

> <Gold.Chemscore.Lipo.Weighted>
-9.2372

> <Gold.Chemscore.Internal_Hbond.Weighted>
0.0000

> <Gold.Chemscore.DEClash.Weighted>
0.3521

> <Gold.Chemscore.DEInternal.Weighted>
2.5420

> <Gold.Chemscore.Rot.Weighted>
5.2607

> <Gold.Chemscore.Internal.Correction.Weighted>
   9.000000E+99

> <Gold.Protein.RotatedTorsions>
[ 6907 6896 6895 6894 ] final -127.67 input  -60.11 | X-H torsion
[ 7974 7965 7964 7962 ] final  -95.33 input  175.53 | X-H torsion
[ 8008 7997 7996 7995 ] final   96.51 input   59.86 | X-H torsion
[ 10167 10162 10161 10158 ] final  142.54 input  -65.29 | X-H torsion
[ 10718 10713 10712 10709 ] final -158.98 input   66.30 | X-H torsion
[ 10763 10752 10751 10750 ] final  -35.48 input  -60.55 | X-H torsion
[ 11005 11000 10999 10996 ] final -139.76 input  -57.11 | X-H torsion

> <Gold.Protein.ActiveResidues>
 VAL166  LYS551  ARG553  GLY616  TRP617  ASP618  TYR619  PRO620  LYS621  CYS622 
 ASP623  PHE694  ASN695  SER759  ASP760  ASP761  ALA762  ILE779  LEU786  VAL792 
 PHE793  MET794  SER795  GLU796  ALA797  LYS798  CYS799  TRP800  GLU811  SER814 

> <Gold.Protein.RotatedAtoms>
  150.9098  133.7012  159.2857 H   0  0  0  0  0  0  0  0  0  0  0  0  # atno 6907 bound_to 6896
  151.4503  135.1028  159.9705 H   0  0  0  0  0  0  0  0  0  0  0  0  # atno 6908 bound_to 6896
  152.4923  133.8485  159.7244 H   0  0  0  0  0  0  0  0  0  0  0  0  # atno 6909 bound_to 6896
  145.3615  140.9492  143.2498 H   0  0  0  0  0  0  0  0  0  0  0  0  # atno 7974 bound_to 7965
  156.0804  140.3271  155.7686 H   0  0  0  0  0  0  0  0  0  0  0  0  # atno 8008 bound_to 7997
  155.5162  140.0581  157.2932 H   0  0  0  0  0  0  0  0  0  0  0  0  # atno 8009 bound_to 7997
  154.4579  140.1952  156.0345 H   0  0  0  0  0  0  0  0  0  0  0  0  # atno 8010 bound_to 7997
  139.4992  144.6100  151.6292 H   0  0  0  0  0  0  0  0  0  0  0  0  # atno 10167 bound_to 10162
  156.5616  130.8650  151.2811 H   0  0  0  0  0  0  0  0  0  0  0  0  # atno 10718 bound_to 10713
  153.8639  135.6837  153.4780 H   0  0  0  0  0  0  0  0  0  0  0  0  # atno 10763 bound_to 10752
  153.1326  135.4691  154.9370 H   0  0  0  0  0  0  0  0  0  0  0  0  # atno 10764 bound_to 10752
  154.7746  135.3249  154.8069 H   0  0  0  0  0  0  0  0  0  0  0  0  # atno 10765 bound_to 10752
  140.8489  134.2311  157.4771 H   0  0  0  0  0  0  0  0  0  0  0  0  # atno 11005 bound_to 11000
  144.8643  139.5131  143.6797 LP  0  0  0  0  0  0  0  0  0  0  0  0  # atno 17320 bound_to 7965
  146.2925  139.7181  142.9150 LP  0  0  0  0  0  0  0  0  0  0  0  0  # atno 17321 bound_to 7965
  140.5772  144.0007  150.6248 LP  0  0  0  0  0  0  0  0  0  0  0  0  # atno 17342 bound_to 10162
  140.3145  143.3177  152.0846 LP  0  0  0  0  0  0  0  0  0  0  0  0  # atno 17343 bound_to 10162
  157.7367  130.9783  150.2152 LP  0  0  0  0  0  0  0  0  0  0  0  0  # atno 17370 bound_to 10713
  156.2793  130.3731  149.7951 LP  0  0  0  0  0  0  0  0  0  0  0  0  # atno 17371 bound_to 10713
  139.8704  134.9673  156.4592 LP  0  0  0  0  0  0  0  0  0  0  0  0  # atno 17394 bound_to 11000
  140.8813  133.7916  155.9469 LP  0  0  0  0  0  0  0  0  0  0  0  0  # atno 17395 bound_to 11000

$$$$
