AV-unprocessed.smi:64|AV-procd|sdf|610|dock5
  -GOLD-   2262016503D 1   1.00000     0.00000
 Structure written by MMmdl.
 31 32  0  0  0  0  0  0  0  0  2 V2000
  151.2459  145.4411  159.9747 C   0  0  0  0  0  0  0  0  0  0  0  0
  151.7072  144.3388  159.0293 C   0  0  0  0  0  0  0  0  0  0  0  0
  152.9027  144.0942  158.8658 O   0  0  0  0  0  0  0  0  0  0  0  0
  150.6840  143.7084  158.4312 O   0  0  0  0  0  0  0  0  0  0  0  0
  150.9491  142.7167  157.4518 C   0  0  0  0  0  0  0  0  0  0  0  0
  149.6456  142.0099  157.0681 C   0  0  0  0  0  0  0  0  0  0  0  0
  149.9460  140.7047  156.6026 O   0  0  0  0  0  0  0  0  0  0  0  0
  150.8843  140.7014  155.5795 C   0  0  0  0  0  0  0  0  0  0  0  0
  151.7069  139.5191  155.7374 N   0  0  0  0  0  0  0  0  0  0  0  0
  152.7751  139.1662  154.9963 C   0  0  0  0  0  0  0  0  0  0  0  0
  153.3596  138.0212  155.3466 N   0  0  0  0  0  0  0  0  0  0  0  0
  152.5779  137.6131  156.4220 C   0  0  0  0  0  0  0  0  0  0  0  0
  152.6516  136.4194  157.2993 C   0  0  0  0  0  0  0  0  0  0  0  0
  153.5372  135.5884  157.1067 O   0  0  0  0  0  0  0  0  0  0  0  0
  151.6958  136.3477  158.2756 N   0  5  0  0  0  0  0  0  0  0  0  0
  150.7321  137.3583  158.4021 C   0  0  0  0  0  0  0  0  0  0  0  0
  149.8515  137.1290  159.4367 N   0  0  0  0  0  0  0  0  0  0  0  0
  150.6064  138.4349  157.6651 N   0  0  0  0  0  0  0  0  0  0  0  0
  151.5719  138.5053  156.6780 C   0  0  0  0  0  0  0  0  0  0  0  0
  150.1595  145.5331  159.9672 H   0  0  0  0  0  0  0  0  0  0  0  0
  151.6743  146.3972  159.6738 H   0  0  0  0  0  0  0  0  0  0  0  0
  151.5677  145.2235  160.9931 H   0  0  0  0  0  0  0  0  0  0  0  0
  151.4174  143.1583  156.5710 H   0  0  0  0  0  0  0  0  0  0  0  0
  151.6497  141.9909  157.8671 H   0  0  0  0  0  0  0  0  0  0  0  0
  149.0042  141.9385  157.9475 H   0  0  0  0  0  0  0  0  0  0  0  0
  149.1045  142.5827  156.3132 H   0  0  0  0  0  0  0  0  0  0  0  0
  150.3976  140.6647  154.6033 H   0  0  0  0  0  0  0  0  0  0  0  0
  151.5222  141.5848  155.6361 H   0  0  0  0  0  0  0  0  0  0  0  0
  153.1345  139.7672  154.1740 H   0  0  0  0  0  0  0  0  0  0  0  0
  149.8961  136.3200  160.0384 H   0  0  0  0  0  0  0  0  0  0  0  0
  149.0937  137.7561  159.6638 H   0  0  0  0  0  0  0  0  0  0  0  0
  1  2  1  0  0  0  0
  1 20  1  0  0  0  0
  1 21  1  0  0  0  0
  1 22  1  0  0  0  0
  2  3  2  0  0  0  0
  2  4  1  0  0  0  0
  4  5  1  0  0  0  0
  5  6  1  0  0  0  0
  5 23  1  0  0  0  0
  5 24  1  0  0  0  0
  6  7  1  0  0  0  0
  6 25  1  0  0  0  0
  6 26  1  0  0  0  0
  7  8  1  0  0  0  0
  8  9  1  0  0  0  0
  8 27  1  0  0  0  0
  8 28  1  0  0  0  0
  9 19  1  0  0  0  0
  9 10  1  0  0  0  0
 10 11  2  0  0  0  0
 10 29  1  0  0  0  0
 11 12  1  0  0  0  0
 12 19  2  0  0  0  0
 12 13  1  0  0  0  0
 13 14  2  0  0  0  0
 13 15  1  0  0  0  0
 15 16  1  0  0  0  0
 16 17  1  0  0  0  0
 16 18  2  0  0  0  0
 17 30  1  0  0  0  0
 17 31  1  0  0  0  0
 18 19  1  0  0  0  0
M  CHG  1  15  -1
M  END
> <s_m_source_file>
AV-unprocessed.smi

> <i_m_source_file_index>
64

> <i_lp_mmshare_version>
43012

> <i_f3d_flags>
0

> <s_epik_input>
W0NIM11DKD1PKU9bQ0gyXVtDSDJdT1tDSDJdbihbY0hdbjEpYyhjMTIpbmMoW05IMl0pW25IXWMyPU8=

> <s_epik_cmdline>
J2VwaWtfcHl0aG9uJywgJy1waCcsICc3LjAnLCAnLXRuJywgJzgnLCAnLW1hJywgJzIwMCcsICctbWV0YWxfYmluZGluZycsICctaW1hZScsICc8aW5maWxlLm1hZT4nLCAnLW9tYWUnLCAnPG91dGZpbGUubWFlPic=

> <r_lp_tautomer_probability>
1

> <r_epik_Ionization_Penalty>
3.5586

> <r_epik_Ionization_Penalty_Charging>
1.23364e-10

> <r_epik_Ionization_Penalty_Neutral>
3.5586

> <r_epik_State_Penalty>
3.54828

> <r_epik_Charging_Adjusted_Penalty>
3.54828

> <i_epik_Tot_Q>
-1

> <i_epik_Tot_abs_Q>
1

> <r_epik_Metal_State_Penalty>
0.517613

> <b_epik_Metal_Only>
1

> <s_epik_Chemistry_Notes>
This compound has an ester and may undergo hydrolysis at high or low pH. This compound contains an acetal/aminal-like group ( X-CH(R)-Y where X, Y are N, S, or O) that may be acid/base labile, releasing an aldehyde.

> <s_lp_Force_Field>
OPLS_2005

> <r_lp_Energy>
20.1337

> <b_lp_Chiralities_Consistent>
1

> <s_lp_Variant>
AV-unprocessed.smi:64-2

> <Gold.Version>
5.8.1

> <Gold.Id.Protein>
6NUR|6NUR_protein|mol2

> <Gold.PLP.Fitness>
35.8157

> <Gold.PLP.PLP>
-30.5629

> <Gold.PLP.part.hbond>
-3.0000

> <Gold.PLP.part.metal>
0.0000

> <Gold.PLP.part.buried>
-3.4967

> <Gold.PLP.part.nonpolar>
-24.3652

> <Gold.PLP.part.repulsive>
0.4240

> <Gold.PLP.ligand.clash>
0.0000

> <Gold.PLP.ligand.torsion>
0.4425

> <Gold.PLP.Chemscore.Hbond>
2.0240

> <Gold.PLP.Chemscore.CHOScore>
0.0000

> <Gold.PLP.Chemscore.Metal>
0.0000

> <Gold.Chemscore.Hbonds>
donor molecule, donor type, donor heavy atom, donor atom, acceptor molecule, acceptor atom, score
      P1  H  6896  6909       L1    15  0.93
      P1  H 10752 10765       L1    14  1.00

> <Gold.PLP.Chemscore.Internal.Correction>
0.0658

> <Gold.Rescore>
     Score         DG    S(hbond)    S(metal)    S(lipo)     H(rot)  DE(clash)    DE(int)     intcor
      1.12      -3.34       1.25        0.00      32.14       3.93       0.06       2.15       ----

> <Gold.Chemscore.Fitness>
1.1227

> <Gold.Chemscore.DG>
-3.3366

> <Gold.Chemscore.ZeroCoef>
-5.4800

> <Gold.Chemscore.Hbond>
1.2480

> <Gold.Chemscore.Metal>
0.0000

> <Gold.Chemscore.Lipo>
32.1373

> <Gold.Chemscore.Internal_Hbond>
0.0000

> <Gold.Chemscore.DEClash>
0.0628

> <Gold.Chemscore.DEInternal>
2.1511

> <Gold.Chemscore.Rot>
3.9343

> <Gold.Chemscore.Internal.Correction>
   9.000000E+99

> <Gold.Chemscore.Hbonds>
donor molecule, donor type, donor heavy atom, donor atom, acceptor molecule, acceptor atom, score
      P1  H  6896  6909       L1    15  0.25
      P1  H 10752 10765       L1    14  0.39

> <Gold.Chemscore.Hbond.Weighted>
-4.1682

> <Gold.Chemscore.Metal.Weighted>
-0.0000

> <Gold.Chemscore.Lipo.Weighted>
-3.7601

> <Gold.Chemscore.Internal_Hbond.Weighted>
0.0000

> <Gold.Chemscore.DEClash.Weighted>
0.0628

> <Gold.Chemscore.DEInternal.Weighted>
2.1511

> <Gold.Chemscore.Rot.Weighted>
10.0717

> <Gold.Chemscore.Internal.Correction.Weighted>
   9.000000E+99

> <Gold.Protein.RotatedTorsions>
[ 6907 6896 6895 6894 ] final  111.84 input  -60.11 | X-H torsion
[ 7974 7965 7964 7962 ] final  -79.90 input  175.53 | X-H torsion
[ 8008 7997 7996 7995 ] final   39.88 input   59.86 | X-H torsion
[ 10167 10162 10161 10158 ] final -108.14 input  -65.29 | X-H torsion
[ 10718 10713 10712 10709 ] final -153.68 input   66.30 | X-H torsion
[ 10763 10752 10751 10750 ] final -125.68 input  -60.55 | X-H torsion
[ 11005 11000 10999 10996 ] final  160.78 input  -57.11 | X-H torsion

> <Gold.Protein.ActiveResidues>
 VAL166  LYS551  ARG553  GLY616  TRP617  ASP618  TYR619  PRO620  LYS621  CYS622 
 ASP623  PHE694  ASN695  SER759  ASP760  ASP761  ALA762  ILE779  LEU786  VAL792 
 PHE793  MET794  SER795  GLU796  ALA797  LYS798  CYS799  TRP800  GLU811  SER814 

> <Gold.Protein.RotatedAtoms>
  152.4948  133.8601  159.7245 H   0  0  0  0  0  0  0  0  0  0  0  0  # atno 6907 bound_to 6896
  150.9115  133.6983  159.2860 H   0  0  0  0  0  0  0  0  0  0  0  0  # atno 6908 bound_to 6896
  151.4391  135.1022  159.9717 H   0  0  0  0  0  0  0  0  0  0  0  0  # atno 6909 bound_to 6896
  145.5670  140.9472  143.1416 H   0  0  0  0  0  0  0  0  0  0  0  0  # atno 7974 bound_to 7965
  155.2440  140.3347  155.4289 H   0  0  0  0  0  0  0  0  0  0  0  0  # atno 8008 bound_to 7997
  156.2244  140.1823  156.7444 H   0  0  0  0  0  0  0  0  0  0  0  0  # atno 8009 bound_to 7997
  154.5875  140.0643  156.9177 H   0  0  0  0  0  0  0  0  0  0  0  0  # atno 8010 bound_to 7997
  140.1694  143.4055  152.1366 H   0  0  0  0  0  0  0  0  0  0  0  0  # atno 10167 bound_to 10162
  156.4891  130.8339  151.2563 H   0  0  0  0  0  0  0  0  0  0  0  0  # atno 10718 bound_to 10713
  154.8738  135.4021  154.3308 H   0  0  0  0  0  0  0  0  0  0  0  0  # atno 10763 bound_to 10752
  153.4122  135.7021  153.6357 H   0  0  0  0  0  0  0  0  0  0  0  0  # atno 10764 bound_to 10752
  153.5055  135.3718  155.2531 H   0  0  0  0  0  0  0  0  0  0  0  0  # atno 10765 bound_to 10752
  140.2093  134.8279  157.3103 H   0  0  0  0  0  0  0  0  0  0  0  0  # atno 11005 bound_to 11000
  144.7455  139.7331  143.7294 LP  0  0  0  0  0  0  0  0  0  0  0  0  # atno 17320 bound_to 7965
  146.1811  139.5004  142.9866 LP  0  0  0  0  0  0  0  0  0  0  0  0  # atno 17321 bound_to 7965
  139.5345  144.7195  151.4941 LP  0  0  0  0  0  0  0  0  0  0  0  0  # atno 17342 bound_to 10162
  140.6592  143.8534  150.6869 LP  0  0  0  0  0  0  0  0  0  0  0  0  # atno 17343 bound_to 10162
  157.7475  131.0019  150.2982 LP  0  0  0  0  0  0  0  0  0  0  0  0  # atno 17370 bound_to 10713
  156.3445  130.3821  149.7381 LP  0  0  0  0  0  0  0  0  0  0  0  0  # atno 17371 bound_to 10713
  140.1968  134.4304  155.7685 LP  0  0  0  0  0  0  0  0  0  0  0  0  # atno 17394 bound_to 11000
  141.2226  133.7053  156.8118 LP  0  0  0  0  0  0  0  0  0  0  0  0  # atno 17395 bound_to 11000

$$$$
