AV-unprocessed.smi:309|AV-procd|sdf|2293|dock2
  -GOLD-   2262022193D 1   1.00000     0.00000
 Structure written by MMmdl.
 37 39  0  0  0  0  0  0  0  0  2 V2000
  151.5016  136.5385  154.0153 O   0  0  0  0  0  0  0  0  0  0  0  0
  151.7412  137.8027  154.5917 C   0  0  0  0  0  0  0  0  0  0  0  0
  150.5959  138.7416  154.3952 C   0  0  0  0  0  0  0  0  0  0  0  0
  149.5209  138.5063  153.5919 N   0  3  0  0  0  0  0  0  0  0  0  0
  148.6436  139.5883  153.6437 C   0  0  0  0  0  0  0  0  0  0  0  0
  147.4257  139.8019  153.0055 C   0  0  0  0  0  0  0  0  0  0  0  0
  146.7749  141.0231  153.2763 C   0  0  0  0  0  0  0  0  0  0  0  0
  147.3389  141.9767  154.1479 C   0  0  0  0  0  0  0  0  0  0  0  0
  148.5763  141.7499  154.7854 C   0  0  0  0  0  0  0  0  0  0  0  0
  149.2116  140.5359  154.5195 C   0  0  0  0  0  0  0  0  0  0  0  0
  150.4098  139.9661  154.9729 N   0  0  0  0  0  0  0  0  0  0  0  0
  151.2452  140.7086  155.9376 C   0  0  0  0  0  0  0  0  0  0  0  0
  150.9304  140.3887  157.4181 C   0  0  2  0  0  0  0  0  0  0  0  0
  149.5375  140.4864  157.6455 O   0  0  0  0  0  0  0  0  0  0  0  0
  151.7532  141.2348  158.3897 C   0  0  0  0  0  0  0  0  0  0  0  0
  151.6354  142.6446  158.3706 C   0  0  0  0  0  0  0  0  0  0  0  0
  152.4123  143.4426  159.2308 C   0  0  0  0  0  0  0  0  0  0  0  0
  152.2706  145.1607  159.1733 Cl  0  0  0  0  0  0  0  0  0  0  0  0
  153.3101  142.8390  160.1294 C   0  0  0  0  0  0  0  0  0  0  0  0
  153.4349  141.4379  160.1590 C   0  0  0  0  0  0  0  0  0  0  0  0
  152.6671  140.6345  159.2924 C   0  0  0  0  0  0  0  0  0  0  0  0
  152.8902  138.9211  159.3470 Cl  0  0  0  0  0  0  0  0  0  0  0  0
  151.4897  136.6391  153.0752 H   0  0  0  0  0  0  0  0  0  0  0  0
  151.9528  137.6773  155.6529 H   0  0  0  0  0  0  0  0  0  0  0  0
  152.6345  138.2321  154.1377 H   0  0  0  0  0  0  0  0  0  0  0  0
  146.9926  139.0727  152.3365 H   0  0  0  0  0  0  0  0  0  0  0  0
  145.8252  141.2325  152.8058 H   0  0  0  0  0  0  0  0  0  0  0  0
  146.8118  142.9016  154.3322 H   0  0  0  0  0  0  0  0  0  0  0  0
  148.9928  142.4892  155.4527 H   0  0  0  0  0  0  0  0  0  0  0  0
  152.2851  140.4644  155.7216 H   0  0  0  0  0  0  0  0  0  0  0  0
  151.1548  141.7772  155.7424 H   0  0  0  0  0  0  0  0  0  0  0  0
  151.1654  139.3395  157.5945 H   0  0  0  0  0  0  0  0  0  0  0  0
  149.2017  139.6199  157.8189 H   0  0  0  0  0  0  0  0  0  0  0  0
  150.9605  143.1264  157.6782 H   0  0  0  0  0  0  0  0  0  0  0  0
  153.9073  143.4482  160.7920 H   0  0  0  0  0  0  0  0  0  0  0  0
  154.1304  140.9781  160.8460 H   0  0  0  0  0  0  0  0  0  0  0  0
  149.3990  137.6603  153.0502 H   0  0  0  0  0  0  0  0  0  0  0  0
  1  2  1  0  0  0  0
  1 23  1  0  0  0  0
  2  3  1  0  0  0  0
  2 24  1  0  0  0  0
  2 25  1  0  0  0  0
  3 11  1  0  0  0  0
  3  4  2  0  0  0  0
  4  5  1  0  0  0  0
  4 37  1  0  0  0  0
  5 10  2  0  0  0  0
  5  6  1  0  0  0  0
  6  7  2  0  0  0  0
  6 26  1  0  0  0  0
  7  8  1  0  0  0  0
  7 27  1  0  0  0  0
  8  9  2  0  0  0  0
  8 28  1  0  0  0  0
  9 10  1  0  0  0  0
  9 29  1  0  0  0  0
 10 11  1  0  0  0  0
 11 12  1  0  0  0  0
 12 13  1  0  0  0  0
 12 30  1  0  0  0  0
 12 31  1  0  0  0  0
 13 14  1  0  0  0  0
 13 15  1  0  0  0  0
 13 32  1  0  0  0  0
 14 33  1  0  0  0  0
 15 21  1  0  0  0  0
 15 16  2  0  0  0  0
 16 17  1  0  0  0  0
 16 34  1  0  0  0  0
 17 18  1  0  0  0  0
 17 19  2  0  0  0  0
 19 20  1  0  0  0  0
 19 35  1  0  0  0  0
 20 21  2  0  0  0  0
 20 36  1  0  0  0  0
 21 22  1  0  0  0  0
M  CHG  1   4   1
M  END
> <s_m_source_file>
AV-unprocessed.smi

> <i_m_source_file_index>
309

> <i_lp_mmshare_version>
43012

> <i_f3d_flags>
0

> <s_epik_input>
W2NIXTFbY0hdW2NIXVtjSF1jKGMxMiluKGMobjIpW0NIMl1bT0hdKVtDSDJdW0NASF0oW09IXSljM1tjSF1jKENsKVtjSF1bY0hdYzNDbA==

> <s_epik_cmdline>
J2VwaWtfcHl0aG9uJywgJy1waCcsICc3LjAnLCAnLXRuJywgJzgnLCAnLW1hJywgJzIwMCcsICctbWV0YWxfYmluZGluZycsICctaW1hZScsICc8aW5maWxlLm1hZT4nLCAnLW9tYWUnLCAnPG91dGZpbGUubWFlPic=

> <r_epik_Ionization_Penalty>
1.35643

> <r_epik_Ionization_Penalty_Charging>
1.35557

> <r_epik_Ionization_Penalty_Neutral>
0.000861512

> <r_epik_State_Penalty>
1.43401

> <r_epik_Charging_Adjusted_Penalty>
2.78958

> <i_epik_Tot_Q>
1

> <i_epik_Tot_abs_Q>
1

> <r_epik_Metal_State_Penalty>
5.47166

> <b_epik_Metal_Only>
0

> <s_lp_Force_Field>
OPLS_2005

> <r_lp_Energy>
13.7118

> <b_lp_Chiralities_Consistent>
1

> <s_lp_Variant>
AV-unprocessed.smi:309-3

> <Gold.Version>
5.8.1

> <Gold.Id.Protein>
6NUR|6NUR_protein|mol2

> <Gold.PLP.Fitness>
64.6883

> <Gold.PLP.PLP>
-53.6435

> <Gold.PLP.part.hbond>
-4.0000

> <Gold.PLP.part.metal>
0.0000

> <Gold.PLP.part.buried>
1.6100

> <Gold.PLP.part.nonpolar>
-51.1697

> <Gold.PLP.part.repulsive>
0.0712

> <Gold.PLP.ligand.clash>
0.0000

> <Gold.PLP.ligand.torsion>
0.5058

> <Gold.PLP.Chemscore.Hbond>
4.0000

> <Gold.PLP.Chemscore.CHOScore>
0.0000

> <Gold.PLP.Chemscore.Metal>
0.0000

> <Gold.Chemscore.Hbonds>
donor molecule, donor type, donor heavy atom, donor atom, acceptor molecule, acceptor atom, score
      L1  H     1    23       P1  7949  0.99
      L1  H     4    37       P1  7948  2.00
      P1  H 10752 10765       L1     1  1.00

> <Gold.PLP.Chemscore.Internal.Correction>
0.0565

> <Gold.Rescore>
     Score         DG    S(hbond)    S(metal)    S(lipo)     H(rot)  DE(clash)    DE(int)     intcor
     21.73     -23.57       2.53        0.00     141.33       2.70       1.43       0.42       ----

> <Gold.Chemscore.Fitness>
21.7258

> <Gold.Chemscore.DG>
-23.5721

> <Gold.Chemscore.ZeroCoef>
-5.4800

> <Gold.Chemscore.Hbond>
2.5326

> <Gold.Chemscore.Metal>
0.0000

> <Gold.Chemscore.Lipo>
141.3309

> <Gold.Chemscore.Internal_Hbond>
0.0000

> <Gold.Chemscore.DEClash>
1.4270

> <Gold.Chemscore.DEInternal>
0.4193

> <Gold.Chemscore.Rot>
2.6963

> <Gold.Chemscore.Internal.Correction>
   9.000000E+99

> <Gold.Chemscore.Hbonds>
donor molecule, donor type, donor heavy atom, donor atom, acceptor molecule, acceptor atom, score
      L1  H     1    23       P1  7949  0.86
      L1  H     4    37       P1  7948  0.93
      P1  H 10752 10765       L1     1  0.26

> <Gold.Chemscore.Hbond.Weighted>
-8.4588

> <Gold.Chemscore.Metal.Weighted>
-0.0000

> <Gold.Chemscore.Lipo.Weighted>
-16.5357

> <Gold.Chemscore.Internal_Hbond.Weighted>
0.0000

> <Gold.Chemscore.DEClash.Weighted>
1.4270

> <Gold.Chemscore.DEInternal.Weighted>
0.4193

> <Gold.Chemscore.Rot.Weighted>
6.9024

> <Gold.Chemscore.Internal.Correction.Weighted>
   9.000000E+99

> <Gold.Protein.RotatedTorsions>
[ 6907 6896 6895 6894 ] final  -56.49 input  -60.11 | X-H torsion
[ 7974 7965 7964 7962 ] final -156.80 input  175.53 | X-H torsion
[ 8008 7997 7996 7995 ] final  -85.75 input   59.86 | X-H torsion
[ 10167 10162 10161 10158 ] final  -88.58 input  -65.29 | X-H torsion
[ 10718 10713 10712 10709 ] final -170.40 input   66.30 | X-H torsion
[ 10763 10752 10751 10750 ] final  171.71 input  -60.55 | X-H torsion
[ 11005 11000 10999 10996 ] final  -34.07 input  -57.11 | X-H torsion

> <Gold.Protein.ActiveResidues>
 VAL166  LYS551  ARG553  GLY616  TRP617  ASP618  TYR619  PRO620  LYS621  CYS622 
 ASP623  PHE694  ASN695  SER759  ASP760  ASP761  ALA762  ILE779  LEU786  VAL792 
 PHE793  MET794  SER795  GLU796  ALA797  LYS798  CYS799  TRP800  GLU811  SER814 

> <Gold.Protein.RotatedAtoms>
  150.8163  134.7347  159.6732 H   0  0  0  0  0  0  0  0  0  0  0  0  # atno 6907 bound_to 6896
  152.4281  134.5826  159.9962 H   0  0  0  0  0  0  0  0  0  0  0  0  # atno 6908 bound_to 6896
  151.6022  133.3318  159.3086 H   0  0  0  0  0  0  0  0  0  0  0  0  # atno 6909 bound_to 6896
  144.7576  140.4058  143.6000 H   0  0  0  0  0  0  0  0  0  0  0  0  # atno 7974 bound_to 7965
  154.6442  140.0587  156.9881 H   0  0  0  0  0  0  0  0  0  0  0  0  # atno 8008 bound_to 7997
  155.1470  140.3270  155.4421 H   0  0  0  0  0  0  0  0  0  0  0  0  # atno 8009 bound_to 7997
  156.2545  140.1954  156.6583 H   0  0  0  0  0  0  0  0  0  0  0  0  # atno 8010 bound_to 7997
  140.3732  143.2784  151.9474 H   0  0  0  0  0  0  0  0  0  0  0  0  # atno 10167 bound_to 10162
  156.7257  130.9287  151.3101 H   0  0  0  0  0  0  0  0  0  0  0  0  # atno 10718 bound_to 10713
  154.4158  135.2757  155.2007 H   0  0  0  0  0  0  0  0  0  0  0  0  # atno 10763 bound_to 10752
  154.3974  135.6052  153.5881 H   0  0  0  0  0  0  0  0  0  0  0  0  # atno 10764 bound_to 10752
  152.9832  135.5918  154.4446 H   0  0  0  0  0  0  0  0  0  0  0  0  # atno 10765 bound_to 10752
  140.9687  133.7122  156.1487 H   0  0  0  0  0  0  0  0  0  0  0  0  # atno 11005 bound_to 11000
  145.6725  139.1602  143.2746 LP  0  0  0  0  0  0  0  0  0  0  0  0  # atno 17320 bound_to 7965
  146.1605  140.6795  142.9280 LP  0  0  0  0  0  0  0  0  0  0  0  0  # atno 17321 bound_to 7965
  139.4802  144.5887  151.7809 LP  0  0  0  0  0  0  0  0  0  0  0  0  # atno 17342 bound_to 10162
  140.5012  144.1166  150.5971 LP  0  0  0  0  0  0  0  0  0  0  0  0  # atno 17343 bound_to 10162
  157.6880  130.9204  150.0437 LP  0  0  0  0  0  0  0  0  0  0  0  0  # atno 17370 bound_to 10713
  156.1564  130.3643  149.9363 LP  0  0  0  0  0  0  0  0  0  0  0  0  # atno 17371 bound_to 10713
  140.7362  134.4201  157.5560 LP  0  0  0  0  0  0  0  0  0  0  0  0  # atno 17394 bound_to 11000
  139.8904  134.8806  156.2372 LP  0  0  0  0  0  0  0  0  0  0  0  0  # atno 17395 bound_to 11000

$$$$
