AV-unprocessed.smi:1598|AV-procd|sdf|6422|dock10
  -GOLD-   22720 7 63D 1   1.00000     0.00000
 Structure written by MMmdl.
 39 39  0  0  0  0  0  0  0  0  1 V2000
  147.0515  137.3930  163.1615 C   0  0  0  0  0  0  0  0  0  0  0  0
  147.6770  137.1955  161.9057 O   0  0  0  0  0  0  0  0  0  0  0  0
  147.1811  136.0546  161.2251 C   0  0  0  0  0  0  0  0  0  0  0  0
  148.0663  135.7595  160.0043 C   0  0  1  0  0  0  0  0  0  0  0  0
  147.3430  134.8892  158.9627 C   0  0  0  0  0  0  0  0  0  0  0  0
  148.4777  137.0224  159.4007 N   0  0  0  0  0  0  0  0  0  0  0  0
  149.5784  137.2168  158.6539 C   0  0  0  0  0  0  0  0  0  0  0  0
  150.3717  136.3149  158.3878 O   0  0  0  0  0  0  0  0  0  0  0  0
  149.8461  138.6328  158.1080 C   0  0  0  0  0  0  0  0  0  0  0  0
  149.4116  138.8669  156.7053 N   0  0  0  0  0  0  0  0  0  0  0  0
  150.3867  139.0510  155.6748 C   0  0  0  0  0  0  0  0  0  0  0  0
  151.8794  138.9436  156.0193 C   0  0  0  0  0  0  0  0  0  0  0  0
  152.6365  139.0887  154.9308 F   0  0  0  0  0  0  0  0  0  0  0  0
  152.2393  139.9038  156.8715 F   0  0  0  0  0  0  0  0  0  0  0  0
  152.1883  137.7560  156.5390 F   0  0  0  0  0  0  0  0  0  0  0  0
  149.9881  139.2792  154.4098 C   0  0  0  0  0  0  0  0  0  0  0  0
  148.5882  139.3467  154.0933 C   0  0  0  0  0  0  0  0  0  0  0  0
  147.6534  139.1695  155.0542 C   0  0  0  0  0  0  0  0  0  0  0  0
  146.1997  139.2261  154.7765 C   0  0  0  0  0  0  0  0  0  0  0  0
  145.8926  139.4551  153.4934 N   0  0  0  0  0  0  0  0  0  0  0  0
  145.2845  139.0844  155.5872 O   0  0  0  0  0  0  0  0  0  0  0  0
  148.0565  138.9079  156.4600 C   0  0  0  0  0  0  0  0  0  0  0  0
  147.2561  138.7247  157.3821 O   0  0  0  0  0  0  0  0  0  0  0  0
  147.4645  138.2807  163.6403 H   0  0  0  0  0  0  0  0  0  0  0  0
  147.2213  136.5434  163.8242 H   0  0  0  0  0  0  0  0  0  0  0  0
  145.9768  137.5410  163.0484 H   0  0  0  0  0  0  0  0  0  0  0  0
  147.1584  135.1933  161.8953 H   0  0  0  0  0  0  0  0  0  0  0  0
  146.1554  136.2447  160.9035 H   0  0  0  0  0  0  0  0  0  0  0  0
  148.9544  135.2293  160.3534 H   0  0  0  0  0  0  0  0  0  0  0  0
  147.0368  133.9350  159.3916 H   0  0  0  0  0  0  0  0  0  0  0  0
  147.9896  134.6714  158.1121 H   0  0  0  0  0  0  0  0  0  0  0  0
  146.4492  135.3851  158.5831 H   0  0  0  0  0  0  0  0  0  0  0  0
  147.8796  137.8175  159.5709 H   0  0  0  0  0  0  0  0  0  0  0  0
  149.3564  139.3425  158.7776 H   0  0  0  0  0  0  0  0  0  0  0  0
  150.8970  138.8574  158.2629 H   0  0  0  0  0  0  0  0  0  0  0  0
  150.7065  139.4103  153.6142 H   0  0  0  0  0  0  0  0  0  0  0  0
  148.3246  139.5421  153.0645 H   0  0  0  0  0  0  0  0  0  0  0  0
  144.9268  139.5110  153.2055 H   0  0  0  0  0  0  0  0  0  0  0  0
  146.6330  139.5712  152.8167 H   0  0  0  0  0  0  0  0  0  0  0  0
  1  2  1  0  0  0  0
  1 24  1  0  0  0  0
  1 25  1  0  0  0  0
  1 26  1  0  0  0  0
  2  3  1  0  0  0  0
  3  4  1  0  0  0  0
  3 27  1  0  0  0  0
  3 28  1  0  0  0  0
  4  5  1  0  0  0  0
  4  6  1  0  0  0  0
  4 29  1  0  0  0  0
  5 30  1  0  0  0  0
  5 31  1  0  0  0  0
  5 32  1  0  0  0  0
  6  7  1  0  0  0  0
  6 33  1  0  0  0  0
  7  8  2  0  0  0  0
  7  9  1  0  0  0  0
  9 10  1  0  0  0  0
  9 34  1  0  0  0  0
  9 35  1  0  0  0  0
 10 22  1  0  0  0  0
 10 11  1  0  0  0  0
 11 12  1  0  0  0  0
 11 16  2  0  0  0  0
 12 13  1  0  0  0  0
 12 14  1  0  0  0  0
 12 15  1  0  0  0  0
 16 17  1  0  0  0  0
 16 36  1  0  0  0  0
 17 18  2  0  0  0  0
 17 37  1  0  0  0  0
 18 19  1  0  0  0  0
 18 22  1  0  0  0  0
 19 20  1  0  0  0  0
 19 21  2  0  0  0  0
 20 38  1  0  0  0  0
 20 39  1  0  0  0  0
 22 23  2  0  0  0  0
M  END
> <s_m_source_file>
AV-unprocessed.smi

> <i_m_source_file_index>
1598

> <i_lp_mmshare_version>
43012

> <i_f3d_flags>
0

> <s_epik_input>
W0NIM11PW0NIMl1bQ0BIXShbQ0gzXSlbTkhdQyg9TylbQ0gyXW4xYyhDKEYpKEYpRilbY0hdW2NIXWMoYzE9TylDKD1PKVtOSDJd

> <s_epik_cmdline>
J2VwaWtfcHl0aG9uJywgJy1waCcsICc3LjAnLCAnLXRuJywgJzgnLCAnLW1hJywgJzIwMCcsICctbWV0YWxfYmluZGluZycsICctaW1hZScsICc8aW5maWxlLm1hZT4nLCAnLW9tYWUnLCAnPG91dGZpbGUubWFlPic=

> <r_lp_tautomer_probability>
1

> <r_epik_Ionization_Penalty>
2.07884e-06

> <r_epik_Ionization_Penalty_Charging>
8.00383e-10

> <r_epik_Ionization_Penalty_Neutral>
2.07804e-06

> <r_epik_State_Penalty>
-0

> <r_epik_Charging_Adjusted_Penalty>
8.00383e-10

> <i_epik_Tot_Q>
0

> <i_epik_Tot_abs_Q>
0

> <r_epik_Metal_State_Penalty>
-0

> <b_epik_Metal_Only>
0

> <s_lp_Force_Field>
OPLS_2005

> <r_lp_Energy>
25.2492

> <b_lp_Chiralities_Consistent>
1

> <s_lp_Variant>
AV-unprocessed.smi:1598-2

> <Gold.Version>
5.8.1

> <Gold.Id.Protein>
6NUR|6NUR_protein|mol2

> <Gold.PLP.Fitness>
37.0752

> <Gold.PLP.PLP>
-28.5402

> <Gold.PLP.part.hbond>
-4.0000

> <Gold.PLP.part.metal>
0.0000

> <Gold.PLP.part.buried>
-1.3955

> <Gold.PLP.part.nonpolar>
-22.3591

> <Gold.PLP.part.repulsive>
0.2633

> <Gold.PLP.ligand.clash>
3.8768

> <Gold.PLP.ligand.torsion>
0.9829

> <Gold.PLP.Chemscore.Hbond>
3.4503

> <Gold.PLP.Chemscore.CHOScore>
0.0000

> <Gold.PLP.Chemscore.Metal>
0.0000

> <Gold.Chemscore.Hbonds>
donor molecule, donor type, donor heavy atom, donor atom, acceptor molecule, acceptor atom, score
      L1  H    20    38       P1 10175  0.94
      P1  H  6896  6909       L1     8  0.93
      P1  H  6931  6943       L1     2  1.00
      P1  H  6934  6947       L1     2  0.51

> <Gold.PLP.Chemscore.Internal.Correction>
4.0265

> <Gold.Rescore>
     Score         DG    S(hbond)    S(metal)    S(lipo)     H(rot)  DE(clash)    DE(int)     intcor
      8.20     -14.72       2.89        0.00      49.59       2.43       0.18       6.35       ----

> <Gold.Chemscore.Fitness>
8.1979

> <Gold.Chemscore.DG>
-14.7235

> <Gold.Chemscore.ZeroCoef>
-5.4800

> <Gold.Chemscore.Hbond>
2.8919

> <Gold.Chemscore.Metal>
0.0000

> <Gold.Chemscore.Lipo>
49.5932

> <Gold.Chemscore.Internal_Hbond>
0.0000

> <Gold.Chemscore.DEClash>
0.1800

> <Gold.Chemscore.DEInternal>
6.3456

> <Gold.Chemscore.Rot>
2.4289

> <Gold.Chemscore.Internal.Correction>
   9.000000E+99

> <Gold.Chemscore.Hbonds>
donor molecule, donor type, donor heavy atom, donor atom, acceptor molecule, acceptor atom, score
      L1  H    20    38       P1 10175  0.91
      P1  H  6896  6909       L1     8  0.85
      P1  H  6931  6943       L1     2  0.42
      P1  H  6934  6947       L1     2  0.11

> <Gold.Chemscore.Hbond.Weighted>
-9.6591

> <Gold.Chemscore.Metal.Weighted>
-0.0000

> <Gold.Chemscore.Lipo.Weighted>
-5.8024

> <Gold.Chemscore.Internal_Hbond.Weighted>
0.0000

> <Gold.Chemscore.DEClash.Weighted>
0.1800

> <Gold.Chemscore.DEInternal.Weighted>
6.3456

> <Gold.Chemscore.Rot.Weighted>
6.2180

> <Gold.Chemscore.Internal.Correction.Weighted>
   9.000000E+99

> <Gold.Protein.RotatedTorsions>
[ 6907 6896 6895 6894 ] final   71.75 input  -60.11 | X-H torsion
[ 7974 7965 7964 7962 ] final  -53.74 input  175.53 | X-H torsion
[ 8008 7997 7996 7995 ] final  -90.92 input   59.86 | X-H torsion
[ 10167 10162 10161 10158 ] final   47.09 input  -65.29 | X-H torsion
[ 10718 10713 10712 10709 ] final  -64.31 input   66.30 | X-H torsion
[ 10763 10752 10751 10750 ] final  -48.23 input  -60.55 | X-H torsion
[ 11005 11000 10999 10996 ] final  -40.48 input  -57.11 | X-H torsion

> <Gold.Protein.ActiveResidues>
 VAL166  LYS551  ARG553  GLY616  TRP617  ASP618  TYR619  PRO620  LYS621  CYS622 
 ASP623  PHE694  ASN695  SER759  ASP760  ASP761  ALA762  ILE779  LEU786  VAL792 
 PHE793  MET794  SER795  GLU796  ALA797  LYS798  CYS799  TRP800  GLU811  SER814 

> <Gold.Protein.RotatedAtoms>
  152.4828  134.4674  159.9624 H   0  0  0  0  0  0  0  0  0  0  0  0  # atno 6907 bound_to 6896
  151.4677  133.3571  159.2826 H   0  0  0  0  0  0  0  0  0  0  0  0  # atno 6908 bound_to 6896
  150.8914  134.8343  159.7356 H   0  0  0  0  0  0  0  0  0  0  0  0  # atno 6909 bound_to 6896
  145.8934  140.8052  142.9780 H   0  0  0  0  0  0  0  0  0  0  0  0  # atno 7974 bound_to 7965
  154.7044  140.0525  157.0490 H   0  0  0  0  0  0  0  0  0  0  0  0  # atno 8008 bound_to 7997
  155.0640  140.3192  155.4632 H   0  0  0  0  0  0  0  0  0  0  0  0  # atno 8009 bound_to 7997
  156.2770  140.2094  156.5767 H   0  0  0  0  0  0  0  0  0  0  0  0  # atno 8010 bound_to 7997
  140.3072  144.2863  150.6207 H   0  0  0  0  0  0  0  0  0  0  0  0  # atno 10167 bound_to 10162
  156.0737  130.4232  150.1401 H   0  0  0  0  0  0  0  0  0  0  0  0  # atno 10718 bound_to 10713
  154.0743  135.6600  153.4828 H   0  0  0  0  0  0  0  0  0  0  0  0  # atno 10763 bound_to 10752
  153.0379  135.5165  154.7536 H   0  0  0  0  0  0  0  0  0  0  0  0  # atno 10764 bound_to 10752
  154.6611  135.3015  154.9832 H   0  0  0  0  0  0  0  0  0  0  0  0  # atno 10765 bound_to 10752
  141.0178  133.6877  156.2327 H   0  0  0  0  0  0  0  0  0  0  0  0  # atno 11005 bound_to 11000
  144.6731  140.1565  143.7426 LP  0  0  0  0  0  0  0  0  0  0  0  0  # atno 17320 bound_to 7965
  145.8880  139.2360  143.1566 LP  0  0  0  0  0  0  0  0  0  0  0  0  # atno 17321 bound_to 7965
  140.5600  143.2193  151.7782 LP  0  0  0  0  0  0  0  0  0  0  0  0  # atno 17342 bound_to 10162
  139.4901  144.4362  151.9816 LP  0  0  0  0  0  0  0  0  0  0  0  0  # atno 17343 bound_to 10162
  156.9447  130.9756  151.3509 LP  0  0  0  0  0  0  0  0  0  0  0  0  # atno 17370 bound_to 10713
  157.5821  130.8384  149.8538 LP  0  0  0  0  0  0  0  0  0  0  0  0  # atno 17371 bound_to 10713
  140.6625  134.4952  157.5584 LP  0  0  0  0  0  0  0  0  0  0  0  0  # atno 17394 bound_to 11000
  139.9127  134.8310  156.1471 LP  0  0  0  0  0  0  0  0  0  0  0  0  # atno 17395 bound_to 11000

$$$$
