AV-unprocessed.smi:2087|AV-procd|sdf|8524|dock6
  -GOLD-   2272011243D 1   1.00000     0.00000
 Structure written by MMmdl.
 50 51  0  0  0  0  0  0  0  0  1 V2000
  151.9464  144.3360  157.4236 C   0  0  0  0  0  0  0  0  0  0  0  0
  151.4383  143.6679  158.7095 C   0  0  0  0  0  0  0  0  0  0  0  0
  152.2450  144.1565  159.9237 C   0  0  0  0  0  0  0  0  0  0  0  0
  151.4832  142.1307  158.5714 C   0  0  0  0  0  0  0  0  0  0  0  0
  150.4914  141.5418  157.6701 N   0  0  0  0  0  0  0  0  0  0  0  0
  150.8799  141.6274  156.2641 C   0  0  0  0  0  0  0  0  0  0  0  0
  149.8294  140.9880  155.3400 C   0  0  0  0  0  0  0  0  0  0  0  0
  149.6039  139.6366  155.7264 O   0  0  0  0  0  0  0  0  0  0  0  0
  149.1865  139.5046  157.0833 C   0  0  1  0  0  0  0  0  0  0  0  0
  148.9126  138.0198  157.3915 C   0  0  0  0  0  0  0  0  0  0  0  0
  148.7612  137.7585  158.8204 N   0  0  0  0  0  0  0  0  0  0  0  0
  148.8772  136.5564  159.4045 C   0  0  0  0  0  0  0  0  0  0  0  0
  149.1264  135.5232  158.7814 O   0  0  0  0  0  0  0  0  0  0  0  0
  148.7066  136.5309  160.9296 C   0  0  0  0  0  0  0  0  0  0  0  0
  147.4500  135.9026  161.3574 N   0  0  0  0  0  0  0  0  0  0  0  0
  147.4658  134.6189  161.8717 C   0  0  0  0  0  0  0  0  0  0  0  0
  146.3549  133.9651  162.2766 C   0  0  0  0  0  0  0  0  0  0  0  0
  145.0418  134.5937  162.1921 C   0  0  0  0  0  0  0  0  0  0  0  0
  144.0068  134.0320  162.5524 O   0  0  0  0  0  0  0  0  0  0  0  0
  145.0550  135.9065  161.6606 N   0  0  0  0  0  0  0  0  0  0  0  0
  143.8073  136.6296  161.5276 C   0  0  0  0  0  0  0  0  0  0  0  0
  146.2197  136.5835  161.2378 C   0  0  0  0  0  0  0  0  0  0  0  0
  146.1743  137.7277  160.7786 O   0  0  0  0  0  0  0  0  0  0  0  0
  150.2462  140.1439  158.0062 C   0  0  0  0  0  0  0  0  0  0  0  0
  152.9865  144.0750  157.2250 H   0  0  0  0  0  0  0  0  0  0  0  0
  151.8839  145.4224  157.4936 H   0  0  0  0  0  0  0  0  0  0  0  0
  151.3551  144.0291  156.5603 H   0  0  0  0  0  0  0  0  0  0  0  0
  150.4049  143.9880  158.8388 H   0  0  0  0  0  0  0  0  0  0  0  0
  153.2920  143.8621  159.8482 H   0  0  0  0  0  0  0  0  0  0  0  0
  151.8502  143.7463  160.8536 H   0  0  0  0  0  0  0  0  0  0  0  0
  152.2093  145.2430  160.0079 H   0  0  0  0  0  0  0  0  0  0  0  0
  152.4814  141.8269  158.2523 H   0  0  0  0  0  0  0  0  0  0  0  0
  151.3508  141.7059  159.5676 H   0  0  0  0  0  0  0  0  0  0  0  0
  151.0115  142.6669  155.9670 H   0  0  0  0  0  0  0  0  0  0  0  0
  151.8415  141.1340  156.1144 H   0  0  0  0  0  0  0  0  0  0  0  0
  148.8919  141.5447  155.3798 H   0  0  0  0  0  0  0  0  0  0  0  0
  150.1712  141.0095  154.3051 H   0  0  0  0  0  0  0  0  0  0  0  0
  148.2461  140.0463  157.2002 H   0  0  0  0  0  0  0  0  0  0  0  0
  147.9873  137.7149  156.9024 H   0  0  0  0  0  0  0  0  0  0  0  0
  149.6988  137.3943  156.9651 H   0  0  0  0  0  0  0  0  0  0  0  0
  148.5590  138.5533  159.4095 H   0  0  0  0  0  0  0  0  0  0  0  0
  149.5541  135.9926  161.3565 H   0  0  0  0  0  0  0  0  0  0  0  0
  148.7730  137.5457  161.3261 H   0  0  0  0  0  0  0  0  0  0  0  0
  148.4144  134.1080  161.9514 H   0  0  0  0  0  0  0  0  0  0  0  0
  146.4390  132.9618  162.6677 H   0  0  0  0  0  0  0  0  0  0  0  0
  143.8935  137.5354  162.1307 H   0  0  0  0  0  0  0  0  0  0  0  0
  142.9629  136.0352  161.8746 H   0  0  0  0  0  0  0  0  0  0  0  0
  143.6824  136.8659  160.4694 H   0  0  0  0  0  0  0  0  0  0  0  0
  151.1811  139.5853  157.9394 H   0  0  0  0  0  0  0  0  0  0  0  0
  149.9120  140.0678  159.0416 H   0  0  0  0  0  0  0  0  0  0  0  0
  1  2  1  0  0  0  0
  1 25  1  0  0  0  0
  1 26  1  0  0  0  0
  1 27  1  0  0  0  0
  2  3  1  0  0  0  0
  2  4  1  0  0  0  0
  2 28  1  0  0  0  0
  3 29  1  0  0  0  0
  3 30  1  0  0  0  0
  3 31  1  0  0  0  0
  4  5  1  0  0  0  0
  4 32  1  0  0  0  0
  4 33  1  0  0  0  0
  5 24  1  0  0  0  0
  5  6  1  0  0  0  0
  6  7  1  0  0  0  0
  6 34  1  0  0  0  0
  6 35  1  0  0  0  0
  7  8  1  0  0  0  0
  7 36  1  0  0  0  0
  7 37  1  0  0  0  0
  8  9  1  0  0  0  0
  9 10  1  0  0  0  0
  9 24  1  0  0  0  0
  9 38  1  0  0  0  0
 10 11  1  0  0  0  0
 10 39  1  0  0  0  0
 10 40  1  0  0  0  0
 11 12  1  0  0  0  0
 11 41  1  0  0  0  0
 12 13  2  0  0  0  0
 12 14  1  0  0  0  0
 14 15  1  0  0  0  0
 14 42  1  0  0  0  0
 14 43  1  0  0  0  0
 15 22  1  0  0  0  0
 15 16  1  0  0  0  0
 16 17  2  0  0  0  0
 16 44  1  0  0  0  0
 17 18  1  0  0  0  0
 17 45  1  0  0  0  0
 18 19  2  0  0  0  0
 18 20  1  0  0  0  0
 20 21  1  0  0  0  0
 20 22  1  0  0  0  0
 21 46  1  0  0  0  0
 21 47  1  0  0  0  0
 21 48  1  0  0  0  0
 22 23  2  0  0  0  0
 24 49  1  0  0  0  0
 24 50  1  0  0  0  0
M  END
> <s_m_source_file>
AV-unprocessed.smi

> <i_m_source_file_index>
2087

> <i_lp_mmshare_version>
43012

> <i_f3d_flags>
0

> <s_epik_input>
W0NIM11bQ0hdKFtDSDNdKVtDSDJdTjFbQ0gyXVtDSDJdT1tDQEhdKFtDSDJdMSlbQ0gyXVtOSF1DKD1PKVtDSDJdbjJbY0hdW2NIXWMoPU8pbihbQ0gzXSljMj1P

> <s_epik_cmdline>
J2VwaWtfcHl0aG9uJywgJy1waCcsICc3LjAnLCAnLXRuJywgJzgnLCAnLW1hJywgJzIwMCcsICctbWV0YWxfYmluZGluZycsICctaW1hZScsICc8aW5maWxlLm1hZT4nLCAnLW9tYWUnLCAnPG91dGZpbGUubWFlPic=

> <r_lp_tautomer_probability>
1

> <r_epik_Ionization_Penalty>
1.11669

> <r_epik_Ionization_Penalty_Charging>
1.16423e-08

> <r_epik_Ionization_Penalty_Neutral>
1.11669

> <r_epik_State_Penalty>
1.17516

> <r_epik_Charging_Adjusted_Penalty>
1.17516

> <i_epik_Tot_Q>
0

> <i_epik_Tot_abs_Q>
0

> <r_epik_Metal_State_Penalty>
1.17513

> <b_epik_Metal_Only>
0

> <s_lp_Force_Field>
OPLS_2005

> <r_lp_Energy>
34.2639

> <b_lp_Chiralities_Consistent>
1

> <s_lp_Variant>
AV-unprocessed.smi:2087-5

> <Gold.Version>
5.8.1

> <Gold.Id.Protein>
6NUR|6NUR_protein|mol2

> <Gold.PLP.Fitness>
46.1398

> <Gold.PLP.PLP>
-41.7371

> <Gold.PLP.part.hbond>
-1.9493

> <Gold.PLP.part.metal>
0.0000

> <Gold.PLP.part.buried>
-4.3602

> <Gold.PLP.part.nonpolar>
-35.3258

> <Gold.PLP.part.repulsive>
0.3639

> <Gold.PLP.ligand.clash>
0.0000

> <Gold.PLP.ligand.torsion>
0.8664

> <Gold.PLP.Chemscore.Hbond>
2.0000

> <Gold.PLP.Chemscore.CHOScore>
0.0000

> <Gold.PLP.Chemscore.Metal>
0.0000

> <Gold.Chemscore.Hbonds>
donor molecule, donor type, donor heavy atom, donor atom, acceptor molecule, acceptor atom, score
      P1  H  6896  6908       L1    13  1.00
      P1  H  6934  6947       L1    23  1.00

> <Gold.PLP.Chemscore.Internal.Correction>
0.1355

> <Gold.Rescore>
     Score         DG    S(hbond)    S(metal)    S(lipo)     H(rot)  DE(clash)    DE(int)     intcor
     15.82     -17.82       1.99        0.00      96.02       2.16       1.23       0.76       ----

> <Gold.Chemscore.Fitness>
15.8244

> <Gold.Chemscore.DG>
-17.8186

> <Gold.Chemscore.ZeroCoef>
-5.4800

> <Gold.Chemscore.Hbond>
1.9890

> <Gold.Chemscore.Metal>
0.0000

> <Gold.Chemscore.Lipo>
96.0209

> <Gold.Chemscore.Internal_Hbond>
0.0000

> <Gold.Chemscore.DEClash>
1.2316

> <Gold.Chemscore.DEInternal>
0.7625

> <Gold.Chemscore.Rot>
2.1638

> <Gold.Chemscore.Internal.Correction>
   9.000000E+99

> <Gold.Chemscore.Hbonds>
donor molecule, donor type, donor heavy atom, donor atom, acceptor molecule, acceptor atom, score
      P1  H  6896  6908       L1    13  0.59
      P1  H  6934  6947       L1    23  0.99

> <Gold.Chemscore.Hbond.Weighted>
-6.6434

> <Gold.Chemscore.Metal.Weighted>
-0.0000

> <Gold.Chemscore.Lipo.Weighted>
-11.2344

> <Gold.Chemscore.Internal_Hbond.Weighted>
0.0000

> <Gold.Chemscore.DEClash.Weighted>
1.2316

> <Gold.Chemscore.DEInternal.Weighted>
0.7625

> <Gold.Chemscore.Rot.Weighted>
5.5393

> <Gold.Chemscore.Internal.Correction.Weighted>
   9.000000E+99

> <Gold.Protein.RotatedTorsions>
[ 6907 6896 6895 6894 ] final  178.26 input  -60.11 | X-H torsion
[ 7974 7965 7964 7962 ] final  145.09 input  175.53 | X-H torsion
[ 8008 7997 7996 7995 ] final  -10.66 input   59.86 | X-H torsion
[ 10167 10162 10161 10158 ] final   91.91 input  -65.29 | X-H torsion
[ 10718 10713 10712 10709 ] final   54.32 input   66.30 | X-H torsion
[ 10763 10752 10751 10750 ] final -108.72 input  -60.55 | X-H torsion
[ 11005 11000 10999 10996 ] final -106.70 input  -57.11 | X-H torsion

> <Gold.Protein.ActiveResidues>
 VAL166  LYS551  ARG553  GLY616  TRP617  ASP618  TYR619  PRO620  LYS621  CYS622 
 ASP623  PHE694  ASN695  SER759  ASP760  ASP761  ALA762  ILE779  LEU786  VAL792 
 PHE793  MET794  SER795  GLU796  ALA797  LYS798  CYS799  TRP800  GLU811  SER814 

> <Gold.Protein.RotatedAtoms>
  151.6907  133.3311  159.3241 H   0  0  0  0  0  0  0  0  0  0  0  0  # atno 6907 bound_to 6896
  150.7780  134.6701  159.6396 H   0  0  0  0  0  0  0  0  0  0  0  0  # atno 6908 bound_to 6896
  152.3829  134.6566  160.0188 H   0  0  0  0  0  0  0  0  0  0  0  0  # atno 6909 bound_to 6896
  144.8781  139.5741  143.5855 H   0  0  0  0  0  0  0  0  0  0  0  0  # atno 7974 bound_to 7965
  154.5534  140.2323  155.8448 H   0  0  0  0  0  0  0  0  0  0  0  0  # atno 8008 bound_to 7997
  156.1967  140.3063  155.9402 H   0  0  0  0  0  0  0  0  0  0  0  0  # atno 8009 bound_to 7997
  155.3026  140.0432  157.3021 H   0  0  0  0  0  0  0  0  0  0  0  0  # atno 8010 bound_to 7997
  139.8328  144.6679  150.9378 H   0  0  0  0  0  0  0  0  0  0  0  0  # atno 10167 bound_to 10162
  157.5247  130.8589  149.8605 H   0  0  0  0  0  0  0  0  0  0  0  0  # atno 10718 bound_to 10713
  154.8152  135.4627  154.0623 H   0  0  0  0  0  0  0  0  0  0  0  0  # atno 10763 bound_to 10752
  153.2022  135.6870  153.8223 H   0  0  0  0  0  0  0  0  0  0  0  0  # atno 10764 bound_to 10752
  153.7704  135.3271  155.3328 H   0  0  0  0  0  0  0  0  0  0  0  0  # atno 10765 bound_to 10752
  141.0991  133.8916  157.1888 H   0  0  0  0  0  0  0  0  0  0  0  0  # atno 11005 bound_to 11000
  146.2976  139.7326  142.9115 LP  0  0  0  0  0  0  0  0  0  0  0  0  # atno 17320 bound_to 7965
  145.4005  141.0384  143.3073 LP  0  0  0  0  0  0  0  0  0  0  0  0  # atno 17321 bound_to 7965
  140.7805  143.3985  151.1189 LP  0  0  0  0  0  0  0  0  0  0  0  0  # atno 17342 bound_to 10162
  139.7637  143.8597  152.3106 LP  0  0  0  0  0  0  0  0  0  0  0  0  # atno 17343 bound_to 10162
  156.0378  130.3747  150.1514 LP  0  0  0  0  0  0  0  0  0  0  0  0  # atno 17370 bound_to 10713
  156.9701  130.9832  151.3460 LP  0  0  0  0  0  0  0  0  0  0  0  0  # atno 17371 bound_to 10713
  139.9837  135.0089  156.9811 LP  0  0  0  0  0  0  0  0  0  0  0  0  # atno 17394 bound_to 11000
  140.5066  134.1044  155.7261 LP  0  0  0  0  0  0  0  0  0  0  0  0  # atno 17395 bound_to 11000

$$$$
