AV-unprocessed.smi:765|AV-procd|sdf|3643|dock7
  -GOLD-   22720 1 43D 1   1.00000     0.00000
 Structure written by MMmdl.
 39 40  0  0  0  0  0  0  0  0  1 V2000
  148.5111  141.5454  155.5818 C   0  0  0  0  0  0  0  0  0  0  0  0
  149.8389  141.0127  156.1387 C   0  0  2  0  0  0  0  0  0  0  0  0
  150.7060  140.3949  155.0269 C   0  0  0  0  0  0  0  0  0  0  0  0
  152.0266  139.8423  155.5817 C   0  0  0  0  0  0  0  0  0  0  0  0
  151.7694  138.8246  156.7054 C   0  0  0  0  0  0  0  0  0  0  0  0
  150.9143  139.4128  157.8552 C   0  0  1  0  0  0  0  0  0  0  0  0
  150.5645  138.3451  158.8118 C   0  0  0  0  0  0  0  0  0  0  0  0
  150.2889  137.5085  159.5622 N   0  0  0  0  0  0  0  0  0  0  0  0
  151.6260  140.4973  158.5392 N   0  0  0  0  0  0  0  0  0  0  0  0
  152.6940  140.3873  159.3472 C   0  0  0  0  0  0  0  0  0  0  0  0
  153.2308  139.3127  159.6172 O   0  0  0  0  0  0  0  0  0  0  0  0
  153.2271  141.7026  159.9352 C   0  0  2  0  0  0  0  0  0  0  0  0
  153.3090  141.6852  161.4731 C   0  0  0  0  0  0  0  0  0  0  0  0
  152.4261  142.8249  159.4638 N   0  0  0  0  0  0  0  0  0  0  0  0
  151.8694  143.8583  160.1925 C   0  0  0  0  0  0  0  0  0  0  0  0
  151.1959  144.6600  159.3162 C   0  0  0  0  0  0  0  0  0  0  0  0
  151.3964  144.0276  158.0575 C   0  0  0  0  0  0  0  0  0  0  0  0
  152.1300  142.9302  158.1491 N   0  0  0  0  0  0  0  0  0  0  0  0
  149.6040  139.9884  157.2701 C   0  0  0  0  0  0  0  0  0  0  0  0
  147.9130  140.7444  155.1462 H   0  0  0  0  0  0  0  0  0  0  0  0
  148.6823  142.2925  154.8062 H   0  0  0  0  0  0  0  0  0  0  0  0
  147.9172  142.0161  156.3658 H   0  0  0  0  0  0  0  0  0  0  0  0
  150.3796  141.8650  156.5521 H   0  0  0  0  0  0  0  0  0  0  0  0
  150.1569  139.5914  154.5339 H   0  0  0  0  0  0  0  0  0  0  0  0
  150.9162  141.1404  154.2593 H   0  0  0  0  0  0  0  0  0  0  0  0
  152.5958  139.3714  154.7797 H   0  0  0  0  0  0  0  0  0  0  0  0
  152.6422  140.6617  155.9543 H   0  0  0  0  0  0  0  0  0  0  0  0
  151.2539  137.9606  156.2837 H   0  0  0  0  0  0  0  0  0  0  0  0
  152.7191  138.4436  157.0814 H   0  0  0  0  0  0  0  0  0  0  0  0
  151.2609  141.4269  158.3894 H   0  0  0  0  0  0  0  0  0  0  0  0
  154.2442  141.8304  159.5590 H   0  0  0  0  0  0  0  0  0  0  0  0
  153.9260  140.8580  161.8264 H   0  0  0  0  0  0  0  0  0  0  0  0
  152.3246  141.5852  161.9321 H   0  0  0  0  0  0  0  0  0  0  0  0
  153.7546  142.6072  161.8475 H   0  0  0  0  0  0  0  0  0  0  0  0
  151.9964  143.9341  161.2627 H   0  0  0  0  0  0  0  0  0  0  0  0
  150.6425  145.5599  159.5403 H   0  0  0  0  0  0  0  0  0  0  0  0
  151.0318  144.3305  157.0870 H   0  0  0  0  0  0  0  0  0  0  0  0
  149.0156  140.4466  158.0668 H   0  0  0  0  0  0  0  0  0  0  0  0
  148.9959  139.1683  156.8846 H   0  0  0  0  0  0  0  0  0  0  0  0
  1  2  1  0  0  0  0
  1 20  1  0  0  0  0
  1 21  1  0  0  0  0
  1 22  1  0  0  0  0
  2 19  1  0  0  0  0
  2  3  1  0  0  0  0
  2 23  1  0  0  0  0
  3  4  1  0  0  0  0
  3 24  1  0  0  0  0
  3 25  1  0  0  0  0
  4  5  1  0  0  0  0
  4 26  1  0  0  0  0
  4 27  1  0  0  0  0
  5  6  1  0  0  0  0
  5 28  1  0  0  0  0
  5 29  1  0  0  0  0
  6  7  1  0  0  0  0
  6  9  1  0  0  0  0
  6 19  1  0  0  0  0
  7  8  3  0  0  0  0
  9 10  1  0  0  0  0
  9 30  1  0  0  0  0
 10 11  2  0  0  0  0
 10 12  1  0  0  0  0
 12 13  1  0  0  0  0
 12 14  1  0  0  0  0
 12 31  1  0  0  0  0
 13 32  1  0  0  0  0
 13 33  1  0  0  0  0
 13 34  1  0  0  0  0
 14 18  1  0  0  0  0
 14 15  1  0  0  0  0
 15 16  2  0  0  0  0
 15 35  1  0  0  0  0
 16 17  1  0  0  0  0
 16 36  1  0  0  0  0
 17 18  2  0  0  0  0
 17 37  1  0  0  0  0
 19 38  1  0  0  0  0
 19 39  1  0  0  0  0
M  END
> <s_m_source_file>
AV-unprocessed.smi

> <i_m_source_file_index>
765

> <i_lp_mmshare_version>
43012

> <i_f3d_flags>
0

> <s_epik_input>
W0NIM11bQ0BASF0oW0NIMl0xKVtDSDJdW0NIMl1bQ0gyXVtDQEBdMShDI04pW05IXUMoPU8pW0NASF0oW0NIM10pbjJbY0hdW2NIXVtjSF1uMg==

> <s_epik_cmdline>
J2VwaWtfcHl0aG9uJywgJy1waCcsICc3LjAnLCAnLXRuJywgJzgnLCAnLW1hJywgJzIwMCcsICctbWV0YWxfYmluZGluZycsICctaW1hZScsICc8aW5maWxlLm1hZT4nLCAnLW9tYWUnLCAnPG91dGZpbGUubWFlPic=

> <r_lp_tautomer_probability>
1

> <r_epik_Ionization_Penalty>
2.71142e-05

> <r_epik_Ionization_Penalty_Charging>
0

> <r_epik_Ionization_Penalty_Neutral>
2.71142e-05

> <r_epik_State_Penalty>
-0

> <r_epik_Charging_Adjusted_Penalty>
0

> <i_epik_Tot_Q>
0

> <i_epik_Tot_abs_Q>
0

> <r_epik_Metal_State_Penalty>
-0

> <b_epik_Metal_Only>
0

> <s_lp_Force_Field>
OPLS_2005

> <r_lp_Energy>
11.1831

> <b_lp_Chiralities_Consistent>
1

> <s_lp_Variant>
AV-unprocessed.smi:765-1

> <Gold.Version>
5.8.1

> <Gold.Id.Protein>
6NUR|6NUR_protein|mol2

> <Gold.PLP.Fitness>
39.4122

> <Gold.PLP.PLP>
-37.0289

> <Gold.PLP.part.hbond>
-1.0000

> <Gold.PLP.part.metal>
0.0000

> <Gold.PLP.part.buried>
-0.8936

> <Gold.PLP.part.nonpolar>
-35.3908

> <Gold.PLP.part.repulsive>
0.1533

> <Gold.PLP.ligand.clash>
0.0000

> <Gold.PLP.ligand.torsion>
0.3420

> <Gold.PLP.Chemscore.Hbond>
0.0000

> <Gold.PLP.Chemscore.CHOScore>
1.0000

> <Gold.PLP.Chemscore.Metal>
0.0000

> <Gold.Chemscore.Hbonds>
donor molecule, donor type, donor heavy atom, donor atom, acceptor molecule, acceptor atom, score
      L1  C    17    37       P1  8028  0.89

> <Gold.PLP.Chemscore.Internal.Correction>
0.0673

> <Gold.Rescore>
     Score         DG    S(hbond)    S(metal)    S(lipo)     H(rot)  DE(clash)    DE(int)     intcor
     13.16     -15.22       0.96        0.00      86.90       1.42       0.04       2.02       ----

> <Gold.Chemscore.Fitness>
13.1570

> <Gold.Chemscore.DG>
-15.2216

> <Gold.Chemscore.ZeroCoef>
-5.4800

> <Gold.Chemscore.Hbond>
0.9595

> <Gold.Chemscore.Metal>
0.0000

> <Gold.Chemscore.Lipo>
86.9032

> <Gold.Chemscore.Internal_Hbond>
0.0000

> <Gold.Chemscore.DEClash>
0.0414

> <Gold.Chemscore.DEInternal>
2.0232

> <Gold.Chemscore.Rot>
1.4183

> <Gold.Chemscore.Internal.Correction>
   9.000000E+99

> <Gold.Chemscore.Hbond.Weighted>
-3.2049

> <Gold.Chemscore.Metal.Weighted>
-0.0000

> <Gold.Chemscore.Lipo.Weighted>
-10.1677

> <Gold.Chemscore.Internal_Hbond.Weighted>
0.0000

> <Gold.Chemscore.DEClash.Weighted>
0.0414

> <Gold.Chemscore.DEInternal.Weighted>
2.0232

> <Gold.Chemscore.Rot.Weighted>
3.6309

> <Gold.Chemscore.Internal.Correction.Weighted>
   9.000000E+99

> <Gold.Protein.RotatedTorsions>
[ 6907 6896 6895 6894 ] final -160.93 input  -60.11 | X-H torsion
[ 7974 7965 7964 7962 ] final -165.11 input  175.53 | X-H torsion
[ 8008 7997 7996 7995 ] final -165.48 input   59.86 | X-H torsion
[ 10167 10162 10161 10158 ] final  -62.80 input  -65.29 | X-H torsion
[ 10718 10713 10712 10709 ] final  -56.79 input   66.30 | X-H torsion
[ 10763 10752 10751 10750 ] final  107.89 input  -60.55 | X-H torsion
[ 11005 11000 10999 10996 ] final  118.44 input  -57.11 | X-H torsion

> <Gold.Protein.ActiveResidues>
 VAL166  LYS551  ARG553  GLY616  TRP617  ASP618  TYR619  PRO620  LYS621  CYS622 
 ASP623  PHE694  ASN695  SER759  ASP760  ASP761  ALA762  ILE779  LEU786  VAL792 
 PHE793  MET794  SER795  GLU796  ALA797  LYS798  CYS799  TRP800  GLU811  SER814 

> <Gold.Protein.RotatedAtoms>
  151.3567  133.3905  159.2685 H   0  0  0  0  0  0  0  0  0  0  0  0  # atno 6907 bound_to 6896
  150.9758  134.9124  159.7825 H   0  0  0  0  0  0  0  0  0  0  0  0  # atno 6908 bound_to 6896
  152.5200  134.3529  159.9310 H   0  0  0  0  0  0  0  0  0  0  0  0  # atno 6909 bound_to 6896
  144.7278  140.2862  143.6228 H   0  0  0  0  0  0  0  0  0  0  0  0  # atno 7974 bound_to 7965
  155.8504  140.0962  157.1678 H   0  0  0  0  0  0  0  0  0  0  0  0  # atno 8008 bound_to 7997
  154.3985  140.1384  156.3899 H   0  0  0  0  0  0  0  0  0  0  0  0  # atno 8009 bound_to 7997
  155.7968  140.3454  155.5382 H   0  0  0  0  0  0  0  0  0  0  0  0  # atno 8010 bound_to 7997
  140.5915  143.2342  151.6130 H   0  0  0  0  0  0  0  0  0  0  0  0  # atno 10167 bound_to 10162
  156.1261  130.4162  150.0353 H   0  0  0  0  0  0  0  0  0  0  0  0  # atno 10718 bound_to 10713
  153.4131  135.3829  155.2063 H   0  0  0  0  0  0  0  0  0  0  0  0  # atno 10763 bound_to 10752
  154.8739  135.3799  154.4477 H   0  0  0  0  0  0  0  0  0  0  0  0  # atno 10764 bound_to 10752
  153.4987  135.7088  153.5906 H   0  0  0  0  0  0  0  0  0  0  0  0  # atno 10765 bound_to 10752
  139.9109  134.9620  156.7503 H   0  0  0  0  0  0  0  0  0  0  0  0  # atno 11005 bound_to 11000
  145.7900  139.1923  143.2108 LP  0  0  0  0  0  0  0  0  0  0  0  0  # atno 17320 bound_to 7965
  146.0763  140.7813  142.9663 LP  0  0  0  0  0  0  0  0  0  0  0  0  # atno 17321 bound_to 7965
  139.5230  144.3145  152.0964 LP  0  0  0  0  0  0  0  0  0  0  0  0  # atno 17342 bound_to 10162
  140.2310  144.4368  150.6300 LP  0  0  0  0  0  0  0  0  0  0  0  0  # atno 17343 bound_to 10162
  156.8278  130.9382  151.3638 LP  0  0  0  0  0  0  0  0  0  0  0  0  # atno 17370 bound_to 10713
  157.6442  130.8830  149.9506 LP  0  0  0  0  0  0  0  0  0  0  0  0  # atno 17371 bound_to 10713
  140.6779  133.9501  155.7893 LP  0  0  0  0  0  0  0  0  0  0  0  0  # atno 17394 bound_to 11000
  141.0531  134.0456  157.3758 LP  0  0  0  0  0  0  0  0  0  0  0  0  # atno 17395 bound_to 11000

$$$$
