AV-unprocessed.smi:2857|AV-procd|sdf|10997|dock2
  -GOLD-   2272015453D 1   1.00000     0.00000
 Structure written by MMmdl.
 44 46  0  0  0  0  0  0  0  0  1 V2000
  143.6098  132.2883  150.1734 C   0  0  0  0  0  0  0  0  0  0  0  0
  144.6349  132.7225  151.2009 C   0  0  0  0  0  0  0  0  0  0  0  0
  145.4047  131.7641  151.8879 C   0  0  0  0  0  0  0  0  0  0  0  0
  146.3549  132.1771  152.8389 C   0  0  0  0  0  0  0  0  0  0  0  0
  146.5421  133.5486  153.1088 C   0  0  0  0  0  0  0  0  0  0  0  0
  147.5709  133.9754  154.1390 C   0  0  0  0  0  0  0  0  0  0  0  0
  145.7748  134.5218  152.4274 C   0  0  0  0  0  0  0  0  0  0  0  0
  146.0069  135.8457  152.7396 O   0  0  0  0  0  0  0  0  0  0  0  0
  145.4165  136.8510  151.9267 C   0  0  0  0  0  0  0  0  0  0  0  0
  146.1711  138.1697  152.1543 C   0  0  2  0  0  0  0  0  0  0  0  0
  147.3747  138.1278  151.4126 O   0  0  0  0  0  0  0  0  0  0  0  0
  146.4992  138.3952  153.6437 C   0  0  0  0  0  0  0  0  0  0  0  0
  147.2653  139.6121  153.8687 N   0  0  0  0  0  0  0  0  0  0  0  0
  146.6668  140.8187  153.6938 N   0  0  0  0  0  0  0  0  0  0  0  0
  147.6022  141.7290  153.9565 C   0  0  0  0  0  0  0  0  0  0  0  0
  148.8427  141.1315  154.3106 C   0  0  0  0  0  0  0  0  0  0  0  0
  150.1632  141.6318  154.6798 C   0  0  0  0  0  0  0  0  0  0  0  0
  151.0945  140.7694  154.9430 N   0  0  0  0  0  0  0  0  0  0  0  0
  150.8505  139.3929  154.8771 N   0  0  0  0  0  0  0  0  0  0  0  0
  152.0006  138.5516  155.2001 C   0  0  0  0  0  0  0  0  0  0  0  0
  149.6526  138.8228  154.5458 C   0  0  0  0  0  0  0  0  0  0  0  0
  149.4586  137.6082  154.4979 O   0  0  0  0  0  0  0  0  0  0  0  0
  148.5813  139.8026  154.2428 C   0  0  0  0  0  0  0  0  0  0  0  0
  144.8197  134.0938  151.4699 C   0  0  0  0  0  0  0  0  0  0  0  0
  143.5405  131.2017  150.1134 H   0  0  0  0  0  0  0  0  0  0  0  0
  143.8804  132.6673  149.1877 H   0  0  0  0  0  0  0  0  0  0  0  0
  142.6251  132.6776  150.4330 H   0  0  0  0  0  0  0  0  0  0  0  0
  145.2705  130.7107  151.6893 H   0  0  0  0  0  0  0  0  0  0  0  0
  146.9400  131.4344  153.3615 H   0  0  0  0  0  0  0  0  0  0  0  0
  147.0795  134.4559  154.9852 H   0  0  0  0  0  0  0  0  0  0  0  0
  148.2756  134.6837  153.7028 H   0  0  0  0  0  0  0  0  0  0  0  0
  148.1381  133.1235  154.5142 H   0  0  0  0  0  0  0  0  0  0  0  0
  145.5184  136.5527  150.8820 H   0  0  0  0  0  0  0  0  0  0  0  0
  144.3525  136.9708  152.1392 H   0  0  0  0  0  0  0  0  0  0  0  0
  145.5650  139.0030  151.7960 H   0  0  0  0  0  0  0  0  0  0  0  0
  147.9926  137.5847  151.8783 H   0  0  0  0  0  0  0  0  0  0  0  0
  145.5750  138.4673  154.2192 H   0  0  0  0  0  0  0  0  0  0  0  0
  147.0416  137.5448  154.0552 H   0  0  0  0  0  0  0  0  0  0  0  0
  147.3520  142.7768  153.8803 H   0  0  0  0  0  0  0  0  0  0  0  0
  150.3552  142.7034  154.7307 H   0  0  0  0  0  0  0  0  0  0  0  0
  152.2408  137.8908  154.3657 H   0  0  0  0  0  0  0  0  0  0  0  0
  151.7901  137.9349  156.0749 H   0  0  0  0  0  0  0  0  0  0  0  0
  152.8914  139.1428  155.4191 H   0  0  0  0  0  0  0  0  0  0  0  0
  144.2144  134.8023  150.9253 H   0  0  0  0  0  0  0  0  0  0  0  0
  1  2  1  0  0  0  0
  1 25  1  0  0  0  0
  1 26  1  0  0  0  0
  1 27  1  0  0  0  0
  2 24  1  0  0  0  0
  2  3  2  0  0  0  0
  3  4  1  0  0  0  0
  3 28  1  0  0  0  0
  4  5  2  0  0  0  0
  4 29  1  0  0  0  0
  5  6  1  0  0  0  0
  5  7  1  0  0  0  0
  6 30  1  0  0  0  0
  6 31  1  0  0  0  0
  6 32  1  0  0  0  0
  7  8  1  0  0  0  0
  7 24  2  0  0  0  0
  8  9  1  0  0  0  0
  9 10  1  0  0  0  0
  9 33  1  0  0  0  0
  9 34  1  0  0  0  0
 10 11  1  0  0  0  0
 10 12  1  0  0  0  0
 10 35  1  0  0  0  0
 11 36  1  0  0  0  0
 12 13  1  0  0  0  0
 12 37  1  0  0  0  0
 12 38  1  0  0  0  0
 13 23  1  0  0  0  0
 13 14  1  0  0  0  0
 14 15  2  0  0  0  0
 15 16  1  0  0  0  0
 15 39  1  0  0  0  0
 16 23  2  0  0  0  0
 16 17  1  0  0  0  0
 17 18  2  0  0  0  0
 17 40  1  0  0  0  0
 18 19  1  0  0  0  0
 19 20  1  0  0  0  0
 19 21  1  0  0  0  0
 20 41  1  0  0  0  0
 20 42  1  0  0  0  0
 20 43  1  0  0  0  0
 21 22  2  0  0  0  0
 21 23  1  0  0  0  0
 24 44  1  0  0  0  0
M  END
> <s_m_source_file>
AV-unprocessed.smi

> <i_m_source_file_index>
2857

> <i_lp_mmshare_version>
43012

> <i_f3d_flags>
0

> <s_epik_input>
W0NIM11jMVtjSF1bY0hdYyhbQ0gzXSljKFtjSF0xKU9bQ0gyXVtDQEhdKFtPSF0pW0NIMl1uKG5bY0hdMiljKGMyMyljKD1PKW4oW0NIM10pbltjSF0z

> <s_epik_cmdline>
J2VwaWtfcHl0aG9uJywgJy1waCcsICc3LjAnLCAnLXRuJywgJzgnLCAnLW1hJywgJzIwMCcsICctbWV0YWxfYmluZGluZycsICctaW1hZScsICc8aW5maWxlLm1hZT4nLCAnLW9tYWUnLCAnPG91dGZpbGUubWFlPic=

> <r_lp_tautomer_probability>
1

> <r_epik_Ionization_Penalty>
2.24607e-06

> <r_epik_Ionization_Penalty_Charging>
1.42095e-10

> <r_epik_Ionization_Penalty_Neutral>
2.24593e-06

> <r_epik_State_Penalty>
-0

> <r_epik_Charging_Adjusted_Penalty>
1.42095e-10

> <i_epik_Tot_Q>
0

> <i_epik_Tot_abs_Q>
0

> <r_epik_Metal_State_Penalty>
-0

> <b_epik_Metal_Only>
0

> <s_lp_Force_Field>
OPLS_2005

> <r_lp_Energy>
31.8826

> <b_lp_Chiralities_Consistent>
1

> <s_lp_Variant>
AV-unprocessed.smi:2857-1

> <Gold.Version>
5.8.1

> <Gold.Id.Protein>
6NUR|6NUR_protein|mol2

> <Gold.PLP.Fitness>
50.1092

> <Gold.PLP.PLP>
-42.5570

> <Gold.PLP.part.hbond>
-3.8744

> <Gold.PLP.part.metal>
0.0000

> <Gold.PLP.part.buried>
-4.6814

> <Gold.PLP.part.nonpolar>
-37.5510

> <Gold.PLP.part.repulsive>
3.1786

> <Gold.PLP.ligand.clash>
0.0000

> <Gold.PLP.ligand.torsion>
0.4427

> <Gold.PLP.Chemscore.Hbond>
1.7832

> <Gold.PLP.Chemscore.CHOScore>
1.0000

> <Gold.PLP.Chemscore.Metal>
0.0000

> <Gold.Chemscore.Hbonds>
donor molecule, donor type, donor heavy atom, donor atom, acceptor molecule, acceptor atom, score
      L1  H    11    36       P1  7948  0.91
      P1  H  7954  7966       L1    11  0.60
      P1  H  7989  7998       L1    18  0.37
      L1  C    17    40       P1  8028  0.70

> <Gold.PLP.Chemscore.Internal.Correction>
0.0880

> <Gold.Rescore>
     Score         DG    S(hbond)    S(metal)    S(lipo)     H(rot)  DE(clash)    DE(int)     intcor
     13.25     -14.04       0.97        0.00      96.21       2.32       0.27       0.52       ----

> <Gold.Chemscore.Fitness>
13.2518

> <Gold.Chemscore.DG>
-14.0386

> <Gold.Chemscore.ZeroCoef>
-5.4800

> <Gold.Chemscore.Hbond>
0.9731

> <Gold.Chemscore.Metal>
0.0000

> <Gold.Chemscore.Lipo>
96.2132

> <Gold.Chemscore.Internal_Hbond>
0.0000

> <Gold.Chemscore.DEClash>
0.2705

> <Gold.Chemscore.DEInternal>
0.5163

> <Gold.Chemscore.Rot>
2.3236

> <Gold.Chemscore.Internal.Correction>
   9.000000E+99

> <Gold.Chemscore.Hbonds>
donor molecule, donor type, donor heavy atom, donor atom, acceptor molecule, acceptor atom, score
      L1  H    11    36       P1  7948  0.89
      P1  H  7954  7966       L1    11  0.04

> <Gold.Chemscore.Hbond.Weighted>
-3.2501

> <Gold.Chemscore.Metal.Weighted>
-0.0000

> <Gold.Chemscore.Lipo.Weighted>
-11.2569

> <Gold.Chemscore.Internal_Hbond.Weighted>
0.0000

> <Gold.Chemscore.DEClash.Weighted>
0.2705

> <Gold.Chemscore.DEInternal.Weighted>
0.5163

> <Gold.Chemscore.Rot.Weighted>
5.9484

> <Gold.Chemscore.Internal.Correction.Weighted>
   9.000000E+99

> <Gold.Protein.RotatedTorsions>
[ 6907 6896 6895 6894 ] final  -42.30 input  -60.11 | X-H torsion
[ 7974 7965 7964 7962 ] final   -9.86 input  175.53 | X-H torsion
[ 8008 7997 7996 7995 ] final  -39.70 input   59.86 | X-H torsion
[ 10167 10162 10161 10158 ] final   -0.14 input  -65.29 | X-H torsion
[ 10718 10713 10712 10709 ] final   80.17 input   66.30 | X-H torsion
[ 10763 10752 10751 10750 ] final  -44.22 input  -60.55 | X-H torsion
[ 11005 11000 10999 10996 ] final   50.55 input  -57.11 | X-H torsion

> <Gold.Protein.ActiveResidues>
 VAL166  LYS551  ARG553  GLY616  TRP617  ASP618  TYR619  PRO620  LYS621  CYS622 
 ASP623  PHE694  ASN695  SER759  ASP760  ASP761  ALA762  ILE779  LEU786  VAL792 
 PHE793  MET794  SER795  GLU796  ALA797  LYS798  CYS799  TRP800  GLU811  SER814 

> <Gold.Protein.RotatedAtoms>
  150.9568  134.8961  159.7705 H   0  0  0  0  0  0  0  0  0  0  0  0  # atno 6907 bound_to 6896
  152.5141  134.3729  159.9334 H   0  0  0  0  0  0  0  0  0  0  0  0  # atno 6908 bound_to 6896
  151.3742  133.3803  159.2738 H   0  0  0  0  0  0  0  0  0  0  0  0  # atno 6909 bound_to 6896
  146.2239  140.2679  142.8355 H   0  0  0  0  0  0  0  0  0  0  0  0  # atno 7974 bound_to 7965
  154.4020  140.1544  156.2907 H   0  0  0  0  0  0  0  0  0  0  0  0  # atno 8008 bound_to 7997
  155.8788  140.3445  155.5851 H   0  0  0  0  0  0  0  0  0  0  0  0  # atno 8009 bound_to 7997
  155.7691  140.0828  157.2108 H   0  0  0  0  0  0  0  0  0  0  0  0  # atno 8010 bound_to 7997
  140.6754  143.6930  150.8013 H   0  0  0  0  0  0  0  0  0  0  0  0  # atno 10167 bound_to 10162
  157.6798  130.9947  150.2040 H   0  0  0  0  0  0  0  0  0  0  0  0  # atno 10718 bound_to 10713
  154.0085  135.6684  153.4763 H   0  0  0  0  0  0  0  0  0  0  0  0  # atno 10763 bound_to 10752
  153.0631  135.5016  154.8135 H   0  0  0  0  0  0  0  0  0  0  0  0  # atno 10764 bound_to 10752
  154.7010  135.3079  154.9305 H   0  0  0  0  0  0  0  0  0  0  0  0  # atno 10765 bound_to 10752
  140.1008  134.5084  155.8765 H   0  0  0  0  0  0  0  0  0  0  0  0  # atno 11005 bound_to 11000
  144.9290  140.7954  143.5701 LP  0  0  0  0  0  0  0  0  0  0  0  0  # atno 17320 bound_to 7965
  145.2621  139.1988  143.4886 LP  0  0  0  0  0  0  0  0  0  0  0  0  # atno 17321 bound_to 7965
  140.0622  143.5144  152.2622 LP  0  0  0  0  0  0  0  0  0  0  0  0  # atno 17342 bound_to 10162
  139.6044  144.7592  151.3096 LP  0  0  0  0  0  0  0  0  0  0  0  0  # atno 17343 bound_to 10162
  156.2725  130.3723  149.8017 LP  0  0  0  0  0  0  0  0  0  0  0  0  # atno 17370 bound_to 10713
  156.5730  130.8433  151.3362 LP  0  0  0  0  0  0  0  0  0  0  0  0  # atno 17371 bound_to 10713
  141.2105  133.6695  156.6513 LP  0  0  0  0  0  0  0  0  0  0  0  0  # atno 17394 bound_to 11000
  140.3223  134.7997  157.4262 LP  0  0  0  0  0  0  0  0  0  0  0  0  # atno 17395 bound_to 11000

$$$$
