AV-unprocessed.smi:2208|AV-procd|sdf|8946|dock9
  -GOLD-   2272012163D 1   1.00000     0.00000
 Structure written by MMmdl.
 35 36  0  0  0  0  0  0  0  0  1 V2000
  148.3294  139.4977  157.2834 C   0  0  0  0  0  0  0  0  0  0  0  0
  147.2581  140.3944  156.7314 C   0  0  0  0  0  0  0  0  0  0  0  0
  146.1456  140.5642  157.4255 N   0  0  0  0  0  0  0  0  0  0  0  0
  145.3586  141.4473  156.6809 O   0  0  0  0  0  0  0  0  0  0  0  0
  146.0357  141.7787  155.5530 C   0  0  0  0  0  0  0  0  0  0  0  0
  145.3593  142.7350  154.6298 C   0  0  0  0  0  0  0  0  0  0  0  0
  147.2472  141.1427  155.5179 C   0  0  0  0  0  0  0  0  0  0  0  0
  148.3201  141.2262  154.4613 C   0  0  0  0  0  0  0  0  0  0  0  0
  149.6898  141.0843  155.1228 C   0  0  0  0  0  0  0  0  0  0  0  0
  150.4596  140.1945  154.7618 O   0  0  0  0  0  0  0  0  0  0  0  0
  149.9668  141.9515  156.1081 N   0  0  0  0  0  0  0  0  0  0  0  0
  151.1602  141.9198  156.9435 C   0  0  0  0  0  0  0  0  0  0  0  0
  151.1099  143.0186  158.0173 C   0  0  1  0  0  0  0  0  0  0  0  0
  152.2410  142.9395  159.0379 C   0  0  0  0  0  0  0  0  0  0  0  0
  152.2558  144.3523  159.5775 C   0  0  0  0  0  0  0  0  0  0  0  0
  151.9324  145.1819  158.3355 C   0  0  0  0  0  0  0  0  0  0  0  0
  151.2670  144.3056  157.4284 O   0  0  0  0  0  0  0  0  0  0  0  0
  148.7637  139.9214  158.1892 H   0  0  0  0  0  0  0  0  0  0  0  0
  149.1396  139.3497  156.5703 H   0  0  0  0  0  0  0  0  0  0  0  0
  147.9284  138.5151  157.5336 H   0  0  0  0  0  0  0  0  0  0  0  0
  145.4720  143.7582  154.9878 H   0  0  0  0  0  0  0  0  0  0  0  0
  144.2939  142.5171  154.5563 H   0  0  0  0  0  0  0  0  0  0  0  0
  145.7837  142.6799  153.6272 H   0  0  0  0  0  0  0  0  0  0  0  0
  148.2106  140.4461  153.7080 H   0  0  0  0  0  0  0  0  0  0  0  0
  148.2696  142.1711  153.9185 H   0  0  0  0  0  0  0  0  0  0  0  0
  149.2718  142.6478  156.3355 H   0  0  0  0  0  0  0  0  0  0  0  0
  151.2671  140.9384  157.4087 H   0  0  0  0  0  0  0  0  0  0  0  0
  152.0327  142.0578  156.3043 H   0  0  0  0  0  0  0  0  0  0  0  0
  150.1538  142.9974  158.5436 H   0  0  0  0  0  0  0  0  0  0  0  0
  152.0673  142.1884  159.8089 H   0  0  0  0  0  0  0  0  0  0  0  0
  153.1893  142.7164  158.5468 H   0  0  0  0  0  0  0  0  0  0  0  0
  151.4679  144.4726  160.3224 H   0  0  0  0  0  0  0  0  0  0  0  0
  153.2050  144.6263  160.0386 H   0  0  0  0  0  0  0  0  0  0  0  0
  151.3109  146.0449  158.5743 H   0  0  0  0  0  0  0  0  0  0  0  0
  152.8454  145.5432  157.8618 H   0  0  0  0  0  0  0  0  0  0  0  0
  1  2  1  0  0  0  0
  1 18  1  0  0  0  0
  1 19  1  0  0  0  0
  1 20  1  0  0  0  0
  2  7  1  0  0  0  0
  2  3  2  0  0  0  0
  3  4  1  0  0  0  0
  4  5  1  0  0  0  0
  5  6  1  0  0  0  0
  5  7  2  0  0  0  0
  6 21  1  0  0  0  0
  6 22  1  0  0  0  0
  6 23  1  0  0  0  0
  7  8  1  0  0  0  0
  8  9  1  0  0  0  0
  8 24  1  0  0  0  0
  8 25  1  0  0  0  0
  9 10  2  0  0  0  0
  9 11  1  0  0  0  0
 11 12  1  0  0  0  0
 11 26  1  0  0  0  0
 12 13  1  0  0  0  0
 12 27  1  0  0  0  0
 12 28  1  0  0  0  0
 13 17  1  0  0  0  0
 13 14  1  0  0  0  0
 13 29  1  0  0  0  0
 14 15  1  0  0  0  0
 14 30  1  0  0  0  0
 14 31  1  0  0  0  0
 15 16  1  0  0  0  0
 15 32  1  0  0  0  0
 15 33  1  0  0  0  0
 16 17  1  0  0  0  0
 16 34  1  0  0  0  0
 16 35  1  0  0  0  0
M  END
> <s_m_source_file>
AV-unprocessed.smi

> <i_m_source_file_index>
2208

> <i_lp_mmshare_version>
43012

> <i_f3d_flags>
0

> <s_epik_input>
W0NIM11jMW5vYyhbQ0gzXSljMVtDSDJdQyg9TylbTkhdW0NIMl1bQ0BASF0yW0NIMl1bQ0gyXVtDSDJdTzI=

> <s_epik_cmdline>
J2VwaWtfcHl0aG9uJywgJy1waCcsICc3LjAnLCAnLXRuJywgJzgnLCAnLW1hJywgJzIwMCcsICctbWV0YWxfYmluZGluZycsICctaW1hZScsICc8aW5maWxlLm1hZT4nLCAnLW9tYWUnLCAnPG91dGZpbGUubWFlPic=

> <r_lp_tautomer_probability>
1

> <r_epik_Ionization_Penalty>
3.13901e-08

> <r_epik_Ionization_Penalty_Charging>
0

> <r_epik_Ionization_Penalty_Neutral>
3.13901e-08

> <r_epik_State_Penalty>
-0

> <r_epik_Charging_Adjusted_Penalty>
0

> <i_epik_Tot_Q>
0

> <i_epik_Tot_abs_Q>
0

> <r_epik_Metal_State_Penalty>
-0

> <b_epik_Metal_Only>
0

> <s_lp_Force_Field>
OPLS_2005

> <r_lp_Energy>
10.5641

> <b_lp_Chiralities_Consistent>
1

> <s_lp_Variant>
AV-unprocessed.smi:2208-2

> <Gold.Version>
5.8.1

> <Gold.Id.Protein>
6NUR|6NUR_protein|mol2

> <Gold.PLP.Fitness>
40.6426

> <Gold.PLP.PLP>
-35.4927

> <Gold.PLP.part.hbond>
-2.0000

> <Gold.PLP.part.metal>
0.0000

> <Gold.PLP.part.buried>
-4.9082

> <Gold.PLP.part.nonpolar>
-28.7104

> <Gold.PLP.part.repulsive>
0.4621

> <Gold.PLP.ligand.clash>
0.0000

> <Gold.PLP.ligand.torsion>
0.4290

> <Gold.PLP.Chemscore.Hbond>
2.0000

> <Gold.PLP.Chemscore.CHOScore>
0.0000

> <Gold.PLP.Chemscore.Metal>
0.0000

> <Gold.Chemscore.Hbonds>
donor molecule, donor type, donor heavy atom, donor atom, acceptor molecule, acceptor atom, score
      L1  H    11    26       P1  8028  0.37
      P1  H  7989  7998       L1    10  1.00

> <Gold.PLP.Chemscore.Internal.Correction>
0.0078

> <Gold.Rescore>
     Score         DG    S(hbond)    S(metal)    S(lipo)     H(rot)  DE(clash)    DE(int)     intcor
     10.61     -10.90       0.00        0.00      80.21       1.56       0.01       0.29       ----

> <Gold.Chemscore.Fitness>
10.6062

> <Gold.Chemscore.DG>
-10.8996

> <Gold.Chemscore.ZeroCoef>
-5.4800

> <Gold.Chemscore.Hbond>
0.0048

> <Gold.Chemscore.Metal>
0.0000

> <Gold.Chemscore.Lipo>
80.2104

> <Gold.Chemscore.Internal_Hbond>
0.0000

> <Gold.Chemscore.DEClash>
0.0082

> <Gold.Chemscore.DEInternal>
0.2852

> <Gold.Chemscore.Rot>
1.5551

> <Gold.Chemscore.Internal.Correction>
   9.000000E+99

> <Gold.Chemscore.Hbonds>
donor molecule, donor type, donor heavy atom, donor atom, acceptor molecule, acceptor atom, score
      L1  H    11    26       P1  8028  0.37
      P1  H  7989  7998       L1    10  0.70

> <Gold.Chemscore.Hbond.Weighted>
-0.0159

> <Gold.Chemscore.Metal.Weighted>
-0.0000

> <Gold.Chemscore.Lipo.Weighted>
-9.3846

> <Gold.Chemscore.Internal_Hbond.Weighted>
0.0000

> <Gold.Chemscore.DEClash.Weighted>
0.0082

> <Gold.Chemscore.DEInternal.Weighted>
0.2852

> <Gold.Chemscore.Rot.Weighted>
3.9809

> <Gold.Chemscore.Internal.Correction.Weighted>
   9.000000E+99

> <Gold.Protein.RotatedTorsions>
[ 6907 6896 6895 6894 ] final   19.80 input  -60.11 | X-H torsion
[ 7974 7965 7964 7962 ] final  141.43 input  175.53 | X-H torsion
[ 8008 7997 7996 7995 ] final  -49.24 input   59.86 | X-H torsion
[ 10167 10162 10161 10158 ] final -178.77 input  -65.29 | X-H torsion
[ 10718 10713 10712 10709 ] final   95.63 input   66.30 | X-H torsion
[ 10763 10752 10751 10750 ] final -160.52 input  -60.55 | X-H torsion
[ 11005 11000 10999 10996 ] final  -22.50 input  -57.11 | X-H torsion

> <Gold.Protein.ActiveResidues>
 VAL166  LYS551  ARG553  GLY616  TRP617  ASP618  TYR619  PRO620  LYS621  CYS622 
 ASP623  PHE694  ASN695  SER759  ASP760  ASP761  ALA762  ILE779  LEU786  VAL792 
 PHE793  MET794  SER795  GLU796  ALA797  LYS798  CYS799  TRP800  GLU811  SER814 

> <Gold.Protein.RotatedAtoms>
  151.8865  135.0433  160.0493 H   0  0  0  0  0  0  0  0  0  0  0  0  # atno 6907 bound_to 6896
  152.2470  133.5178  159.5311 H   0  0  0  0  0  0  0  0  0  0  0  0  # atno 6908 bound_to 6896
  150.7071  134.0928  159.3980 H   0  0  0  0  0  0  0  0  0  0  0  0  # atno 6909 bound_to 6896
  144.9097  139.5310  143.5715 H   0  0  0  0  0  0  0  0  0  0  0  0  # atno 7974 bound_to 7965
  154.4041  140.1302  156.4470 H   0  0  0  0  0  0  0  0  0  0  0  0  # atno 8008 bound_to 7997
  155.7403  140.3490  155.5081 H   0  0  0  0  0  0  0  0  0  0  0  0  # atno 8009 bound_to 7997
  155.9045  140.1025  157.1316 H   0  0  0  0  0  0  0  0  0  0  0  0  # atno 8010 bound_to 7997
  139.5417  144.2345  152.0908 H   0  0  0  0  0  0  0  0  0  0  0  0  # atno 10167 bound_to 10162
  157.6936  131.0552  150.4368 H   0  0  0  0  0  0  0  0  0  0  0  0  # atno 10718 bound_to 10713
  154.7383  135.3062  154.8772 H   0  0  0  0  0  0  0  0  0  0  0  0  # atno 10763 bound_to 10752
  153.9595  135.6754  153.4749 H   0  0  0  0  0  0  0  0  0  0  0  0  # atno 10764 bound_to 10752
  153.0984  135.4924  154.8745 H   0  0  0  0  0  0  0  0  0  0  0  0  # atno 10765 bound_to 10752
  140.8663  133.7752  156.0133 H   0  0  0  0  0  0  0  0  0  0  0  0  # atno 11005 bound_to 11000
  146.3152  139.7893  142.8989 LP  0  0  0  0  0  0  0  0  0  0  0  0  # atno 17320 bound_to 7965
  145.3476  141.0301  143.3357 LP  0  0  0  0  0  0  0  0  0  0  0  0  # atno 17321 bound_to 7965
  140.1825  144.4831  150.6521 LP  0  0  0  0  0  0  0  0  0  0  0  0  # atno 17342 bound_to 10162
  140.6649  143.2264  151.5766 LP  0  0  0  0  0  0  0  0  0  0  0  0  # atno 17343 bound_to 10162
  156.4730  130.4057  149.6506 LP  0  0  0  0  0  0  0  0  0  0  0  0  # atno 17370 bound_to 10713
  156.3580  130.7466  151.2435 LP  0  0  0  0  0  0  0  0  0  0  0  0  # atno 17371 bound_to 10713
  140.8625  134.2824  157.5228 LP  0  0  0  0  0  0  0  0  0  0  0  0  # atno 17394 bound_to 11000
  139.8709  134.9525  156.4118 LP  0  0  0  0  0  0  0  0  0  0  0  0  # atno 17395 bound_to 11000

$$$$
