AV-unprocessed.smi:54|AV-procd|sdf|557|dock2
  -GOLD-   2262016453D 1   1.00000     0.00000
 Structure written by MMmdl.
 43 45  0  0  0  0  0  0  0  0  2 V2000
  152.8114  142.7374  160.6536 C   0  0  0  0  0  0  0  0  0  0  0  0
  152.4838  143.4547  159.3333 C   0  0  0  0  0  0  0  0  0  0  0  0
  151.6868  144.7456  159.5826 C   0  0  0  0  0  0  0  0  0  0  0  0
  151.7222  142.5214  158.3815 C   0  0  0  0  0  0  0  0  0  0  0  0
  150.6014  142.8517  157.9858 O   0  0  0  0  0  0  0  0  0  0  0  0
  152.3686  141.3814  158.0486 N   0  0  0  0  0  0  0  0  0  0  0  0
  151.9436  140.3345  157.2224 C   0  0  0  0  0  0  0  0  0  0  0  0
  150.7391  140.3500  156.6961 N   0  0  0  0  0  0  0  0  0  0  0  0
  150.4883  139.2343  155.9218 C   0  0  0  0  0  0  0  0  0  0  0  0
  151.3258  138.1832  155.6697 C   0  0  0  0  0  0  0  0  0  0  0  0
  150.7244  137.2412  154.8442 N   0  0  0  0  0  0  0  0  0  0  0  0
  149.5249  137.7815  154.6343 C   0  0  0  0  0  0  0  0  0  0  0  0
  149.3096  138.9710  155.2343 N   0  0  0  0  0  0  0  0  0  0  0  0
  148.0779  139.8250  155.1920 C   0  0  2  0  0  0  0  0  0  0  0  0
  146.9716  138.9721  155.2110 O   0  0  0  0  0  0  0  0  0  0  0  0
  146.1765  139.1328  154.0361 C   0  0  2  0  0  0  0  0  0  0  0  0
  145.5480  137.7943  153.6106 C   0  0  0  0  0  0  0  0  0  0  0  0
  144.8248  137.9592  152.4096 O   0  0  0  0  0  0  0  0  0  0  0  0
  147.1095  139.7882  153.0064 C   0  0  2  0  0  0  0  0  0  0  0  0
  147.8490  138.8221  152.2780 O   0  0  0  0  0  0  0  0  0  0  0  0
  147.9909  140.6521  153.8967 C   0  0  2  0  0  0  0  0  0  0  0  0
  149.2289  140.9955  153.2986 O   0  0  0  0  0  0  0  0  0  0  0  0
  152.6680  138.2335  156.2960 C   0  0  0  0  0  0  0  0  0  0  0  0
  153.4565  137.3115  156.0964 O   0  0  0  0  0  0  0  0  0  0  0  0
  152.9178  139.3367  157.0644 N   0  5  0  0  0  0  0  0  0  0  0  0
  148.1314  140.4301  156.0975 H   0  0  0  0  0  0  0  0  0  0  0  0
  145.3910  139.8539  154.2695 H   0  0  0  0  0  0  0  0  0  0  0  0
  146.5517  140.3920  152.2898 H   0  0  0  0  0  0  0  0  0  0  0  0
  147.4553  141.5710  154.1382 H   0  0  0  0  0  0  0  0  0  0  0  0
  153.3653  141.8145  160.4767 H   0  0  0  0  0  0  0  0  0  0  0  0
  151.9072  142.4819  161.2076 H   0  0  0  0  0  0  0  0  0  0  0  0
  153.4247  143.3682  161.2974 H   0  0  0  0  0  0  0  0  0  0  0  0
  153.4285  143.7313  158.8619 H   0  0  0  0  0  0  0  0  0  0  0  0
  151.4495  145.2516  158.6459 H   0  0  0  0  0  0  0  0  0  0  0  0
  152.2587  145.4437  160.1943 H   0  0  0  0  0  0  0  0  0  0  0  0
  150.7481  144.5450  160.1007 H   0  0  0  0  0  0  0  0  0  0  0  0
  153.2915  141.2825  158.4452 H   0  0  0  0  0  0  0  0  0  0  0  0
  148.7809  137.2945  154.0219 H   0  0  0  0  0  0  0  0  0  0  0  0
  146.3274  137.0556  153.4215 H   0  0  0  0  0  0  0  0  0  0  0  0
  144.8997  137.3929  154.3897 H   0  0  0  0  0  0  0  0  0  0  0  0
  144.4523  138.8275  152.4001 H   0  0  0  0  0  0  0  0  0  0  0  0
  148.3456  139.2702  151.6100 H   0  0  0  0  0  0  0  0  0  0  0  0
  149.4664  140.3128  152.6895 H   0  0  0  0  0  0  0  0  0  0  0  0
  1  2  1  0  0  0  0
  1 30  1  0  0  0  0
  1 31  1  0  0  0  0
  1 32  1  0  0  0  0
  2  3  1  0  0  0  0
  2  4  1  0  0  0  0
  2 33  1  0  0  0  0
  3 34  1  0  0  0  0
  3 35  1  0  0  0  0
  3 36  1  0  0  0  0
  4  5  2  0  0  0  0
  4  6  1  0  0  0  0
  6 37  1  0  0  0  0
  6  7  1  0  0  0  0
  7 25  1  0  0  0  0
  7  8  2  0  0  0  0
  8  9  1  0  0  0  0
  9 13  1  0  0  0  0
  9 10  2  0  0  0  0
 10 11  1  0  0  0  0
 10 23  1  0  0  0  0
 11 12  2  0  0  0  0
 12 13  1  0  0  0  0
 12 38  1  0  0  0  0
 13 14  1  0  0  0  0
 14 26  1  0  0  0  0
 14 21  1  0  0  0  0
 14 15  1  0  0  0  0
 15 16  1  0  0  0  0
 16 27  1  0  0  0  0
 16 17  1  0  0  0  0
 16 19  1  0  0  0  0
 17 18  1  0  0  0  0
 17 39  1  0  0  0  0
 17 40  1  0  0  0  0
 18 41  1  0  0  0  0
 19 28  1  0  0  0  0
 19 20  1  0  0  0  0
 19 21  1  0  0  0  0
 20 42  1  0  0  0  0
 21 29  1  0  0  0  0
 21 22  1  0  0  0  0
 22 43  1  0  0  0  0
 23 24  2  0  0  0  0
 23 25  1  0  0  0  0
M  CHG  1  25  -1
M  END
> <s_m_source_file>
AV-unprocessed.smi

> <i_m_source_file_index>
54

> <i_lp_mmshare_version>
43012

> <i_f3d_flags>
0

> <s_epik_input>
W0NIM11bQ0hdKFtDSDNdKUMoPU8pW05IXWMobjEpW25IXWMoPU8pYyhjMTIpbltjSF1uMltDQEBIXTNPW0NASF0oW0NIMl1bT0hdKVtDQEBIXShbT0hdKVtDQEhdM1tPSF0=

> <s_epik_cmdline>
J2VwaWtfcHl0aG9uJywgJy1waCcsICc3LjAnLCAnLXRuJywgJzgnLCAnLW1hJywgJzIwMCcsICctbWV0YWxfYmluZGluZycsICctaW1hZScsICc8aW5maWxlLm1hZT4nLCAnLW9tYWUnLCAnPG91dGZpbGUubWFlPic=

> <r_lp_tautomer_probability>
0.85571

> <r_epik_Ionization_Penalty>
1.75936

> <r_epik_Ionization_Penalty_Charging>
4.55893e-11

> <r_epik_Ionization_Penalty_Neutral>
1.75936

> <r_epik_State_Penalty>
1.72072

> <r_epik_Charging_Adjusted_Penalty>
1.72072

> <i_epik_Tot_Q>
-1

> <i_epik_Tot_abs_Q>
1

> <r_epik_Metal_State_Penalty>
0.400338

> <b_epik_Metal_Only>
1

> <s_epik_Chemistry_Notes>
This compound contains an acetal/aminal-like group ( X-CH(R)-Y where X, Y are N, S, or O) that may be acid/base labile, releasing an aldehyde.

> <s_lp_Force_Field>
OPLS_2005

> <r_lp_Energy>
61.4874

> <b_lp_Chiralities_Consistent>
1

> <s_lp_Variant>
AV-unprocessed.smi:54-29

> <Gold.Version>
5.8.1

> <Gold.Id.Protein>
6NUR|6NUR_protein|mol2

> <Gold.PLP.Fitness>
58.1326

> <Gold.PLP.PLP>
-37.0464

> <Gold.PLP.part.hbond>
-7.9920

> <Gold.PLP.part.metal>
0.0000

> <Gold.PLP.part.buried>
-3.4936

> <Gold.PLP.part.nonpolar>
-25.6022

> <Gold.PLP.part.repulsive>
0.4060

> <Gold.PLP.ligand.clash>
0.0000

> <Gold.PLP.ligand.torsion>
0.6097

> <Gold.PLP.Chemscore.Hbond>
6.2749

> <Gold.PLP.Chemscore.CHOScore>
0.9859

> <Gold.PLP.Chemscore.Metal>
0.0000

> <Gold.Chemscore.Hbonds>
donor molecule, donor type, donor heavy atom, donor atom, acceptor molecule, acceptor atom, score
      L1  H    18    41       P1 10175  1.00
      L1  H    20    42       P1  7957  0.94
      L1  H    22    43       P1  7957  0.82
      P1  H  7997  8009       L1    25  2.00
      P1  H  8011  8017       L1    22  0.90
      P1  H 10752 10765       L1    24  0.46
      L1  C    12    38       P1  7948  1.00

> <Gold.PLP.Chemscore.Internal.Correction>
0.5234

> <Gold.Rescore>
     Score         DG    S(hbond)    S(metal)    S(lipo)     H(rot)  DE(clash)    DE(int)     intcor
     14.01     -17.12       4.28        0.00      65.25       4.02       0.41       2.71       ----

> <Gold.Chemscore.Fitness>
14.0055

> <Gold.Chemscore.DG>
-17.1233

> <Gold.Chemscore.ZeroCoef>
-5.4800

> <Gold.Chemscore.Hbond>
4.2811

> <Gold.Chemscore.Metal>
0.0000

> <Gold.Chemscore.Lipo>
65.2454

> <Gold.Chemscore.Internal_Hbond>
0.0000

> <Gold.Chemscore.DEClash>
0.4057

> <Gold.Chemscore.DEInternal>
2.7120

> <Gold.Chemscore.Rot>
4.0192

> <Gold.Chemscore.Internal.Correction>
   9.000000E+99

> <Gold.Chemscore.Hbonds>
donor molecule, donor type, donor heavy atom, donor atom, acceptor molecule, acceptor atom, score
      L1  H    18    41       P1 10175  1.00
      L1  H    20    42       P1  7957  0.83
      L1  H    22    43       P1  7957  0.78
      P1  H  7997  8009       L1    25  0.66
      P1  H  8011  8017       L1    22  0.18
      P1  H 10752 10765       L1    24  0.44

> <Gold.Chemscore.Hbond.Weighted>
-14.2988

> <Gold.Chemscore.Metal.Weighted>
-0.0000

> <Gold.Chemscore.Lipo.Weighted>
-7.6337

> <Gold.Chemscore.Internal_Hbond.Weighted>
0.0000

> <Gold.Chemscore.DEClash.Weighted>
0.4057

> <Gold.Chemscore.DEInternal.Weighted>
2.7120

> <Gold.Chemscore.Rot.Weighted>
10.2893

> <Gold.Chemscore.Internal.Correction.Weighted>
   9.000000E+99

> <Gold.Protein.RotatedTorsions>
[ 6907 6896 6895 6894 ] final   14.97 input  -60.11 | X-H torsion
[ 7974 7965 7964 7962 ] final  146.45 input  175.53 | X-H torsion
[ 8008 7997 7996 7995 ] final  171.50 input   59.86 | X-H torsion
[ 10167 10162 10161 10158 ] final  -78.32 input  -65.29 | X-H torsion
[ 10718 10713 10712 10709 ] final   -2.43 input   66.30 | X-H torsion
[ 10763 10752 10751 10750 ] final -129.67 input  -60.55 | X-H torsion
[ 11005 11000 10999 10996 ] final -129.64 input  -57.11 | X-H torsion

> <Gold.Protein.ActiveResidues>
 VAL166  LYS551  ARG553  GLY616  TRP617  ASP618  TYR619  PRO620  LYS621  CYS622 
 ASP623  PHE694  ASN695  SER759  ASP760  ASP761  ALA762  ILE779  LEU786  VAL792 
 PHE793  MET794  SER795  GLU796  ALA797  LYS798  CYS799  TRP800  GLU811  SER814 

> <Gold.Protein.RotatedAtoms>
  151.8106  135.0682  160.0412 H   0  0  0  0  0  0  0  0  0  0  0  0  # atno 6907 bound_to 6896
  152.3023  133.5663  159.5635 H   0  0  0  0  0  0  0  0  0  0  0  0  # atno 6908 bound_to 6896
  150.7279  134.0189  159.3737 H   0  0  0  0  0  0  0  0  0  0  0  0  # atno 6909 bound_to 6896
  144.8670  139.5907  143.5904 H   0  0  0  0  0  0  0  0  0  0  0  0  # atno 7974 bound_to 7965
  156.1265  140.1510  156.9129 H   0  0  0  0  0  0  0  0  0  0  0  0  # atno 8008 bound_to 7997
  154.4875  140.0861  156.7561 H   0  0  0  0  0  0  0  0  0  0  0  0  # atno 8009 bound_to 7997
  155.4334  140.3428  155.4284 H   0  0  0  0  0  0  0  0  0  0  0  0  # atno 8010 bound_to 7997
  140.4692  143.2431  151.8231 H   0  0  0  0  0  0  0  0  0  0  0  0  # atno 10167 bound_to 10162
  156.7909  130.5361  149.5736 H   0  0  0  0  0  0  0  0  0  0  0  0  # atno 10718 bound_to 10713
  154.8757  135.3887  154.3958 H   0  0  0  0  0  0  0  0  0  0  0  0  # atno 10763 bound_to 10752
  153.4689  135.7030  153.6011 H   0  0  0  0  0  0  0  0  0  0  0  0  # atno 10764 bound_to 10752
  153.4477  135.3841  155.2233 H   0  0  0  0  0  0  0  0  0  0  0  0  # atno 10765 bound_to 10752
  140.9414  134.1188  157.4147 H   0  0  0  0  0  0  0  0  0  0  0  0  # atno 11005 bound_to 11000
  146.2903  139.7119  142.9166 LP  0  0  0  0  0  0  0  0  0  0  0  0  # atno 17320 bound_to 7965
  145.4203  141.0406  143.2967 LP  0  0  0  0  0  0  0  0  0  0  0  0  # atno 17321 bound_to 7965
  139.4816  144.4913  151.9182 LP  0  0  0  0  0  0  0  0  0  0  0  0  # atno 17342 bound_to 10162
  140.3998  144.2508  150.5894 LP  0  0  0  0  0  0  0  0  0  0  0  0  # atno 17343 bound_to 10162
  156.1159  130.6075  151.0120 LP  0  0  0  0  0  0  0  0  0  0  0  0  # atno 17370 bound_to 10713
  157.6601  131.0882  150.7858 LP  0  0  0  0  0  0  0  0  0  0  0  0  # atno 17371 bound_to 10713
  139.8821  135.0038  156.6207 LP  0  0  0  0  0  0  0  0  0  0  0  0  # atno 17394 bound_to 11000
  140.7729  133.8724  155.8506 LP  0  0  0  0  0  0  0  0  0  0  0  0  # atno 17395 bound_to 11000

$$$$
