AV-unprocessed.smi:2583|AV-procd|sdf|10141|dock1
  -GOLD-   2272014153D 1   1.00000     0.00000
 Structure written by MMmdl.
 54 56  0  0  0  0  0  0  0  0  2 V2000
  153.6264  141.4107  160.0336 C   0  0  0  0  0  0  0  0  0  0  0  0
  152.8135  142.4471  159.2861 C   0  0  0  0  0  0  0  0  0  0  0  0
  152.8992  143.8146  159.6187 C   0  0  0  0  0  0  0  0  0  0  0  0
  152.1858  144.7744  158.9936 N   0  0  0  0  0  0  0  0  0  0  0  0
  151.3560  144.3975  157.9977 C   0  0  0  0  0  0  0  0  0  0  0  0
  151.2021  143.0617  157.5700 C   0  0  0  0  0  0  0  0  0  0  0  0
  150.2829  142.7976  156.5190 N   0  0  0  0  0  0  0  0  0  0  0  0
  149.9780  141.6154  155.9571 C   0  0  0  0  0  0  0  0  0  0  0  0
  150.4806  140.5329  156.2584 O   0  0  0  0  0  0  0  0  0  0  0  0
  149.0601  141.7583  154.9900 N   0  0  0  0  0  0  0  0  0  0  0  0
  148.5331  140.6724  154.1679 C   0  0  2  0  0  0  0  0  0  0  0  0
  147.4159  141.1780  153.2425 C   0  0  0  0  0  0  0  0  0  0  0  0
  146.8007  140.0224  152.4381 C   0  0  0  0  0  0  0  0  0  0  0  0
  146.2618  138.9507  153.3248 N   0  3  1  0  0  0  0  0  0  0  0  0
  145.5157  137.9009  152.5558 C   0  0  0  0  0  0  0  0  0  0  0  0
  144.8934  136.8534  153.5084 C   0  0  0  0  0  0  0  0  0  0  0  0
  144.1681  135.7352  152.7407 C   0  0  0  0  0  0  0  0  0  0  0  0
  145.0998  135.0573  151.8430 N   0  0  0  0  0  0  0  0  0  0  0  0
  144.4130  133.9621  151.1724 C   0  0  0  0  0  0  0  0  0  0  0  0
  145.5936  136.0017  150.8440 C   0  0  0  0  0  0  0  0  0  0  0  0
  146.3817  137.1326  151.5276 C   0  0  0  0  0  0  0  0  0  0  0  0
  147.3309  138.4343  154.2299 C   0  0  0  0  0  0  0  0  0  0  0  0
  147.9728  139.5591  155.0618 C   0  0  0  0  0  0  0  0  0  0  0  0
  151.9449  142.0630  158.2448 C   0  0  0  0  0  0  0  0  0  0  0  0
  154.4265  141.8772  160.6092 H   0  0  0  0  0  0  0  0  0  0  0  0
  154.0776  140.7042  159.3362 H   0  0  0  0  0  0  0  0  0  0  0  0
  152.9875  140.8558  160.7211 H   0  0  0  0  0  0  0  0  0  0  0  0
  153.5518  144.1490  160.4118 H   0  0  0  0  0  0  0  0  0  0  0  0
  150.7995  145.1923  157.5224 H   0  0  0  0  0  0  0  0  0  0  0  0
  149.8541  143.6125  156.1052 H   0  0  0  0  0  0  0  0  0  0  0  0
  148.7035  142.6851  154.8071 H   0  0  0  0  0  0  0  0  0  0  0  0
  149.3411  140.2555  153.5631 H   0  0  0  0  0  0  0  0  0  0  0  0
  146.6376  141.6697  153.8281 H   0  0  0  0  0  0  0  0  0  0  0  0
  147.8075  141.9299  152.5561 H   0  0  0  0  0  0  0  0  0  0  0  0
  146.0197  140.4371  151.8042 H   0  0  0  0  0  0  0  0  0  0  0  0
  147.5503  139.5965  151.7692 H   0  0  0  0  0  0  0  0  0  0  0  0
  144.7153  138.3944  152.0017 H   0  0  0  0  0  0  0  0  0  0  0  0
  145.6713  136.4157  154.1363 H   0  0  0  0  0  0  0  0  0  0  0  0
  144.1742  137.3089  154.1867 H   0  0  0  0  0  0  0  0  0  0  0  0
  143.7596  135.0150  153.4510 H   0  0  0  0  0  0  0  0  0  0  0  0
  143.3266  136.1432  152.1781 H   0  0  0  0  0  0  0  0  0  0  0  0
  145.0946  133.4367  150.5025 H   0  0  0  0  0  0  0  0  0  0  0  0
  143.5661  134.3211  150.5855 H   0  0  0  0  0  0  0  0  0  0  0  0
  144.0423  133.2392  151.9000 H   0  0  0  0  0  0  0  0  0  0  0  0
  146.2446  135.4799  150.1414 H   0  0  0  0  0  0  0  0  0  0  0  0
  144.7634  136.4121  150.2666 H   0  0  0  0  0  0  0  0  0  0  0  0
  146.7363  137.8023  150.7440 H   0  0  0  0  0  0  0  0  0  0  0  0
  147.2645  136.7152  152.0147 H   0  0  0  0  0  0  0  0  0  0  0  0
  146.9261  137.7150  154.9400 H   0  0  0  0  0  0  0  0  0  0  0  0
  148.0903  137.9170  153.6413 H   0  0  0  0  0  0  0  0  0  0  0  0
  148.7672  139.1458  155.6847 H   0  0  0  0  0  0  0  0  0  0  0  0
  147.2283  139.9710  155.7452 H   0  0  0  0  0  0  0  0  0  0  0  0
  151.8534  141.0173  157.9948 H   0  0  0  0  0  0  0  0  0  0  0  0
  145.5803  139.3869  153.9296 H   0  0  0  0  0  0  0  0  0  0  0  0
  1  2  1  0  0  0  0
  1 25  1  0  0  0  0
  1 26  1  0  0  0  0
  1 27  1  0  0  0  0
  2 24  1  0  0  0  0
  2  3  2  0  0  0  0
  3  4  1  0  0  0  0
  3 28  1  0  0  0  0
  4  5  2  0  0  0  0
  5  6  1  0  0  0  0
  5 29  1  0  0  0  0
  6  7  1  0  0  0  0
  6 24  2  0  0  0  0
  7  8  1  0  0  0  0
  7 30  1  0  0  0  0
  8  9  2  0  0  0  0
  8 10  1  0  0  0  0
 10 11  1  0  0  0  0
 10 31  1  0  0  0  0
 11 23  1  0  0  0  0
 11 12  1  0  0  0  0
 11 32  1  0  0  0  0
 12 13  1  0  0  0  0
 12 33  1  0  0  0  0
 12 34  1  0  0  0  0
 13 14  1  0  0  0  0
 13 35  1  0  0  0  0
 13 36  1  0  0  0  0
 14 15  1  0  0  0  0
 14 22  1  0  0  0  0
 14 54  1  0  0  0  0
 15 21  1  0  0  0  0
 15 16  1  0  0  0  0
 15 37  1  0  0  0  0
 16 17  1  0  0  0  0
 16 38  1  0  0  0  0
 16 39  1  0  0  0  0
 17 18  1  0  0  0  0
 17 40  1  0  0  0  0
 17 41  1  0  0  0  0
 18 19  1  0  0  0  0
 18 20  1  0  0  0  0
 19 42  1  0  0  0  0
 19 43  1  0  0  0  0
 19 44  1  0  0  0  0
 20 21  1  0  0  0  0
 20 45  1  0  0  0  0
 20 46  1  0  0  0  0
 21 47  1  0  0  0  0
 21 48  1  0  0  0  0
 22 23  1  0  0  0  0
 22 49  1  0  0  0  0
 22 50  1  0  0  0  0
 23 51  1  0  0  0  0
 23 52  1  0  0  0  0
 24 53  1  0  0  0  0
M  CHG  1  14   1
M  END
> <s_m_source_file>
AV-unprocessed.smi

> <i_m_source_file_index>
2583

> <i_lp_mmshare_version>
43012

> <i_f3d_flags>
0

> <s_epik_input>
W0NIM11jMVtjSF1uW2NIXWMoW2NIXTEpW05IXUMoPU8pW05IXVtDSF0yW0NIMl1bQ0gyXU4oW0NIMl1bQ0gyXTIpW0NIXTNbQ0gyXVtDSDJdTihbQ0gzXSlbQ0gyXVtDSDJdMw==

> <s_epik_cmdline>
J2VwaWtfcHl0aG9uJywgJy1waCcsICc3LjAnLCAnLXRuJywgJzgnLCAnLW1hJywgJzIwMCcsICctbWV0YWxfYmluZGluZycsICctaW1hZScsICc8aW5maWxlLm1hZT4nLCAnLW9tYWUnLCAnPG91dGZpbGUubWFlPic=

> <r_epik_Ionization_Penalty>
1.38006

> <r_epik_Ionization_Penalty_Charging>
0.00081195

> <r_epik_Ionization_Penalty_Neutral>
1.37925

> <r_epik_State_Penalty>
1.55585

> <r_epik_Charging_Adjusted_Penalty>
1.55666

> <i_epik_Tot_Q>
1

> <i_epik_Tot_abs_Q>
1

> <r_epik_Metal_State_Penalty>
1.55173

> <b_epik_Metal_Only>
0

> <s_lp_Force_Field>
OPLS_2005

> <r_lp_Energy>
35.6185

> <b_lp_Chiralities_Consistent>
1

> <s_lp_Variant>
AV-unprocessed.smi:2583-7

> <Gold.Version>
5.8.1

> <Gold.Id.Protein>
6NUR|6NUR_protein|mol2

> <Gold.PLP.Fitness>
47.7207

> <Gold.PLP.PLP>
-41.7957

> <Gold.PLP.part.hbond>
-2.6919

> <Gold.PLP.part.metal>
0.0000

> <Gold.PLP.part.buried>
-0.6682

> <Gold.PLP.part.nonpolar>
-39.2647

> <Gold.PLP.part.repulsive>
0.4429

> <Gold.PLP.ligand.clash>
0.0000

> <Gold.PLP.ligand.torsion>
0.0412

> <Gold.PLP.Chemscore.Hbond>
1.4586

> <Gold.PLP.Chemscore.CHOScore>
0.5335

> <Gold.PLP.Chemscore.Metal>
0.0000

> <Gold.Chemscore.Hbonds>
donor molecule, donor type, donor heavy atom, donor atom, acceptor molecule, acceptor atom, score
      L1  H     7    30       P1  8028  1.00
      L1  H    10    31       P1  8028  0.46
      L1  C     5    29       P1  8028  0.53

> <Gold.PLP.Chemscore.Internal.Correction>
0.0310

> <Gold.Rescore>
     Score         DG    S(hbond)    S(metal)    S(lipo)     H(rot)  DE(clash)    DE(int)     intcor
     19.56     -23.51       1.80        0.00     128.63       1.19       1.78       2.16       ----

> <Gold.Chemscore.Fitness>
19.5648

> <Gold.Chemscore.DG>
-23.5068

> <Gold.Chemscore.ZeroCoef>
-5.4800

> <Gold.Chemscore.Hbond>
1.8041

> <Gold.Chemscore.Metal>
0.0000

> <Gold.Chemscore.Lipo>
128.6321

> <Gold.Chemscore.Internal_Hbond>
0.0000

> <Gold.Chemscore.DEClash>
1.7783

> <Gold.Chemscore.DEInternal>
2.1638

> <Gold.Chemscore.Rot>
1.1910

> <Gold.Chemscore.Internal.Correction>
   9.000000E+99

> <Gold.Chemscore.Hbonds>
donor molecule, donor type, donor heavy atom, donor atom, acceptor molecule, acceptor atom, score
      L1  H     7    30       P1  8028  0.93
      L1  H    10    31       P1  8028  0.45

> <Gold.Chemscore.Hbond.Weighted>
-6.0258

> <Gold.Chemscore.Metal.Weighted>
-0.0000

> <Gold.Chemscore.Lipo.Weighted>
-15.0500

> <Gold.Chemscore.Internal_Hbond.Weighted>
0.0000

> <Gold.Chemscore.DEClash.Weighted>
1.7783

> <Gold.Chemscore.DEInternal.Weighted>
2.1638

> <Gold.Chemscore.Rot.Weighted>
3.0489

> <Gold.Chemscore.Internal.Correction.Weighted>
   9.000000E+99

> <Gold.Protein.RotatedTorsions>
[ 6907 6896 6895 6894 ] final -136.16 input  -60.11 | X-H torsion
[ 7974 7965 7964 7962 ] final  158.89 input  175.53 | X-H torsion
[ 8008 7997 7996 7995 ] final -118.29 input   59.86 | X-H torsion
[ 10167 10162 10161 10158 ] final   47.93 input  -65.29 | X-H torsion
[ 10718 10713 10712 10709 ] final -174.54 input   66.30 | X-H torsion
[ 10763 10752 10751 10750 ] final  109.05 input  -60.55 | X-H torsion
[ 11005 11000 10999 10996 ] final -127.93 input  -57.11 | X-H torsion

> <Gold.Protein.ActiveResidues>
 VAL166  LYS551  ARG553  GLY616  TRP617  ASP618  TYR619  PRO620  LYS621  CYS622 
 ASP623  PHE694  ASN695  SER759  ASP760  ASP761  ALA762  ILE779  LEU786  VAL792 
 PHE793  MET794  SER795  GLU796  ALA797  LYS798  CYS799  TRP800  GLU811  SER814 

> <Gold.Protein.RotatedAtoms>
  151.0067  133.6004  159.2687 H   0  0  0  0  0  0  0  0  0  0  0  0  # atno 6907 bound_to 6896
  151.3170  135.0808  159.9302 H   0  0  0  0  0  0  0  0  0  0  0  0  # atno 6908 bound_to 6896
  152.5289  133.9721  159.7821 H   0  0  0  0  0  0  0  0  0  0  0  0  # atno 6909 bound_to 6896
  144.7820  139.7542  143.6256 H   0  0  0  0  0  0  0  0  0  0  0  0  # atno 7974 bound_to 7965
  155.0974  140.0395  157.2687 H   0  0  0  0  0  0  0  0  0  0  0  0  # atno 8008 bound_to 7997
  154.6785  140.2628  155.6908 H   0  0  0  0  0  0  0  0  0  0  0  0  # atno 8009 bound_to 7997
  156.2685  140.2783  156.1320 H   0  0  0  0  0  0  0  0  0  0  0  0  # atno 8010 bound_to 7997
  140.2986  144.2961  150.6224 H   0  0  0  0  0  0  0  0  0  0  0  0  # atno 10167 bound_to 10162
  156.7865  130.9502  151.3120 H   0  0  0  0  0  0  0  0  0  0  0  0  # atno 10718 bound_to 10713
  153.4292  135.3792  155.2160 H   0  0  0  0  0  0  0  0  0  0  0  0  # atno 10763 bound_to 10752
  154.8749  135.3836  154.4288 H   0  0  0  0  0  0  0  0  0  0  0  0  # atno 10764 bound_to 10752
  153.4819  135.7088  153.5996 H   0  0  0  0  0  0  0  0  0  0  0  0  # atno 10765 bound_to 10752
  140.9559  134.1003  157.4017 H   0  0  0  0  0  0  0  0  0  0  0  0  # atno 11005 bound_to 11000
  146.2033  139.5341  142.9729 LP  0  0  0  0  0  0  0  0  0  0  0  0  # atno 17320 bound_to 7965
  145.6024  141.0353  143.2011 LP  0  0  0  0  0  0  0  0  0  0  0  0  # atno 17321 bound_to 7965
  140.5671  143.2185  151.7664 LP  0  0  0  0  0  0  0  0  0  0  0  0  # atno 17342 bound_to 10162
  139.4920  144.4269  151.9916 LP  0  0  0  0  0  0  0  0  0  0  0  0  # atno 17343 bound_to 10162
  157.6621  130.8975  149.9852 LP  0  0  0  0  0  0  0  0  0  0  0  0  # atno 17370 bound_to 10713
  156.1185  130.3647  149.9927 LP  0  0  0  0  0  0  0  0  0  0  0  0  # atno 17371 bound_to 10713
  139.8862  135.0079  156.6483 LP  0  0  0  0  0  0  0  0  0  0  0  0  # atno 17394 bound_to 11000
  140.7537  133.8875  155.8366 LP  0  0  0  0  0  0  0  0  0  0  0  0  # atno 17395 bound_to 11000

$$$$
