AV-unprocessed.smi:290|AV-procd|sdf|2217|dock1
  -GOLD-   2262022 53D 1   1.00000     0.00000
 Structure written by MMmdl.
 59 62  0  0  0  0  0  0  0  0  2 V2000
  149.4078  138.7713  153.9102 C   0  0  0  0  0  0  0  0  0  0  0  0
  150.4231  138.8282  155.0632 C   0  0  2  0  0  0  0  0  0  0  0  0
  151.0422  140.1052  155.1228 O   0  0  0  0  0  0  0  0  0  0  0  0
  152.2054  139.9639  155.9172 C   0  0  0  0  0  0  0  0  0  0  0  0
  152.8119  138.6667  155.3963 C   0  0  0  0  0  0  0  0  0  0  0  0
  151.5960  137.8124  155.0240 C   0  0  2  0  0  0  0  0  0  0  0  0
  151.8025  137.2970  153.7186 O   0  0  0  0  0  0  0  0  0  0  0  0
  151.4034  136.6187  155.9919 C   0  0  0  0  0  0  0  0  0  0  0  0
  150.2884  135.7552  155.6326 N   0  0  0  0  0  0  0  0  0  0  0  0
  149.0007  136.1484  155.3463 C   0  0  0  0  0  0  0  0  0  0  0  0
  148.1741  135.1812  155.0571 N   0  0  0  0  0  0  0  0  0  0  0  0
  148.9504  134.0317  155.1475 C   0  0  0  0  0  0  0  0  0  0  0  0
  148.7015  132.6410  154.9644 C   0  0  0  0  0  0  0  0  0  0  0  0
  147.5115  132.0976  154.6255 N   0  0  0  0  0  0  0  0  0  0  0  0
  147.5416  131.2857  153.4100 C   0  0  0  0  0  0  0  0  0  0  0  0
  146.1941  131.4983  152.7125 C   0  0  0  0  0  0  0  0  0  0  0  0
  145.8280  132.9094  153.1814 C   0  0  1  0  0  0  0  0  0  0  0  0
  144.4323  133.3920  152.9399 N   0  3  1  0  0  0  0  0  0  0  0  0
  144.1945  134.7106  153.5782 C   0  0  0  0  0  0  0  0  0  0  0  0
  143.9730  133.3547  151.5227 C   0  0  0  0  0  0  0  0  0  0  0  0
  144.6139  134.4512  150.6525 C   0  0  0  0  0  0  0  0  0  0  0  0
  143.9605  134.5265  149.4034 O   0  0  0  0  0  0  0  0  0  0  0  0
  146.3202  132.9454  154.6408 C   0  0  1  0  0  0  0  0  0  0  0  0
  145.3366  132.4214  155.7007 C   0  0  0  0  0  0  0  0  0  0  0  0
  149.7428  131.7852  155.1061 N   0  0  0  0  0  0  0  0  0  0  0  0
  150.9522  132.2509  155.4324 C   0  0  0  0  0  0  0  0  0  0  0  0
  151.3297  133.5124  155.6496 N   0  0  0  0  0  0  0  0  0  0  0  0
  150.2874  134.3779  155.4929 C   0  0  0  0  0  0  0  0  0  0  0  0
  146.4975  133.5839  152.6447 H   0  0  0  0  0  0  0  0  0  0  0  0
  146.5643  133.9728  154.9117 H   0  0  0  0  0  0  0  0  0  0  0  0
  148.9387  137.7893  153.8461 H   0  0  0  0  0  0  0  0  0  0  0  0
  149.8782  138.9858  152.9503 H   0  0  0  0  0  0  0  0  0  0  0  0
  148.6160  139.5058  154.0581 H   0  0  0  0  0  0  0  0  0  0  0  0
  149.8820  138.7175  156.0036 H   0  0  0  0  0  0  0  0  0  0  0  0
  152.8756  140.8170  155.8084 H   0  0  0  0  0  0  0  0  0  0  0  0
  151.9271  139.8732  156.9686 H   0  0  0  0  0  0  0  0  0  0  0  0
  153.4173  138.8931  154.5167 H   0  0  0  0  0  0  0  0  0  0  0  0
  153.4684  138.1953  156.1286 H   0  0  0  0  0  0  0  0  0  0  0  0
  150.9600  137.1526  153.3160 H   0  0  0  0  0  0  0  0  0  0  0  0
  152.3077  136.0097  156.0304 H   0  0  0  0  0  0  0  0  0  0  0  0
  151.2407  136.9837  157.0069 H   0  0  0  0  0  0  0  0  0  0  0  0
  148.6903  137.1831  155.3646 H   0  0  0  0  0  0  0  0  0  0  0  0
  148.3544  131.6119  152.7583 H   0  0  0  0  0  0  0  0  0  0  0  0
  147.7078  130.2346  153.6482 H   0  0  0  0  0  0  0  0  0  0  0  0
  146.2631  131.4116  151.6279 H   0  0  0  0  0  0  0  0  0  0  0  0
  145.4918  130.7461  153.0701 H   0  0  0  0  0  0  0  0  0  0  0  0
  144.8099  135.4826  153.1146 H   0  0  0  0  0  0  0  0  0  0  0  0
  144.4357  134.6767  154.6411 H   0  0  0  0  0  0  0  0  0  0  0  0
  143.1523  135.0170  153.5067 H   0  0  0  0  0  0  0  0  0  0  0  0
  144.1847  132.3715  151.0999 H   0  0  0  0  0  0  0  0  0  0  0  0
  142.8944  133.4844  151.4629 H   0  0  0  0  0  0  0  0  0  0  0  0
  144.6023  135.4278  151.1342 H   0  0  0  0  0  0  0  0  0  0  0  0
  145.6612  134.2074  150.4722 H   0  0  0  0  0  0  0  0  0  0  0  0
  144.6021  134.4061  148.7191 H   0  0  0  0  0  0  0  0  0  0  0  0
  144.4273  133.0201  155.7340 H   0  0  0  0  0  0  0  0  0  0  0  0
  145.7854  132.4668  156.6933 H   0  0  0  0  0  0  0  0  0  0  0  0
  145.0594  131.3827  155.5207 H   0  0  0  0  0  0  0  0  0  0  0  0
  151.7281  131.5062  155.5347 H   0  0  0  0  0  0  0  0  0  0  0  0
  143.8403  132.7410  153.4364 H   0  0  0  0  0  0  0  0  0  0  0  0
  1  2  1  0  0  0  0
  1 31  1  0  0  0  0
  1 32  1  0  0  0  0
  1 33  1  0  0  0  0
  2  6  1  0  0  0  0
  2  3  1  0  0  0  0
  2 34  1  0  0  0  0
  3  4  1  0  0  0  0
  4  5  1  0  0  0  0
  4 35  1  0  0  0  0
  4 36  1  0  0  0  0
  5  6  1  0  0  0  0
  5 37  1  0  0  0  0
  5 38  1  0  0  0  0
  6  7  1  0  0  0  0
  6  8  1  0  0  0  0
  7 39  1  0  0  0  0
  8  9  1  0  0  0  0
  8 40  1  0  0  0  0
  8 41  1  0  0  0  0
  9 28  1  0  0  0  0
  9 10  1  0  0  0  0
 10 11  2  0  0  0  0
 10 42  1  0  0  0  0
 11 12  1  0  0  0  0
 12 28  2  0  0  0  0
 12 13  1  0  0  0  0
 13 14  1  0  0  0  0
 13 25  2  0  0  0  0
 14 23  1  0  0  0  0
 14 15  1  0  0  0  0
 15 16  1  0  0  0  0
 15 43  1  0  0  0  0
 15 44  1  0  0  0  0
 16 17  1  0  0  0  0
 16 45  1  0  0  0  0
 16 46  1  0  0  0  0
 17 29  1  0  0  0  0
 17 18  1  0  0  0  0
 17 23  1  0  0  0  0
 18 19  1  0  0  0  0
 18 20  1  0  0  0  0
 18 59  1  0  0  0  0
 19 47  1  0  0  0  0
 19 48  1  0  0  0  0
 19 49  1  0  0  0  0
 20 21  1  0  0  0  0
 20 50  1  0  0  0  0
 20 51  1  0  0  0  0
 21 22  1  0  0  0  0
 21 52  1  0  0  0  0
 21 53  1  0  0  0  0
 22 54  1  0  0  0  0
 23 30  1  0  0  0  0
 23 24  1  0  0  0  0
 24 55  1  0  0  0  0
 24 56  1  0  0  0  0
 24 57  1  0  0  0  0
 25 26  1  0  0  0  0
 26 27  2  0  0  0  0
 26 58  1  0  0  0  0
 27 28  1  0  0  0  0
M  CHG  1  18   1
M  END
> <s_m_source_file>
AV-unprocessed.smi

> <i_m_source_file_index>
290

> <i_lp_mmshare_version>
43012

> <i_f3d_flags>
0

> <s_epik_input>
W0NIMl0xW0NIMl1PW0NAQEhdKFtDSDNdKVtDQEBdMShbT0hdKVtDSDJdbihbY0hdbjIpYyhjMjMpbltjSF1uYzNONFtDSDJdW0NIMl1bQ0BIXShbQ0BIXTRbQ0gzXSlOKFtDSDNdKVtDSDJdW0NIMl1bT0hd

> <s_epik_cmdline>
J2VwaWtfcHl0aG9uJywgJy1waCcsICc3LjAnLCAnLXRuJywgJzgnLCAnLW1hJywgJzIwMCcsICctbWV0YWxfYmluZGluZycsICctaW1hZScsICc8aW5maWxlLm1hZT4nLCAnLW9tYWUnLCAnPG91dGZpbGUubWFlPic=

> <r_lp_tautomer_probability>
1

> <r_epik_Ionization_Penalty>
0.0036983

> <r_epik_Ionization_Penalty_Charging>
0.0032725

> <r_epik_Ionization_Penalty_Neutral>
0.000425798

> <r_epik_State_Penalty>
-0

> <r_epik_Charging_Adjusted_Penalty>
0.0032725

> <i_epik_Tot_Q>
1

> <i_epik_Tot_abs_Q>
1

> <r_epik_Metal_State_Penalty>
-0

> <b_epik_Metal_Only>
0

> <s_lp_Force_Field>
OPLS_2005

> <r_lp_Energy>
65.9865

> <b_lp_Chiralities_Consistent>
1

> <s_lp_Variant>
AV-unprocessed.smi:290-3

> <Gold.Version>
5.8.1

> <Gold.Id.Protein>
6NUR|6NUR_protein|mol2

> <Gold.PLP.Fitness>
49.4665

> <Gold.PLP.PLP>
-34.0306

> <Gold.PLP.part.hbond>
-5.8089

> <Gold.PLP.part.metal>
0.0000

> <Gold.PLP.part.buried>
1.2156

> <Gold.PLP.part.nonpolar>
-29.3431

> <Gold.PLP.part.repulsive>
0.1524

> <Gold.PLP.ligand.clash>
0.0000

> <Gold.PLP.ligand.torsion>
0.3193

> <Gold.PLP.Chemscore.Hbond>
5.1901

> <Gold.PLP.Chemscore.CHOScore>
0.0000

> <Gold.PLP.Chemscore.Metal>
0.0000

> <Gold.Chemscore.Hbonds>
donor molecule, donor type, donor heavy atom, donor atom, acceptor molecule, acceptor atom, score
      L1  H     7    39       P1  7949  0.14
      L1  H    18    59       P1 10957  2.00
      L1  H    22    54       P1  7921  1.00
      P1  H  7989  7998       L1     3  1.00
      P1  H 10752 10763       L1     7  0.79

> <Gold.PLP.Chemscore.Internal.Correction>
0.5043

> <Gold.Rescore>
     Score         DG    S(hbond)    S(metal)    S(lipo)     H(rot)  DE(clash)    DE(int)     intcor
     13.09     -16.84       3.69        0.00      71.85       3.67       1.63       2.13       ----

> <Gold.Chemscore.Fitness>
13.0868

> <Gold.Chemscore.DG>
-16.8426

> <Gold.Chemscore.ZeroCoef>
-5.4800

> <Gold.Chemscore.Hbond>
3.6947

> <Gold.Chemscore.Metal>
0.0000

> <Gold.Chemscore.Lipo>
71.8529

> <Gold.Chemscore.Internal_Hbond>
0.0000

> <Gold.Chemscore.DEClash>
1.6308

> <Gold.Chemscore.DEInternal>
2.1251

> <Gold.Chemscore.Rot>
3.6658

> <Gold.Chemscore.Internal.Correction>
   9.000000E+99

> <Gold.Chemscore.Hbonds>
donor molecule, donor type, donor heavy atom, donor atom, acceptor molecule, acceptor atom, score
      L1  H     7    39       P1  7949  0.04
      L1  H    18    59       P1 10957  0.52
      L1  H    22    54       P1  7921  0.99
      P1  H  7989  7998       L1     3  0.48
      P1  H 10752 10763       L1     7  0.12

> <Gold.Chemscore.Hbond.Weighted>
-12.3402

> <Gold.Chemscore.Metal.Weighted>
-0.0000

> <Gold.Chemscore.Lipo.Weighted>
-8.4068

> <Gold.Chemscore.Internal_Hbond.Weighted>
0.0000

> <Gold.Chemscore.DEClash.Weighted>
1.6308

> <Gold.Chemscore.DEInternal.Weighted>
2.1251

> <Gold.Chemscore.Rot.Weighted>
9.3844

> <Gold.Chemscore.Internal.Correction.Weighted>
   9.000000E+99

> <Gold.Protein.RotatedTorsions>
[ 6907 6896 6895 6894 ] final   -1.94 input  -60.11 | X-H torsion
[ 7974 7965 7964 7962 ] final   64.83 input  175.53 | X-H torsion
[ 8008 7997 7996 7995 ] final  -68.19 input   59.86 | X-H torsion
[ 10167 10162 10161 10158 ] final -145.58 input  -65.29 | X-H torsion
[ 10718 10713 10712 10709 ] final -158.73 input   66.30 | X-H torsion
[ 10763 10752 10751 10750 ] final   41.13 input  -60.55 | X-H torsion
[ 11005 11000 10999 10996 ] final -102.87 input  -57.11 | X-H torsion

> <Gold.Protein.ActiveResidues>
 VAL166  LYS551  ARG553  GLY616  TRP617  ASP618  TYR619  PRO620  LYS621  CYS622 
 ASP623  PHE694  ASN695  SER759  ASP760  ASP761  ALA762  ILE779  LEU786  VAL792 
 PHE793  MET794  SER795  GLU796  ALA797  LYS798  CYS799  TRP800  GLU811  SER814 

> <Gold.Protein.RotatedAtoms>
  151.5380  135.1068  159.9918 H   0  0  0  0  0  0  0  0  0  0  0  0  # atno 6907 bound_to 6896
  152.4548  133.7697  159.6803 H   0  0  0  0  0  0  0  0  0  0  0  0  # atno 6908 bound_to 6896
  150.8488  133.7753  159.3057 H   0  0  0  0  0  0  0  0  0  0  0  0  # atno 6909 bound_to 6896
  145.8456  139.3222  143.0905 H   0  0  0  0  0  0  0  0  0  0  0  0  # atno 7974 bound_to 7965
  154.4851  140.0878  156.7467 H   0  0  0  0  0  0  0  0  0  0  0  0  # atno 8008 bound_to 7997
  155.4372  140.3452  155.4268 H   0  0  0  0  0  0  0  0  0  0  0  0  # atno 8009 bound_to 7997
  156.1249  140.1484  156.9139 H   0  0  0  0  0  0  0  0  0  0  0  0  # atno 8010 bound_to 7997
  139.7792  143.8125  152.2636 H   0  0  0  0  0  0  0  0  0  0  0  0  # atno 10167 bound_to 10162
  156.5583  130.8635  151.2801 H   0  0  0  0  0  0  0  0  0  0  0  0  # atno 10718 bound_to 10713
  152.9916  135.6171  154.2738 H   0  0  0  0  0  0  0  0  0  0  0  0  # atno 10763 bound_to 10752
  154.2470  135.2786  155.2833 H   0  0  0  0  0  0  0  0  0  0  0  0  # atno 10764 bound_to 10752
  154.5320  135.5785  153.6825 H   0  0  0  0  0  0  0  0  0  0  0  0  # atno 10765 bound_to 10752
  141.1171  133.8593  157.1414 H   0  0  0  0  0  0  0  0  0  0  0  0  # atno 11005 bound_to 11000
  145.9415  140.8976  143.0305 LP  0  0  0  0  0  0  0  0  0  0  0  0  # atno 17320 bound_to 7965
  144.6731  140.1556  143.7426 LP  0  0  0  0  0  0  0  0  0  0  0  0  # atno 17321 bound_to 7965
  139.8183  144.7307  150.9606 LP  0  0  0  0  0  0  0  0  0  0  0  0  # atno 17342 bound_to 10162
  140.7817  143.4184  151.0881 LP  0  0  0  0  0  0  0  0  0  0  0  0  # atno 17343 bound_to 10162
  157.7374  130.9795  150.2190 LP  0  0  0  0  0  0  0  0  0  0  0  0  # atno 17370 bound_to 10713
  156.2822  130.3735  149.7924 LP  0  0  0  0  0  0  0  0  0  0  0  0  # atno 17371 bound_to 10713
  140.0100  134.9992  157.0375 LP  0  0  0  0  0  0  0  0  0  0  0  0  # atno 17394 bound_to 11000
  140.4616  134.1478  155.7192 LP  0  0  0  0  0  0  0  0  0  0  0  0  # atno 17395 bound_to 11000

$$$$
