AV-unprocessed.smi:3315|AV-procd|sdf|12750|dock1
  -GOLD-   2272019 83D 1   1.00000     0.00000
 Structure written by MMmdl.
 37 38  0  0  0  0  0  0  0  0  1 V2000
  146.0652  142.7523  154.2654 C   0  0  0  0  0  0  0  0  0  0  0  0
  146.4753  141.4714  154.7284 O   0  0  0  0  0  0  0  0  0  0  0  0
  147.5670  140.8414  154.0434 C   0  0  2  0  0  0  0  0  0  0  0  0
  148.8155  141.7312  154.0891 C   0  0  0  0  0  0  0  0  0  0  0  0
  147.0915  140.2722  152.6922 C   0  0  0  0  0  0  0  0  0  0  0  0
  146.6000  139.0508  153.4667 C   0  0  1  0  0  0  0  0  0  0  0  0
  146.7986  137.8019  152.7390 N   0  0  0  0  0  0  0  0  0  0  0  0
  145.8098  136.9690  152.3868 C   0  0  0  0  0  0  0  0  0  0  0  0
  144.6251  137.1764  152.6492 O   0  0  0  0  0  0  0  0  0  0  0  0
  146.2863  135.8990  151.7285 N   0  0  0  0  0  0  0  0  0  0  0  0
  145.5637  134.8087  151.1788 C   0  0  0  0  0  0  0  0  0  0  0  0
  144.1752  134.7924  150.8563 C   0  0  0  0  0  0  0  0  0  0  0  0
  143.9953  133.5323  150.3617 C   0  0  0  0  0  0  0  0  0  0  0  0
  145.1637  132.8382  150.3777 O   0  0  0  0  0  0  0  0  0  0  0  0
  146.1644  133.6650  150.9021 N   0  0  0  0  0  0  0  0  0  0  0  0
  147.6738  139.3624  154.5407 C   0  0  0  0  0  0  0  0  0  0  0  0
  149.0475  138.6878  154.3622 C   0  0  0  0  0  0  0  0  0  0  0  0
  147.2664  139.0983  155.9943 C   0  0  0  0  0  0  0  0  0  0  0  0
  145.1368  143.0294  154.7643 H   0  0  0  0  0  0  0  0  0  0  0  0
  145.8800  142.7676  153.1920 H   0  0  0  0  0  0  0  0  0  0  0  0
  146.8001  143.5203  154.5059 H   0  0  0  0  0  0  0  0  0  0  0  0
  149.6847  141.2319  153.6627 H   0  0  0  0  0  0  0  0  0  0  0  0
  149.0667  142.0069  155.1135 H   0  0  0  0  0  0  0  0  0  0  0  0
  148.6844  142.6495  153.5172 H   0  0  0  0  0  0  0  0  0  0  0  0
  146.3025  140.8275  152.1866 H   0  0  0  0  0  0  0  0  0  0  0  0
  147.9154  140.0557  152.0099 H   0  0  0  0  0  0  0  0  0  0  0  0
  145.5798  139.1916  153.8315 H   0  0  0  0  0  0  0  0  0  0  0  0
  147.7460  137.5608  152.4874 H   0  0  0  0  0  0  0  0  0  0  0  0
  147.2870  135.8592  151.6031 H   0  0  0  0  0  0  0  0  0  0  0  0
  143.4262  135.5625  150.9600 H   0  0  0  0  0  0  0  0  0  0  0  0
  143.1364  133.0042  149.9745 H   0  0  0  0  0  0  0  0  0  0  0  0
  149.0002  137.6172  154.5653 H   0  0  0  0  0  0  0  0  0  0  0  0
  149.7909  139.1103  155.0391 H   0  0  0  0  0  0  0  0  0  0  0  0
  149.4344  138.8012  153.3496 H   0  0  0  0  0  0  0  0  0  0  0  0
  147.3152  138.0368  156.2395 H   0  0  0  0  0  0  0  0  0  0  0  0
  146.2436  139.4168  156.1956 H   0  0  0  0  0  0  0  0  0  0  0  0
  147.9149  139.6291  156.6917 H   0  0  0  0  0  0  0  0  0  0  0  0
  1  2  1  0  0  0  0
  1 19  1  0  0  0  0
  1 20  1  0  0  0  0
  1 21  1  0  0  0  0
  2  3  1  0  0  0  0
  3 16  1  0  0  0  0
  3  4  1  0  0  0  0
  3  5  1  0  0  0  0
  4 22  1  0  0  0  0
  4 23  1  0  0  0  0
  4 24  1  0  0  0  0
  5  6  1  0  0  0  0
  5 25  1  0  0  0  0
  5 26  1  0  0  0  0
  6  7  1  0  0  0  0
  6 16  1  0  0  0  0
  6 27  1  0  0  0  0
  7  8  1  0  0  0  0
  7 28  1  0  0  0  0
  8  9  2  0  0  0  0
  8 10  1  0  0  0  0
 10 11  1  0  0  0  0
 10 29  1  0  0  0  0
 11 15  2  0  0  0  0
 11 12  1  0  0  0  0
 12 13  2  0  0  0  0
 12 30  1  0  0  0  0
 13 14  1  0  0  0  0
 13 31  1  0  0  0  0
 14 15  1  0  0  0  0
 16 17  1  0  0  0  0
 16 18  1  0  0  0  0
 17 32  1  0  0  0  0
 17 33  1  0  0  0  0
 17 34  1  0  0  0  0
 18 35  1  0  0  0  0
 18 36  1  0  0  0  0
 18 37  1  0  0  0  0
M  END
> <s_m_source_file>
AV-unprocessed.smi

> <i_m_source_file_index>
3315

> <i_lp_mmshare_version>
43012

> <i_f3d_flags>
0

> <s_epik_input>
W0NIM11PW0NAQF0xKFtDSDNdKVtDSDJdW0NASF0oQzEoW0NIM10pW0NIM10pW05IXUMoPU8pW05IXWMyW2NIXVtjSF1vbjI=

> <s_epik_cmdline>
J2VwaWtfcHl0aG9uJywgJy1waCcsICc3LjAnLCAnLXRuJywgJzgnLCAnLW1hJywgJzIwMCcsICctbWV0YWxfYmluZGluZycsICctaW1hZScsICc8aW5maWxlLm1hZT4nLCAnLW9tYWUnLCAnPG91dGZpbGUubWFlPic=

> <r_lp_tautomer_probability>
1

> <r_epik_Ionization_Penalty>
2.28875e-05

> <r_epik_Ionization_Penalty_Charging>
0

> <r_epik_Ionization_Penalty_Neutral>
2.28875e-05

> <r_epik_State_Penalty>
-0

> <r_epik_Charging_Adjusted_Penalty>
0

> <i_epik_Tot_Q>
0

> <i_epik_Tot_abs_Q>
0

> <r_epik_Metal_State_Penalty>
-0

> <b_epik_Metal_Only>
0

> <s_lp_Force_Field>
OPLS_2005

> <r_lp_Energy>
24.1983

> <b_lp_Chiralities_Consistent>
1

> <s_lp_Variant>
AV-unprocessed.smi:3315-2

> <Gold.Version>
5.8.1

> <Gold.Id.Protein>
6NUR|6NUR_protein|mol2

> <Gold.PLP.Fitness>
32.6125

> <Gold.PLP.PLP>
-24.6879

> <Gold.PLP.part.hbond>
-2.0000

> <Gold.PLP.part.metal>
0.0000

> <Gold.PLP.part.buried>
-1.4882

> <Gold.PLP.part.nonpolar>
-23.2085

> <Gold.PLP.part.repulsive>
0.7876

> <Gold.PLP.ligand.clash>
0.0000

> <Gold.PLP.ligand.torsion>
0.3199

> <Gold.PLP.Chemscore.Hbond>
1.9760

> <Gold.PLP.Chemscore.CHOScore>
0.7527

> <Gold.PLP.Chemscore.Metal>
0.0000

> <Gold.Chemscore.Hbonds>
donor molecule, donor type, donor heavy atom, donor atom, acceptor molecule, acceptor atom, score
      L1  H     7    28       P1  7948  0.96
      L1  H    10    29       P1  7948  1.00
      L1  C    13    31       P1 10186  0.62

> <Gold.PLP.Chemscore.Internal.Correction>
0.3784

> <Gold.Rescore>
     Score         DG    S(hbond)    S(metal)    S(lipo)     H(rot)  DE(clash)    DE(int)     intcor
     14.27     -15.35       1.96        0.00      56.92       1.30       0.13       0.95       ----

> <Gold.Chemscore.Fitness>
14.2711

> <Gold.Chemscore.DG>
-15.3549

> <Gold.Chemscore.ZeroCoef>
-5.4800

> <Gold.Chemscore.Hbond>
1.9621

> <Gold.Chemscore.Metal>
0.0000

> <Gold.Chemscore.Lipo>
56.9161

> <Gold.Chemscore.Internal_Hbond>
0.0000

> <Gold.Chemscore.DEClash>
0.1342

> <Gold.Chemscore.DEInternal>
0.9496

> <Gold.Chemscore.Rot>
1.3038

> <Gold.Chemscore.Internal.Correction>
   9.000000E+99

> <Gold.Chemscore.Hbonds>
donor molecule, donor type, donor heavy atom, donor atom, acceptor molecule, acceptor atom, score
      L1  H     7    28       P1  7948  0.92
      L1  H    10    29       P1  7948  0.99

> <Gold.Chemscore.Hbond.Weighted>
-6.5535

> <Gold.Chemscore.Metal.Weighted>
-0.0000

> <Gold.Chemscore.Lipo.Weighted>
-6.6592

> <Gold.Chemscore.Internal_Hbond.Weighted>
0.0000

> <Gold.Chemscore.DEClash.Weighted>
0.1342

> <Gold.Chemscore.DEInternal.Weighted>
0.9496

> <Gold.Chemscore.Rot.Weighted>
3.3377

> <Gold.Chemscore.Internal.Correction.Weighted>
   9.000000E+99

> <Gold.Protein.RotatedTorsions>
[ 6907 6896 6895 6894 ] final   18.96 input  -60.11 | X-H torsion
[ 7974 7965 7964 7962 ] final  126.41 input  175.53 | X-H torsion
[ 8008 7997 7996 7995 ] final   -5.35 input   59.86 | X-H torsion
[ 10167 10162 10161 10158 ] final   97.85 input  -65.29 | X-H torsion
[ 10718 10713 10712 10709 ] final  176.50 input   66.30 | X-H torsion
[ 10763 10752 10751 10750 ] final  118.65 input  -60.55 | X-H torsion
[ 11005 11000 10999 10996 ] final   99.88 input  -57.11 | X-H torsion

> <Gold.Protein.ActiveResidues>
 VAL166  LYS551  ARG553  GLY616  TRP617  ASP618  TYR619  PRO620  LYS621  CYS622 
 ASP623  PHE694  ASN695  SER759  ASP760  ASP761  ALA762  ILE779  LEU786  VAL792 
 PHE793  MET794  SER795  GLU796  ALA797  LYS798  CYS799  TRP800  GLU811  SER814 

> <Gold.Protein.RotatedAtoms>
  151.8735  135.0480  160.0481 H   0  0  0  0  0  0  0  0  0  0  0  0  # atno 6907 bound_to 6896
  152.2570  133.5259  159.5367 H   0  0  0  0  0  0  0  0  0  0  0  0  # atno 6908 bound_to 6896
  150.7103  134.0799  159.3936 H   0  0  0  0  0  0  0  0  0  0  0  0  # atno 6909 bound_to 6896
  145.0620  139.3797  143.5001 H   0  0  0  0  0  0  0  0  0  0  0  0  # atno 7974 bound_to 7965
  154.6049  140.2461  155.7744 H   0  0  0  0  0  0  0  0  0  0  0  0  # atno 8008 bound_to 7997
  156.2334  140.2958  156.0200 H   0  0  0  0  0  0  0  0  0  0  0  0  # atno 8009 bound_to 7997
  155.2149  140.0398  157.2930 H   0  0  0  0  0  0  0  0  0  0  0  0  # atno 8010 bound_to 7997
  139.7763  144.6904  151.0085 H   0  0  0  0  0  0  0  0  0  0  0  0  # atno 10167 bound_to 10162
  156.9192  130.9935  151.3007 H   0  0  0  0  0  0  0  0  0  0  0  0  # atno 10718 bound_to 10713
  153.5709  135.3502  155.2837 H   0  0  0  0  0  0  0  0  0  0  0  0  # atno 10763 bound_to 10752
  154.8682  135.4159  154.2726 H   0  0  0  0  0  0  0  0  0  0  0  0  # atno 10764 bound_to 10752
  153.3492  135.7054  153.6872 H   0  0  0  0  0  0  0  0  0  0  0  0  # atno 10765 bound_to 10752
  139.8770  134.9115  156.4672 H   0  0  0  0  0  0  0  0  0  0  0  0  # atno 11005 bound_to 11000
  146.3525  140.0323  142.8649 LP  0  0  0  0  0  0  0  0  0  0  0  0  # atno 17320 bound_to 7965
  145.1397  140.9564  143.4496 LP  0  0  0  0  0  0  0  0  0  0  0  0  # atno 17321 bound_to 7965
  140.7816  143.4532  151.0383 LP  0  0  0  0  0  0  0  0  0  0  0  0  # atno 17342 bound_to 10162
  139.8214  143.7815  152.3177 LP  0  0  0  0  0  0  0  0  0  0  0  0  # atno 17343 bound_to 10162
  157.5919  130.8449  149.8671 LP  0  0  0  0  0  0  0  0  0  0  0  0  # atno 17370 bound_to 10713
  156.0499  130.3720  150.1226 LP  0  0  0  0  0  0  0  0  0  0  0  0  # atno 17371 bound_to 10713
  140.8822  133.7910  155.9479 LP  0  0  0  0  0  0  0  0  0  0  0  0  # atno 17394 bound_to 11000
  140.8842  134.2574  157.5128 LP  0  0  0  0  0  0  0  0  0  0  0  0  # atno 17395 bound_to 11000

$$$$
