AV-unprocessed.smi:2244|AV-procd|sdf|9072|dock3
  -GOLD-   2272012273D 1   1.00000     0.00000
 Structure written by MMmdl.
 49 51  0  0  0  0  0  0  0  0  1 V2000
  145.0585  134.2497  153.0235 C   0  0  0  0  0  0  0  0  0  0  0  0
  144.8056  135.5562  152.2380 C   0  0  0  0  0  0  0  0  0  0  0  0
  144.9541  135.2318  150.7370 C   0  0  0  0  0  0  0  0  0  0  0  0
  143.3594  136.0033  152.5375 C   0  0  0  0  0  0  0  0  0  0  0  0
  145.7879  136.6754  152.6277 C   0  0  0  0  0  0  0  0  0  0  0  0
  145.9508  137.8593  151.8736 C   0  0  0  0  0  0  0  0  0  0  0  0
  146.8827  138.8048  152.3333 C   0  0  0  0  0  0  0  0  0  0  0  0
  147.6003  138.5274  153.5144 C   0  0  0  0  0  0  0  0  0  0  0  0
  148.5320  139.5356  153.8984 N   0  0  0  0  0  0  0  0  0  0  0  0
  149.2134  139.7318  155.0473 C   0  0  0  0  0  0  0  0  0  0  0  0
  149.0882  138.9598  155.9968 O   0  0  0  0  0  0  0  0  0  0  0  0
  150.0274  140.7997  155.0827 N   0  0  0  0  0  0  0  0  0  0  0  0
  150.8446  141.2063  156.2212 C   0  0  2  0  0  0  0  0  0  0  0  0
  151.5426  139.9788  156.8220 C   0  0  0  0  0  0  0  0  0  0  0  0
  152.3182  140.3614  158.0917 C   0  0  0  0  0  0  0  0  0  0  0  0
  151.4489  140.9762  159.0405 O   0  0  0  0  0  0  0  0  0  0  0  0
  150.7944  142.1625  158.5877 C   0  0  1  0  0  0  0  0  0  0  0  0
  151.7664  143.3260  158.4426 C   0  0  0  0  0  0  0  0  0  0  0  0
  152.3605  143.9873  159.6633 C   0  0  0  0  0  0  0  0  0  0  0  0
  151.3537  144.7302  158.8171 C   0  0  0  0  0  0  0  0  0  0  0  0
  149.9851  141.8794  157.3067 C   0  0  0  0  0  0  0  0  0  0  0  0
  147.3905  137.3672  154.1874 N   0  0  0  0  0  0  0  0  0  0  0  0
  146.5056  136.4634  153.7576 N   0  0  0  0  0  0  0  0  0  0  0  0
  144.3491  133.4724  152.7366 H   0  0  0  0  0  0  0  0  0  0  0  0
  144.9500  134.3981  154.0985 H   0  0  0  0  0  0  0  0  0  0  0  0
  146.0570  133.8530  152.8361 H   0  0  0  0  0  0  0  0  0  0  0  0
  145.9705  134.9145  150.5007 H   0  0  0  0  0  0  0  0  0  0  0  0
  144.7255  136.0943  150.1103 H   0  0  0  0  0  0  0  0  0  0  0  0
  144.2808  134.4286  150.4357 H   0  0  0  0  0  0  0  0  0  0  0  0
  142.6417  135.2212  152.2874 H   0  0  0  0  0  0  0  0  0  0  0  0
  143.0809  136.8881  151.9640 H   0  0  0  0  0  0  0  0  0  0  0  0
  143.2303  136.2419  153.5940 H   0  0  0  0  0  0  0  0  0  0  0  0
  145.3949  138.0597  150.9707 H   0  0  0  0  0  0  0  0  0  0  0  0
  147.0412  139.7230  151.7862 H   0  0  0  0  0  0  0  0  0  0  0  0
  148.7468  140.2008  153.1701 H   0  0  0  0  0  0  0  0  0  0  0  0
  150.0737  141.3824  154.2585 H   0  0  0  0  0  0  0  0  0  0  0  0
  151.6083  141.9039  155.8737 H   0  0  0  0  0  0  0  0  0  0  0  0
  150.8034  139.2154  157.0701 H   0  0  0  0  0  0  0  0  0  0  0  0
  152.2193  139.5325  156.0924 H   0  0  0  0  0  0  0  0  0  0  0  0
  152.7484  139.4685  158.5458 H   0  0  0  0  0  0  0  0  0  0  0  0
  153.1545  141.0184  157.8527 H   0  0  0  0  0  0  0  0  0  0  0  0
  150.0863  142.4328  159.3721 H   0  0  0  0  0  0  0  0  0  0  0  0
  152.4305  143.2520  157.5846 H   0  0  0  0  0  0  0  0  0  0  0  0
  152.0341  143.6348  160.6397 H   0  0  0  0  0  0  0  0  0  0  0  0
  153.3998  144.3041  159.6053 H   0  0  0  0  0  0  0  0  0  0  0  0
  151.7211  145.5431  158.1942 H   0  0  0  0  0  0  0  0  0  0  0  0
  150.3575  144.8738  159.2305 H   0  0  0  0  0  0  0  0  0  0  0  0
  149.5435  142.8037  156.9320 H   0  0  0  0  0  0  0  0  0  0  0  0
  149.1506  141.2234  157.5599 H   0  0  0  0  0  0  0  0  0  0  0  0
  1  2  1  0  0  0  0
  1 24  1  0  0  0  0
  1 25  1  0  0  0  0
  1 26  1  0  0  0  0
  2  3  1  0  0  0  0
  2  4  1  0  0  0  0
  2  5  1  0  0  0  0
  3 27  1  0  0  0  0
  3 28  1  0  0  0  0
  3 29  1  0  0  0  0
  4 30  1  0  0  0  0
  4 31  1  0  0  0  0
  4 32  1  0  0  0  0
  5 23  1  0  0  0  0
  5  6  2  0  0  0  0
  6  7  1  0  0  0  0
  6 33  1  0  0  0  0
  7  8  2  0  0  0  0
  7 34  1  0  0  0  0
  8  9  1  0  0  0  0
  8 22  1  0  0  0  0
  9 10  1  0  0  0  0
  9 35  1  0  0  0  0
 10 11  2  0  0  0  0
 10 12  1  0  0  0  0
 12 13  1  0  0  0  0
 12 36  1  0  0  0  0
 13 21  1  0  0  0  0
 13 14  1  0  0  0  0
 13 37  1  0  0  0  0
 14 15  1  0  0  0  0
 14 38  1  0  0  0  0
 14 39  1  0  0  0  0
 15 16  1  0  0  0  0
 15 40  1  0  0  0  0
 15 41  1  0  0  0  0
 16 17  1  0  0  0  0
 17 18  1  0  0  0  0
 17 21  1  0  0  0  0
 17 42  1  0  0  0  0
 18 20  1  0  0  0  0
 18 19  1  0  0  0  0
 18 43  1  0  0  0  0
 19 20  1  0  0  0  0
 19 44  1  0  0  0  0
 19 45  1  0  0  0  0
 20 46  1  0  0  0  0
 20 47  1  0  0  0  0
 21 48  1  0  0  0  0
 21 49  1  0  0  0  0
 22 23  2  0  0  0  0
M  END
> <s_m_source_file>
AV-unprocessed.smi

> <i_m_source_file_index>
2244

> <i_lp_mmshare_version>
43012

> <i_f3d_flags>
0

> <s_epik_input>
W0NIM11DKFtDSDNdKShbQ0gzXSljMVtjSF1bY0hdYyhubjEpW05IXUMoPU8pW05IXVtDQEBIXTJbQ0gyXVtDSDJdT1tDQEhdKFtDSDJdMilbQ0hdM1tDSDJdW0NIMl0z

> <s_epik_cmdline>
J2VwaWtfcHl0aG9uJywgJy1waCcsICc3LjAnLCAnLXRuJywgJzgnLCAnLW1hJywgJzIwMCcsICctbWV0YWxfYmluZGluZycsICctaW1hZScsICc8aW5maWxlLm1hZT4nLCAnLW9tYWUnLCAnPG91dGZpbGUubWFlPic=

> <r_lp_tautomer_probability>
1

> <r_epik_Ionization_Penalty>
0.011369

> <r_epik_Ionization_Penalty_Charging>
0

> <r_epik_Ionization_Penalty_Neutral>
0.011369

> <r_epik_State_Penalty>
0.00456331

> <r_epik_Charging_Adjusted_Penalty>
0.00456331

> <i_epik_Tot_Q>
0

> <i_epik_Tot_abs_Q>
0

> <r_epik_Metal_State_Penalty>
-0

> <b_epik_Metal_Only>
0

> <s_lp_Force_Field>
OPLS_2005

> <r_lp_Energy>
29.5867

> <b_lp_Chiralities_Consistent>
1

> <s_lp_Variant>
AV-unprocessed.smi:2244-1

> <Gold.Version>
5.8.1

> <Gold.Id.Protein>
6NUR|6NUR_protein|mol2

> <Gold.PLP.Fitness>
39.2759

> <Gold.PLP.PLP>
-38.5243

> <Gold.PLP.part.hbond>
-1.0000

> <Gold.PLP.part.metal>
0.0000

> <Gold.PLP.part.buried>
-2.3431

> <Gold.PLP.part.nonpolar>
-37.8965

> <Gold.PLP.part.repulsive>
1.6361

> <Gold.PLP.ligand.clash>
0.0000

> <Gold.PLP.ligand.torsion>
1.2898

> <Gold.PLP.Chemscore.Hbond>
0.7454

> <Gold.PLP.Chemscore.CHOScore>
0.0000

> <Gold.PLP.Chemscore.Metal>
0.0000

> <Gold.Chemscore.Hbonds>
donor molecule, donor type, donor heavy atom, donor atom, acceptor molecule, acceptor atom, score
      L1  H     9    35       P1  7957  0.41

> <Gold.PLP.Chemscore.Internal.Correction>
1.0949

> <Gold.Rescore>
     Score         DG    S(hbond)    S(metal)    S(lipo)     H(rot)  DE(clash)    DE(int)     intcor
     13.04     -17.47       0.86        0.00     106.45       1.30       1.19       3.24       ----

> <Gold.Chemscore.Fitness>
13.0372

> <Gold.Chemscore.DG>
-17.4742

> <Gold.Chemscore.ZeroCoef>
-5.4800

> <Gold.Chemscore.Hbond>
0.8587

> <Gold.Chemscore.Metal>
0.0000

> <Gold.Chemscore.Lipo>
106.4496

> <Gold.Chemscore.Internal_Hbond>
0.0000

> <Gold.Chemscore.DEClash>
1.1943

> <Gold.Chemscore.DEInternal>
3.2427

> <Gold.Chemscore.Rot>
1.3002

> <Gold.Chemscore.Internal.Correction>
   9.000000E+99

> <Gold.Chemscore.Hbonds>
donor molecule, donor type, donor heavy atom, donor atom, acceptor molecule, acceptor atom, score
      L1  H     9    35       P1  7957  0.41

> <Gold.Chemscore.Hbond.Weighted>
-2.8680

> <Gold.Chemscore.Metal.Weighted>
-0.0000

> <Gold.Chemscore.Lipo.Weighted>
-12.4546

> <Gold.Chemscore.Internal_Hbond.Weighted>
0.0000

> <Gold.Chemscore.DEClash.Weighted>
1.1943

> <Gold.Chemscore.DEInternal.Weighted>
3.2427

> <Gold.Chemscore.Rot.Weighted>
3.3284

> <Gold.Chemscore.Internal.Correction.Weighted>
   9.000000E+99

> <Gold.Protein.RotatedTorsions>
[ 6907 6896 6895 6894 ] final  -93.79 input  -60.11 | X-H torsion
[ 7974 7965 7964 7962 ] final  -97.87 input  175.53 | X-H torsion
[ 8008 7997 7996 7995 ] final -104.05 input   59.86 | X-H torsion
[ 10167 10162 10161 10158 ] final  -62.80 input  -65.29 | X-H torsion
[ 10718 10713 10712 10709 ] final   15.30 input   66.30 | X-H torsion
[ 10763 10752 10751 10750 ] final  178.09 input  -60.55 | X-H torsion
[ 11005 11000 10999 10996 ] final -144.32 input  -57.11 | X-H torsion

> <Gold.Protein.ActiveResidues>
 VAL166  LYS551  ARG553  GLY616  TRP617  ASP618  TYR619  PRO620  LYS621  CYS622 
 ASP623  PHE694  ASN695  SER759  ASP760  ASP761  ALA762  ILE779  LEU786  VAL792 
 PHE793  MET794  SER795  GLU796  ALA797  LYS798  CYS799  TRP800  GLU811  SER814 

> <Gold.Protein.RotatedAtoms>
  150.6929  134.1912  159.4285 H   0  0  0  0  0  0  0  0  0  0  0  0  # atno 6907 bound_to 6896
  151.9883  134.9990  160.0569 H   0  0  0  0  0  0  0  0  0  0  0  0  # atno 6908 bound_to 6896
  152.1691  133.4597  159.4937 H   0  0  0  0  0  0  0  0  0  0  0  0  # atno 6909 bound_to 6896
  145.3280  140.9435  143.2678 H   0  0  0  0  0  0  0  0  0  0  0  0  # atno 7974 bound_to 7965
  154.8797  140.0419  157.1775 H   0  0  0  0  0  0  0  0  0  0  0  0  # atno 8008 bound_to 7997
  154.8652  140.2950  155.5494 H   0  0  0  0  0  0  0  0  0  0  0  0  # atno 8009 bound_to 7997
  156.2999  140.2439  156.3632 H   0  0  0  0  0  0  0  0  0  0  0  0  # atno 8010 bound_to 7997
  140.5915  143.2342  151.6130 H   0  0  0  0  0  0  0  0  0  0  0  0  # atno 10167 bound_to 10162
  157.0516  130.6272  149.5769 H   0  0  0  0  0  0  0  0  0  0  0  0  # atno 10718 bound_to 10713
  154.5031  135.2784  155.1404 H   0  0  0  0  0  0  0  0  0  0  0  0  # atno 10763 bound_to 10752
  154.3029  135.6244  153.5436 H   0  0  0  0  0  0  0  0  0  0  0  0  # atno 10764 bound_to 10752
  152.9906  135.5701  154.5479 H   0  0  0  0  0  0  0  0  0  0  0  0  # atno 10765 bound_to 10752
  140.8036  134.2827  157.4969 H   0  0  0  0  0  0  0  0  0  0  0  0  # atno 11005 bound_to 11000
  144.8887  139.4804  143.6688 LP  0  0  0  0  0  0  0  0  0  0  0  0  # atno 17320 bound_to 7965
  146.3057  139.7571  142.9058 LP  0  0  0  0  0  0  0  0  0  0  0  0  # atno 17321 bound_to 7965
  139.5230  144.3145  152.0964 LP  0  0  0  0  0  0  0  0  0  0  0  0  # atno 17342 bound_to 10162
  140.2310  144.4368  150.6300 LP  0  0  0  0  0  0  0  0  0  0  0  0  # atno 17343 bound_to 10162
  156.0006  130.5084  150.7648 LP  0  0  0  0  0  0  0  0  0  0  0  0  # atno 17370 bound_to 10713
  157.5026  131.0919  151.0296 LP  0  0  0  0  0  0  0  0  0  0  0  0  # atno 17371 bound_to 10713
  139.8719  134.9443  156.3879 LP  0  0  0  0  0  0  0  0  0  0  0  0  # atno 17394 bound_to 11000
  140.9269  133.7606  155.9976 LP  0  0  0  0  0  0  0  0  0  0  0  0  # atno 17395 bound_to 11000

$$$$
