AV-unprocessed.smi:2083|AV-procd|sdf|8507|dock1
  -GOLD-   2272011223D 1   1.00000     0.00000
 Structure written by MMmdl.
 44 45  0  0  0  0  0  0  0  0  3 V2000
  152.9006  143.1656  160.7968 C   0  0  0  0  0  0  0  0  0  0  0  0
  152.6596  142.1795  159.7058 C   0  0  0  0  0  0  0  0  0  0  0  0
  151.9192  142.2251  158.5584 C   0  0  0  0  0  0  0  0  0  0  0  0
  152.1341  140.9432  157.9859 C   0  0  0  0  0  0  0  0  0  0  0  0
  151.5203  140.5887  156.7557 N   0  0  0  0  0  0  0  0  0  0  0  0
  151.9373  139.7080  155.8277 C   0  0  0  0  0  0  0  0  0  0  0  0
  152.9878  139.0764  155.9928 O   0  0  0  0  0  0  0  0  0  0  0  0
  151.0846  139.6360  154.7692 N   0  5  0  0  0  0  0  0  0  0  0  0
  150.6100  138.3892  154.1711 C   0  0  0  0  0  0  0  0  0  0  0  0
  149.1849  138.0359  154.7064 C   0  0  1  0  0  0  0  0  0  0  0  0
  148.0742  138.9589  154.1503 C   0  0  0  0  0  0  0  0  0  0  0  0
  148.7748  136.5964  154.5626 N   0  3  1  0  0  0  0  0  0  0  0  0
  149.7289  135.5585  155.0557 C   0  0  0  0  0  0  0  0  0  0  0  0
  149.3364  134.1705  154.5264 C   0  0  0  0  0  0  0  0  0  0  0  0
  147.8925  133.8229  154.9127 C   0  0  0  0  0  0  0  0  0  0  0  0
  146.9268  134.9167  154.4238 C   0  0  1  0  0  0  0  0  0  0  0  0
  145.4765  134.5999  154.8153 C   0  0  0  0  0  0  0  0  0  0  0  0
  147.3677  136.2956  154.9549 C   0  0  0  0  0  0  0  0  0  0  0  0
  152.9342  140.1836  158.7196 N   0  0  0  0  0  0  0  0  0  0  0  0
  153.2746  140.9719  159.8253 O   0  0  0  0  0  0  0  0  0  0  0  0
  152.5869  144.1648  160.4945 H   0  0  0  0  0  0  0  0  0  0  0  0
  153.9588  143.2076  161.0551 H   0  0  0  0  0  0  0  0  0  0  0  0
  152.3432  142.8923  161.6928 H   0  0  0  0  0  0  0  0  0  0  0  0
  151.3203  143.0445  158.1894 H   0  0  0  0  0  0  0  0  0  0  0  0
  150.6557  141.0656  156.5476 H   0  0  0  0  0  0  0  0  0  0  0  0
  150.5760  138.4410  153.0820 H   0  0  0  0  0  0  0  0  0  0  0  0
  151.2874  137.5674  154.4045 H   0  0  0  0  0  0  0  0  0  0  0  0
  149.1982  138.2204  155.7819 H   0  0  0  0  0  0  0  0  0  0  0  0
  148.2293  140.0022  154.4314 H   0  0  0  0  0  0  0  0  0  0  0  0
  147.1014  138.6730  154.5511 H   0  0  0  0  0  0  0  0  0  0  0  0
  147.9984  138.9249  153.0623 H   0  0  0  0  0  0  0  0  0  0  0  0
  150.7440  135.7853  154.7318 H   0  0  0  0  0  0  0  0  0  0  0  0
  149.7402  135.5391  156.1465 H   0  0  0  0  0  0  0  0  0  0  0  0
  149.4421  134.1489  153.4411 H   0  0  0  0  0  0  0  0  0  0  0  0
  150.0190  133.4162  154.9189 H   0  0  0  0  0  0  0  0  0  0  0  0
  147.6180  132.8573  154.4866 H   0  0  0  0  0  0  0  0  0  0  0  0
  147.8184  133.7180  155.9961 H   0  0  0  0  0  0  0  0  0  0  0  0
  146.9735  134.9448  153.3339 H   0  0  0  0  0  0  0  0  0  0  0  0
  145.3574  134.5619  155.8987 H   0  0  0  0  0  0  0  0  0  0  0  0
  145.1624  133.6365  154.4124 H   0  0  0  0  0  0  0  0  0  0  0  0
  144.7912  135.3559  154.4311 H   0  0  0  0  0  0  0  0  0  0  0  0
  147.2670  136.3245  156.0408 H   0  0  0  0  0  0  0  0  0  0  0  0
  146.7026  137.0622  154.5549 H   0  0  0  0  0  0  0  0  0  0  0  0
  148.7710  136.4676  153.5615 H   0  0  0  0  0  0  0  0  0  0  0  0
  1  2  1  0  0  0  0
  1 21  1  0  0  0  0
  1 22  1  0  0  0  0
  1 23  1  0  0  0  0
  2 20  1  0  0  0  0
  2  3  2  0  0  0  0
  3  4  1  0  0  0  0
  3 24  1  0  0  0  0
  4  5  1  0  0  0  0
  4 19  2  0  0  0  0
  5  6  1  0  0  0  0
  5 25  1  0  0  0  0
  6  7  2  0  0  0  0
  6  8  1  0  0  0  0
  8  9  1  0  0  0  0
  9 10  1  0  0  0  0
  9 26  1  0  0  0  0
  9 27  1  0  0  0  0
 10 11  1  0  0  0  0
 10 12  1  0  0  0  0
 10 28  1  0  0  0  0
 11 29  1  0  0  0  0
 11 30  1  0  0  0  0
 11 31  1  0  0  0  0
 12 18  1  0  0  0  0
 12 13  1  0  0  0  0
 12 44  1  0  0  0  0
 13 14  1  0  0  0  0
 13 32  1  0  0  0  0
 13 33  1  0  0  0  0
 14 15  1  0  0  0  0
 14 34  1  0  0  0  0
 14 35  1  0  0  0  0
 15 16  1  0  0  0  0
 15 36  1  0  0  0  0
 15 37  1  0  0  0  0
 16 17  1  0  0  0  0
 16 18  1  0  0  0  0
 16 38  1  0  0  0  0
 17 39  1  0  0  0  0
 17 40  1  0  0  0  0
 17 41  1  0  0  0  0
 18 42  1  0  0  0  0
 18 43  1  0  0  0  0
 19 20  1  0  0  0  0
M  CHG  1   8  -1
M  CHG  1  12   1
M  END
> <s_m_source_file>
AV-unprocessed.smi

> <i_m_source_file_index>
2083

> <i_lp_mmshare_version>
43012

> <i_f3d_flags>
0

> <s_epik_input>
W0NIM11jMVtjSF1jKG5vMSlbTkhdQyg9TylbTkhdW0NIMl1bQ0BIXShbQ0gzXSlOMltDSDJdW0NIMl1bQ0gyXVtDQEBIXShbQ0gzXSlbQ0gyXTI=

> <s_epik_cmdline>
J2VwaWtfcHl0aG9uJywgJy1waCcsICc3LjAnLCAnLXRuJywgJzgnLCAnLW1hJywgJzIwMCcsICctbWV0YWxfYmluZGluZycsICctaW1hZScsICc8aW5maWxlLm1hZT4nLCAnLW9tYWUnLCAnPG91dGZpbGUubWFlPic=

> <r_epik_Ionization_Penalty>
6.76934

> <r_epik_Ionization_Penalty_Charging>
6.76934

> <r_epik_Ionization_Penalty_Neutral>
5.77849e-06

> <r_epik_State_Penalty>
6.79457

> <r_epik_Charging_Adjusted_Penalty>
13.5639

> <i_epik_Tot_Q>
0

> <i_epik_Tot_abs_Q>
2

> <r_epik_Metal_State_Penalty>
2.72837

> <b_epik_Metal_Only>
1

> <s_lp_Force_Field>
OPLS_2005

> <r_lp_Energy>
21.1768

> <b_lp_Chiralities_Consistent>
1

> <s_lp_Variant>
AV-unprocessed.smi:2083-18

> <Gold.Version>
5.8.1

> <Gold.Id.Protein>
6NUR|6NUR_protein|mol2

> <Gold.PLP.Fitness>
42.5823

> <Gold.PLP.PLP>
-32.0439

> <Gold.PLP.part.hbond>
-3.4919

> <Gold.PLP.part.metal>
0.0000

> <Gold.PLP.part.buried>
-6.5097

> <Gold.PLP.part.nonpolar>
-22.8780

> <Gold.PLP.part.repulsive>
0.1781

> <Gold.PLP.ligand.clash>
0.0000

> <Gold.PLP.ligand.torsion>
0.9213

> <Gold.PLP.Chemscore.Hbond>
4.0000

> <Gold.PLP.Chemscore.CHOScore>
0.0000

> <Gold.PLP.Chemscore.Metal>
0.0000

> <Gold.Chemscore.Hbonds>
donor molecule, donor type, donor heavy atom, donor atom, acceptor molecule, acceptor atom, score
      L1  H    12    44       P1  7948  2.00
      P1  H  7989  7998       L1     8  1.00
      P1  H  7997  8008       L1     7  1.00

> <Gold.PLP.Chemscore.Internal.Correction>
0.3809

> <Gold.Rescore>
     Score         DG    S(hbond)    S(metal)    S(lipo)     H(rot)  DE(clash)    DE(int)     intcor
     16.92     -18.98       2.58        0.00      75.13       1.52       0.06       2.00       ----

> <Gold.Chemscore.Fitness>
16.9173

> <Gold.Chemscore.DG>
-18.9821

> <Gold.Chemscore.ZeroCoef>
-5.4800

> <Gold.Chemscore.Hbond>
2.5751

> <Gold.Chemscore.Metal>
0.0000

> <Gold.Chemscore.Lipo>
75.1260

> <Gold.Chemscore.Internal_Hbond>
0.0000

> <Gold.Chemscore.DEClash>
0.0605

> <Gold.Chemscore.DEInternal>
2.0043

> <Gold.Chemscore.Rot>
1.5190

> <Gold.Chemscore.Internal.Correction>
   9.000000E+99

> <Gold.Chemscore.Hbonds>
donor molecule, donor type, donor heavy atom, donor atom, acceptor molecule, acceptor atom, score
      L1  H    12    44       P1  7948  1.00
      P1  H  7989  7998       L1     8  0.54
      P1  H  7997  8008       L1     7  0.81

> <Gold.Chemscore.Hbond.Weighted>
-8.6010

> <Gold.Chemscore.Metal.Weighted>
-0.0000

> <Gold.Chemscore.Lipo.Weighted>
-8.7897

> <Gold.Chemscore.Internal_Hbond.Weighted>
0.0000

> <Gold.Chemscore.DEClash.Weighted>
0.0605

> <Gold.Chemscore.DEInternal.Weighted>
2.0043

> <Gold.Chemscore.Rot.Weighted>
3.8886

> <Gold.Chemscore.Internal.Correction.Weighted>
   9.000000E+99

> <Gold.Protein.RotatedTorsions>
[ 6907 6896 6895 6894 ] final  116.94 input  -60.11 | X-H torsion
[ 7974 7965 7964 7962 ] final  109.20 input  175.53 | X-H torsion
[ 8008 7997 7996 7995 ] final  -28.17 input   59.86 | X-H torsion
[ 10167 10162 10161 10158 ] final   29.98 input  -65.29 | X-H torsion
[ 10718 10713 10712 10709 ] final    5.40 input   66.30 | X-H torsion
[ 10763 10752 10751 10750 ] final  125.00 input  -60.55 | X-H torsion
[ 11005 11000 10999 10996 ] final  137.48 input  -57.11 | X-H torsion

> <Gold.Protein.ActiveResidues>
 VAL166  LYS551  ARG553  GLY616  TRP617  ASP618  TYR619  PRO620  LYS621  CYS622 
 ASP623  PHE694  ASN695  SER759  ASP760  ASP761  ALA762  ILE779  LEU786  VAL792 
 PHE793  MET794  SER795  GLU796  ALA797  LYS798  CYS799  TRP800  GLU811  SER814 

> <Gold.Protein.RotatedAtoms>
  152.4645  133.7892  159.6892 H   0  0  0  0  0  0  0  0  0  0  0  0  # atno 6907 bound_to 6896
  150.8603  133.7644  159.3001 H   0  0  0  0  0  0  0  0  0  0  0  0  # atno 6908 bound_to 6896
  151.5212  135.1070  159.9931 H   0  0  0  0  0  0  0  0  0  0  0  0  # atno 6909 bound_to 6896
  145.2708  139.2667  143.3967 H   0  0  0  0  0  0  0  0  0  0  0  0  # atno 7974 bound_to 7965
  154.4344  140.1852  156.1047 H   0  0  0  0  0  0  0  0  0  0  0  0  # atno 8008 bound_to 7997
  156.0265  140.3335  155.7068 H   0  0  0  0  0  0  0  0  0  0  0  0  # atno 8009 bound_to 7997
  155.5902  140.0630  157.2751 H   0  0  0  0  0  0  0  0  0  0  0  0  # atno 8010 bound_to 7997
  140.4718  144.0751  150.6239 H   0  0  0  0  0  0  0  0  0  0  0  0  # atno 10167 bound_to 10162
  156.9069  130.5742  149.5647 H   0  0  0  0  0  0  0  0  0  0  0  0  # atno 10718 bound_to 10713
  153.6703  135.3331  155.3151 H   0  0  0  0  0  0  0  0  0  0  0  0  # atno 10763 bound_to 10752
  154.8492  135.4384  154.1712 H   0  0  0  0  0  0  0  0  0  0  0  0  # atno 10764 bound_to 10752
  153.2702  135.6999  153.7565 H   0  0  0  0  0  0  0  0  0  0  0  0  # atno 10765 bound_to 10752
  140.0117  134.9436  157.0291 H   0  0  0  0  0  0  0  0  0  0  0  0  # atno 11005 bound_to 11000
  146.3247  140.3151  142.8629 LP  0  0  0  0  0  0  0  0  0  0  0  0  # atno 17320 bound_to 7965
  144.9336  140.8002  143.5674 LP  0  0  0  0  0  0  0  0  0  0  0  0  # atno 17321 bound_to 7965
  140.3967  143.2724  151.9996 LP  0  0  0  0  0  0  0  0  0  0  0  0  # atno 17342 bound_to 10162
  139.4819  144.6032  151.7569 LP  0  0  0  0  0  0  0  0  0  0  0  0  # atno 17343 bound_to 10162
  156.0555  130.5617  150.9081 LP  0  0  0  0  0  0  0  0  0  0  0  0  # atno 17370 bound_to 10713
  157.5992  131.0942  150.8990 LP  0  0  0  0  0  0  0  0  0  0  0  0  # atno 17371 bound_to 10713
  140.4543  134.1550  155.7184 LP  0  0  0  0  0  0  0  0  0  0  0  0  # atno 17394 bound_to 11000
  141.1715  133.8598  157.1555 LP  0  0  0  0  0  0  0  0  0  0  0  0  # atno 17395 bound_to 11000

$$$$
