AV-unprocessed.smi:2819|AV-procd|sdf|10850|dock1
  -GOLD-   2272015293D 1   1.00000     0.00000
 Structure written by MMmdl.
 50 51  0  0  0  0  0  0  0  0  2 V2000
  151.5007  140.4057  158.8500 C   0  0  0  0  0  0  0  0  0  0  0  0
  152.3408  141.3582  159.5699 N   0  0  0  0  0  0  0  0  0  0  0  0
  153.5677  140.9059  160.2138 C   0  0  0  0  0  0  0  0  0  0  0  0
  151.9017  142.6897  159.7437 C   0  0  0  0  0  0  0  0  0  0  0  0
  152.7455  143.7001  160.2521 C   0  0  0  0  0  0  0  0  0  0  0  0
  152.1993  144.9888  160.3863 C   0  0  0  0  0  0  0  0  0  0  0  0
  150.9135  145.2309  160.0357 N   0  3  0  0  0  0  0  0  0  0  0  0
  150.1526  144.2364  159.5527 C   0  0  0  0  0  0  0  0  0  0  0  0
  148.8550  144.5580  159.2171 N   0  0  0  0  0  0  0  0  0  0  0  0
  147.7047  144.3550  159.8877 C   0  0  0  0  0  0  0  0  0  0  0  0
  147.6076  143.8015  160.9841 O   0  0  0  0  0  0  0  0  0  0  0  0
  146.6537  144.8288  159.2026 N   0  0  0  0  0  0  0  0  0  0  0  0
  145.2546  144.7567  159.6252 C   0  0  0  0  0  0  0  0  0  0  0  0
  144.2732  144.5234  158.4382 C   0  0  0  0  0  0  0  0  0  0  0  0
  144.5677  143.1032  157.8915 C   0  0  0  0  0  0  0  0  0  0  0  0
  142.8429  144.4936  159.0298 C   0  0  0  0  0  0  0  0  0  0  0  0
  144.4425  145.5527  157.3736 N   0  0  0  0  0  0  0  0  0  0  0  0
  143.4951  145.4481  156.2572 C   0  0  0  0  0  0  0  0  0  0  0  0
  143.7987  146.4629  155.1416 C   0  0  0  0  0  0  0  0  0  0  0  0
  143.7975  147.7804  155.6774 O   0  0  0  0  0  0  0  0  0  0  0  0
  144.7464  147.9412  156.7242 C   0  0  0  0  0  0  0  0  0  0  0  0
  144.4473  146.9402  157.8528 C   0  0  0  0  0  0  0  0  0  0  0  0
  150.6267  142.9890  159.4068 N   0  0  0  0  0  0  0  0  0  0  0  0
  151.3024  140.7570  157.8368 H   0  0  0  0  0  0  0  0  0  0  0  0
  150.5476  140.2715  159.3625 H   0  0  0  0  0  0  0  0  0  0  0  0
  151.9804  139.4297  158.7742 H   0  0  0  0  0  0  0  0  0  0  0  0
  153.5072  141.0429  161.2939 H   0  0  0  0  0  0  0  0  0  0  0  0
  154.4266  141.4628  159.8381 H   0  0  0  0  0  0  0  0  0  0  0  0
  153.7486  139.8478  160.0230 H   0  0  0  0  0  0  0  0  0  0  0  0
  153.7718  143.5168  160.5333 H   0  0  0  0  0  0  0  0  0  0  0  0
  152.7510  145.8373  160.7643 H   0  0  0  0  0  0  0  0  0  0  0  0
  148.7532  145.0165  158.3241 H   0  0  0  0  0  0  0  0  0  0  0  0
  146.8250  145.2593  158.3055 H   0  0  0  0  0  0  0  0  0  0  0  0
  145.1227  143.9822  160.3831 H   0  0  0  0  0  0  0  0  0  0  0  0
  145.0193  145.6840  160.1469 H   0  0  0  0  0  0  0  0  0  0  0  0
  144.6300  142.3694  158.6960 H   0  0  0  0  0  0  0  0  0  0  0  0
  145.5108  143.0681  157.3452 H   0  0  0  0  0  0  0  0  0  0  0  0
  143.7859  142.7495  157.2193 H   0  0  0  0  0  0  0  0  0  0  0  0
  142.7530  143.7221  159.7957 H   0  0  0  0  0  0  0  0  0  0  0  0
  142.0882  144.2740  158.2752 H   0  0  0  0  0  0  0  0  0  0  0  0
  142.5729  145.4373  159.5035 H   0  0  0  0  0  0  0  0  0  0  0  0
  143.5220  144.4539  155.8147 H   0  0  0  0  0  0  0  0  0  0  0  0
  142.4765  145.6104  156.6100 H   0  0  0  0  0  0  0  0  0  0  0  0
  144.7635  146.2509  154.6786 H   0  0  0  0  0  0  0  0  0  0  0  0
  143.0458  146.3981  154.3559 H   0  0  0  0  0  0  0  0  0  0  0  0
  145.7560  147.7959  156.3370 H   0  0  0  0  0  0  0  0  0  0  0  0
  144.6916  148.9629  157.1004 H   0  0  0  0  0  0  0  0  0  0  0  0
  143.4828  147.1899  158.2951 H   0  0  0  0  0  0  0  0  0  0  0  0
  145.1971  147.0828  158.6284 H   0  0  0  0  0  0  0  0  0  0  0  0
  150.5379  146.1736  160.1425 H   0  0  0  0  0  0  0  0  0  0  0  0
  1  2  1  0  0  0  0
  1 24  1  0  0  0  0
  1 25  1  0  0  0  0
  1 26  1  0  0  0  0
  2  3  1  0  0  0  0
  2  4  1  0  0  0  0
  3 27  1  0  0  0  0
  3 28  1  0  0  0  0
  3 29  1  0  0  0  0
  4 23  1  0  0  0  0
  4  5  2  0  0  0  0
  5  6  1  0  0  0  0
  5 30  1  0  0  0  0
  6  7  2  0  0  0  0
  6 31  1  0  0  0  0
  7  8  1  0  0  0  0
  7 50  1  0  0  0  0
  8  9  1  0  0  0  0
  8 23  2  0  0  0  0
  9 10  1  0  0  0  0
  9 32  1  0  0  0  0
 10 11  2  0  0  0  0
 10 12  1  0  0  0  0
 12 13  1  0  0  0  0
 12 33  1  0  0  0  0
 13 14  1  0  0  0  0
 13 34  1  0  0  0  0
 13 35  1  0  0  0  0
 14 15  1  0  0  0  0
 14 16  1  0  0  0  0
 14 17  1  0  0  0  0
 15 36  1  0  0  0  0
 15 37  1  0  0  0  0
 15 38  1  0  0  0  0
 16 39  1  0  0  0  0
 16 40  1  0  0  0  0
 16 41  1  0  0  0  0
 17 22  1  0  0  0  0
 17 18  1  0  0  0  0
 18 19  1  0  0  0  0
 18 42  1  0  0  0  0
 18 43  1  0  0  0  0
 19 20  1  0  0  0  0
 19 44  1  0  0  0  0
 19 45  1  0  0  0  0
 20 21  1  0  0  0  0
 21 22  1  0  0  0  0
 21 46  1  0  0  0  0
 21 47  1  0  0  0  0
 22 48  1  0  0  0  0
 22 49  1  0  0  0  0
M  CHG  1   7   1
M  END
> <s_m_source_file>
AV-unprocessed.smi

> <i_m_source_file_index>
2819

> <i_lp_mmshare_version>
43012

> <i_f3d_flags>
0

> <s_epik_input>
W0NIM11OKFtDSDNdKWMxW2NIXVtjSF1uYyhuMSlbTkhdQyg9TylbTkhdW0NIMl1DKFtDSDNdKShbQ0gzXSlOMltDSDJdW0NIMl1PW0NIMl1bQ0gyXTI=

> <s_epik_cmdline>
J2VwaWtfcHl0aG9uJywgJy1waCcsICc3LjAnLCAnLXRuJywgJzgnLCAnLW1hJywgJzIwMCcsICctbWV0YWxfYmluZGluZycsICctaW1hZScsICc8aW5maWxlLm1hZT4nLCAnLW9tYWUnLCAnPG91dGZpbGUubWFlPic=

> <r_lp_tautomer_probability>
0.999336

> <r_epik_Ionization_Penalty>
0.36245

> <r_epik_Ionization_Penalty_Charging>
0.09642

> <r_epik_Ionization_Penalty_Neutral>
0.26603

> <r_epik_State_Penalty>
0.34182

> <r_epik_Charging_Adjusted_Penalty>
0.43824

> <i_epik_Tot_Q>
1

> <i_epik_Tot_abs_Q>
1

> <r_epik_Metal_State_Penalty>
0.680072

> <b_epik_Metal_Only>
0

> <s_lp_Force_Field>
OPLS_2005

> <r_lp_Energy>
46.6514

> <b_lp_Chiralities_Consistent>
1

> <s_lp_Variant>
AV-unprocessed.smi:2819-1

> <Gold.Version>
5.8.1

> <Gold.Id.Protein>
6NUR|6NUR_protein|mol2

> <Gold.PLP.Fitness>
45.3621

> <Gold.PLP.PLP>
-38.3333

> <Gold.PLP.part.hbond>
-4.7406

> <Gold.PLP.part.metal>
0.0000

> <Gold.PLP.part.buried>
-6.8577

> <Gold.PLP.part.nonpolar>
-26.5145

> <Gold.PLP.part.repulsive>
0.6763

> <Gold.PLP.ligand.clash>
0.0000

> <Gold.PLP.ligand.torsion>
1.0887

> <Gold.PLP.Chemscore.Hbond>
2.9920

> <Gold.PLP.Chemscore.CHOScore>
0.0000

> <Gold.PLP.Chemscore.Metal>
0.0000

> <Gold.Chemscore.Hbonds>
donor molecule, donor type, donor heavy atom, donor atom, acceptor molecule, acceptor atom, score
      L1  H     9    32       P1  8029  1.00
      L1  H    12    33       P1  8029  1.00
      P1  H  6933  6944       L1    11  1.00

> <Gold.PLP.Chemscore.Internal.Correction>
0.2303

> <Gold.Rescore>
     Score         DG    S(hbond)    S(metal)    S(lipo)     H(rot)  DE(clash)    DE(int)     intcor
     18.02     -19.57       2.88        0.00      71.51       1.53       0.61       0.94       ----

> <Gold.Chemscore.Fitness>
18.0227

> <Gold.Chemscore.DG>
-19.5659

> <Gold.Chemscore.ZeroCoef>
-5.4800

> <Gold.Chemscore.Hbond>
2.8835

> <Gold.Chemscore.Metal>
0.0000

> <Gold.Chemscore.Lipo>
71.5135

> <Gold.Chemscore.Internal_Hbond>
0.0000

> <Gold.Chemscore.DEClash>
0.6057

> <Gold.Chemscore.DEInternal>
0.9375

> <Gold.Chemscore.Rot>
1.5282

> <Gold.Chemscore.Internal.Correction>
   9.000000E+99

> <Gold.Chemscore.Hbonds>
donor molecule, donor type, donor heavy atom, donor atom, acceptor molecule, acceptor atom, score
      L1  H     9    32       P1  8029  0.82
      L1  H    12    33       P1  8029  0.93
      P1  H  6933  6944       L1    11  1.00

> <Gold.Chemscore.Hbond.Weighted>
-9.6309

> <Gold.Chemscore.Metal.Weighted>
-0.0000

> <Gold.Chemscore.Lipo.Weighted>
-8.3671

> <Gold.Chemscore.Internal_Hbond.Weighted>
0.0000

> <Gold.Chemscore.DEClash.Weighted>
0.6057

> <Gold.Chemscore.DEInternal.Weighted>
0.9375

> <Gold.Chemscore.Rot.Weighted>
3.9121

> <Gold.Chemscore.Internal.Correction.Weighted>
   9.000000E+99

> <Gold.Protein.RotatedTorsions>
[ 6907 6896 6895 6894 ] final -139.23 input  -60.11 | X-H torsion
[ 7974 7965 7964 7962 ] final   21.71 input  175.53 | X-H torsion
[ 8008 7997 7996 7995 ] final  103.10 input   59.86 | X-H torsion
[ 10167 10162 10161 10158 ] final    4.84 input  -65.29 | X-H torsion
[ 10718 10713 10712 10709 ] final  155.27 input   66.30 | X-H torsion
[ 10763 10752 10751 10750 ] final  -47.56 input  -60.55 | X-H torsion
[ 11005 11000 10999 10996 ] final   -4.18 input  -57.11 | X-H torsion

> <Gold.Protein.ActiveResidues>
 VAL166  LYS551  ARG553  GLY616  TRP617  ASP618  TYR619  PRO620  LYS621  CYS622 
 ASP623  PHE694  ASN695  SER759  ASP760  ASP761  ALA762  ILE779  LEU786  VAL792 
 PHE793  MET794  SER795  GLU796  ALA797  LYS798  CYS799  TRP800  GLU811  SER814 

> <Gold.Protein.RotatedAtoms>
  151.0452  133.5672  159.2647 H   0  0  0  0  0  0  0  0  0  0  0  0  # atno 6907 bound_to 6896
  151.2703  135.0682  159.9141 H   0  0  0  0  0  0  0  0  0  0  0  0  # atno 6908 bound_to 6896
  152.5372  134.0183  159.8024 H   0  0  0  0  0  0  0  0  0  0  0  0  # atno 6909 bound_to 6896
  146.2060  139.7988  142.8726 H   0  0  0  0  0  0  0  0  0  0  0  0  # atno 7974 bound_to 7965
  156.1454  140.3170  155.8561 H   0  0  0  0  0  0  0  0  0  0  0  0  # atno 8008 bound_to 7997
  155.4075  140.0503  157.3050 H   0  0  0  0  0  0  0  0  0  0  0  0  # atno 8009 bound_to 7997
  154.5011  140.2130  155.9356 H   0  0  0  0  0  0  0  0  0  0  0  0  # atno 8010 bound_to 7997
  140.6513  143.7537  150.7580 H   0  0  0  0  0  0  0  0  0  0  0  0  # atno 10167 bound_to 10162
  157.2206  131.0717  151.1914 H   0  0  0  0  0  0  0  0  0  0  0  0  # atno 10718 bound_to 10713
  154.0634  135.6615  153.4815 H   0  0  0  0  0  0  0  0  0  0  0  0  # atno 10763 bound_to 10752
  153.0418  135.5140  154.7637 H   0  0  0  0  0  0  0  0  0  0  0  0  # atno 10764 bound_to 10752
  154.6680  135.3025  154.9747 H   0  0  0  0  0  0  0  0  0  0  0  0  # atno 10765 bound_to 10752
  140.6775  133.9183  155.8534 H   0  0  0  0  0  0  0  0  0  0  0  0  # atno 11005 bound_to 11000
  145.3318  141.0268  143.3442 LP  0  0  0  0  0  0  0  0  0  0  0  0  # atno 17320 bound_to 7965
  144.8793  139.4926  143.6730 LP  0  0  0  0  0  0  0  0  0  0  0  0  # atno 17321 bound_to 7965
  140.1188  143.4631  152.2326 LP  0  0  0  0  0  0  0  0  0  0  0  0  # atno 17342 bound_to 10162
  139.5729  144.7472  151.3842 LP  0  0  0  0  0  0  0  0  0  0  0  0  # atno 17343 bound_to 10162
  157.3580  130.7116  149.6483 LP  0  0  0  0  0  0  0  0  0  0  0  0  # atno 17370 bound_to 10713
  155.9682  130.4233  150.4559 LP  0  0  0  0  0  0  0  0  0  0  0  0  # atno 17371 bound_to 10713
  141.0344  134.0711  157.3977 LP  0  0  0  0  0  0  0  0  0  0  0  0  # atno 17394 bound_to 11000
  139.8962  135.0144  156.7040 LP  0  0  0  0  0  0  0  0  0  0  0  0  # atno 17395 bound_to 11000

$$$$
