AV-unprocessed.smi:2448|AV-procd|sdf|9654|dock6
  -GOLD-   2272013283D 1   1.00000     0.00000
 Structure written by MMmdl.
 37 38  0  0  0  0  0  0  0  0  1 V2000
  146.5999  132.6176  150.1358 O   0  0  0  0  0  0  0  0  0  0  0  0
  146.2517  133.0370  151.4436 C   0  0  2  0  0  0  0  0  0  0  0  0
  147.5271  133.0388  152.3099 C   0  0  0  0  0  0  0  0  0  0  0  0
  148.1112  131.7001  152.4335 N   0  0  0  0  0  0  0  0  0  0  0  0
  149.3809  131.6197  153.1701 C   0  0  1  0  0  0  0  0  0  0  0  0
  149.2840  132.2507  154.5833 C   0  0  0  0  0  0  0  0  0  0  0  0
  150.0742  133.5328  154.7748 C   0  0  0  0  0  0  0  0  0  0  0  0
  149.7098  134.7121  154.0929 C   0  0  0  0  0  0  0  0  0  0  0  0
  150.4706  135.8780  154.3128 C   0  0  0  0  0  0  0  0  0  0  0  0
  151.5339  135.9240  155.1439 N   0  0  0  0  0  0  0  0  0  0  0  0
  151.8814  134.7894  155.7886 C   0  0  0  0  0  0  0  0  0  0  0  0
  151.1898  133.5709  155.6379 C   0  0  0  0  0  0  0  0  0  0  0  0
  149.8311  130.1460  153.2586 C   0  0  0  0  0  0  0  0  0  0  0  0
  149.6356  129.5422  152.0858 F   0  0  0  0  0  0  0  0  0  0  0  0
  151.1305  130.0756  153.5480 F   0  0  0  0  0  0  0  0  0  0  0  0
  149.1424  129.4952  154.1973 F   0  0  0  0  0  0  0  0  0  0  0  0
  145.1259  132.1454  151.9980 C   0  0  0  0  0  0  0  0  0  0  0  0
  143.8315  132.5117  151.2657 C   0  0  0  0  0  0  0  0  0  0  0  0
  143.8916  134.2825  150.8961 S   0  0  0  0  0  0  0  0  0  0  0  0
  145.6425  134.4459  151.3371 C   0  0  0  0  0  0  0  0  0  0  0  0
  147.4956  132.3168  150.1466 H   0  0  0  0  0  0  0  0  0  0  0  0
  148.2592  133.7276  151.8863 H   0  0  0  0  0  0  0  0  0  0  0  0
  147.2707  133.4359  153.2881 H   0  0  0  0  0  0  0  0  0  0  0  0
  148.2424  131.3109  151.5051 H   0  0  0  0  0  0  0  0  0  0  0  0
  150.1553  132.1413  152.6057 H   0  0  0  0  0  0  0  0  0  0  0  0
  148.2383  132.4243  154.8408 H   0  0  0  0  0  0  0  0  0  0  0  0
  149.6556  131.5444  155.3258 H   0  0  0  0  0  0  0  0  0  0  0  0
  148.8657  134.7269  153.4190 H   0  0  0  0  0  0  0  0  0  0  0  0
  150.2171  136.7983  153.8080 H   0  0  0  0  0  0  0  0  0  0  0  0
  152.7358  134.8542  156.4458 H   0  0  0  0  0  0  0  0  0  0  0  0
  151.5051  132.6924  156.1814 H   0  0  0  0  0  0  0  0  0  0  0  0
  145.3499  131.0822  151.9034 H   0  0  0  0  0  0  0  0  0  0  0  0
  144.9992  132.3488  153.0625 H   0  0  0  0  0  0  0  0  0  0  0  0
  143.7700  131.9706  150.3211 H   0  0  0  0  0  0  0  0  0  0  0  0
  142.9449  132.2626  151.8490 H   0  0  0  0  0  0  0  0  0  0  0  0
  145.6798  134.9441  152.3067 H   0  0  0  0  0  0  0  0  0  0  0  0
  146.1706  135.0837  150.6271 H   0  0  0  0  0  0  0  0  0  0  0  0
  1  2  1  0  0  0  0
  1 21  1  0  0  0  0
  2 20  1  0  0  0  0
  2  3  1  0  0  0  0
  2 17  1  0  0  0  0
  3  4  1  0  0  0  0
  3 22  1  0  0  0  0
  3 23  1  0  0  0  0
  4  5  1  0  0  0  0
  4 24  1  0  0  0  0
  5  6  1  0  0  0  0
  5 13  1  0  0  0  0
  5 25  1  0  0  0  0
  6  7  1  0  0  0  0
  6 26  1  0  0  0  0
  6 27  1  0  0  0  0
  7 12  1  0  0  0  0
  7  8  2  0  0  0  0
  8  9  1  0  0  0  0
  8 28  1  0  0  0  0
  9 10  2  0  0  0  0
  9 29  1  0  0  0  0
 10 11  1  0  0  0  0
 11 12  2  0  0  0  0
 11 30  1  0  0  0  0
 12 31  1  0  0  0  0
 13 14  1  0  0  0  0
 13 15  1  0  0  0  0
 13 16  1  0  0  0  0
 17 18  1  0  0  0  0
 17 32  1  0  0  0  0
 17 33  1  0  0  0  0
 18 19  1  0  0  0  0
 18 34  1  0  0  0  0
 18 35  1  0  0  0  0
 19 20  1  0  0  0  0
 20 36  1  0  0  0  0
 20 37  1  0  0  0  0
M  END
> <s_m_source_file>
AV-unprocessed.smi

> <i_m_source_file_index>
2448

> <i_lp_mmshare_version>
43012

> <i_f3d_flags>
0

> <s_epik_input>
W0NIMl0xU1tDSDJdW0NIMl1bQ0BAXTEoW09IXSlbQ0gyXVtOSF1bQ0BASF0oQyhGKShGKUYpW0NIMl1jMltjSF1bY0hdbltjSF1bY0hdMg==

> <s_epik_cmdline>
J2VwaWtfcHl0aG9uJywgJy1waCcsICc3LjAnLCAnLXRuJywgJzgnLCAnLW1hJywgJzIwMCcsICctbWV0YWxfYmluZGluZycsICctaW1hZScsICc8aW5maWxlLm1hZT4nLCAnLW9tYWUnLCAnPG91dGZpbGUubWFlPic=

> <r_epik_Ionization_Penalty>
0.187708

> <r_epik_Ionization_Penalty_Charging>
0

> <r_epik_Ionization_Penalty_Neutral>
0.187708

> <r_epik_State_Penalty>
0.22769

> <r_epik_Charging_Adjusted_Penalty>
0.22769

> <i_epik_Tot_Q>
0

> <i_epik_Tot_abs_Q>
0

> <r_epik_Metal_State_Penalty>
0.176206

> <b_epik_Metal_Only>
0

> <s_lp_Force_Field>
OPLS_2005

> <r_lp_Energy>
32.1686

> <b_lp_Chiralities_Consistent>
1

> <s_lp_Variant>
AV-unprocessed.smi:2448-4

> <Gold.Version>
5.8.1

> <Gold.Id.Protein>
6NUR|6NUR_protein|mol2

> <Gold.PLP.Fitness>
45.1782

> <Gold.PLP.PLP>
-36.3794

> <Gold.PLP.part.hbond>
-2.8736

> <Gold.PLP.part.metal>
0.0000

> <Gold.PLP.part.buried>
-2.3635

> <Gold.PLP.part.nonpolar>
-29.3718

> <Gold.PLP.part.repulsive>
0.0601

> <Gold.PLP.ligand.clash>
0.0000

> <Gold.PLP.ligand.torsion>
1.1613

> <Gold.PLP.Chemscore.Hbond>
2.9440

> <Gold.PLP.Chemscore.CHOScore>
0.5754

> <Gold.PLP.Chemscore.Metal>
0.0000

> <Gold.Chemscore.Hbonds>
donor molecule, donor type, donor heavy atom, donor atom, acceptor molecule, acceptor atom, score
      L1  H     1    21       P1 10747  0.89
      L1  H     4    24       P1 10747  0.91
      L1  C     9    29       P1  7948  0.47
      L1  C     9    29       P1  7949  0.04

> <Gold.PLP.Chemscore.Internal.Correction>
0.5633

> <Gold.Rescore>
     Score         DG    S(hbond)    S(metal)    S(lipo)     H(rot)  DE(clash)    DE(int)     intcor
     15.56     -16.72       2.18        0.00      84.46       2.31       0.22       0.94       ----

> <Gold.Chemscore.Fitness>
15.5641

> <Gold.Chemscore.DG>
-16.7245

> <Gold.Chemscore.ZeroCoef>
-5.4800

> <Gold.Chemscore.Hbond>
2.1792

> <Gold.Chemscore.Metal>
0.0000

> <Gold.Chemscore.Lipo>
84.4629

> <Gold.Chemscore.Internal_Hbond>
0.0000

> <Gold.Chemscore.DEClash>
0.2162

> <Gold.Chemscore.DEInternal>
0.9442

> <Gold.Chemscore.Rot>
2.3111

> <Gold.Chemscore.Internal.Correction>
   9.000000E+99

> <Gold.Chemscore.Hbonds>
donor molecule, donor type, donor heavy atom, donor atom, acceptor molecule, acceptor atom, score
      L1  H     1    21       P1 10747  0.85
      L1  H     4    24       P1 10747  0.88

> <Gold.Chemscore.Hbond.Weighted>
-7.2787

> <Gold.Chemscore.Metal.Weighted>
-0.0000

> <Gold.Chemscore.Lipo.Weighted>
-9.8822

> <Gold.Chemscore.Internal_Hbond.Weighted>
0.0000

> <Gold.Chemscore.DEClash.Weighted>
0.2162

> <Gold.Chemscore.DEInternal.Weighted>
0.9442

> <Gold.Chemscore.Rot.Weighted>
5.9164

> <Gold.Chemscore.Internal.Correction.Weighted>
   9.000000E+99

> <Gold.Protein.RotatedTorsions>
[ 6907 6896 6895 6894 ] final   58.57 input  -60.11 | X-H torsion
[ 7974 7965 7964 7962 ] final  154.59 input  175.53 | X-H torsion
[ 8008 7997 7996 7995 ] final -119.05 input   59.86 | X-H torsion
[ 10167 10162 10161 10158 ] final -158.33 input  -65.29 | X-H torsion
[ 10718 10713 10712 10709 ] final  -45.41 input   66.30 | X-H torsion
[ 10763 10752 10751 10750 ] final  -54.85 input  -60.55 | X-H torsion
[ 11005 11000 10999 10996 ] final  105.48 input  -57.11 | X-H torsion

> <Gold.Protein.ActiveResidues>
 VAL166  LYS551  ARG553  GLY616  TRP617  ASP618  TYR619  PRO620  LYS621  CYS622 
 ASP623  PHE694  ASN695  SER759  ASP760  ASP761  ALA762  ILE779  LEU786  VAL792 
 PHE793  MET794  SER795  GLU796  ALA797  LYS798  CYS799  TRP800  GLU811  SER814 

> <Gold.Protein.RotatedAtoms>
  152.3836  134.6552  160.0133 H   0  0  0  0  0  0  0  0  0  0  0  0  # atno 6907 bound_to 6896
  151.6808  133.3306  159.3227 H   0  0  0  0  0  0  0  0  0  0  0  0  # atno 6908 bound_to 6896
  150.7767  134.6719  159.6441 H   0  0  0  0  0  0  0  0  0  0  0  0  # atno 6909 bound_to 6896
  144.8079  139.6954  143.6154 H   0  0  0  0  0  0  0  0  0  0  0  0  # atno 7974 bound_to 7965
  155.1095  140.0397  157.2720 H   0  0  0  0  0  0  0  0  0  0  0  0  # atno 8008 bound_to 7997
  154.6696  140.2609  155.6995 H   0  0  0  0  0  0  0  0  0  0  0  0  # atno 8009 bound_to 7997
  156.2653  140.2800  156.1200 H   0  0  0  0  0  0  0  0  0  0  0  0  # atno 8010 bound_to 7997
  139.6701  143.9760  152.2278 H   0  0  0  0  0  0  0  0  0  0  0  0  # atno 10167 bound_to 10162
  156.2286  130.4171  149.8902 H   0  0  0  0  0  0  0  0  0  0  0  0  # atno 10718 bound_to 10713
  154.1814  135.6442  153.5035 H   0  0  0  0  0  0  0  0  0  0  0  0  # atno 10763 bound_to 10752
  153.0058  135.5407  154.6510 H   0  0  0  0  0  0  0  0  0  0  0  0  # atno 10764 bound_to 10752
  154.5875  135.2931  155.0642 H   0  0  0  0  0  0  0  0  0  0  0  0  # atno 10765 bound_to 10752
  139.8802  134.9337  156.5520 H   0  0  0  0  0  0  0  0  0  0  0  0  # atno 11005 bound_to 11000
  146.2373  139.5931  142.9515 LP  0  0  0  0  0  0  0  0  0  0  0  0  # atno 17320 bound_to 7965
  145.5394  141.0422  143.2339 LP  0  0  0  0  0  0  0  0  0  0  0  0  # atno 17321 bound_to 7965
  139.9522  144.6613  150.8160 LP  0  0  0  0  0  0  0  0  0  0  0  0  # atno 17342 bound_to 10162
  140.7614  143.3175  151.2700 LP  0  0  0  0  0  0  0  0  0  0  0  0  # atno 17343 bound_to 10162
  156.6524  130.8749  151.3533 LP  0  0  0  0  0  0  0  0  0  0  0  0  # atno 17370 bound_to 10713
  157.7122  130.9454  150.1130 LP  0  0  0  0  0  0  0  0  0  0  0  0  # atno 17371 bound_to 10713
  140.8233  133.8337  155.8915 LP  0  0  0  0  0  0  0  0  0  0  0  0  # atno 17394 bound_to 11000
  140.9398  134.1915  157.4805 LP  0  0  0  0  0  0  0  0  0  0  0  0  # atno 17395 bound_to 11000

$$$$
