AV-unprocessed.smi:2300|AV-procd|sdf|9232|dock4
  -GOLD-   2272012453D 1   1.00000     0.00000
 Structure written by MMmdl.
 51 52  0  0  0  0  0  0  0  0  1 V2000
  145.7460  138.7277  152.7205 C   0  0  0  0  0  0  0  0  0  0  0  0
  146.3107  139.4627  153.9316 C   0  0  0  0  0  0  0  0  0  0  0  0
  145.8604  139.2389  155.0548 O   0  0  0  0  0  0  0  0  0  0  0  0
  147.2965  140.3390  153.6889 N   0  0  0  0  0  0  0  0  0  0  0  0
  147.9777  141.1359  154.7035 C   0  0  0  0  0  0  0  0  0  0  0  0
  149.0658  140.3263  155.4287 C   0  0  2  0  0  0  0  0  0  0  0  0
  149.9876  141.2329  156.2660 C   0  0  0  0  0  0  0  0  0  0  0  0
  151.0717  140.4538  156.8614 N   0  0  0  0  0  0  0  0  0  0  0  0
  151.8521  141.0704  157.8631 C   0  0  0  0  0  0  0  0  0  0  0  0
  151.5716  142.3881  158.2965 C   0  0  0  0  0  0  0  0  0  0  0  0
  152.4047  142.9235  159.3017 C   0  0  0  0  0  0  0  0  0  0  0  0
  152.1931  144.3331  159.8357 C   0  0  0  0  0  0  0  0  0  0  0  0
  152.0713  144.3503  161.3675 C   0  0  0  0  0  0  0  0  0  0  0  0
  151.0099  145.0317  159.1476 C   0  0  0  0  0  0  0  0  0  0  0  0
  153.4253  142.2115  159.8281 N   0  0  0  0  0  0  0  0  0  0  0  0
  153.6142  140.9785  159.3503 C   0  0  0  0  0  0  0  0  0  0  0  0
  154.7667  140.1765  159.9403 C   0  0  0  0  0  0  0  0  0  0  0  0
  154.8728  138.7769  159.3154 C   0  0  0  0  0  0  0  0  0  0  0  0
  154.7207  140.1485  161.4759 C   0  0  0  0  0  0  0  0  0  0  0  0
  152.8867  140.3798  158.4028 N   0  0  0  0  0  0  0  0  0  0  0  0
  151.8049  139.6435  155.8923 C   0  0  0  0  0  0  0  0  0  0  0  0
  150.8311  138.8020  155.0505 C   0  0  0  0  0  0  0  0  0  0  0  0
  149.8548  139.6486  154.4535 O   0  0  0  0  0  0  0  0  0  0  0  0
  146.5498  138.3718  152.0750 H   0  0  0  0  0  0  0  0  0  0  0  0
  145.1048  139.3919  152.1407 H   0  0  0  0  0  0  0  0  0  0  0  0
  145.1543  137.8662  153.0322 H   0  0  0  0  0  0  0  0  0  0  0  0
  147.6066  140.4542  152.7351 H   0  0  0  0  0  0  0  0  0  0  0  0
  148.4198  142.0069  154.2191 H   0  0  0  0  0  0  0  0  0  0  0  0
  147.2490  141.5182  155.4203 H   0  0  0  0  0  0  0  0  0  0  0  0
  148.5917  139.5937  156.0850 H   0  0  0  0  0  0  0  0  0  0  0  0
  150.4118  142.0206  155.6417 H   0  0  0  0  0  0  0  0  0  0  0  0
  149.4006  141.7163  157.0481 H   0  0  0  0  0  0  0  0  0  0  0  0
  150.7700  142.9738  157.8729 H   0  0  0  0  0  0  0  0  0  0  0  0
  153.0855  144.9084  159.5856 H   0  0  0  0  0  0  0  0  0  0  0  0
  152.9513  143.9071  161.8348 H   0  0  0  0  0  0  0  0  0  0  0  0
  151.1977  143.7916  161.7052 H   0  0  0  0  0  0  0  0  0  0  0  0
  151.9770  145.3698  161.7421 H   0  0  0  0  0  0  0  0  0  0  0  0
  151.1492  145.0626  158.0667 H   0  0  0  0  0  0  0  0  0  0  0  0
  150.9050  146.0594  159.4962 H   0  0  0  0  0  0  0  0  0  0  0  0
  150.0697  144.5168  159.3480 H   0  0  0  0  0  0  0  0  0  0  0  0
  155.6889  140.6970  159.6748 H   0  0  0  0  0  0  0  0  0  0  0  0
  154.9854  138.8400  158.2328 H   0  0  0  0  0  0  0  0  0  0  0  0
  153.9856  138.1784  159.5245 H   0  0  0  0  0  0  0  0  0  0  0  0
  155.7355  138.2373  159.7067 H   0  0  0  0  0  0  0  0  0  0  0  0
  154.7234  141.1588  161.8855 H   0  0  0  0  0  0  0  0  0  0  0  0
  155.5849  139.6243  161.8846 H   0  0  0  0  0  0  0  0  0  0  0  0
  153.8248  139.6436  161.8390 H   0  0  0  0  0  0  0  0  0  0  0  0
  152.3804  140.3060  155.2447 H   0  0  0  0  0  0  0  0  0  0  0  0
  152.5167  138.9774  156.3774 H   0  0  0  0  0  0  0  0  0  0  0  0
  151.3733  138.2770  154.2642 H   0  0  0  0  0  0  0  0  0  0  0  0
  150.3437  138.0415  155.6626 H   0  0  0  0  0  0  0  0  0  0  0  0
  1  2  1  0  0  0  0
  1 24  1  0  0  0  0
  1 25  1  0  0  0  0
  1 26  1  0  0  0  0
  2  3  2  0  0  0  0
  2  4  1  0  0  0  0
  4  5  1  0  0  0  0
  4 27  1  0  0  0  0
  5  6  1  0  0  0  0
  5 28  1  0  0  0  0
  5 29  1  0  0  0  0
  6 23  1  0  0  0  0
  6  7  1  0  0  0  0
  6 30  1  0  0  0  0
  7  8  1  0  0  0  0
  7 31  1  0  0  0  0
  7 32  1  0  0  0  0
  8  9  1  0  0  0  0
  8 21  1  0  0  0  0
  9 20  1  0  0  0  0
  9 10  2  0  0  0  0
 10 11  1  0  0  0  0
 10 33  1  0  0  0  0
 11 12  1  0  0  0  0
 11 15  2  0  0  0  0
 12 13  1  0  0  0  0
 12 14  1  0  0  0  0
 12 34  1  0  0  0  0
 13 35  1  0  0  0  0
 13 36  1  0  0  0  0
 13 37  1  0  0  0  0
 14 38  1  0  0  0  0
 14 39  1  0  0  0  0
 14 40  1  0  0  0  0
 15 16  1  0  0  0  0
 16 17  1  0  0  0  0
 16 20  2  0  0  0  0
 17 18  1  0  0  0  0
 17 19  1  0  0  0  0
 17 41  1  0  0  0  0
 18 42  1  0  0  0  0
 18 43  1  0  0  0  0
 18 44  1  0  0  0  0
 19 45  1  0  0  0  0
 19 46  1  0  0  0  0
 19 47  1  0  0  0  0
 21 22  1  0  0  0  0
 21 48  1  0  0  0  0
 21 49  1  0  0  0  0
 22 23  1  0  0  0  0
 22 50  1  0  0  0  0
 22 51  1  0  0  0  0
M  END
> <s_m_source_file>
AV-unprocessed.smi

> <i_m_source_file_index>
2300

> <i_lp_mmshare_version>
43012

> <i_f3d_flags>
0

> <s_epik_input>
W0NIM11DKD1PKVtOSF1bQ0gyXVtDQEBIXTFbQ0gyXU4oW0NIMl1bQ0gyXU8xKWMyW2NIXWMoW0NIXShbQ0gzXSlbQ0gzXSluYyhuMilbQ0hdKFtDSDNdKVtDSDNd

> <s_epik_cmdline>
J2VwaWtfcHl0aG9uJywgJy1waCcsICc3LjAnLCAnLXRuJywgJzgnLCAnLW1hJywgJzIwMCcsICctbWV0YWxfYmluZGluZycsICctaW1hZScsICc8aW5maWxlLm1hZT4nLCAnLW9tYWUnLCAnPG91dGZpbGUubWFlPic=

> <r_lp_tautomer_probability>
1

> <r_epik_Ionization_Penalty>
0.0035465

> <r_epik_Ionization_Penalty_Charging>
0

> <r_epik_Ionization_Penalty_Neutral>
0.0035465

> <r_epik_State_Penalty>
0.00247846

> <r_epik_Charging_Adjusted_Penalty>
0.00247846

> <i_epik_Tot_Q>
0

> <i_epik_Tot_abs_Q>
0

> <r_epik_Metal_State_Penalty>
-0

> <b_epik_Metal_Only>
0

> <s_lp_Force_Field>
OPLS_2005

> <r_lp_Energy>
0.953056

> <b_lp_Chiralities_Consistent>
1

> <s_lp_Variant>
AV-unprocessed.smi:2300-1

> <Gold.Version>
5.8.1

> <Gold.Id.Protein>
6NUR|6NUR_protein|mol2

> <Gold.PLP.Fitness>
58.4762

> <Gold.PLP.PLP>
-51.0359

> <Gold.PLP.part.hbond>
-2.8316

> <Gold.PLP.part.metal>
0.0000

> <Gold.PLP.part.buried>
-6.2674

> <Gold.PLP.part.nonpolar>
-42.5441

> <Gold.PLP.part.repulsive>
0.6872

> <Gold.PLP.ligand.clash>
0.0000

> <Gold.PLP.ligand.torsion>
0.6337

> <Gold.PLP.Chemscore.Hbond>
2.7361

> <Gold.PLP.Chemscore.CHOScore>
0.0000

> <Gold.PLP.Chemscore.Metal>
0.0000

> <Gold.Chemscore.Hbonds>
donor molecule, donor type, donor heavy atom, donor atom, acceptor molecule, acceptor atom, score
      P1  H  7989  7998       L1    23  0.08
      P1  H  7997  8009       L1    20  0.37

> <Gold.PLP.Chemscore.Internal.Correction>
0.4993

> <Gold.Rescore>
     Score         DG    S(hbond)    S(metal)    S(lipo)     H(rot)  DE(clash)    DE(int)     intcor
     18.32     -20.22       1.56        0.00     121.09       1.82       0.84       1.06       ----

> <Gold.Chemscore.Fitness>
18.3249

> <Gold.Chemscore.DG>
-20.2223

> <Gold.Chemscore.ZeroCoef>
-5.4800

> <Gold.Chemscore.Hbond>
1.5638

> <Gold.Chemscore.Metal>
0.0000

> <Gold.Chemscore.Lipo>
121.0887

> <Gold.Chemscore.Internal_Hbond>
0.0000

> <Gold.Chemscore.DEClash>
0.8412

> <Gold.Chemscore.DEInternal>
1.0562

> <Gold.Chemscore.Rot>
1.8156

> <Gold.Chemscore.Internal.Correction>
   9.000000E+99

> <Gold.Chemscore.Hbonds>
donor molecule, donor type, donor heavy atom, donor atom, acceptor molecule, acceptor atom, score
      P1  H  7997  8009       L1    20  0.04

> <Gold.Chemscore.Hbond.Weighted>
-5.2230

> <Gold.Chemscore.Metal.Weighted>
-0.0000

> <Gold.Chemscore.Lipo.Weighted>
-14.1674

> <Gold.Chemscore.Internal_Hbond.Weighted>
0.0000

> <Gold.Chemscore.DEClash.Weighted>
0.8412

> <Gold.Chemscore.DEInternal.Weighted>
1.0562

> <Gold.Chemscore.Rot.Weighted>
4.6481

> <Gold.Chemscore.Internal.Correction.Weighted>
   9.000000E+99

> <Gold.Protein.RotatedTorsions>
[ 6907 6896 6895 6894 ] final   81.80 input  -60.11 | X-H torsion
[ 7974 7965 7964 7962 ] final  143.59 input  175.53 | X-H torsion
[ 8008 7997 7996 7995 ] final  156.47 input   59.86 | X-H torsion
[ 10167 10162 10161 10158 ] final -172.19 input  -65.29 | X-H torsion
[ 10718 10713 10712 10709 ] final  146.03 input   66.30 | X-H torsion
[ 10763 10752 10751 10750 ] final   -3.17 input  -60.55 | X-H torsion
[ 11005 11000 10999 10996 ] final  -47.79 input  -57.11 | X-H torsion

> <Gold.Protein.ActiveResidues>
 VAL166  LYS551  ARG553  GLY616  TRP617  ASP618  TYR619  PRO620  LYS621  CYS622 
 ASP623  PHE694  ASN695  SER759  ASP760  ASP761  ALA762  ILE779  LEU786  VAL792 
 PHE793  MET794  SER795  GLU796  ALA797  LYS798  CYS799  TRP800  GLU811  SER814 

> <Gold.Protein.RotatedAtoms>
  152.5280  134.3148  159.9126 H   0  0  0  0  0  0  0  0  0  0  0  0  # atno 6907 bound_to 6896
  151.3097  133.4079  159.2653 H   0  0  0  0  0  0  0  0  0  0  0  0  # atno 6908 bound_to 6896
  151.0049  134.9368  159.8032 H   0  0  0  0  0  0  0  0  0  0  0  0  # atno 6909 bound_to 6896
  144.8908  139.5561  143.5799 H   0  0  0  0  0  0  0  0  0  0  0  0  # atno 7974 bound_to 7965
  156.2420  140.1911  156.6961 H   0  0  0  0  0  0  0  0  0  0  0  0  # atno 8008 bound_to 7997
  154.6216  140.0608  156.9649 H   0  0  0  0  0  0  0  0  0  0  0  0  # atno 8009 bound_to 7997
  155.1852  140.3280  155.4370 H   0  0  0  0  0  0  0  0  0  0  0  0  # atno 8010 bound_to 7997
  139.5759  144.1534  152.1449 H   0  0  0  0  0  0  0  0  0  0  0  0  # atno 10167 bound_to 10162
  157.3382  131.0931  151.1105 H   0  0  0  0  0  0  0  0  0  0  0  0  # atno 10718 bound_to 10713
  153.3678  135.6993  153.6661 H   0  0  0  0  0  0  0  0  0  0  0  0  # atno 10763 bound_to 10752
  153.5324  135.3589  155.2682 H   0  0  0  0  0  0  0  0  0  0  0  0  # atno 10764 bound_to 10752
  154.8677  135.4184  154.2949 H   0  0  0  0  0  0  0  0  0  0  0  0  # atno 10765 bound_to 10752
  141.0662  133.6693  156.3348 H   0  0  0  0  0  0  0  0  0  0  0  0  # atno 11005 bound_to 11000
  146.3052  139.7557  142.9061 LP  0  0  0  0  0  0  0  0  0  0  0  0  # atno 17320 bound_to 7965
  145.3787  141.0355  143.3190 LP  0  0  0  0  0  0  0  0  0  0  0  0  # atno 17321 bound_to 7965
  140.1077  144.5485  150.6946 LP  0  0  0  0  0  0  0  0  0  0  0  0  # atno 17342 bound_to 10162
  140.7041  143.2455  151.4777 LP  0  0  0  0  0  0  0  0  0  0  0  0  # atno 17343 bound_to 10162
  157.2328  130.6533  149.5856 LP  0  0  0  0  0  0  0  0  0  0  0  0  # atno 17370 bound_to 10713
  155.9704  130.4593  150.6032 LP  0  0  0  0  0  0  0  0  0  0  0  0  # atno 17371 bound_to 10713
  140.5768  134.5785  157.5470 LP  0  0  0  0  0  0  0  0  0  0  0  0  # atno 17394 bound_to 11000
  139.9478  134.7670  156.0519 LP  0  0  0  0  0  0  0  0  0  0  0  0  # atno 17395 bound_to 11000

$$$$
