AV-unprocessed.smi:237|AV-procd|sdf|1817|dock6
  -GOLD-   2262020413D 1   1.00000     0.00000
 Structure written by MMmdl.
 53 56  0  0  0  0  0  0  0  0  1 V2000
  152.8868  138.2356  155.7052 C   0  0  0  0  0  0  0  0  0  0  0  0
  152.2050  139.6046  155.7632 C   0  0  0  0  0  0  0  0  0  0  0  0
  151.3205  139.7178  154.6583 O   0  0  0  0  0  0  0  0  0  0  0  0
  150.2696  138.7588  154.6400 C   0  0  0  0  0  0  0  0  0  0  0  0
  148.8852  139.3448  155.0263 C   0  0  2  0  0  0  0  0  0  0  0  0
  148.6167  140.6041  154.1723 C   0  0  0  0  0  0  0  0  0  0  0  0
  147.2903  141.2800  154.5460 C   0  0  0  0  0  0  0  0  0  0  0  0
  147.2745  141.6011  156.0445 C   0  0  0  0  0  0  0  0  0  0  0  0
  147.5358  140.3300  156.8636 C   0  0  0  0  0  0  0  0  0  0  0  0
  148.7833  139.6837  156.4561 N   0  0  0  0  0  0  0  0  0  0  0  0
  149.1039  138.6882  157.3124 C   0  0  0  0  0  0  0  0  0  0  0  0
  150.4212  138.4761  157.5509 N   0  0  0  0  0  0  0  0  0  0  0  0
  150.7998  137.4876  158.3670 C   0  0  0  0  0  0  0  0  0  0  0  0
  150.0389  136.6155  159.0323 N   0  0  0  0  0  0  0  0  0  0  0  0
  148.7123  136.8380  158.8042 C   0  0  0  0  0  0  0  0  0  0  0  0
  148.1603  137.8478  157.9683 C   0  0  0  0  0  0  0  0  0  0  0  0
  146.7734  137.7653  157.9768 N   0  0  0  0  0  0  0  0  0  0  0  0
  146.5208  136.7559  158.7641 C   0  0  0  0  0  0  0  0  0  0  0  0
  147.6269  136.1469  159.3145 N   0  0  0  0  0  0  0  0  0  0  0  0
  147.6448  134.9999  160.2110 C   0  0  0  0  0  0  0  0  0  0  0  0
  147.0562  135.2640  161.6179 C   0  0  0  0  0  0  0  0  0  0  0  0
  146.3035  134.0028  162.0629 C   0  0  0  0  0  0  0  0  0  0  0  0
  145.4008  134.2862  163.1129 O   0  0  0  0  0  0  0  0  0  0  0  0
  147.9700  135.9180  162.6699 C   0  0  0  0  0  0  0  0  0  0  0  0
  147.3837  137.2180  162.4474 O   0  0  0  0  0  0  0  0  0  0  0  0
  146.2763  136.5799  161.7778 C   0  0  0  0  0  0  0  0  0  0  0  0
  153.5845  138.1121  156.5338 H   0  0  0  0  0  0  0  0  0  0  0  0
  153.4453  138.1140  154.7772 H   0  0  0  0  0  0  0  0  0  0  0  0
  152.1531  137.4313  155.7618 H   0  0  0  0  0  0  0  0  0  0  0  0
  151.6529  139.7025  156.6990 H   0  0  0  0  0  0  0  0  0  0  0  0
  152.9595  140.3904  155.7434 H   0  0  0  0  0  0  0  0  0  0  0  0
  150.2150  138.3300  153.6387 H   0  0  0  0  0  0  0  0  0  0  0  0
  150.5380  137.9327  155.3006 H   0  0  0  0  0  0  0  0  0  0  0  0
  148.1020  138.6264  154.7873 H   0  0  0  0  0  0  0  0  0  0  0  0
  149.4321  141.3172  154.3031 H   0  0  0  0  0  0  0  0  0  0  0  0
  148.6035  140.3422  153.1138 H   0  0  0  0  0  0  0  0  0  0  0  0
  147.1540  142.1913  153.9633 H   0  0  0  0  0  0  0  0  0  0  0  0
  146.4567  140.6212  154.2995 H   0  0  0  0  0  0  0  0  0  0  0  0
  148.0375  142.3473  156.2702 H   0  0  0  0  0  0  0  0  0  0  0  0
  146.3165  142.0386  156.3263 H   0  0  0  0  0  0  0  0  0  0  0  0
  147.5776  140.5827  157.9245 H   0  0  0  0  0  0  0  0  0  0  0  0
  146.7046  139.6353  156.7347 H   0  0  0  0  0  0  0  0  0  0  0  0
  151.8652  137.3774  158.5044 H   0  0  0  0  0  0  0  0  0  0  0  0
  145.5118  136.4247  158.9605 H   0  0  0  0  0  0  0  0  0  0  0  0
  147.1022  134.1901  159.7216 H   0  0  0  0  0  0  0  0  0  0  0  0
  148.6785  134.6597  160.2792 H   0  0  0  0  0  0  0  0  0  0  0  0
  145.7308  133.5786  161.2375 H   0  0  0  0  0  0  0  0  0  0  0  0
  146.9964  133.2275  162.3915 H   0  0  0  0  0  0  0  0  0  0  0  0
  145.0737  133.4693  163.4578 H   0  0  0  0  0  0  0  0  0  0  0  0
  147.7898  135.5665  163.6873 H   0  0  0  0  0  0  0  0  0  0  0  0
  149.0341  135.8854  162.4411 H   0  0  0  0  0  0  0  0  0  0  0  0
  146.0065  137.0656  160.8410 H   0  0  0  0  0  0  0  0  0  0  0  0
  145.4047  136.5032  162.4302 H   0  0  0  0  0  0  0  0  0  0  0  0
  1  2  1  0  0  0  0
  1 27  1  0  0  0  0
  1 28  1  0  0  0  0
  1 29  1  0  0  0  0
  2  3  1  0  0  0  0
  2 30  1  0  0  0  0
  2 31  1  0  0  0  0
  3  4  1  0  0  0  0
  4  5  1  0  0  0  0
  4 32  1  0  0  0  0
  4 33  1  0  0  0  0
  5 10  1  0  0  0  0
  5  6  1  0  0  0  0
  5 34  1  0  0  0  0
  6  7  1  0  0  0  0
  6 35  1  0  0  0  0
  6 36  1  0  0  0  0
  7  8  1  0  0  0  0
  7 37  1  0  0  0  0
  7 38  1  0  0  0  0
  8  9  1  0  0  0  0
  8 39  1  0  0  0  0
  8 40  1  0  0  0  0
  9 10  1  0  0  0  0
  9 41  1  0  0  0  0
  9 42  1  0  0  0  0
 10 11  1  0  0  0  0
 11 16  1  0  0  0  0
 11 12  2  0  0  0  0
 12 13  1  0  0  0  0
 13 14  2  0  0  0  0
 13 43  1  0  0  0  0
 14 15  1  0  0  0  0
 15 19  1  0  0  0  0
 15 16  2  0  0  0  0
 16 17  1  0  0  0  0
 17 18  2  0  0  0  0
 18 19  1  0  0  0  0
 18 44  1  0  0  0  0
 19 20  1  0  0  0  0
 20 21  1  0  0  0  0
 20 45  1  0  0  0  0
 20 46  1  0  0  0  0
 21 26  1  0  0  0  0
 21 22  1  0  0  0  0
 21 24  1  0  0  0  0
 22 23  1  0  0  0  0
 22 47  1  0  0  0  0
 22 48  1  0  0  0  0
 23 49  1  0  0  0  0
 24 25  1  0  0  0  0
 24 50  1  0  0  0  0
 24 51  1  0  0  0  0
 25 26  1  0  0  0  0
 26 52  1  0  0  0  0
 26 53  1  0  0  0  0
M  END
> <s_m_source_file>
AV-unprocessed.smi

> <i_m_source_file_index>
237

> <i_lp_mmshare_version>
43012

> <i_f3d_flags>
0

> <s_epik_input>
W0NIM11bQ0gyXU9bQ0gyXVtDQEBIXTFbQ0gyXVtDSDJdW0NIMl1bQ0gyXU4xYyhuW2NIXW4yKWMoYzIzKW5bY0hdbjNbQ0gyXUM0KFtDSDJdW09IXSlbQ0gyXU9bQ0gyXTQ=

> <s_epik_cmdline>
J2VwaWtfcHl0aG9uJywgJy1waCcsICc3LjAnLCAnLXRuJywgJzgnLCAnLW1hJywgJzIwMCcsICctbWV0YWxfYmluZGluZycsICctaW1hZScsICc8aW5maWxlLm1hZT4nLCAnLW9tYWUnLCAnPG91dGZpbGUubWFlPic=

> <r_lp_tautomer_probability>
1

> <r_epik_Ionization_Penalty>
0.00358373

> <r_epik_Ionization_Penalty_Charging>
0

> <r_epik_Ionization_Penalty_Neutral>
0.00358373

> <r_epik_State_Penalty>
0.00240903

> <r_epik_Charging_Adjusted_Penalty>
0.00240903

> <i_epik_Tot_Q>
0

> <i_epik_Tot_abs_Q>
0

> <r_epik_Metal_State_Penalty>
-0

> <b_epik_Metal_Only>
0

> <s_lp_Force_Field>
OPLS_2005

> <r_lp_Energy>
38.4441

> <b_lp_Chiralities_Consistent>
1

> <s_lp_Variant>
AV-unprocessed.smi:237-1

> <Gold.Version>
5.8.1

> <Gold.Id.Protein>
6NUR|6NUR_protein|mol2

> <Gold.PLP.Fitness>
44.0079

> <Gold.PLP.PLP>
-38.9365

> <Gold.PLP.part.hbond>
-4.8965

> <Gold.PLP.part.metal>
0.0000

> <Gold.PLP.part.buried>
-7.4394

> <Gold.PLP.part.nonpolar>
-28.0679

> <Gold.PLP.part.repulsive>
0.0742

> <Gold.PLP.ligand.clash>
0.0000

> <Gold.PLP.ligand.torsion>
2.0525

> <Gold.PLP.Chemscore.Hbond>
2.8408

> <Gold.PLP.Chemscore.CHOScore>
0.0000

> <Gold.PLP.Chemscore.Metal>
0.0000

> <Gold.Chemscore.Hbonds>
donor molecule, donor type, donor heavy atom, donor atom, acceptor molecule, acceptor atom, score
      P1  H  6896  6909       L1    14  1.00
      P1  H  6931  6943       L1    25  0.80
      P1  H  6934  6947       L1    25  0.05
      P1  H  7989  7998       L1     3  1.00

> <Gold.PLP.Chemscore.Internal.Correction>
0.6541

> <Gold.Rescore>
     Score         DG    S(hbond)    S(metal)    S(lipo)     H(rot)  DE(clash)    DE(int)     intcor
      8.19     -15.08       2.40        0.00      80.70       3.06       0.36       6.53       ----

> <Gold.Chemscore.Fitness>
8.1859

> <Gold.Chemscore.DG>
-15.0839

> <Gold.Chemscore.ZeroCoef>
-5.4800

> <Gold.Chemscore.Hbond>
2.3955

> <Gold.Chemscore.Metal>
0.0000

> <Gold.Chemscore.Lipo>
80.6980

> <Gold.Chemscore.Internal_Hbond>
0.0000

> <Gold.Chemscore.DEClash>
0.3632

> <Gold.Chemscore.DEInternal>
6.5348

> <Gold.Chemscore.Rot>
3.0620

> <Gold.Chemscore.Internal.Correction>
   9.000000E+99

> <Gold.Chemscore.Hbonds>
donor molecule, donor type, donor heavy atom, donor atom, acceptor molecule, acceptor atom, score
      P1  H  6896  6909       L1    14  0.91
      P1  H  6931  6943       L1    25  0.20
      P1  H  7989  7998       L1     3  0.96

> <Gold.Chemscore.Hbond.Weighted>
-8.0010

> <Gold.Chemscore.Metal.Weighted>
-0.0000

> <Gold.Chemscore.Lipo.Weighted>
-9.4417

> <Gold.Chemscore.Internal_Hbond.Weighted>
0.0000

> <Gold.Chemscore.DEClash.Weighted>
0.3632

> <Gold.Chemscore.DEInternal.Weighted>
6.5348

> <Gold.Chemscore.Rot.Weighted>
7.8388

> <Gold.Chemscore.Internal.Correction.Weighted>
   9.000000E+99

> <Gold.Protein.RotatedTorsions>
[ 6907 6896 6895 6894 ] final   74.74 input  -60.11 | X-H torsion
[ 7974 7965 7964 7962 ] final  -61.77 input  175.53 | X-H torsion
[ 8008 7997 7996 7995 ] final  135.83 input   59.86 | X-H torsion
[ 10167 10162 10161 10158 ] final    3.66 input  -65.29 | X-H torsion
[ 10718 10713 10712 10709 ] final  142.64 input   66.30 | X-H torsion
[ 10763 10752 10751 10750 ] final -126.59 input  -60.55 | X-H torsion
[ 11005 11000 10999 10996 ] final   69.76 input  -57.11 | X-H torsion

> <Gold.Protein.ActiveResidues>
 VAL166  LYS551  ARG553  GLY616  TRP617  ASP618  TYR619  PRO620  LYS621  CYS622 
 ASP623  PHE694  ASN695  SER759  ASP760  ASP761  ALA762  ILE779  LEU786  VAL792 
 PHE793  MET794  SER795  GLU796  ALA797  LYS798  CYS799  TRP800  GLU811  SER814 

> <Gold.Protein.RotatedAtoms>
  152.4991  134.4225  159.9485 H   0  0  0  0  0  0  0  0  0  0  0  0  # atno 6907 bound_to 6896
  151.4199  133.3695  159.2762 H   0  0  0  0  0  0  0  0  0  0  0  0  # atno 6908 bound_to 6896
  150.9230  134.8670  159.7561 H   0  0  0  0  0  0  0  0  0  0  0  0  # atno 6909 bound_to 6896
  145.7994  140.8664  143.0239 H   0  0  0  0  0  0  0  0  0  0  0  0  # atno 7974 bound_to 7965
  156.3003  140.2460  156.3646 H   0  0  0  0  0  0  0  0  0  0  0  0  # atno 8008 bound_to 7997
  154.8845  140.0411  157.1822 H   0  0  0  0  0  0  0  0  0  0  0  0  # atno 8009 bound_to 7997
  154.8661  140.2928  155.5513 H   0  0  0  0  0  0  0  0  0  0  0  0  # atno 8010 bound_to 7997
  140.6575  143.7390  150.7679 H   0  0  0  0  0  0  0  0  0  0  0  0  # atno 10167 bound_to 10162
  157.3782  131.0988  151.0764 H   0  0  0  0  0  0  0  0  0  0  0  0  # atno 10718 bound_to 10713
  154.8746  135.3990  154.3455 H   0  0  0  0  0  0  0  0  0  0  0  0  # atno 10763 bound_to 10752
  153.4248  135.7024  153.6275 H   0  0  0  0  0  0  0  0  0  0  0  0  # atno 10764 bound_to 10752
  153.4921  135.3746  155.2467 H   0  0  0  0  0  0  0  0  0  0  0  0  # atno 10765 bound_to 10752
  139.9635  134.7020  156.0594 H   0  0  0  0  0  0  0  0  0  0  0  0  # atno 11005 bound_to 11000
  144.6771  140.0237  143.7483 LP  0  0  0  0  0  0  0  0  0  0  0  0  # atno 17320 bound_to 7965
  145.9894  139.3003  143.0994 LP  0  0  0  0  0  0  0  0  0  0  0  0  # atno 17321 bound_to 7965
  140.1053  143.4750  152.2402 LP  0  0  0  0  0  0  0  0  0  0  0  0  # atno 17342 bound_to 10162
  139.5800  144.7506  151.3664 LP  0  0  0  0  0  0  0  0  0  0  0  0  # atno 17343 bound_to 10162
  157.1843  130.6323  149.5682 LP  0  0  0  0  0  0  0  0  0  0  0  0  # atno 17370 bound_to 10713
  155.9770  130.4743  150.6564 LP  0  0  0  0  0  0  0  0  0  0  0  0  # atno 17371 bound_to 10713
  141.1314  133.6585  156.3474 LP  0  0  0  0  0  0  0  0  0  0  0  0  # atno 17394 bound_to 11000
  140.5447  134.6086  157.5390 LP  0  0  0  0  0  0  0  0  0  0  0  0  # atno 17395 bound_to 11000

$$$$
