AV-unprocessed.smi:84|AV-procd|sdf|808|dock6
  -GOLD-   2262017203D 1   1.00000     0.00000
 Structure written by MMmdl.
 51 55  0  0  0  0  0  0  0  0  1 V2000
  138.7772  143.6586  155.8268 O   0  0  0  0  0  0  0  0  0  0  0  0
  139.2483  142.6510  155.3049 C   0  0  0  0  0  0  0  0  0  0  0  0
  139.3658  141.3107  156.0120 C   0  0  0  0  0  0  0  0  0  0  0  0
  140.3435  140.5305  155.1117 C   0  0  1  0  0  0  0  0  0  0  0  0
  141.8027  140.6072  155.5986 C   0  0  0  0  0  0  0  0  0  0  0  0
  142.4561  139.3805  154.9644 C   0  0  0  0  0  0  0  0  0  0  0  0
  141.3953  138.3860  154.9121 N   0  0  0  0  0  0  0  0  0  0  0  0
  141.5612  137.1822  154.3057 C   0  0  0  0  0  0  0  0  0  0  0  0
  140.5552  136.2710  154.3851 N   0  0  0  0  0  0  0  0  0  0  0  0
  140.6765  135.0728  153.8077 C   0  0  0  0  0  0  0  0  0  0  0  0
  141.6992  134.5875  153.1034 N   0  0  0  0  0  0  0  0  0  0  0  0
  142.7074  135.4997  153.0021 C   0  0  0  0  0  0  0  0  0  0  0  0
  142.7246  136.8063  153.5706 C   0  0  0  0  0  0  0  0  0  0  0  0
  143.9252  137.4343  153.2555 N   0  0  0  0  0  0  0  0  0  0  0  0
  144.5816  136.5481  152.5584 C   0  0  0  0  0  0  0  0  0  0  0  0
  143.9115  135.3681  152.3329 N   0  0  0  0  0  0  0  0  0  0  0  0
  144.4079  134.2189  151.6345 C   0  0  0  0  0  0  0  0  0  0  0  0
  144.9815  134.3351  150.2201 C   0  0  0  0  0  0  0  0  0  0  0  0
  144.4552  132.9175  149.8994 C   0  0  0  0  0  0  0  0  0  0  0  0
  143.8255  132.7432  148.5075 C   0  0  0  0  0  0  0  0  0  0  0  0
  143.4080  133.9840  147.9748 O   0  0  0  0  0  0  0  0  0  0  0  0
  145.4553  131.7708  150.1506 C   0  0  0  0  0  0  0  0  0  0  0  0
  146.5269  131.8090  149.2303 O   0  0  0  0  0  0  0  0  0  0  0  0
  143.4538  133.1766  151.0463 C   0  0  0  0  0  0  0  0  0  0  0  0
  140.0878  139.0133  155.0478 C   0  0  0  0  0  0  0  0  0  0  0  0
  140.1900  141.2274  153.7383 C   0  0  0  0  0  0  0  0  0  0  0  0
  139.7208  142.5609  154.0629 N   0  0  0  0  0  0  0  0  0  0  0  0
  139.7184  141.4218  157.0379 H   0  0  0  0  0  0  0  0  0  0  0  0
  138.3816  140.8409  156.0348 H   0  0  0  0  0  0  0  0  0  0  0  0
  142.3059  141.5387  155.3356 H   0  0  0  0  0  0  0  0  0  0  0  0
  141.8428  140.5072  156.6842 H   0  0  0  0  0  0  0  0  0  0  0  0
  142.7991  139.6063  153.9539 H   0  0  0  0  0  0  0  0  0  0  0  0
  143.3079  139.0309  155.5488 H   0  0  0  0  0  0  0  0  0  0  0  0
  139.8328  134.4089  153.9258 H   0  0  0  0  0  0  0  0  0  0  0  0
  145.5763  136.7370  152.1814 H   0  0  0  0  0  0  0  0  0  0  0  0
  145.1281  133.7481  152.3059 H   0  0  0  0  0  0  0  0  0  0  0  0
  144.4896  135.1133  149.6333 H   0  0  0  0  0  0  0  0  0  0  0  0
  146.0655  134.4478  150.1826 H   0  0  0  0  0  0  0  0  0  0  0  0
  144.5422  132.3076  147.8103 H   0  0  0  0  0  0  0  0  0  0  0  0
  142.9740  132.0631  148.5334 H   0  0  0  0  0  0  0  0  0  0  0  0
  144.1734  134.5159  147.8185 H   0  0  0  0  0  0  0  0  0  0  0  0
  145.8778  131.8279  151.1538 H   0  0  0  0  0  0  0  0  0  0  0  0
  144.9706  130.7966  150.0844 H   0  0  0  0  0  0  0  0  0  0  0  0
  147.1754  131.1761  149.4993 H   0  0  0  0  0  0  0  0  0  0  0  0
  143.2664  132.3195  151.6939 H   0  0  0  0  0  0  0  0  0  0  0  0
  142.5160  133.6177  150.7020 H   0  0  0  0  0  0  0  0  0  0  0  0
  139.6356  138.6594  155.9748 H   0  0  0  0  0  0  0  0  0  0  0  0
  139.4188  138.7536  154.2269 H   0  0  0  0  0  0  0  0  0  0  0  0
  141.1179  141.2614  153.1662 H   0  0  0  0  0  0  0  0  0  0  0  0
  139.4341  140.7413  153.1202 H   0  0  0  0  0  0  0  0  0  0  0  0
  139.7440  143.3261  153.4044 H   0  0  0  0  0  0  0  0  0  0  0  0
  1  2  2  0  0  0  0
  2 27  1  0  0  0  0
  2  3  1  0  0  0  0
  3  4  1  0  0  0  0
  3 28  1  0  0  0  0
  3 29  1  0  0  0  0
  4 25  1  0  0  0  0
  4  5  1  0  0  0  0
  4 26  1  0  0  0  0
  5  6  1  0  0  0  0
  5 30  1  0  0  0  0
  5 31  1  0  0  0  0
  6  7  1  0  0  0  0
  6 32  1  0  0  0  0
  6 33  1  0  0  0  0
  7  8  1  0  0  0  0
  7 25  1  0  0  0  0
  8 13  1  0  0  0  0
  8  9  2  0  0  0  0
  9 10  1  0  0  0  0
 10 11  2  0  0  0  0
 10 34  1  0  0  0  0
 11 12  1  0  0  0  0
 12 16  1  0  0  0  0
 12 13  2  0  0  0  0
 13 14  1  0  0  0  0
 14 15  2  0  0  0  0
 15 16  1  0  0  0  0
 15 35  1  0  0  0  0
 16 17  1  0  0  0  0
 17 24  1  0  0  0  0
 17 18  1  0  0  0  0
 17 36  1  0  0  0  0
 18 19  1  0  0  0  0
 18 37  1  0  0  0  0
 18 38  1  0  0  0  0
 19 20  1  0  0  0  0
 19 22  1  0  0  0  0
 19 24  1  0  0  0  0
 20 21  1  0  0  0  0
 20 39  1  0  0  0  0
 20 40  1  0  0  0  0
 21 41  1  0  0  0  0
 22 23  1  0  0  0  0
 22 42  1  0  0  0  0
 22 43  1  0  0  0  0
 23 44  1  0  0  0  0
 24 45  1  0  0  0  0
 24 46  1  0  0  0  0
 25 47  1  0  0  0  0
 25 48  1  0  0  0  0
 26 27  1  0  0  0  0
 26 49  1  0  0  0  0
 26 50  1  0  0  0  0
 27 51  1  0  0  0  0
M  END
> <s_m_source_file>
AV-unprocessed.smi

> <i_m_source_file_index>
84

> <i_lp_mmshare_version>
43012

> <i_f3d_flags>
0

> <s_epik_input>
W0NIMl0xW05IXUMoPU8pW0NIMl1bQ0BdMTJbQ0gyXVtDSDJdTihbQ0gyXTIpYyhuW2NIXW4zKWMoYzM0KW5bY0hdbjRbQ0hdKFtDSDJdNSlbQ0gyXUM1KFtDSDJdW09IXSlbQ0gyXVtPSF0=

> <s_epik_cmdline>
J2VwaWtfcHl0aG9uJywgJy1waCcsICc3LjAnLCAnLXRuJywgJzgnLCAnLW1hJywgJzIwMCcsICctbWV0YWxfYmluZGluZycsICctaW1hZScsICc8aW5maWxlLm1hZT4nLCAnLW9tYWUnLCAnPG91dGZpbGUubWFlPic=

> <r_lp_tautomer_probability>
1

> <r_epik_Ionization_Penalty>
0.00201507

> <r_epik_Ionization_Penalty_Charging>
0

> <r_epik_Ionization_Penalty_Neutral>
0.00201507

> <r_epik_State_Penalty>
0.00133787

> <r_epik_Charging_Adjusted_Penalty>
0.00133787

> <i_epik_Tot_Q>
0

> <i_epik_Tot_abs_Q>
0

> <r_epik_Metal_State_Penalty>
-0

> <b_epik_Metal_Only>
0

> <s_lp_Force_Field>
OPLS_2005

> <r_lp_Energy>
65.4538

> <b_lp_Chiralities_Consistent>
1

> <s_lp_Variant>
AV-unprocessed.smi:84-1

> <Gold.Version>
5.8.1

> <Gold.Id.Protein>
6NUR|6NUR_protein|mol2

> <Gold.PLP.Fitness>
44.4141

> <Gold.PLP.PLP>
-34.5985

> <Gold.PLP.part.hbond>
-6.6952

> <Gold.PLP.part.metal>
0.0000

> <Gold.PLP.part.buried>
2.2330

> <Gold.PLP.part.nonpolar>
-29.6725

> <Gold.PLP.part.repulsive>
0.5398

> <Gold.PLP.ligand.clash>
0.0000

> <Gold.PLP.ligand.torsion>
1.1688

> <Gold.PLP.Chemscore.Hbond>
3.7462

> <Gold.PLP.Chemscore.CHOScore>
0.0870

> <Gold.PLP.Chemscore.Metal>
0.0000

> <Gold.Chemscore.Hbonds>
donor molecule, donor type, donor heavy atom, donor atom, acceptor molecule, acceptor atom, score
      L1  H    21    41       P1  7921  1.00
      L1  H    23    44       P1 10747  0.96
      L1  H    27    51       P1 10162  0.77
      P1  H 10192 10197       L1    21  0.95
      L1  C    10    34       P1 11000  0.10

> <Gold.PLP.Chemscore.Internal.Correction>
0.6536

> <Gold.Rescore>
     Score         DG    S(hbond)    S(metal)    S(lipo)     H(rot)  DE(clash)    DE(int)     intcor
      8.92     -15.89       2.85        0.00      72.59       2.96       3.92       3.05       ----

> <Gold.Chemscore.Fitness>
8.9170

> <Gold.Chemscore.DG>
-15.8856

> <Gold.Chemscore.ZeroCoef>
-5.4800

> <Gold.Chemscore.Hbond>
2.8450

> <Gold.Chemscore.Metal>
0.0000

> <Gold.Chemscore.Lipo>
72.5934

> <Gold.Chemscore.Internal_Hbond>
0.0000

> <Gold.Chemscore.DEClash>
3.9167

> <Gold.Chemscore.DEInternal>
3.0519

> <Gold.Chemscore.Rot>
2.9649

> <Gold.Chemscore.Internal.Correction>
   9.000000E+99

> <Gold.Chemscore.Hbonds>
donor molecule, donor type, donor heavy atom, donor atom, acceptor molecule, acceptor atom, score
      L1  H    21    41       P1  7921  0.96
      L1  H    23    44       P1 10747  0.91
      L1  H    27    51       P1 10162  0.20
      P1  H 10192 10197       L1    21  0.21

> <Gold.Chemscore.Hbond.Weighted>
-9.5024

> <Gold.Chemscore.Metal.Weighted>
-0.0000

> <Gold.Chemscore.Lipo.Weighted>
-8.4934

> <Gold.Chemscore.Internal_Hbond.Weighted>
0.0000

> <Gold.Chemscore.DEClash.Weighted>
3.9167

> <Gold.Chemscore.DEInternal.Weighted>
3.0519

> <Gold.Chemscore.Rot.Weighted>
7.5902

> <Gold.Chemscore.Internal.Correction.Weighted>
   9.000000E+99

> <Gold.Protein.RotatedTorsions>
[ 6907 6896 6895 6894 ] final  -19.25 input  -60.11 | X-H torsion
[ 7974 7965 7964 7962 ] final  155.39 input  175.53 | X-H torsion
[ 8008 7997 7996 7995 ] final  -79.04 input   59.86 | X-H torsion
[ 10167 10162 10161 10158 ] final  110.00 input  -65.29 | X-H torsion
[ 10718 10713 10712 10709 ] final   46.23 input   66.30 | X-H torsion
[ 10763 10752 10751 10750 ] final   20.45 input  -60.55 | X-H torsion
[ 11005 11000 10999 10996 ] final  144.04 input  -57.11 | X-H torsion

> <Gold.Protein.ActiveResidues>
 VAL166  LYS551  ARG553  GLY616  TRP617  ASP618  TYR619  PRO620  LYS621  CYS622 
 ASP623  PHE694  ASN695  SER759  ASP760  ASP761  ALA762  ILE779  LEU786  VAL792 
 PHE793  MET794  SER795  GLU796  ALA797  LYS798  CYS799  TRP800  GLU811  SER814 

> <Gold.Protein.RotatedAtoms>
  151.2660  135.0669  159.9115 H   0  0  0  0  0  0  0  0  0  0  0  0  # atno 6907 bound_to 6896
  152.5358  134.0181  159.7979 H   0  0  0  0  0  0  0  0  0  0  0  0  # atno 6908 bound_to 6896
  151.0411  133.5655  159.2682 H   0  0  0  0  0  0  0  0  0  0  0  0  # atno 6909 bound_to 6896
  144.8028  139.7062  143.6175 H   0  0  0  0  0  0  0  0  0  0  0  0  # atno 7974 bound_to 7965
  154.5747  140.0684  156.9016 H   0  0  0  0  0  0  0  0  0  0  0  0  # atno 8008 bound_to 7997
  155.2571  140.3356  155.4258 H   0  0  0  0  0  0  0  0  0  0  0  0  # atno 8009 bound_to 7997
  156.2145  140.1772  156.7606 H   0  0  0  0  0  0  0  0  0  0  0  0  # atno 8010 bound_to 7997
  139.6723  144.7124  151.1666 H   0  0  0  0  0  0  0  0  0  0  0  0  # atno 10167 bound_to 10162
  157.4459  130.8109  149.7740 H   0  0  0  0  0  0  0  0  0  0  0  0  # atno 10718 bound_to 10713
  153.1077  135.6689  153.9557 H   0  0  0  0  0  0  0  0  0  0  0  0  # atno 10763 bound_to 10752
  153.9109  135.3025  155.3450 H   0  0  0  0  0  0  0  0  0  0  0  0  # atno 10764 bound_to 10752
  154.7497  135.5040  153.9344 H   0  0  0  0  0  0  0  0  0  0  0  0  # atno 10765 bound_to 10752
  140.0601  134.9209  157.1169 H   0  0  0  0  0  0  0  0  0  0  0  0  # atno 11005 bound_to 11000
  146.2313  139.5818  142.9553 LP  0  0  0  0  0  0  0  0  0  0  0  0  # atno 17320 bound_to 7965
  145.5512  141.0413  143.2277 LP  0  0  0  0  0  0  0  0  0  0  0  0  # atno 17321 bound_to 7965
  140.7622  143.5826  150.8879 LP  0  0  0  0  0  0  0  0  0  0  0  0  # atno 17342 bound_to 10162
  139.9492  143.6292  152.3033 LP  0  0  0  0  0  0  0  0  0  0  0  0  # atno 17343 bound_to 10162
  155.9967  130.3904  150.2769 LP  0  0  0  0  0  0  0  0  0  0  0  0  # atno 17370 bound_to 10713
  157.0937  131.0176  151.3112 LP  0  0  0  0  0  0  0  0  0  0  0  0  # atno 17371 bound_to 10713
  140.3783  134.2315  155.7172 LP  0  0  0  0  0  0  0  0  0  0  0  0  # atno 17394 bound_to 11000
  141.1969  133.8071  157.0650 LP  0  0  0  0  0  0  0  0  0  0  0  0  # atno 17395 bound_to 11000

$$$$
