AV-unprocessed.smi:3043|AV-procd|sdf|11603|dock4
  -GOLD-   2272016583D 1   1.00000     0.00000
 Structure written by MMmdl.
 44 45  0  0  0  0  0  0  0  0  2 V2000
  152.3040  140.7854  158.6478 C   0  0  0  0  0  0  0  0  0  0  0  0
  152.7913  142.0830  159.2966 C   0  0  0  0  0  0  0  0  0  0  0  0
  153.7337  142.0159  160.0855 O   0  0  0  0  0  0  0  0  0  0  0  0
  152.1811  143.2515  158.9833 N   0  0  0  0  0  0  0  0  0  0  0  0
  151.0164  143.3240  158.0931 C   0  0  0  0  0  0  0  0  0  0  0  0
  149.7782  143.7075  158.9234 C   0  0  0  0  0  0  0  0  0  0  0  0
  149.9957  145.0373  159.6792 C   0  0  0  0  0  0  0  0  0  0  0  0
  148.7888  145.3716  160.5744 C   0  0  0  0  0  0  0  0  0  0  0  0
  147.6869  145.9744  159.7935 N   0  3  0  0  0  0  0  0  0  0  0  0
  146.3241  145.7135  160.3084 C   0  0  2  0  0  0  0  0  0  0  0  0
  146.0965  144.2041  160.5226 C   0  0  0  0  0  0  0  0  0  0  0  0
  145.2934  146.3400  159.3466 C   0  0  0  0  0  0  0  0  0  0  0  0
  145.5409  147.7470  159.0859 N   0  0  0  0  0  0  0  0  0  0  0  0
  145.2853  148.4627  157.9351 C   0  0  0  0  0  0  0  0  0  0  0  0
  145.6863  149.7486  158.1592 C   0  0  0  0  0  0  0  0  0  0  0  0
  146.1764  149.7222  159.4950 C   0  0  0  0  0  0  0  0  0  0  0  0
  146.0864  148.5229  160.0472 N   0  0  0  0  0  0  0  0  0  0  0  0
  151.3245  144.9950  160.4706 C   0  0  0  0  0  0  0  0  0  0  0  0
  152.4957  144.5594  159.5716 C   0  0  0  0  0  0  0  0  0  0  0  0
  152.3687  140.8465  157.5611 H   0  0  0  0  0  0  0  0  0  0  0  0
  151.2728  140.5740  158.9321 H   0  0  0  0  0  0  0  0  0  0  0  0
  152.9170  139.9429  158.9691 H   0  0  0  0  0  0  0  0  0  0  0  0
  151.1981  144.0719  157.3198 H   0  0  0  0  0  0  0  0  0  0  0  0
  150.8304  142.3892  157.5624 H   0  0  0  0  0  0  0  0  0  0  0  0
  148.9089  143.7854  158.2695 H   0  0  0  0  0  0  0  0  0  0  0  0
  149.5589  142.9087  159.6338 H   0  0  0  0  0  0  0  0  0  0  0  0
  150.0820  145.8225  158.9259 H   0  0  0  0  0  0  0  0  0  0  0  0
  148.4311  144.4598  161.0522 H   0  0  0  0  0  0  0  0  0  0  0  0
  149.0889  146.0517  161.3731 H   0  0  0  0  0  0  0  0  0  0  0  0
  147.8306  146.9741  159.8024 H   0  0  0  0  0  0  0  0  0  0  0  0
  146.2249  146.2182  161.2708 H   0  0  0  0  0  0  0  0  0  0  0  0
  145.1136  144.0046  160.9503 H   0  0  0  0  0  0  0  0  0  0  0  0
  146.8264  143.7748  161.2080 H   0  0  0  0  0  0  0  0  0  0  0  0
  146.1638  143.6580  159.5812 H   0  0  0  0  0  0  0  0  0  0  0  0
  145.3051  145.8153  158.3903 H   0  0  0  0  0  0  0  0  0  0  0  0
  144.2841  146.2286  159.7476 H   0  0  0  0  0  0  0  0  0  0  0  0
  144.8461  148.0028  157.0618 H   0  0  0  0  0  0  0  0  0  0  0  0
  145.6361  150.5821  157.4742 H   0  0  0  0  0  0  0  0  0  0  0  0
  146.5917  150.5329  160.0756 H   0  0  0  0  0  0  0  0  0  0  0  0
  151.5421  145.9732  160.9001 H   0  0  0  0  0  0  0  0  0  0  0  0
  151.2365  144.3017  161.3086 H   0  0  0  0  0  0  0  0  0  0  0  0
  153.4233  144.5704  160.1417 H   0  0  0  0  0  0  0  0  0  0  0  0
  152.6403  145.2857  158.7705 H   0  0  0  0  0  0  0  0  0  0  0  0
  147.7399  145.6529  158.8374 H   0  0  0  0  0  0  0  0  0  0  0  0
  1  2  1  0  0  0  0
  1 20  1  0  0  0  0
  1 21  1  0  0  0  0
  1 22  1  0  0  0  0
  2  3  2  0  0  0  0
  2  4  1  0  0  0  0
  4 19  1  0  0  0  0
  4  5  1  0  0  0  0
  5  6  1  0  0  0  0
  5 23  1  0  0  0  0
  5 24  1  0  0  0  0
  6  7  1  0  0  0  0
  6 25  1  0  0  0  0
  6 26  1  0  0  0  0
  7  8  1  0  0  0  0
  7 18  1  0  0  0  0
  7 27  1  0  0  0  0
  8  9  1  0  0  0  0
  8 28  1  0  0  0  0
  8 29  1  0  0  0  0
  9 10  1  0  0  0  0
  9 30  1  0  0  0  0
  9 44  1  0  0  0  0
 10 11  1  0  0  0  0
 10 12  1  0  0  0  0
 10 31  1  0  0  0  0
 11 32  1  0  0  0  0
 11 33  1  0  0  0  0
 11 34  1  0  0  0  0
 12 13  1  0  0  0  0
 12 35  1  0  0  0  0
 12 36  1  0  0  0  0
 13 17  1  0  0  0  0
 13 14  1  0  0  0  0
 14 15  2  0  0  0  0
 14 37  1  0  0  0  0
 15 16  1  0  0  0  0
 15 38  1  0  0  0  0
 16 17  2  0  0  0  0
 16 39  1  0  0  0  0
 18 19  1  0  0  0  0
 18 40  1  0  0  0  0
 18 41  1  0  0  0  0
 19 42  1  0  0  0  0
 19 43  1  0  0  0  0
M  CHG  1   9   1
M  END
> <s_m_source_file>
AV-unprocessed.smi

> <i_m_source_file_index>
3043

> <i_lp_mmshare_version>
43012

> <i_f3d_flags>
0

> <s_epik_input>
W0NIM11DKD1PKU4xW0NIMl1bQ0gyXVtDSF0oW0NIMl1bQ0gyXTEpW0NIMl1bTkhdW0NASF0oW0NIM10pW0NIMl1uMltjSF1bY0hdW2NIXW4y

> <s_epik_cmdline>
J2VwaWtfcHl0aG9uJywgJy1waCcsICc3LjAnLCAnLXRuJywgJzgnLCAnLW1hJywgJzIwMCcsICctbWV0YWxfYmluZGluZycsICctaW1hZScsICc8aW5maWxlLm1hZT4nLCAnLW9tYWUnLCAnPG91dGZpbGUubWFlPic=

> <r_lp_tautomer_probability>
1

> <r_epik_Ionization_Penalty>
0.00300549

> <r_epik_Ionization_Penalty_Charging>
0.00299781

> <r_epik_Ionization_Penalty_Neutral>
7.6831e-06

> <r_epik_State_Penalty>
0.00210473

> <r_epik_Charging_Adjusted_Penalty>
0.00510254

> <i_epik_Tot_Q>
1

> <i_epik_Tot_abs_Q>
1

> <r_epik_Metal_State_Penalty>
-0

> <b_epik_Metal_Only>
0

> <s_lp_Force_Field>
OPLS_2005

> <r_lp_Energy>
29.3743

> <b_lp_Chiralities_Consistent>
1

> <s_lp_Variant>
AV-unprocessed.smi:3043-1

> <Gold.Version>
5.8.1

> <Gold.Id.Protein>
6NUR|6NUR_protein|mol2

> <Gold.PLP.Fitness>
51.8956

> <Gold.PLP.PLP>
-47.5019

> <Gold.PLP.part.hbond>
-2.0000

> <Gold.PLP.part.metal>
0.0000

> <Gold.PLP.part.buried>
-10.0010

> <Gold.PLP.part.nonpolar>
-36.4429

> <Gold.PLP.part.repulsive>
0.9659

> <Gold.PLP.ligand.clash>
0.0000

> <Gold.PLP.ligand.torsion>
0.8251

> <Gold.PLP.Chemscore.Hbond>
2.0000

> <Gold.PLP.Chemscore.CHOScore>
0.0000

> <Gold.PLP.Chemscore.Metal>
0.0000

> <Gold.Chemscore.Hbonds>
donor molecule, donor type, donor heavy atom, donor atom, acceptor molecule, acceptor atom, score
      L1  H     9    44       P1  8029  1.98

> <Gold.PLP.Chemscore.Internal.Correction>
0.0439

> <Gold.Rescore>
     Score         DG    S(hbond)    S(metal)    S(lipo)     H(rot)  DE(clash)    DE(int)     intcor
     13.98     -16.11       0.95        0.00     101.95       1.74       0.07       2.05       ----

> <Gold.Chemscore.Fitness>
13.9843

> <Gold.Chemscore.DG>
-16.1064

> <Gold.Chemscore.ZeroCoef>
-5.4800

> <Gold.Chemscore.Hbond>
0.9454

> <Gold.Chemscore.Metal>
0.0000

> <Gold.Chemscore.Lipo>
101.9534

> <Gold.Chemscore.Internal_Hbond>
0.0000

> <Gold.Chemscore.DEClash>
0.0695

> <Gold.Chemscore.DEInternal>
2.0525

> <Gold.Chemscore.Rot>
1.7422

> <Gold.Chemscore.Internal.Correction>
   9.000000E+99

> <Gold.Chemscore.Hbonds>
donor molecule, donor type, donor heavy atom, donor atom, acceptor molecule, acceptor atom, score
      L1  H     9    44       P1  8029  0.92

> <Gold.Chemscore.Hbond.Weighted>
-3.1578

> <Gold.Chemscore.Metal.Weighted>
-0.0000

> <Gold.Chemscore.Lipo.Weighted>
-11.9285

> <Gold.Chemscore.Internal_Hbond.Weighted>
0.0000

> <Gold.Chemscore.DEClash.Weighted>
0.0695

> <Gold.Chemscore.DEInternal.Weighted>
2.0525

> <Gold.Chemscore.Rot.Weighted>
4.4600

> <Gold.Chemscore.Internal.Correction.Weighted>
   9.000000E+99

> <Gold.Protein.RotatedTorsions>
[ 6907 6896 6895 6894 ] final  -56.49 input  -60.11 | X-H torsion
[ 7974 7965 7964 7962 ] final   81.35 input  175.53 | X-H torsion
[ 8008 7997 7996 7995 ] final  166.34 input   59.86 | X-H torsion
[ 10167 10162 10161 10158 ] final    3.60 input  -65.29 | X-H torsion
[ 10718 10713 10712 10709 ] final  147.11 input   66.30 | X-H torsion
[ 10763 10752 10751 10750 ] final  -63.36 input  -60.55 | X-H torsion
[ 11005 11000 10999 10996 ] final -162.99 input  -57.11 | X-H torsion

> <Gold.Protein.ActiveResidues>
 VAL166  LYS551  ARG553  GLY616  TRP617  ASP618  TYR619  PRO620  LYS621  CYS622 
 ASP623  PHE694  ASN695  SER759  ASP760  ASP761  ALA762  ILE779  LEU786  VAL792 
 PHE793  MET794  SER795  GLU796  ALA797  LYS798  CYS799  TRP800  GLU811  SER814 

> <Gold.Protein.RotatedAtoms>
  150.8163  134.7347  159.6732 H   0  0  0  0  0  0  0  0  0  0  0  0  # atno 6907 bound_to 6896
  152.4282  134.5825  159.9961 H   0  0  0  0  0  0  0  0  0  0  0  0  # atno 6908 bound_to 6896
  151.6021  133.3318  159.3085 H   0  0  0  0  0  0  0  0  0  0  0  0  # atno 6909 bound_to 6896
  145.6393  139.2422  143.2040 H   0  0  0  0  0  0  0  0  0  0  0  0  # atno 7974 bound_to 7965
  156.1727  140.1646  156.8419 H   0  0  0  0  0  0  0  0  0  0  0  0  # atno 8008 bound_to 7997
  154.5273  140.0764  156.8316 H   0  0  0  0  0  0  0  0  0  0  0  0  # atno 8009 bound_to 7997
  155.3479  140.3388  155.4241 H   0  0  0  0  0  0  0  0  0  0  0  0  # atno 8010 bound_to 7997
  140.6577  143.7384  150.7683 H   0  0  0  0  0  0  0  0  0  0  0  0  # atno 10167 bound_to 10162
  157.3250  131.0910  151.1210 H   0  0  0  0  0  0  0  0  0  0  0  0  # atno 10718 bound_to 10713
  154.3139  135.6210  153.5478 H   0  0  0  0  0  0  0  0  0  0  0  0  # atno 10763 bound_to 10752
  152.9826  135.5708  154.5146 H   0  0  0  0  0  0  0  0  0  0  0  0  # atno 10764 bound_to 10752
  154.4801  135.2863  155.1554 H   0  0  0  0  0  0  0  0  0  0  0  0  # atno 10765 bound_to 10752
  140.6031  134.4927  157.5207 H   0  0  0  0  0  0  0  0  0  0  0  0  # atno 11005 bound_to 11000
  146.1294  140.7206  142.9419 LP  0  0  0  0  0  0  0  0  0  0  0  0  # atno 17320 bound_to 7965
  144.7163  140.4222  143.7041 LP  0  0  0  0  0  0  0  0  0  0  0  0  # atno 17321 bound_to 7965
  140.1047  143.4755  152.2405 LP  0  0  0  0  0  0  0  0  0  0  0  0  # atno 17342 bound_to 10162
  139.5803  144.7507  151.3656 LP  0  0  0  0  0  0  0  0  0  0  0  0  # atno 17343 bound_to 10162
  157.2480  130.6600  149.5919 LP  0  0  0  0  0  0  0  0  0  0  0  0  # atno 17370 bound_to 10713
  155.9689  130.4547  150.5861 LP  0  0  0  0  0  0  0  0  0  0  0  0  # atno 17371 bound_to 10713
  139.9224  134.8123  156.1171 LP  0  0  0  0  0  0  0  0  0  0  0  0  # atno 17394 bound_to 11000
  141.0859  133.6734  156.2435 LP  0  0  0  0  0  0  0  0  0  0  0  0  # atno 17395 bound_to 11000

$$$$
