AV-unprocessed.smi:3184|AV-procd|sdf|12162|dock3
  -GOLD-   2272017593D 1   1.00000     0.00000
 Structure written by MMmdl.
 35 36  0  0  0  0  0  0  0  0  2 V2000
  146.9667  141.9770  156.8610 C   0  0  0  0  0  0  0  0  0  0  0  0
  148.2877  141.4940  156.2476 C   0  0  1  0  0  0  0  0  0  0  0  0
  148.2867  141.6651  154.7135 C   0  0  0  0  0  0  0  0  0  0  0  0
  147.9433  140.4300  154.0008 N   0  0  0  0  0  0  0  0  0  0  0  0
  146.7855  140.1610  153.3168 C   0  0  0  0  0  0  0  0  0  0  0  0
  146.9069  138.8852  152.8296 C   0  0  0  0  0  0  0  0  0  0  0  0
  148.1354  138.4323  153.2299 N   0  3  0  0  0  0  0  0  0  0  0  0
  148.7661  139.3748  153.9381 C   0  0  0  0  0  0  0  0  0  0  0  0
  149.3904  142.2338  156.8600 N   0  0  0  0  0  0  0  0  0  0  0  0
  150.4301  141.6959  157.5224 C   0  0  0  0  0  0  0  0  0  0  0  0
  150.5741  140.4819  157.6707 O   0  0  0  0  0  0  0  0  0  0  0  0
  151.3184  142.6025  157.9830 N   0  0  0  0  0  0  0  0  0  0  0  0
  151.4686  143.9876  157.5268 C   0  0  0  0  0  0  0  0  0  0  0  0
  152.4224  144.6508  158.5207 C   0  0  0  0  0  0  0  0  0  0  0  0
  153.2368  143.4952  159.0845 C   0  0  0  0  0  0  0  0  0  0  0  0
  152.2748  142.3081  159.0484 C   0  0  0  0  0  0  0  0  0  0  0  0
  146.1200  141.4234  156.4543 H   0  0  0  0  0  0  0  0  0  0  0  0
  146.7979  143.0359  156.6614 H   0  0  0  0  0  0  0  0  0  0  0  0
  146.9603  141.8366  157.9425 H   0  0  0  0  0  0  0  0  0  0  0  0
  148.3821  140.4326  156.4847 H   0  0  0  0  0  0  0  0  0  0  0  0
  147.5524  142.4159  154.4189 H   0  0  0  0  0  0  0  0  0  0  0  0
  149.2570  142.0175  154.3596 H   0  0  0  0  0  0  0  0  0  0  0  0
  145.9789  140.8753  153.2377 H   0  0  0  0  0  0  0  0  0  0  0  0
  146.2288  138.2814  152.2444 H   0  0  0  0  0  0  0  0  0  0  0  0
  149.7427  139.2939  154.3809 H   0  0  0  0  0  0  0  0  0  0  0  0
  149.3573  143.2402  156.7841 H   0  0  0  0  0  0  0  0  0  0  0  0
  151.9014  143.9874  156.5251 H   0  0  0  0  0  0  0  0  0  0  0  0
  150.5154  144.5173  157.4872 H   0  0  0  0  0  0  0  0  0  0  0  0
  153.0419  145.4224  158.0626 H   0  0  0  0  0  0  0  0  0  0  0  0
  151.8481  145.1163  159.3228 H   0  0  0  0  0  0  0  0  0  0  0  0
  154.0877  143.2967  158.4315 H   0  0  0  0  0  0  0  0  0  0  0  0
  153.6227  143.6970  160.0842 H   0  0  0  0  0  0  0  0  0  0  0  0
  151.7371  142.2213  159.9936 H   0  0  0  0  0  0  0  0  0  0  0  0
  152.8079  141.3722  158.8746 H   0  0  0  0  0  0  0  0  0  0  0  0
  148.5137  137.5166  153.0224 H   0  0  0  0  0  0  0  0  0  0  0  0
  1  2  1  0  0  0  0
  1 17  1  0  0  0  0
  1 18  1  0  0  0  0
  1 19  1  0  0  0  0
  2  3  1  0  0  0  0
  2  9  1  0  0  0  0
  2 20  1  0  0  0  0
  3  4  1  0  0  0  0
  3 21  1  0  0  0  0
  3 22  1  0  0  0  0
  4  8  1  0  0  0  0
  4  5  1  0  0  0  0
  5  6  2  0  0  0  0
  5 23  1  0  0  0  0
  6  7  1  0  0  0  0
  6 24  1  0  0  0  0
  7  8  2  0  0  0  0
  7 35  1  0  0  0  0
  8 25  1  0  0  0  0
  9 10  1  0  0  0  0
  9 26  1  0  0  0  0
 10 11  2  0  0  0  0
 10 12  1  0  0  0  0
 12 16  1  0  0  0  0
 12 13  1  0  0  0  0
 13 14  1  0  0  0  0
 13 27  1  0  0  0  0
 13 28  1  0  0  0  0
 14 15  1  0  0  0  0
 14 29  1  0  0  0  0
 14 30  1  0  0  0  0
 15 16  1  0  0  0  0
 15 31  1  0  0  0  0
 15 32  1  0  0  0  0
 16 33  1  0  0  0  0
 16 34  1  0  0  0  0
M  CHG  1   7   1
M  END
> <s_m_source_file>
AV-unprocessed.smi

> <i_m_source_file_index>
3184

> <i_lp_mmshare_version>
43012

> <i_f3d_flags>
0

> <s_epik_input>
W2NIXTFuW2NIXVtjSF1uMVtDSDJdW0NAQEhdKFtDSDNdKVtOSF1DKD1PKU4yW0NIMl1bQ0gyXVtDSDJdW0NIMl0y

> <s_epik_cmdline>
J2VwaWtfcHl0aG9uJywgJy1waCcsICc3LjAnLCAnLXRuJywgJzgnLCAnLW1hJywgJzIwMCcsICctbWV0YWxfYmluZGluZycsICctaW1hZScsICc8aW5maWxlLm1hZT4nLCAnLW9tYWUnLCAnPG91dGZpbGUubWFlPic=

> <r_lp_tautomer_probability>
1

> <r_epik_Ionization_Penalty>
0.25331

> <r_epik_Ionization_Penalty_Charging>
0

> <r_epik_Ionization_Penalty_Neutral>
0.25331

> <r_epik_State_Penalty>
0.244676

> <r_epik_Charging_Adjusted_Penalty>
0.244676

> <i_epik_Tot_Q>
1

> <i_epik_Tot_abs_Q>
1

> <r_epik_Metal_State_Penalty>
0.535078

> <b_epik_Metal_Only>
0

> <s_lp_Force_Field>
OPLS_2005

> <r_lp_Energy>
36.5644

> <b_lp_Chiralities_Consistent>
1

> <s_lp_Variant>
AV-unprocessed.smi:3184-2

> <Gold.Version>
5.8.1

> <Gold.Id.Protein>
6NUR|6NUR_protein|mol2

> <Gold.PLP.Fitness>
44.7939

> <Gold.PLP.PLP>
-34.8072

> <Gold.PLP.part.hbond>
-3.0000

> <Gold.PLP.part.metal>
0.0000

> <Gold.PLP.part.buried>
0.9543

> <Gold.PLP.part.nonpolar>
-33.9800

> <Gold.PLP.part.repulsive>
0.0685

> <Gold.PLP.ligand.clash>
0.0000

> <Gold.PLP.ligand.torsion>
0.8357

> <Gold.PLP.Chemscore.Hbond>
2.9280

> <Gold.PLP.Chemscore.CHOScore>
0.9524

> <Gold.PLP.Chemscore.Metal>
0.0000

> <Gold.Chemscore.Hbonds>
donor molecule, donor type, donor heavy atom, donor atom, acceptor molecule, acceptor atom, score
      L1  H     7    35       P1  7948  2.00
      L1  H     9    26       P1  8028  0.91
      L1  C     5    23       P1 10175  0.97

> <Gold.PLP.Chemscore.Internal.Correction>
0.0167

> <Gold.Rescore>
     Score         DG    S(hbond)    S(metal)    S(lipo)     H(rot)  DE(clash)    DE(int)     intcor
     15.61     -16.30       1.82        0.00      76.71       1.65       0.11       0.58       ----

> <Gold.Chemscore.Fitness>
15.6124

> <Gold.Chemscore.DG>
-16.2956

> <Gold.Chemscore.ZeroCoef>
-5.4800

> <Gold.Chemscore.Hbond>
1.8167

> <Gold.Chemscore.Metal>
0.0000

> <Gold.Chemscore.Lipo>
76.7094

> <Gold.Chemscore.Internal_Hbond>
0.0000

> <Gold.Chemscore.DEClash>
0.1074

> <Gold.Chemscore.DEInternal>
0.5757

> <Gold.Chemscore.Rot>
1.6513

> <Gold.Chemscore.Internal.Correction>
   9.000000E+99

> <Gold.Chemscore.Hbonds>
donor molecule, donor type, donor heavy atom, donor atom, acceptor molecule, acceptor atom, score
      L1  H     7    35       P1  7948  0.95
      L1  H     9    26       P1  8028  0.88

> <Gold.Chemscore.Hbond.Weighted>
-6.0678

> <Gold.Chemscore.Metal.Weighted>
-0.0000

> <Gold.Chemscore.Lipo.Weighted>
-8.9750

> <Gold.Chemscore.Internal_Hbond.Weighted>
0.0000

> <Gold.Chemscore.DEClash.Weighted>
0.1074

> <Gold.Chemscore.DEInternal.Weighted>
0.5757

> <Gold.Chemscore.Rot.Weighted>
4.2273

> <Gold.Chemscore.Internal.Correction.Weighted>
   9.000000E+99

> <Gold.Protein.RotatedTorsions>
[ 6907 6896 6895 6894 ] final  -74.35 input  -60.11 | X-H torsion
[ 7974 7965 7964 7962 ] final    6.25 input  175.53 | X-H torsion
[ 8008 7997 7996 7995 ] final -157.42 input   59.86 | X-H torsion
[ 10167 10162 10161 10158 ] final   30.04 input  -65.29 | X-H torsion
[ 10718 10713 10712 10709 ] final  148.68 input   66.30 | X-H torsion
[ 10763 10752 10751 10750 ] final   82.67 input  -60.55 | X-H torsion
[ 11005 11000 10999 10996 ] final  130.71 input  -57.11 | X-H torsion

> <Gold.Protein.ActiveResidues>
 VAL166  LYS551  ARG553  GLY616  TRP617  ASP618  TYR619  PRO620  LYS621  CYS622 
 ASP623  PHE694  ASN695  SER759  ASP760  ASP761  ALA762  ILE779  LEU786  VAL792 
 PHE793  MET794  SER795  GLU796  ALA797  LYS798  CYS799  TRP800  GLU811  SER814 

> <Gold.Protein.RotatedAtoms>
  150.7096  134.4881  159.5502 H   0  0  0  0  0  0  0  0  0  0  0  0  # atno 6907 bound_to 6896
  152.2504  134.8135  160.0456 H   0  0  0  0  0  0  0  0  0  0  0  0  # atno 6908 bound_to 6896
  151.8884  133.3475  159.3827 H   0  0  0  0  0  0  0  0  0  0  0  0  # atno 6909 bound_to 6896
  146.2436  140.0262  142.8393 H   0  0  0  0  0  0  0  0  0  0  0  0  # atno 7974 bound_to 7965
  155.7321  140.0803  157.2284 H   0  0  0  0  0  0  0  0  0  0  0  0  # atno 8008 bound_to 7997
  154.4031  140.1593  156.2575 H   0  0  0  0  0  0  0  0  0  0  0  0  # atno 8009 bound_to 7997
  155.9099  140.3404  155.6093 H   0  0  0  0  0  0  0  0  0  0  0  0  # atno 8010 bound_to 7997
  140.4713  144.0758  150.6238 H   0  0  0  0  0  0  0  0  0  0  0  0  # atno 10167 bound_to 10162
  157.3056  131.0879  151.1356 H   0  0  0  0  0  0  0  0  0  0  0  0  # atno 10718 bound_to 10713
  153.1223  135.4719  154.9216 H   0  0  0  0  0  0  0  0  0  0  0  0  # atno 10763 bound_to 10752
  154.7588  135.3125  154.8422 H   0  0  0  0  0  0  0  0  0  0  0  0  # atno 10764 bound_to 10752
  153.8983  135.6877  153.4810 H   0  0  0  0  0  0  0  0  0  0  0  0  # atno 10765 bound_to 10752
  139.9688  134.9583  156.9334 H   0  0  0  0  0  0  0  0  0  0  0  0  # atno 11005 bound_to 11000
  145.1196  140.9454  143.4608 LP  0  0  0  0  0  0  0  0  0  0  0  0  # atno 17320 bound_to 7965
  145.0495  139.3194  143.5936 LP  0  0  0  0  0  0  0  0  0  0  0  0  # atno 17321 bound_to 7965
  140.3973  143.2721  151.9989 LP  0  0  0  0  0  0  0  0  0  0  0  0  # atno 17342 bound_to 10162
  139.4819  144.6027  151.7577 LP  0  0  0  0  0  0  0  0  0  0  0  0  # atno 17343 bound_to 10162
  157.2698  130.6699  149.6014 LP  0  0  0  0  0  0  0  0  0  0  0  0  # atno 17370 bound_to 10713
  155.9674  130.4483  150.5612 LP  0  0  0  0  0  0  0  0  0  0  0  0  # atno 17371 bound_to 10713
  140.5338  134.0787  155.7323 LP  0  0  0  0  0  0  0  0  0  0  0  0  # atno 17394 bound_to 11000
  141.1368  133.9208  157.2416 LP  0  0  0  0  0  0  0  0  0  0  0  0  # atno 17395 bound_to 11000

$$$$
