AV-unprocessed.smi:2528|AV-procd|sdf|9959|dock1
  -GOLD-   2272013593D 1   1.00000     0.00000
 Structure written by MMmdl.
 43 45  0  0  0  0  0  0  0  0  1 V2000
  144.5579  136.7541  151.8243 O   0  0  0  0  0  0  0  0  0  0  0  0
  145.7593  136.4840  151.8022 C   0  0  0  0  0  0  0  0  0  0  0  0
  146.7230  137.3850  152.0405 N   0  0  0  0  0  0  0  0  0  0  0  0
  146.4954  138.7935  152.3448 C   0  0  0  0  0  0  0  0  0  0  0  0
  147.1631  139.2031  153.6680 C   0  0  1  0  0  0  0  0  0  0  0  0
  148.6996  139.2002  153.5628 C   0  0  0  0  0  0  0  0  0  0  0  0
  149.3296  139.6616  154.7935 N   0  0  0  0  0  0  0  0  0  0  0  0
  150.7869  139.6642  154.6766 C   0  0  0  0  0  0  0  0  0  0  0  0
  151.4771  140.1117  155.9747 C   0  0  0  0  0  0  0  0  0  0  0  0
  150.9763  141.5017  156.3923 C   0  0  0  0  0  0  0  0  0  0  0  0
  149.4414  141.5103  156.4604 C   0  0  0  0  0  0  0  0  0  0  0  0
  148.8262  140.9934  155.1433 C   0  0  2  0  0  0  0  0  0  0  0  0
  147.2861  140.9953  155.2248 C   0  0  0  0  0  0  0  0  0  0  0  0
  146.7355  140.5218  154.0005 O   0  0  0  0  0  0  0  0  0  0  0  0
  146.2805  135.2732  151.5369 N   0  0  0  0  0  0  0  0  0  0  0  0
  145.5928  134.0577  151.2773 C   0  0  0  0  0  0  0  0  0  0  0  0
  146.3874  132.8916  151.3585 C   0  0  0  0  0  0  0  0  0  0  0  0
  145.7980  131.6334  151.1287 C   0  0  0  0  0  0  0  0  0  0  0  0
  144.4269  131.5730  150.8223 C   0  0  0  0  0  0  0  0  0  0  0  0
  143.7082  132.7811  150.7588 C   0  0  0  0  0  0  0  0  0  0  0  0
  144.2710  133.9881  150.9792 N   0  0  0  0  0  0  0  0  0  0  0  0
  147.6843  137.0807  151.9956 H   0  0  0  0  0  0  0  0  0  0  0  0
  146.8644  139.4132  151.5257 H   0  0  0  0  0  0  0  0  0  0  0  0
  145.4198  138.9638  152.4005 H   0  0  0  0  0  0  0  0  0  0  0  0
  146.8570  138.5152  154.4586 H   0  0  0  0  0  0  0  0  0  0  0  0
  149.0455  138.1923  153.3300 H   0  0  0  0  0  0  0  0  0  0  0  0
  149.0072  139.8351  152.7302 H   0  0  0  0  0  0  0  0  0  0  0  0
  151.1351  138.6641  154.4157 H   0  0  0  0  0  0  0  0  0  0  0  0
  151.0915  140.3199  153.8594 H   0  0  0  0  0  0  0  0  0  0  0  0
  151.2695  139.3918  156.7676 H   0  0  0  0  0  0  0  0  0  0  0  0
  152.5590  140.1258  155.8408 H   0  0  0  0  0  0  0  0  0  0  0  0
  151.4005  141.7848  157.3559 H   0  0  0  0  0  0  0  0  0  0  0  0
  151.3152  142.2451  155.6697 H   0  0  0  0  0  0  0  0  0  0  0  0
  149.1115  140.8858  157.2920 H   0  0  0  0  0  0  0  0  0  0  0  0
  149.0878  142.5201  156.6711 H   0  0  0  0  0  0  0  0  0  0  0  0
  149.1105  141.6880  154.3505 H   0  0  0  0  0  0  0  0  0  0  0  0
  146.9367  140.3719  156.0496 H   0  0  0  0  0  0  0  0  0  0  0  0
  146.9149  142.0039  155.4072 H   0  0  0  0  0  0  0  0  0  0  0  0
  147.2876  135.2102  151.5367 H   0  0  0  0  0  0  0  0  0  0  0  0
  147.4395  132.9557  151.5965 H   0  0  0  0  0  0  0  0  0  0  0  0
  146.3880  130.7308  151.1882 H   0  0  0  0  0  0  0  0  0  0  0  0
  143.9389  130.6267  150.6413 H   0  0  0  0  0  0  0  0  0  0  0  0
  142.6536  132.7783  150.5265 H   0  0  0  0  0  0  0  0  0  0  0  0
  1  2  2  0  0  0  0
  2  3  1  0  0  0  0
  2 15  1  0  0  0  0
  3  4  1  0  0  0  0
  3 22  1  0  0  0  0
  4  5  1  0  0  0  0
  4 23  1  0  0  0  0
  4 24  1  0  0  0  0
  5 14  1  0  0  0  0
  5  6  1  0  0  0  0
  5 25  1  0  0  0  0
  6  7  1  0  0  0  0
  6 26  1  0  0  0  0
  6 27  1  0  0  0  0
  7 12  1  0  0  0  0
  7  8  1  0  0  0  0
  8  9  1  0  0  0  0
  8 28  1  0  0  0  0
  8 29  1  0  0  0  0
  9 10  1  0  0  0  0
  9 30  1  0  0  0  0
  9 31  1  0  0  0  0
 10 11  1  0  0  0  0
 10 32  1  0  0  0  0
 10 33  1  0  0  0  0
 11 12  1  0  0  0  0
 11 34  1  0  0  0  0
 11 35  1  0  0  0  0
 12 13  1  0  0  0  0
 12 36  1  0  0  0  0
 13 14  1  0  0  0  0
 13 37  1  0  0  0  0
 13 38  1  0  0  0  0
 15 16  1  0  0  0  0
 15 39  1  0  0  0  0
 16 21  1  0  0  0  0
 16 17  2  0  0  0  0
 17 18  1  0  0  0  0
 17 40  1  0  0  0  0
 18 19  2  0  0  0  0
 18 41  1  0  0  0  0
 19 20  1  0  0  0  0
 19 42  1  0  0  0  0
 20 21  2  0  0  0  0
 20 43  1  0  0  0  0
M  END
> <s_m_source_file>
AV-unprocessed.smi

> <i_m_source_file_index>
2528

> <i_lp_mmshare_version>
43012

> <i_f3d_flags>
0

> <s_epik_input>
bjFbY0hdW2NIXVtjSF1bY0hdYzFbTkhdQyg9TylbTkhdW0NIMl1bQ0BIXShbQ0gyXTIpT1tDSDJdW0NAQEhdKE4yMylbQ0gyXVtDSDJdW0NIMl1bQ0gyXTM=

> <s_epik_cmdline>
J2VwaWtfcHl0aG9uJywgJy1waCcsICc3LjAnLCAnLXRuJywgJzgnLCAnLW1hJywgJzIwMCcsICctbWV0YWxfYmluZGluZycsICctaW1hZScsICc8aW5maWxlLm1hZT4nLCAnLW9tYWUnLCAnPG91dGZpbGUubWFlPic=

> <r_epik_Ionization_Penalty>
1.14192

> <r_epik_Ionization_Penalty_Charging>
0

> <r_epik_Ionization_Penalty_Neutral>
1.14192

> <r_epik_State_Penalty>
1.20248

> <r_epik_Charging_Adjusted_Penalty>
1.20248

> <i_epik_Tot_Q>
0

> <i_epik_Tot_abs_Q>
0

> <r_epik_Metal_State_Penalty>
1.20248

> <b_epik_Metal_Only>
0

> <s_lp_Force_Field>
OPLS_2005

> <r_lp_Energy>
35.0124

> <b_lp_Chiralities_Consistent>
1

> <s_lp_Variant>
AV-unprocessed.smi:2528-12

> <Gold.Version>
5.8.1

> <Gold.Id.Protein>
6NUR|6NUR_protein|mol2

> <Gold.PLP.Fitness>
41.8493

> <Gold.PLP.PLP>
-33.3818

> <Gold.PLP.part.hbond>
-1.9532

> <Gold.PLP.part.metal>
0.0000

> <Gold.PLP.part.buried>
-1.5302

> <Gold.PLP.part.nonpolar>
-33.0788

> <Gold.PLP.part.repulsive>
2.4987

> <Gold.PLP.ligand.clash>
0.0000

> <Gold.PLP.ligand.torsion>
0.0987

> <Gold.PLP.Chemscore.Hbond>
1.9120

> <Gold.PLP.Chemscore.CHOScore>
0.9754

> <Gold.PLP.Chemscore.Metal>
0.0000

> <Gold.Chemscore.Hbonds>
donor molecule, donor type, donor heavy atom, donor atom, acceptor molecule, acceptor atom, score
      L1  H     3    22       P1  7948  0.96
      L1  H    15    39       P1  7948  0.90
      L1  C    20    43       P1 10186  1.00

> <Gold.PLP.Chemscore.Internal.Correction>
0.0029

> <Gold.Rescore>
     Score         DG    S(hbond)    S(metal)    S(lipo)     H(rot)  DE(clash)    DE(int)     intcor
     16.63     -18.24       1.93        0.00      81.66       1.27       0.28       1.33       ----

> <Gold.Chemscore.Fitness>
16.6275

> <Gold.Chemscore.DG>
-18.2408

> <Gold.Chemscore.ZeroCoef>
-5.4800

> <Gold.Chemscore.Hbond>
1.9331

> <Gold.Chemscore.Metal>
0.0000

> <Gold.Chemscore.Lipo>
81.6631

> <Gold.Chemscore.Internal_Hbond>
0.0000

> <Gold.Chemscore.DEClash>
0.2799

> <Gold.Chemscore.DEInternal>
1.3335

> <Gold.Chemscore.Rot>
1.2696

> <Gold.Chemscore.Internal.Correction>
   9.000000E+99

> <Gold.Chemscore.Hbonds>
donor molecule, donor type, donor heavy atom, donor atom, acceptor molecule, acceptor atom, score
      L1  H     3    22       P1  7948  0.90
      L1  H    15    39       P1  7948  0.77

> <Gold.Chemscore.Hbond.Weighted>
-6.4565

> <Gold.Chemscore.Metal.Weighted>
-0.0000

> <Gold.Chemscore.Lipo.Weighted>
-9.5546

> <Gold.Chemscore.Internal_Hbond.Weighted>
0.0000

> <Gold.Chemscore.DEClash.Weighted>
0.2799

> <Gold.Chemscore.DEInternal.Weighted>
1.3335

> <Gold.Chemscore.Rot.Weighted>
3.2502

> <Gold.Chemscore.Internal.Correction.Weighted>
   9.000000E+99

> <Gold.Protein.RotatedTorsions>
[ 6907 6896 6895 6894 ] final -143.26 input  -60.11 | X-H torsion
[ 7974 7965 7964 7962 ] final   79.37 input  175.53 | X-H torsion
[ 8008 7997 7996 7995 ] final  113.04 input   59.86 | X-H torsion
[ 10167 10162 10161 10158 ] final -143.52 input  -65.29 | X-H torsion
[ 10718 10713 10712 10709 ] final   78.45 input   66.30 | X-H torsion
[ 10763 10752 10751 10750 ] final -177.09 input  -60.55 | X-H torsion
[ 11005 11000 10999 10996 ] final   63.61 input  -57.11 | X-H torsion

> <Gold.Protein.ActiveResidues>
 VAL166  LYS551  ARG553  GLY616  TRP617  ASP618  TYR619  PRO620  LYS621  CYS622 
 ASP623  PHE694  ASN695  SER759  ASP760  ASP761  ALA762  ILE779  LEU786  VAL792 
 PHE793  MET794  SER795  GLU796  ALA797  LYS798  CYS799  TRP800  GLU811  SER814 

> <Gold.Protein.RotatedAtoms>
  151.0981  133.5264  159.2611 H   0  0  0  0  0  0  0  0  0  0  0  0  # atno 6907 bound_to 6896
  151.2106  135.0479  159.8919 H   0  0  0  0  0  0  0  0  0  0  0  0  # atno 6908 bound_to 6896
  152.5440  134.0797  159.8283 H   0  0  0  0  0  0  0  0  0  0  0  0  # atno 6909 bound_to 6896
  145.6650  139.2481  143.1901 H   0  0  0  0  0  0  0  0  0  0  0  0  # atno 7974 bound_to 7965
  156.2232  140.2987  156.0003 H   0  0  0  0  0  0  0  0  0  0  0  0  # atno 8008 bound_to 7997
  155.2426  140.0423  157.2994 H   0  0  0  0  0  0  0  0  0  0  0  0  # atno 8009 bound_to 7997
  154.5874  140.2392  155.7977 H   0  0  0  0  0  0  0  0  0  0  0  0  # atno 8010 bound_to 7997
  139.7985  143.7866  152.2656 H   0  0  0  0  0  0  0  0  0  0  0  0  # atno 10167 bound_to 10162
  157.6745  130.9869  150.1788 H   0  0  0  0  0  0  0  0  0  0  0  0  # atno 10718 bound_to 10713
  154.5643  135.2822  155.0889 H   0  0  0  0  0  0  0  0  0  0  0  0  # atno 10763 bound_to 10752
  154.2285  135.6378  153.5171 H   0  0  0  0  0  0  0  0  0  0  0  0  # atno 10764 bound_to 10752
  153.0038  135.5531  154.6247 H   0  0  0  0  0  0  0  0  0  0  0  0  # atno 10765 bound_to 10752
  140.0013  134.6438  155.9926 H   0  0  0  0  0  0  0  0  0  0  0  0  # atno 11005 bound_to 11000
  146.1093  140.7448  142.9511 LP  0  0  0  0  0  0  0  0  0  0  0  0  # atno 17320 bound_to 7965
  144.7076  140.3913  143.7106 LP  0  0  0  0  0  0  0  0  0  0  0  0  # atno 17321 bound_to 7965
  139.7979  144.7385  150.9865 LP  0  0  0  0  0  0  0  0  0  0  0  0  # atno 17342 bound_to 10162
  140.7820  143.4375  151.0602 LP  0  0  0  0  0  0  0  0  0  0  0  0  # atno 17343 bound_to 10162
  156.2525  130.3702  149.8217 LP  0  0  0  0  0  0  0  0  0  0  0  0  # atno 17370 bound_to 10713
  156.5985  130.8537  151.3426 LP  0  0  0  0  0  0  0  0  0  0  0  0  # atno 17371 bound_to 10713
  141.1644  133.6537  156.4428 LP  0  0  0  0  0  0  0  0  0  0  0  0  # atno 17394 bound_to 11000
  140.4723  134.6742  157.5134 LP  0  0  0  0  0  0  0  0  0  0  0  0  # atno 17395 bound_to 11000

$$$$
