AV-unprocessed.smi:1545|AV-procd|sdf|6214|dock2
  -GOLD-   22720 6383D 1   1.00000     0.00000
 Structure written by MMmdl.
 42 44  0  0  0  0  0  0  0  0  2 V2000
  143.8764  137.8052  152.4654 O   0  0  0  0  0  0  0  0  0  0  0  0
  145.1353  137.1825  152.6023 C   0  0  0  0  0  0  0  0  0  0  0  0
  146.1983  137.9770  151.8329 C   0  0  0  0  0  0  0  0  0  0  0  0
  146.3941  139.3008  152.4015 N   0  0  0  0  0  0  0  0  0  0  0  0
  147.5405  139.5516  153.1625 C   0  0  0  0  0  0  0  0  0  0  0  0
  148.6181  138.7304  153.2800 N   0  3  0  0  0  0  0  0  0  0  0  0
  149.5428  139.3382  154.1343 C   0  0  0  0  0  0  0  0  0  0  0  0
  150.7923  138.9102  154.5725 C   0  0  0  0  0  0  0  0  0  0  0  0
  151.4852  139.7705  155.4496 C   0  0  0  0  0  0  0  0  0  0  0  0
  150.9342  141.0018  155.8604 C   0  0  0  0  0  0  0  0  0  0  0  0
  149.6673  141.4290  155.4106 C   0  0  0  0  0  0  0  0  0  0  0  0
  148.9883  140.5758  154.5414 C   0  0  0  0  0  0  0  0  0  0  0  0
  147.7438  140.6695  153.9067 N   0  0  0  0  0  0  0  0  0  0  0  0
  146.9016  141.8558  154.1207 C   0  0  0  0  0  0  0  0  0  0  0  0
  145.9172  141.6878  155.2948 C   0  0  2  0  0  0  0  0  0  0  0  0
  144.9485  140.7087  154.9716 O   0  0  0  0  0  0  0  0  0  0  0  0
  145.2849  143.0164  155.6762 C   0  0  0  0  0  0  0  0  0  0  0  0
  145.3148  143.4689  157.0142 C   0  0  0  0  0  0  0  0  0  0  0  0
  144.7173  144.6959  157.3620 C   0  0  0  0  0  0  0  0  0  0  0  0
  144.0859  145.4771  156.3751 C   0  0  0  0  0  0  0  0  0  0  0  0
  144.0509  145.0296  155.0403 C   0  0  0  0  0  0  0  0  0  0  0  0
  143.4425  145.7788  154.0906 F   0  0  0  0  0  0  0  0  0  0  0  0
  144.6475  143.8021  154.6920 C   0  0  0  0  0  0  0  0  0  0  0  0
  143.9033  138.3720  151.7098 H   0  0  0  0  0  0  0  0  0  0  0  0
  145.3961  137.0691  153.6554 H   0  0  0  0  0  0  0  0  0  0  0  0
  145.0527  136.1796  152.1831 H   0  0  0  0  0  0  0  0  0  0  0  0
  147.1494  137.4466  151.8963 H   0  0  0  0  0  0  0  0  0  0  0  0
  145.9421  138.0457  150.7747 H   0  0  0  0  0  0  0  0  0  0  0  0
  145.6166  139.9449  152.4344 H   0  0  0  0  0  0  0  0  0  0  0  0
  151.2175  137.9672  154.2615 H   0  0  0  0  0  0  0  0  0  0  0  0
  152.4593  139.4793  155.8153 H   0  0  0  0  0  0  0  0  0  0  0  0
  151.4953  141.6326  156.5348 H   0  0  0  0  0  0  0  0  0  0  0  0
  149.2547  142.3739  155.7322 H   0  0  0  0  0  0  0  0  0  0  0  0
  147.5519  142.7167  154.2788 H   0  0  0  0  0  0  0  0  0  0  0  0
  146.3607  142.0492  153.1934 H   0  0  0  0  0  0  0  0  0  0  0  0
  146.4632  141.3089  156.1598 H   0  0  0  0  0  0  0  0  0  0  0  0
  144.8325  140.7005  154.0336 H   0  0  0  0  0  0  0  0  0  0  0  0
  145.7938  142.8747  157.7791 H   0  0  0  0  0  0  0  0  0  0  0  0
  144.7420  145.0372  158.3867 H   0  0  0  0  0  0  0  0  0  0  0  0
  143.6275  146.4179  156.6420 H   0  0  0  0  0  0  0  0  0  0  0  0
  144.6119  143.4668  153.6658 H   0  0  0  0  0  0  0  0  0  0  0  0
  148.7108  137.8349  152.8186 H   0  0  0  0  0  0  0  0  0  0  0  0
  1  2  1  0  0  0  0
  1 24  1  0  0  0  0
  2  3  1  0  0  0  0
  2 25  1  0  0  0  0
  2 26  1  0  0  0  0
  3  4  1  0  0  0  0
  3 27  1  0  0  0  0
  3 28  1  0  0  0  0
  4  5  1  0  0  0  0
  4 29  1  0  0  0  0
  5 13  1  0  0  0  0
  5  6  2  0  0  0  0
  6  7  1  0  0  0  0
  6 42  1  0  0  0  0
  7 12  2  0  0  0  0
  7  8  1  0  0  0  0
  8  9  2  0  0  0  0
  8 30  1  0  0  0  0
  9 10  1  0  0  0  0
  9 31  1  0  0  0  0
 10 11  2  0  0  0  0
 10 32  1  0  0  0  0
 11 12  1  0  0  0  0
 11 33  1  0  0  0  0
 12 13  1  0  0  0  0
 13 14  1  0  0  0  0
 14 15  1  0  0  0  0
 14 34  1  0  0  0  0
 14 35  1  0  0  0  0
 15 16  1  0  0  0  0
 15 17  1  0  0  0  0
 15 36  1  0  0  0  0
 16 37  1  0  0  0  0
 17 23  1  0  0  0  0
 17 18  2  0  0  0  0
 18 19  1  0  0  0  0
 18 38  1  0  0  0  0
 19 20  2  0  0  0  0
 19 39  1  0  0  0  0
 20 21  1  0  0  0  0
 20 40  1  0  0  0  0
 21 22  1  0  0  0  0
 21 23  2  0  0  0  0
 23 41  1  0  0  0  0
M  CHG  1   6   1
M  END
> <s_m_source_file>
AV-unprocessed.smi

> <i_m_source_file_index>
1545

> <i_lp_mmshare_version>
43012

> <i_f3d_flags>
0

> <s_epik_input>
W09IXVtDSDJdW0NIMl1bTkhdYyhuMSluKGMoYzEyKVtjSF1bY0hdW2NIXVtjSF0yKVtDSDJdW0NASF0oW09IXSljM1tjSF1bY0hdW2NIXWMoRilbY0hdMw==

> <s_epik_cmdline>
J2VwaWtfcHl0aG9uJywgJy1waCcsICc3LjAnLCAnLXRuJywgJzgnLCAnLW1hJywgJzIwMCcsICctbWV0YWxfYmluZGluZycsICctaW1hZScsICc8aW5maWxlLm1hZT4nLCAnLW9tYWUnLCAnPG91dGZpbGUubWFlPic=

> <r_epik_Ionization_Penalty>
0.0688114

> <r_epik_Ionization_Penalty_Charging>
0.0688055

> <r_epik_Ionization_Penalty_Neutral>
5.85933e-06

> <r_epik_State_Penalty>
0.0602293

> <r_epik_Charging_Adjusted_Penalty>
0.129035

> <i_epik_Tot_Q>
1

> <i_epik_Tot_abs_Q>
1

> <r_epik_Metal_State_Penalty>
2.77411

> <b_epik_Metal_Only>
0

> <s_lp_Force_Field>
OPLS_2005

> <r_lp_Energy>
22.2772

> <b_lp_Chiralities_Consistent>
1

> <s_lp_Variant>
AV-unprocessed.smi:1545-1

> <Gold.Version>
5.8.1

> <Gold.Id.Protein>
6NUR|6NUR_protein|mol2

> <Gold.PLP.Fitness>
64.7940

> <Gold.PLP.PLP>
-48.1308

> <Gold.PLP.part.hbond>
-6.0000

> <Gold.PLP.part.metal>
0.0000

> <Gold.PLP.part.buried>
-2.3776

> <Gold.PLP.part.nonpolar>
-41.4130

> <Gold.PLP.part.repulsive>
0.1013

> <Gold.PLP.ligand.clash>
0.0000

> <Gold.PLP.ligand.torsion>
0.6815

> <Gold.PLP.Chemscore.Hbond>
5.9920

> <Gold.PLP.Chemscore.CHOScore>
0.0000

> <Gold.PLP.Chemscore.Metal>
0.0000

> <Gold.Chemscore.Hbonds>
donor molecule, donor type, donor heavy atom, donor atom, acceptor molecule, acceptor atom, score
      L1  H     1    24       P1 10171  1.00
      L1  H     4    29       P1 10175  2.00
      L1  H     6    42       P1  7948  2.00
      L1  H    16    37       P1 10175  0.99

> <Gold.PLP.Chemscore.Internal.Correction>
0.0502

> <Gold.Rescore>
     Score         DG    S(hbond)    S(metal)    S(lipo)     H(rot)  DE(clash)    DE(int)     intcor
     20.00     -21.05       3.96        0.00      88.88       3.15       0.52       0.53       ----

> <Gold.Chemscore.Fitness>
20.0018

> <Gold.Chemscore.DG>
-21.0519

> <Gold.Chemscore.ZeroCoef>
-5.4800

> <Gold.Chemscore.Hbond>
3.9634

> <Gold.Chemscore.Metal>
0.0000

> <Gold.Chemscore.Lipo>
88.8835

> <Gold.Chemscore.Internal_Hbond>
0.0000

> <Gold.Chemscore.DEClash>
0.5214

> <Gold.Chemscore.DEInternal>
0.5286

> <Gold.Chemscore.Rot>
3.1505

> <Gold.Chemscore.Internal.Correction>
   9.000000E+99

> <Gold.Chemscore.Hbonds>
donor molecule, donor type, donor heavy atom, donor atom, acceptor molecule, acceptor atom, score
      L1  H     1    24       P1 10171  0.92
      L1  H     4    29       P1 10175  0.88
      L1  H     6    42       P1  7948  1.00
      L1  H    16    37       P1 10175  0.92

> <Gold.Chemscore.Hbond.Weighted>
-13.2377

> <Gold.Chemscore.Metal.Weighted>
-0.0000

> <Gold.Chemscore.Lipo.Weighted>
-10.3994

> <Gold.Chemscore.Internal_Hbond.Weighted>
0.0000

> <Gold.Chemscore.DEClash.Weighted>
0.5214

> <Gold.Chemscore.DEInternal.Weighted>
0.5286

> <Gold.Chemscore.Rot.Weighted>
8.0652

> <Gold.Chemscore.Internal.Correction.Weighted>
   9.000000E+99

> <Gold.Protein.RotatedTorsions>
[ 6907 6896 6895 6894 ] final  -80.55 input  -60.11 | X-H torsion
[ 7974 7965 7964 7962 ] final -126.77 input  175.53 | X-H torsion
[ 8008 7997 7996 7995 ] final   12.22 input   59.86 | X-H torsion
[ 10167 10162 10161 10158 ] final  -99.77 input  -65.29 | X-H torsion
[ 10718 10713 10712 10709 ] final   59.55 input   66.30 | X-H torsion
[ 10763 10752 10751 10750 ] final -122.40 input  -60.55 | X-H torsion
[ 11005 11000 10999 10996 ] final   35.09 input  -57.11 | X-H torsion

> <Gold.Protein.ActiveResidues>
 VAL166  LYS551  ARG553  GLY616  TRP617  ASP618  TYR619  PRO620  LYS621  CYS622 
 ASP623  PHE694  ASN695  SER759  ASP760  ASP761  ALA762  ILE779  LEU786  VAL792 
 PHE793  MET794  SER795  GLU796  ALA797  LYS798  CYS799  TRP800  GLU811  SER814 

> <Gold.Protein.RotatedAtoms>
  150.6927  134.3952  159.5093 H   0  0  0  0  0  0  0  0  0  0  0  0  # atno 6907 bound_to 6896
  152.1734  134.8812  160.0541 H   0  0  0  0  0  0  0  0  0  0  0  0  # atno 6908 bound_to 6896
  151.9830  133.3729  159.4151 H   0  0  0  0  0  0  0  0  0  0  0  0  # atno 6909 bound_to 6896
  144.9839  140.7667  143.4595 H   0  0  0  0  0  0  0  0  0  0  0  0  # atno 7974 bound_to 7965
  154.8176  140.2878  155.5809 H   0  0  0  0  0  0  0  0  0  0  0  0  # atno 8008 bound_to 7997
  156.2994  140.2556  156.3007 H   0  0  0  0  0  0  0  0  0  0  0  0  # atno 8009 bound_to 7997
  154.9376  140.0382  157.2069 H   0  0  0  0  0  0  0  0  0  0  0  0  # atno 8010 bound_to 7997
  140.2589  143.3421  152.0644 H   0  0  0  0  0  0  0  0  0  0  0  0  # atno 10167 bound_to 10162
  157.5684  130.8889  149.9226 H   0  0  0  0  0  0  0  0  0  0  0  0  # atno 10718 bound_to 10713
  154.8688  135.4134  154.2776 H   0  0  0  0  0  0  0  0  0  0  0  0  # atno 10763 bound_to 10752
  153.3675  135.7006  153.6669 H   0  0  0  0  0  0  0  0  0  0  0  0  # atno 10764 bound_to 10752
  153.5545  135.3622  155.2745 H   0  0  0  0  0  0  0  0  0  0  0  0  # atno 10765 bound_to 10752
  140.2462  134.3357  155.7907 H   0  0  0  0  0  0  0  0  0  0  0  0  # atno 11005 bound_to 11000
  145.2382  139.2084  143.5007 LP  0  0  0  0  0  0  0  0  0  0  0  0  # atno 17320 bound_to 7965
  146.3415  140.2272  142.8592 LP  0  0  0  0  0  0  0  0  0  0  0  0  # atno 17321 bound_to 7965
  139.5023  144.6731  151.6194 LP  0  0  0  0  0  0  0  0  0  0  0  0  # atno 17342 bound_to 10162
  140.5981  143.9659  150.6368 LP  0  0  0  0  0  0  0  0  0  0  0  0  # atno 17343 bound_to 10162
  156.0731  130.3682  150.0734 LP  0  0  0  0  0  0  0  0  0  0  0  0  # atno 17370 bound_to 10713
  156.8890  130.9582  151.3591 LP  0  0  0  0  0  0  0  0  0  0  0  0  # atno 17371 bound_to 10713
  141.2206  133.7327  156.8964 LP  0  0  0  0  0  0  0  0  0  0  0  0  # atno 17394 bound_to 11000
  140.1604  134.9169  157.2707 LP  0  0  0  0  0  0  0  0  0  0  0  0  # atno 17395 bound_to 11000

$$$$
