AV-unprocessed.smi:671|AV-procd|sdf|3276|dock7
  -GOLD-   22720 0233D 1   1.00000     0.00000
 Structure written by MMmdl.
 49 50  0  0  0  0  0  0  0  0  1 V2000
  152.7760  138.5117  154.3821 C   0  0  0  0  0  0  0  0  0  0  0  0
  151.9265  139.3826  155.2628 C   0  0  0  0  0  0  0  0  0  0  0  0
  152.4199  139.8296  156.4060 N   0  0  0  0  0  0  0  0  0  0  0  0
  151.4281  140.5666  156.9452 N   0  0  0  0  0  0  0  0  0  0  0  0
  151.6384  141.2172  158.2239 C   0  0  0  0  0  0  0  0  0  0  0  0
  150.3051  140.5834  156.1414 C   0  0  0  0  0  0  0  0  0  0  0  0
  149.0646  141.3292  156.5125 C   0  0  0  0  0  0  0  0  0  0  0  0
  150.5919  139.8299  155.0355 C   0  0  0  0  0  0  0  0  0  0  0  0
  149.7095  139.5369  153.8496 C   0  0  0  0  0  0  0  0  0  0  0  0
  148.2607  139.1972  154.2629 C   0  0  1  0  0  0  0  0  0  0  0  0
  147.2675  140.3107  153.8939 C   0  0  0  0  0  0  0  0  0  0  0  0
  147.8307  137.9507  153.6255 N   0  0  0  0  0  0  0  0  0  0  0  0
  146.6636  137.2968  153.7715 C   0  0  0  0  0  0  0  0  0  0  0  0
  145.7773  137.7134  154.5149 O   0  0  0  0  0  0  0  0  0  0  0  0
  146.5572  136.1674  153.0495 N   0  0  0  0  0  0  0  0  0  0  0  0
  145.3898  135.2859  153.0065 C   0  0  1  0  0  0  0  0  0  0  0  0
  144.2849  135.9381  152.1644 C   0  0  0  0  0  0  0  0  0  0  0  0
  144.4401  135.3335  150.7723 C   0  0  0  0  0  0  0  0  0  0  0  0
  144.8569  133.8886  151.0336 C   0  0  0  0  0  0  0  0  0  0  0  0
  145.6641  133.9058  152.3448 C   0  0  1  0  0  0  0  0  0  0  0  0
  147.1436  133.5341  152.1274 C   0  0  0  0  0  0  0  0  0  0  0  0
  152.2883  137.5552  154.1941 H   0  0  0  0  0  0  0  0  0  0  0  0
  153.7476  138.3040  154.8323 H   0  0  0  0  0  0  0  0  0  0  0  0
  152.9533  138.9890  153.4182 H   0  0  0  0  0  0  0  0  0  0  0  0
  150.9123  140.8464  158.9477 H   0  0  0  0  0  0  0  0  0  0  0  0
  151.5123  142.2942  158.1117 H   0  0  0  0  0  0  0  0  0  0  0  0
  152.6432  141.0164  158.5987 H   0  0  0  0  0  0  0  0  0  0  0  0
  148.2374  141.0592  155.8572 H   0  0  0  0  0  0  0  0  0  0  0  0
  149.2207  142.4049  156.4311 H   0  0  0  0  0  0  0  0  0  0  0  0
  148.7628  141.1050  157.5358 H   0  0  0  0  0  0  0  0  0  0  0  0
  149.6967  140.3806  153.1586 H   0  0  0  0  0  0  0  0  0  0  0  0
  150.1307  138.7096  153.2778 H   0  0  0  0  0  0  0  0  0  0  0  0
  148.2164  139.0743  155.3464 H   0  0  0  0  0  0  0  0  0  0  0  0
  147.5078  141.2446  154.4025 H   0  0  0  0  0  0  0  0  0  0  0  0
  146.2509  140.0397  154.1806 H   0  0  0  0  0  0  0  0  0  0  0  0
  147.2700  140.5063  152.8211 H   0  0  0  0  0  0  0  0  0  0  0  0
  148.5031  137.5268  153.0026 H   0  0  0  0  0  0  0  0  0  0  0  0
  147.3433  135.9032  152.4741 H   0  0  0  0  0  0  0  0  0  0  0  0
  145.0147  135.1430  154.0215 H   0  0  0  0  0  0  0  0  0  0  0  0
  143.3107  135.6592  152.5682 H   0  0  0  0  0  0  0  0  0  0  0  0
  144.3309  137.0282  152.1566 H   0  0  0  0  0  0  0  0  0  0  0  0
  143.5292  135.4072  150.1776 H   0  0  0  0  0  0  0  0  0  0  0  0
  145.2336  135.8486  150.2308 H   0  0  0  0  0  0  0  0  0  0  0  0
  143.9645  133.2755  151.1665 H   0  0  0  0  0  0  0  0  0  0  0  0
  145.4113  133.4683  150.1936 H   0  0  0  0  0  0  0  0  0  0  0  0
  145.2416  133.1386  152.9951 H   0  0  0  0  0  0  0  0  0  0  0  0
  147.6408  134.2335  151.4544 H   0  0  0  0  0  0  0  0  0  0  0  0
  147.2326  132.5394  151.6900 H   0  0  0  0  0  0  0  0  0  0  0  0
  147.6905  133.5224  153.0704 H   0  0  0  0  0  0  0  0  0  0  0  0
  1  2  1  0  0  0  0
  1 22  1  0  0  0  0
  1 23  1  0  0  0  0
  1 24  1  0  0  0  0
  2  8  1  0  0  0  0
  2  3  2  0  0  0  0
  3  4  1  0  0  0  0
  4  5  1  0  0  0  0
  4  6  1  0  0  0  0
  5 25  1  0  0  0  0
  5 26  1  0  0  0  0
  5 27  1  0  0  0  0
  6  7  1  0  0  0  0
  6  8  2  0  0  0  0
  7 28  1  0  0  0  0
  7 29  1  0  0  0  0
  7 30  1  0  0  0  0
  8  9  1  0  0  0  0
  9 10  1  0  0  0  0
  9 31  1  0  0  0  0
  9 32  1  0  0  0  0
 10 11  1  0  0  0  0
 10 12  1  0  0  0  0
 10 33  1  0  0  0  0
 11 34  1  0  0  0  0
 11 35  1  0  0  0  0
 11 36  1  0  0  0  0
 12 13  1  0  0  0  0
 12 37  1  0  0  0  0
 13 14  2  0  0  0  0
 13 15  1  0  0  0  0
 15 16  1  0  0  0  0
 15 38  1  0  0  0  0
 16 20  1  0  0  0  0
 16 17  1  0  0  0  0
 16 39  1  0  0  0  0
 17 18  1  0  0  0  0
 17 40  1  0  0  0  0
 17 41  1  0  0  0  0
 18 19  1  0  0  0  0
 18 42  1  0  0  0  0
 18 43  1  0  0  0  0
 19 20  1  0  0  0  0
 19 44  1  0  0  0  0
 19 45  1  0  0  0  0
 20 21  1  0  0  0  0
 20 46  1  0  0  0  0
 21 47  1  0  0  0  0
 21 48  1  0  0  0  0
 21 49  1  0  0  0  0
M  END
> <s_m_source_file>
AV-unprocessed.smi

> <i_m_source_file_index>
671

> <i_lp_mmshare_version>
43012

> <i_f3d_flags>
0

> <s_epik_input>
W0NIM11jMW5uKFtDSDNdKWMoW0NIM10pYzFbQ0gyXVtDQEhdKFtDSDNdKVtOSF1DKD1PKVtOSF1bQ0BASF0yW0NIMl1bQ0gyXVtDSDJdW0NASF0yW0NIM10=

> <s_epik_cmdline>
J2VwaWtfcHl0aG9uJywgJy1waCcsICc3LjAnLCAnLXRuJywgJzgnLCAnLW1hJywgJzIwMCcsICctbWV0YWxfYmluZGluZycsICctaW1hZScsICc8aW5maWxlLm1hZT4nLCAnLW9tYWUnLCAnPG91dGZpbGUubWFlPic=

> <r_lp_tautomer_probability>
1

> <r_epik_Ionization_Penalty>
0.0126855

> <r_epik_Ionization_Penalty_Charging>
0

> <r_epik_Ionization_Penalty_Neutral>
0.0126855

> <r_epik_State_Penalty>
0.00977547

> <r_epik_Charging_Adjusted_Penalty>
0.00977547

> <i_epik_Tot_Q>
0

> <i_epik_Tot_abs_Q>
0

> <r_epik_Metal_State_Penalty>
0.00957132

> <b_epik_Metal_Only>
0

> <s_lp_Force_Field>
OPLS_2005

> <r_lp_Energy>
24.0852

> <b_lp_Chiralities_Consistent>
1

> <s_lp_Variant>
AV-unprocessed.smi:671-4

> <Gold.Version>
5.8.1

> <Gold.Id.Protein>
6NUR|6NUR_protein|mol2

> <Gold.PLP.Fitness>
41.1928

> <Gold.PLP.PLP>
-34.3652

> <Gold.PLP.part.hbond>
-3.0000

> <Gold.PLP.part.metal>
0.0000

> <Gold.PLP.part.buried>
0.9972

> <Gold.PLP.part.nonpolar>
-32.6606

> <Gold.PLP.part.repulsive>
0.1271

> <Gold.PLP.ligand.clash>
0.0000

> <Gold.PLP.ligand.torsion>
1.0935

> <Gold.PLP.Chemscore.Hbond>
3.0000

> <Gold.PLP.Chemscore.CHOScore>
0.0000

> <Gold.PLP.Chemscore.Metal>
0.0000

> <Gold.Chemscore.Hbonds>
donor molecule, donor type, donor heavy atom, donor atom, acceptor molecule, acceptor atom, score
      L1  H    12    37       P1  7948  1.00
      L1  H    15    38       P1  7948  1.00
      P1  H  7997  8010       L1     3  1.00

> <Gold.PLP.Chemscore.Internal.Correction>
0.0146

> <Gold.Rescore>
     Score         DG    S(hbond)    S(metal)    S(lipo)     H(rot)  DE(clash)    DE(int)     intcor
     19.37     -22.07       2.84        0.00      92.33       1.45       1.64       1.06       ----

> <Gold.Chemscore.Fitness>
19.3726

> <Gold.Chemscore.DG>
-22.0652

> <Gold.Chemscore.ZeroCoef>
-5.4800

> <Gold.Chemscore.Hbond>
2.8426

> <Gold.Chemscore.Metal>
0.0000

> <Gold.Chemscore.Lipo>
92.3317

> <Gold.Chemscore.Internal_Hbond>
0.0000

> <Gold.Chemscore.DEClash>
1.6369

> <Gold.Chemscore.DEInternal>
1.0557

> <Gold.Chemscore.Rot>
1.4499

> <Gold.Chemscore.Internal.Correction>
   9.000000E+99

> <Gold.Chemscore.Hbonds>
donor molecule, donor type, donor heavy atom, donor atom, acceptor molecule, acceptor atom, score
      L1  H    12    37       P1  7948  0.95
      L1  H    15    38       P1  7948  0.95
      P1  H  7997  8010       L1     3  0.94

> <Gold.Chemscore.Hbond.Weighted>
-9.4943

> <Gold.Chemscore.Metal.Weighted>
-0.0000

> <Gold.Chemscore.Lipo.Weighted>
-10.8028

> <Gold.Chemscore.Internal_Hbond.Weighted>
0.0000

> <Gold.Chemscore.DEClash.Weighted>
1.6369

> <Gold.Chemscore.DEInternal.Weighted>
1.0557

> <Gold.Chemscore.Rot.Weighted>
3.7118

> <Gold.Chemscore.Internal.Correction.Weighted>
   9.000000E+99

> <Gold.Protein.RotatedTorsions>
[ 6907 6896 6895 6894 ] final -159.00 input  -60.11 | X-H torsion
[ 7974 7965 7964 7962 ] final   78.28 input  175.53 | X-H torsion
[ 8008 7997 7996 7995 ] final   65.84 input   59.86 | X-H torsion
[ 10167 10162 10161 10158 ] final  -70.23 input  -65.29 | X-H torsion
[ 10718 10713 10712 10709 ] final  100.94 input   66.30 | X-H torsion
[ 10763 10752 10751 10750 ] final  -79.02 input  -60.55 | X-H torsion
[ 11005 11000 10999 10996 ] final  139.83 input  -57.11 | X-H torsion

> <Gold.Protein.ActiveResidues>
 VAL166  LYS551  ARG553  GLY616  TRP617  ASP618  TYR619  PRO620  LYS621  CYS622 
 ASP623  PHE694  ASN695  SER759  ASP760  ASP761  ALA762  ILE779  LEU786  VAL792 
 PHE793  MET794  SER795  GLU796  ALA797  LYS798  CYS799  TRP800  GLU811  SER814 

> <Gold.Protein.RotatedAtoms>
  151.3268  133.4017  159.2658 H   0  0  0  0  0  0  0  0  0  0  0  0  # atno 6907 bound_to 6896
  150.9989  134.9306  159.7953 H   0  0  0  0  0  0  0  0  0  0  0  0  # atno 6908 bound_to 6896
  152.5269  134.3233  159.9208 H   0  0  0  0  0  0  0  0  0  0  0  0  # atno 6909 bound_to 6896
  145.6792  139.2518  143.1824 H   0  0  0  0  0  0  0  0  0  0  0  0  # atno 7974 bound_to 7965
  155.6680  140.3497  155.4807 H   0  0  0  0  0  0  0  0  0  0  0  0  # atno 8008 bound_to 7997
  155.9712  140.1156  157.0833 H   0  0  0  0  0  0  0  0  0  0  0  0  # atno 8009 bound_to 7997
  154.4167  140.1156  156.5295 H   0  0  0  0  0  0  0  0  0  0  0  0  # atno 8010 bound_to 7997
  140.5369  143.2317  151.7161 H   0  0  0  0  0  0  0  0  0  0  0  0  # atno 10167 bound_to 10162
  157.6842  131.0712  150.5176 H   0  0  0  0  0  0  0  0  0  0  0  0  # atno 10718 bound_to 10713
  154.5333  135.5710  153.6777 H   0  0  0  0  0  0  0  0  0  0  0  0  # atno 10763 bound_to 10752
  152.9945  135.6210  154.2600 H   0  0  0  0  0  0  0  0  0  0  0  0  # atno 10764 bound_to 10752
  154.2527  135.2858  155.2789 H   0  0  0  0  0  0  0  0  0  0  0  0  # atno 10765 bound_to 10752
  140.0283  134.9364  157.0612 H   0  0  0  0  0  0  0  0  0  0  0  0  # atno 11005 bound_to 11000
  146.0979  140.7578  142.9563 LP  0  0  0  0  0  0  0  0  0  0  0  0  # atno 17320 bound_to 7965
  144.7032  140.3741  143.7139 LP  0  0  0  0  0  0  0  0  0  0  0  0  # atno 17321 bound_to 7965
  139.4974  144.4029  152.0162 LP  0  0  0  0  0  0  0  0  0  0  0  0  # atno 17342 bound_to 10162
  140.3135  144.3510  150.6027 LP  0  0  0  0  0  0  0  0  0  0  0  0  # atno 17343 bound_to 10162
  156.5491  130.4227  149.6116 LP  0  0  0  0  0  0  0  0  0  0  0  0  # atno 17370 bound_to 10713
  156.2918  130.7128  151.1979 LP  0  0  0  0  0  0  0  0  0  0  0  0  # atno 17371 bound_to 10713
  140.4269  134.1822  155.7166 LP  0  0  0  0  0  0  0  0  0  0  0  0  # atno 17394 bound_to 11000
  141.1816  133.8402  157.1238 LP  0  0  0  0  0  0  0  0  0  0  0  0  # atno 17395 bound_to 11000

$$$$
