AV-unprocessed.smi:2790|AV-procd|sdf|10767|dock5
  -GOLD-   2272015203D 1   1.00000     0.00000
 Structure written by MMmdl.
 47 48  0  0  0  0  0  0  0  0  3 V2000
  146.8607  134.0783  154.1452 C   0  0  0  0  0  0  0  0  0  0  0  0
  147.9808  133.9546  153.1830 N   0  3  0  0  0  0  0  0  0  0  0  0
  147.6928  132.9516  152.1346 C   0  0  0  0  0  0  0  0  0  0  0  0
  149.2921  133.7206  153.8412 C   0  0  0  0  0  0  0  0  0  0  0  0
  149.5590  134.6755  155.0091 C   0  0  0  0  0  0  0  0  0  0  0  0
  149.7857  134.2352  156.1364 O   0  0  0  0  0  0  0  0  0  0  0  0
  149.5176  135.9855  154.7218 N   0  0  0  0  0  0  0  0  0  0  0  0
  149.7380  137.0737  155.6747 C   0  0  0  0  0  0  0  0  0  0  0  0
  149.8814  138.4694  154.9950 C   0  0  0  0  0  0  0  0  0  0  0  0
  148.5101  138.8807  154.4101 C   0  0  0  0  0  0  0  0  0  0  0  0
  148.3663  140.1390  153.7716 C   0  0  0  0  0  0  0  0  0  0  0  0
  147.1214  140.5229  153.2343 C   0  0  0  0  0  0  0  0  0  0  0  0
  146.0627  139.6938  153.3340 N   0  3  0  0  0  0  0  0  0  0  0  0
  146.1370  138.4909  153.9397 C   0  0  0  0  0  0  0  0  0  0  0  0
  147.3571  138.0553  154.4957 C   0  0  0  0  0  0  0  0  0  0  0  0
  150.3099  139.5298  156.0522 C   0  0  0  0  0  0  0  0  0  0  0  0
  151.7367  139.3410  156.6008 C   0  0  0  0  0  0  0  0  0  0  0  0
  152.7732  139.3082  155.4726 C   0  0  0  0  0  0  0  0  0  0  0  0
  152.4180  138.2345  154.4390 C   0  0  0  0  0  0  0  0  0  0  0  0
  150.9915  138.4372  153.8967 C   0  0  0  0  0  0  0  0  0  0  0  0
  146.7134  133.1478  154.6948 H   0  0  0  0  0  0  0  0  0  0  0  0
  145.9329  134.3160  153.6237 H   0  0  0  0  0  0  0  0  0  0  0  0
  147.0434  134.8746  154.8672 H   0  0  0  0  0  0  0  0  0  0  0  0
  147.6238  131.9494  152.5603 H   0  0  0  0  0  0  0  0  0  0  0  0
  148.4766  132.9489  151.3764 H   0  0  0  0  0  0  0  0  0  0  0  0
  146.7510  133.1765  151.6330 H   0  0  0  0  0  0  0  0  0  0  0  0
  149.3642  132.6829  154.1723 H   0  0  0  0  0  0  0  0  0  0  0  0
  150.0959  133.8765  153.1201 H   0  0  0  0  0  0  0  0  0  0  0  0
  149.3095  136.2538  153.7707 H   0  0  0  0  0  0  0  0  0  0  0  0
  148.8772  137.0771  156.3436 H   0  0  0  0  0  0  0  0  0  0  0  0
  150.5874  136.8495  156.3192 H   0  0  0  0  0  0  0  0  0  0  0  0
  149.2020  140.8175  153.6886 H   0  0  0  0  0  0  0  0  0  0  0  0
  146.9429  141.4626  152.7318 H   0  0  0  0  0  0  0  0  0  0  0  0
  145.2232  137.9151  153.9618 H   0  0  0  0  0  0  0  0  0  0  0  0
  147.3756  137.0896  154.9762 H   0  0  0  0  0  0  0  0  0  0  0  0
  150.2487  140.5227  155.6037 H   0  0  0  0  0  0  0  0  0  0  0  0
  149.6190  139.5414  156.8950 H   0  0  0  0  0  0  0  0  0  0  0  0
  151.9739  140.1523  157.2896 H   0  0  0  0  0  0  0  0  0  0  0  0
  151.7984  138.4235  157.1860 H   0  0  0  0  0  0  0  0  0  0  0  0
  152.8161  140.2840  154.9871 H   0  0  0  0  0  0  0  0  0  0  0  0
  153.7666  139.1213  155.8816 H   0  0  0  0  0  0  0  0  0  0  0  0
  153.1311  138.2727  153.6151 H   0  0  0  0  0  0  0  0  0  0  0  0
  152.5245  137.2441  154.8804 H   0  0  0  0  0  0  0  0  0  0  0  0
  150.7840  137.6688  153.1519 H   0  0  0  0  0  0  0  0  0  0  0  0
  150.9928  139.3874  153.3603 H   0  0  0  0  0  0  0  0  0  0  0  0
  148.0582  134.8436  152.7086 H   0  0  0  0  0  0  0  0  0  0  0  0
  145.1702  139.9888  152.9366 H   0  0  0  0  0  0  0  0  0  0  0  0
  1  2  1  0  0  0  0
  1 21  1  0  0  0  0
  1 22  1  0  0  0  0
  1 23  1  0  0  0  0
  2  3  1  0  0  0  0
  2  4  1  0  0  0  0
  2 46  1  0  0  0  0
  3 24  1  0  0  0  0
  3 25  1  0  0  0  0
  3 26  1  0  0  0  0
  4  5  1  0  0  0  0
  4 27  1  0  0  0  0
  4 28  1  0  0  0  0
  5  6  2  0  0  0  0
  5  7  1  0  0  0  0
  7  8  1  0  0  0  0
  7 29  1  0  0  0  0
  8  9  1  0  0  0  0
  8 30  1  0  0  0  0
  8 31  1  0  0  0  0
  9 20  1  0  0  0  0
  9 10  1  0  0  0  0
  9 16  1  0  0  0  0
 10 15  1  0  0  0  0
 10 11  2  0  0  0  0
 11 12  1  0  0  0  0
 11 32  1  0  0  0  0
 12 13  2  0  0  0  0
 12 33  1  0  0  0  0
 13 14  1  0  0  0  0
 13 47  1  0  0  0  0
 14 15  2  0  0  0  0
 14 34  1  0  0  0  0
 15 35  1  0  0  0  0
 16 17  1  0  0  0  0
 16 36  1  0  0  0  0
 16 37  1  0  0  0  0
 17 18  1  0  0  0  0
 17 38  1  0  0  0  0
 17 39  1  0  0  0  0
 18 19  1  0  0  0  0
 18 40  1  0  0  0  0
 18 41  1  0  0  0  0
 19 20  1  0  0  0  0
 19 42  1  0  0  0  0
 19 43  1  0  0  0  0
 20 44  1  0  0  0  0
 20 45  1  0  0  0  0
M  CHG  1   2   1
M  CHG  1  13   1
M  END
> <s_m_source_file>
AV-unprocessed.smi

> <i_m_source_file_index>
2790

> <i_lp_mmshare_version>
43012

> <i_f3d_flags>
0

> <s_epik_input>
W0NIM11OKFtDSDNdKVtDSDJdQyg9TylbTkhdW0NIMl1DMShbQ0gyXVtDSDJdW0NIMl1bQ0gyXVtDSDJdMSljMltjSF1bY0hdbltjSF1bY0hdMg==

> <s_epik_cmdline>
J2VwaWtfcHl0aG9uJywgJy1waCcsICc3LjAnLCAnLXRuJywgJzgnLCAnLW1hJywgJzIwMCcsICctbWV0YWxfYmluZGluZycsICctaW1hZScsICc8aW5maWxlLm1hZT4nLCAnLW9tYWUnLCAnPG91dGZpbGUubWFlPic=

> <r_epik_Ionization_Penalty>
1.49613

> <r_epik_Ionization_Penalty_Charging>
1.4961

> <r_epik_Ionization_Penalty_Neutral>
2.84587e-05

> <r_epik_State_Penalty>
1.54102

> <r_epik_Charging_Adjusted_Penalty>
3.03712

> <i_epik_Tot_Q>
2

> <i_epik_Tot_abs_Q>
2

> <r_epik_Metal_State_Penalty>
1.62888

> <b_epik_Metal_Only>
0

> <s_lp_Force_Field>
OPLS_2005

> <r_lp_Energy>
33.1663

> <b_lp_Chiralities_Consistent>
1

> <s_lp_Variant>
AV-unprocessed.smi:2790-2

> <Gold.Version>
5.8.1

> <Gold.Id.Protein>
6NUR|6NUR_protein|mol2

> <Gold.PLP.Fitness>
43.0530

> <Gold.PLP.PLP>
-28.3235

> <Gold.PLP.part.hbond>
-3.0000

> <Gold.PLP.part.metal>
0.0000

> <Gold.PLP.part.buried>
1.0183

> <Gold.PLP.part.nonpolar>
-25.8676

> <Gold.PLP.part.repulsive>
0.0370

> <Gold.PLP.ligand.clash>
0.0000

> <Gold.PLP.ligand.torsion>
0.1559

> <Gold.PLP.Chemscore.Hbond>
5.0000

> <Gold.PLP.Chemscore.CHOScore>
0.0000

> <Gold.PLP.Chemscore.Metal>
0.0000

> <Gold.Chemscore.Hbonds>
donor molecule, donor type, donor heavy atom, donor atom, acceptor molecule, acceptor atom, score
      L1  H     2    46       P1  7948  2.00
      L1  H     7    29       P1  7948  1.00
      L1  H    13    47       P1 10175  2.00

> <Gold.PLP.Chemscore.Internal.Correction>
0.0413

> <Gold.Rescore>
     Score         DG    S(hbond)    S(metal)    S(lipo)     H(rot)  DE(clash)    DE(int)     intcor
     18.34     -19.97       2.78        0.00      82.31       1.73       0.62       1.01       ----

> <Gold.Chemscore.Fitness>
18.3373

> <Gold.Chemscore.DG>
-19.9676

> <Gold.Chemscore.ZeroCoef>
-5.4800

> <Gold.Chemscore.Hbond>
2.7834

> <Gold.Chemscore.Metal>
0.0000

> <Gold.Chemscore.Lipo>
82.3069

> <Gold.Chemscore.Internal_Hbond>
0.0000

> <Gold.Chemscore.DEClash>
0.6222

> <Gold.Chemscore.DEInternal>
1.0081

> <Gold.Chemscore.Rot>
1.7339

> <Gold.Chemscore.Internal.Correction>
   9.000000E+99

> <Gold.Chemscore.Hbonds>
donor molecule, donor type, donor heavy atom, donor atom, acceptor molecule, acceptor atom, score
      L1  H     2    46       P1  7948  0.77
      L1  H     7    29       P1  7948  0.85
      L1  H    13    47       P1 10175  1.00

> <Gold.Chemscore.Hbond.Weighted>
-9.2964

> <Gold.Chemscore.Metal.Weighted>
-0.0000

> <Gold.Chemscore.Lipo.Weighted>
-9.6299

> <Gold.Chemscore.Internal_Hbond.Weighted>
0.0000

> <Gold.Chemscore.DEClash.Weighted>
0.6222

> <Gold.Chemscore.DEInternal.Weighted>
1.0081

> <Gold.Chemscore.Rot.Weighted>
4.4387

> <Gold.Chemscore.Internal.Correction.Weighted>
   9.000000E+99

> <Gold.Protein.RotatedTorsions>
[ 6907 6896 6895 6894 ] final  133.17 input  -60.11 | X-H torsion
[ 7974 7965 7964 7962 ] final -176.45 input  175.53 | X-H torsion
[ 8008 7997 7996 7995 ] final   63.44 input   59.86 | X-H torsion
[ 10167 10162 10161 10158 ] final   -9.61 input  -65.29 | X-H torsion
[ 10718 10713 10712 10709 ] final -111.12 input   66.30 | X-H torsion
[ 10763 10752 10751 10750 ] final   70.51 input  -60.55 | X-H torsion
[ 11005 11000 10999 10996 ] final  -39.29 input  -57.11 | X-H torsion

> <Gold.Protein.ActiveResidues>
 VAL166  LYS551  ARG553  GLY616  TRP617  ASP618  TYR619  PRO620  LYS621  CYS622 
 ASP623  PHE694  ASN695  SER759  ASP760  ASP761  ALA762  ILE779  LEU786  VAL792 
 PHE793  MET794  SER795  GLU796  ALA797  LYS798  CYS799  TRP800  GLU811  SER814 

> <Gold.Protein.RotatedAtoms>
  152.3248  133.5893  159.5768 H   0  0  0  0  0  0  0  0  0  0  0  0  # atno 6907 bound_to 6896
  150.7391  133.9957  159.3630 H   0  0  0  0  0  0  0  0  0  0  0  0  # atno 6908 bound_to 6896
  151.7838  135.0755  160.0428 H   0  0  0  0  0  0  0  0  0  0  0  0  # atno 6909 bound_to 6896
  144.7127  140.1168  143.6407 H   0  0  0  0  0  0  0  0  0  0  0  0  # atno 7974 bound_to 7965
  155.6303  140.3496  155.4680 H   0  0  0  0  0  0  0  0  0  0  0  0  # atno 8008 bound_to 7997
  156.0009  140.1213  157.0572 H   0  0  0  0  0  0  0  0  0  0  0  0  # atno 8009 bound_to 7997
  154.4248  140.1101  156.5681 H   0  0  0  0  0  0  0  0  0  0  0  0  # atno 8010 bound_to 7997
  140.7092  143.5839  150.8963 H   0  0  0  0  0  0  0  0  0  0  0  0  # atno 10167 bound_to 10162
  156.0629  130.5851  150.8331 H   0  0  0  0  0  0  0  0  0  0  0  0  # atno 10718 bound_to 10713
  153.0346  135.5171  154.7453 H   0  0  0  0  0  0  0  0  0  0  0  0  # atno 10763 bound_to 10752
  154.6440  135.2916  155.0071 H   0  0  0  0  0  0  0  0  0  0  0  0  # atno 10764 bound_to 10752
  154.0979  135.6640  153.4916 H   0  0  0  0  0  0  0  0  0  0  0  0  # atno 10765 bound_to 10752
  141.0091  133.6917  156.2167 H   0  0  0  0  0  0  0  0  0  0  0  0  # atno 11005 bound_to 11000
  145.9406  139.2666  143.1271 LP  0  0  0  0  0  0  0  0  0  0  0  0  # atno 17320 bound_to 7965
  145.9428  140.8967  143.0299 LP  0  0  0  0  0  0  0  0  0  0  0  0  # atno 17321 bound_to 7965
  139.9565  143.6212  152.3014 LP  0  0  0  0  0  0  0  0  0  0  0  0  # atno 17342 bound_to 10162
  139.6750  144.7659  151.1713 LP  0  0  0  0  0  0  0  0  0  0  0  0  # atno 17343 bound_to 10162
  157.5651  131.0946  150.9502 LP  0  0  0  0  0  0  0  0  0  0  0  0  # atno 17370 bound_to 10713
  156.9731  130.5498  149.5291 LP  0  0  0  0  0  0  0  0  0  0  0  0  # atno 17371 bound_to 10713
  140.6763  134.4814  157.5588 LP  0  0  0  0  0  0  0  0  0  0  0  0  # atno 17394 bound_to 11000
  139.9080  134.8407  156.1634 LP  0  0  0  0  0  0  0  0  0  0  0  0  # atno 17395 bound_to 11000

$$$$
