AV-unprocessed.smi:836|AV-procd|sdf|3890|dock4
  -GOLD-   22720 1343D 1   1.00000     0.00000
 Structure written by MMmdl.
 38 39  0  0  0  0  0  0  0  0  1 V2000
  153.6807  141.9784  160.8057 C   0  0  0  0  0  0  0  0  0  0  0  0
  152.5393  142.0185  159.7798 C   0  0  2  0  0  0  0  0  0  0  0  0
  152.4305  140.6910  159.0059 C   0  0  0  0  0  0  0  0  0  0  0  0
  151.2900  140.7267  157.9761 C   0  0  0  0  0  0  0  0  0  0  0  0
  151.4479  141.9099  157.0006 C   0  0  1  0  0  0  0  0  0  0  0  0
  150.3146  141.9752  156.0840 N   0  0  0  0  0  0  0  0  0  0  0  0
  149.9818  141.0347  155.1857 C   0  0  0  0  0  0  0  0  0  0  0  0
  150.6010  139.9805  155.0441 O   0  0  0  0  0  0  0  0  0  0  0  0
  148.7562  141.3242  154.3170 C   0  0  0  0  0  0  0  0  0  0  0  0
  147.7634  140.2703  154.4340 N   0  0  0  0  0  0  0  0  0  0  0  0
  147.2423  139.4694  153.4406 C   0  0  0  0  0  0  0  0  0  0  0  0
  146.3342  138.6356  154.0270 C   0  0  0  0  0  0  0  0  0  0  0  0
  146.3644  139.0022  155.4040 C   0  0  0  0  0  0  0  0  0  0  0  0
  145.5649  138.4262  156.5427 C   0  0  0  0  0  0  0  0  0  0  0  0
  144.7621  139.3555  157.0614 F   0  0  0  0  0  0  0  0  0  0  0  0
  144.8202  137.4097  156.1083 F   0  0  0  0  0  0  0  0  0  0  0  0
  146.3859  137.9876  157.4968 F   0  0  0  0  0  0  0  0  0  0  0  0
  147.2256  139.9830  155.6391 N   0  0  0  0  0  0  0  0  0  0  0  0
  151.5617  143.2381  157.7707 C   0  0  0  0  0  0  0  0  0  0  0  0
  152.7017  143.1971  158.8011 C   0  0  0  0  0  0  0  0  0  0  0  0
  154.6453  141.8280  160.3202 H   0  0  0  0  0  0  0  0  0  0  0  0
  153.5378  141.1678  161.5208 H   0  0  0  0  0  0  0  0  0  0  0  0
  153.7333  142.9096  161.3704 H   0  0  0  0  0  0  0  0  0  0  0  0
  151.6088  142.1643  160.3303 H   0  0  0  0  0  0  0  0  0  0  0  0
  153.3718  140.4831  158.4953 H   0  0  0  0  0  0  0  0  0  0  0  0
  152.2682  139.8660  159.7003 H   0  0  0  0  0  0  0  0  0  0  0  0
  151.2671  139.7854  157.4259 H   0  0  0  0  0  0  0  0  0  0  0  0
  150.3349  140.8027  158.4979 H   0  0  0  0  0  0  0  0  0  0  0  0
  152.3651  141.7734  156.4240 H   0  0  0  0  0  0  0  0  0  0  0  0
  149.7447  142.8080  156.1245 H   0  0  0  0  0  0  0  0  0  0  0  0
  148.2997  142.2685  154.6166 H   0  0  0  0  0  0  0  0  0  0  0  0
  149.0581  141.4301  153.2737 H   0  0  0  0  0  0  0  0  0  0  0  0
  147.5558  139.5610  152.4111 H   0  0  0  0  0  0  0  0  0  0  0  0
  145.7352  137.8773  153.5446 H   0  0  0  0  0  0  0  0  0  0  0  0
  151.7271  144.0604  157.0736 H   0  0  0  0  0  0  0  0  0  0  0  0
  150.6218  143.4512  158.2820 H   0  0  0  0  0  0  0  0  0  0  0  0
  152.7291  144.1381  159.3514 H   0  0  0  0  0  0  0  0  0  0  0  0
  153.6576  143.1163  158.2817 H   0  0  0  0  0  0  0  0  0  0  0  0
  1  2  1  0  0  0  0
  1 21  1  0  0  0  0
  1 22  1  0  0  0  0
  1 23  1  0  0  0  0
  2 20  1  0  0  0  0
  2  3  1  0  0  0  0
  2 24  1  0  0  0  0
  3  4  1  0  0  0  0
  3 25  1  0  0  0  0
  3 26  1  0  0  0  0
  4  5  1  0  0  0  0
  4 27  1  0  0  0  0
  4 28  1  0  0  0  0
  5  6  1  0  0  0  0
  5 19  1  0  0  0  0
  5 29  1  0  0  0  0
  6  7  1  0  0  0  0
  6 30  1  0  0  0  0
  7  8  2  0  0  0  0
  7  9  1  0  0  0  0
  9 10  1  0  0  0  0
  9 31  1  0  0  0  0
  9 32  1  0  0  0  0
 10 18  1  0  0  0  0
 10 11  1  0  0  0  0
 11 12  2  0  0  0  0
 11 33  1  0  0  0  0
 12 13  1  0  0  0  0
 12 34  1  0  0  0  0
 13 14  1  0  0  0  0
 13 18  2  0  0  0  0
 14 15  1  0  0  0  0
 14 16  1  0  0  0  0
 14 17  1  0  0  0  0
 19 20  1  0  0  0  0
 19 35  1  0  0  0  0
 19 36  1  0  0  0  0
 20 37  1  0  0  0  0
 20 38  1  0  0  0  0
M  END
> <s_m_source_file>
AV-unprocessed.smi

> <i_m_source_file_index>
836

> <i_lp_mmshare_version>
43012

> <i_f3d_flags>
0

> <s_epik_input>
W0NIM11bQ0BASF0xW0NIMl1bQ0gyXVtDQEhdKFtDSDJdW0NIMl0xKVtOSF1DKD1PKVtDSDJdbjJbY0hdW2NIXWMobjIpQyhGKShGKUY=

> <s_epik_cmdline>
J2VwaWtfcHl0aG9uJywgJy1waCcsICc3LjAnLCAnLXRuJywgJzgnLCAnLW1hJywgJzIwMCcsICctbWV0YWxfYmluZGluZycsICctaW1hZScsICc8aW5maWxlLm1hZT4nLCAnLW9tYWUnLCAnPG91dGZpbGUubWFlPic=

> <r_lp_tautomer_probability>
1

> <r_epik_Ionization_Penalty>
8.28749e-08

> <r_epik_Ionization_Penalty_Charging>
0

> <r_epik_Ionization_Penalty_Neutral>
8.28749e-08

> <r_epik_State_Penalty>
-0

> <r_epik_Charging_Adjusted_Penalty>
0

> <i_epik_Tot_Q>
0

> <i_epik_Tot_abs_Q>
0

> <r_epik_Metal_State_Penalty>
-0

> <b_epik_Metal_Only>
0

> <s_lp_Force_Field>
OPLS_2005

> <r_lp_Energy>
10.955

> <b_lp_Chiralities_Consistent>
1

> <s_lp_Variant>
AV-unprocessed.smi:836-1

> <Gold.Version>
5.8.1

> <Gold.Id.Protein>
6NUR|6NUR_protein|mol2

> <Gold.PLP.Fitness>
42.6816

> <Gold.PLP.PLP>
-33.8087

> <Gold.PLP.part.hbond>
-2.0000

> <Gold.PLP.part.metal>
0.0000

> <Gold.PLP.part.buried>
-4.4161

> <Gold.PLP.part.nonpolar>
-28.0045

> <Gold.PLP.part.repulsive>
0.1994

> <Gold.PLP.ligand.clash>
0.0000

> <Gold.PLP.ligand.torsion>
0.0710

> <Gold.PLP.Chemscore.Hbond>
2.0000

> <Gold.PLP.Chemscore.CHOScore>
1.0000

> <Gold.PLP.Chemscore.Metal>
0.0000

> <Gold.Chemscore.Hbonds>
donor molecule, donor type, donor heavy atom, donor atom, acceptor molecule, acceptor atom, score
      L1  H     6    30       P1  8028  0.71
      P1  H  7989  7998       L1     8  0.37
      L1  C    11    33       P1  7957  1.00

> <Gold.PLP.Chemscore.Internal.Correction>
0.0149

> <Gold.Rescore>
     Score         DG    S(hbond)    S(metal)    S(lipo)     H(rot)  DE(clash)    DE(int)     intcor
     16.63     -17.53       1.71        0.00      88.02       1.54       0.03       0.88       ----

> <Gold.Chemscore.Fitness>
16.6306

> <Gold.Chemscore.DG>
-17.5332

> <Gold.Chemscore.ZeroCoef>
-5.4800

> <Gold.Chemscore.Hbond>
1.7076

> <Gold.Chemscore.Metal>
0.0000

> <Gold.Chemscore.Lipo>
88.0153

> <Gold.Chemscore.Internal_Hbond>
0.0000

> <Gold.Chemscore.DEClash>
0.0262

> <Gold.Chemscore.DEInternal>
0.8764

> <Gold.Chemscore.Rot>
1.5422

> <Gold.Chemscore.Internal.Correction>
   9.000000E+99

> <Gold.Chemscore.Hbonds>
donor molecule, donor type, donor heavy atom, donor atom, acceptor molecule, acceptor atom, score
      L1  H     6    30       P1  8028  0.71
      P1  H  7989  7998       L1     8  0.01

> <Gold.Chemscore.Hbond.Weighted>
-5.7033

> <Gold.Chemscore.Metal.Weighted>
-0.0000

> <Gold.Chemscore.Lipo.Weighted>
-10.2978

> <Gold.Chemscore.Internal_Hbond.Weighted>
0.0000

> <Gold.Chemscore.DEClash.Weighted>
0.0262

> <Gold.Chemscore.DEInternal.Weighted>
0.8764

> <Gold.Chemscore.Rot.Weighted>
3.9479

> <Gold.Chemscore.Internal.Correction.Weighted>
   9.000000E+99

> <Gold.Protein.RotatedTorsions>
[ 6907 6896 6895 6894 ] final -147.23 input  -60.11 | X-H torsion
[ 7974 7965 7964 7962 ] final  171.37 input  175.53 | X-H torsion
[ 8008 7997 7996 7995 ] final   70.42 input   59.86 | X-H torsion
[ 10167 10162 10161 10158 ] final   20.56 input  -65.29 | X-H torsion
[ 10718 10713 10712 10709 ] final -110.42 input   66.30 | X-H torsion
[ 10763 10752 10751 10750 ] final -114.31 input  -60.55 | X-H torsion
[ 11005 11000 10999 10996 ] final  159.45 input  -57.11 | X-H torsion

> <Gold.Protein.ActiveResidues>
 VAL166  LYS551  ARG553  GLY616  TRP617  ASP618  TYR619  PRO620  LYS621  CYS622 
 ASP623  PHE694  ASN695  SER759  ASP760  ASP761  ALA762  ILE779  LEU786  VAL792 
 PHE793  MET794  SER795  GLU796  ALA797  LYS798  CYS799  TRP800  GLU811  SER814 

> <Gold.Protein.RotatedAtoms>
  151.1528  133.4896  159.2594 H   0  0  0  0  0  0  0  0  0  0  0  0  # atno 6907 bound_to 6896
  151.1536  135.0239  159.8689 H   0  0  0  0  0  0  0  0  0  0  0  0  # atno 6908 bound_to 6896
  152.5463  134.1409  159.8532 H   0  0  0  0  0  0  0  0  0  0  0  0  # atno 6909 bound_to 6896
  144.7297  139.9340  143.6426 H   0  0  0  0  0  0  0  0  0  0  0  0  # atno 7974 bound_to 7965
  155.7386  140.3490  155.5093 H   0  0  0  0  0  0  0  0  0  0  0  0  # atno 8008 bound_to 7997
  155.9115  140.1051  157.1297 H   0  0  0  0  0  0  0  0  0  0  0  0  # atno 8009 bound_to 7997
  154.4056  140.1267  156.4551 H   0  0  0  0  0  0  0  0  0  0  0  0  # atno 8010 bound_to 7997
  140.5494  143.9536  150.6568 H   0  0  0  0  0  0  0  0  0  0  0  0  # atno 10167 bound_to 10162
  156.0590  130.5814  150.8234 H   0  0  0  0  0  0  0  0  0  0  0  0  # atno 10718 bound_to 10713
  154.8434  135.4422  154.1486 H   0  0  0  0  0  0  0  0  0  0  0  0  # atno 10763 bound_to 10752
  153.2652  135.6940  153.7543 H   0  0  0  0  0  0  0  0  0  0  0  0  # atno 10764 bound_to 10752
  153.6804  135.3404  155.3152 H   0  0  0  0  0  0  0  0  0  0  0  0  # atno 10765 bound_to 10752
  140.1963  134.8370  157.2969 H   0  0  0  0  0  0  0  0  0  0  0  0  # atno 11005 bound_to 11000
  146.0836  139.3824  143.0449 LP  0  0  0  0  0  0  0  0  0  0  0  0  # atno 17320 bound_to 7965
  145.7808  140.9857  143.1100 LP  0  0  0  0  0  0  0  0  0  0  0  0  # atno 17321 bound_to 7965
  140.2958  143.3294  152.1019 LP  0  0  0  0  0  0  0  0  0  0  0  0  # atno 17342 bound_to 10162
  139.5021  144.6727  151.6203 LP  0  0  0  0  0  0  0  0  0  0  0  0  # atno 17343 bound_to 10162
  157.5583  131.0945  150.9596 LP  0  0  0  0  0  0  0  0  0  0  0  0  # atno 17370 bound_to 10713
  156.9839  130.5537  149.5298 LP  0  0  0  0  0  0  0  0  0  0  0  0  # atno 17371 bound_to 10713
  140.2103  134.4146  155.7616 LP  0  0  0  0  0  0  0  0  0  0  0  0  # atno 17394 bound_to 11000
  141.2227  133.7115  156.8327 LP  0  0  0  0  0  0  0  0  0  0  0  0  # atno 17395 bound_to 11000

$$$$
