AV-unprocessed.smi:95|AV-procd|sdf|856|dock10
  -GOLD-   2262017303D 1   1.00000     0.00000
 Structure written by MMmdl.
 41 44  0  0  0  0  0  0  0  0  1 V2000
  151.0506  139.7777  154.7753 O   0  0  0  0  0  0  0  0  0  0  0  0
  150.4752  139.2011  155.7002 C   0  0  0  0  0  0  0  0  0  0  0  0
  149.1927  138.5223  155.5511 C   0  0  0  0  0  0  0  0  0  0  0  0
  148.5760  138.5220  154.3571 F   0  0  0  0  0  0  0  0  0  0  0  0
  148.6118  137.8898  156.5938 C   0  0  0  0  0  0  0  0  0  0  0  0
  149.1774  137.8398  157.8580 N   0  0  0  0  0  0  0  0  0  0  0  0
  148.5176  137.1060  159.0073 C   0  0  1  0  0  0  0  0  0  0  0  0
  147.0113  136.9195  158.7399 C   0  0  0  0  0  0  0  0  0  0  0  0
  146.8133  135.4321  158.9549 C   0  0  0  0  0  0  0  0  0  0  0  0
  148.1765  134.8743  158.5749 C   0  0  0  0  0  0  0  0  0  0  0  0
  149.0700  135.8266  159.1362 O   0  0  0  0  0  0  0  0  0  0  0  0
  150.4242  138.4610  158.0907 C   0  0  0  0  0  0  0  0  0  0  0  0
  150.9588  138.4005  159.2006 O   0  0  0  0  0  0  0  0  0  0  0  0
  151.0255  139.1381  157.0030 N   0  0  0  0  0  0  0  0  0  0  0  0
  152.3233  139.7642  157.2076 C   0  0  0  0  0  0  0  0  0  0  0  0
  152.3800  140.8213  158.3049 C   0  0  0  0  0  0  0  0  0  0  0  0
  152.9995  140.5224  159.5346 C   0  0  0  0  0  0  0  0  0  0  0  0
  153.0485  141.5223  160.5226 C   0  0  0  0  0  0  0  0  0  0  0  0
  152.4821  142.7827  160.2438 C   0  0  0  0  0  0  0  0  0  0  0  0
  152.5149  143.8058  161.2138 C   0  0  0  0  0  0  0  0  0  0  0  0
  151.9476  145.0615  160.9302 C   0  0  0  0  0  0  0  0  0  0  0  0
  151.3494  145.2928  159.6781 C   0  0  0  0  0  0  0  0  0  0  0  0
  151.3191  144.2695  158.7107 C   0  0  0  0  0  0  0  0  0  0  0  0
  151.8816  143.0022  158.9736 C   0  0  0  0  0  0  0  0  0  0  0  0
  151.8425  142.0329  158.0318 N   0  0  0  0  0  0  0  0  0  0  0  0
  147.6656  137.4049  156.4097 H   0  0  0  0  0  0  0  0  0  0  0  0
  148.7452  137.6917  159.8999 H   0  0  0  0  0  0  0  0  0  0  0  0
  146.4149  137.5347  159.4145 H   0  0  0  0  0  0  0  0  0  0  0  0
  146.7729  137.1895  157.7099 H   0  0  0  0  0  0  0  0  0  0  0  0
  146.6063  135.2289  160.0064 H   0  0  0  0  0  0  0  0  0  0  0  0
  146.0002  135.0180  158.3583 H   0  0  0  0  0  0  0  0  0  0  0  0
  148.3518  133.8749  158.9732 H   0  0  0  0  0  0  0  0  0  0  0  0
  148.2940  134.8400  157.4910 H   0  0  0  0  0  0  0  0  0  0  0  0
  153.0323  138.9590  157.4096 H   0  0  0  0  0  0  0  0  0  0  0  0
  152.6580  140.1915  156.2620 H   0  0  0  0  0  0  0  0  0  0  0  0
  153.4266  139.5475  159.7193 H   0  0  0  0  0  0  0  0  0  0  0  0
  153.5139  141.3217  161.4764 H   0  0  0  0  0  0  0  0  0  0  0  0
  152.9736  143.6318  162.1764 H   0  0  0  0  0  0  0  0  0  0  0  0
  151.9712  145.8463  161.6721 H   0  0  0  0  0  0  0  0  0  0  0  0
  150.9132  146.2561  159.4582 H   0  0  0  0  0  0  0  0  0  0  0  0
  150.8567  144.4606  157.7534 H   0  0  0  0  0  0  0  0  0  0  0  0
  1  2  2  0  0  0  0
  2 14  1  0  0  0  0
  2  3  1  0  0  0  0
  3  4  1  0  0  0  0
  3  5  2  0  0  0  0
  5  6  1  0  0  0  0
  5 26  1  0  0  0  0
  6  7  1  0  0  0  0
  6 12  1  0  0  0  0
  7 11  1  0  0  0  0
  7  8  1  0  0  0  0
  7 27  1  0  0  0  0
  8  9  1  0  0  0  0
  8 28  1  0  0  0  0
  8 29  1  0  0  0  0
  9 10  1  0  0  0  0
  9 30  1  0  0  0  0
  9 31  1  0  0  0  0
 10 11  1  0  0  0  0
 10 32  1  0  0  0  0
 10 33  1  0  0  0  0
 12 13  2  0  0  0  0
 12 14  1  0  0  0  0
 14 15  1  0  0  0  0
 15 16  1  0  0  0  0
 15 34  1  0  0  0  0
 15 35  1  0  0  0  0
 16 25  1  0  0  0  0
 16 17  2  0  0  0  0
 17 18  1  0  0  0  0
 17 36  1  0  0  0  0
 18 19  2  0  0  0  0
 18 37  1  0  0  0  0
 19 24  1  0  0  0  0
 19 20  1  0  0  0  0
 20 21  2  0  0  0  0
 20 38  1  0  0  0  0
 21 22  1  0  0  0  0
 21 39  1  0  0  0  0
 22 23  2  0  0  0  0
 22 40  1  0  0  0  0
 23 24  1  0  0  0  0
 23 41  1  0  0  0  0
 24 25  2  0  0  0  0
M  END
> <s_m_source_file>
AV-unprocessed.smi

> <i_m_source_file_index>
95

> <i_lp_mmshare_version>
43012

> <i_f3d_flags>
0

> <s_epik_input>
TzFbQ0gyXVtDSDJdW0NIMl1bQ0BIXTFuKFtjSF1jKEYpYzI9TyljKD1PKW4yW0NIMl1jKFtjSF1bY0hdMyluYyhjMzQpW2NIXVtjSF1bY0hdW2NIXTQ=

> <s_epik_cmdline>
J2VwaWtfcHl0aG9uJywgJy1waCcsICc3LjAnLCAnLXRuJywgJzgnLCAnLW1hJywgJzIwMCcsICctbWV0YWxfYmluZGluZycsICctaW1hZScsICc8aW5maWxlLm1hZT4nLCAnLW9tYWUnLCAnPG91dGZpbGUubWFlPic=

> <r_lp_tautomer_probability>
1

> <r_epik_Ionization_Penalty>
0.0274176

> <r_epik_Ionization_Penalty_Charging>
1.11818e-08

> <r_epik_Ionization_Penalty_Neutral>
0.0274176

> <r_epik_State_Penalty>
0.0224396

> <r_epik_Charging_Adjusted_Penalty>
0.0224396

> <i_epik_Tot_Q>
0

> <i_epik_Tot_abs_Q>
0

> <r_epik_Metal_State_Penalty>
2.28695e-05

> <b_epik_Metal_Only>
0

> <s_epik_Chemistry_Notes>
This compound contains an acetal/aminal-like group ( X-CH(R)-Y where X, Y are N, S, or O) that may be acid/base labile, releasing an aldehyde.

> <s_lp_Force_Field>
OPLS_2005

> <r_lp_Energy>
34.6925

> <b_lp_Chiralities_Consistent>
1

> <s_lp_Variant>
AV-unprocessed.smi:95-2

> <Gold.Version>
5.8.1

> <Gold.Id.Protein>
6NUR|6NUR_protein|mol2

> <Gold.PLP.Fitness>
45.1393

> <Gold.PLP.PLP>
-40.7267

> <Gold.PLP.part.hbond>
-2.2111

> <Gold.PLP.part.metal>
0.0000

> <Gold.PLP.part.buried>
-4.7673

> <Gold.PLP.part.nonpolar>
-33.1855

> <Gold.PLP.part.repulsive>
0.0816

> <Gold.PLP.ligand.clash>
0.0000

> <Gold.PLP.ligand.torsion>
0.8005

> <Gold.PLP.Chemscore.Hbond>
2.0000

> <Gold.PLP.Chemscore.CHOScore>
0.0000

> <Gold.PLP.Chemscore.Metal>
0.0000

> <Gold.Chemscore.Hbonds>
donor molecule, donor type, donor heavy atom, donor atom, acceptor molecule, acceptor atom, score
      P1  H  6896  6907       L1    11  0.93
      P1  H  7989  7998       L1     1  1.00

> <Gold.PLP.Chemscore.Internal.Correction>
0.0137

> <Gold.Rescore>
     Score         DG    S(hbond)    S(metal)    S(lipo)     H(rot)  DE(clash)    DE(int)     intcor
     18.13     -19.84       1.94        0.00     100.13       1.50       0.01       1.70       ----

> <Gold.Chemscore.Fitness>
18.1330

> <Gold.Chemscore.DG>
-19.8431

> <Gold.Chemscore.ZeroCoef>
-5.4800

> <Gold.Chemscore.Hbond>
1.9414

> <Gold.Chemscore.Metal>
0.0000

> <Gold.Chemscore.Lipo>
100.1280

> <Gold.Chemscore.Internal_Hbond>
0.0000

> <Gold.Chemscore.DEClash>
0.0053

> <Gold.Chemscore.DEInternal>
1.7048

> <Gold.Chemscore.Rot>
1.4985

> <Gold.Chemscore.Internal.Correction>
   9.000000E+99

> <Gold.Chemscore.Hbonds>
donor molecule, donor type, donor heavy atom, donor atom, acceptor molecule, acceptor atom, score
      P1  H  6896  6907       L1    11  0.31
      P1  H  7989  7998       L1     1  1.00

> <Gold.Chemscore.Hbond.Weighted>
-6.4843

> <Gold.Chemscore.Metal.Weighted>
-0.0000

> <Gold.Chemscore.Lipo.Weighted>
-11.7150

> <Gold.Chemscore.Internal_Hbond.Weighted>
0.0000

> <Gold.Chemscore.DEClash.Weighted>
0.0053

> <Gold.Chemscore.DEInternal.Weighted>
1.7048

> <Gold.Chemscore.Rot.Weighted>
3.8362

> <Gold.Chemscore.Internal.Correction.Weighted>
   9.000000E+99

> <Gold.Protein.RotatedTorsions>
[ 6907 6896 6895 6894 ] final  -65.58 input  -60.11 | X-H torsion
[ 7974 7965 7964 7962 ] final  111.29 input  175.53 | X-H torsion
[ 8008 7997 7996 7995 ] final -138.29 input   59.86 | X-H torsion
[ 10167 10162 10161 10158 ] final   89.60 input  -65.29 | X-H torsion
[ 10718 10713 10712 10709 ] final  -61.31 input   66.30 | X-H torsion
[ 10763 10752 10751 10750 ] final   -0.36 input  -60.55 | X-H torsion
[ 11005 11000 10999 10996 ] final   56.31 input  -57.11 | X-H torsion

> <Gold.Protein.ActiveResidues>
 VAL166  LYS551  ARG553  GLY616  TRP617  ASP618  TYR619  PRO620  LYS621  CYS622 
 ASP623  PHE694  ASN695  SER759  ASP760  ASP761  ALA762  ILE779  LEU786  VAL792 
 PHE793  MET794  SER795  GLU796  ALA797  LYS798  CYS799  TRP800  GLU811  SER814 

> <Gold.Protein.RotatedAtoms>
  150.7515  134.6140  159.6100 H   0  0  0  0  0  0  0  0  0  0  0  0  # atno 6907 bound_to 6896
  152.3466  134.7060  160.0257 H   0  0  0  0  0  0  0  0  0  0  0  0  # atno 6908 bound_to 6896
  151.7495  133.3290  159.3424 H   0  0  0  0  0  0  0  0  0  0  0  0  # atno 6909 bound_to 6896
  145.2441  139.2767  143.4102 H   0  0  0  0  0  0  0  0  0  0  0  0  # atno 7974 bound_to 7965
  155.4260  140.0522  157.3022 H   0  0  0  0  0  0  0  0  0  0  0  0  # atno 8008 bound_to 7997
  154.4881  140.2109  155.9568 H   0  0  0  0  0  0  0  0  0  0  0  0  # atno 8009 bound_to 7997
  156.1304  140.3173  155.8345 H   0  0  0  0  0  0  0  0  0  0  0  0  # atno 8010 bound_to 7997
  139.8557  144.6570  150.9117 H   0  0  0  0  0  0  0  0  0  0  0  0  # atno 10167 bound_to 10162
  156.0930  130.4197  150.0976 H   0  0  0  0  0  0  0  0  0  0  0  0  # atno 10718 bound_to 10713
  153.3309  135.6975  153.6948 H   0  0  0  0  0  0  0  0  0  0  0  0  # atno 10763 bound_to 10752
  153.5751  135.3508  155.2854 H   0  0  0  0  0  0  0  0  0  0  0  0  # atno 10764 bound_to 10752
  154.8618  135.4281  154.2498 H   0  0  0  0  0  0  0  0  0  0  0  0  # atno 10765 bound_to 10752
  140.0539  134.5697  155.9231 H   0  0  0  0  0  0  0  0  0  0  0  0  # atno 11005 bound_to 11000
  146.3320  140.2812  142.8610 LP  0  0  0  0  0  0  0  0  0  0  0  0  # atno 17320 bound_to 7965
  144.9563  140.8229  143.5541 LP  0  0  0  0  0  0  0  0  0  0  0  0  # atno 17321 bound_to 7965
  140.7782  143.3788  151.1514 LP  0  0  0  0  0  0  0  0  0  0  0  0  # atno 17342 bound_to 10162
  139.7422  143.8906  152.3053 LP  0  0  0  0  0  0  0  0  0  0  0  0  # atno 17343 bound_to 10162
  156.8982  130.9611  151.3580 LP  0  0  0  0  0  0  0  0  0  0  0  0  # atno 17370 bound_to 10713
  157.6084  130.8565  149.8913 LP  0  0  0  0  0  0  0  0  0  0  0  0  # atno 17371 bound_to 10713
  141.1943  133.6582  156.5589 LP  0  0  0  0  0  0  0  0  0  0  0  0  # atno 17394 bound_to 11000
  140.3874  134.7470  157.4700 LP  0  0  0  0  0  0  0  0  0  0  0  0  # atno 17395 bound_to 11000

$$$$
