AV-unprocessed.smi:876|AV-procd|sdf|4024|dock4
  -GOLD-   22720 1513D 1   1.00000     0.00000
 Structure written by MMmdl.
 40 41  0  0  0  0  0  0  0  0  1 V2000
  152.2263  144.6532  157.6287 C   0  0  0  0  0  0  0  0  0  0  0  0
  151.7755  144.4917  159.0056 N   0  0  0  0  0  0  0  0  0  0  0  0
  150.6716  145.3028  159.5092 C   0  0  0  0  0  0  0  0  0  0  0  0
  152.4336  143.5855  159.8683 C   0  0  0  0  0  0  0  0  0  0  0  0
  152.4355  143.7697  161.2734 C   0  0  0  0  0  0  0  0  0  0  0  0
  153.1038  142.8391  162.0921 C   0  0  0  0  0  0  0  0  0  0  0  0
  153.7522  141.7363  161.4900 C   0  0  0  0  0  0  0  0  0  0  0  0
  154.4743  140.7388  162.1999 N   0  0  0  0  0  0  0  0  0  0  0  0
  154.5455  139.4187  161.9576 C   0  0  0  0  0  0  0  0  0  0  0  0
  153.9928  138.8314  161.0277 O   0  0  0  0  0  0  0  0  0  0  0  0
  155.3217  138.8030  162.8604 N   0  0  0  0  0  0  0  0  0  0  0  0
  155.6124  137.3739  162.8727 C   0  0  1  0  0  0  0  0  0  0  0  0
  156.4369  137.0116  164.0770 C   0  0  0  0  0  0  0  0  0  0  0  0
  155.8552  136.0888  164.8396 C   0  0  0  0  0  0  0  0  0  0  0  0
  154.5087  135.6586  164.3156 C   0  0  2  0  0  0  0  0  0  0  0  0
  154.4245  134.1430  164.0648 C   0  0  0  0  0  0  0  0  0  0  0  0
  154.3361  133.4398  165.2865 O   0  0  0  0  0  0  0  0  0  0  0  0
  154.3394  136.4994  163.0243 C   0  0  0  0  0  0  0  0  0  0  0  0
  153.7081  141.6439  160.0854 C   0  0  0  0  0  0  0  0  0  0  0  0
  153.0687  142.5329  159.2975 N   0  0  0  0  0  0  0  0  0  0  0  0
  156.1706  137.0954  161.9771 H   0  0  0  0  0  0  0  0  0  0  0  0
  153.7509  135.9535  165.0430 H   0  0  0  0  0  0  0  0  0  0  0  0
  152.1205  143.7176  157.0788 H   0  0  0  0  0  0  0  0  0  0  0  0
  153.2723  144.9601  157.6008 H   0  0  0  0  0  0  0  0  0  0  0  0
  151.6442  145.4129  157.1068 H   0  0  0  0  0  0  0  0  0  0  0  0
  151.0111  145.9506  160.3181 H   0  0  0  0  0  0  0  0  0  0  0  0
  149.8699  144.6675  159.8870 H   0  0  0  0  0  0  0  0  0  0  0  0
  150.2531  145.9359  158.7270 H   0  0  0  0  0  0  0  0  0  0  0  0
  151.9428  144.6086  161.7409 H   0  0  0  0  0  0  0  0  0  0  0  0
  153.1145  143.0010  163.1584 H   0  0  0  0  0  0  0  0  0  0  0  0
  155.0461  141.0801  162.9587 H   0  0  0  0  0  0  0  0  0  0  0  0
  155.7414  139.3602  163.5901 H   0  0  0  0  0  0  0  0  0  0  0  0
  157.4010  137.4585  164.2704 H   0  0  0  0  0  0  0  0  0  0  0  0
  156.2732  135.6832  165.7495 H   0  0  0  0  0  0  0  0  0  0  0  0
  153.5437  133.9069  163.4669 H   0  0  0  0  0  0  0  0  0  0  0  0
  155.2955  133.7918  163.5102 H   0  0  0  0  0  0  0  0  0  0  0  0
  153.6111  132.8357  165.2335 H   0  0  0  0  0  0  0  0  0  0  0  0
  153.4360  137.1074  163.0906 H   0  0  0  0  0  0  0  0  0  0  0  0
  154.2197  135.8623  162.1471 H   0  0  0  0  0  0  0  0  0  0  0  0
  154.1980  140.8283  159.5736 H   0  0  0  0  0  0  0  0  0  0  0  0
  1  2  1  0  0  0  0
  1 23  1  0  0  0  0
  1 24  1  0  0  0  0
  1 25  1  0  0  0  0
  2  3  1  0  0  0  0
  2  4  1  0  0  0  0
  3 26  1  0  0  0  0
  3 27  1  0  0  0  0
  3 28  1  0  0  0  0
  4 20  1  0  0  0  0
  4  5  2  0  0  0  0
  5  6  1  0  0  0  0
  5 29  1  0  0  0  0
  6  7  2  0  0  0  0
  6 30  1  0  0  0  0
  7  8  1  0  0  0  0
  7 19  1  0  0  0  0
  8  9  1  0  0  0  0
  8 31  1  0  0  0  0
  9 10  2  0  0  0  0
  9 11  1  0  0  0  0
 11 12  1  0  0  0  0
 11 32  1  0  0  0  0
 12 21  1  0  0  0  0
 12 18  1  0  0  0  0
 12 13  1  0  0  0  0
 13 14  2  0  0  0  0
 13 33  1  0  0  0  0
 14 15  1  0  0  0  0
 14 34  1  0  0  0  0
 15 22  1  0  0  0  0
 15 16  1  0  0  0  0
 15 18  1  0  0  0  0
 16 17  1  0  0  0  0
 16 35  1  0  0  0  0
 16 36  1  0  0  0  0
 17 37  1  0  0  0  0
 18 38  1  0  0  0  0
 18 39  1  0  0  0  0
 19 20  2  0  0  0  0
 19 40  1  0  0  0  0
M  END
> <s_m_source_file>
AV-unprocessed.smi

> <i_m_source_file_index>
876

> <i_lp_mmshare_version>
43012

> <i_f3d_flags>
0

> <s_epik_input>
W0NIM11OKFtDSDNdKWMxW2NIXVtjSF1jKFtjSF1uMSlbTkhdQyg9TylbTkhdW0NAQEhdMltDSF09W0NIXVtDQEBIXShbQ0gyXTIpW0NIMl1bT0hd

> <s_epik_cmdline>
J2VwaWtfcHl0aG9uJywgJy1waCcsICc3LjAnLCAnLXRuJywgJzgnLCAnLW1hJywgJzIwMCcsICctbWV0YWxfYmluZGluZycsICctaW1hZScsICc8aW5maWxlLm1hZT4nLCAnLW9tYWUnLCAnPG91dGZpbGUubWFlPic=

> <r_lp_tautomer_probability>
1

> <r_epik_Ionization_Penalty>
0.617998

> <r_epik_Ionization_Penalty_Charging>
0

> <r_epik_Ionization_Penalty_Neutral>
0.617998

> <r_epik_State_Penalty>
0.632637

> <r_epik_Charging_Adjusted_Penalty>
0.632637

> <i_epik_Tot_Q>
0

> <i_epik_Tot_abs_Q>
0

> <r_epik_Metal_State_Penalty>
0.305596

> <b_epik_Metal_Only>
0

> <s_lp_Force_Field>
OPLS_2005

> <r_lp_Energy>
20.6708

> <b_lp_Chiralities_Consistent>
1

> <s_lp_Variant>
AV-unprocessed.smi:876-6

> <Gold.Version>
5.8.1

> <Gold.Id.Protein>
6NUR|6NUR_protein|mol2

> <Gold.PLP.Fitness>
43.6213

> <Gold.PLP.PLP>
-44.8947

> <Gold.PLP.part.hbond>
-0.2048

> <Gold.PLP.part.metal>
0.0000

> <Gold.PLP.part.buried>
-6.6046

> <Gold.PLP.part.nonpolar>
-37.0735

> <Gold.PLP.part.repulsive>
0.0000

> <Gold.PLP.ligand.clash>
0.0000

> <Gold.PLP.ligand.torsion>
0.6439

> <Gold.PLP.Chemscore.Hbond>
0.0000

> <Gold.PLP.Chemscore.CHOScore>
0.0000

> <Gold.PLP.Chemscore.Metal>
0.0000

> <Gold.PLP.Chemscore.Internal.Correction>
0.0144

> <Gold.Rescore>
     Score         DG    S(hbond)    S(metal)    S(lipo)     H(rot)  DE(clash)    DE(int)     intcor
     11.96     -13.82       0.00        0.00     110.59       1.80       0.09       1.76       ----

> <Gold.Chemscore.Fitness>
11.9623

> <Gold.Chemscore.DG>
-13.8157

> <Gold.Chemscore.ZeroCoef>
-5.4800

> <Gold.Chemscore.Hbond>
0.0000

> <Gold.Chemscore.Metal>
0.0000

> <Gold.Chemscore.Lipo>
110.5859

> <Gold.Chemscore.Internal_Hbond>
0.0000

> <Gold.Chemscore.DEClash>
0.0930

> <Gold.Chemscore.DEInternal>
1.7604

> <Gold.Chemscore.Rot>
1.7980

> <Gold.Chemscore.Internal.Correction>
   9.000000E+99

> <Gold.Chemscore.Hbond.Weighted>
-0.0000

> <Gold.Chemscore.Metal.Weighted>
-0.0000

> <Gold.Chemscore.Lipo.Weighted>
-12.9385

> <Gold.Chemscore.Internal_Hbond.Weighted>
0.0000

> <Gold.Chemscore.DEClash.Weighted>
0.0930

> <Gold.Chemscore.DEInternal.Weighted>
1.7604

> <Gold.Chemscore.Rot.Weighted>
4.6029

> <Gold.Chemscore.Internal.Correction.Weighted>
   9.000000E+99

> <Gold.Protein.RotatedTorsions>
[ 6907 6896 6895 6894 ] final  125.61 input  -60.11 | X-H torsion
[ 7974 7965 7964 7962 ] final  176.46 input  175.53 | X-H torsion
[ 8008 7997 7996 7995 ] final   98.22 input   59.86 | X-H torsion
[ 10167 10162 10161 10158 ] final -125.72 input  -65.29 | X-H torsion
[ 10718 10713 10712 10709 ] final  -31.97 input   66.30 | X-H torsion
[ 10763 10752 10751 10750 ] final  -22.39 input  -60.55 | X-H torsion
[ 11005 11000 10999 10996 ] final  -30.82 input  -57.11 | X-H torsion

> <Gold.Protein.ActiveResidues>
 VAL166  LYS551  ARG553  GLY616  TRP617  ASP618  TYR619  PRO620  LYS621  CYS622 
 ASP623  PHE694  ASN695  SER759  ASP760  ASP761  ALA762  ILE779  LEU786  VAL792 
 PHE793  MET794  SER795  GLU796  ALA797  LYS798  CYS799  TRP800  GLU811  SER814 

> <Gold.Protein.RotatedAtoms>
  152.3976  133.6770  159.6289 H   0  0  0  0  0  0  0  0  0  0  0  0  # atno 6907 bound_to 6896
  150.7873  133.8846  159.3304 H   0  0  0  0  0  0  0  0  0  0  0  0  # atno 6908 bound_to 6896
  151.6619  135.0989  160.0232 H   0  0  0  0  0  0  0  0  0  0  0  0  # atno 6909 bound_to 6896
  144.7184  140.0101  143.6440 H   0  0  0  0  0  0  0  0  0  0  0  0  # atno 7974 bound_to 7965
  156.0982  140.3247  155.7906 H   0  0  0  0  0  0  0  0  0  0  0  0  # atno 8008 bound_to 7997
  155.4882  140.0559  157.2975 H   0  0  0  0  0  0  0  0  0  0  0  0  # atno 8009 bound_to 7997
  154.4680  140.1998  156.0084 H   0  0  0  0  0  0  0  0  0  0  0  0  # atno 8010 bound_to 7997
  139.9791  143.5762  152.2385 H   0  0  0  0  0  0  0  0  0  0  0  0  # atno 10167 bound_to 10162
  156.3807  130.4355  149.7471 H   0  0  0  0  0  0  0  0  0  0  0  0  # atno 10718 bound_to 10713
  153.6511  135.6981  153.5208 H   0  0  0  0  0  0  0  0  0  0  0  0  # atno 10763 bound_to 10752
  153.2706  135.4216  155.0983 H   0  0  0  0  0  0  0  0  0  0  0  0  # atno 10764 bound_to 10752
  154.8476  135.3577  154.6056 H   0  0  0  0  0  0  0  0  0  0  0  0  # atno 10765 bound_to 10752
  140.9415  133.7275  156.1084 H   0  0  0  0  0  0  0  0  0  0  0  0  # atno 11005 bound_to 11000
  146.0265  139.3297  143.0781 LP  0  0  0  0  0  0  0  0  0  0  0  0  # atno 17320 bound_to 7965
  145.8504  140.9532  143.0752 LP  0  0  0  0  0  0  0  0  0  0  0  0  # atno 17321 bound_to 7965
  139.6423  144.7655  151.2313 LP  0  0  0  0  0  0  0  0  0  0  0  0  # atno 17342 bound_to 10162
  140.7495  143.6296  150.8436 LP  0  0  0  0  0  0  0  0  0  0  0  0  # atno 17343 bound_to 10162
  156.4562  130.7930  151.2951 LP  0  0  0  0  0  0  0  0  0  0  0  0  # atno 17370 bound_to 10713
  157.7492  131.0080  150.3211 LP  0  0  0  0  0  0  0  0  0  0  0  0  # atno 17371 bound_to 10713
  140.7727  134.3815  157.5504 LP  0  0  0  0  0  0  0  0  0  0  0  0  # atno 17394 bound_to 11000
  139.8822  134.9032  156.2850 LP  0  0  0  0  0  0  0  0  0  0  0  0  # atno 17395 bound_to 11000

$$$$
