AV-unprocessed.smi:1670|AV-procd|sdf|6695|dock10
  -GOLD-   22720 7433D 1   1.00000     0.00000
 Structure written by MMmdl.
 41 42  0  0  0  0  0  0  0  0  1 V2000
  146.4232  139.3079  154.9268 C   0  0  0  0  0  0  0  0  0  0  0  0
  147.7215  138.5105  154.7418 C   0  0  2  0  0  0  0  0  0  0  0  0
  148.8795  139.4196  154.2757 C   0  0  0  0  0  0  0  0  0  0  0  0
  150.1800  138.9336  154.7052 N   0  0  0  0  0  0  0  0  0  0  0  0
  150.7164  137.6727  154.5508 C   0  0  0  0  0  0  0  0  0  0  0  0
  151.9709  137.6963  155.0897 C   0  0  0  0  0  0  0  0  0  0  0  0
  152.1128  139.0325  155.5577 C   0  0  0  0  0  0  0  0  0  0  0  0
  151.0376  139.7694  155.3312 N   0  0  0  0  0  0  0  0  0  0  0  0
  147.4872  137.4337  153.7801 N   0  0  0  0  0  0  0  0  0  0  0  0
  146.4321  136.6058  153.7818 C   0  0  0  0  0  0  0  0  0  0  0  0
  145.4844  136.6936  154.5632 O   0  0  0  0  0  0  0  0  0  0  0  0
  146.5506  135.6490  152.8513 N   0  0  0  0  0  0  0  0  0  0  0  0
  145.6098  134.5506  152.6542 C   0  0  2  0  0  0  0  0  0  0  0  0
  146.0994  133.6097  151.5331 C   0  0  0  0  0  0  0  0  0  0  0  0
  145.0896  132.4810  151.2621 C   0  0  0  0  0  0  0  0  0  0  0  0
  143.6779  133.0190  150.9613 C   0  0  2  0  0  0  0  0  0  0  0  0
  143.6598  133.6570  149.6995 O   0  0  0  0  0  0  0  0  0  0  0  0
  143.1995  133.9950  152.0530 C   0  0  0  0  0  0  0  0  0  0  0  0
  144.2182  135.1172  152.3192 C   0  0  0  0  0  0  0  0  0  0  0  0
  146.5536  140.1042  155.6602 H   0  0  0  0  0  0  0  0  0  0  0  0
  145.6147  138.6665  155.2795 H   0  0  0  0  0  0  0  0  0  0  0  0
  146.1013  139.7670  153.9914 H   0  0  0  0  0  0  0  0  0  0  0  0
  147.9811  138.0883  155.7143 H   0  0  0  0  0  0  0  0  0  0  0  0
  148.8747  139.5207  153.1888 H   0  0  0  0  0  0  0  0  0  0  0  0
  148.7510  140.4243  154.6804 H   0  0  0  0  0  0  0  0  0  0  0  0
  150.1700  136.8760  154.0679 H   0  0  0  0  0  0  0  0  0  0  0  0
  152.6807  136.8840  155.1386 H   0  0  0  0  0  0  0  0  0  0  0  0
  152.9592  139.4856  156.0525 H   0  0  0  0  0  0  0  0  0  0  0  0
  148.2117  137.2734  153.0956 H   0  0  0  0  0  0  0  0  0  0  0  0
  147.3687  135.6584  152.2601 H   0  0  0  0  0  0  0  0  0  0  0  0
  145.5318  133.9834  153.5838 H   0  0  0  0  0  0  0  0  0  0  0  0
  146.2653  134.1797  150.6179 H   0  0  0  0  0  0  0  0  0  0  0  0
  147.0636  133.1740  151.7984 H   0  0  0  0  0  0  0  0  0  0  0  0
  145.4397  131.8534  150.4416 H   0  0  0  0  0  0  0  0  0  0  0  0
  145.0426  131.8341  152.1390 H   0  0  0  0  0  0  0  0  0  0  0  0
  142.9820  132.1816  150.9033 H   0  0  0  0  0  0  0  0  0  0  0  0
  142.9144  134.2369  149.6671 H   0  0  0  0  0  0  0  0  0  0  0  0
  142.2334  134.4223  151.7819 H   0  0  0  0  0  0  0  0  0  0  0  0
  143.0369  133.4402  152.9778 H   0  0  0  0  0  0  0  0  0  0  0  0
  143.8634  135.7446  153.1377 H   0  0  0  0  0  0  0  0  0  0  0  0
  144.2830  135.7640  151.4430 H   0  0  0  0  0  0  0  0  0  0  0  0
  1  2  1  0  0  0  0
  1 20  1  0  0  0  0
  1 21  1  0  0  0  0
  1 22  1  0  0  0  0
  2  3  1  0  0  0  0
  2  9  1  0  0  0  0
  2 23  1  0  0  0  0
  3  4  1  0  0  0  0
  3 24  1  0  0  0  0
  3 25  1  0  0  0  0
  4  8  1  0  0  0  0
  4  5  1  0  0  0  0
  5  6  2  0  0  0  0
  5 26  1  0  0  0  0
  6  7  1  0  0  0  0
  6 27  1  0  0  0  0
  7  8  2  0  0  0  0
  7 28  1  0  0  0  0
  9 10  1  0  0  0  0
  9 29  1  0  0  0  0
 10 11  2  0  0  0  0
 10 12  1  0  0  0  0
 12 13  1  0  0  0  0
 12 30  1  0  0  0  0
 13 19  1  0  0  0  0
 13 14  1  0  0  0  0
 13 31  1  0  0  0  0
 14 15  1  0  0  0  0
 14 32  1  0  0  0  0
 14 33  1  0  0  0  0
 15 16  1  0  0  0  0
 15 34  1  0  0  0  0
 15 35  1  0  0  0  0
 16 17  1  0  0  0  0
 16 18  1  0  0  0  0
 16 36  1  0  0  0  0
 17 37  1  0  0  0  0
 18 19  1  0  0  0  0
 18 38  1  0  0  0  0
 18 39  1  0  0  0  0
 19 40  1  0  0  0  0
 19 41  1  0  0  0  0
M  END
> <s_m_source_file>
AV-unprocessed.smi

> <i_m_source_file_index>
1670

> <i_lp_mmshare_version>
43012

> <i_f3d_flags>
0

> <s_epik_input>
bjFbY0hdW2NIXVtjSF1uMVtDSDJdW0NAQEhdKFtDSDNdKVtOSF1DKD1PKVtOSF1bQ0BASF0yW0NIMl1bQ0gyXVtDQEBIXShbT0hdKVtDSDJdW0NIMl0y

> <s_epik_cmdline>
J2VwaWtfcHl0aG9uJywgJy1waCcsICc3LjAnLCAnLXRuJywgJzgnLCAnLW1hJywgJzIwMCcsICctbWV0YWxfYmluZGluZycsICctaW1hZScsICc8aW5maWxlLm1hZT4nLCAnLW9tYWUnLCAnPG91dGZpbGUubWFlPic=

> <r_lp_tautomer_probability>
1

> <r_epik_Ionization_Penalty>
7.33369e-05

> <r_epik_Ionization_Penalty_Charging>
0

> <r_epik_Ionization_Penalty_Neutral>
7.33369e-05

> <r_epik_State_Penalty>
-0

> <r_epik_Charging_Adjusted_Penalty>
0

> <i_epik_Tot_Q>
0

> <i_epik_Tot_abs_Q>
0

> <r_epik_Metal_State_Penalty>
-0

> <b_epik_Metal_Only>
0

> <s_lp_Force_Field>
OPLS_2005

> <r_lp_Energy>
7.35879

> <b_lp_Chiralities_Consistent>
1

> <s_lp_Variant>
AV-unprocessed.smi:1670-3

> <Gold.Version>
5.8.1

> <Gold.Id.Protein>
6NUR|6NUR_protein|mol2

> <Gold.PLP.Fitness>
45.9325

> <Gold.PLP.PLP>
-31.9264

> <Gold.PLP.part.hbond>
-4.0000

> <Gold.PLP.part.metal>
0.0000

> <Gold.PLP.part.buried>
-3.1267

> <Gold.PLP.part.nonpolar>
-25.7290

> <Gold.PLP.part.repulsive>
0.1329

> <Gold.PLP.ligand.clash>
0.0000

> <Gold.PLP.ligand.torsion>
0.5532

> <Gold.PLP.Chemscore.Hbond>
3.9920

> <Gold.PLP.Chemscore.CHOScore>
1.0406

> <Gold.PLP.Chemscore.Metal>
0.0000

> <Gold.Chemscore.Hbonds>
donor molecule, donor type, donor heavy atom, donor atom, acceptor molecule, acceptor atom, score
      L1  H     9    29       P1  7948  1.00
      L1  H    12    30       P1  7948  1.00
      L1  H    17    37       P1 10186  0.96
      P1  H  7989  7998       L1     8  0.43
      L1  C     5    26       P1  7948  0.93
      L1  C     5    26       P1  7949  0.02

> <Gold.PLP.Chemscore.Internal.Correction>
0.0147

> <Gold.Rescore>
     Score         DG    S(hbond)    S(metal)    S(lipo)     H(rot)  DE(clash)    DE(int)     intcor
     14.01     -17.44       2.95        0.00      66.67       2.22       0.79       2.64       ----

> <Gold.Chemscore.Fitness>
14.0087

> <Gold.Chemscore.DG>
-17.4399

> <Gold.Chemscore.ZeroCoef>
-5.4800

> <Gold.Chemscore.Hbond>
2.9489

> <Gold.Chemscore.Metal>
0.0000

> <Gold.Chemscore.Lipo>
66.6653

> <Gold.Chemscore.Internal_Hbond>
0.0000

> <Gold.Chemscore.DEClash>
0.7876

> <Gold.Chemscore.DEInternal>
2.6436

> <Gold.Chemscore.Rot>
2.2224

> <Gold.Chemscore.Internal.Correction>
   9.000000E+99

> <Gold.Chemscore.Hbonds>
donor molecule, donor type, donor heavy atom, donor atom, acceptor molecule, acceptor atom, score
      L1  H     9    29       P1  7948  0.95
      L1  H    12    30       P1  7948  0.97
      L1  H    17    37       P1 10186  0.92
      P1  H  7989  7998       L1     8  0.02

> <Gold.Chemscore.Hbond.Weighted>
-9.8493

> <Gold.Chemscore.Metal.Weighted>
-0.0000

> <Gold.Chemscore.Lipo.Weighted>
-7.7998

> <Gold.Chemscore.Internal_Hbond.Weighted>
0.0000

> <Gold.Chemscore.DEClash.Weighted>
0.7876

> <Gold.Chemscore.DEInternal.Weighted>
2.6436

> <Gold.Chemscore.Rot.Weighted>
5.6893

> <Gold.Chemscore.Internal.Correction.Weighted>
   9.000000E+99

> <Gold.Protein.RotatedTorsions>
[ 6907 6896 6895 6894 ] final   49.14 input  -60.11 | X-H torsion
[ 7974 7965 7964 7962 ] final  -41.67 input  175.53 | X-H torsion
[ 8008 7997 7996 7995 ] final  177.98 input   59.86 | X-H torsion
[ 10167 10162 10161 10158 ] final  -94.79 input  -65.29 | X-H torsion
[ 10718 10713 10712 10709 ] final  -61.36 input   66.30 | X-H torsion
[ 10763 10752 10751 10750 ] final   84.34 input  -60.55 | X-H torsion
[ 11005 11000 10999 10996 ] final   74.93 input  -57.11 | X-H torsion

> <Gold.Protein.ActiveResidues>
 VAL166  LYS551  ARG553  GLY616  TRP617  ASP618  TYR619  PRO620  LYS621  CYS622 
 ASP623  PHE694  ASN695  SER759  ASP760  ASP761  ALA762  ILE779  LEU786  VAL792 
 PHE793  MET794  SER795  GLU796  ALA797  LYS798  CYS799  TRP800  GLU811  SER814 

> <Gold.Protein.RotatedAtoms>
  152.2874  134.7760  160.0384 H   0  0  0  0  0  0  0  0  0  0  0  0  # atno 6907 bound_to 6896
  151.8318  133.3404  159.3624 H   0  0  0  0  0  0  0  0  0  0  0  0  # atno 6908 bound_to 6896
  150.7215  134.5404  159.5789 H   0  0  0  0  0  0  0  0  0  0  0  0  # atno 6909 bound_to 6896
  146.0189  140.6874  142.9188 H   0  0  0  0  0  0  0  0  0  0  0  0  # atno 7974 bound_to 7965
  156.0597  140.1345  156.9956 H   0  0  0  0  0  0  0  0  0  0  0  0  # atno 8008 bound_to 7997
  154.4475  140.0994  156.6569 H   0  0  0  0  0  0  0  0  0  0  0  0  # atno 8009 bound_to 7997
  155.5397  140.3460  155.4446 H   0  0  0  0  0  0  0  0  0  0  0  0  # atno 8010 bound_to 7997
  140.3108  143.3106  152.0150 H   0  0  0  0  0  0  0  0  0  0  0  0  # atno 10167 bound_to 10162
  156.0927  130.4197  150.0983 H   0  0  0  0  0  0  0  0  0  0  0  0  # atno 10718 bound_to 10713
  153.1372  135.4658  154.9441 H   0  0  0  0  0  0  0  0  0  0  0  0  # atno 10763 bound_to 10752
  154.7716  135.3160  154.8179 H   0  0  0  0  0  0  0  0  0  0  0  0  # atno 10764 bound_to 10752
  153.8709  135.6903  153.4828 H   0  0  0  0  0  0  0  0  0  0  0  0  # atno 10765 bound_to 10752
  139.9367  134.7475  156.1208 H   0  0  0  0  0  0  0  0  0  0  0  0  # atno 11005 bound_to 11000
  144.6982  140.3530  143.7178 LP  0  0  0  0  0  0  0  0  0  0  0  0  # atno 17320 bound_to 7965
  145.7225  139.1713  143.2476 LP  0  0  0  0  0  0  0  0  0  0  0  0  # atno 17321 bound_to 7965
  139.4894  144.6386  151.6924 LP  0  0  0  0  0  0  0  0  0  0  0  0  # atno 17342 bound_to 10162
  140.5570  144.0332  150.6152 LP  0  0  0  0  0  0  0  0  0  0  0  0  # atno 17343 bound_to 10162
  156.8989  130.9613  151.3579 LP  0  0  0  0  0  0  0  0  0  0  0  0  # atno 17370 bound_to 10713
  157.6080  130.8562  149.8906 LP  0  0  0  0  0  0  0  0  0  0  0  0  # atno 17371 bound_to 10713
  141.0984  133.6686  156.2699 LP  0  0  0  0  0  0  0  0  0  0  0  0  # atno 17394 bound_to 11000
  140.6056  134.5510  157.5525 LP  0  0  0  0  0  0  0  0  0  0  0  0  # atno 17395 bound_to 11000

$$$$
