AV-unprocessed.smi:1762|AV-procd|sdf|7105|dock4
  -GOLD-   22720 8323D 1   1.00000     0.00000
 Structure written by MMmdl.
 53 54  0  0  0  0  0  0  0  0  2 V2000
  152.0017  139.2301  155.4721 C   0  0  0  0  0  0  0  0  0  0  0  0
  150.5001  139.4492  155.2552 C   0  0  2  0  0  0  0  0  0  0  0  0
  149.7227  138.1223  155.1755 C   0  0  0  0  0  0  0  0  0  0  0  0
  148.2978  138.3161  154.8848 N   0  0  0  0  0  0  0  0  0  0  0  0
  147.5251  137.0419  154.8779 C   0  0  2  0  0  0  0  0  0  0  0  0
  146.3012  137.0793  153.9322 C   0  0  0  0  0  0  0  0  0  0  0  0
  145.2263  137.5387  154.3203 O   0  0  0  0  0  0  0  0  0  0  0  0
  146.4880  136.6180  152.6850 N   0  0  0  0  0  0  0  0  0  0  0  0
  145.4677  136.5942  151.6443 C   0  0  0  0  0  0  0  0  0  0  0  0
  144.4887  135.4243  151.8412 C   0  0  0  0  0  0  0  0  0  0  0  0
  144.8144  134.2459  150.9449 C   0  0  0  0  0  0  0  0  0  0  0  0
  146.0290  133.5346  151.0551 C   0  0  0  0  0  0  0  0  0  0  0  0
  146.2733  132.4501  150.1869 C   0  0  0  0  0  0  0  0  0  0  0  0
  145.2997  132.1010  149.2278 C   0  0  0  0  0  0  0  0  0  0  0  0
  144.1053  132.8471  149.1602 C   0  0  0  0  0  0  0  0  0  0  0  0
  143.9082  133.8796  150.0094 N   0  3  0  0  0  0  0  0  0  0  0  0
  147.1146  136.5070  156.2915 C   0  0  0  0  0  0  0  0  0  0  0  0
  146.0417  137.3682  156.9886 C   0  0  0  0  0  0  0  0  0  0  0  0
  148.3070  136.2674  157.2385 C   0  0  0  0  0  0  0  0  0  0  0  0
  148.1787  139.1054  153.6453 C   0  0  0  0  0  0  0  0  0  0  0  0
  148.9782  140.4234  153.6766 C   0  0  1  0  0  0  0  0  0  0  0  0
  148.3343  141.5057  154.5610 C   0  0  0  0  0  0  0  0  0  0  0  0
  150.3333  140.1741  154.0419 O   0  0  0  0  0  0  0  0  0  0  0  0
  152.1901  138.6966  156.4040 H   0  0  0  0  0  0  0  0  0  0  0  0
  152.5303  140.1823  155.5226 H   0  0  0  0  0  0  0  0  0  0  0  0
  152.4381  138.6496  154.6589 H   0  0  0  0  0  0  0  0  0  0  0  0
  150.1210  140.0426  156.0879 H   0  0  0  0  0  0  0  0  0  0  0  0
  150.1713  137.4761  154.4187 H   0  0  0  0  0  0  0  0  0  0  0  0
  149.8586  137.6243  156.1330 H   0  0  0  0  0  0  0  0  0  0  0  0
  148.1895  136.2814  154.4619 H   0  0  0  0  0  0  0  0  0  0  0  0
  147.4012  136.2607  152.4433 H   0  0  0  0  0  0  0  0  0  0  0  0
  144.9296  137.5420  151.6750 H   0  0  0  0  0  0  0  0  0  0  0  0
  145.9411  136.5369  150.6623 H   0  0  0  0  0  0  0  0  0  0  0  0
  144.5029  135.0890  152.8793 H   0  0  0  0  0  0  0  0  0  0  0  0
  143.4678  135.7522  151.6404 H   0  0  0  0  0  0  0  0  0  0  0  0
  146.7653  133.8157  151.7945 H   0  0  0  0  0  0  0  0  0  0  0  0
  147.1961  131.8924  150.2559 H   0  0  0  0  0  0  0  0  0  0  0  0
  145.4672  131.2729  148.5544 H   0  0  0  0  0  0  0  0  0  0  0  0
  143.3076  132.6500  148.4587 H   0  0  0  0  0  0  0  0  0  0  0  0
  146.6241  135.5450  156.1517 H   0  0  0  0  0  0  0  0  0  0  0  0
  146.4307  138.3385  157.2984 H   0  0  0  0  0  0  0  0  0  0  0  0
  145.6679  136.8715  157.8844 H   0  0  0  0  0  0  0  0  0  0  0  0
  145.1883  137.5421  156.3325 H   0  0  0  0  0  0  0  0  0  0  0  0
  148.8055  137.1975  157.5102 H   0  0  0  0  0  0  0  0  0  0  0  0
  149.0510  135.6097  156.7891 H   0  0  0  0  0  0  0  0  0  0  0  0
  147.9773  135.7950  158.1641 H   0  0  0  0  0  0  0  0  0  0  0  0
  148.5243  138.5047  152.8022 H   0  0  0  0  0  0  0  0  0  0  0  0
  147.1437  139.3673  153.4285 H   0  0  0  0  0  0  0  0  0  0  0  0
  149.0072  140.8213  152.6618 H   0  0  0  0  0  0  0  0  0  0  0  0
  147.3511  141.7829  154.1800 H   0  0  0  0  0  0  0  0  0  0  0  0
  148.9470  142.4070  154.5801 H   0  0  0  0  0  0  0  0  0  0  0  0
  148.1999  141.1697  155.5889 H   0  0  0  0  0  0  0  0  0  0  0  0
  143.0364  134.4056  149.9427 H   0  0  0  0  0  0  0  0  0  0  0  0
  1  2  1  0  0  0  0
  1 24  1  0  0  0  0
  1 25  1  0  0  0  0
  1 26  1  0  0  0  0
  2 23  1  0  0  0  0
  2  3  1  0  0  0  0
  2 27  1  0  0  0  0
  3  4  1  0  0  0  0
  3 28  1  0  0  0  0
  3 29  1  0  0  0  0
  4  5  1  0  0  0  0
  4 20  1  0  0  0  0
  5  6  1  0  0  0  0
  5 17  1  0  0  0  0
  5 30  1  0  0  0  0
  6  7  2  0  0  0  0
  6  8  1  0  0  0  0
  8  9  1  0  0  0  0
  8 31  1  0  0  0  0
  9 10  1  0  0  0  0
  9 32  1  0  0  0  0
  9 33  1  0  0  0  0
 10 11  1  0  0  0  0
 10 34  1  0  0  0  0
 10 35  1  0  0  0  0
 11 16  1  0  0  0  0
 11 12  2  0  0  0  0
 12 13  1  0  0  0  0
 12 36  1  0  0  0  0
 13 14  2  0  0  0  0
 13 37  1  0  0  0  0
 14 15  1  0  0  0  0
 14 38  1  0  0  0  0
 15 16  2  0  0  0  0
 15 39  1  0  0  0  0
 16 53  1  0  0  0  0
 17 18  1  0  0  0  0
 17 19  1  0  0  0  0
 17 40  1  0  0  0  0
 18 41  1  0  0  0  0
 18 42  1  0  0  0  0
 18 43  1  0  0  0  0
 19 44  1  0  0  0  0
 19 45  1  0  0  0  0
 19 46  1  0  0  0  0
 20 21  1  0  0  0  0
 20 47  1  0  0  0  0
 20 48  1  0  0  0  0
 21 22  1  0  0  0  0
 21 23  1  0  0  0  0
 21 49  1  0  0  0  0
 22 50  1  0  0  0  0
 22 51  1  0  0  0  0
 22 52  1  0  0  0  0
M  CHG  1  16   1
M  END
> <s_m_source_file>
AV-unprocessed.smi

> <i_m_source_file_index>
1762

> <i_lp_mmshare_version>
43012

> <i_f3d_flags>
0

> <s_epik_input>
W0NIM11bQ0BASF0xW0NIMl1OKFtDSDJdW0NASF0oTzEpW0NIM10pW0NAQEhdKFtDSF0oW0NIM10pW0NIM10pQyg9TylbTkhdW0NIMl1bQ0gyXWMyW2NIXVtjSF1bY0hdW2NIXW4y

> <s_epik_cmdline>
J2VwaWtfcHl0aG9uJywgJy1waCcsICc3LjAnLCAnLXRuJywgJzgnLCAnLW1hJywgJzIwMCcsICctbWV0YWxfYmluZGluZycsICctaW1hZScsICc8aW5maWxlLm1hZT4nLCAnLW9tYWUnLCAnPG91dGZpbGUubWFlPic=

> <r_epik_Ionization_Penalty>
1.86475

> <r_epik_Ionization_Penalty_Charging>
1.85347

> <r_epik_Ionization_Penalty_Neutral>
0.0112771

> <r_epik_State_Penalty>
1.99714

> <r_epik_Charging_Adjusted_Penalty>
3.85061

> <i_epik_Tot_Q>
1

> <i_epik_Tot_abs_Q>
1

> <r_epik_Metal_State_Penalty>
2.02271

> <b_epik_Metal_Only>
0

> <s_lp_Force_Field>
OPLS_2005

> <r_lp_Energy>
35.8241

> <b_lp_Chiralities_Consistent>
1

> <s_lp_Variant>
AV-unprocessed.smi:1762-7

> <Gold.Version>
5.8.1

> <Gold.Id.Protein>
6NUR|6NUR_protein|mol2

> <Gold.PLP.Fitness>
42.8082

> <Gold.PLP.PLP>
-33.8727

> <Gold.PLP.part.hbond>
-3.0000

> <Gold.PLP.part.metal>
0.0000

> <Gold.PLP.part.buried>
-1.9114

> <Gold.PLP.part.nonpolar>
-30.4702

> <Gold.PLP.part.repulsive>
1.0029

> <Gold.PLP.ligand.clash>
0.0000

> <Gold.PLP.ligand.torsion>
1.6490

> <Gold.PLP.Chemscore.Hbond>
3.9760

> <Gold.PLP.Chemscore.CHOScore>
0.0000

> <Gold.PLP.Chemscore.Metal>
0.0000

> <Gold.Chemscore.Hbonds>
donor molecule, donor type, donor heavy atom, donor atom, acceptor molecule, acceptor atom, score
      L1  H     8    31       P1  7948  1.00
      L1  H    16    53       P1 10186  1.84
      P1  H  7989  7998       L1    23  0.98

> <Gold.PLP.Chemscore.Internal.Correction>
0.3056

> <Gold.Rescore>
     Score         DG    S(hbond)    S(metal)    S(lipo)     H(rot)  DE(clash)    DE(int)     intcor
     19.09     -21.58       2.86        0.00      93.66       1.72       0.91       1.58       ----

> <Gold.Chemscore.Fitness>
19.0880

> <Gold.Chemscore.DG>
-21.5800

> <Gold.Chemscore.ZeroCoef>
-5.4800

> <Gold.Chemscore.Hbond>
2.8558

> <Gold.Chemscore.Metal>
0.0000

> <Gold.Chemscore.Lipo>
93.6606

> <Gold.Chemscore.Internal_Hbond>
0.0000

> <Gold.Chemscore.DEClash>
0.9090

> <Gold.Chemscore.DEInternal>
1.5829

> <Gold.Chemscore.Rot>
1.7174

> <Gold.Chemscore.Internal.Correction>
   9.000000E+99

> <Gold.Chemscore.Hbonds>
donor molecule, donor type, donor heavy atom, donor atom, acceptor molecule, acceptor atom, score
      L1  H     8    31       P1  7948  0.99
      L1  H    16    53       P1 10186  0.79
      P1  H  7989  7998       L1    23  0.83

> <Gold.Chemscore.Hbond.Weighted>
-9.5382

> <Gold.Chemscore.Metal.Weighted>
-0.0000

> <Gold.Chemscore.Lipo.Weighted>
-10.9583

> <Gold.Chemscore.Internal_Hbond.Weighted>
0.0000

> <Gold.Chemscore.DEClash.Weighted>
0.9090

> <Gold.Chemscore.DEInternal.Weighted>
1.5829

> <Gold.Chemscore.Rot.Weighted>
4.3966

> <Gold.Chemscore.Internal.Correction.Weighted>
   9.000000E+99

> <Gold.Protein.RotatedTorsions>
[ 6907 6896 6895 6894 ] final   24.46 input  -60.11 | X-H torsion
[ 7974 7965 7964 7962 ] final  -91.76 input  175.53 | X-H torsion
[ 8008 7997 7996 7995 ] final  172.94 input   59.86 | X-H torsion
[ 10167 10162 10161 10158 ] final  116.98 input  -65.29 | X-H torsion
[ 10718 10713 10712 10709 ] final -175.07 input   66.30 | X-H torsion
[ 10763 10752 10751 10750 ] final -121.25 input  -60.55 | X-H torsion
[ 11005 11000 10999 10996 ] final -123.86 input  -57.11 | X-H torsion

> <Gold.Protein.ActiveResidues>
 VAL166  LYS551  ARG553  GLY616  TRP617  ASP618  TYR619  PRO620  LYS621  CYS622 
 ASP623  PHE694  ASN695  SER759  ASP760  ASP761  ALA762  ILE779  LEU786  VAL792 
 PHE793  MET794  SER795  GLU796  ALA797  LYS798  CYS799  TRP800  GLU811  SER814 

> <Gold.Protein.RotatedAtoms>
  151.9578  135.0138  160.0545 H   0  0  0  0  0  0  0  0  0  0  0  0  # atno 6907 bound_to 6896
  152.1896  133.4759  159.5009 H   0  0  0  0  0  0  0  0  0  0  0  0  # atno 6908 bound_to 6896
  150.6932  134.1647  159.4232 H   0  0  0  0  0  0  0  0  0  0  0  0  # atno 6909 bound_to 6896
  145.4089  140.9543  143.2245 H   0  0  0  0  0  0  0  0  0  0  0  0  # atno 7974 bound_to 7965
  156.1125  140.1473  156.9319 H   0  0  0  0  0  0  0  0  0  0  0  0  # atno 8008 bound_to 7997
  154.4777  140.0889  156.7344 H   0  0  0  0  0  0  0  0  0  0  0  0  # atno 8009 bound_to 7997
  155.4572  140.3437  155.4310 H   0  0  0  0  0  0  0  0  0  0  0  0  # atno 8010 bound_to 7997
  139.6210  144.7101  151.2635 H   0  0  0  0  0  0  0  0  0  0  0  0  # atno 10167 bound_to 10162
  156.7945  130.9530  151.3120 H   0  0  0  0  0  0  0  0  0  0  0  0  # atno 10718 bound_to 10713
  154.8664  135.4174  154.2591 H   0  0  0  0  0  0  0  0  0  0  0  0  # atno 10763 bound_to 10752
  153.3522  135.6999  153.6785 H   0  0  0  0  0  0  0  0  0  0  0  0  # atno 10764 bound_to 10752
  153.5720  135.3589  155.2814 H   0  0  0  0  0  0  0  0  0  0  0  0  # atno 10765 bound_to 10752
  140.9886  134.0571  157.3681 H   0  0  0  0  0  0  0  0  0  0  0  0  # atno 11005 bound_to 11000
  144.8323  139.5608  143.6938 LP  0  0  0  0  0  0  0  0  0  0  0  0  # atno 17320 bound_to 7965
  146.2715  139.6646  142.9293 LP  0  0  0  0  0  0  0  0  0  0  0  0  # atno 17321 bound_to 7965
  140.7382  143.6656  150.8126 LP  0  0  0  0  0  0  0  0  0  0  0  0  # atno 17342 bound_to 10162
  140.0267  143.5486  152.2778 LP  0  0  0  0  0  0  0  0  0  0  0  0  # atno 17343 bound_to 10162
  157.6584  130.8945  149.9778 LP  0  0  0  0  0  0  0  0  0  0  0  0  # atno 17370 bound_to 10713
  156.1139  130.3648  150.0002 LP  0  0  0  0  0  0  0  0  0  0  0  0  # atno 17371 bound_to 10713
  139.8982  135.0153  156.7135 LP  0  0  0  0  0  0  0  0  0  0  0  0  # atno 17394 bound_to 11000
  140.7076  133.9252  155.8063 LP  0  0  0  0  0  0  0  0  0  0  0  0  # atno 17395 bound_to 11000

$$$$
