AV-unprocessed.smi:1900|AV-procd|sdf|7711|dock7
  -GOLD-   22720 9453D 1   1.00000     0.00000
 Structure written by MMmdl.
 44 45  0  0  0  0  0  0  0  0  2 V2000
  149.9335  141.0865  157.1750 C   0  0  0  0  0  0  0  0  0  0  0  0
  148.9267  140.8549  156.0431 C   0  0  2  0  0  0  0  0  0  0  0  0
  149.5827  140.9746  154.6520 C   0  0  0  0  0  0  0  0  0  0  0  0
  148.5792  140.8380  153.5682 N   0  3  1  0  0  0  0  0  0  0  0  0
  148.1642  139.4322  153.3162 C   0  0  0  0  0  0  0  0  0  0  0  0
  146.7658  139.3360  152.6831 C   0  0  0  0  0  0  0  0  0  0  0  0
  145.9608  138.1467  153.2332 C   0  0  0  0  0  0  0  0  0  0  0  0
  146.3400  136.8922  152.5934 N   0  0  0  0  0  0  0  0  0  0  0  0
  145.4805  135.9851  152.1082 C   0  0  0  0  0  0  0  0  0  0  0  0
  144.2568  136.1081  152.1686 O   0  0  0  0  0  0  0  0  0  0  0  0
  146.1271  134.9450  151.5569 N   0  0  0  0  0  0  0  0  0  0  0  0
  145.5543  133.8044  150.9395 C   0  0  0  0  0  0  0  0  0  0  0  0
  146.2480  132.5917  150.6785 C   0  0  0  0  0  0  0  0  0  0  0  0
  145.4610  131.7007  150.0928 N   0  0  0  0  0  0  0  0  0  0  0  0
  144.2711  132.3328  149.9786 N   0  0  0  0  0  0  0  0  0  0  0  0
  144.2805  133.6150  150.4814 C   0  0  0  0  0  0  0  0  0  0  0  0
  147.4612  141.7931  153.7781 C   0  0  0  0  0  0  0  0  0  0  0  0
  146.8645  141.6695  155.1967 C   0  0  2  0  0  0  0  0  0  0  0  0
  145.7937  142.7329  155.4638 C   0  0  0  0  0  0  0  0  0  0  0  0
  147.9023  141.8367  156.1567 O   0  0  0  0  0  0  0  0  0  0  0  0
  143.4707  131.8807  149.5599 H   0  0  0  0  0  0  0  0  0  0  0  0
  150.7426  140.3568  157.1361 H   0  0  0  0  0  0  0  0  0  0  0  0
  149.4524  140.9966  158.1494 H   0  0  0  0  0  0  0  0  0  0  0  0
  150.3761  142.0810  157.1131 H   0  0  0  0  0  0  0  0  0  0  0  0
  148.4909  139.8624  156.1687 H   0  0  0  0  0  0  0  0  0  0  0  0
  150.0556  141.9529  154.5558 H   0  0  0  0  0  0  0  0  0  0  0  0
  150.3789  140.2388  154.5313 H   0  0  0  0  0  0  0  0  0  0  0  0
  148.8740  138.9761  152.6247 H   0  0  0  0  0  0  0  0  0  0  0  0
  148.2108  138.8424  154.2316 H   0  0  0  0  0  0  0  0  0  0  0  0
  146.2032  140.2522  152.8603 H   0  0  0  0  0  0  0  0  0  0  0  0
  146.8692  139.2401  151.6014 H   0  0  0  0  0  0  0  0  0  0  0  0
  146.0865  138.0648  154.3142 H   0  0  0  0  0  0  0  0  0  0  0  0
  144.8968  138.3058  153.0560 H   0  0  0  0  0  0  0  0  0  0  0  0
  147.3284  136.7089  152.4985 H   0  0  0  0  0  0  0  0  0  0  0  0
  147.1362  134.9763  151.5699 H   0  0  0  0  0  0  0  0  0  0  0  0
  147.2755  132.3339  150.8891 H   0  0  0  0  0  0  0  0  0  0  0  0
  143.4066  134.2491  150.4651 H   0  0  0  0  0  0  0  0  0  0  0  0
  147.8543  142.8014  153.6404 H   0  0  0  0  0  0  0  0  0  0  0  0
  146.6876  141.6677  153.0218 H   0  0  0  0  0  0  0  0  0  0  0  0
  146.4071  140.6884  155.3312 H   0  0  0  0  0  0  0  0  0  0  0  0
  144.9670  142.6426  154.7586 H   0  0  0  0  0  0  0  0  0  0  0  0
  146.2035  143.7393  155.3729 H   0  0  0  0  0  0  0  0  0  0  0  0
  145.3848  142.6299  156.4691 H   0  0  0  0  0  0  0  0  0  0  0  0
  149.0496  141.1267  152.7219 H   0  0  0  0  0  0  0  0  0  0  0  0
  1  2  1  0  0  0  0
  1 22  1  0  0  0  0
  1 23  1  0  0  0  0
  1 24  1  0  0  0  0
  2 20  1  0  0  0  0
  2  3  1  0  0  0  0
  2 25  1  0  0  0  0
  3  4  1  0  0  0  0
  3 26  1  0  0  0  0
  3 27  1  0  0  0  0
  4  5  1  0  0  0  0
  4 17  1  0  0  0  0
  4 44  1  0  0  0  0
  5  6  1  0  0  0  0
  5 28  1  0  0  0  0
  5 29  1  0  0  0  0
  6  7  1  0  0  0  0
  6 30  1  0  0  0  0
  6 31  1  0  0  0  0
  7  8  1  0  0  0  0
  7 32  1  0  0  0  0
  7 33  1  0  0  0  0
  8  9  1  0  0  0  0
  8 34  1  0  0  0  0
  9 10  2  0  0  0  0
  9 11  1  0  0  0  0
 11 12  1  0  0  0  0
 11 35  1  0  0  0  0
 12 16  2  0  0  0  0
 12 13  1  0  0  0  0
 13 14  2  0  0  0  0
 13 36  1  0  0  0  0
 14 15  1  0  0  0  0
 15 21  1  0  0  0  0
 15 16  1  0  0  0  0
 16 37  1  0  0  0  0
 17 18  1  0  0  0  0
 17 38  1  0  0  0  0
 17 39  1  0  0  0  0
 18 19  1  0  0  0  0
 18 20  1  0  0  0  0
 18 40  1  0  0  0  0
 19 41  1  0  0  0  0
 19 42  1  0  0  0  0
 19 43  1  0  0  0  0
M  CHG  1   4   1
M  END
> <s_m_source_file>
AV-unprocessed.smi

> <i_m_source_file_index>
1900

> <i_lp_mmshare_version>
43012

> <i_f3d_flags>
0

> <s_epik_input>
W0NIM11bQ0BASF0xW0NIMl1OKFtDSDJdW0NASF0oTzEpW0NIM10pW0NIMl1bQ0gyXVtDSDJdW05IXUMoPU8pW05IXWMyW2NIXW5bbkhdW2NIXTI=

> <s_epik_cmdline>
J2VwaWtfcHl0aG9uJywgJy1waCcsICc3LjAnLCAnLXRuJywgJzgnLCAnLW1hJywgJzIwMCcsICctbWV0YWxfYmluZGluZycsICctaW1hZScsICc8aW5maWxlLm1hZT4nLCAnLW9tYWUnLCAnPG91dGZpbGUubWFlPic=

> <r_lp_tautomer_probability>
0.5

> <r_epik_Ionization_Penalty>
0.270543

> <r_epik_Ionization_Penalty_Charging>
0.270496

> <r_epik_Ionization_Penalty_Neutral>
4.67091e-05

> <r_epik_State_Penalty>
0.262618

> <r_epik_Charging_Adjusted_Penalty>
0.533114

> <i_epik_Tot_Q>
1

> <i_epik_Tot_abs_Q>
1

> <r_epik_Metal_State_Penalty>
0.262618

> <b_epik_Metal_Only>
0

> <s_lp_Force_Field>
OPLS_2005

> <r_lp_Energy>
20.3326

> <b_lp_Chiralities_Consistent>
1

> <s_lp_Variant>
AV-unprocessed.smi:1900-3

> <Gold.Version>
5.8.1

> <Gold.Id.Protein>
6NUR|6NUR_protein|mol2

> <Gold.PLP.Fitness>
40.5019

> <Gold.PLP.PLP>
-29.4514

> <Gold.PLP.part.hbond>
-3.0000

> <Gold.PLP.part.metal>
0.0000

> <Gold.PLP.part.buried>
-1.9705

> <Gold.PLP.part.nonpolar>
-25.3554

> <Gold.PLP.part.repulsive>
0.8693

> <Gold.PLP.ligand.clash>
0.0000

> <Gold.PLP.ligand.torsion>
0.8510

> <Gold.PLP.Chemscore.Hbond>
2.3404

> <Gold.PLP.Chemscore.CHOScore>
1.8914

> <Gold.PLP.Chemscore.Metal>
0.0000

> <Gold.Chemscore.Hbonds>
donor molecule, donor type, donor heavy atom, donor atom, acceptor molecule, acceptor atom, score
      L1  H     4    44       P1  7957  0.61
      L1  H     8    34       P1  7948  1.00
      L1  H    11    35       P1  7948  0.61
      L1  C    13    36       P1 10747  1.00
      L1  C    16    37       P1 10186  0.91

> <Gold.PLP.Chemscore.Internal.Correction>
0.0569

> <Gold.Rescore>
     Score         DG    S(hbond)    S(metal)    S(lipo)     H(rot)  DE(clash)    DE(int)     intcor
     13.49     -16.75       2.24        0.00      74.62       1.93       1.65       1.61       ----

> <Gold.Chemscore.Fitness>
13.4871

> <Gold.Chemscore.DG>
-16.7470

> <Gold.Chemscore.ZeroCoef>
-5.4800

> <Gold.Chemscore.Hbond>
2.2424

> <Gold.Chemscore.Metal>
0.0000

> <Gold.Chemscore.Lipo>
74.6187

> <Gold.Chemscore.Internal_Hbond>
0.0000

> <Gold.Chemscore.DEClash>
1.6486

> <Gold.Chemscore.DEInternal>
1.6113

> <Gold.Chemscore.Rot>
1.9347

> <Gold.Chemscore.Internal.Correction>
   9.000000E+99

> <Gold.Chemscore.Hbonds>
donor molecule, donor type, donor heavy atom, donor atom, acceptor molecule, acceptor atom, score
      L1  H     4    44       P1  7957  0.59
      L1  H     8    34       P1  7948  1.00
      L1  H    11    35       P1  7948  0.49

> <Gold.Chemscore.Hbond.Weighted>
-7.4895

> <Gold.Chemscore.Metal.Weighted>
-0.0000

> <Gold.Chemscore.Lipo.Weighted>
-8.7304

> <Gold.Chemscore.Internal_Hbond.Weighted>
0.0000

> <Gold.Chemscore.DEClash.Weighted>
1.6486

> <Gold.Chemscore.DEInternal.Weighted>
1.6113

> <Gold.Chemscore.Rot.Weighted>
4.9528

> <Gold.Chemscore.Internal.Correction.Weighted>
   9.000000E+99

> <Gold.Protein.RotatedTorsions>
[ 6907 6896 6895 6894 ] final  -73.38 input  -60.11 | X-H torsion
[ 7974 7965 7964 7962 ] final  -50.30 input  175.53 | X-H torsion
[ 8008 7997 7996 7995 ] final    4.69 input   59.86 | X-H torsion
[ 10167 10162 10161 10158 ] final  -19.63 input  -65.29 | X-H torsion
[ 10718 10713 10712 10709 ] final   62.78 input   66.30 | X-H torsion
[ 10763 10752 10751 10750 ] final   33.09 input  -60.55 | X-H torsion
[ 11005 11000 10999 10996 ] final  134.39 input  -57.11 | X-H torsion

> <Gold.Protein.ActiveResidues>
 VAL166  LYS551  ARG553  GLY616  TRP617  ASP618  TYR619  PRO620  LYS621  CYS622 
 ASP623  PHE694  ASN695  SER759  ASP760  ASP761  ALA762  ILE779  LEU786  VAL792 
 PHE793  MET794  SER795  GLU796  ALA797  LYS798  CYS799  TRP800  GLU811  SER814 

> <Gold.Protein.RotatedAtoms>
  150.7132  134.5025  159.5567 H   0  0  0  0  0  0  0  0  0  0  0  0  # atno 6907 bound_to 6896
  152.2619  134.8022  160.0438 H   0  0  0  0  0  0  0  0  0  0  0  0  # atno 6908 bound_to 6896
  151.8733  133.3445  159.3779 H   0  0  0  0  0  0  0  0  0  0  0  0  # atno 6909 bound_to 6896
  145.9313  140.7747  142.9598 H   0  0  0  0  0  0  0  0  0  0  0  0  # atno 7974 bound_to 7965
  154.7190  140.2708  155.6558 H   0  0  0  0  0  0  0  0  0  0  0  0  # atno 8008 bound_to 7997
  156.2818  140.2738  156.1781 H   0  0  0  0  0  0  0  0  0  0  0  0  # atno 8009 bound_to 7997
  155.0532  140.0371  157.2541 H   0  0  0  0  0  0  0  0  0  0  0  0  # atno 8010 bound_to 7997
  140.7270  143.4800  151.0131 H   0  0  0  0  0  0  0  0  0  0  0  0  # atno 10167 bound_to 10162
  157.5925  130.9069  149.9631 H   0  0  0  0  0  0  0  0  0  0  0  0  # atno 10718 bound_to 10713
  153.0229  135.6396  154.1457 H   0  0  0  0  0  0  0  0  0  0  0  0  # atno 10763 bound_to 10752
  154.1190  135.2848  155.3214 H   0  0  0  0  0  0  0  0  0  0  0  0  # atno 10764 bound_to 10752
  154.6277  135.5503  153.7708 H   0  0  0  0  0  0  0  0  0  0  0  0  # atno 10765 bound_to 10752
  139.9912  134.9514  156.9859 H   0  0  0  0  0  0  0  0  0  0  0  0  # atno 11005 bound_to 11000
  144.6765  140.2131  143.7375 LP  0  0  0  0  0  0  0  0  0  0  0  0  # atno 17320 bound_to 7965
  145.8422  139.2135  143.1820 LP  0  0  0  0  0  0  0  0  0  0  0  0  # atno 17321 bound_to 7965
  139.8498  143.7454  152.3178 LP  0  0  0  0  0  0  0  0  0  0  0  0  # atno 17342 bound_to 10162
  139.7631  144.7500  151.0334 LP  0  0  0  0  0  0  0  0  0  0  0  0  # atno 17343 bound_to 10162
  156.0982  130.3658  150.0268 LP  0  0  0  0  0  0  0  0  0  0  0  0  # atno 17370 bound_to 10713
  156.8388  130.9418  151.3633 LP  0  0  0  0  0  0  0  0  0  0  0  0  # atno 17371 bound_to 10713
  140.4905  134.1197  155.7232 LP  0  0  0  0  0  0  0  0  0  0  0  0  # atno 17394 bound_to 11000
  141.1567  133.8869  157.1958 LP  0  0  0  0  0  0  0  0  0  0  0  0  # atno 17395 bound_to 11000

$$$$
