AV-unprocessed.smi:1258|AV-procd|sdf|5287|dock8
  -GOLD-   22720 4403D 1   1.00000     0.00000
 Structure written by MMmdl.
 33 34  0  0  0  0  0  0  0  0  1 V2000
  151.7396  145.2539  159.3210 C   0  0  0  0  0  0  0  0  0  0  0  0
  152.0167  143.8998  159.9891 C   0  0  2  0  0  0  0  0  0  0  0  0
  152.2211  144.0528  161.5087 C   0  0  0  0  0  0  0  0  0  0  0  0
  152.5068  142.7011  162.1826 C   0  0  0  0  0  0  0  0  0  0  0  0
  153.7102  141.9925  161.5349 C   0  0  0  0  0  0  0  0  0  0  0  0
  153.5358  141.8303  160.0127 C   0  0  1  0  0  0  0  0  0  0  0  0
  152.4766  140.8640  159.7358 N   0  0  0  0  0  0  0  0  0  0  0  0
  152.6041  139.7427  159.0089 C   0  0  0  0  0  0  0  0  0  0  0  0
  153.6786  139.3418  158.5636 O   0  0  0  0  0  0  0  0  0  0  0  0
  151.3191  138.9588  158.7308 C   0  0  0  0  0  0  0  0  0  0  0  0
  151.5723  137.8131  157.8738 N   0  0  0  0  0  0  0  0  0  0  0  0
  152.0107  137.7405  156.6153 C   0  0  0  0  0  0  0  0  0  0  0  0
  152.1346  136.4856  156.2118 N   0  0  0  0  0  0  0  0  0  0  0  0
  151.7341  135.7581  157.3201 N   0  0  0  0  0  0  0  0  0  0  0  0
  151.3983  136.5402  158.3091 N   0  0  0  0  0  0  0  0  0  0  0  0
  153.2331  143.1943  159.3524 C   0  0  0  0  0  0  0  0  0  0  0  0
  152.5814  145.9366  159.4414 H   0  0  0  0  0  0  0  0  0  0  0  0
  150.8594  145.7313  159.7526 H   0  0  0  0  0  0  0  0  0  0  0  0
  151.5580  145.1342  158.2525 H   0  0  0  0  0  0  0  0  0  0  0  0
  151.1363  143.2757  159.8281 H   0  0  0  0  0  0  0  0  0  0  0  0
  153.0498  144.7355  161.7017 H   0  0  0  0  0  0  0  0  0  0  0  0
  151.3378  144.5055  161.9605 H   0  0  0  0  0  0  0  0  0  0  0  0
  152.6959  142.8515  163.2458 H   0  0  0  0  0  0  0  0  0  0  0  0
  151.6225  142.0660  162.1166 H   0  0  0  0  0  0  0  0  0  0  0  0
  154.6127  142.5727  161.7315 H   0  0  0  0  0  0  0  0  0  0  0  0
  153.8675  141.0200  162.0030 H   0  0  0  0  0  0  0  0  0  0  0  0
  154.4688  141.4385  159.6037 H   0  0  0  0  0  0  0  0  0  0  0  0
  151.5549  141.1046  160.0698 H   0  0  0  0  0  0  0  0  0  0  0  0
  150.8770  138.6125  159.6662 H   0  0  0  0  0  0  0  0  0  0  0  0
  150.5900  139.6098  158.2473 H   0  0  0  0  0  0  0  0  0  0  0  0
  152.2472  138.5994  156.0047 H   0  0  0  0  0  0  0  0  0  0  0  0
  153.0732  143.0678  158.2808 H   0  0  0  0  0  0  0  0  0  0  0  0
  154.1106  143.8354  159.4480 H   0  0  0  0  0  0  0  0  0  0  0  0
  1  2  1  0  0  0  0
  1 17  1  0  0  0  0
  1 18  1  0  0  0  0
  1 19  1  0  0  0  0
  2 16  1  0  0  0  0
  2  3  1  0  0  0  0
  2 20  1  0  0  0  0
  3  4  1  0  0  0  0
  3 21  1  0  0  0  0
  3 22  1  0  0  0  0
  4  5  1  0  0  0  0
  4 23  1  0  0  0  0
  4 24  1  0  0  0  0
  5  6  1  0  0  0  0
  5 25  1  0  0  0  0
  5 26  1  0  0  0  0
  6  7  1  0  0  0  0
  6 16  1  0  0  0  0
  6 27  1  0  0  0  0
  7  8  1  0  0  0  0
  7 28  1  0  0  0  0
  8  9  2  0  0  0  0
  8 10  1  0  0  0  0
 10 11  1  0  0  0  0
 10 29  1  0  0  0  0
 10 30  1  0  0  0  0
 11 15  1  0  0  0  0
 11 12  1  0  0  0  0
 12 13  2  0  0  0  0
 12 31  1  0  0  0  0
 13 14  1  0  0  0  0
 14 15  2  0  0  0  0
 16 32  1  0  0  0  0
 16 33  1  0  0  0  0
M  END
> <s_m_source_file>
AV-unprocessed.smi

> <i_m_source_file_index>
1258

> <i_lp_mmshare_version>
43012

> <i_f3d_flags>
0

> <s_epik_input>
W0NIM11bQ0BASF0xW0NIMl1bQ0gyXVtDSDJdW0NASF0oW0NIMl0xKVtOSF1DKD1PKVtDSDJdbjJbY0hdbm5uMg==

> <s_epik_cmdline>
J2VwaWtfcHl0aG9uJywgJy1waCcsICc3LjAnLCAnLXRuJywgJzgnLCAnLW1hJywgJzIwMCcsICctbWV0YWxfYmluZGluZycsICctaW1hZScsICc8aW5maWxlLm1hZT4nLCAnLW9tYWUnLCAnPG91dGZpbGUubWFlPic=

> <r_lp_tautomer_probability>
1

> <r_epik_Ionization_Penalty>
5.03816e-07

> <r_epik_Ionization_Penalty_Charging>
0

> <r_epik_Ionization_Penalty_Neutral>
5.03816e-07

> <r_epik_State_Penalty>
-0

> <r_epik_Charging_Adjusted_Penalty>
0

> <i_epik_Tot_Q>
0

> <i_epik_Tot_abs_Q>
0

> <r_epik_Metal_State_Penalty>
-0

> <b_epik_Metal_Only>
0

> <s_lp_Force_Field>
OPLS_2005

> <r_lp_Energy>
9.71314

> <b_lp_Chiralities_Consistent>
1

> <s_lp_Variant>
AV-unprocessed.smi:1258-1

> <Gold.Version>
5.8.1

> <Gold.Id.Protein>
6NUR|6NUR_protein|mol2

> <Gold.PLP.Fitness>
45.1907

> <Gold.PLP.PLP>
-37.4065

> <Gold.PLP.part.hbond>
-4.0000

> <Gold.PLP.part.metal>
0.0000

> <Gold.PLP.part.buried>
-5.2122

> <Gold.PLP.part.nonpolar>
-28.8022

> <Gold.PLP.part.repulsive>
0.1390

> <Gold.PLP.ligand.clash>
0.0000

> <Gold.PLP.ligand.torsion>
0.0462

> <Gold.PLP.Chemscore.Hbond>
2.6232

> <Gold.PLP.Chemscore.CHOScore>
0.0000

> <Gold.PLP.Chemscore.Metal>
0.0000

> <Gold.Chemscore.Hbonds>
donor molecule, donor type, donor heavy atom, donor atom, acceptor molecule, acceptor atom, score
      P1  H  6896  6908       L1    15  0.51
      P1  H  7997  8008       L1     9  1.00
      P1  H 10752 10763       L1    13  1.00

> <Gold.PLP.Chemscore.Internal.Correction>
0.0070

> <Gold.Rescore>
     Score         DG    S(hbond)    S(metal)    S(lipo)     H(rot)  DE(clash)    DE(int)     intcor
     18.08     -18.21       2.26        0.00      86.33       1.92       0.00       0.13       ----

> <Gold.Chemscore.Fitness>
18.0761

> <Gold.Chemscore.DG>
-18.2070

> <Gold.Chemscore.ZeroCoef>
-5.4800

> <Gold.Chemscore.Hbond>
2.2555

> <Gold.Chemscore.Metal>
0.0000

> <Gold.Chemscore.Lipo>
86.3322

> <Gold.Chemscore.Internal_Hbond>
0.0000

> <Gold.Chemscore.DEClash>
0.0000

> <Gold.Chemscore.DEInternal>
0.1309

> <Gold.Chemscore.Rot>
1.9169

> <Gold.Chemscore.Internal.Correction>
   9.000000E+99

> <Gold.Chemscore.Hbonds>
donor molecule, donor type, donor heavy atom, donor atom, acceptor molecule, acceptor atom, score
      P1  H  6896  6908       L1    15  0.13
      P1  H  7997  8008       L1     9  0.96
      P1  H 10752 10763       L1    13  0.74

> <Gold.Chemscore.Hbond.Weighted>
-7.5334

> <Gold.Chemscore.Metal.Weighted>
-0.0000

> <Gold.Chemscore.Lipo.Weighted>
-10.1009

> <Gold.Chemscore.Internal_Hbond.Weighted>
0.0000

> <Gold.Chemscore.DEClash.Weighted>
0.0000

> <Gold.Chemscore.DEInternal.Weighted>
0.1309

> <Gold.Chemscore.Rot.Weighted>
4.9073

> <Gold.Chemscore.Internal.Correction.Weighted>
   9.000000E+99

> <Gold.Protein.RotatedTorsions>
[ 6907 6896 6895 6894 ] final -137.00 input  -60.11 | X-H torsion
[ 7974 7965 7964 7962 ] final    0.39 input  175.53 | X-H torsion
[ 8008 7997 7996 7995 ] final -115.97 input   59.86 | X-H torsion
[ 10167 10162 10161 10158 ] final   73.02 input  -65.29 | X-H torsion
[ 10718 10713 10712 10709 ] final -160.07 input   66.30 | X-H torsion
[ 10763 10752 10751 10750 ] final   97.66 input  -60.55 | X-H torsion
[ 11005 11000 10999 10996 ] final   54.41 input  -57.11 | X-H torsion

> <Gold.Protein.ActiveResidues>
 VAL166  LYS551  ARG553  GLY616  TRP617  ASP618  TYR619  PRO620  LYS621  CYS622 
 ASP623  PHE694  ASN695  SER759  ASP760  ASP761  ALA762  ILE779  LEU786  VAL792 
 PHE793  MET794  SER795  GLU796  ALA797  LYS798  CYS799  TRP800  GLU811  SER814 

> <Gold.Protein.RotatedAtoms>
  151.0170  133.5911  159.2675 H   0  0  0  0  0  0  0  0  0  0  0  0  # atno 6907 bound_to 6896
  151.3042  135.0776  159.9259 H   0  0  0  0  0  0  0  0  0  0  0  0  # atno 6908 bound_to 6896
  152.5314  133.9847  159.7877 H   0  0  0  0  0  0  0  0  0  0  0  0  # atno 6909 bound_to 6896
  146.2434  140.1145  142.8342 H   0  0  0  0  0  0  0  0  0  0  0  0  # atno 7974 bound_to 7965
  155.0604  140.0393  157.2574 H   0  0  0  0  0  0  0  0  0  0  0  0  # atno 8008 bound_to 7997
  154.7064  140.2684  155.6646 H   0  0  0  0  0  0  0  0  0  0  0  0  # atno 8009 bound_to 7997
  156.2776  140.2730  156.1692 H   0  0  0  0  0  0  0  0  0  0  0  0  # atno 8010 bound_to 7997
  140.0290  144.5481  150.7522 H   0  0  0  0  0  0  0  0  0  0  0  0  # atno 10167 bound_to 10162
  156.5770  130.8713  151.2854 H   0  0  0  0  0  0  0  0  0  0  0  0  # atno 10718 bound_to 10713
  153.2796  135.4175  155.1066 H   0  0  0  0  0  0  0  0  0  0  0  0  # atno 10763 bound_to 10752
  154.8485  135.3492  154.6130 H   0  0  0  0  0  0  0  0  0  0  0  0  # atno 10764 bound_to 10752
  153.6551  135.7051  153.5253 H   0  0  0  0  0  0  0  0  0  0  0  0  # atno 10765 bound_to 10752
  140.0688  134.5498  155.9069 H   0  0  0  0  0  0  0  0  0  0  0  0  # atno 11005 bound_to 11000
  145.0458  140.8980  143.5025 LP  0  0  0  0  0  0  0  0  0  0  0  0  # atno 17320 bound_to 7965
  145.1234  139.2678  143.5576 LP  0  0  0  0  0  0  0  0  0  0  0  0  # atno 17321 bound_to 7965
  140.7310  143.2690  151.3951 LP  0  0  0  0  0  0  0  0  0  0  0  0  # atno 17342 bound_to 10162
  139.6089  144.1140  152.2278 LP  0  0  0  0  0  0  0  0  0  0  0  0  # atno 17343 bound_to 10162
  157.7335  130.9732  150.1982 LP  0  0  0  0  0  0  0  0  0  0  0  0  # atno 17370 bound_to 10713
  156.2665  130.3717  149.8076 LP  0  0  0  0  0  0  0  0  0  0  0  0  # atno 17371 bound_to 10713
  141.2003  133.6612  156.5892 LP  0  0  0  0  0  0  0  0  0  0  0  0  # atno 17394 bound_to 11000
  140.3658  134.7648  157.4565 LP  0  0  0  0  0  0  0  0  0  0  0  0  # atno 17395 bound_to 11000

$$$$
