AV-unprocessed.smi:2671|AV-procd|sdf|10351|dock1
  -GOLD-   2272014373D 1   1.00000     0.00000
 Structure written by MMmdl.
 29 30  0  0  0  0  0  0  0  0  1 V2000
  153.1564  136.4554  159.4074 O   0  0  0  0  0  0  0  0  0  0  0  0
  153.6737  137.2540  160.1855 C   0  0  0  0  0  0  0  0  0  0  0  0
  154.1762  136.8164  161.4936 C   0  0  0  0  0  0  0  0  0  0  0  0
  154.7388  137.7141  162.3274 C   0  0  0  0  0  0  0  0  0  0  0  0
  155.2862  137.3449  163.6969 C   0  0  0  0  0  0  0  0  0  0  0  0
  155.8069  138.4197  164.2878 F   0  0  0  0  0  0  0  0  0  0  0  0
  154.3085  136.8779  164.4727 F   0  0  0  0  0  0  0  0  0  0  0  0
  156.2366  136.4115  163.6147 F   0  0  0  0  0  0  0  0  0  0  0  0
  154.8458  139.0439  161.9538 N   0  0  0  0  0  0  0  0  0  0  0  0
  154.3619  139.4332  160.7110 C   0  0  0  0  0  0  0  0  0  0  0  0
  154.6224  141.2156  160.4747 S   0  0  0  0  0  0  0  0  0  0  0  0
  152.9837  141.8829  160.8854 C   0  0  0  0  0  0  0  0  0  0  0  0
  152.9085  143.3975  160.6498 C   0  0  1  0  0  0  0  0  0  0  0  0
  152.8836  143.8150  159.1784 C   0  0  0  0  0  0  0  0  0  0  0  0
  152.1239  145.1339  159.1869 C   0  0  0  0  0  0  0  0  0  0  0  0
  151.5318  145.2185  160.5961 C   0  0  0  0  0  0  0  0  0  0  0  0
  151.6784  143.9121  161.1332 O   0  0  0  0  0  0  0  0  0  0  0  0
  153.8075  138.6143  159.8630 N   0  0  0  0  0  0  0  0  0  0  0  0
  155.2748  139.6859  162.6051 H   0  0  0  0  0  0  0  0  0  0  0  0
  154.0946  135.7790  161.7843 H   0  0  0  0  0  0  0  0  0  0  0  0
  152.7750  141.6655  161.9332 H   0  0  0  0  0  0  0  0  0  0  0  0
  152.2244  141.3691  160.2947 H   0  0  0  0  0  0  0  0  0  0  0  0
  153.7242  143.9028  161.1706 H   0  0  0  0  0  0  0  0  0  0  0  0
  153.8840  143.9060  158.7541 H   0  0  0  0  0  0  0  0  0  0  0  0
  152.3339  143.0831  158.5849 H   0  0  0  0  0  0  0  0  0  0  0  0
  152.7804  145.9819  158.9897 H   0  0  0  0  0  0  0  0  0  0  0  0
  151.3423  145.1303  158.4264 H   0  0  0  0  0  0  0  0  0  0  0  0
  152.0981  145.9220  161.2081 H   0  0  0  0  0  0  0  0  0  0  0  0
  150.4876  145.5316  160.5957 H   0  0  0  0  0  0  0  0  0  0  0  0
  1  2  2  0  0  0  0
  2 18  1  0  0  0  0
  2  3  1  0  0  0  0
  3 20  1  0  0  0  0
  3  4  2  0  0  0  0
  4  5  1  0  0  0  0
  4  9  1  0  0  0  0
  5  6  1  0  0  0  0
  5  7  1  0  0  0  0
  5  8  1  0  0  0  0
  9 10  1  0  0  0  0
  9 19  1  0  0  0  0
 10 11  1  0  0  0  0
 10 18  2  0  0  0  0
 11 12  1  0  0  0  0
 12 13  1  0  0  0  0
 12 21  1  0  0  0  0
 12 22  1  0  0  0  0
 13 17  1  0  0  0  0
 13 14  1  0  0  0  0
 13 23  1  0  0  0  0
 14 15  1  0  0  0  0
 14 24  1  0  0  0  0
 14 25  1  0  0  0  0
 15 16  1  0  0  0  0
 15 26  1  0  0  0  0
 15 27  1  0  0  0  0
 16 17  1  0  0  0  0
 16 28  1  0  0  0  0
 16 29  1  0  0  0  0
M  END
> <s_m_source_file>
AV-unprocessed.smi

> <i_m_source_file_index>
2671

> <i_lp_mmshare_version>
43012

> <i_f3d_flags>
0

> <s_epik_input>
W09IXWMxW2NIXWMoQyhGKShGKUYpbmMobjEpU1tDSDJdW0NAQEhdMltDSDJdW0NIMl1bQ0gyXU8y

> <s_epik_cmdline>
J2VwaWtfcHl0aG9uJywgJy1waCcsICc3LjAnLCAnLXRuJywgJzgnLCAnLW1hJywgJzIwMCcsICctbWV0YWxfYmluZGluZycsICctaW1hZScsICc8aW5maWxlLm1hZT4nLCAnLW9tYWUnLCAnPG91dGZpbGUubWFlPic=

> <r_lp_tautomer_probability>
0.273662

> <r_epik_Ionization_Penalty>
1.33793

> <r_epik_Ionization_Penalty_Charging>
1.33793

> <r_epik_Ionization_Penalty_Neutral>
8.2996e-08

> <r_epik_State_Penalty>
1.59174

> <r_epik_Charging_Adjusted_Penalty>
2.92967

> <i_epik_Tot_Q>
0

> <i_epik_Tot_abs_Q>
0

> <r_epik_Metal_State_Penalty>
2.31522

> <b_epik_Metal_Only>
0

> <s_lp_Force_Field>
OPLS_2005

> <r_lp_Energy>
25.3569

> <b_lp_Chiralities_Consistent>
1

> <s_lp_Variant>
AV-unprocessed.smi:2671-6

> <Gold.Version>
5.8.1

> <Gold.Id.Protein>
6NUR|6NUR_protein|mol2

> <Gold.PLP.Fitness>
45.9850

> <Gold.PLP.PLP>
-43.6749

> <Gold.PLP.part.hbond>
-1.0000

> <Gold.PLP.part.metal>
0.0000

> <Gold.PLP.part.buried>
-5.3141

> <Gold.PLP.part.nonpolar>
-38.0549

> <Gold.PLP.part.repulsive>
0.1189

> <Gold.PLP.ligand.clash>
0.0000

> <Gold.PLP.ligand.torsion>
0.3596

> <Gold.PLP.Chemscore.Hbond>
1.0000

> <Gold.PLP.Chemscore.CHOScore>
0.0000

> <Gold.PLP.Chemscore.Metal>
0.0000

> <Gold.Chemscore.Hbonds>
donor molecule, donor type, donor heavy atom, donor atom, acceptor molecule, acceptor atom, score
      P1  H  6896  6909       L1     1  1.00

> <Gold.PLP.Chemscore.Internal.Correction>
0.0293

> <Gold.Rescore>
     Score         DG    S(hbond)    S(metal)    S(lipo)     H(rot)  DE(clash)    DE(int)     intcor
     14.86     -15.28       1.00        0.00      92.28       1.69       0.02       0.40       ----

> <Gold.Chemscore.Fitness>
14.8634

> <Gold.Chemscore.DG>
-15.2823

> <Gold.Chemscore.ZeroCoef>
-5.4800

> <Gold.Chemscore.Hbond>
0.9994

> <Gold.Chemscore.Metal>
0.0000

> <Gold.Chemscore.Lipo>
92.2789

> <Gold.Chemscore.Internal_Hbond>
0.0000

> <Gold.Chemscore.DEClash>
0.0179

> <Gold.Chemscore.DEInternal>
0.4011

> <Gold.Chemscore.Rot>
1.6924

> <Gold.Chemscore.Internal.Correction>
   9.000000E+99

> <Gold.Chemscore.Hbonds>
donor molecule, donor type, donor heavy atom, donor atom, acceptor molecule, acceptor atom, score
      P1  H  6896  6909       L1     1  0.95

> <Gold.Chemscore.Hbond.Weighted>
-3.3381

> <Gold.Chemscore.Metal.Weighted>
-0.0000

> <Gold.Chemscore.Lipo.Weighted>
-10.7966

> <Gold.Chemscore.Internal_Hbond.Weighted>
0.0000

> <Gold.Chemscore.DEClash.Weighted>
0.0179

> <Gold.Chemscore.DEInternal.Weighted>
0.4011

> <Gold.Chemscore.Rot.Weighted>
4.3324

> <Gold.Chemscore.Internal.Correction.Weighted>
   9.000000E+99

> <Gold.Protein.RotatedTorsions>
[ 6907 6896 6895 6894 ] final  164.63 input  -60.11 | X-H torsion
[ 7974 7965 7964 7962 ] final    1.96 input  175.53 | X-H torsion
[ 8008 7997 7996 7995 ] final    3.74 input   59.86 | X-H torsion
[ 10167 10162 10161 10158 ] final -141.65 input  -65.29 | X-H torsion
[ 10718 10713 10712 10709 ] final   96.97 input   66.30 | X-H torsion
[ 10763 10752 10751 10750 ] final   94.23 input  -60.55 | X-H torsion
[ 11005 11000 10999 10996 ] final   84.91 input  -57.11 | X-H torsion

> <Gold.Protein.ActiveResidues>
 VAL166  LYS551  ARG553  GLY616  TRP617  ASP618  TYR619  PRO620  LYS621  CYS622 
 ASP623  PHE694  ASN695  SER759  ASP760  ASP761  ALA762  ILE779  LEU786  VAL792 
 PHE793  MET794  SER795  GLU796  ALA797  LYS798  CYS799  TRP800  GLU811  SER814 

> <Gold.Protein.RotatedAtoms>
  151.9069  133.3551  159.3849 H   0  0  0  0  0  0  0  0  0  0  0  0  # atno 6907 bound_to 6896
  150.7067  134.4772  159.5462 H   0  0  0  0  0  0  0  0  0  0  0  0  # atno 6908 bound_to 6896
  152.2371  134.8266  160.0516 H   0  0  0  0  0  0  0  0  0  0  0  0  # atno 6909 bound_to 6896
  146.2442  140.0909  142.8352 H   0  0  0  0  0  0  0  0  0  0  0  0  # atno 7974 bound_to 7965
  154.7073  140.2685  155.6662 H   0  0  0  0  0  0  0  0  0  0  0  0  # atno 8008 bound_to 7997
  156.2784  140.2760  156.1627 H   0  0  0  0  0  0  0  0  0  0  0  0  # atno 8009 bound_to 7997
  155.0682  140.0372  157.2590 H   0  0  0  0  0  0  0  0  0  0  0  0  # atno 8010 bound_to 7997
  139.8164  143.7633  152.2665 H   0  0  0  0  0  0  0  0  0  0  0  0  # atno 10167 bound_to 10162
  157.6919  131.0595  150.4572 H   0  0  0  0  0  0  0  0  0  0  0  0  # atno 10718 bound_to 10713
  153.2393  135.4297  155.0681 H   0  0  0  0  0  0  0  0  0  0  0  0  # atno 10763 bound_to 10752
  154.8333  135.3399  154.6672 H   0  0  0  0  0  0  0  0  0  0  0  0  # atno 10764 bound_to 10752
  153.7096  135.7023  153.5097 H   0  0  0  0  0  0  0  0  0  0  0  0  # atno 10765 bound_to 10752
  139.8986  134.8249  156.2509 H   0  0  0  0  0  0  0  0  0  0  0  0  # atno 11005 bound_to 11000
  145.0651  140.9116  143.4915 LP  0  0  0  0  0  0  0  0  0  0  0  0  # atno 17320 bound_to 7965
  145.1032  139.2808  143.5675 LP  0  0  0  0  0  0  0  0  0  0  0  0  # atno 17321 bound_to 7965
  139.7797  144.7448  151.0105 LP  0  0  0  0  0  0  0  0  0  0  0  0  # atno 17342 bound_to 10162
  140.7815  143.4555  151.0352 LP  0  0  0  0  0  0  0  0  0  0  0  0  # atno 17343 bound_to 10162
  156.4919  130.4097  149.6401 LP  0  0  0  0  0  0  0  0  0  0  0  0  # atno 17370 bound_to 10713
  156.3409  130.7381  151.2326 LP  0  0  0  0  0  0  0  0  0  0  0  0  # atno 17371 bound_to 10713
  141.0224  133.7034  156.1291 LP  0  0  0  0  0  0  0  0  0  0  0  0  # atno 17394 bound_to 11000
  140.7214  134.4354  157.5574 LP  0  0  0  0  0  0  0  0  0  0  0  0  # atno 17395 bound_to 11000

$$$$
