AV-unprocessed.smi:158|AV-procd|sdf|1325|dock6
  -GOLD-   2262019 23D 1   1.00000     0.00000
 Structure written by MMmdl.
 31 33  0  0  0  0  0  0  0  0  1 V2000
  147.3798  138.1605  152.6783 N   0  0  0  0  0  0  0  0  0  0  0  0
  147.7387  139.2462  153.3773 C   0  0  0  0  0  0  0  0  0  0  0  0
  146.9551  140.3470  153.3046 N   0  0  0  0  0  0  0  0  0  0  0  0
  147.2784  141.4527  153.9865 C   0  0  0  0  0  0  0  0  0  0  0  0
  146.2108  142.7961  153.8214 Cl  0  0  0  0  0  0  0  0  0  0  0  0
  148.3373  141.6335  154.7824 N   0  0  0  0  0  0  0  0  0  0  0  0
  149.1303  140.5252  154.8589 C   0  0  0  0  0  0  0  0  0  0  0  0
  148.8995  139.2952  154.1871 C   0  0  0  0  0  0  0  0  0  0  0  0
  149.9076  138.3911  154.4931 N   0  0  0  0  0  0  0  0  0  0  0  0
  150.6901  139.0561  155.3007 C   0  0  0  0  0  0  0  0  0  0  0  0
  150.2984  140.3485  155.5735 N   0  0  0  0  0  0  0  0  0  0  0  0
  150.9872  141.3435  156.4536 C   0  0  2  0  0  0  0  0  0  0  0  0
  152.0177  140.7088  157.1504 O   0  0  0  0  0  0  0  0  0  0  0  0
  151.8865  140.9422  158.5513 C   0  0  1  0  0  0  0  0  0  0  0  0
  153.2670  141.0542  159.2207 C   0  0  0  0  0  0  0  0  0  0  0  0
  154.0104  139.8717  159.0151 O   0  0  0  0  0  0  0  0  0  0  0  0
  150.9511  142.1554  158.6771 C   0  0  1  0  0  0  0  0  0  0  0  0
  151.6410  143.3890  158.6001 O   0  0  0  0  0  0  0  0  0  0  0  0
  150.0372  141.9763  157.4814 C   0  0  2  0  0  0  0  0  0  0  0  0
  149.0429  141.1418  157.7947 F   0  0  0  0  0  0  0  0  0  0  0  0
  151.4181  142.0761  155.7701 H   0  0  0  0  0  0  0  0  0  0  0  0
  151.3689  140.0719  158.9584 H   0  0  0  0  0  0  0  0  0  0  0  0
  150.3980  142.1399  159.6171 H   0  0  0  0  0  0  0  0  0  0  0  0
  149.5941  142.8987  157.1044 H   0  0  0  0  0  0  0  0  0  0  0  0
  147.9494  137.3273  152.7165 H   0  0  0  0  0  0  0  0  0  0  0  0
  146.5438  138.1782  152.1125 H   0  0  0  0  0  0  0  0  0  0  0  0
  151.5836  138.6186  155.7219 H   0  0  0  0  0  0  0  0  0  0  0  0
  153.8212  141.8866  158.7870 H   0  0  0  0  0  0  0  0  0  0  0  0
  153.1798  141.2539  160.2889 H   0  0  0  0  0  0  0  0  0  0  0  0
  153.5741  139.1614  159.4607 H   0  0  0  0  0  0  0  0  0  0  0  0
  151.0024  144.0814  158.5177 H   0  0  0  0  0  0  0  0  0  0  0  0
  1  2  1  0  0  0  0
  1 25  1  0  0  0  0
  1 26  1  0  0  0  0
  2  8  1  0  0  0  0
  2  3  2  0  0  0  0
  3  4  1  0  0  0  0
  4  5  1  0  0  0  0
  4  6  2  0  0  0  0
  6  7  1  0  0  0  0
  7 11  1  0  0  0  0
  7  8  2  0  0  0  0
  8  9  1  0  0  0  0
  9 10  2  0  0  0  0
 10 11  1  0  0  0  0
 10 27  1  0  0  0  0
 11 12  1  0  0  0  0
 12 21  1  0  0  0  0
 12 19  1  0  0  0  0
 12 13  1  0  0  0  0
 13 14  1  0  0  0  0
 14 22  1  0  0  0  0
 14 15  1  0  0  0  0
 14 17  1  0  0  0  0
 15 16  1  0  0  0  0
 15 28  1  0  0  0  0
 15 29  1  0  0  0  0
 16 30  1  0  0  0  0
 17 23  1  0  0  0  0
 17 18  1  0  0  0  0
 17 19  1  0  0  0  0
 18 31  1  0  0  0  0
 19 24  1  0  0  0  0
 19 20  1  0  0  0  0
M  END
> <s_m_source_file>
AV-unprocessed.smi

> <i_m_source_file_index>
158

> <i_lp_mmshare_version>
43012

> <i_f3d_flags>
0

> <s_epik_input>
Q2xjKG4xKW5jKFtOSDJdKWMoYzEyKW5bY0hdbjJbQ0BASF0zT1tDQEhdKFtDSDJdW09IXSlbQ0BASF0oW09IXSlbQ0BASF0zRg==

> <s_epik_cmdline>
J2VwaWtfcHl0aG9uJywgJy1waCcsICc3LjAnLCAnLXRuJywgJzgnLCAnLW1hJywgJzIwMCcsICctbWV0YWxfYmluZGluZycsICctaW1hZScsICc8aW5maWxlLm1hZT4nLCAnLW9tYWUnLCAnPG91dGZpbGUubWFlPic=

> <r_lp_tautomer_probability>
1

> <r_epik_Ionization_Penalty>
6.51543e-05

> <r_epik_Ionization_Penalty_Charging>
0

> <r_epik_Ionization_Penalty_Neutral>
6.51543e-05

> <r_epik_State_Penalty>
-0

> <r_epik_Charging_Adjusted_Penalty>
0

> <i_epik_Tot_Q>
0

> <i_epik_Tot_abs_Q>
0

> <r_epik_Metal_State_Penalty>
-0

> <b_epik_Metal_Only>
0

> <s_epik_Chemistry_Notes>
This compound contains an acetal/aminal-like group ( X-CH(R)-Y where X, Y are N, S, or O) that may be acid/base labile, releasing an aldehyde.

> <s_lp_Force_Field>
OPLS_2005

> <r_lp_Energy>
35.164

> <b_lp_Chiralities_Consistent>
1

> <s_lp_Variant>
AV-unprocessed.smi:158-3

> <Gold.Version>
5.8.1

> <Gold.Id.Protein>
6NUR|6NUR_protein|mol2

> <Gold.PLP.Fitness>
38.1872

> <Gold.PLP.PLP>
-32.4975

> <Gold.PLP.part.hbond>
-3.0033

> <Gold.PLP.part.metal>
0.0000

> <Gold.PLP.part.buried>
-1.9870

> <Gold.PLP.part.nonpolar>
-27.6917

> <Gold.PLP.part.repulsive>
0.9416

> <Gold.PLP.ligand.clash>
0.0000

> <Gold.PLP.ligand.torsion>
0.1554

> <Gold.PLP.Chemscore.Hbond>
2.0000

> <Gold.PLP.Chemscore.CHOScore>
0.0000

> <Gold.PLP.Chemscore.Metal>
0.0000

> <Gold.Chemscore.Hbonds>
donor molecule, donor type, donor heavy atom, donor atom, acceptor molecule, acceptor atom, score
      L1  H     1    25       P1  7948  0.93
      P1  H  7997  8010       L1    16  1.00

> <Gold.PLP.Chemscore.Internal.Correction>
0.0004

> <Gold.Rescore>
     Score         DG    S(hbond)    S(metal)    S(lipo)     H(rot)  DE(clash)    DE(int)     intcor
      7.21      -8.43       1.89        0.00      39.49       3.12       0.08       1.13       ----

> <Gold.Chemscore.Fitness>
7.2139

> <Gold.Chemscore.DG>
-8.4261

> <Gold.Chemscore.ZeroCoef>
-5.4800

> <Gold.Chemscore.Hbond>
1.8926

> <Gold.Chemscore.Metal>
0.0000

> <Gold.Chemscore.Lipo>
39.4859

> <Gold.Chemscore.Internal_Hbond>
0.0000

> <Gold.Chemscore.DEClash>
0.0818

> <Gold.Chemscore.DEInternal>
1.1304

> <Gold.Chemscore.Rot>
3.1230

> <Gold.Chemscore.Internal.Correction>
   9.000000E+99

> <Gold.Chemscore.Hbonds>
donor molecule, donor type, donor heavy atom, donor atom, acceptor molecule, acceptor atom, score
      L1  H     1    25       P1  7948  0.90
      P1  H  7997  8010       L1    16  0.58

> <Gold.Chemscore.Hbond.Weighted>
-6.3212

> <Gold.Chemscore.Metal.Weighted>
-0.0000

> <Gold.Chemscore.Lipo.Weighted>
-4.6199

> <Gold.Chemscore.Internal_Hbond.Weighted>
0.0000

> <Gold.Chemscore.DEClash.Weighted>
0.0818

> <Gold.Chemscore.DEInternal.Weighted>
1.1304

> <Gold.Chemscore.Rot.Weighted>
7.9950

> <Gold.Chemscore.Internal.Correction.Weighted>
   9.000000E+99

> <Gold.Protein.RotatedTorsions>
[ 6907 6896 6895 6894 ] final   88.93 input  -60.11 | X-H torsion
[ 7974 7965 7964 7962 ] final  118.05 input  175.53 | X-H torsion
[ 8008 7997 7996 7995 ] final   14.50 input   59.86 | X-H torsion
[ 10167 10162 10161 10158 ] final  -74.16 input  -65.29 | X-H torsion
[ 10718 10713 10712 10709 ] final -121.73 input   66.30 | X-H torsion
[ 10763 10752 10751 10750 ] final -170.01 input  -60.55 | X-H torsion
[ 11005 11000 10999 10996 ] final   33.95 input  -57.11 | X-H torsion

> <Gold.Protein.ActiveResidues>
 VAL166  LYS551  ARG553  GLY616  TRP617  ASP618  TYR619  PRO620  LYS621  CYS622 
 ASP623  PHE694  ASN695  SER759  ASP760  ASP761  ALA762  ILE779  LEU786  VAL792 
 PHE793  MET794  SER795  GLU796  ALA797  LYS798  CYS799  TRP800  GLU811  SER814 

> <Gold.Protein.RotatedAtoms>
  152.5431  134.2046  159.8725 H   0  0  0  0  0  0  0  0  0  0  0  0  # atno 6907 bound_to 6896
  151.2032  133.4592  159.2604 H   0  0  0  0  0  0  0  0  0  0  0  0  # atno 6908 bound_to 6896
  151.0969  134.9961  159.8485 H   0  0  0  0  0  0  0  0  0  0  0  0  # atno 6909 bound_to 6896
  145.1599  139.3161  143.4522 H   0  0  0  0  0  0  0  0  0  0  0  0  # atno 7974 bound_to 7965
  154.8494  140.2927  155.5608 H   0  0  0  0  0  0  0  0  0  0  0  0  # atno 8008 bound_to 7997
  156.3016  140.2499  156.3382 H   0  0  0  0  0  0  0  0  0  0  0  0  # atno 8009 bound_to 7997
  154.9038  140.0390  157.1897 H   0  0  0  0  0  0  0  0  0  0  0  0  # atno 8010 bound_to 7997
  140.5050  143.2354  151.7689 H   0  0  0  0  0  0  0  0  0  0  0  0  # atno 10167 bound_to 10162
  156.1361  130.6431  150.9698 H   0  0  0  0  0  0  0  0  0  0  0  0  # atno 10718 bound_to 10713
  154.6461  135.2905  155.0044 H   0  0  0  0  0  0  0  0  0  0  0  0  # atno 10763 bound_to 10752
  154.1153  135.6556  153.4896 H   0  0  0  0  0  0  0  0  0  0  0  0  # atno 10764 bound_to 10752
  153.0352  135.5275  154.7349 H   0  0  0  0  0  0  0  0  0  0  0  0  # atno 10765 bound_to 10752
  140.2579  134.3227  155.7867 H   0  0  0  0  0  0  0  0  0  0  0  0  # atno 11005 bound_to 11000
  146.3484  140.1705  142.8589 LP  0  0  0  0  0  0  0  0  0  0  0  0  # atno 17320 bound_to 7965
  145.0342  140.8895  143.5091 LP  0  0  0  0  0  0  0  0  0  0  0  0  # atno 17321 bound_to 7965
  139.4881  144.4470  151.9698 LP  0  0  0  0  0  0  0  0  0  0  0  0  # atno 17342 bound_to 10162
  140.3560  144.3031  150.5941 LP  0  0  0  0  0  0  0  0  0  0  0  0  # atno 17343 bound_to 10162
  157.6533  131.0893  150.8002 LP  0  0  0  0  0  0  0  0  0  0  0  0  # atno 17370 bound_to 10713
  156.8082  130.4943  149.5359 LP  0  0  0  0  0  0  0  0  0  0  0  0  # atno 17371 bound_to 10713
  141.2194  133.7392  156.9140 LP  0  0  0  0  0  0  0  0  0  0  0  0  # atno 17394 bound_to 11000
  140.1493  134.9240  157.2572 LP  0  0  0  0  0  0  0  0  0  0  0  0  # atno 17395 bound_to 11000

$$$$
