AV-unprocessed.smi:794|AV-procd|sdf|3761|dock7
  -GOLD-   22720 1193D 1   1.00000     0.00000
 Structure written by MMmdl.
 41 43  0  0  0  0  0  0  0  0  1 V2000
  147.3109  136.8345  163.5309 C   0  0  0  0  0  0  0  0  0  0  0  0
  147.4001  136.2741  162.1446 C   0  0  0  0  0  0  0  0  0  0  0  0
  148.0286  137.0155  161.1400 N   0  0  0  0  0  0  0  0  0  0  0  0
  148.0236  136.3813  159.9634 C   0  0  0  0  0  0  0  0  0  0  0  0
  148.5878  136.9023  158.7696 N   0  0  0  0  0  0  0  0  0  0  0  0
  149.7782  137.5062  158.6081 C   0  0  0  0  0  0  0  0  0  0  0  0
  150.6075  137.6960  159.4985 O   0  0  0  0  0  0  0  0  0  0  0  0
  149.9610  137.8870  157.3361 N   0  0  0  0  0  0  0  0  0  0  0  0
  151.1473  138.5789  156.8366 C   0  0  1  0  0  0  0  0  0  0  0  0
  151.2052  138.6638  155.2908 C   0  0  1  0  0  0  0  0  0  0  0  0
  149.8993  139.2438  154.7053 C   0  0  0  0  0  0  0  0  0  0  0  0
  149.9594  140.7188  155.1443 C   0  0  0  0  0  0  0  0  0  0  0  0
  151.2998  140.7949  155.9008 C   0  0  2  0  0  0  0  0  0  0  0  0
  152.1604  139.8329  155.0891 C   0  0  0  0  0  0  0  0  0  0  0  0
  151.1609  140.0701  157.2616 C   0  0  2  0  0  0  0  0  0  0  0  0
  152.2944  140.3929  158.2549 C   0  0  0  0  0  0  0  0  0  0  0  0
  153.4310  139.6007  157.9810 O   0  0  0  0  0  0  0  0  0  0  0  0
  147.2395  134.8117  160.0136 S   0  0  0  0  0  0  0  0  0  0  0  0
  146.9134  135.0624  161.7108 C   0  0  0  0  0  0  0  0  0  0  0  0
  146.1896  134.0325  162.5129 C   0  0  0  0  0  0  0  0  0  0  0  0
  147.6046  136.0942  164.2751 H   0  0  0  0  0  0  0  0  0  0  0  0
  146.2926  137.1491  163.7601 H   0  0  0  0  0  0  0  0  0  0  0  0
  147.9606  137.7011  163.6583 H   0  0  0  0  0  0  0  0  0  0  0  0
  148.0120  136.8167  157.9452 H   0  0  0  0  0  0  0  0  0  0  0  0
  149.2326  137.6878  156.6664 H   0  0  0  0  0  0  0  0  0  0  0  0
  152.0448  138.0773  157.2051 H   0  0  0  0  0  0  0  0  0  0  0  0
  151.5184  137.7337  154.8155 H   0  0  0  0  0  0  0  0  0  0  0  0
  149.9064  139.1742  153.6168 H   0  0  0  0  0  0  0  0  0  0  0  0
  149.0005  138.7365  155.0563 H   0  0  0  0  0  0  0  0  0  0  0  0
  149.9672  141.3765  154.2742 H   0  0  0  0  0  0  0  0  0  0  0  0
  149.1120  141.0036  155.7689 H   0  0  0  0  0  0  0  0  0  0  0  0
  151.6917  141.8098  155.9750 H   0  0  0  0  0  0  0  0  0  0  0  0
  153.1500  139.6616  155.5152 H   0  0  0  0  0  0  0  0  0  0  0  0
  152.2718  140.1275  154.0439 H   0  0  0  0  0  0  0  0  0  0  0  0
  150.2143  140.3473  157.7298 H   0  0  0  0  0  0  0  0  0  0  0  0
  152.5808  141.4415  158.1689 H   0  0  0  0  0  0  0  0  0  0  0  0
  151.9817  140.2289  159.2861 H   0  0  0  0  0  0  0  0  0  0  0  0
  153.1467  138.7156  157.8106 H   0  0  0  0  0  0  0  0  0  0  0  0
  145.3611  134.4809  163.0616 H   0  0  0  0  0  0  0  0  0  0  0  0
  146.8594  133.5657  163.2352 H   0  0  0  0  0  0  0  0  0  0  0  0
  145.7818  133.2480  161.8751 H   0  0  0  0  0  0  0  0  0  0  0  0
  1  2  1  0  0  0  0
  1 21  1  0  0  0  0
  1 22  1  0  0  0  0
  1 23  1  0  0  0  0
  2 19  2  0  0  0  0
  2  3  1  0  0  0  0
  3  4  2  0  0  0  0
  4  5  1  0  0  0  0
  4 18  1  0  0  0  0
  5  6  1  0  0  0  0
  5 24  1  0  0  0  0
  6  7  2  0  0  0  0
  6  8  1  0  0  0  0
  8  9  1  0  0  0  0
  8 25  1  0  0  0  0
  9 15  1  0  0  0  0
  9 10  1  0  0  0  0
  9 26  1  0  0  0  0
 10 14  1  0  0  0  0
 10 11  1  0  0  0  0
 10 27  1  0  0  0  0
 11 12  1  0  0  0  0
 11 28  1  0  0  0  0
 11 29  1  0  0  0  0
 12 13  1  0  0  0  0
 12 30  1  0  0  0  0
 12 31  1  0  0  0  0
 13 14  1  0  0  0  0
 13 15  1  0  0  0  0
 13 32  1  0  0  0  0
 14 33  1  0  0  0  0
 14 34  1  0  0  0  0
 15 16  1  0  0  0  0
 15 35  1  0  0  0  0
 16 17  1  0  0  0  0
 16 36  1  0  0  0  0
 16 37  1  0  0  0  0
 17 38  1  0  0  0  0
 18 19  1  0  0  0  0
 19 20  1  0  0  0  0
 20 39  1  0  0  0  0
 20 40  1  0  0  0  0
 20 41  1  0  0  0  0
M  END
> <s_m_source_file>
AV-unprocessed.smi

> <i_m_source_file_index>
794

> <i_lp_mmshare_version>
43012

> <i_f3d_flags>
0

> <s_epik_input>
W0NIM11jMW5jKHNjMVtDSDNdKVtOSF1DKD1PKVtOSF1bQ0BIXShbQ0BASF0yMylbQ0BIXShbQ0gyXVtPSF0pW0NAQEhdKFtDSDJdMylbQ0gyXVtDSDJdMg==

> <s_epik_cmdline>
J2VwaWtfcHl0aG9uJywgJy1waCcsICc3LjAnLCAnLXRuJywgJzgnLCAnLW1hJywgJzIwMCcsICctbWV0YWxfYmluZGluZycsICctaW1hZScsICc8aW5maWxlLm1hZT4nLCAnLW9tYWUnLCAnPG91dGZpbGUubWFlPic=

> <r_lp_tautomer_probability>
0.999

> <r_epik_Ionization_Penalty>
0.000713029

> <r_epik_Ionization_Penalty_Charging>
0

> <r_epik_Ionization_Penalty_Neutral>
0.000713029

> <r_epik_State_Penalty>
0.000177984

> <r_epik_Charging_Adjusted_Penalty>
0.000177984

> <i_epik_Tot_Q>
0

> <i_epik_Tot_abs_Q>
0

> <r_epik_Metal_State_Penalty>
-0

> <b_epik_Metal_Only>
0

> <s_lp_Force_Field>
OPLS_2005

> <r_lp_Energy>
47.7468

> <b_lp_Chiralities_Consistent>
1

> <s_lp_Variant>
AV-unprocessed.smi:794-6

> <Gold.Version>
5.8.1

> <Gold.Id.Protein>
6NUR|6NUR_protein|mol2

> <Gold.PLP.Fitness>
41.5901

> <Gold.PLP.PLP>
-35.8475

> <Gold.PLP.part.hbond>
-3.7292

> <Gold.PLP.part.metal>
0.0000

> <Gold.PLP.part.buried>
-0.8006

> <Gold.PLP.part.nonpolar>
-31.0205

> <Gold.PLP.part.repulsive>
0.1591

> <Gold.PLP.ligand.clash>
0.0000

> <Gold.PLP.ligand.torsion>
0.7830

> <Gold.PLP.Chemscore.Hbond>
2.4306

> <Gold.PLP.Chemscore.CHOScore>
0.0000

> <Gold.PLP.Chemscore.Metal>
0.0000

> <Gold.Chemscore.Hbonds>
donor molecule, donor type, donor heavy atom, donor atom, acceptor molecule, acceptor atom, score
      P1  H  6931  6943       L1     3  1.00
      P1  H  6934  6947       L1     3  0.45
      P1  H  7997  8009       L1    17  1.00

> <Gold.PLP.Chemscore.Internal.Correction>
0.0169

> <Gold.Rescore>
     Score         DG    S(hbond)    S(metal)    S(lipo)     H(rot)  DE(clash)    DE(int)     intcor
     15.83     -18.36       2.01        0.00      91.52       1.78       1.69       0.83       ----

> <Gold.Chemscore.Fitness>
15.8312

> <Gold.Chemscore.DG>
-18.3573

> <Gold.Chemscore.ZeroCoef>
-5.4800

> <Gold.Chemscore.Hbond>
2.0138

> <Gold.Chemscore.Metal>
0.0000

> <Gold.Chemscore.Lipo>
91.5151

> <Gold.Chemscore.Internal_Hbond>
0.0000

> <Gold.Chemscore.DEClash>
1.6944

> <Gold.Chemscore.DEInternal>
0.8317

> <Gold.Chemscore.Rot>
1.7798

> <Gold.Chemscore.Internal.Correction>
   9.000000E+99

> <Gold.Chemscore.Hbonds>
donor molecule, donor type, donor heavy atom, donor atom, acceptor molecule, acceptor atom, score
      P1  H  6931  6943       L1     3  0.68
      P1  H  6934  6947       L1     3  0.31
      P1  H  7997  8009       L1    17  0.82

> <Gold.Chemscore.Hbond.Weighted>
-6.7262

> <Gold.Chemscore.Metal.Weighted>
-0.0000

> <Gold.Chemscore.Lipo.Weighted>
-10.7073

> <Gold.Chemscore.Internal_Hbond.Weighted>
0.0000

> <Gold.Chemscore.DEClash.Weighted>
1.6944

> <Gold.Chemscore.DEInternal.Weighted>
0.8317

> <Gold.Chemscore.Rot.Weighted>
4.5562

> <Gold.Chemscore.Internal.Correction.Weighted>
   9.000000E+99

> <Gold.Protein.RotatedTorsions>
[ 6907 6896 6895 6894 ] final  -16.68 input  -60.11 | X-H torsion
[ 7974 7965 7964 7962 ] final  163.02 input  175.53 | X-H torsion
[ 8008 7997 7996 7995 ] final  151.68 input   59.86 | X-H torsion
[ 10167 10162 10161 10158 ] final -119.18 input  -65.29 | X-H torsion
[ 10718 10713 10712 10709 ] final   46.95 input   66.30 | X-H torsion
[ 10763 10752 10751 10750 ] final  121.48 input  -60.55 | X-H torsion
[ 11005 11000 10999 10996 ] final  -89.42 input  -57.11 | X-H torsion

> <Gold.Protein.ActiveResidues>
 VAL166  LYS551  ARG553  GLY616  TRP617  ASP618  TYR619  PRO620  LYS621  CYS622 
 ASP623  PHE694  ASN695  SER759  ASP760  ASP761  ALA762  ILE779  LEU786  VAL792 
 PHE793  MET794  SER795  GLU796  ALA797  LYS798  CYS799  TRP800  GLU811  SER814 

> <Gold.Protein.RotatedAtoms>
  151.3049  135.0779  159.9251 H   0  0  0  0  0  0  0  0  0  0  0  0  # atno 6907 bound_to 6896
  152.5290  133.9795  159.7810 H   0  0  0  0  0  0  0  0  0  0  0  0  # atno 6908 bound_to 6896
  151.0088  133.5933  159.2715 H   0  0  0  0  0  0  0  0  0  0  0  0  # atno 6909 bound_to 6896
  144.7609  139.8123  143.6333 H   0  0  0  0  0  0  0  0  0  0  0  0  # atno 7974 bound_to 7965
  156.2663  140.2041  156.6215 H   0  0  0  0  0  0  0  0  0  0  0  0  # atno 8008 bound_to 7997
  154.6753  140.0545  157.0233 H   0  0  0  0  0  0  0  0  0  0  0  0  # atno 8009 bound_to 7997
  155.1078  140.3212  155.4532 H   0  0  0  0  0  0  0  0  0  0  0  0  # atno 8010 bound_to 7997
  140.0494  143.5074  152.2089 H   0  0  0  0  0  0  0  0  0  0  0  0  # atno 10167 bound_to 10162
  157.4535  130.8152  149.7812 H   0  0  0  0  0  0  0  0  0  0  0  0  # atno 10718 bound_to 10713
  153.6148  135.3424  155.2991 H   0  0  0  0  0  0  0  0  0  0  0  0  # atno 10763 bound_to 10752
  154.8612  135.4259  154.2271 H   0  0  0  0  0  0  0  0  0  0  0  0  # atno 10764 bound_to 10752
  153.3130  135.7033  153.7171 H   0  0  0  0  0  0  0  0  0  0  0  0  # atno 10765 bound_to 10752
  141.1585  133.7629  156.9592 H   0  0  0  0  0  0  0  0  0  0  0  0  # atno 11005 bound_to 11000
  146.1671  139.4806  142.9951 LP  0  0  0  0  0  0  0  0  0  0  0  0  # atno 17320 bound_to 7965
  145.6623  141.0237  143.1702 LP  0  0  0  0  0  0  0  0  0  0  0  0  # atno 17321 bound_to 7965
  139.5962  144.7568  151.3280 LP  0  0  0  0  0  0  0  0  0  0  0  0  # atno 17342 bound_to 10162
  140.7223  143.7100  150.7777 LP  0  0  0  0  0  0  0  0  0  0  0  0  # atno 17343 bound_to 10162
  155.9997  130.3887  150.2654 LP  0  0  0  0  0  0  0  0  0  0  0  0  # atno 17370 bound_to 10713
  157.0827  131.0148  151.3150 LP  0  0  0  0  0  0  0  0  0  0  0  0  # atno 17371 bound_to 10713
  140.1205  134.9420  157.2196 LP  0  0  0  0  0  0  0  0  0  0  0  0  # atno 17394 bound_to 11000
  140.3079  134.3057  155.7274 LP  0  0  0  0  0  0  0  0  0  0  0  0  # atno 17395 bound_to 11000

$$$$
