AV-unprocessed.smi:304|AV-procd|sdf|2279|dock3
  -GOLD-   2262022173D 1   1.00000     0.00000
 Structure written by MMmdl.
 37 39  0  0  0  0  0  0  0  0  2 V2000
  149.3966  141.4749  156.7670 O   0  0  0  0  0  0  0  0  0  0  0  0
  150.6356  141.2109  157.3954 C   0  0  1  0  0  0  0  0  0  0  0  0
  151.3161  140.0442  156.6635 C   0  0  0  0  0  0  0  0  0  0  0  0
  150.3145  139.2429  156.0605 O   0  0  0  0  0  0  0  0  0  0  0  0
  150.5604  138.9916  154.6868 C   0  0  0  0  0  0  0  0  0  0  0  0
  149.2609  139.1416  153.9638 C   0  0  0  0  0  0  0  0  0  0  0  0
  148.5334  140.2930  153.8004 C   0  0  0  0  0  0  0  0  0  0  0  0
  147.3245  140.0968  153.0702 C   0  0  0  0  0  0  0  0  0  0  0  0
  147.1373  138.7938  152.6926 C   0  0  0  0  0  0  0  0  0  0  0  0
  148.4475  137.7786  153.2295 S   0  0  0  0  0  0  0  0  0  0  0  0
  151.4923  142.4920  157.3634 C   0  0  0  0  0  0  0  0  0  0  0  0
  151.4505  143.2354  158.6297 N   0  0  0  0  0  0  0  0  0  0  0  0
  150.7350  144.3411  158.9719 C   0  0  0  0  0  0  0  0  0  0  0  0
  151.0375  144.6416  160.2655 N   0  3  0  0  0  0  0  0  0  0  0  0
  151.9595  143.7141  160.7566 C   0  0  0  0  0  0  0  0  0  0  0  0
  152.5638  143.6003  162.0045 C   0  0  0  0  0  0  0  0  0  0  0  0
  153.4657  142.5296  162.1783 C   0  0  0  0  0  0  0  0  0  0  0  0
  154.0835  142.3737  163.3730 F   0  0  0  0  0  0  0  0  0  0  0  0
  153.7355  141.6200  161.1336 C   0  0  0  0  0  0  0  0  0  0  0  0
  154.6066  140.6049  161.3433 F   0  0  0  0  0  0  0  0  0  0  0  0
  153.1161  141.7454  159.8725 C   0  0  0  0  0  0  0  0  0  0  0  0
  152.2286  142.8078  159.7099 C   0  0  0  0  0  0  0  0  0  0  0  0
  149.4993  142.2351  156.2143 H   0  0  0  0  0  0  0  0  0  0  0  0
  150.4507  140.9301  158.4330 H   0  0  0  0  0  0  0  0  0  0  0  0
  152.0385  140.4031  155.9281 H   0  0  0  0  0  0  0  0  0  0  0  0
  151.8615  139.4281  157.3804 H   0  0  0  0  0  0  0  0  0  0  0  0
  151.2909  139.6999  154.2932 H   0  0  0  0  0  0  0  0  0  0  0  0
  150.9577  137.9850  154.5477 H   0  0  0  0  0  0  0  0  0  0  0  0
  148.8263  141.2629  154.1741 H   0  0  0  0  0  0  0  0  0  0  0  0
  146.6438  140.9065  152.8524 H   0  0  0  0  0  0  0  0  0  0  0  0
  146.3138  138.3700  152.1372 H   0  0  0  0  0  0  0  0  0  0  0  0
  152.5336  142.2624  157.1334 H   0  0  0  0  0  0  0  0  0  0  0  0
  151.1425  143.1628  156.5773 H   0  0  0  0  0  0  0  0  0  0  0  0
  150.0474  144.8781  158.3342 H   0  0  0  0  0  0  0  0  0  0  0  0
  152.3590  144.2934  162.8072 H   0  0  0  0  0  0  0  0  0  0  0  0
  153.3274  141.0433  159.0799 H   0  0  0  0  0  0  0  0  0  0  0  0
  150.6397  145.4216  160.7733 H   0  0  0  0  0  0  0  0  0  0  0  0
  1  2  1  0  0  0  0
  1 23  1  0  0  0  0
  2  3  1  0  0  0  0
  2 11  1  0  0  0  0
  2 24  1  0  0  0  0
  3  4  1  0  0  0  0
  3 25  1  0  0  0  0
  3 26  1  0  0  0  0
  4  5  1  0  0  0  0
  5  6  1  0  0  0  0
  5 27  1  0  0  0  0
  5 28  1  0  0  0  0
  6 10  1  0  0  0  0
  6  7  2  0  0  0  0
  7  8  1  0  0  0  0
  7 29  1  0  0  0  0
  8  9  2  0  0  0  0
  8 30  1  0  0  0  0
  9 10  1  0  0  0  0
  9 31  1  0  0  0  0
 11 12  1  0  0  0  0
 11 32  1  0  0  0  0
 11 33  1  0  0  0  0
 12 22  1  0  0  0  0
 12 13  1  0  0  0  0
 13 14  2  0  0  0  0
 13 34  1  0  0  0  0
 14 15  1  0  0  0  0
 14 37  1  0  0  0  0
 15 22  2  0  0  0  0
 15 16  1  0  0  0  0
 16 17  2  0  0  0  0
 16 35  1  0  0  0  0
 17 18  1  0  0  0  0
 17 19  1  0  0  0  0
 19 20  1  0  0  0  0
 19 21  2  0  0  0  0
 21 22  1  0  0  0  0
 21 36  1  0  0  0  0
M  CHG  1  14   1
M  END
> <s_m_source_file>
AV-unprocessed.smi

> <i_m_source_file_index>
304

> <i_lp_mmshare_version>
43012

> <i_f3d_flags>
0

> <s_epik_input>
W2NIXTFjKEYpYyhGKVtjSF1jKGMxMiluKFtjSF1uMilbQ0gyXVtDQEhdKFtPSF0pW0NIMl1PW0NIMl1jM1tjSF1bY0hdW2NIXXMz

> <s_epik_cmdline>
J2VwaWtfcHl0aG9uJywgJy1waCcsICc3LjAnLCAnLXRuJywgJzgnLCAnLW1hJywgJzIwMCcsICctbWV0YWxfYmluZGluZycsICctaW1hZScsICc8aW5maWxlLm1hZT4nLCAnLW9tYWUnLCAnPG91dGZpbGUubWFlPic=

> <r_epik_Ionization_Penalty>
2.17745

> <r_epik_Ionization_Penalty_Charging>
2.17744

> <r_epik_Ionization_Penalty_Neutral>
1.26231e-06

> <r_epik_State_Penalty>
2.31922

> <r_epik_Charging_Adjusted_Penalty>
4.49666

> <i_epik_Tot_Q>
1

> <i_epik_Tot_abs_Q>
1

> <r_epik_Metal_State_Penalty>
6.40003

> <b_epik_Metal_Only>
0

> <s_lp_Force_Field>
OPLS_2005

> <r_lp_Energy>
12.5781

> <b_lp_Chiralities_Consistent>
1

> <s_lp_Variant>
AV-unprocessed.smi:304-4

> <Gold.Version>
5.8.1

> <Gold.Id.Protein>
6NUR|6NUR_protein|mol2

> <Gold.PLP.Fitness>
60.0166

> <Gold.PLP.PLP>
-56.9796

> <Gold.PLP.part.hbond>
-2.0000

> <Gold.PLP.part.metal>
0.0000

> <Gold.PLP.part.buried>
-2.7598

> <Gold.PLP.part.nonpolar>
-51.6747

> <Gold.PLP.part.repulsive>
0.1712

> <Gold.PLP.ligand.clash>
0.0000

> <Gold.PLP.ligand.torsion>
1.9624

> <Gold.PLP.Chemscore.Hbond>
0.9920

> <Gold.PLP.Chemscore.CHOScore>
1.2713

> <Gold.PLP.Chemscore.Metal>
0.0000

> <Gold.Chemscore.Hbonds>
donor molecule, donor type, donor heavy atom, donor atom, acceptor molecule, acceptor atom, score
      L1  C    13    34       P1  8028  0.05
      L1  C    13    34       P1  8029  0.78

> <Gold.PLP.Chemscore.Internal.Correction>
0.1718

> <Gold.Rescore>
     Score         DG    S(hbond)    S(metal)    S(lipo)     H(rot)  DE(clash)    DE(int)     intcor
     12.56     -16.37       0.62        0.00     134.93       2.73       1.91       1.90       ----

> <Gold.Chemscore.Fitness>
12.5620

> <Gold.Chemscore.DG>
-16.3677

> <Gold.Chemscore.ZeroCoef>
-5.4800

> <Gold.Chemscore.Hbond>
0.6225

> <Gold.Chemscore.Metal>
0.0000

> <Gold.Chemscore.Lipo>
134.9280

> <Gold.Chemscore.Internal_Hbond>
0.0000

> <Gold.Chemscore.DEClash>
1.9090

> <Gold.Chemscore.DEInternal>
1.8967

> <Gold.Chemscore.Rot>
2.7258

> <Gold.Chemscore.Internal.Correction>
   9.000000E+99

> <Gold.Chemscore.Hbond.Weighted>
-2.0793

> <Gold.Chemscore.Metal.Weighted>
-0.0000

> <Gold.Chemscore.Lipo.Weighted>
-15.7866

> <Gold.Chemscore.Internal_Hbond.Weighted>
0.0000

> <Gold.Chemscore.DEClash.Weighted>
1.9090

> <Gold.Chemscore.DEInternal.Weighted>
1.8967

> <Gold.Chemscore.Rot.Weighted>
6.9781

> <Gold.Chemscore.Internal.Correction.Weighted>
   9.000000E+99

> <Gold.Protein.RotatedTorsions>
[ 6907 6896 6895 6894 ] final  -28.04 input  -60.11 | X-H torsion
[ 7974 7965 7964 7962 ] final  137.16 input  175.53 | X-H torsion
[ 8008 7997 7996 7995 ] final  -74.30 input   59.86 | X-H torsion
[ 10167 10162 10161 10158 ] final  128.85 input  -65.29 | X-H torsion
[ 10718 10713 10712 10709 ] final  -22.42 input   66.30 | X-H torsion
[ 10763 10752 10751 10750 ] final  136.13 input  -60.55 | X-H torsion
[ 11005 11000 10999 10996 ] final -143.98 input  -57.11 | X-H torsion

> <Gold.Protein.ActiveResidues>
 VAL166  LYS551  ARG553  GLY616  TRP617  ASP618  TYR619  PRO620  LYS621  CYS622 
 ASP623  PHE694  ASN695  SER759  ASP760  ASP761  ALA762  ILE779  LEU786  VAL792 
 PHE793  MET794  SER795  GLU796  ALA797  LYS798  CYS799  TRP800  GLU811  SER814 

> <Gold.Protein.RotatedAtoms>
  151.1385  135.0167  159.8614 H   0  0  0  0  0  0  0  0  0  0  0  0  # atno 6907 bound_to 6896
  152.5452  134.1527  159.8535 H   0  0  0  0  0  0  0  0  0  0  0  0  # atno 6908 bound_to 6896
  151.1600  133.4805  159.2627 H   0  0  0  0  0  0  0  0  0  0  0  0  # atno 6909 bound_to 6896
  144.9494  139.4836  143.5533 H   0  0  0  0  0  0  0  0  0  0  0  0  # atno 7974 bound_to 7965
  154.5319  140.0764  156.8359 H   0  0  0  0  0  0  0  0  0  0  0  0  # atno 8008 bound_to 7997
  155.3358  140.3404  155.4221 H   0  0  0  0  0  0  0  0  0  0  0  0  # atno 8009 bound_to 7997
  156.1789  140.1645  156.8297 H   0  0  0  0  0  0  0  0  0  0  0  0  # atno 8010 bound_to 7997
  139.5506  144.6810  151.4335 H   0  0  0  0  0  0  0  0  0  0  0  0  # atno 10167 bound_to 10162
  156.5048  130.4596  149.6681 H   0  0  0  0  0  0  0  0  0  0  0  0  # atno 10718 bound_to 10713
  153.8515  135.3079  155.3432 H   0  0  0  0  0  0  0  0  0  0  0  0  # atno 10763 bound_to 10752
  154.7889  135.4794  154.0011 H   0  0  0  0  0  0  0  0  0  0  0  0  # atno 10764 bound_to 10752
  153.1516  135.6844  153.8967 H   0  0  0  0  0  0  0  0  0  0  0  0  # atno 10765 bound_to 10752
  140.8071  134.2788  157.4956 H   0  0  0  0  0  0  0  0  0  0  0  0  # atno 11005 bound_to 11000
  146.3315  139.8569  142.8863 LP  0  0  0  0  0  0  0  0  0  0  0  0  # atno 17320 bound_to 7965
  145.2867  141.0155  143.3686 LP  0  0  0  0  0  0  0  0  0  0  0  0  # atno 17321 bound_to 7965
  140.6768  143.8172  150.7068 LP  0  0  0  0  0  0  0  0  0  0  0  0  # atno 17342 bound_to 10162
  140.1613  143.4273  152.2065 LP  0  0  0  0  0  0  0  0  0  0  0  0  # atno 17343 bound_to 10162
  156.3297  130.7325  151.2252 LP  0  0  0  0  0  0  0  0  0  0  0  0  # atno 17370 bound_to 10713
  157.7458  131.0433  150.4737 LP  0  0  0  0  0  0  0  0  0  0  0  0  # atno 17371 bound_to 10713
  139.8717  134.9462  156.3932 LP  0  0  0  0  0  0  0  0  0  0  0  0  # atno 17394 bound_to 11000
  140.9236  133.7628  155.9936 LP  0  0  0  0  0  0  0  0  0  0  0  0  # atno 17395 bound_to 11000

$$$$
