AV-unprocessed.smi:261|AV-procd|sdf|1993|dock3
  -GOLD-   2262021183D 1   1.00000     0.00000
 Structure written by MMmdl.
 51 54  0  0  0  0  0  0  0  0  1 V2000
  151.4670  143.7792  158.2173 C   0  0  0  0  0  0  0  0  0  0  0  0
  151.2940  142.3839  158.4028 O   0  0  0  0  0  0  0  0  0  0  0  0
  151.4248  141.6317  157.2052 C   0  0  1  0  0  0  0  0  0  0  0  0
  151.2775  140.1224  157.4148 C   0  0  0  0  0  0  0  0  0  0  0  0
  150.8325  139.5922  156.0402 C   0  0  2  0  0  0  0  0  0  0  0  0
  152.0423  139.1669  155.1810 C   0  0  0  0  0  0  0  0  0  0  0  0
  152.1870  137.8759  154.8630 N   0  0  0  0  0  0  0  0  0  0  0  0
  152.8546  140.0124  154.8128 O   0  0  0  0  0  0  0  0  0  0  0  0
  150.0723  140.7130  155.4797 N   0  0  0  0  0  0  0  0  0  0  0  0
  149.0752  140.5957  154.5579 C   0  0  0  0  0  0  0  0  0  0  0  0
  148.6605  141.7273  153.9278 N   0  0  0  0  0  0  0  0  0  0  0  0
  147.6894  141.6864  153.0123 C   0  0  0  0  0  0  0  0  0  0  0  0
  147.0030  140.6318  152.5738 N   0  0  0  0  0  0  0  0  0  0  0  0
  147.4112  139.4883  153.1929 C   0  0  0  0  0  0  0  0  0  0  0  0
  148.4293  139.3762  154.1853 C   0  0  0  0  0  0  0  0  0  0  0  0
  148.5531  138.0427  154.5638 N   0  0  0  0  0  0  0  0  0  0  0  0
  147.6650  137.4112  153.8474 C   0  0  0  0  0  0  0  0  0  0  0  0
  146.9332  138.2056  152.9974 N   0  0  0  0  0  0  0  0  0  0  0  0
  145.8829  137.7794  152.0895 C   0  0  0  0  0  0  0  0  0  0  0  0
  146.4093  136.8460  150.9812 C   0  0  2  0  0  0  0  0  0  0  0  0
  146.9335  137.6307  149.9265 O   0  0  0  0  0  0  0  0  0  0  0  0
  145.3112  135.9228  150.4202 C   0  0  1  0  0  0  0  0  0  0  0  0
  145.8289  134.8208  149.4912 C   0  0  0  0  0  0  0  0  0  0  0  0
  144.7763  133.7498  149.6571 C   0  0  0  0  0  0  0  0  0  0  0  0
  144.4732  133.8551  151.1469 C   0  0  0  0  0  0  0  0  0  0  0  0
  144.6557  135.2279  151.4811 O   0  0  0  0  0  0  0  0  0  0  0  0
  150.2749  141.9389  156.2460 C   0  0  0  0  0  0  0  0  0  0  0  0
  152.3721  141.8510  156.7086 H   0  0  0  0  0  0  0  0  0  0  0  0
  150.1924  138.7243  156.1988 H   0  0  0  0  0  0  0  0  0  0  0  0
  151.3262  144.2923  159.1686 H   0  0  0  0  0  0  0  0  0  0  0  0
  150.7370  144.1766  157.5110 H   0  0  0  0  0  0  0  0  0  0  0  0
  152.4684  144.0157  157.8568 H   0  0  0  0  0  0  0  0  0  0  0  0
  152.1907  139.6582  157.7900 H   0  0  0  0  0  0  0  0  0  0  0  0
  150.4926  139.9290  158.1476 H   0  0  0  0  0  0  0  0  0  0  0  0
  152.9727  137.5820  154.3010 H   0  0  0  0  0  0  0  0  0  0  0  0
  151.5092  137.2007  155.1859 H   0  0  0  0  0  0  0  0  0  0  0  0
  147.4251  142.6347  152.5679 H   0  0  0  0  0  0  0  0  0  0  0  0
  147.5171  136.3437  153.9228 H   0  0  0  0  0  0  0  0  0  0  0  0
  145.1151  137.2754  152.6778 H   0  0  0  0  0  0  0  0  0  0  0  0
  145.4125  138.6633  151.6562 H   0  0  0  0  0  0  0  0  0  0  0  0
  147.2199  136.2347  151.3805 H   0  0  0  0  0  0  0  0  0  0  0  0
  146.2128  138.0165  149.4530 H   0  0  0  0  0  0  0  0  0  0  0  0
  144.5542  136.5082  149.8951 H   0  0  0  0  0  0  0  0  0  0  0  0
  145.9412  135.1530  148.4586 H   0  0  0  0  0  0  0  0  0  0  0  0
  146.7942  134.4467  149.8358 H   0  0  0  0  0  0  0  0  0  0  0  0
  143.8899  133.9986  149.0716 H   0  0  0  0  0  0  0  0  0  0  0  0
  145.1191  132.7583  149.3600 H   0  0  0  0  0  0  0  0  0  0  0  0
  143.4681  133.5131  151.3944 H   0  0  0  0  0  0  0  0  0  0  0  0
  145.1852  133.2622  151.7225 H   0  0  0  0  0  0  0  0  0  0  0  0
  149.3631  142.1663  156.8009 H   0  0  0  0  0  0  0  0  0  0  0  0
  150.5089  142.7899  155.6047 H   0  0  0  0  0  0  0  0  0  0  0  0
  1  2  1  0  0  0  0
  1 30  1  0  0  0  0
  1 31  1  0  0  0  0
  1 32  1  0  0  0  0
  2  3  1  0  0  0  0
  3 28  1  0  0  0  0
  3 27  1  0  0  0  0
  3  4  1  0  0  0  0
  4  5  1  0  0  0  0
  4 33  1  0  0  0  0
  4 34  1  0  0  0  0
  5 29  1  0  0  0  0
  5  6  1  0  0  0  0
  5  9  1  0  0  0  0
  6  7  1  0  0  0  0
  6  8  2  0  0  0  0
  7 35  1  0  0  0  0
  7 36  1  0  0  0  0
  9 10  1  0  0  0  0
  9 27  1  0  0  0  0
 10 15  1  0  0  0  0
 10 11  2  0  0  0  0
 11 12  1  0  0  0  0
 12 13  2  0  0  0  0
 12 37  1  0  0  0  0
 13 14  1  0  0  0  0
 14 18  1  0  0  0  0
 14 15  2  0  0  0  0
 15 16  1  0  0  0  0
 16 17  2  0  0  0  0
 17 18  1  0  0  0  0
 17 38  1  0  0  0  0
 18 19  1  0  0  0  0
 19 20  1  0  0  0  0
 19 39  1  0  0  0  0
 19 40  1  0  0  0  0
 20 21  1  0  0  0  0
 20 22  1  0  0  0  0
 20 41  1  0  0  0  0
 21 42  1  0  0  0  0
 22 26  1  0  0  0  0
 22 23  1  0  0  0  0
 22 43  1  0  0  0  0
 23 24  1  0  0  0  0
 23 44  1  0  0  0  0
 23 45  1  0  0  0  0
 24 25  1  0  0  0  0
 24 46  1  0  0  0  0
 24 47  1  0  0  0  0
 25 26  1  0  0  0  0
 25 48  1  0  0  0  0
 25 49  1  0  0  0  0
 27 50  1  0  0  0  0
 27 51  1  0  0  0  0
M  END
> <s_m_source_file>
AV-unprocessed.smi

> <i_m_source_file_index>
261

> <i_lp_mmshare_version>
43012

> <i_f3d_flags>
0

> <s_epik_input>
W0NIM11PW0NASF0xW0NIMl1bQ0BASF0oQyg9TylbTkgyXSlOKFtDSDJdMSljKG5bY0hdbjIpYyhjMjMpbltjSF1uM1tDSDJdW0NASF0oW09IXSlbQ0BASF00W0NIMl1bQ0gyXVtDSDJdTzQ=

> <s_epik_cmdline>
J2VwaWtfcHl0aG9uJywgJy1waCcsICc3LjAnLCAnLXRuJywgJzgnLCAnLW1hJywgJzIwMCcsICctbWV0YWxfYmluZGluZycsICctaW1hZScsICc8aW5maWxlLm1hZT4nLCAnLW9tYWUnLCAnPG91dGZpbGUubWFlPic=

> <r_lp_tautomer_probability>
1

> <r_epik_Ionization_Penalty>
0.000713824

> <r_epik_Ionization_Penalty_Charging>
0

> <r_epik_Ionization_Penalty_Neutral>
0.000713824

> <r_epik_State_Penalty>
0.000402132

> <r_epik_Charging_Adjusted_Penalty>
0.000402132

> <i_epik_Tot_Q>
0

> <i_epik_Tot_abs_Q>
0

> <r_epik_Metal_State_Penalty>
-0

> <b_epik_Metal_Only>
0

> <s_lp_Force_Field>
OPLS_2005

> <r_lp_Energy>
43.0256

> <b_lp_Chiralities_Consistent>
1

> <s_lp_Variant>
AV-unprocessed.smi:261-11

> <Gold.Version>
5.8.1

> <Gold.Id.Protein>
6NUR|6NUR_protein|mol2

> <Gold.PLP.Fitness>
50.2712

> <Gold.PLP.PLP>
-41.1092

> <Gold.PLP.part.hbond>
-6.0000

> <Gold.PLP.part.metal>
0.0000

> <Gold.PLP.part.buried>
-2.2401

> <Gold.PLP.part.nonpolar>
-32.8586

> <Gold.PLP.part.repulsive>
0.7944

> <Gold.PLP.ligand.clash>
0.0000

> <Gold.PLP.ligand.torsion>
0.6977

> <Gold.PLP.Chemscore.Hbond>
3.4809

> <Gold.PLP.Chemscore.CHOScore>
0.0000

> <Gold.PLP.Chemscore.Metal>
0.0000

> <Gold.Chemscore.Hbonds>
donor molecule, donor type, donor heavy atom, donor atom, acceptor molecule, acceptor atom, score
      L1  H    21    42       P1 10171  0.07
      P1  H  7954  7966       L1    21  0.16
      P1  H  7989  7998       L1     8  0.31
      P1  H  7997  8010       L1     8  1.00
      P1  H  8011  8017       L1    11  0.08
      L1  C    17    38       P1  7948  0.10

> <Gold.PLP.Chemscore.Internal.Correction>
0.1146

> <Gold.Rescore>
     Score         DG    S(hbond)    S(metal)    S(lipo)     H(rot)  DE(clash)    DE(int)     intcor
     12.10     -15.92       2.87        0.00      76.87       3.18       2.97       0.84       ----

> <Gold.Chemscore.Fitness>
12.1020

> <Gold.Chemscore.DG>
-15.9177

> <Gold.Chemscore.ZeroCoef>
-5.4800

> <Gold.Chemscore.Hbond>
2.8721

> <Gold.Chemscore.Metal>
0.0000

> <Gold.Chemscore.Lipo>
76.8687

> <Gold.Chemscore.Internal_Hbond>
0.0000

> <Gold.Chemscore.DEClash>
2.9719

> <Gold.Chemscore.DEInternal>
0.8438

> <Gold.Chemscore.Rot>
3.1831

> <Gold.Chemscore.Internal.Correction>
   9.000000E+99

> <Gold.Chemscore.Hbonds>
donor molecule, donor type, donor heavy atom, donor atom, acceptor molecule, acceptor atom, score
      L1  H    21    42       P1 10171  0.09
      P1  H  7954  7966       L1    21  0.16
      P1  H  7989  7998       L1     8  0.06
      P1  H  7997  8010       L1     8  0.92

> <Gold.Chemscore.Hbond.Weighted>
-9.5927

> <Gold.Chemscore.Metal.Weighted>
-0.0000

> <Gold.Chemscore.Lipo.Weighted>
-8.9936

> <Gold.Chemscore.Internal_Hbond.Weighted>
0.0000

> <Gold.Chemscore.DEClash.Weighted>
2.9719

> <Gold.Chemscore.DEInternal.Weighted>
0.8438

> <Gold.Chemscore.Rot.Weighted>
8.1486

> <Gold.Chemscore.Internal.Correction.Weighted>
   9.000000E+99

> <Gold.Protein.RotatedTorsions>
[ 6907 6896 6895 6894 ] final -172.86 input  -60.11 | X-H torsion
[ 7974 7965 7964 7962 ] final  -97.92 input  175.53 | X-H torsion
[ 8008 7997 7996 7995 ] final  102.35 input   59.86 | X-H torsion
[ 10167 10162 10161 10158 ] final -158.32 input  -65.29 | X-H torsion
[ 10718 10713 10712 10709 ] final  -17.83 input   66.30 | X-H torsion
[ 10763 10752 10751 10750 ] final   17.81 input  -60.55 | X-H torsion
[ 11005 11000 10999 10996 ] final   29.47 input  -57.11 | X-H torsion

> <Gold.Protein.ActiveResidues>
 VAL166  LYS551  ARG553  GLY616  TRP617  ASP618  TYR619  PRO620  LYS621  CYS622 
 ASP623  PHE694  ASN695  SER759  ASP760  ASP761  ALA762  ILE779  LEU786  VAL792 
 PHE793  MET794  SER795  GLU796  ALA797  LYS798  CYS799  TRP800  GLU811  SER814 

> <Gold.Protein.RotatedAtoms>
  151.5469  133.3423  159.2945 H   0  0  0  0  0  0  0  0  0  0  0  0  # atno 6907 bound_to 6896
  150.8502  134.7827  159.7014 H   0  0  0  0  0  0  0  0  0  0  0  0  # atno 6908 bound_to 6896
  152.4550  134.5319  159.9865 H   0  0  0  0  0  0  0  0  0  0  0  0  # atno 6909 bound_to 6896
  145.3274  140.9434  143.2681 H   0  0  0  0  0  0  0  0  0  0  0  0  # atno 7974 bound_to 7965
  156.1384  140.3183  155.8457 H   0  0  0  0  0  0  0  0  0  0  0  0  # atno 8008 bound_to 7997
  155.4200  140.0511  157.3043 H   0  0  0  0  0  0  0  0  0  0  0  0  # atno 8009 bound_to 7997
  154.4956  140.2109  155.9466 H   0  0  0  0  0  0  0  0  0  0  0  0  # atno 8010 bound_to 7997
  139.6701  143.9760  152.2278 H   0  0  0  0  0  0  0  0  0  0  0  0  # atno 10167 bound_to 10162
  156.5681  130.4742  149.6375 H   0  0  0  0  0  0  0  0  0  0  0  0  # atno 10718 bound_to 10713
  153.1305  135.6739  153.9186 H   0  0  0  0  0  0  0  0  0  0  0  0  # atno 10763 bound_to 10752
  153.8674  135.3074  155.3442 H   0  0  0  0  0  0  0  0  0  0  0  0  # atno 10764 bound_to 10752
  154.7703  135.4943  153.9717 H   0  0  0  0  0  0  0  0  0  0  0  0  # atno 10765 bound_to 10752
  140.3046  134.2718  155.7746 H   0  0  0  0  0  0  0  0  0  0  0  0  # atno 11005 bound_to 11000
  144.8891  139.4799  143.6686 LP  0  0  0  0  0  0  0  0  0  0  0  0  # atno 17320 bound_to 7965
  146.3059  139.7577  142.9057 LP  0  0  0  0  0  0  0  0  0  0  0  0  # atno 17321 bound_to 7965
  139.9522  144.6613  150.8161 LP  0  0  0  0  0  0  0  0  0  0  0  0  # atno 17342 bound_to 10162
  140.7615  143.3175  151.2699 LP  0  0  0  0  0  0  0  0  0  0  0  0  # atno 17343 bound_to 10162
  156.2739  130.7032  151.1838 LP  0  0  0  0  0  0  0  0  0  0  0  0  # atno 17370 bound_to 10713
  157.7354  131.0572  150.5471 LP  0  0  0  0  0  0  0  0  0  0  0  0  # atno 17371 bound_to 10713
  141.2121  133.7669  156.9818 LP  0  0  0  0  0  0  0  0  0  0  0  0  # atno 17394 bound_to 11000
  140.1078  134.9495  157.2020 LP  0  0  0  0  0  0  0  0  0  0  0  0  # atno 17395 bound_to 11000

$$$$
