AV-unprocessed.smi:646|AV-procd|sdf|3166|dock2
  -GOLD-   22720 0 83D 1   1.00000     0.00000
 Structure written by MMmdl.
 44 45  0  0  0  0  0  0  0  0  1 V2000
  152.4987  143.2955  161.9142 C   0  0  0  0  0  0  0  0  0  0  0  0
  151.2927  143.3443  161.1621 O   0  0  0  0  0  0  0  0  0  0  0  0
  151.2680  144.2025  160.0134 C   0  0  2  0  0  0  0  0  0  0  0  0
  151.8822  145.5685  160.3455 C   0  0  0  0  0  0  0  0  0  0  0  0
  149.8859  144.1411  159.3348 C   0  0  0  0  0  0  0  0  0  0  0  0
  150.3702  142.8761  158.6289 C   0  0  1  0  0  0  0  0  0  0  0  0
  149.9097  142.7886  157.2492 N   0  0  0  0  0  0  0  0  0  0  0  0
  150.1414  141.7470  156.4371 C   0  0  0  0  0  0  0  0  0  0  0  0
  150.6809  140.7038  156.8050 O   0  0  0  0  0  0  0  0  0  0  0  0
  149.7376  141.9275  154.9750 C   0  0  0  0  0  0  0  0  0  0  0  0
  148.8624  140.7719  154.5613 C   0  0  0  0  0  0  0  0  0  0  0  0
  147.4789  140.8006  154.2233 C   0  0  0  0  0  0  0  0  0  0  0  0
  146.5515  141.9811  154.1896 C   0  0  0  0  0  0  0  0  0  0  0  0
  147.0180  139.5977  153.9246 N   0  0  0  0  0  0  0  0  0  0  0  0
  148.1030  138.7269  154.0620 O   0  0  0  0  0  0  0  0  0  0  0  0
  149.1871  139.4481  154.4443 C   0  0  0  0  0  0  0  0  0  0  0  0
  150.4511  138.6863  154.6581 C   0  0  0  0  0  0  0  0  0  0  0  0
  151.8199  143.4030  158.7883 C   0  0  0  0  0  0  0  0  0  0  0  0
  152.3811  144.2496  157.6285 C   0  0  0  0  0  0  0  0  0  0  0  0
  152.8874  142.3436  159.0829 C   0  0  0  0  0  0  0  0  0  0  0  0
  152.3184  142.7495  162.8401 H   0  0  0  0  0  0  0  0  0  0  0  0
  152.8640  144.2868  162.1805 H   0  0  0  0  0  0  0  0  0  0  0  0
  153.2838  142.7647  161.3760 H   0  0  0  0  0  0  0  0  0  0  0  0
  151.9613  146.2027  159.4632 H   0  0  0  0  0  0  0  0  0  0  0  0
  152.8841  145.4612  160.7617 H   0  0  0  0  0  0  0  0  0  0  0  0
  151.2786  146.1244  161.0625 H   0  0  0  0  0  0  0  0  0  0  0  0
  149.0337  143.9859  159.9956 H   0  0  0  0  0  0  0  0  0  0  0  0
  149.7084  144.9791  158.6582 H   0  0  0  0  0  0  0  0  0  0  0  0
  150.1721  141.9807  159.2228 H   0  0  0  0  0  0  0  0  0  0  0  0
  149.4587  143.6047  156.8623 H   0  0  0  0  0  0  0  0  0  0  0  0
  149.2194  142.8804  154.8607 H   0  0  0  0  0  0  0  0  0  0  0  0
  150.6350  141.9944  154.3588 H   0  0  0  0  0  0  0  0  0  0  0  0
  147.0111  142.8246  153.6745 H   0  0  0  0  0  0  0  0  0  0  0  0
  146.3012  142.3058  155.1997 H   0  0  0  0  0  0  0  0  0  0  0  0
  145.6191  141.7485  153.6735 H   0  0  0  0  0  0  0  0  0  0  0  0
  151.1119  139.2104  155.3485 H   0  0  0  0  0  0  0  0  0  0  0  0
  150.9829  138.5519  153.7165 H   0  0  0  0  0  0  0  0  0  0  0  0
  150.2451  137.7007  155.0758 H   0  0  0  0  0  0  0  0  0  0  0  0
  152.5907  143.6409  156.7482 H   0  0  0  0  0  0  0  0  0  0  0  0
  153.3142  144.7403  157.9074 H   0  0  0  0  0  0  0  0  0  0  0  0
  151.6886  145.0309  157.3147 H   0  0  0  0  0  0  0  0  0  0  0  0
  153.1629  141.7911  158.1838 H   0  0  0  0  0  0  0  0  0  0  0  0
  152.5418  141.6061  159.8075 H   0  0  0  0  0  0  0  0  0  0  0  0
  153.7950  142.7941  159.4853 H   0  0  0  0  0  0  0  0  0  0  0  0
  1  2  1  0  0  0  0
  1 21  1  0  0  0  0
  1 22  1  0  0  0  0
  1 23  1  0  0  0  0
  2  3  1  0  0  0  0
  3 18  1  0  0  0  0
  3  4  1  0  0  0  0
  3  5  1  0  0  0  0
  4 24  1  0  0  0  0
  4 25  1  0  0  0  0
  4 26  1  0  0  0  0
  5  6  1  0  0  0  0
  5 27  1  0  0  0  0
  5 28  1  0  0  0  0
  6  7  1  0  0  0  0
  6 18  1  0  0  0  0
  6 29  1  0  0  0  0
  7  8  1  0  0  0  0
  7 30  1  0  0  0  0
  8  9  2  0  0  0  0
  8 10  1  0  0  0  0
 10 11  1  0  0  0  0
 10 31  1  0  0  0  0
 10 32  1  0  0  0  0
 11 16  2  0  0  0  0
 11 12  1  0  0  0  0
 12 13  1  0  0  0  0
 12 14  2  0  0  0  0
 13 33  1  0  0  0  0
 13 34  1  0  0  0  0
 13 35  1  0  0  0  0
 14 15  1  0  0  0  0
 15 16  1  0  0  0  0
 16 17  1  0  0  0  0
 17 36  1  0  0  0  0
 17 37  1  0  0  0  0
 17 38  1  0  0  0  0
 18 19  1  0  0  0  0
 18 20  1  0  0  0  0
 19 39  1  0  0  0  0
 19 40  1  0  0  0  0
 19 41  1  0  0  0  0
 20 42  1  0  0  0  0
 20 43  1  0  0  0  0
 20 44  1  0  0  0  0
M  END
> <s_m_source_file>
AV-unprocessed.smi

> <i_m_source_file_index>
646

> <i_lp_mmshare_version>
43012

> <i_f3d_flags>
0

> <s_epik_input>
W0NIM11PW0NAQF0xKFtDSDNdKVtDSDJdW0NASF0oQzEoW0NIM10pW0NIM10pW05IXUMoPU8pW0NIMl1jMmMoW0NIM10pbm9jMltDSDNd

> <s_epik_cmdline>
J2VwaWtfcHl0aG9uJywgJy1waCcsICc3LjAnLCAnLXRuJywgJzgnLCAnLW1hJywgJzIwMCcsICctbWV0YWxfYmluZGluZycsICctaW1hZScsICc8aW5maWxlLm1hZT4nLCAnLW9tYWUnLCAnPG91dGZpbGUubWFlPic=

> <r_lp_tautomer_probability>
1

> <r_epik_Ionization_Penalty>
2.13169e-08

> <r_epik_Ionization_Penalty_Charging>
0

> <r_epik_Ionization_Penalty_Neutral>
2.13169e-08

> <r_epik_State_Penalty>
-0

> <r_epik_Charging_Adjusted_Penalty>
0

> <i_epik_Tot_Q>
0

> <i_epik_Tot_abs_Q>
0

> <r_epik_Metal_State_Penalty>
-0

> <b_epik_Metal_Only>
0

> <s_lp_Force_Field>
OPLS_2005

> <r_lp_Energy>
15.8314

> <b_lp_Chiralities_Consistent>
1

> <s_lp_Variant>
AV-unprocessed.smi:646-2

> <Gold.Version>
5.8.1

> <Gold.Id.Protein>
6NUR|6NUR_protein|mol2

> <Gold.PLP.Fitness>
45.8145

> <Gold.PLP.PLP>
-42.9971

> <Gold.PLP.part.hbond>
-2.0000

> <Gold.PLP.part.metal>
0.0000

> <Gold.PLP.part.buried>
-4.5819

> <Gold.PLP.part.nonpolar>
-37.5930

> <Gold.PLP.part.repulsive>
0.5208

> <Gold.PLP.ligand.clash>
0.0000

> <Gold.PLP.ligand.torsion>
0.4802

> <Gold.PLP.Chemscore.Hbond>
1.1264

> <Gold.PLP.Chemscore.CHOScore>
0.0000

> <Gold.PLP.Chemscore.Metal>
0.0000

> <Gold.Chemscore.Hbonds>
donor molecule, donor type, donor heavy atom, donor atom, acceptor molecule, acceptor atom, score
      L1  H     7    30       P1  8028  1.00
      P1  H  6933  6945       L1     2  0.12

> <Gold.PLP.Chemscore.Internal.Correction>
0.3988

> <Gold.Rescore>
     Score         DG    S(hbond)    S(metal)    S(lipo)     H(rot)  DE(clash)    DE(int)     intcor
     18.61     -19.62       0.99        0.00     125.24       1.49       0.30       0.71       ----

> <Gold.Chemscore.Fitness>
18.6092

> <Gold.Chemscore.DG>
-19.6223

> <Gold.Chemscore.ZeroCoef>
-5.4800

> <Gold.Chemscore.Hbond>
0.9914

> <Gold.Chemscore.Metal>
0.0000

> <Gold.Chemscore.Lipo>
125.2365

> <Gold.Chemscore.Internal_Hbond>
0.0000

> <Gold.Chemscore.DEClash>
0.3020

> <Gold.Chemscore.DEInternal>
0.7112

> <Gold.Chemscore.Rot>
1.4928

> <Gold.Chemscore.Internal.Correction>
   9.000000E+99

> <Gold.Chemscore.Hbonds>
donor molecule, donor type, donor heavy atom, donor atom, acceptor molecule, acceptor atom, score
      L1  H     7    30       P1  8028  0.95
      P1  H  6933  6945       L1     2  0.04

> <Gold.Chemscore.Hbond.Weighted>
-3.3113

> <Gold.Chemscore.Metal.Weighted>
-0.0000

> <Gold.Chemscore.Lipo.Weighted>
-14.6527

> <Gold.Chemscore.Internal_Hbond.Weighted>
0.0000

> <Gold.Chemscore.DEClash.Weighted>
0.3020

> <Gold.Chemscore.DEInternal.Weighted>
0.7112

> <Gold.Chemscore.Rot.Weighted>
3.8217

> <Gold.Chemscore.Internal.Correction.Weighted>
   9.000000E+99

> <Gold.Protein.RotatedTorsions>
[ 6907 6896 6895 6894 ] final -175.87 input  -60.11 | X-H torsion
[ 7974 7965 7964 7962 ] final   16.99 input  175.53 | X-H torsion
[ 8008 7997 7996 7995 ] final -106.68 input   59.86 | X-H torsion
[ 10167 10162 10161 10158 ] final  -49.60 input  -65.29 | X-H torsion
[ 10718 10713 10712 10709 ] final -147.29 input   66.30 | X-H torsion
[ 10763 10752 10751 10750 ] final  -85.02 input  -60.55 | X-H torsion
[ 11005 11000 10999 10996 ] final  -30.94 input  -57.11 | X-H torsion

> <Gold.Protein.ActiveResidues>
 VAL166  LYS551  ARG553  GLY616  TRP617  ASP618  TYR619  PRO620  LYS621  CYS622 
 ASP623  PHE694  ASN695  SER759  ASP760  ASP761  ALA762  ILE779  LEU786  VAL792 
 PHE793  MET794  SER795  GLU796  ALA797  LYS798  CYS799  TRP800  GLU811  SER814 

> <Gold.Protein.RotatedAtoms>
  151.5956  133.3362  159.3036 H   0  0  0  0  0  0  0  0  0  0  0  0  # atno 6907 bound_to 6896
  150.8236  134.7459  159.6805 H   0  0  0  0  0  0  0  0  0  0  0  0  # atno 6908 bound_to 6896
  152.4327  134.5751  159.9984 H   0  0  0  0  0  0  0  0  0  0  0  0  # atno 6909 bound_to 6896
  146.2232  139.8667  142.8595 H   0  0  0  0  0  0  0  0  0  0  0  0  # atno 7974 bound_to 7965
  154.9181  140.0408  157.1983 H   0  0  0  0  0  0  0  0  0  0  0  0  # atno 8008 bound_to 7997
  154.8281  140.2894  155.5719 H   0  0  0  0  0  0  0  0  0  0  0  0  # atno 8009 bound_to 7997
  156.2985  140.2506  156.3201 H   0  0  0  0  0  0  0  0  0  0  0  0  # atno 8010 bound_to 7997
  140.6677  143.2691  151.4238 H   0  0  0  0  0  0  0  0  0  0  0  0  # atno 10167 bound_to 10162
  156.4056  130.7956  151.2170 H   0  0  0  0  0  0  0  0  0  0  0  0  # atno 10718 bound_to 10713
  154.6062  135.5500  153.7426 H   0  0  0  0  0  0  0  0  0  0  0  0  # atno 10763 bound_to 10752
  153.0175  135.6378  154.1643 H   0  0  0  0  0  0  0  0  0  0  0  0  # atno 10764 bound_to 10752
  154.1582  135.2899  155.3096 H   0  0  0  0  0  0  0  0  0  0  0  0  # atno 10765 bound_to 10752
  140.9426  133.7269  156.1098 H   0  0  0  0  0  0  0  0  0  0  0  0  # atno 11005 bound_to 11000
  145.2650  141.0090  143.3805 LP  0  0  0  0  0  0  0  0  0  0  0  0  # atno 17320 bound_to 7965
  144.9269  139.4345  143.6514 LP  0  0  0  0  0  0  0  0  0  0  0  0  # atno 17321 bound_to 7965
  139.5933  144.1452  152.2114 LP  0  0  0  0  0  0  0  0  0  0  0  0  # atno 17342 bound_to 10162
  140.0813  144.5698  150.7120 LP  0  0  0  0  0  0  0  0  0  0  0  0  # atno 17343 bound_to 10162
  157.7505  131.0273  150.4000 LP  0  0  0  0  0  0  0  0  0  0  0  0  # atno 17370 bound_to 10713
  156.4288  130.3968  149.6774 LP  0  0  0  0  0  0  0  0  0  0  0  0  # atno 17371 bound_to 10713
  140.7713  134.3829  157.5507 LP  0  0  0  0  0  0  0  0  0  0  0  0  # atno 17394 bound_to 11000
  139.8824  134.9024  156.2832 LP  0  0  0  0  0  0  0  0  0  0  0  0  # atno 17395 bound_to 11000

$$$$
