AV-unprocessed.smi:2248|AV-procd|sdf|9097|dock3
  -GOLD-   2272012293D 1   1.00000     0.00000
 Structure written by MMmdl.
 35 36  0  0  0  0  0  0  0  0  1 V2000
  152.8732  142.4597  161.8116 C   0  0  0  0  0  0  0  0  0  0  0  0
  152.2743  143.4450  160.8303 C   0  0  0  0  0  0  0  0  0  0  0  0
  152.2969  144.8295  161.0894 C   0  0  0  0  0  0  0  0  0  0  0  0
  151.7276  145.6914  160.1352 C   0  0  0  0  0  0  0  0  0  0  0  0
  151.1645  145.1379  158.9693 C   0  0  0  0  0  0  0  0  0  0  0  0
  151.1824  143.7368  158.7862 C   0  0  0  0  0  0  0  0  0  0  0  0
  150.5922  143.2798  157.5780 N   0  0  0  0  0  0  0  0  0  0  0  0
  150.7955  142.1120  156.9432 C   0  0  0  0  0  0  0  0  0  0  0  0
  151.5339  141.2065  157.3327 O   0  0  0  0  0  0  0  0  0  0  0  0
  150.0839  142.0470  155.8091 N   0  0  0  0  0  0  0  0  0  0  0  0
  150.0980  140.9245  154.8781 C   0  0  1  0  0  0  0  0  0  0  0  0
  149.7289  139.6504  155.5895 C   0  0  0  0  0  0  0  0  0  0  0  0
  148.6604  139.0562  155.0629 C   0  0  0  0  0  0  0  0  0  0  0  0
  148.0891  139.8195  153.8960 C   0  0  1  0  0  0  0  0  0  0  0  0
  146.5971  140.1623  154.0687 C   0  0  0  0  0  0  0  0  0  0  0  0
  145.7845  139.0056  154.0263 O   0  0  0  0  0  0  0  0  0  0  0  0
  149.0187  141.0539  153.7698 C   0  0  0  0  0  0  0  0  0  0  0  0
  151.7342  142.9138  159.7125 N   0  0  0  0  0  0  0  0  0  0  0  0
  151.0920  140.8051  154.4438 H   0  0  0  0  0  0  0  0  0  0  0  0
  148.2035  139.1939  153.0101 H   0  0  0  0  0  0  0  0  0  0  0  0
  153.0626  142.9307  162.7768 H   0  0  0  0  0  0  0  0  0  0  0  0
  153.8178  142.0738  161.4279 H   0  0  0  0  0  0  0  0  0  0  0  0
  152.1977  141.6188  161.9721 H   0  0  0  0  0  0  0  0  0  0  0  0
  152.7381  145.2226  161.9937 H   0  0  0  0  0  0  0  0  0  0  0  0
  151.7235  146.7597  160.2936 H   0  0  0  0  0  0  0  0  0  0  0  0
  150.7239  145.7865  158.2259 H   0  0  0  0  0  0  0  0  0  0  0  0
  149.9467  143.9206  157.1411 H   0  0  0  0  0  0  0  0  0  0  0  0
  149.5047  142.8357  155.5611 H   0  0  0  0  0  0  0  0  0  0  0  0
  150.2958  139.2762  156.4293 H   0  0  0  0  0  0  0  0  0  0  0  0
  148.2284  138.1300  155.4120 H   0  0  0  0  0  0  0  0  0  0  0  0
  146.4347  140.6727  155.0186 H   0  0  0  0  0  0  0  0  0  0  0  0
  146.2734  140.8441  153.2819 H   0  0  0  0  0  0  0  0  0  0  0  0
  145.0090  139.2019  153.5233 H   0  0  0  0  0  0  0  0  0  0  0  0
  148.4569  141.9847  153.8611 H   0  0  0  0  0  0  0  0  0  0  0  0
  149.4893  141.0755  152.7864 H   0  0  0  0  0  0  0  0  0  0  0  0
  1  2  1  0  0  0  0
  1 21  1  0  0  0  0
  1 22  1  0  0  0  0
  1 23  1  0  0  0  0
  2 18  1  0  0  0  0
  2  3  2  0  0  0  0
  3  4  1  0  0  0  0
  3 24  1  0  0  0  0
  4  5  2  0  0  0  0
  4 25  1  0  0  0  0
  5  6  1  0  0  0  0
  5 26  1  0  0  0  0
  6  7  1  0  0  0  0
  6 18  2  0  0  0  0
  7  8  1  0  0  0  0
  7 27  1  0  0  0  0
  8  9  2  0  0  0  0
  8 10  1  0  0  0  0
 10 11  1  0  0  0  0
 10 28  1  0  0  0  0
 11 19  1  0  0  0  0
 11 17  1  0  0  0  0
 11 12  1  0  0  0  0
 12 13  2  0  0  0  0
 12 29  1  0  0  0  0
 13 14  1  0  0  0  0
 13 30  1  0  0  0  0
 14 20  1  0  0  0  0
 14 15  1  0  0  0  0
 14 17  1  0  0  0  0
 15 16  1  0  0  0  0
 15 31  1  0  0  0  0
 15 32  1  0  0  0  0
 16 33  1  0  0  0  0
 17 34  1  0  0  0  0
 17 35  1  0  0  0  0
M  END
> <s_m_source_file>
AV-unprocessed.smi

> <i_m_source_file_index>
2248

> <i_lp_mmshare_version>
43012

> <i_f3d_flags>
0

> <s_epik_input>
W0NIM11jMVtjSF1bY0hdW2NIXWMobjEpW05IXUMoPU8pW05IXVtDQEBIXTJbQ0hdPVtDSF1bQ0BASF0oW0NIMl0yKVtDSDJdW09IXQ==

> <s_epik_cmdline>
J2VwaWtfcHl0aG9uJywgJy1waCcsICc3LjAnLCAnLXRuJywgJzgnLCAnLW1hJywgJzIwMCcsICctbWV0YWxfYmluZGluZycsICctaW1hZScsICc8aW5maWxlLm1hZT4nLCAnLW9tYWUnLCAnPG91dGZpbGUubWFlPic=

> <r_lp_tautomer_probability>
1

> <r_epik_Ionization_Penalty>
8.36606e-05

> <r_epik_Ionization_Penalty_Charging>
0

> <r_epik_Ionization_Penalty_Neutral>
8.36606e-05

> <r_epik_State_Penalty>
-0

> <r_epik_Charging_Adjusted_Penalty>
0

> <i_epik_Tot_Q>
0

> <i_epik_Tot_abs_Q>
0

> <r_epik_Metal_State_Penalty>
-0

> <b_epik_Metal_Only>
0

> <s_lp_Force_Field>
OPLS_2005

> <r_lp_Energy>
18.8307

> <b_lp_Chiralities_Consistent>
1

> <s_lp_Variant>
AV-unprocessed.smi:2248-4

> <Gold.Version>
5.8.1

> <Gold.Id.Protein>
6NUR|6NUR_protein|mol2

> <Gold.PLP.Fitness>
43.1037

> <Gold.PLP.PLP>
-34.4323

> <Gold.PLP.part.hbond>
-3.0000

> <Gold.PLP.part.metal>
0.0000

> <Gold.PLP.part.buried>
-1.9688

> <Gold.PLP.part.nonpolar>
-29.4936

> <Gold.PLP.part.repulsive>
0.1557

> <Gold.PLP.ligand.clash>
0.0000

> <Gold.PLP.ligand.torsion>
0.1700

> <Gold.PLP.Chemscore.Hbond>
3.0000

> <Gold.PLP.Chemscore.CHOScore>
0.0000

> <Gold.PLP.Chemscore.Metal>
0.0000

> <Gold.Chemscore.Hbonds>
donor molecule, donor type, donor heavy atom, donor atom, acceptor molecule, acceptor atom, score
      L1  H     7    27       P1  8028  1.00
      L1  H    10    28       P1  8028  1.00
      L1  H    16    33       P1 10175  0.80

> <Gold.PLP.Chemscore.Internal.Correction>
0.0114

> <Gold.Rescore>
     Score         DG    S(hbond)    S(metal)    S(lipo)     H(rot)  DE(clash)    DE(int)     intcor
     17.63     -21.31       2.85        0.00      93.80       1.82       1.32       2.37       ----

> <Gold.Chemscore.Fitness>
17.6254

> <Gold.Chemscore.DG>
-21.3084

> <Gold.Chemscore.ZeroCoef>
-5.4800

> <Gold.Chemscore.Hbond>
2.8469

> <Gold.Chemscore.Metal>
0.0000

> <Gold.Chemscore.Lipo>
93.8007

> <Gold.Chemscore.Internal_Hbond>
0.0000

> <Gold.Chemscore.DEClash>
1.3160

> <Gold.Chemscore.DEInternal>
2.3670

> <Gold.Chemscore.Rot>
1.8184

> <Gold.Chemscore.Internal.Correction>
   9.000000E+99

> <Gold.Chemscore.Hbonds>
donor molecule, donor type, donor heavy atom, donor atom, acceptor molecule, acceptor atom, score
      L1  H     7    27       P1  8028  0.86
      L1  H    10    28       P1  8028  0.96
      L1  H    16    33       P1 10175  0.77

> <Gold.Chemscore.Hbond.Weighted>
-9.5088

> <Gold.Chemscore.Metal.Weighted>
-0.0000

> <Gold.Chemscore.Lipo.Weighted>
-10.9747

> <Gold.Chemscore.Internal_Hbond.Weighted>
0.0000

> <Gold.Chemscore.DEClash.Weighted>
1.3160

> <Gold.Chemscore.DEInternal.Weighted>
2.3670

> <Gold.Chemscore.Rot.Weighted>
4.6551

> <Gold.Chemscore.Internal.Correction.Weighted>
   9.000000E+99

> <Gold.Protein.RotatedTorsions>
[ 6907 6896 6895 6894 ] final  -60.05 input  -60.11 | X-H torsion
[ 7974 7965 7964 7962 ] final  -72.59 input  175.53 | X-H torsion
[ 8008 7997 7996 7995 ] final -134.44 input   59.86 | X-H torsion
[ 10167 10162 10161 10158 ] final -167.74 input  -65.29 | X-H torsion
[ 10718 10713 10712 10709 ] final  136.30 input   66.30 | X-H torsion
[ 10763 10752 10751 10750 ] final -121.62 input  -60.55 | X-H torsion
[ 11005 11000 10999 10996 ] final  139.24 input  -57.11 | X-H torsion

> <Gold.Protein.ActiveResidues>
 VAL166  LYS551  ARG553  GLY616  TRP617  ASP618  TYR619  PRO620  LYS621  CYS622 
 ASP623  PHE694  ASN695  SER759  ASP760  ASP761  ALA762  ILE779  LEU786  VAL792 
 PHE793  MET794  SER795  GLU796  ALA797  LYS798  CYS799  TRP800  GLU811  SER814 

> <Gold.Protein.RotatedAtoms>
  150.7884  134.6888  159.6484 H   0  0  0  0  0  0  0  0  0  0  0  0  # atno 6907 bound_to 6896
  152.3985  134.6322  160.0088 H   0  0  0  0  0  0  0  0  0  0  0  0  # atno 6908 bound_to 6896
  151.6600  133.3280  159.3208 H   0  0  0  0  0  0  0  0  0  0  0  0  # atno 6909 bound_to 6896
  145.6632  140.9246  143.0922 H   0  0  0  0  0  0  0  0  0  0  0  0  # atno 7974 bound_to 7965
  155.3621  140.0483  157.3046 H   0  0  0  0  0  0  0  0  0  0  0  0  # atno 8008 bound_to 7997
  154.5172  140.2212  155.9006 H   0  0  0  0  0  0  0  0  0  0  0  0  # atno 8009 bound_to 7997
  156.1650  140.3108  155.8879 H   0  0  0  0  0  0  0  0  0  0  0  0  # atno 8010 bound_to 7997
  139.6030  144.0971  152.1763 H   0  0  0  0  0  0  0  0  0  0  0  0  # atno 10167 bound_to 10162
  157.4481  131.1063  151.0065 H   0  0  0  0  0  0  0  0  0  0  0  0  # atno 10718 bound_to 10713
  154.8672  135.4161  154.2650 H   0  0  0  0  0  0  0  0  0  0  0  0  # atno 10763 bound_to 10752
  153.3571  135.7001  153.6747 H   0  0  0  0  0  0  0  0  0  0  0  0  # atno 10764 bound_to 10752
  153.5664  135.3600  155.2792 H   0  0  0  0  0  0  0  0  0  0  0  0  # atno 10765 bound_to 10752
  140.0240  134.9383  157.0532 H   0  0  0  0  0  0  0  0  0  0  0  0  # atno 11005 bound_to 11000
  144.7082  139.8476  143.7423 LP  0  0  0  0  0  0  0  0  0  0  0  0  # atno 17320 bound_to 7965
  146.1108  139.4112  143.0289 LP  0  0  0  0  0  0  0  0  0  0  0  0  # atno 17321 bound_to 7965
  140.0572  144.5886  150.7291 LP  0  0  0  0  0  0  0  0  0  0  0  0  # atno 17342 bound_to 10162
  140.7264  143.2641  151.4106 LP  0  0  0  0  0  0  0  0  0  0  0  0  # atno 17343 bound_to 10162
  157.0905  130.5940  149.5438 LP  0  0  0  0  0  0  0  0  0  0  0  0  # atno 17370 bound_to 10713
  155.9976  130.5048  150.7539 LP  0  0  0  0  0  0  0  0  0  0  0  0  # atno 17371 bound_to 10713
  140.4337  134.1753  155.7169 LP  0  0  0  0  0  0  0  0  0  0  0  0  # atno 17394 bound_to 11000
  141.1792  133.8451  157.1318 LP  0  0  0  0  0  0  0  0  0  0  0  0  # atno 17395 bound_to 11000

$$$$
