AV-unprocessed.smi:2164|AV-procd|sdf|8811|dock6
  -GOLD-   2272012 03D 1   1.00000     0.00000
 Structure written by MMmdl.
 39 41  0  0  0  0  0  0  0  0  3 V2000
  151.3227  136.9491  159.5646 O   0  0  0  0  0  0  0  0  0  0  0  0
  152.3084  137.6484  159.2965 C   0  0  0  0  0  0  0  0  0  0  0  0
  152.4984  138.3176  158.1186 N   0  5  0  0  0  0  0  0  0  0  0  0
  152.0041  139.6611  157.8225 C   0  0  0  0  0  0  0  0  0  0  0  0
  151.6762  140.3938  159.1384 C   0  0  0  0  0  0  0  0  0  0  0  0
  151.6637  141.9101  159.0044 C   0  0  0  0  0  0  0  0  0  0  0  0
  152.5190  142.7130  159.7944 C   0  0  0  0  0  0  0  0  0  0  0  0
  152.4786  144.1158  159.6540 C   0  0  0  0  0  0  0  0  0  0  0  0
  151.5819  144.6875  158.7288 C   0  0  0  0  0  0  0  0  0  0  0  0
  150.7747  143.8911  157.9945 N   0  3  0  0  0  0  0  0  0  0  0  0
  150.7816  142.5444  158.1002 C   0  0  0  0  0  0  0  0  0  0  0  0
  153.3636  137.7781  160.3123 C   0  0  0  0  0  0  0  0  0  0  0  0
  153.5085  136.9184  161.3446 C   0  0  0  0  0  0  0  0  0  0  0  0
  154.5080  137.0352  162.3141 N   0  0  0  0  0  0  0  0  0  0  0  0
  154.4921  136.0982  163.4318 C   0  0  0  0  0  0  0  0  0  0  0  0
  155.9066  135.6557  163.7718 C   0  0  0  0  0  0  0  0  0  0  0  0
  156.8044  137.1628  164.3048 S   0  0  0  0  0  0  0  0  0  0  0  0
  156.1188  137.7070  165.4874 O   0  0  0  0  0  0  0  0  0  0  0  0
  158.2362  136.8363  164.3890 O   0  0  0  0  0  0  0  0  0  0  0  0
  156.5261  138.1702  162.9943 N   0  0  0  0  0  0  0  0  0  0  0  0
  155.4915  138.0524  162.2179 C   0  0  0  0  0  0  0  0  0  0  0  0
  155.3149  139.0027  161.1325 C   0  0  0  0  0  0  0  0  0  0  0  0
  154.3161  138.8745  160.2355 C   0  0  0  0  0  0  0  0  0  0  0  0
  152.7375  140.2461  157.2660 H   0  0  0  0  0  0  0  0  0  0  0  0
  151.1076  139.6340  157.2017 H   0  0  0  0  0  0  0  0  0  0  0  0
  150.7021  140.0712  159.5093 H   0  0  0  0  0  0  0  0  0  0  0  0
  152.4000  140.1182  159.9070 H   0  0  0  0  0  0  0  0  0  0  0  0
  153.2016  142.2581  160.4977 H   0  0  0  0  0  0  0  0  0  0  0  0
  153.1275  144.7429  160.2476 H   0  0  0  0  0  0  0  0  0  0  0  0
  151.4856  145.7494  158.5559 H   0  0  0  0  0  0  0  0  0  0  0  0
  150.0909  142.0160  157.4592 H   0  0  0  0  0  0  0  0  0  0  0  0
  152.8549  136.0713  161.4960 H   0  0  0  0  0  0  0  0  0  0  0  0
  154.0167  136.5717  164.2915 H   0  0  0  0  0  0  0  0  0  0  0  0
  153.8946  135.2194  163.1878 H   0  0  0  0  0  0  0  0  0  0  0  0
  155.9190  134.9332  164.5875 H   0  0  0  0  0  0  0  0  0  0  0  0
  156.4148  135.2163  162.9127 H   0  0  0  0  0  0  0  0  0  0  0  0
  155.9886  139.8383  161.0080 H   0  0  0  0  0  0  0  0  0  0  0  0
  154.2383  139.6120  159.4503 H   0  0  0  0  0  0  0  0  0  0  0  0
  150.1320  144.3240  157.3309 H   0  0  0  0  0  0  0  0  0  0  0  0
  1  2  2  0  0  0  0
  2  3  1  0  0  0  0
  2 12  1  0  0  0  0
  3  4  1  0  0  0  0
  4  5  1  0  0  0  0
  4 24  1  0  0  0  0
  4 25  1  0  0  0  0
  5  6  1  0  0  0  0
  5 26  1  0  0  0  0
  5 27  1  0  0  0  0
  6 11  1  0  0  0  0
  6  7  2  0  0  0  0
  7  8  1  0  0  0  0
  7 28  1  0  0  0  0
  8  9  2  0  0  0  0
  8 29  1  0  0  0  0
  9 10  1  0  0  0  0
  9 30  1  0  0  0  0
 10 11  2  0  0  0  0
 10 39  1  0  0  0  0
 11 31  1  0  0  0  0
 12 23  1  0  0  0  0
 12 13  2  0  0  0  0
 13 14  1  0  0  0  0
 13 32  1  0  0  0  0
 14 21  1  0  0  0  0
 14 15  1  0  0  0  0
 15 16  1  0  0  0  0
 15 33  1  0  0  0  0
 15 34  1  0  0  0  0
 16 17  1  0  0  0  0
 16 35  1  0  0  0  0
 16 36  1  0  0  0  0
 17 18  2  0  0  0  0
 17 19  2  0  0  0  0
 17 20  1  0  0  0  0
 20 21  2  0  0  0  0
 21 22  1  0  0  0  0
 22 23  2  0  0  0  0
 22 37  1  0  0  0  0
 23 38  1  0  0  0  0
M  CHG  1   3  -1
M  CHG  1  10   1
M  END
> <s_m_source_file>
AV-unprocessed.smi

> <i_m_source_file_index>
2164

> <i_lp_mmshare_version>
43012

> <i_f3d_flags>
0

> <s_epik_input>
W0NIMl0xW0NIMl1TKD1PKSg9TylOPUMoTjEyKVtDSF09W0NIXUMoPVtDSF0yKUMoPU8pW05IXVtDSDJdW0NIMl1jM1tjSF1bY0hdW2NIXW5bY0hdMw==

> <s_epik_cmdline>
J2VwaWtfcHl0aG9uJywgJy1waCcsICc3LjAnLCAnLXRuJywgJzgnLCAnLW1hJywgJzIwMCcsICctbWV0YWxfYmluZGluZycsICctaW1hZScsICc8aW5maWxlLm1hZT4nLCAnLW9tYWUnLCAnPG91dGZpbGUubWFlPic=

> <r_epik_Ionization_Penalty>
6.83439

> <r_epik_Ionization_Penalty_Charging>
6.83439

> <r_epik_Ionization_Penalty_Neutral>
0

> <r_epik_State_Penalty>
7.45298

> <r_epik_Charging_Adjusted_Penalty>
14.2874

> <i_epik_Tot_Q>
0

> <i_epik_Tot_abs_Q>
2

> <r_epik_Metal_State_Penalty>
3.5959

> <b_epik_Metal_Only>
1

> <s_lp_Force_Field>
OPLS_2005

> <r_lp_Energy>
30.4634

> <b_lp_Chiralities_Consistent>
1

> <s_lp_Variant>
AV-unprocessed.smi:2164-4

> <Gold.Version>
5.8.1

> <Gold.Id.Protein>
6NUR|6NUR_protein|mol2

> <Gold.PLP.Fitness>
50.6437

> <Gold.PLP.PLP>
-43.8892

> <Gold.PLP.part.hbond>
-2.1096

> <Gold.PLP.part.metal>
0.0000

> <Gold.PLP.part.buried>
-5.5894

> <Gold.PLP.part.nonpolar>
-35.2146

> <Gold.PLP.part.repulsive>
0.1418

> <Gold.PLP.ligand.clash>
0.0000

> <Gold.PLP.ligand.torsion>
1.1478

> <Gold.PLP.Chemscore.Hbond>
3.0000

> <Gold.PLP.Chemscore.CHOScore>
0.0000

> <Gold.PLP.Chemscore.Metal>
0.0000

> <Gold.Chemscore.Hbonds>
donor molecule, donor type, donor heavy atom, donor atom, acceptor molecule, acceptor atom, score
      L1  H    10    39       P1  8028  1.69
      P1  H  6896  6907       L1     1  0.99

> <Gold.PLP.Chemscore.Internal.Correction>
0.0500

> <Gold.Rescore>
     Score         DG    S(hbond)    S(metal)    S(lipo)     H(rot)  DE(clash)    DE(int)     intcor
     19.20     -20.68       1.99        0.00     106.18       1.51       0.01       1.47       ----

> <Gold.Chemscore.Fitness>
19.2024

> <Gold.Chemscore.DG>
-20.6820

> <Gold.Chemscore.ZeroCoef>
-5.4800

> <Gold.Chemscore.Hbond>
1.9901

> <Gold.Chemscore.Metal>
0.0000

> <Gold.Chemscore.Lipo>
106.1800

> <Gold.Chemscore.Internal_Hbond>
0.0000

> <Gold.Chemscore.DEClash>
0.0089

> <Gold.Chemscore.DEInternal>
1.4707

> <Gold.Chemscore.Rot>
1.5109

> <Gold.Chemscore.Internal.Correction>
   9.000000E+99

> <Gold.Chemscore.Hbonds>
donor molecule, donor type, donor heavy atom, donor atom, acceptor molecule, acceptor atom, score
      L1  H    10    39       P1  8028  0.50
      P1  H  6896  6907       L1     1  0.83

> <Gold.Chemscore.Hbond.Weighted>
-6.6469

> <Gold.Chemscore.Metal.Weighted>
-0.0000

> <Gold.Chemscore.Lipo.Weighted>
-12.4231

> <Gold.Chemscore.Internal_Hbond.Weighted>
0.0000

> <Gold.Chemscore.DEClash.Weighted>
0.0089

> <Gold.Chemscore.DEInternal.Weighted>
1.4707

> <Gold.Chemscore.Rot.Weighted>
3.8680

> <Gold.Chemscore.Internal.Correction.Weighted>
   9.000000E+99

> <Gold.Protein.RotatedTorsions>
[ 6907 6896 6895 6894 ] final   11.33 input  -60.11 | X-H torsion
[ 7974 7965 7964 7962 ] final   34.43 input  175.53 | X-H torsion
[ 8008 7997 7996 7995 ] final   40.85 input   59.86 | X-H torsion
[ 10167 10162 10161 10158 ] final   91.24 input  -65.29 | X-H torsion
[ 10718 10713 10712 10709 ] final  -57.25 input   66.30 | X-H torsion
[ 10763 10752 10751 10750 ] final  -38.46 input  -60.55 | X-H torsion
[ 11005 11000 10999 10996 ] final -131.72 input  -57.11 | X-H torsion

> <Gold.Protein.ActiveResidues>
 VAL166  LYS551  ARG553  GLY616  TRP617  ASP618  TYR619  PRO620  LYS621  CYS622 
 ASP623  PHE694  ASN695  SER759  ASP760  ASP761  ALA762  ILE779  LEU786  VAL792 
 PHE793  MET794  SER795  GLU796  ALA797  LYS798  CYS799  TRP800  GLU811  SER814 

> <Gold.Protein.RotatedAtoms>
  151.7526  135.0829  160.0332 H   0  0  0  0  0  0  0  0  0  0  0  0  # atno 6907 bound_to 6896
  152.3407  133.6059  159.5882 H   0  0  0  0  0  0  0  0  0  0  0  0  # atno 6908 bound_to 6896
  150.7477  133.9643  159.3567 H   0  0  0  0  0  0  0  0  0  0  0  0  # atno 6909 bound_to 6896
  146.1353  139.6270  142.9199 H   0  0  0  0  0  0  0  0  0  0  0  0  # atno 7974 bound_to 7965
  155.2598  140.3358  155.4274 H   0  0  0  0  0  0  0  0  0  0  0  0  # atno 8008 bound_to 7997
  156.2179  140.1797  156.7588 H   0  0  0  0  0  0  0  0  0  0  0  0  # atno 8009 bound_to 7997
  154.5781  140.0658  156.9049 H   0  0  0  0  0  0  0  0  0  0  0  0  # atno 8010 bound_to 7997
  139.8394  144.6648  150.9302 H   0  0  0  0  0  0  0  0  0  0  0  0  # atno 10167 bound_to 10162
  156.1225  130.4165  150.0415 H   0  0  0  0  0  0  0  0  0  0  0  0  # atno 10718 bound_to 10713
  153.9132  135.6790  153.4750 H   0  0  0  0  0  0  0  0  0  0  0  0  # atno 10763 bound_to 10752
  153.1067  135.4802  154.8962 H   0  0  0  0  0  0  0  0  0  0  0  0  # atno 10764 bound_to 10752
  154.7516  135.3186  154.8502 H   0  0  0  0  0  0  0  0  0  0  0  0  # atno 10765 bound_to 10752
  140.9234  134.1414  157.4295 H   0  0  0  0  0  0  0  0  0  0  0  0  # atno 11005 bound_to 11000
  145.5170  141.0433  143.2456 LP  0  0  0  0  0  0  0  0  0  0  0  0  # atno 17320 bound_to 7965
  144.7733  139.6686  143.7185 LP  0  0  0  0  0  0  0  0  0  0  0  0  # atno 17321 bound_to 7965
  140.7799  143.3926  151.1283 LP  0  0  0  0  0  0  0  0  0  0  0  0  # atno 17342 bound_to 10162
  139.7574  143.8687  152.3092 LP  0  0  0  0  0  0  0  0  0  0  0  0  # atno 17343 bound_to 10162
  156.8349  130.9405  151.3635 LP  0  0  0  0  0  0  0  0  0  0  0  0  # atno 17370 bound_to 10713
  157.6408  130.8804  149.9445 LP  0  0  0  0  0  0  0  0  0  0  0  0  # atno 17371 bound_to 10713
  139.8780  134.9979  156.5874 LP  0  0  0  0  0  0  0  0  0  0  0  0  # atno 17394 bound_to 11000
  140.7958  133.8545  155.8684 LP  0  0  0  0  0  0  0  0  0  0  0  0  # atno 17395 bound_to 11000

$$$$
