AV-unprocessed.smi:2837|AV-procd|sdf|10927|dock3
  -GOLD-   2272015373D 1   1.00000     0.00000
 Structure written by MMmdl.
 33 35  0  0  0  0  0  0  0  0  2 V2000
  146.6922  138.5490  152.0707 F   0  0  0  0  0  0  0  0  0  0  0  0
  146.8927  138.9815  153.3397 C   0  0  0  0  0  0  0  0  0  0  0  0
  146.1428  138.2055  154.1583 F   0  0  0  0  0  0  0  0  0  0  0  0
  148.2051  138.8700  153.6775 O   0  0  0  0  0  0  0  0  0  0  0  0
  148.7905  139.8466  154.4513 C   0  0  0  0  0  0  0  0  0  0  0  0
  149.8722  139.4826  155.2803 C   0  0  0  0  0  0  0  0  0  0  0  0
  150.5088  140.4575  156.0757 C   0  0  0  0  0  0  0  0  0  0  0  0
  150.0571  141.7976  156.0263 C   0  0  0  0  0  0  0  0  0  0  0  0
  150.6118  142.8506  156.7670 N   0  0  0  0  0  0  0  0  0  0  0  0
  151.7328  142.6337  157.6729 C   0  0  1  0  0  0  0  0  0  0  0  0
  152.2755  143.9325  158.2849 C   0  0  0  0  0  0  0  0  0  0  0  0
  152.1638  143.6467  159.7876 C   0  0  2  0  0  0  0  0  0  0  0  0
  153.1557  142.5711  160.2510 C   0  0  0  0  0  0  0  0  0  0  0  0
  152.5317  141.3011  159.6736 C   0  0  0  0  0  0  0  0  0  0  0  0
  151.3091  141.8584  158.9319 C   0  0  1  0  0  0  0  0  0  0  0  0
  150.9517  142.9147  159.8088 O   0  0  0  0  0  0  0  0  0  0  0  0
  149.0237  142.1083  155.2134 N   0  3  0  0  0  0  0  0  0  0  0  0
  148.3878  141.2040  154.4370 C   0  0  0  0  0  0  0  0  0  0  0  0
  146.5376  140.0078  153.4363 H   0  0  0  0  0  0  0  0  0  0  0  0
  150.2119  138.4578  155.3075 H   0  0  0  0  0  0  0  0  0  0  0  0
  151.3329  140.1623  156.7074 H   0  0  0  0  0  0  0  0  0  0  0  0
  150.3181  143.7999  156.5863 H   0  0  0  0  0  0  0  0  0  0  0  0
  152.5116  142.0790  157.1480 H   0  0  0  0  0  0  0  0  0  0  0  0
  153.2999  144.1466  157.9783 H   0  0  0  0  0  0  0  0  0  0  0  0
  151.6575  144.7924  158.0217 H   0  0  0  0  0  0  0  0  0  0  0  0
  152.1581  144.5424  160.4092 H   0  0  0  0  0  0  0  0  0  0  0  0
  154.1659  142.7534  159.8831 H   0  0  0  0  0  0  0  0  0  0  0  0
  153.1923  142.5175  161.3398 H   0  0  0  0  0  0  0  0  0  0  0  0
  153.2090  140.7560  159.0155 H   0  0  0  0  0  0  0  0  0  0  0  0
  152.2230  140.6300  160.4760 H   0  0  0  0  0  0  0  0  0  0  0  0
  150.5249  141.1183  158.7677 H   0  0  0  0  0  0  0  0  0  0  0  0
  147.5872  141.6013  153.8301 H   0  0  0  0  0  0  0  0  0  0  0  0
  148.7076  143.0779  155.1797 H   0  0  0  0  0  0  0  0  0  0  0  0
  1  2  1  0  0  0  0
  2  3  1  0  0  0  0
  2  4  1  0  0  0  0
  2 19  1  0  0  0  0
  4  5  1  0  0  0  0
  5 18  1  0  0  0  0
  5  6  2  0  0  0  0
  6  7  1  0  0  0  0
  6 20  1  0  0  0  0
  7  8  2  0  0  0  0
  7 21  1  0  0  0  0
  8  9  1  0  0  0  0
  8 17  1  0  0  0  0
  9 10  1  0  0  0  0
  9 22  1  0  0  0  0
 10 15  1  0  0  0  0
 10 11  1  0  0  0  0
 10 23  1  0  0  0  0
 11 12  1  0  0  0  0
 11 24  1  0  0  0  0
 11 25  1  0  0  0  0
 12 16  1  0  0  0  0
 12 13  1  0  0  0  0
 12 26  1  0  0  0  0
 13 14  1  0  0  0  0
 13 27  1  0  0  0  0
 13 28  1  0  0  0  0
 14 15  1  0  0  0  0
 14 29  1  0  0  0  0
 14 30  1  0  0  0  0
 15 16  1  0  0  0  0
 15 31  1  0  0  0  0
 17 18  2  0  0  0  0
 17 33  1  0  0  0  0
 18 32  1  0  0  0  0
M  CHG  1  17   1
M  END
> <s_m_source_file>
AV-unprocessed.smi

> <i_m_source_file_index>
2837

> <i_lp_mmshare_version>
43012

> <i_f3d_flags>
0

> <s_epik_input>
RltDSF0oRilPYzFbY0hdW2NIXWMobltjSF0xKVtOSF1bQ0BIXShbQ0gyXVtDQEBIXTIzKVtDQEBIXShPMylbQ0gyXVtDSDJdMg==

> <s_epik_cmdline>
J2VwaWtfcHl0aG9uJywgJy1waCcsICc3LjAnLCAnLXRuJywgJzgnLCAnLW1hJywgJzIwMCcsICctbWV0YWxfYmluZGluZycsICctaW1hZScsICc8aW5maWxlLm1hZT4nLCAnLW9tYWUnLCAnPG91dGZpbGUubWFlPic=

> <r_lp_tautomer_probability>
0.999429

> <r_epik_Ionization_Penalty>
2.29716

> <r_epik_Ionization_Penalty_Charging>
2.29716

> <r_epik_Ionization_Penalty_Neutral>
1.42285e-06

> <r_epik_State_Penalty>
2.44762

> <r_epik_Charging_Adjusted_Penalty>
4.74478

> <i_epik_Tot_Q>
1

> <i_epik_Tot_abs_Q>
1

> <r_epik_Metal_State_Penalty>
6.53078

> <b_epik_Metal_Only>
0

> <s_lp_Force_Field>
OPLS_2005

> <r_lp_Energy>
46.2914

> <b_lp_Chiralities_Consistent>
1

> <s_lp_Variant>
AV-unprocessed.smi:2837-8

> <Gold.Version>
5.8.1

> <Gold.Id.Protein>
6NUR|6NUR_protein|mol2

> <Gold.PLP.Fitness>
48.1993

> <Gold.PLP.PLP>
-39.6455

> <Gold.PLP.part.hbond>
-3.0000

> <Gold.PLP.part.metal>
0.0000

> <Gold.PLP.part.buried>
-4.0492

> <Gold.PLP.part.nonpolar>
-34.4623

> <Gold.PLP.part.repulsive>
2.0523

> <Gold.PLP.ligand.clash>
0.0000

> <Gold.PLP.ligand.torsion>
0.9911

> <Gold.PLP.Chemscore.Hbond>
3.5040

> <Gold.PLP.Chemscore.CHOScore>
0.0000

> <Gold.PLP.Chemscore.Metal>
0.0000

> <Gold.Chemscore.Hbonds>
donor molecule, donor type, donor heavy atom, donor atom, acceptor molecule, acceptor atom, score
      L1  H     9    22       P1  8028  1.57
      L1  H    17    33       P1  8028  2.00

> <Gold.PLP.Chemscore.Internal.Correction>
0.0240

> <Gold.Rescore>
     Score         DG    S(hbond)    S(metal)    S(lipo)     H(rot)  DE(clash)    DE(int)     intcor
     17.72     -18.31       1.64        0.00      91.94       1.34       0.15       0.44       ----

> <Gold.Chemscore.Fitness>
17.7152

> <Gold.Chemscore.DG>
-18.3058

> <Gold.Chemscore.ZeroCoef>
-5.4800

> <Gold.Chemscore.Hbond>
1.6440

> <Gold.Chemscore.Metal>
0.0000

> <Gold.Chemscore.Lipo>
91.9428

> <Gold.Chemscore.Internal_Hbond>
0.0000

> <Gold.Chemscore.DEClash>
0.1513

> <Gold.Chemscore.DEInternal>
0.4393

> <Gold.Chemscore.Rot>
1.3368

> <Gold.Chemscore.Internal.Correction>
   9.000000E+99

> <Gold.Chemscore.Hbonds>
donor molecule, donor type, donor heavy atom, donor atom, acceptor molecule, acceptor atom, score
      L1  H     9    22       P1  8028  0.79
      L1  H    17    33       P1  8028  0.95

> <Gold.Chemscore.Hbond.Weighted>
-5.4908

> <Gold.Chemscore.Metal.Weighted>
-0.0000

> <Gold.Chemscore.Lipo.Weighted>
-10.7573

> <Gold.Chemscore.Internal_Hbond.Weighted>
0.0000

> <Gold.Chemscore.DEClash.Weighted>
0.1513

> <Gold.Chemscore.DEInternal.Weighted>
0.4393

> <Gold.Chemscore.Rot.Weighted>
3.4223

> <Gold.Chemscore.Internal.Correction.Weighted>
   9.000000E+99

> <Gold.Protein.RotatedTorsions>
[ 6907 6896 6895 6894 ] final  174.87 input  -60.11 | X-H torsion
[ 7974 7965 7964 7962 ] final -138.92 input  175.53 | X-H torsion
[ 8008 7997 7996 7995 ] final   20.60 input   59.86 | X-H torsion
[ 10167 10162 10161 10158 ] final -110.01 input  -65.29 | X-H torsion
[ 10718 10713 10712 10709 ] final  -78.10 input   66.30 | X-H torsion
[ 10763 10752 10751 10750 ] final  -28.06 input  -60.55 | X-H torsion
[ 11005 11000 10999 10996 ] final -177.70 input  -57.11 | X-H torsion

> <Gold.Protein.ActiveResidues>
 VAL166  LYS551  ARG553  GLY616  TRP617  ASP618  TYR619  PRO620  LYS621  CYS622 
 ASP623  PHE694  ASN695  SER759  ASP760  ASP761  ALA762  ILE779  LEU786  VAL792 
 PHE793  MET794  SER795  GLU796  ALA797  LYS798  CYS799  TRP800  GLU811  SER814 

> <Gold.Protein.RotatedAtoms>
  151.7454  133.3324  159.3376 H   0  0  0  0  0  0  0  0  0  0  0  0  # atno 6907 bound_to 6896
  150.7556  134.6241  159.6161 H   0  0  0  0  0  0  0  0  0  0  0  0  # atno 6908 bound_to 6896
  152.3503  134.7016  160.0290 H   0  0  0  0  0  0  0  0  0  0  0  0  # atno 6909 bound_to 6896
  144.8719  140.6379  143.5262 H   0  0  0  0  0  0  0  0  0  0  0  0  # atno 7974 bound_to 7965
  154.9380  140.3049  155.5134 H   0  0  0  0  0  0  0  0  0  0  0  0  # atno 8008 bound_to 7997
  156.2998  140.2341  156.4384 H   0  0  0  0  0  0  0  0  0  0  0  0  # atno 8009 bound_to 7997
  154.8173  140.0425  157.1374 H   0  0  0  0  0  0  0  0  0  0  0  0  # atno 8010 bound_to 7997
  140.1491  143.4214  152.1507 H   0  0  0  0  0  0  0  0  0  0  0  0  # atno 10167 bound_to 10162
  156.0127  130.4509  150.3444 H   0  0  0  0  0  0  0  0  0  0  0  0  # atno 10718 bound_to 10713
  153.7422  135.6931  153.4964 H   0  0  0  0  0  0  0  0  0  0  0  0  # atno 10763 bound_to 10752
  153.2061  135.4419  155.0323 H   0  0  0  0  0  0  0  0  0  0  0  0  # atno 10764 bound_to 10752
  154.8216  135.3425  154.6947 H   0  0  0  0  0  0  0  0  0  0  0  0  # atno 10765 bound_to 10752
  140.4380  134.6458  157.4744 H   0  0  0  0  0  0  0  0  0  0  0  0  # atno 11005 bound_to 11000
  145.4115  139.1579  143.4123 LP  0  0  0  0  0  0  0  0  0  0  0  0  # atno 17320 bound_to 7965
  146.2936  140.4219  142.8730 LP  0  0  0  0  0  0  0  0  0  0  0  0  # atno 17321 bound_to 7965
  139.5434  144.7277  151.4660 LP  0  0  0  0  0  0  0  0  0  0  0  0  # atno 17342 bound_to 10162
  140.6713  143.8287  150.7003 LP  0  0  0  0  0  0  0  0  0  0  0  0  # atno 17343 bound_to 10162
  157.1539  131.0328  151.2872 LP  0  0  0  0  0  0  0  0  0  0  0  0  # atno 17370 bound_to 10713
  157.4369  130.7522  149.7036 LP  0  0  0  0  0  0  0  0  0  0  0  0  # atno 17371 bound_to 10713
  140.0089  134.6721  155.9411 LP  0  0  0  0  0  0  0  0  0  0  0  0  # atno 17394 bound_to 11000
  141.1718  133.6538  156.4679 LP  0  0  0  0  0  0  0  0  0  0  0  0  # atno 17395 bound_to 11000

$$$$
