AV-unprocessed.smi:2063|AV-procd|sdf|8410|dock5
  -GOLD-   2272011103D 1   1.00000     0.00000
 Structure written by MMmdl.
 39 40  0  0  0  0  0  0  0  0  1 V2000
  153.0249  136.6364  158.9655 C   0  0  0  0  0  0  0  0  0  0  0  0
  153.5535  137.2750  157.6727 C   0  0  0  0  0  0  0  0  0  0  0  0
  153.6712  138.8036  157.7598 C   0  0  0  0  0  0  0  0  0  0  0  0
  152.7789  136.8364  156.4690 C   0  0  0  0  0  0  0  0  0  0  0  0
  153.1264  137.1669  155.2178 N   0  0  0  0  0  0  0  0  0  0  0  0
  152.2557  136.6450  154.2721 N   0  0  0  0  0  0  0  0  0  0  0  0
  151.2721  135.9325  154.8377 C   0  0  0  0  0  0  0  0  0  0  0  0
  150.2428  135.2861  154.1033 N   0  0  0  0  0  0  0  0  0  0  0  0
  149.7127  134.0673  154.3072 C   0  0  0  0  0  0  0  0  0  0  0  0
  150.0518  133.2834  155.1941 O   0  0  0  0  0  0  0  0  0  0  0  0
  148.7511  133.8027  153.4100 N   0  0  0  0  0  0  0  0  0  0  0  0
  147.9615  132.5747  153.3464 C   0  0  2  0  0  0  0  0  0  0  0  0
  148.9189  131.3894  153.1476 C   0  0  0  0  0  0  0  0  0  0  0  0
  146.9179  132.6780  152.2144 C   0  0  1  0  0  0  0  0  0  0  0  0
  146.0110  131.4556  152.0657 C   0  0  0  0  0  0  0  0  0  0  0  0
  144.7678  132.0120  151.3899 C   0  0  0  0  0  0  0  0  0  0  0  0
  144.8778  133.5249  151.5958 C   0  0  0  0  0  0  0  0  0  0  0  0
  145.9725  133.7021  152.4834 O   0  0  0  0  0  0  0  0  0  0  0  0
  151.3324  135.8399  156.5893 S   0  0  0  0  0  0  0  0  0  0  0  0
  153.0331  135.5481  158.8969 H   0  0  0  0  0  0  0  0  0  0  0  0
  152.0013  136.9494  159.1739 H   0  0  0  0  0  0  0  0  0  0  0  0
  153.6383  136.9180  159.8216 H   0  0  0  0  0  0  0  0  0  0  0  0
  154.5683  136.8979  157.5388 H   0  0  0  0  0  0  0  0  0  0  0  0
  154.1320  139.2130  156.8601 H   0  0  0  0  0  0  0  0  0  0  0  0
  154.2848  139.1024  158.6099 H   0  0  0  0  0  0  0  0  0  0  0  0
  152.6928  139.2712  157.8763 H   0  0  0  0  0  0  0  0  0  0  0  0
  149.8654  135.8145  153.3309 H   0  0  0  0  0  0  0  0  0  0  0  0
  148.5408  134.5091  152.7205 H   0  0  0  0  0  0  0  0  0  0  0  0
  147.4417  132.4239  154.2943 H   0  0  0  0  0  0  0  0  0  0  0  0
  148.3837  130.4398  153.1554 H   0  0  0  0  0  0  0  0  0  0  0  0
  149.6623  131.3480  153.9444 H   0  0  0  0  0  0  0  0  0  0  0  0
  149.4516  131.4636  152.1989 H   0  0  0  0  0  0  0  0  0  0  0  0
  147.4083  132.8934  151.2626 H   0  0  0  0  0  0  0  0  0  0  0  0
  146.4761  130.6506  151.4961 H   0  0  0  0  0  0  0  0  0  0  0  0
  145.7457  131.0629  153.0485 H   0  0  0  0  0  0  0  0  0  0  0  0
  144.7522  131.7713  150.3263 H   0  0  0  0  0  0  0  0  0  0  0  0
  143.8617  131.6052  151.8402 H   0  0  0  0  0  0  0  0  0  0  0  0
  145.0963  134.0259  150.6518 H   0  0  0  0  0  0  0  0  0  0  0  0
  143.9669  133.9590  152.0088 H   0  0  0  0  0  0  0  0  0  0  0  0
  1  2  1  0  0  0  0
  1 20  1  0  0  0  0
  1 21  1  0  0  0  0
  1 22  1  0  0  0  0
  2  3  1  0  0  0  0
  2  4  1  0  0  0  0
  2 23  1  0  0  0  0
  3 24  1  0  0  0  0
  3 25  1  0  0  0  0
  3 26  1  0  0  0  0
  4 19  1  0  0  0  0
  4  5  2  0  0  0  0
  5  6  1  0  0  0  0
  6  7  2  0  0  0  0
  7  8  1  0  0  0  0
  7 19  1  0  0  0  0
  8  9  1  0  0  0  0
  8 27  1  0  0  0  0
  9 10  2  0  0  0  0
  9 11  1  0  0  0  0
 11 12  1  0  0  0  0
 11 28  1  0  0  0  0
 12 13  1  0  0  0  0
 12 14  1  0  0  0  0
 12 29  1  0  0  0  0
 13 30  1  0  0  0  0
 13 31  1  0  0  0  0
 13 32  1  0  0  0  0
 14 18  1  0  0  0  0
 14 15  1  0  0  0  0
 14 33  1  0  0  0  0
 15 16  1  0  0  0  0
 15 34  1  0  0  0  0
 15 35  1  0  0  0  0
 16 17  1  0  0  0  0
 16 36  1  0  0  0  0
 16 37  1  0  0  0  0
 17 18  1  0  0  0  0
 17 38  1  0  0  0  0
 17 39  1  0  0  0  0
M  END
> <s_m_source_file>
AV-unprocessed.smi

> <i_m_source_file_index>
2063

> <i_lp_mmshare_version>
43012

> <i_f3d_flags>
0

> <s_epik_input>
W0NIM11bQ0hdKFtDSDNdKWMxbm5jKHMxKVtOSF1DKD1PKVtOSF1bQ0BIXShbQ0gzXSlbQ0BASF0yW0NIMl1bQ0gyXVtDSDJdTzI=

> <s_epik_cmdline>
J2VwaWtfcHl0aG9uJywgJy1waCcsICc3LjAnLCAnLXRuJywgJzgnLCAnLW1hJywgJzIwMCcsICctbWV0YWxfYmluZGluZycsICctaW1hZScsICc8aW5maWxlLm1hZT4nLCAnLW9tYWUnLCAnPG91dGZpbGUubWFlPic=

> <r_lp_tautomer_probability>
1

> <r_epik_Ionization_Penalty>
0.00050567

> <r_epik_Ionization_Penalty_Charging>
0

> <r_epik_Ionization_Penalty_Neutral>
0.00050567

> <r_epik_State_Penalty>
-0

> <r_epik_Charging_Adjusted_Penalty>
0

> <i_epik_Tot_Q>
0

> <i_epik_Tot_abs_Q>
0

> <r_epik_Metal_State_Penalty>
0.219912

> <b_epik_Metal_Only>
0

> <s_lp_Force_Field>
OPLS_2005

> <r_lp_Energy>
10.8912

> <b_lp_Chiralities_Consistent>
1

> <s_lp_Variant>
AV-unprocessed.smi:2063-3

> <Gold.Version>
5.8.1

> <Gold.Id.Protein>
6NUR|6NUR_protein|mol2

> <Gold.PLP.Fitness>
35.3849

> <Gold.PLP.PLP>
-27.0524

> <Gold.PLP.part.hbond>
-3.9724

> <Gold.PLP.part.metal>
0.0000

> <Gold.PLP.part.buried>
-4.1624

> <Gold.PLP.part.nonpolar>
-19.7312

> <Gold.PLP.part.repulsive>
0.3169

> <Gold.PLP.ligand.clash>
0.0000

> <Gold.PLP.ligand.torsion>
0.3837

> <Gold.PLP.Chemscore.Hbond>
3.0000

> <Gold.PLP.Chemscore.CHOScore>
0.0000

> <Gold.PLP.Chemscore.Metal>
0.0000

> <Gold.Chemscore.Hbonds>
donor molecule, donor type, donor heavy atom, donor atom, acceptor molecule, acceptor atom, score
      L1  H     8    27       P1  7948  0.45
      L1  H    11    28       P1  7948  0.80
      P1  H 10752 10764       L1     6  0.02

> <Gold.PLP.Chemscore.Internal.Correction>
0.0998

> <Gold.Rescore>
     Score         DG    S(hbond)    S(metal)    S(lipo)     H(rot)  DE(clash)    DE(int)     intcor
     14.42     -15.29       2.13        0.00      53.87       1.42       0.22       0.64       ----

> <Gold.Chemscore.Fitness>
14.4191

> <Gold.Chemscore.DG>
-15.2866

> <Gold.Chemscore.ZeroCoef>
-5.4800

> <Gold.Chemscore.Hbond>
2.1337

> <Gold.Chemscore.Metal>
0.0000

> <Gold.Chemscore.Lipo>
53.8726

> <Gold.Chemscore.Internal_Hbond>
0.0000

> <Gold.Chemscore.DEClash>
0.2247

> <Gold.Chemscore.DEInternal>
0.6428

> <Gold.Chemscore.Rot>
1.4152

> <Gold.Chemscore.Internal.Correction>
   9.000000E+99

> <Gold.Chemscore.Hbonds>
donor molecule, donor type, donor heavy atom, donor atom, acceptor molecule, acceptor atom, score
      L1  H     8    27       P1  7948  0.02
      L1  H    11    28       P1  7948  0.11

> <Gold.Chemscore.Hbond.Weighted>
-7.1264

> <Gold.Chemscore.Metal.Weighted>
-0.0000

> <Gold.Chemscore.Lipo.Weighted>
-6.3031

> <Gold.Chemscore.Internal_Hbond.Weighted>
0.0000

> <Gold.Chemscore.DEClash.Weighted>
0.2247

> <Gold.Chemscore.DEInternal.Weighted>
0.6428

> <Gold.Chemscore.Rot.Weighted>
3.6229

> <Gold.Chemscore.Internal.Correction.Weighted>
   9.000000E+99

> <Gold.Protein.RotatedTorsions>
[ 6907 6896 6895 6894 ] final   62.16 input  -60.11 | X-H torsion
[ 7974 7965 7964 7962 ] final  -54.49 input  175.53 | X-H torsion
[ 8008 7997 7996 7995 ] final  108.31 input   59.86 | X-H torsion
[ 10167 10162 10161 10158 ] final -166.06 input  -65.29 | X-H torsion
[ 10718 10713 10712 10709 ] final  135.76 input   66.30 | X-H torsion
[ 10763 10752 10751 10750 ] final  -75.55 input  -60.55 | X-H torsion
[ 11005 11000 10999 10996 ] final  -17.70 input  -57.11 | X-H torsion

> <Gold.Protein.ActiveResidues>
 VAL166  LYS551  ARG553  GLY616  TRP617  ASP618  TYR619  PRO620  LYS621  CYS622 
 ASP623  PHE694  ASN695  SER759  ASP760  ASP761  ALA762  ILE779  LEU786  VAL792 
 PHE793  MET794  SER795  GLU796  ALA797  LYS798  CYS799  TRP800  GLU811  SER814 

> <Gold.Protein.RotatedAtoms>
  152.4149  134.6059  160.0012 H   0  0  0  0  0  0  0  0  0  0  0  0  # atno 6907 bound_to 6896
  151.6225  133.3332  159.3099 H   0  0  0  0  0  0  0  0  0  0  0  0  # atno 6908 bound_to 6896
  150.8038  134.7189  159.6691 H   0  0  0  0  0  0  0  0  0  0  0  0  # atno 6909 bound_to 6896
  145.8850  140.8115  142.9821 H   0  0  0  0  0  0  0  0  0  0  0  0  # atno 7974 bound_to 7965
  156.1893  140.3079  155.9300 H   0  0  0  0  0  0  0  0  0  0  0  0  # atno 8008 bound_to 7997
  155.3210  140.0456  157.3056 H   0  0  0  0  0  0  0  0  0  0  0  0  # atno 8009 bound_to 7997
  154.5433  140.2268  155.8615 H   0  0  0  0  0  0  0  0  0  0  0  0  # atno 8010 bound_to 7997
  139.6140  144.0757  152.1870 H   0  0  0  0  0  0  0  0  0  0  0  0  # atno 10167 bound_to 10162
  157.4537  131.1068  151.0003 H   0  0  0  0  0  0  0  0  0  0  0  0  # atno 10718 bound_to 10713
  154.4880  135.5827  153.6438 H   0  0  0  0  0  0  0  0  0  0  0  0  # atno 10763 bound_to 10752
  152.9858  135.6106  154.3161 H   0  0  0  0  0  0  0  0  0  0  0  0  # atno 10764 bound_to 10752
  154.3058  135.2846  155.2569 H   0  0  0  0  0  0  0  0  0  0  0  0  # atno 10765 bound_to 10752
  140.8195  133.8079  155.9645 H   0  0  0  0  0  0  0  0  0  0  0  0  # atno 11005 bound_to 11000
  144.6728  140.1441  143.7435 LP  0  0  0  0  0  0  0  0  0  0  0  0  # atno 17320 bound_to 7965
  145.8978  139.2413  143.1511 LP  0  0  0  0  0  0  0  0  0  0  0  0  # atno 17321 bound_to 7965
  140.0382  144.6028  150.7432 LP  0  0  0  0  0  0  0  0  0  0  0  0  # atno 17342 bound_to 10162
  140.7338  143.2722  151.3853 LP  0  0  0  0  0  0  0  0  0  0  0  0  # atno 17343 bound_to 10162
  157.0824  130.5908  149.5423 LP  0  0  0  0  0  0  0  0  0  0  0  0  # atno 17370 bound_to 10713
  155.9998  130.5075  150.7620 LP  0  0  0  0  0  0  0  0  0  0  0  0  # atno 17371 bound_to 10713
  140.9114  134.2256  157.4983 LP  0  0  0  0  0  0  0  0  0  0  0  0  # atno 17394 bound_to 11000
  139.8709  134.9752  156.4873 LP  0  0  0  0  0  0  0  0  0  0  0  0  # atno 17395 bound_to 11000

$$$$
