AV-unprocessed.smi:1089|AV-procd|sdf|4734|dock6
  -GOLD-   22720 3273D 1   1.00000     0.00000
 Structure written by MMmdl.
 18 19  0  0  0  0  0  0  0  0  2 V2000
  143.4990  132.4591  150.2021 C   0  0  0  0  0  0  0  0  0  0  0  0
  144.5060  131.5968  149.8723 N   0  0  0  0  0  0  0  0  0  0  0  0
  145.5503  132.3191  150.2528 C   0  0  0  0  0  0  0  0  0  0  0  0
  145.2261  133.5076  150.7661 N   0  0  0  0  0  0  0  0  0  0  0  0
  146.0546  134.5588  151.2817 C   0  0  0  0  0  0  0  0  0  0  0  0
  145.8902  135.0607  152.7158 C   0  0  0  0  0  0  0  0  0  0  0  0
  146.2491  136.3872  152.2287 N   0  3  0  0  0  0  0  0  0  0  0  0
  145.8164  136.0159  150.8870 C   0  0  0  0  0  0  0  0  0  0  0  0
  143.8767  133.6185  150.7411 N   0  0  0  0  0  0  0  0  0  0  0  0
  142.4569  132.2257  150.0402 H   0  0  0  0  0  0  0  0  0  0  0  0
  146.5692  131.9742  150.1550 H   0  0  0  0  0  0  0  0  0  0  0  0
  147.0913  134.2715  151.0899 H   0  0  0  0  0  0  0  0  0  0  0  0
  144.8630  135.0256  153.0840 H   0  0  0  0  0  0  0  0  0  0  0  0
  146.5976  134.6441  153.4331 H   0  0  0  0  0  0  0  0  0  0  0  0
  145.7107  137.1356  152.6414 H   0  0  0  0  0  0  0  0  0  0  0  0
  146.4630  136.3889  150.0923 H   0  0  0  0  0  0  0  0  0  0  0  0
  144.7675  136.2636  150.7134 H   0  0  0  0  0  0  0  0  0  0  0  0
  147.2470  136.5377  152.2671 H   0  0  0  0  0  0  0  0  0  0  0  0
  1  9  2  0  0  0  0
  1  2  1  0  0  0  0
  1 10  1  0  0  0  0
  2  3  2  0  0  0  0
  3  4  1  0  0  0  0
  3 11  1  0  0  0  0
  4  5  1  0  0  0  0
  4  9  1  0  0  0  0
  5  8  1  0  0  0  0
  5  6  1  0  0  0  0
  5 12  1  0  0  0  0
  6  7  1  0  0  0  0
  6 13  1  0  0  0  0
  6 14  1  0  0  0  0
  7  8  1  0  0  0  0
  7 15  1  0  0  0  0
  7 18  1  0  0  0  0
  8 16  1  0  0  0  0
  8 17  1  0  0  0  0
M  CHG  1   7   1
M  END
> <s_m_source_file>
AV-unprocessed.smi

> <i_m_source_file_index>
1089

> <i_lp_mmshare_version>
43012

> <i_f3d_flags>
0

> <s_epik_input>
bjFbY0hdbltjSF1uMVtDSF0yW0NIMl1bTkhdW0NIMl0y

> <s_epik_cmdline>
J2VwaWtfcHl0aG9uJywgJy1waCcsICc3LjAnLCAnLXRuJywgJzgnLCAnLW1hJywgJzIwMCcsICctbWV0YWxfYmluZGluZycsICctaW1hZScsICc8aW5maWxlLm1hZT4nLCAnLW9tYWUnLCAnPG91dGZpbGUubWFlPic=

> <r_lp_tautomer_probability>
1

> <r_epik_Ionization_Penalty>
0.0079223

> <r_epik_Ionization_Penalty_Charging>
0.00792139

> <r_epik_Ionization_Penalty_Neutral>
9.13162e-07

> <r_epik_State_Penalty>
0.00594323

> <r_epik_Charging_Adjusted_Penalty>
0.0138646

> <i_epik_Tot_Q>
1

> <i_epik_Tot_abs_Q>
1

> <r_epik_Metal_State_Penalty>
-0

> <b_epik_Metal_Only>
0

> <s_lp_Force_Field>
OPLS_2005

> <r_lp_Energy>
16.5639

> <b_lp_Chiralities_Consistent>
1

> <s_lp_Variant>
AV-unprocessed.smi:1089-1

> <Gold.Version>
5.8.1

> <Gold.Id.Protein>
6NUR|6NUR_protein|mol2

> <Gold.PLP.Fitness>
29.2405

> <Gold.PLP.PLP>
-16.3377

> <Gold.PLP.part.hbond>
-2.0000

> <Gold.PLP.part.metal>
0.0000

> <Gold.PLP.part.buried>
-2.3247

> <Gold.PLP.part.nonpolar>
-12.6318

> <Gold.PLP.part.repulsive>
0.3620

> <Gold.PLP.ligand.clash>
0.0000

> <Gold.PLP.ligand.torsion>
0.1726

> <Gold.PLP.Chemscore.Hbond>
2.1987

> <Gold.PLP.Chemscore.CHOScore>
2.1354

> <Gold.PLP.Chemscore.Metal>
0.0000

> <Gold.Chemscore.Hbonds>
donor molecule, donor type, donor heavy atom, donor atom, acceptor molecule, acceptor atom, score
      L1  H     7    18       P1  7948  2.00
      P1  H 10785 10796       L1     2  0.19
      L1  C     1    10       P1 10186  0.43
      L1  C     1    10       P1 10952  1.00
      L1  C     3    11       P1 10747  0.71

> <Gold.PLP.Chemscore.Internal.Correction>
0.2457

> <Gold.Rescore>
     Score         DG    S(hbond)    S(metal)    S(lipo)     H(rot)  DE(clash)    DE(int)     intcor
      9.99     -10.17       1.62        0.00      15.72       1.00       0.05       0.13       ----

> <Gold.Chemscore.Fitness>
9.9895

> <Gold.Chemscore.DG>
-10.1697

> <Gold.Chemscore.ZeroCoef>
-5.4800

> <Gold.Chemscore.Hbond>
1.6200

> <Gold.Chemscore.Metal>
0.0000

> <Gold.Chemscore.Lipo>
15.7160

> <Gold.Chemscore.Internal_Hbond>
0.0000

> <Gold.Chemscore.DEClash>
0.0458

> <Gold.Chemscore.DEInternal>
0.1344

> <Gold.Chemscore.Rot>
1.0000

> <Gold.Chemscore.Internal.Correction>
   9.000000E+99

> <Gold.Chemscore.Hbonds>
donor molecule, donor type, donor heavy atom, donor atom, acceptor molecule, acceptor atom, score
      L1  H     7    18       P1  7948  0.98
      P1  H 10785 10796       L1     2  0.03

> <Gold.Chemscore.Hbond.Weighted>
-5.4110

> <Gold.Chemscore.Metal.Weighted>
-0.0000

> <Gold.Chemscore.Lipo.Weighted>
-1.8388

> <Gold.Chemscore.Internal_Hbond.Weighted>
0.0000

> <Gold.Chemscore.DEClash.Weighted>
0.0458

> <Gold.Chemscore.DEInternal.Weighted>
0.1344

> <Gold.Chemscore.Rot.Weighted>
2.5600

> <Gold.Chemscore.Internal.Correction.Weighted>
   9.000000E+99

> <Gold.Protein.RotatedTorsions>
[ 6907 6896 6895 6894 ] final  -33.30 input  -60.11 | X-H torsion
[ 7974 7965 7964 7962 ] final    4.00 input  175.53 | X-H torsion
[ 8008 7997 7996 7995 ] final  130.91 input   59.86 | X-H torsion
[ 10167 10162 10161 10158 ] final  -94.75 input  -65.29 | X-H torsion
[ 10718 10713 10712 10709 ] final -157.50 input   66.30 | X-H torsion
[ 10763 10752 10751 10750 ] final   57.86 input  -60.55 | X-H torsion
[ 11005 11000 10999 10996 ] final -119.08 input  -57.11 | X-H torsion

> <Gold.Protein.ActiveResidues>
 VAL166  LYS551  ARG553  GLY616  TRP617  ASP618  TYR619  PRO620  LYS621  CYS622 
 ASP623  PHE694  ASN695  SER759  ASP760  ASP761  ALA762  ILE779  LEU786  VAL792 
 PHE793  MET794  SER795  GLU796  ALA797  LYS798  CYS799  TRP800  GLU811  SER814 

> <Gold.Protein.RotatedAtoms>
  151.0674  134.9776  159.8290 H   0  0  0  0  0  0  0  0  0  0  0  0  # atno 6907 bound_to 6896
  152.5404  134.2342  159.8847 H   0  0  0  0  0  0  0  0  0  0  0  0  # atno 6908 bound_to 6896
  151.2365  133.4379  159.2639 H   0  0  0  0  0  0  0  0  0  0  0  0  # atno 6909 bound_to 6896
  146.2444  140.0600  142.8369 H   0  0  0  0  0  0  0  0  0  0  0  0  # atno 7974 bound_to 7965
  156.2962  140.2584  156.2840 H   0  0  0  0  0  0  0  0  0  0  0  0  # atno 8008 bound_to 7997
  154.9574  140.0393  157.2192 H   0  0  0  0  0  0  0  0  0  0  0  0  # atno 8009 bound_to 7997
  154.7978  140.2823  155.5948 H   0  0  0  0  0  0  0  0  0  0  0  0  # atno 8010 bound_to 7997
  140.3113  143.3103  152.0145 H   0  0  0  0  0  0  0  0  0  0  0  0  # atno 10167 bound_to 10162
  156.5412  130.8564  151.2749 H   0  0  0  0  0  0  0  0  0  0  0  0  # atno 10718 bound_to 10713
  152.9858  135.5627  154.5459 H   0  0  0  0  0  0  0  0  0  0  0  0  # atno 10763 bound_to 10752
  154.4905  135.2792  155.1502 H   0  0  0  0  0  0  0  0  0  0  0  0  # atno 10764 bound_to 10752
  154.2974  135.6314  153.5463 H   0  0  0  0  0  0  0  0  0  0  0  0  # atno 10765 bound_to 10752
  141.0240  134.0081  157.3241 H   0  0  0  0  0  0  0  0  0  0  0  0  # atno 11005 bound_to 11000
  145.0908  140.9283  143.4770 LP  0  0  0  0  0  0  0  0  0  0  0  0  # atno 17320 bound_to 7965
  145.0773  139.2986  143.5802 LP  0  0  0  0  0  0  0  0  0  0  0  0  # atno 17321 bound_to 7965
  139.4893  144.6382  151.6931 LP  0  0  0  0  0  0  0  0  0  0  0  0  # atno 17342 bound_to 10162
  140.5566  144.0338  150.6150 LP  0  0  0  0  0  0  0  0  0  0  0  0  # atno 17343 bound_to 10162
  157.7405  130.9851  150.2381 LP  0  0  0  0  0  0  0  0  0  0  0  0  # atno 17370 bound_to 10713
  156.2970  130.3753  149.7786 LP  0  0  0  0  0  0  0  0  0  0  0  0  # atno 17371 bound_to 10713
  139.9164  135.0197  156.7898 LP  0  0  0  0  0  0  0  0  0  0  0  0  # atno 17394 bound_to 11000
  140.6523  133.9720  155.7761 LP  0  0  0  0  0  0  0  0  0  0  0  0  # atno 17395 bound_to 11000

$$$$
