AV-unprocessed.smi:1684|AV-procd|sdf|6755|dock5
  -GOLD-   22720 7513D 1   1.00000     0.00000
 Structure written by MMmdl.
 43 44  0  0  0  0  0  0  0  0  2 V2000
  150.8203  143.7487  158.3232 C   0  0  0  0  0  0  0  0  0  0  0  0
  151.6986  143.0121  159.3216 C   0  0  0  0  0  0  0  0  0  0  0  0
  152.1641  143.6944  160.4659 C   0  0  0  0  0  0  0  0  0  0  0  0
  152.9747  143.0118  161.3888 C   0  0  0  0  0  0  0  0  0  0  0  0
  153.2873  141.6670  161.1270 C   0  0  0  0  0  0  0  0  0  0  0  0
  152.8463  141.0071  160.0366 N   0  0  0  0  0  0  0  0  0  0  0  0
  152.0655  141.6526  159.1339 C   0  0  0  0  0  0  0  0  0  0  0  0
  151.5613  141.0185  157.9631 N   0  0  0  0  0  0  0  0  0  0  0  0
  152.1231  140.0341  157.2401 C   0  0  0  0  0  0  0  0  0  0  0  0
  153.2327  139.5422  157.4465 O   0  0  0  0  0  0  0  0  0  0  0  0
  151.3099  139.6304  156.2519 N   0  0  0  0  0  0  0  0  0  0  0  0
  151.6022  138.5836  155.2709 C   0  0  2  0  0  0  0  0  0  0  0  0
  152.9271  138.9132  154.5698 C   0  0  0  0  0  0  0  0  0  0  0  0
  150.4519  138.4268  154.2486 C   0  0  0  0  0  0  0  0  0  0  0  0
  149.7498  137.1230  154.3579 N   0  3  0  0  0  0  0  0  0  0  0  0
  150.6474  136.0020  154.7206 C   0  0  0  0  0  0  0  0  0  0  0  0
  149.8651  134.6772  154.7205 C   0  0  0  0  0  0  0  0  0  0  0  0
  148.7613  134.7712  155.6132 O   0  0  0  0  0  0  0  0  0  0  0  0
  147.8523  135.7978  155.2330 C   0  0  0  0  0  0  0  0  0  0  0  0
  148.5729  137.1556  155.2592 C   0  0  0  0  0  0  0  0  0  0  0  0
  150.6267  144.7728  158.6439 H   0  0  0  0  0  0  0  0  0  0  0  0
  149.8592  143.2451  158.2143 H   0  0  0  0  0  0  0  0  0  0  0  0
  151.3043  143.7889  157.3469 H   0  0  0  0  0  0  0  0  0  0  0  0
  151.9045  144.7288  160.6379 H   0  0  0  0  0  0  0  0  0  0  0  0
  153.3469  143.5059  162.2741 H   0  0  0  0  0  0  0  0  0  0  0  0
  153.9064  141.1053  161.8106 H   0  0  0  0  0  0  0  0  0  0  0  0
  150.6559  141.3410  157.6553 H   0  0  0  0  0  0  0  0  0  0  0  0
  150.4179  140.0948  156.1593 H   0  0  0  0  0  0  0  0  0  0  0  0
  151.7505  137.6380  155.7942 H   0  0  0  0  0  0  0  0  0  0  0  0
  153.2019  138.1295  153.8632 H   0  0  0  0  0  0  0  0  0  0  0  0
  153.7414  139.0047  155.2896 H   0  0  0  0  0  0  0  0  0  0  0  0
  152.8640  139.8514  154.0174 H   0  0  0  0  0  0  0  0  0  0  0  0
  149.7364  139.2328  154.4190 H   0  0  0  0  0  0  0  0  0  0  0  0
  150.8187  138.5596  153.2297 H   0  0  0  0  0  0  0  0  0  0  0  0
  151.4710  135.9392  154.0085 H   0  0  0  0  0  0  0  0  0  0  0  0
  151.0834  136.1836  155.7044 H   0  0  0  0  0  0  0  0  0  0  0  0
  149.5150  134.4327  153.7163 H   0  0  0  0  0  0  0  0  0  0  0  0
  150.5101  133.8591  155.0411 H   0  0  0  0  0  0  0  0  0  0  0  0
  147.4441  135.5926  154.2417 H   0  0  0  0  0  0  0  0  0  0  0  0
  147.0134  135.8033  155.9289 H   0  0  0  0  0  0  0  0  0  0  0  0
  148.8926  137.3898  156.2758 H   0  0  0  0  0  0  0  0  0  0  0  0
  147.8800  137.9394  154.9545 H   0  0  0  0  0  0  0  0  0  0  0  0
  149.4007  136.9135  153.4331 H   0  0  0  0  0  0  0  0  0  0  0  0
  1  2  1  0  0  0  0
  1 21  1  0  0  0  0
  1 22  1  0  0  0  0
  1 23  1  0  0  0  0
  2  7  1  0  0  0  0
  2  3  2  0  0  0  0
  3  4  1  0  0  0  0
  3 24  1  0  0  0  0
  4  5  2  0  0  0  0
  4 25  1  0  0  0  0
  5  6  1  0  0  0  0
  5 26  1  0  0  0  0
  6  7  2  0  0  0  0
  7  8  1  0  0  0  0
  8  9  1  0  0  0  0
  8 27  1  0  0  0  0
  9 10  2  0  0  0  0
  9 11  1  0  0  0  0
 11 12  1  0  0  0  0
 11 28  1  0  0  0  0
 12 13  1  0  0  0  0
 12 14  1  0  0  0  0
 12 29  1  0  0  0  0
 13 30  1  0  0  0  0
 13 31  1  0  0  0  0
 13 32  1  0  0  0  0
 14 15  1  0  0  0  0
 14 33  1  0  0  0  0
 14 34  1  0  0  0  0
 15 20  1  0  0  0  0
 15 16  1  0  0  0  0
 15 43  1  0  0  0  0
 16 17  1  0  0  0  0
 16 35  1  0  0  0  0
 16 36  1  0  0  0  0
 17 18  1  0  0  0  0
 17 37  1  0  0  0  0
 17 38  1  0  0  0  0
 18 19  1  0  0  0  0
 19 20  1  0  0  0  0
 19 39  1  0  0  0  0
 19 40  1  0  0  0  0
 20 41  1  0  0  0  0
 20 42  1  0  0  0  0
M  CHG  1  15   1
M  END
> <s_m_source_file>
AV-unprocessed.smi

> <i_m_source_file_index>
1684

> <i_lp_mmshare_version>
43012

> <i_f3d_flags>
0

> <s_epik_input>
W0NIM11jMVtjSF1bY0hdW2NIXW5jMVtOSF1DKD1PKVtOSF1bQ0BIXShbQ0gzXSlbQ0gyXU4yW0NIMl1bQ0gyXU9bQ0gyXVtDSDJdMg==

> <s_epik_cmdline>
J2VwaWtfcHl0aG9uJywgJy1waCcsICc3LjAnLCAnLXRuJywgJzgnLCAnLW1hJywgJzIwMCcsICctbWV0YWxfYmluZGluZycsICctaW1hZScsICc8aW5maWxlLm1hZT4nLCAnLW9tYWUnLCAnPG91dGZpbGUubWFlPic=

> <r_epik_Ionization_Penalty>
0.602571

> <r_epik_Ionization_Penalty_Charging>
0.602531

> <r_epik_Ionization_Penalty_Neutral>
4.09763e-05

> <r_epik_State_Penalty>
0.617039

> <r_epik_Charging_Adjusted_Penalty>
1.21957

> <i_epik_Tot_Q>
1

> <i_epik_Tot_abs_Q>
1

> <r_epik_Metal_State_Penalty>
0.617043

> <b_epik_Metal_Only>
0

> <s_lp_Force_Field>
OPLS_2005

> <r_lp_Energy>
24.8117

> <b_lp_Chiralities_Consistent>
1

> <s_lp_Variant>
AV-unprocessed.smi:1684-3

> <Gold.Version>
5.8.1

> <Gold.Id.Protein>
6NUR|6NUR_protein|mol2

> <Gold.PLP.Fitness>
42.8768

> <Gold.PLP.PLP>
-36.4307

> <Gold.PLP.part.hbond>
-2.1503

> <Gold.PLP.part.metal>
0.0000

> <Gold.PLP.part.buried>
-4.3351

> <Gold.PLP.part.nonpolar>
-30.6848

> <Gold.PLP.part.repulsive>
0.2748

> <Gold.PLP.ligand.clash>
0.0000

> <Gold.PLP.ligand.torsion>
1.2924

> <Gold.PLP.Chemscore.Hbond>
3.0000

> <Gold.PLP.Chemscore.CHOScore>
0.0000

> <Gold.PLP.Chemscore.Metal>
0.0000

> <Gold.Chemscore.Hbonds>
donor molecule, donor type, donor heavy atom, donor atom, acceptor molecule, acceptor atom, score
      L1  H    15    43       P1  7948  2.00
      P1  H  7997  8009       L1    10  0.88

> <Gold.PLP.Chemscore.Internal.Correction>
0.0309

> <Gold.Rescore>
     Score         DG    S(hbond)    S(metal)    S(lipo)     H(rot)  DE(clash)    DE(int)     intcor
     15.80     -18.97       1.90        0.00      93.92       1.51       0.00       3.17       ----

> <Gold.Chemscore.Fitness>
15.8049

> <Gold.Chemscore.DG>
-18.9713

> <Gold.Chemscore.ZeroCoef>
-5.4800

> <Gold.Chemscore.Hbond>
1.9039

> <Gold.Chemscore.Metal>
0.0000

> <Gold.Chemscore.Lipo>
93.9153

> <Gold.Chemscore.Internal_Hbond>
0.0000

> <Gold.Chemscore.DEClash>
0.0000

> <Gold.Chemscore.DEInternal>
3.1664

> <Gold.Chemscore.Rot>
1.5061

> <Gold.Chemscore.Internal.Correction>
   9.000000E+99

> <Gold.Chemscore.Hbonds>
donor molecule, donor type, donor heavy atom, donor atom, acceptor molecule, acceptor atom, score
      L1  H    15    43       P1  7948  0.93
      P1  H  7997  8009       L1    10  0.83

> <Gold.Chemscore.Hbond.Weighted>
-6.3590

> <Gold.Chemscore.Metal.Weighted>
-0.0000

> <Gold.Chemscore.Lipo.Weighted>
-10.9881

> <Gold.Chemscore.Internal_Hbond.Weighted>
0.0000

> <Gold.Chemscore.DEClash.Weighted>
0.0000

> <Gold.Chemscore.DEInternal.Weighted>
3.1664

> <Gold.Chemscore.Rot.Weighted>
3.8557

> <Gold.Chemscore.Internal.Correction.Weighted>
   9.000000E+99

> <Gold.Protein.RotatedTorsions>
[ 6907 6896 6895 6894 ] final  108.58 input  -60.11 | X-H torsion
[ 7974 7965 7964 7962 ] final   -0.17 input  175.53 | X-H torsion
[ 8008 7997 7996 7995 ] final  177.28 input   59.86 | X-H torsion
[ 10167 10162 10161 10158 ] final  175.02 input  -65.29 | X-H torsion
[ 10718 10713 10712 10709 ] final -105.95 input   66.30 | X-H torsion
[ 10763 10752 10751 10750 ] final -141.08 input  -60.55 | X-H torsion
[ 11005 11000 10999 10996 ] final   10.92 input  -57.11 | X-H torsion

> <Gold.Protein.ActiveResidues>
 VAL166  LYS551  ARG553  GLY616  TRP617  ASP618  TYR619  PRO620  LYS621  CYS622 
 ASP623  PHE694  ASN695  SER759  ASP760  ASP761  ALA762  ILE779  LEU786  VAL792 
 PHE793  MET794  SER795  GLU796  ALA797  LYS798  CYS799  TRP800  GLU811  SER814 

> <Gold.Protein.RotatedAtoms>
  152.5106  133.9068  159.7467 H   0  0  0  0  0  0  0  0  0  0  0  0  # atno 6907 bound_to 6896
  150.9471  133.6583  159.2786 H   0  0  0  0  0  0  0  0  0  0  0  0  # atno 6908 bound_to 6896
  151.3874  135.0955  159.9568 H   0  0  0  0  0  0  0  0  0  0  0  0  # atno 6909 bound_to 6896
  146.2429  140.1229  142.8340 H   0  0  0  0  0  0  0  0  0  0  0  0  # atno 7974 bound_to 7965
  156.0673  140.1362  156.9870 H   0  0  0  0  0  0  0  0  0  0  0  0  # atno 8008 bound_to 7997
  154.4513  140.0979  156.6678 H   0  0  0  0  0  0  0  0  0  0  0  0  # atno 8009 bound_to 7997
  155.5283  140.3458  155.4423 H   0  0  0  0  0  0  0  0  0  0  0  0  # atno 8010 bound_to 7997
  139.5162  144.3080  152.0318 H   0  0  0  0  0  0  0  0  0  0  0  0  # atno 10167 bound_to 10162
  156.0368  130.5589  150.7612 H   0  0  0  0  0  0  0  0  0  0  0  0  # atno 10718 bound_to 10713
  154.8557  135.3534  154.5810 H   0  0  0  0  0  0  0  0  0  0  0  0  # atno 10763 bound_to 10752
  153.6421  135.6998  153.5242 H   0  0  0  0  0  0  0  0  0  0  0  0  # atno 10764 bound_to 10752
  153.2962  135.4220  155.1170 H   0  0  0  0  0  0  0  0  0  0  0  0  # atno 10765 bound_to 10752
  140.5090  134.0671  155.7813 H   0  0  0  0  0  0  0  0  0  0  0  0  # atno 11005 bound_to 11000
  145.0391  140.8931  143.5063 LP  0  0  0  0  0  0  0  0  0  0  0  0  # atno 17320 bound_to 7965
  145.1307  139.2634  143.5541 LP  0  0  0  0  0  0  0  0  0  0  0  0  # atno 17321 bound_to 7965
  140.2525  144.4153  150.6216 LP  0  0  0  0  0  0  0  0  0  0  0  0  # atno 17342 bound_to 10162
  140.6214  143.2177  151.6686 LP  0  0  0  0  0  0  0  0  0  0  0  0  # atno 17343 bound_to 10162
  157.5131  131.0927  151.0173 LP  0  0  0  0  0  0  0  0  0  0  0  0  # atno 17370 bound_to 10713
  157.0523  130.5792  149.5372 LP  0  0  0  0  0  0  0  0  0  0  0  0  # atno 17371 bound_to 10713
  141.1395  133.9162  157.2357 LP  0  0  0  0  0  0  0  0  0  0  0  0  # atno 17394 bound_to 11000
  139.9670  135.0139  156.9412 LP  0  0  0  0  0  0  0  0  0  0  0  0  # atno 17395 bound_to 11000

$$$$
