AV-unprocessed.smi:1406|AV-procd|sdf|5720|dock8
  -GOLD-   22720 5353D 1   1.00000     0.00000
 Structure written by MMmdl.
 41 43  0  0  0  0  0  0  0  0  2 V2000
  153.2041  138.5825  154.5086 C   0  0  0  0  0  0  0  0  0  0  0  0
  152.2260  138.6325  155.6999 C   0  0  1  0  0  0  0  0  0  0  0  0
  151.2703  139.8351  155.6385 C   0  0  0  0  0  0  0  0  0  0  0  0
  150.4965  139.9782  154.6912 O   0  0  0  0  0  0  0  0  0  0  0  0
  151.3376  140.6999  156.6633 N   0  0  0  0  0  0  0  0  0  0  0  0
  150.5069  141.8903  156.8164 C   0  0  1  0  0  0  0  0  0  0  0  0
  149.0399  141.5579  157.1408 C   0  0  0  0  0  0  0  0  0  0  0  0
  148.5858  142.6429  158.1374 C   0  0  0  0  0  0  0  0  0  0  0  0
  149.7307  143.5650  158.2603 N   0  3  1  0  0  0  0  0  0  0  0  0
  149.8245  144.3618  159.5029 C   0  0  0  0  0  0  0  0  0  0  0  0
  151.0281  145.3201  159.4017 C   0  0  0  0  0  0  0  0  0  0  0  0
  152.3289  144.5693  159.0512 C   0  0  0  0  0  0  0  0  0  0  0  0
  152.1423  143.6836  157.8042 C   0  0  0  0  0  0  0  0  0  0  0  0
  150.9322  142.7554  158.0060 C   0  0  2  0  0  0  0  0  0  0  0  0
  151.4718  137.3931  155.8404 N   0  0  0  0  0  0  0  0  0  0  0  0
  150.1605  137.1687  155.7296 C   0  0  0  0  0  0  0  0  0  0  0  0
  149.8171  135.8969  155.8766 N   0  0  0  0  0  0  0  0  0  0  0  0
  151.0516  135.3497  156.0833 C   0  0  0  0  0  0  0  0  0  0  0  0
  152.0780  136.1999  156.0615 N   0  0  0  0  0  0  0  0  0  0  0  0
  153.7995  139.4943  154.4496 H   0  0  0  0  0  0  0  0  0  0  0  0
  152.6851  138.4644  153.5565 H   0  0  0  0  0  0  0  0  0  0  0  0
  153.8975  137.7471  154.6110 H   0  0  0  0  0  0  0  0  0  0  0  0
  152.8264  138.7462  156.6042 H   0  0  0  0  0  0  0  0  0  0  0  0
  152.0006  140.5074  157.4003 H   0  0  0  0  0  0  0  0  0  0  0  0
  150.5267  142.4910  155.9044 H   0  0  0  0  0  0  0  0  0  0  0  0
  148.4294  141.5548  156.2370 H   0  0  0  0  0  0  0  0  0  0  0  0
  148.9461  140.5735  157.6017 H   0  0  0  0  0  0  0  0  0  0  0  0
  147.6968  143.1749  157.7977 H   0  0  0  0  0  0  0  0  0  0  0  0
  148.3614  142.1914  159.1052 H   0  0  0  0  0  0  0  0  0  0  0  0
  148.9035  144.9281  159.6458 H   0  0  0  0  0  0  0  0  0  0  0  0
  149.9337  143.6992  160.3629 H   0  0  0  0  0  0  0  0  0  0  0  0
  150.8285  146.0688  158.6337 H   0  0  0  0  0  0  0  0  0  0  0  0
  151.1518  145.8657  160.3376 H   0  0  0  0  0  0  0  0  0  0  0  0
  153.1409  145.2791  158.8896 H   0  0  0  0  0  0  0  0  0  0  0  0
  152.6264  143.9470  159.8965 H   0  0  0  0  0  0  0  0  0  0  0  0
  151.9952  144.3083  156.9220 H   0  0  0  0  0  0  0  0  0  0  0  0
  153.0457  143.0993  157.6279 H   0  0  0  0  0  0  0  0  0  0  0  0
  151.1081  142.1124  158.8719 H   0  0  0  0  0  0  0  0  0  0  0  0
  149.4422  137.9513  155.5330 H   0  0  0  0  0  0  0  0  0  0  0  0
  151.1989  134.2925  156.2478 H   0  0  0  0  0  0  0  0  0  0  0  0
  149.6583  144.2155  157.4909 H   0  0  0  0  0  0  0  0  0  0  0  0
  1  2  1  0  0  0  0
  1 20  1  0  0  0  0
  1 21  1  0  0  0  0
  1 22  1  0  0  0  0
  2  3  1  0  0  0  0
  2 15  1  0  0  0  0
  2 23  1  0  0  0  0
  3  4  2  0  0  0  0
  3  5  1  0  0  0  0
  5  6  1  0  0  0  0
  5 24  1  0  0  0  0
  6 14  1  0  0  0  0
  6  7  1  0  0  0  0
  6 25  1  0  0  0  0
  7  8  1  0  0  0  0
  7 26  1  0  0  0  0
  7 27  1  0  0  0  0
  8  9  1  0  0  0  0
  8 28  1  0  0  0  0
  8 29  1  0  0  0  0
  9 14  1  0  0  0  0
  9 10  1  0  0  0  0
  9 41  1  0  0  0  0
 10 11  1  0  0  0  0
 10 30  1  0  0  0  0
 10 31  1  0  0  0  0
 11 12  1  0  0  0  0
 11 32  1  0  0  0  0
 11 33  1  0  0  0  0
 12 13  1  0  0  0  0
 12 34  1  0  0  0  0
 12 35  1  0  0  0  0
 13 14  1  0  0  0  0
 13 36  1  0  0  0  0
 13 37  1  0  0  0  0
 14 38  1  0  0  0  0
 15 19  1  0  0  0  0
 15 16  1  0  0  0  0
 16 17  2  0  0  0  0
 16 39  1  0  0  0  0
 17 18  1  0  0  0  0
 18 19  2  0  0  0  0
 18 40  1  0  0  0  0
M  CHG  1   9   1
M  END
> <s_m_source_file>
AV-unprocessed.smi

> <i_m_source_file_index>
1406

> <i_lp_mmshare_version>
43012

> <i_f3d_flags>
0

> <s_epik_input>
bjFbY0hdbltjSF1uMVtDQEhdKFtDSDNdKUMoPU8pW05IXVtDQEhdKFtDSDJdW0NIMl0yKVtDQEBIXShOMjMpW0NIMl1bQ0gyXVtDSDJdW0NIMl0z

> <s_epik_cmdline>
J2VwaWtfcHl0aG9uJywgJy1waCcsICc3LjAnLCAnLXRuJywgJzgnLCAnLW1hJywgJzIwMCcsICctbWV0YWxfYmluZGluZycsICctaW1hZScsICc8aW5maWxlLm1hZT4nLCAnLW9tYWUnLCAnPG91dGZpbGUubWFlPic=

> <r_lp_tautomer_probability>
1

> <r_epik_Ionization_Penalty>
0.00197066

> <r_epik_Ionization_Penalty_Charging>
0.00196223

> <r_epik_Ionization_Penalty_Neutral>
8.43107e-06

> <r_epik_State_Penalty>
0.00133866

> <r_epik_Charging_Adjusted_Penalty>
0.00330089

> <i_epik_Tot_Q>
1

> <i_epik_Tot_abs_Q>
1

> <r_epik_Metal_State_Penalty>
-0

> <b_epik_Metal_Only>
0

> <s_lp_Force_Field>
OPLS_2005

> <r_lp_Energy>
39.8871

> <b_lp_Chiralities_Consistent>
1

> <s_lp_Variant>
AV-unprocessed.smi:1406-12

> <Gold.Version>
5.8.1

> <Gold.Id.Protein>
6NUR|6NUR_protein|mol2

> <Gold.PLP.Fitness>
47.8399

> <Gold.PLP.PLP>
-36.1164

> <Gold.PLP.part.hbond>
-3.5868

> <Gold.PLP.part.metal>
0.0000

> <Gold.PLP.part.buried>
-5.0738

> <Gold.PLP.part.nonpolar>
-28.1790

> <Gold.PLP.part.repulsive>
0.3391

> <Gold.PLP.ligand.clash>
0.0000

> <Gold.PLP.ligand.torsion>
0.1902

> <Gold.PLP.Chemscore.Hbond>
4.0000

> <Gold.PLP.Chemscore.CHOScore>
0.0000

> <Gold.PLP.Chemscore.Metal>
0.0000

> <Gold.Chemscore.Hbonds>
donor molecule, donor type, donor heavy atom, donor atom, acceptor molecule, acceptor atom, score
      L1  H     9    41       P1  8028  1.90
      P1  H  7989  7998       L1     4  1.00
      P1  H 10752 10764       L1    19  1.00

> <Gold.PLP.Chemscore.Internal.Correction>
0.1039

> <Gold.Rescore>
     Score         DG    S(hbond)    S(metal)    S(lipo)     H(rot)  DE(clash)    DE(int)     intcor
     16.81     -17.18       1.93        0.00      86.27       1.89       0.08       0.29       ----

> <Gold.Chemscore.Fitness>
16.8067

> <Gold.Chemscore.DG>
-17.1809

> <Gold.Chemscore.ZeroCoef>
-5.4800

> <Gold.Chemscore.Hbond>
1.9270

> <Gold.Chemscore.Metal>
0.0000

> <Gold.Chemscore.Lipo>
86.2750

> <Gold.Chemscore.Internal_Hbond>
0.0000

> <Gold.Chemscore.DEClash>
0.0820

> <Gold.Chemscore.DEInternal>
0.2922

> <Gold.Chemscore.Rot>
1.8865

> <Gold.Chemscore.Internal.Correction>
   9.000000E+99

> <Gold.Chemscore.Hbonds>
donor molecule, donor type, donor heavy atom, donor atom, acceptor molecule, acceptor atom, score
      L1  H     9    41       P1  8028  0.19
      P1  H  7989  7998       L1     4  0.26
      P1  H 10752 10764       L1    19  0.39

> <Gold.Chemscore.Hbond.Weighted>
-6.4363

> <Gold.Chemscore.Metal.Weighted>
-0.0000

> <Gold.Chemscore.Lipo.Weighted>
-10.0942

> <Gold.Chemscore.Internal_Hbond.Weighted>
0.0000

> <Gold.Chemscore.DEClash.Weighted>
0.0820

> <Gold.Chemscore.DEInternal.Weighted>
0.2922

> <Gold.Chemscore.Rot.Weighted>
4.8295

> <Gold.Chemscore.Internal.Correction.Weighted>
   9.000000E+99

> <Gold.Protein.RotatedTorsions>
[ 6907 6896 6895 6894 ] final   42.81 input  -60.11 | X-H torsion
[ 7974 7965 7964 7962 ] final -171.85 input  175.53 | X-H torsion
[ 8008 7997 7996 7995 ] final  158.73 input   59.86 | X-H torsion
[ 10167 10162 10161 10158 ] final  -25.43 input  -65.29 | X-H torsion
[ 10718 10713 10712 10709 ] final  -13.53 input   66.30 | X-H torsion
[ 10763 10752 10751 10750 ] final  -29.99 input  -60.55 | X-H torsion
[ 11005 11000 10999 10996 ] final  -51.44 input  -57.11 | X-H torsion

> <Gold.Protein.ActiveResidues>
 VAL166  LYS551  ARG553  GLY616  TRP617  ASP618  TYR619  PRO620  LYS621  CYS622 
 ASP623  PHE694  ASN695  SER759  ASP760  ASP761  ALA762  ILE779  LEU786  VAL792 
 PHE793  MET794  SER795  GLU796  ALA797  LYS798  CYS799  TRP800  GLU811  SER814 

> <Gold.Protein.RotatedAtoms>
  152.2125  134.8488  160.0495 H   0  0  0  0  0  0  0  0  0  0  0  0  # atno 6907 bound_to 6896
  151.9301  133.3604  159.3936 H   0  0  0  0  0  0  0  0  0  0  0  0  # atno 6908 bound_to 6896
  150.6980  134.4471  159.5363 H   0  0  0  0  0  0  0  0  0  0  0  0  # atno 6909 bound_to 6896
  144.7152  140.1861  143.6353 H   0  0  0  0  0  0  0  0  0  0  0  0  # atno 7974 bound_to 7965
  156.2284  140.1850  156.7304 H   0  0  0  0  0  0  0  0  0  0  0  0  # atno 8008 bound_to 7997
  154.5980  140.0640  156.9358 H   0  0  0  0  0  0  0  0  0  0  0  0  # atno 8009 bound_to 7997
  155.2222  140.3308  155.4316 H   0  0  0  0  0  0  0  0  0  0  0  0  # atno 8010 bound_to 7997
  140.7286  143.4265  151.0868 H   0  0  0  0  0  0  0  0  0  0  0  0  # atno 10167 bound_to 10162
  156.6289  130.4896  149.6136 H   0  0  0  0  0  0  0  0  0  0  0  0  # atno 10718 bound_to 10713
  153.7736  135.6910  153.4901 H   0  0  0  0  0  0  0  0  0  0  0  0  # atno 10763 bound_to 10752
  153.1858  135.4489  155.0085 H   0  0  0  0  0  0  0  0  0  0  0  0  # atno 10764 bound_to 10752
  154.8108  135.3377  154.7244 H   0  0  0  0  0  0  0  0  0  0  0  0  # atno 10765 bound_to 10752
  141.0871  133.6640  156.3878 H   0  0  0  0  0  0  0  0  0  0  0  0  # atno 11005 bound_to 11000
  145.8812  139.2324  143.1604 LP  0  0  0  0  0  0  0  0  0  0  0  0  # atno 17320 bound_to 7965
  145.9993  140.8534  143.0026 LP  0  0  0  0  0  0  0  0  0  0  0  0  # atno 17321 bound_to 7965
  139.7917  143.8209  152.3152 LP  0  0  0  0  0  0  0  0  0  0  0  0  # atno 17342 bound_to 10162
  139.8195  144.7302  150.9591 LP  0  0  0  0  0  0  0  0  0  0  0  0  # atno 17343 bound_to 10162
  156.2251  130.6760  151.1407 LP  0  0  0  0  0  0  0  0  0  0  0  0  # atno 17370 bound_to 10713
  157.7206  131.0684  150.6152 LP  0  0  0  0  0  0  0  0  0  0  0  0  # atno 17371 bound_to 10713
  140.5337  134.6187  157.5358 LP  0  0  0  0  0  0  0  0  0  0  0  0  # atno 17394 bound_to 11000
  139.9691  134.7323  156.0078 LP  0  0  0  0  0  0  0  0  0  0  0  0  # atno 17395 bound_to 11000

$$$$
