AV-unprocessed.smi:890|AV-procd|sdf|4058|dock8
  -GOLD-   22720 1543D 1   1.00000     0.00000
 Structure written by MMmdl.
 52 55  0  0  0  0  0  0  0  0  2 V2000
  150.5039  134.0893  155.5794 O   0  0  0  0  0  0  0  0  0  0  0  0
  149.8696  134.7000  154.7192 C   0  0  0  0  0  0  0  0  0  0  0  0
  149.0282  134.1442  153.8313 N   0  0  0  0  0  0  0  0  0  0  0  0
  148.6963  132.7684  153.6656 C   0  0  0  0  0  0  0  0  0  0  0  0
  149.4726  131.7239  154.2252 C   0  0  0  0  0  0  0  0  0  0  0  0
  149.0642  130.3907  154.0448 C   0  0  0  0  0  0  0  0  0  0  0  0
  147.8860  130.1466  153.3186 C   0  0  0  0  0  0  0  0  0  0  0  0
  147.1269  131.1293  152.7936 N   0  0  0  0  0  0  0  0  0  0  0  0
  147.5095  132.4185  152.9652 C   0  0  0  0  0  0  0  0  0  0  0  0
  146.7075  133.4220  152.3818 N   0  0  0  0  0  0  0  0  0  0  0  0
  146.5752  133.2963  150.9325 C   0  0  0  0  0  0  0  0  0  0  0  0
  145.1469  133.7231  150.5893 C   0  0  0  0  0  0  0  0  0  0  0  0
  144.3758  133.3954  151.8618 C   0  0  0  0  0  0  0  0  0  0  0  0
  145.3942  133.7156  152.9545 C   0  0  0  0  0  0  0  0  0  0  0  0
  149.9550  136.0267  154.5438 N   0  0  0  0  0  0  0  0  0  0  0  0
  150.7752  136.9255  155.3511 C   0  0  2  0  0  0  0  0  0  0  0  0
  149.8863  137.7299  156.3136 C   0  0  0  0  0  0  0  0  0  0  0  0
  150.7221  138.7320  157.1331 C   0  0  0  0  0  0  0  0  0  0  0  0
  151.5223  139.6365  156.2672 N   0  3  2  0  0  0  0  0  0  0  0  0
  150.7125  140.6916  155.6143 C   0  0  0  0  0  0  0  0  0  0  0  0
  150.9825  142.0795  156.1480 C   0  0  0  0  0  0  0  0  0  0  0  0
  149.7170  141.3503  156.5403 C   0  0  0  0  0  0  0  0  0  0  0  0
  152.3866  138.8873  155.3189 C   0  0  0  0  0  0  0  0  0  0  0  0
  151.5823  137.8912  154.4630 C   0  0  0  0  0  0  0  0  0  0  0  0
  148.6455  134.7638  153.1320 H   0  0  0  0  0  0  0  0  0  0  0  0
  150.3630  131.9190  154.8025 H   0  0  0  0  0  0  0  0  0  0  0  0
  149.6384  129.5752  154.4586 H   0  0  0  0  0  0  0  0  0  0  0  0
  147.5401  129.1360  153.1597 H   0  0  0  0  0  0  0  0  0  0  0  0
  147.3088  133.9147  150.4148 H   0  0  0  0  0  0  0  0  0  0  0  0
  146.7377  132.2610  150.6281 H   0  0  0  0  0  0  0  0  0  0  0  0
  145.1146  134.7980  150.4065 H   0  0  0  0  0  0  0  0  0  0  0  0
  144.7536  133.2177  149.7072 H   0  0  0  0  0  0  0  0  0  0  0  0
  143.4511  133.9640  151.9624 H   0  0  0  0  0  0  0  0  0  0  0  0
  144.1279  132.3332  151.8837 H   0  0  0  0  0  0  0  0  0  0  0  0
  145.1740  133.1852  153.8811 H   0  0  0  0  0  0  0  0  0  0  0  0
  145.3658  134.7805  153.1868 H   0  0  0  0  0  0  0  0  0  0  0  0
  149.4028  136.4455  153.8095 H   0  0  0  0  0  0  0  0  0  0  0  0
  151.4678  136.3276  155.9473 H   0  0  0  0  0  0  0  0  0  0  0  0
  149.1142  138.2607  155.7548 H   0  0  0  0  0  0  0  0  0  0  0  0
  149.3623  137.0534  156.9899 H   0  0  0  0  0  0  0  0  0  0  0  0
  150.0779  139.3184  157.7894 H   0  0  0  0  0  0  0  0  0  0  0  0
  151.4066  138.1863  157.7838 H   0  0  0  0  0  0  0  0  0  0  0  0
  150.4707  140.5466  154.5633 H   0  0  0  0  0  0  0  0  0  0  0  0
  151.7495  142.1997  156.9112 H   0  0  0  0  0  0  0  0  0  0  0  0
  150.8834  142.9120  155.4545 H   0  0  0  0  0  0  0  0  0  0  0  0
  148.7840  141.7033  156.1058 H   0  0  0  0  0  0  0  0  0  0  0  0
  149.6447  140.9868  157.5640 H   0  0  0  0  0  0  0  0  0  0  0  0
  152.9320  139.5834  154.6806 H   0  0  0  0  0  0  0  0  0  0  0  0
  153.1389  138.3462  155.8942 H   0  0  0  0  0  0  0  0  0  0  0  0
  152.2660  137.3332  153.8226 H   0  0  0  0  0  0  0  0  0  0  0  0
  150.9123  138.4323  153.7935 H   0  0  0  0  0  0  0  0  0  0  0  0
  152.1503  140.1307  156.8851 H   0  0  0  0  0  0  0  0  0  0  0  0
  1  2  2  0  0  0  0
  2  3  1  0  0  0  0
  2 15  1  0  0  0  0
  3  4  1  0  0  0  0
  3 25  1  0  0  0  0
  4  9  1  0  0  0  0
  4  5  2  0  0  0  0
  5  6  1  0  0  0  0
  5 26  1  0  0  0  0
  6  7  2  0  0  0  0
  6 27  1  0  0  0  0
  7  8  1  0  0  0  0
  7 28  1  0  0  0  0
  8  9  2  0  0  0  0
  9 10  1  0  0  0  0
 10 14  1  0  0  0  0
 10 11  1  0  0  0  0
 11 12  1  0  0  0  0
 11 29  1  0  0  0  0
 11 30  1  0  0  0  0
 12 13  1  0  0  0  0
 12 31  1  0  0  0  0
 12 32  1  0  0  0  0
 13 14  1  0  0  0  0
 13 33  1  0  0  0  0
 13 34  1  0  0  0  0
 14 35  1  0  0  0  0
 14 36  1  0  0  0  0
 15 16  1  0  0  0  0
 15 37  1  0  0  0  0
 16 24  1  0  0  0  0
 16 17  1  0  0  0  0
 16 38  1  0  0  0  0
 17 18  1  0  0  0  0
 17 39  1  0  0  0  0
 17 40  1  0  0  0  0
 18 19  1  0  0  0  0
 18 41  1  0  0  0  0
 18 42  1  0  0  0  0
 19 20  1  0  0  0  0
 19 23  1  0  0  0  0
 19 52  1  0  0  0  0
 20 22  1  0  0  0  0
 20 21  1  0  0  0  0
 20 43  1  0  0  0  0
 21 22  1  0  0  0  0
 21 44  1  0  0  0  0
 21 45  1  0  0  0  0
 22 46  1  0  0  0  0
 22 47  1  0  0  0  0
 23 24  1  0  0  0  0
 23 48  1  0  0  0  0
 23 49  1  0  0  0  0
 24 50  1  0  0  0  0
 24 51  1  0  0  0  0
M  CHG  1  19   1
M  END
> <s_m_source_file>
AV-unprocessed.smi

> <i_m_source_file_index>
890

> <i_lp_mmshare_version>
43012

> <i_f3d_flags>
0

> <s_epik_input>
W0NIMl0xW0NIMl1bQ0hdMU4oW0NIMl1bQ0gyXTIpW0NIMl1bQ0gyXVtDSF0yW05IXUMoPU8pW05IXWMzW2NIXVtjSF1bY0hdbmMzTjRbQ0gyXVtDSDJdW0NIMl1bQ0gyXTQ=

> <s_epik_cmdline>
J2VwaWtfcHl0aG9uJywgJy1waCcsICc3LjAnLCAnLXRuJywgJzgnLCAnLW1hJywgJzIwMCcsICctbWV0YWxfYmluZGluZycsICctaW1hZScsICc8aW5maWxlLm1hZT4nLCAnLW9tYWUnLCAnPG91dGZpbGUubWFlPic=

> <r_lp_tautomer_probability>
1

> <r_epik_Ionization_Penalty>
0.193768

> <r_epik_Ionization_Penalty_Charging>
0.115549

> <r_epik_Ionization_Penalty_Neutral>
0.078219

> <r_epik_State_Penalty>
0.174811

> <r_epik_Charging_Adjusted_Penalty>
0.29036

> <i_epik_Tot_Q>
1

> <i_epik_Tot_abs_Q>
1

> <r_epik_Metal_State_Penalty>
0.169761

> <b_epik_Metal_Only>
0

> <s_lp_Force_Field>
OPLS_2005

> <r_lp_Energy>
56.2334

> <b_lp_Chiralities_Consistent>
1

> <s_lp_Variant>
AV-unprocessed.smi:890-2

> <Gold.Version>
5.8.1

> <Gold.Id.Protein>
6NUR|6NUR_protein|mol2

> <Gold.PLP.Fitness>
44.3087

> <Gold.PLP.PLP>
-39.8728

> <Gold.PLP.part.hbond>
-2.2214

> <Gold.PLP.part.metal>
0.0000

> <Gold.PLP.part.buried>
-4.8343

> <Gold.PLP.part.nonpolar>
-32.0686

> <Gold.PLP.part.repulsive>
1.0169

> <Gold.PLP.ligand.clash>
0.0000

> <Gold.PLP.ligand.torsion>
1.1405

> <Gold.PLP.Chemscore.Hbond>
1.7760

> <Gold.PLP.Chemscore.CHOScore>
0.0000

> <Gold.PLP.Chemscore.Metal>
0.0000

> <Gold.Chemscore.Hbonds>
donor molecule, donor type, donor heavy atom, donor atom, acceptor molecule, acceptor atom, score
      L1  H     3    25       P1  7948  0.94
      L1  H    15    37       P1  7948  0.80

> <Gold.PLP.Chemscore.Internal.Correction>
1.3889

> <Gold.Rescore>
     Score         DG    S(hbond)    S(metal)    S(lipo)     H(rot)  DE(clash)    DE(int)     intcor
     14.21     -16.62       1.20        0.00      90.19       1.33       0.05       2.36       ----

> <Gold.Chemscore.Fitness>
14.2126

> <Gold.Chemscore.DG>
-16.6237

> <Gold.Chemscore.ZeroCoef>
-5.4800

> <Gold.Chemscore.Hbond>
1.1959

> <Gold.Chemscore.Metal>
0.0000

> <Gold.Chemscore.Lipo>
90.1942

> <Gold.Chemscore.Internal_Hbond>
0.0000

> <Gold.Chemscore.DEClash>
0.0517

> <Gold.Chemscore.DEInternal>
2.3593

> <Gold.Chemscore.Rot>
1.3294

> <Gold.Chemscore.Internal.Correction>
   9.000000E+99

> <Gold.Chemscore.Hbonds>
donor molecule, donor type, donor heavy atom, donor atom, acceptor molecule, acceptor atom, score
      L1  H     3    25       P1  7948  0.31
      L1  H    15    37       P1  7948  0.66

> <Gold.Chemscore.Hbond.Weighted>
-3.9941

> <Gold.Chemscore.Metal.Weighted>
-0.0000

> <Gold.Chemscore.Lipo.Weighted>
-10.5527

> <Gold.Chemscore.Internal_Hbond.Weighted>
0.0000

> <Gold.Chemscore.DEClash.Weighted>
0.0517

> <Gold.Chemscore.DEInternal.Weighted>
2.3593

> <Gold.Chemscore.Rot.Weighted>
3.4032

> <Gold.Chemscore.Internal.Correction.Weighted>
   9.000000E+99

> <Gold.Protein.RotatedTorsions>
[ 6907 6896 6895 6894 ] final  -50.54 input  -60.11 | X-H torsion
[ 7974 7965 7964 7962 ] final  -52.97 input  175.53 | X-H torsion
[ 8008 7997 7996 7995 ] final    0.12 input   59.86 | X-H torsion
[ 10167 10162 10161 10158 ] final  -73.56 input  -65.29 | X-H torsion
[ 10718 10713 10712 10709 ] final  -52.87 input   66.30 | X-H torsion
[ 10763 10752 10751 10750 ] final  136.15 input  -60.55 | X-H torsion
[ 11005 11000 10999 10996 ] final  114.05 input  -57.11 | X-H torsion

> <Gold.Protein.ActiveResidues>
 VAL166  LYS551  ARG553  GLY616  TRP617  ASP618  TYR619  PRO620  LYS621  CYS622 
 ASP623  PHE694  ASN695  SER759  ASP760  ASP761  ALA762  ILE779  LEU786  VAL792 
 PHE793  MET794  SER795  GLU796  ALA797  LYS798  CYS799  TRP800  GLU811  SER814 

> <Gold.Protein.RotatedAtoms>
  150.8697  134.8068  159.7145 H   0  0  0  0  0  0  0  0  0  0  0  0  # atno 6907 bound_to 6896
  152.4706  134.4966  159.9722 H   0  0  0  0  0  0  0  0  0  0  0  0  # atno 6908 bound_to 6896
  151.5057  133.3456  159.2912 H   0  0  0  0  0  0  0  0  0  0  0  0  # atno 6909 bound_to 6896
  145.9020  140.7986  142.9738 H   0  0  0  0  0  0  0  0  0  0  0  0  # atno 7974 bound_to 7965
  154.6645  140.2598  155.7073 H   0  0  0  0  0  0  0  0  0  0  0  0  # atno 8008 bound_to 7997
  156.2632  140.2842  156.1051 H   0  0  0  0  0  0  0  0  0  0  0  0  # atno 8009 bound_to 7997
  155.1260  140.0378  157.2752 H   0  0  0  0  0  0  0  0  0  0  0  0  # atno 8010 bound_to 7997
  140.5100  143.2346  151.7610 H   0  0  0  0  0  0  0  0  0  0  0  0  # atno 10167 bound_to 10162
  156.1584  130.4150  149.9832 H   0  0  0  0  0  0  0  0  0  0  0  0  # atno 10718 bound_to 10713
  153.8518  135.3078  155.3433 H   0  0  0  0  0  0  0  0  0  0  0  0  # atno 10763 bound_to 10752
  154.7888  135.4794  154.0008 H   0  0  0  0  0  0  0  0  0  0  0  0  # atno 10764 bound_to 10752
  153.1514  135.6844  153.8970 H   0  0  0  0  0  0  0  0  0  0  0  0  # atno 10765 bound_to 10752
  139.8970  134.9561  156.6833 H   0  0  0  0  0  0  0  0  0  0  0  0  # atno 11005 bound_to 11000
  144.6736  140.1692  143.7416 LP  0  0  0  0  0  0  0  0  0  0  0  0  # atno 17320 bound_to 7965
  145.8779  139.2307  143.1622 LP  0  0  0  0  0  0  0  0  0  0  0  0  # atno 17321 bound_to 7965
  139.4893  144.4404  151.9771 LP  0  0  0  0  0  0  0  0  0  0  0  0  # atno 17342 bound_to 10162
  140.3496  144.3105  150.5952 LP  0  0  0  0  0  0  0  0  0  0  0  0  # atno 17343 bound_to 10162
  156.7669  130.9171  151.3643 LP  0  0  0  0  0  0  0  0  0  0  0  0  # atno 17370 bound_to 10713
  157.6713  130.9054  150.0047 LP  0  0  0  0  0  0  0  0  0  0  0  0  # atno 17371 bound_to 10713
  140.7282  133.9081  155.8193 LP  0  0  0  0  0  0  0  0  0  0  0  0  # atno 17394 bound_to 11000
  141.0174  134.0937  157.4157 LP  0  0  0  0  0  0  0  0  0  0  0  0  # atno 17395 bound_to 11000

$$$$
