AV-unprocessed.smi:1312|AV-procd|sdf|5448|dock2
  -GOLD-   22720 5 13D 1   1.00000     0.00000
 Structure written by MMmdl.
 50 51  0  0  0  0  0  0  0  0  2 V2000
  144.7886  138.5553  154.4769 C   0  0  0  0  0  0  0  0  0  0  0  0
  145.2222  137.5416  153.4063 C   0  0  0  0  0  0  0  0  0  0  0  0
  145.6625  136.1598  153.9625 C   0  0  2  0  0  0  0  0  0  0  0  0
  146.8249  136.2777  154.9816 C   0  0  0  0  0  0  0  0  0  0  0  0
  147.9198  137.0945  154.4702 N   0  0  0  0  0  0  0  0  0  0  0  0
  148.2759  138.2887  154.9646 C   0  0  0  0  0  0  0  0  0  0  0  0
  147.6930  138.8239  155.9088 O   0  0  0  0  0  0  0  0  0  0  0  0
  149.4782  138.9600  154.2903 C   0  0  0  0  0  0  0  0  0  0  0  0
  150.4877  139.4419  155.3043 C   0  0  0  0  0  0  0  0  0  0  0  0
  151.7547  138.8619  155.6069 C   0  0  0  0  0  0  0  0  0  0  0  0
  152.3809  137.6374  155.0034 C   0  0  0  0  0  0  0  0  0  0  0  0
  152.4046  139.5291  156.5463 N   0  0  0  0  0  0  0  0  0  0  0  0
  151.5835  140.5462  156.8762 N   0  0  0  0  0  0  0  0  0  0  0  0
  151.9953  141.4908  157.8965 C   0  0  0  0  0  0  0  0  0  0  0  0
  150.4125  140.5210  156.1439 C   0  0  0  0  0  0  0  0  0  0  0  0
  149.3360  141.5411  156.3284 C   0  0  0  0  0  0  0  0  0  0  0  0
  145.9875  135.2102  152.8570 N   0  3  0  0  0  0  0  0  0  0  0  0
  146.0615  133.7809  153.2316 C   0  0  0  0  0  0  0  0  0  0  0  0
  145.9037  133.0195  151.9209 C   0  0  0  0  0  0  0  0  0  0  0  0
  144.8845  133.8590  151.1609 C   0  0  0  0  0  0  0  0  0  0  0  0
  145.1015  135.2915  151.6671 C   0  0  0  0  0  0  0  0  0  0  0  0
  144.5275  139.5088  154.0174 H   0  0  0  0  0  0  0  0  0  0  0  0
  145.5859  138.7456  155.1953 H   0  0  0  0  0  0  0  0  0  0  0  0
  143.9130  138.2105  155.0268 H   0  0  0  0  0  0  0  0  0  0  0  0
  144.4013  137.4097  152.7012 H   0  0  0  0  0  0  0  0  0  0  0  0
  146.0220  137.9825  152.8119 H   0  0  0  0  0  0  0  0  0  0  0  0
  144.8095  135.7392  154.4978 H   0  0  0  0  0  0  0  0  0  0  0  0
  146.4864  136.7458  155.9061 H   0  0  0  0  0  0  0  0  0  0  0  0
  147.1883  135.2844  155.2495 H   0  0  0  0  0  0  0  0  0  0  0  0
  148.4493  136.7245  153.6939 H   0  0  0  0  0  0  0  0  0  0  0  0
  149.9244  138.2412  153.6028 H   0  0  0  0  0  0  0  0  0  0  0  0
  149.1248  139.7857  153.6715 H   0  0  0  0  0  0  0  0  0  0  0  0
  152.4113  137.7099  153.9164 H   0  0  0  0  0  0  0  0  0  0  0  0
  151.8108  136.7445  155.2606 H   0  0  0  0  0  0  0  0  0  0  0  0
  153.4038  137.4908  155.3524 H   0  0  0  0  0  0  0  0  0  0  0  0
  152.0446  142.4926  157.4692 H   0  0  0  0  0  0  0  0  0  0  0  0
  152.9768  141.2278  158.2933 H   0  0  0  0  0  0  0  0  0  0  0  0
  151.2732  141.4864  158.7131 H   0  0  0  0  0  0  0  0  0  0  0  0
  148.4549  141.2987  155.7348 H   0  0  0  0  0  0  0  0  0  0  0  0
  149.6836  142.5289  156.0257 H   0  0  0  0  0  0  0  0  0  0  0  0
  149.0275  141.5954  157.3725 H   0  0  0  0  0  0  0  0  0  0  0  0
  146.9986  133.5373  153.7332 H   0  0  0  0  0  0  0  0  0  0  0  0
  145.2377  133.5313  153.9028 H   0  0  0  0  0  0  0  0  0  0  0  0
  146.8519  133.0073  151.3817 H   0  0  0  0  0  0  0  0  0  0  0  0
  145.5827  131.9875  152.0645 H   0  0  0  0  0  0  0  0  0  0  0  0
  144.9960  133.7732  150.0797 H   0  0  0  0  0  0  0  0  0  0  0  0
  143.8767  133.5297  151.4165 H   0  0  0  0  0  0  0  0  0  0  0  0
  144.1379  135.7431  151.9067 H   0  0  0  0  0  0  0  0  0  0  0  0
  145.5802  135.9114  150.9085 H   0  0  0  0  0  0  0  0  0  0  0  0
  146.9119  135.4508  152.5285 H   0  0  0  0  0  0  0  0  0  0  0  0
  1  2  1  0  0  0  0
  1 22  1  0  0  0  0
  1 23  1  0  0  0  0
  1 24  1  0  0  0  0
  2  3  1  0  0  0  0
  2 25  1  0  0  0  0
  2 26  1  0  0  0  0
  3  4  1  0  0  0  0
  3 17  1  0  0  0  0
  3 27  1  0  0  0  0
  4  5  1  0  0  0  0
  4 28  1  0  0  0  0
  4 29  1  0  0  0  0
  5  6  1  0  0  0  0
  5 30  1  0  0  0  0
  6  7  2  0  0  0  0
  6  8  1  0  0  0  0
  8  9  1  0  0  0  0
  8 31  1  0  0  0  0
  8 32  1  0  0  0  0
  9 15  2  0  0  0  0
  9 10  1  0  0  0  0
 10 11  1  0  0  0  0
 10 12  2  0  0  0  0
 11 33  1  0  0  0  0
 11 34  1  0  0  0  0
 11 35  1  0  0  0  0
 12 13  1  0  0  0  0
 13 14  1  0  0  0  0
 13 15  1  0  0  0  0
 14 36  1  0  0  0  0
 14 37  1  0  0  0  0
 14 38  1  0  0  0  0
 15 16  1  0  0  0  0
 16 39  1  0  0  0  0
 16 40  1  0  0  0  0
 16 41  1  0  0  0  0
 17 21  1  0  0  0  0
 17 18  1  0  0  0  0
 17 50  1  0  0  0  0
 18 19  1  0  0  0  0
 18 42  1  0  0  0  0
 18 43  1  0  0  0  0
 19 20  1  0  0  0  0
 19 44  1  0  0  0  0
 19 45  1  0  0  0  0
 20 21  1  0  0  0  0
 20 46  1  0  0  0  0
 20 47  1  0  0  0  0
 21 48  1  0  0  0  0
 21 49  1  0  0  0  0
M  CHG  1  17   1
M  END
> <s_m_source_file>
AV-unprocessed.smi

> <i_m_source_file_index>
1312

> <i_lp_mmshare_version>
43012

> <i_f3d_flags>
0

> <s_epik_input>
W0NIMl0xW0NIMl1bQ0gyXVtDSDJdTjFbQ0BIXShbQ0gyXVtDSDNdKVtDSDJdW05IXUMoPU8pW0NIMl1jMmMoW0NIM10pbm4oW0NIM10pYzJbQ0gzXQ==

> <s_epik_cmdline>
J2VwaWtfcHl0aG9uJywgJy1waCcsICc3LjAnLCAnLXRuJywgJzgnLCAnLW1hJywgJzIwMCcsICctbWV0YWxfYmluZGluZycsICctaW1hZScsICc8aW5maWxlLm1hZT4nLCAnLW9tYWUnLCAnPG91dGZpbGUubWFlPic=

> <r_lp_tautomer_probability>
1

> <r_epik_Ionization_Penalty>
0.00585463

> <r_epik_Ionization_Penalty_Charging>
0.00366302

> <r_epik_Ionization_Penalty_Neutral>
0.00219161

> <r_epik_State_Penalty>
-0

> <r_epik_Charging_Adjusted_Penalty>
0.00366302

> <i_epik_Tot_Q>
1

> <i_epik_Tot_abs_Q>
1

> <r_epik_Metal_State_Penalty>
-0

> <b_epik_Metal_Only>
0

> <s_lp_Force_Field>
OPLS_2005

> <r_lp_Energy>
29.647

> <b_lp_Chiralities_Consistent>
1

> <s_lp_Variant>
AV-unprocessed.smi:1312-1

> <Gold.Version>
5.8.1

> <Gold.Id.Protein>
6NUR|6NUR_protein|mol2

> <Gold.PLP.Fitness>
43.3188

> <Gold.PLP.PLP>
-32.2874

> <Gold.PLP.part.hbond>
-3.0000

> <Gold.PLP.part.metal>
0.0000

> <Gold.PLP.part.buried>
-3.7206

> <Gold.PLP.part.nonpolar>
-25.2010

> <Gold.PLP.part.repulsive>
0.0039

> <Gold.PLP.ligand.clash>
0.0000

> <Gold.PLP.ligand.torsion>
0.6520

> <Gold.PLP.Chemscore.Hbond>
4.0000

> <Gold.PLP.Chemscore.CHOScore>
0.0000

> <Gold.PLP.Chemscore.Metal>
0.0000

> <Gold.Chemscore.Hbonds>
donor molecule, donor type, donor heavy atom, donor atom, acceptor molecule, acceptor atom, score
      L1  H     5    30       P1  7948  1.00
      L1  H    17    50       P1  7948  0.85
      P1  H  7997  8009       L1    12  0.94

> <Gold.PLP.Chemscore.Internal.Correction>
0.3354

> <Gold.Rescore>
     Score         DG    S(hbond)    S(metal)    S(lipo)     H(rot)  DE(clash)    DE(int)     intcor
     19.76     -20.37       2.97        0.00      80.15       1.72       0.13       0.48       ----

> <Gold.Chemscore.Fitness>
19.7600

> <Gold.Chemscore.DG>
-20.3737

> <Gold.Chemscore.ZeroCoef>
-5.4800

> <Gold.Chemscore.Hbond>
2.9709

> <Gold.Chemscore.Metal>
0.0000

> <Gold.Chemscore.Lipo>
80.1493

> <Gold.Chemscore.Internal_Hbond>
0.0000

> <Gold.Chemscore.DEClash>
0.1322

> <Gold.Chemscore.DEInternal>
0.4814

> <Gold.Chemscore.Rot>
1.7213

> <Gold.Chemscore.Internal.Correction>
   9.000000E+99

> <Gold.Chemscore.Hbonds>
donor molecule, donor type, donor heavy atom, donor atom, acceptor molecule, acceptor atom, score
      L1  H     5    30       P1  7948  0.98
      L1  H    17    50       P1  7948  0.41
      P1  H  7997  8009       L1    12  0.74

> <Gold.Chemscore.Hbond.Weighted>
-9.9228

> <Gold.Chemscore.Metal.Weighted>
-0.0000

> <Gold.Chemscore.Lipo.Weighted>
-9.3775

> <Gold.Chemscore.Internal_Hbond.Weighted>
0.0000

> <Gold.Chemscore.DEClash.Weighted>
0.1322

> <Gold.Chemscore.DEInternal.Weighted>
0.4814

> <Gold.Chemscore.Rot.Weighted>
4.4065

> <Gold.Chemscore.Internal.Correction.Weighted>
   9.000000E+99

> <Gold.Protein.RotatedTorsions>
[ 6907 6896 6895 6894 ] final  136.48 input  -60.11 | X-H torsion
[ 7974 7965 7964 7962 ] final  -62.95 input  175.53 | X-H torsion
[ 8008 7997 7996 7995 ] final  178.05 input   59.86 | X-H torsion
[ 10167 10162 10161 10158 ] final  -74.34 input  -65.29 | X-H torsion
[ 10718 10713 10712 10709 ] final -134.08 input   66.30 | X-H torsion
[ 10763 10752 10751 10750 ] final  -47.80 input  -60.55 | X-H torsion
[ 11005 11000 10999 10996 ] final  114.90 input  -57.11 | X-H torsion

> <Gold.Protein.ActiveResidues>
 VAL166  LYS551  ARG553  GLY616  TRP617  ASP618  TYR619  PRO620  LYS621  CYS622 
 ASP623  PHE694  ASN695  SER759  ASP760  ASP761  ALA762  ILE779  LEU786  VAL792 
 PHE793  MET794  SER795  GLU796  ALA797  LYS798  CYS799  TRP800  GLU811  SER814 

> <Gold.Protein.RotatedAtoms>
  152.2889  133.5542  159.5544 H   0  0  0  0  0  0  0  0  0  0  0  0  # atno 6907 bound_to 6896
  150.7227  134.0457  159.3790 H   0  0  0  0  0  0  0  0  0  0  0  0  # atno 6908 bound_to 6896
  151.8364  135.0605  160.0494 H   0  0  0  0  0  0  0  0  0  0  0  0  # atno 6909 bound_to 6896
  145.7851  140.8741  143.0310 H   0  0  0  0  0  0  0  0  0  0  0  0  # atno 7974 bound_to 7965
  156.0589  140.1343  156.9964 H   0  0  0  0  0  0  0  0  0  0  0  0  # atno 8008 bound_to 7997
  154.4472  140.0995  156.6558 H   0  0  0  0  0  0  0  0  0  0  0  0  # atno 8009 bound_to 7997
  155.5408  140.3461  155.4448 H   0  0  0  0  0  0  0  0  0  0  0  0  # atno 8010 bound_to 7997
  140.5035  143.2357  151.7713 H   0  0  0  0  0  0  0  0  0  0  0  0  # atno 10167 bound_to 10162
  156.2516  130.7157  151.1058 H   0  0  0  0  0  0  0  0  0  0  0  0  # atno 10718 bound_to 10713
  154.0673  135.6609  153.4819 H   0  0  0  0  0  0  0  0  0  0  0  0  # atno 10763 bound_to 10752
  153.0404  135.5149  154.7601 H   0  0  0  0  0  0  0  0  0  0  0  0  # atno 10764 bound_to 10752
  154.6656  135.3021  154.9777 H   0  0  0  0  0  0  0  0  0  0  0  0  # atno 10765 bound_to 10752
  139.8994  134.9575  156.6962 H   0  0  0  0  0  0  0  0  0  0  0  0  # atno 11005 bound_to 11000
  144.6790  140.0043  143.7484 LP  0  0  0  0  0  0  0  0  0  0  0  0  # atno 17320 bound_to 7965
  146.0035  139.3110  143.0913 LP  0  0  0  0  0  0  0  0  0  0  0  0  # atno 17321 bound_to 7965
  139.4878  144.4489  151.9677 LP  0  0  0  0  0  0  0  0  0  0  0  0  # atno 17342 bound_to 10162
  140.3579  144.3009  150.5938 LP  0  0  0  0  0  0  0  0  0  0  0  0  # atno 17343 bound_to 10162
  157.7217  131.0677  150.6109 LP  0  0  0  0  0  0  0  0  0  0  0  0  # atno 17370 bound_to 10713
  156.6189  130.4400  149.5830 LP  0  0  0  0  0  0  0  0  0  0  0  0  # atno 17371 bound_to 10713
  140.7186  133.9160  155.8131 LP  0  0  0  0  0  0  0  0  0  0  0  0  # atno 17394 bound_to 11000
  141.0245  134.0843  157.4084 LP  0  0  0  0  0  0  0  0  0  0  0  0  # atno 17395 bound_to 11000

$$$$
