AV-unprocessed.smi:1513|AV-procd|sdf|6111|dock5
  -GOLD-   22720 6243D 1   1.00000     0.00000
 Structure written by MMmdl.
 33 34  0  0  0  0  0  0  0  0  2 V2000
  148.2228  137.2770  160.9149 N   0  5  0  0  0  0  0  0  0  0  0  0
  148.5699  136.9460  159.3756 S   0  0  0  0  0  0  0  0  0  0  0  0
  149.2883  135.6765  159.1850 O   0  0  0  0  0  0  0  0  0  0  0  0
  147.4777  137.2743  158.4466 O   0  0  0  0  0  0  0  0  0  0  0  0
  149.7477  138.1850  159.1837 N   0  0  0  0  0  0  0  0  0  0  0  0
  151.0062  137.9061  158.4942 C   0  0  0  0  0  0  0  0  0  0  0  0
  150.9644  138.2811  157.0204 C   0  0  0  0  0  0  0  0  0  0  0  0
  150.8457  137.2711  156.0429 C   0  0  0  0  0  0  0  0  0  0  0  0
  150.7980  137.6346  154.6845 C   0  0  0  0  0  0  0  0  0  0  0  0
  150.8710  139.0010  154.3561 C   0  0  0  0  0  0  0  0  0  0  0  0
  150.9858  139.9787  155.2789 N   0  0  0  0  0  0  0  0  0  0  0  0
  151.0335  139.6307  156.5879 C   0  0  0  0  0  0  0  0  0  0  0  0
  151.1686  140.6654  157.5269 N   0  0  0  0  0  0  0  0  0  0  0  0
  152.3805  140.5725  158.3306 C   0  0  0  0  0  0  0  0  0  0  0  0
  152.3548  141.6353  159.4427 C   0  0  0  0  0  0  0  0  0  0  0  0
  152.1721  142.9266  158.8667 O   0  0  0  0  0  0  0  0  0  0  0  0
  150.9452  143.0232  158.1481 C   0  0  0  0  0  0  0  0  0  0  0  0
  150.9412  142.0025  156.9971 C   0  0  0  0  0  0  0  0  0  0  0  0
  147.6068  136.5362  161.2706 H   0  0  0  0  0  0  0  0  0  0  0  0
  149.3524  139.1092  159.0146 H   0  0  0  0  0  0  0  0  0  0  0  0
  151.8106  138.4371  159.0041 H   0  0  0  0  0  0  0  0  0  0  0  0
  151.2383  136.8439  158.5740 H   0  0  0  0  0  0  0  0  0  0  0  0
  150.7906  136.2306  156.3272 H   0  0  0  0  0  0  0  0  0  0  0  0
  150.7072  136.8838  153.9136 H   0  0  0  0  0  0  0  0  0  0  0  0
  150.8368  139.3183  153.3244 H   0  0  0  0  0  0  0  0  0  0  0  0
  152.4627  139.5763  158.7667 H   0  0  0  0  0  0  0  0  0  0  0  0
  153.2545  140.7212  157.6950 H   0  0  0  0  0  0  0  0  0  0  0  0
  151.5593  141.4291  160.1599 H   0  0  0  0  0  0  0  0  0  0  0  0
  153.2930  141.6215  159.9971 H   0  0  0  0  0  0  0  0  0  0  0  0
  150.1028  142.8536  158.8211 H   0  0  0  0  0  0  0  0  0  0  0  0
  150.8413  144.0343  157.7546 H   0  0  0  0  0  0  0  0  0  0  0  0
  151.7205  142.2524  156.2758 H   0  0  0  0  0  0  0  0  0  0  0  0
  149.9870  142.0337  156.4698 H   0  0  0  0  0  0  0  0  0  0  0  0
  1  2  1  0  0  0  0
  1 19  1  0  0  0  0
  2  3  2  0  0  0  0
  2  4  2  0  0  0  0
  2  5  1  0  0  0  0
  5  6  1  0  0  0  0
  5 20  1  0  0  0  0
  6  7  1  0  0  0  0
  6 21  1  0  0  0  0
  6 22  1  0  0  0  0
  7 12  1  0  0  0  0
  7  8  2  0  0  0  0
  8  9  1  0  0  0  0
  8 23  1  0  0  0  0
  9 10  2  0  0  0  0
  9 24  1  0  0  0  0
 10 11  1  0  0  0  0
 10 25  1  0  0  0  0
 11 12  2  0  0  0  0
 12 13  1  0  0  0  0
 13 18  1  0  0  0  0
 13 14  1  0  0  0  0
 14 15  1  0  0  0  0
 14 26  1  0  0  0  0
 14 27  1  0  0  0  0
 15 16  1  0  0  0  0
 15 28  1  0  0  0  0
 15 29  1  0  0  0  0
 16 17  1  0  0  0  0
 17 18  1  0  0  0  0
 17 30  1  0  0  0  0
 17 31  1  0  0  0  0
 18 32  1  0  0  0  0
 18 33  1  0  0  0  0
M  CHG  1   1  -1
M  END
> <s_m_source_file>
AV-unprocessed.smi

> <i_m_source_file_index>
1513

> <i_lp_mmshare_version>
43012

> <i_f3d_flags>
0

> <s_epik_input>
W05IMl1TKD1PKSg9TylbTkhdW0NIMl1jMVtjSF1bY0hdW2NIXW5jMU4yW0NIMl1bQ0gyXU9bQ0gyXVtDSDJdMg==

> <s_epik_cmdline>
J2VwaWtfcHl0aG9uJywgJy1waCcsICc3LjAnLCAnLXRuJywgJzgnLCAnLW1hJywgJzIwMCcsICctbWV0YWxfYmluZGluZycsICctaW1hZScsICc8aW5maWxlLm1hZT4nLCAnLW9tYWUnLCAnPG91dGZpbGUubWFlPic=

> <r_lp_tautomer_probability>
1

> <r_epik_Ionization_Penalty>
2.76303

> <r_epik_Ionization_Penalty_Charging>
2.75358

> <r_epik_Ionization_Penalty_Neutral>
0.00945191

> <r_epik_State_Penalty>
2.93489

> <r_epik_Charging_Adjusted_Penalty>
5.68847

> <i_epik_Tot_Q>
-1

> <i_epik_Tot_abs_Q>
1

> <r_epik_Metal_State_Penalty>
0.838637

> <b_epik_Metal_Only>
1

> <s_lp_Force_Field>
OPLS_2005

> <r_lp_Energy>
17.6636

> <b_lp_Chiralities_Consistent>
1

> <s_lp_Variant>
AV-unprocessed.smi:1513-4

> <Gold.Version>
5.8.1

> <Gold.Id.Protein>
6NUR|6NUR_protein|mol2

> <Gold.PLP.Fitness>
39.3096

> <Gold.PLP.PLP>
-25.4489

> <Gold.PLP.part.hbond>
-4.7995

> <Gold.PLP.part.metal>
0.0000

> <Gold.PLP.part.buried>
-4.1365

> <Gold.PLP.part.nonpolar>
-16.4663

> <Gold.PLP.part.repulsive>
0.0347

> <Gold.PLP.ligand.clash>
0.0000

> <Gold.PLP.ligand.torsion>
0.8954

> <Gold.PLP.Chemscore.Hbond>
4.1680

> <Gold.PLP.Chemscore.CHOScore>
0.9914

> <Gold.PLP.Chemscore.Metal>
0.0000

> <Gold.Chemscore.Hbonds>
donor molecule, donor type, donor heavy atom, donor atom, acceptor molecule, acceptor atom, score
      P1  H  6896  6907       L1     3  1.00
      P1  H  6931  6943       L1     1  1.76
      P1  H  6934  6947       L1     1  1.22
      L1  C    10    25       P1  7957  0.90

> <Gold.PLP.Chemscore.Internal.Correction>
0.1732

> <Gold.Rescore>
     Score         DG    S(hbond)    S(metal)    S(lipo)     H(rot)  DE(clash)    DE(int)     intcor
     13.21     -14.43       2.50        0.00      58.60       2.45       0.06       1.16       ----

> <Gold.Chemscore.Fitness>
13.2121

> <Gold.Chemscore.DG>
-14.4344

> <Gold.Chemscore.ZeroCoef>
-5.4800

> <Gold.Chemscore.Hbond>
2.5037

> <Gold.Chemscore.Metal>
0.0000

> <Gold.Chemscore.Lipo>
58.6013

> <Gold.Chemscore.Internal_Hbond>
0.0000

> <Gold.Chemscore.DEClash>
0.0580

> <Gold.Chemscore.DEInternal>
1.1643

> <Gold.Chemscore.Rot>
2.4470

> <Gold.Chemscore.Internal.Correction>
   9.000000E+99

> <Gold.Chemscore.Hbonds>
donor molecule, donor type, donor heavy atom, donor atom, acceptor molecule, acceptor atom, score
      P1  H  6896  6907       L1     3  1.00
      P1  H  6931  6943       L1     1  0.84
      P1  H  6934  6947       L1     1  0.25

> <Gold.Chemscore.Hbond.Weighted>
-8.3623

> <Gold.Chemscore.Metal.Weighted>
-0.0000

> <Gold.Chemscore.Lipo.Weighted>
-6.8563

> <Gold.Chemscore.Internal_Hbond.Weighted>
0.0000

> <Gold.Chemscore.DEClash.Weighted>
0.0580

> <Gold.Chemscore.DEInternal.Weighted>
1.1643

> <Gold.Chemscore.Rot.Weighted>
6.2642

> <Gold.Chemscore.Internal.Correction.Weighted>
   9.000000E+99

> <Gold.Protein.RotatedTorsions>
[ 6907 6896 6895 6894 ] final  -63.27 input  -60.11 | X-H torsion
[ 7974 7965 7964 7962 ] final    9.94 input  175.53 | X-H torsion
[ 8008 7997 7996 7995 ] final  177.29 input   59.86 | X-H torsion
[ 10167 10162 10161 10158 ] final -141.62 input  -65.29 | X-H torsion
[ 10718 10713 10712 10709 ] final  102.15 input   66.30 | X-H torsion
[ 10763 10752 10751 10750 ] final  -82.33 input  -60.55 | X-H torsion
[ 11005 11000 10999 10996 ] final  -72.79 input  -57.11 | X-H torsion

> <Gold.Protein.ActiveResidues>
 VAL166  LYS551  ARG553  GLY616  TRP617  ASP618  TYR619  PRO620  LYS621  CYS622 
 ASP623  PHE694  ASN695  SER759  ASP760  ASP761  ALA762  ILE779  LEU786  VAL792 
 PHE793  MET794  SER795  GLU796  ALA797  LYS798  CYS799  TRP800  GLU811  SER814 

> <Gold.Protein.RotatedAtoms>
  150.7660  134.6458  159.6261 H   0  0  0  0  0  0  0  0  0  0  0  0  # atno 6907 bound_to 6896
  152.3692  134.6756  160.0191 H   0  0  0  0  0  0  0  0  0  0  0  0  # atno 6908 bound_to 6896
  151.7121  133.3276  159.3330 H   0  0  0  0  0  0  0  0  0  0  0  0  # atno 6909 bound_to 6896
  146.2396  139.9709  142.8447 H   0  0  0  0  0  0  0  0  0  0  0  0  # atno 7974 bound_to 7965
  156.0673  140.1362  156.9870 H   0  0  0  0  0  0  0  0  0  0  0  0  # atno 8008 bound_to 7997
  154.4513  140.0979  156.6678 H   0  0  0  0  0  0  0  0  0  0  0  0  # atno 8009 bound_to 7997
  155.5283  140.3458  155.4423 H   0  0  0  0  0  0  0  0  0  0  0  0  # atno 8010 bound_to 7997
  139.8167  143.7628  152.2665 H   0  0  0  0  0  0  0  0  0  0  0  0  # atno 10167 bound_to 10162
  157.6810  131.0745  150.5361 H   0  0  0  0  0  0  0  0  0  0  0  0  # atno 10718 bound_to 10713
  154.5745  135.5595  153.7126 H   0  0  0  0  0  0  0  0  0  0  0  0  # atno 10763 bound_to 10752
  153.0060  135.6305  154.2068 H   0  0  0  0  0  0  0  0  0  0  0  0  # atno 10764 bound_to 10752
  154.2009  135.2878  155.2971 H   0  0  0  0  0  0  0  0  0  0  0  0  # atno 10765 bound_to 10752
  141.1614  133.6858  156.7113 H   0  0  0  0  0  0  0  0  0  0  0  0  # atno 11005 bound_to 11000
  145.1682  140.9707  143.4337 LP  0  0  0  0  0  0  0  0  0  0  0  0  # atno 17320 bound_to 7965
  145.0053  139.3560  143.6147 LP  0  0  0  0  0  0  0  0  0  0  0  0  # atno 17321 bound_to 7965
  139.7794  144.7449  151.0110 LP  0  0  0  0  0  0  0  0  0  0  0  0  # atno 17342 bound_to 10162
  140.7815  143.4558  151.0347 LP  0  0  0  0  0  0  0  0  0  0  0  0  # atno 17343 bound_to 10162
  156.5669  130.4270  149.6037 LP  0  0  0  0  0  0  0  0  0  0  0  0  # atno 17370 bound_to 10713
  156.2773  130.7051  151.1865 LP  0  0  0  0  0  0  0  0  0  0  0  0  # atno 17371 bound_to 10713
  140.2885  134.8260  157.3996 LP  0  0  0  0  0  0  0  0  0  0  0  0  # atno 17394 bound_to 11000
  140.1368  134.5023  155.8062 LP  0  0  0  0  0  0  0  0  0  0  0  0  # atno 17395 bound_to 11000

$$$$
