AV-unprocessed.smi:1946|AV-procd|sdf|7861|dock6
  -GOLD-   2272010 13D 1   1.00000     0.00000
 Structure written by MMmdl.
 38 40  0  0  0  0  0  0  0  0  1 V2000
  146.4334  142.3839  153.7138 C   0  0  0  0  0  0  0  0  0  0  0  0
  146.8663  140.5972  153.7119 S   0  0  0  0  0  0  0  0  0  0  0  0
  145.8527  139.8809  154.5016 O   0  0  0  0  0  0  0  0  0  0  0  0
  147.1257  140.1924  152.3213 O   0  0  0  0  0  0  0  0  0  0  0  0
  148.4126  140.5388  154.6088 C   0  0  0  0  0  0  0  0  0  0  0  0
  148.6312  141.4181  155.6877 C   0  0  0  0  0  0  0  0  0  0  0  0
  149.8380  141.3463  156.4105 C   0  0  0  0  0  0  0  0  0  0  0  0
  150.8192  140.3890  156.0671 C   0  0  0  0  0  0  0  0  0  0  0  0
  152.1287  140.3099  156.8362 C   0  0  2  0  0  0  0  0  0  0  0  0
  153.0118  139.3450  156.2965 O   0  0  0  0  0  0  0  0  0  0  0  0
  151.8846  140.0156  158.3285 C   0  0  0  0  0  0  0  0  0  0  0  0
  152.3717  141.0793  159.1877 N   0  0  0  0  0  0  0  0  0  0  0  0
  153.3835  141.0145  160.0746 C   0  0  0  0  0  0  0  0  0  0  0  0
  153.6636  142.1192  160.7607 N   0  0  0  0  0  0  0  0  0  0  0  0
  152.7238  143.0045  160.2606 C   0  0  0  0  0  0  0  0  0  0  0  0
  152.4827  144.3615  160.5737 C   0  0  0  0  0  0  0  0  0  0  0  0
  151.4521  145.0723  159.9238 C   0  0  0  0  0  0  0  0  0  0  0  0
  150.6484  144.4398  158.9530 C   0  0  0  0  0  0  0  0  0  0  0  0
  150.8700  143.0887  158.6235 C   0  0  0  0  0  0  0  0  0  0  0  0
  151.8991  142.3834  159.2747 C   0  0  0  0  0  0  0  0  0  0  0  0
  150.5842  139.5059  154.9908 C   0  0  0  0  0  0  0  0  0  0  0  0
  149.3800  139.5747  154.2641 C   0  0  0  0  0  0  0  0  0  0  0  0
  145.4907  142.5289  153.1868 H   0  0  0  0  0  0  0  0  0  0  0  0
  147.2193  142.9496  153.2136 H   0  0  0  0  0  0  0  0  0  0  0  0
  146.3318  142.7332  154.7411 H   0  0  0  0  0  0  0  0  0  0  0  0
  147.8831  142.1467  155.9632 H   0  0  0  0  0  0  0  0  0  0  0  0
  150.0079  142.0290  157.2304 H   0  0  0  0  0  0  0  0  0  0  0  0
  152.6316  141.2739  156.7472 H   0  0  0  0  0  0  0  0  0  0  0  0
  152.8552  139.2823  155.3667 H   0  0  0  0  0  0  0  0  0  0  0  0
  150.8171  139.8941  158.5171 H   0  0  0  0  0  0  0  0  0  0  0  0
  152.3621  139.0790  158.6208 H   0  0  0  0  0  0  0  0  0  0  0  0
  153.9486  140.1057  160.2226 H   0  0  0  0  0  0  0  0  0  0  0  0
  153.0919  144.8567  161.3153 H   0  0  0  0  0  0  0  0  0  0  0  0
  151.2772  146.1089  160.1723 H   0  0  0  0  0  0  0  0  0  0  0  0
  149.8614  144.9928  158.4614 H   0  0  0  0  0  0  0  0  0  0  0  0
  150.2574  142.6002  157.8803 H   0  0  0  0  0  0  0  0  0  0  0  0
  151.3272  138.7704  154.7187 H   0  0  0  0  0  0  0  0  0  0  0  0
  149.2046  138.8897  153.4476 H   0  0  0  0  0  0  0  0  0  0  0  0
  1  2  1  0  0  0  0
  1 23  1  0  0  0  0
  1 24  1  0  0  0  0
  1 25  1  0  0  0  0
  2  3  2  0  0  0  0
  2  4  2  0  0  0  0
  2  5  1  0  0  0  0
  5 22  1  0  0  0  0
  5  6  2  0  0  0  0
  6  7  1  0  0  0  0
  6 26  1  0  0  0  0
  7  8  2  0  0  0  0
  7 27  1  0  0  0  0
  8  9  1  0  0  0  0
  8 21  1  0  0  0  0
  9 10  1  0  0  0  0
  9 11  1  0  0  0  0
  9 28  1  0  0  0  0
 10 29  1  0  0  0  0
 11 12  1  0  0  0  0
 11 30  1  0  0  0  0
 11 31  1  0  0  0  0
 12 20  1  0  0  0  0
 12 13  1  0  0  0  0
 13 14  2  0  0  0  0
 13 32  1  0  0  0  0
 14 15  1  0  0  0  0
 15 20  2  0  0  0  0
 15 16  1  0  0  0  0
 16 17  2  0  0  0  0
 16 33  1  0  0  0  0
 17 18  1  0  0  0  0
 17 34  1  0  0  0  0
 18 19  2  0  0  0  0
 18 35  1  0  0  0  0
 19 20  1  0  0  0  0
 19 36  1  0  0  0  0
 21 22  2  0  0  0  0
 21 37  1  0  0  0  0
 22 38  1  0  0  0  0
M  END
> <s_m_source_file>
AV-unprocessed.smi

> <i_m_source_file_index>
1946

> <i_lp_mmshare_version>
43012

> <i_f3d_flags>
0

> <s_epik_input>
W0NIM11TKD1PKSg9TyljMVtjSF1bY0hdYyhbY0hdW2NIXTEpW0NASF0oW09IXSlbQ0gyXW4oW2NIXW4yKWMoYzIzKVtjSF1bY0hdW2NIXVtjSF0z

> <s_epik_cmdline>
J2VwaWtfcHl0aG9uJywgJy1waCcsICc3LjAnLCAnLXRuJywgJzgnLCAnLW1hJywgJzIwMCcsICctbWV0YWxfYmluZGluZycsICctaW1hZScsICc8aW5maWxlLm1hZT4nLCAnLW9tYWUnLCAnPG91dGZpbGUubWFlPic=

> <r_epik_Ionization_Penalty>
0.0696512

> <r_epik_Ionization_Penalty_Charging>
0

> <r_epik_Ionization_Penalty_Neutral>
0.0696512

> <r_epik_State_Penalty>
0.0610247

> <r_epik_Charging_Adjusted_Penalty>
0.0610247

> <i_epik_Tot_Q>
0

> <i_epik_Tot_abs_Q>
0

> <r_epik_Metal_State_Penalty>
6.42746e-05

> <b_epik_Metal_Only>
0

> <s_lp_Force_Field>
OPLS_2005

> <r_lp_Energy>
7.3467

> <b_lp_Chiralities_Consistent>
1

> <s_lp_Variant>
AV-unprocessed.smi:1946-1

> <Gold.Version>
5.8.1

> <Gold.Id.Protein>
6NUR|6NUR_protein|mol2

> <Gold.PLP.Fitness>
44.2824

> <Gold.PLP.PLP>
-43.1717

> <Gold.PLP.part.hbond>
-1.0000

> <Gold.PLP.part.metal>
0.0000

> <Gold.PLP.part.buried>
-7.6300

> <Gold.PLP.part.nonpolar>
-36.9472

> <Gold.PLP.part.repulsive>
2.8000

> <Gold.PLP.ligand.clash>
0.0076

> <Gold.PLP.ligand.torsion>
1.9615

> <Gold.PLP.Chemscore.Hbond>
1.0000

> <Gold.PLP.Chemscore.CHOScore>
0.0000

> <Gold.PLP.Chemscore.Metal>
0.0000

> <Gold.Chemscore.Hbonds>
donor molecule, donor type, donor heavy atom, donor atom, acceptor molecule, acceptor atom, score
      P1  H  7997  8008       L1    10  1.00

> <Gold.PLP.Chemscore.Internal.Correction>
2.0414

> <Gold.Rescore>
     Score         DG    S(hbond)    S(metal)    S(lipo)     H(rot)  DE(clash)    DE(int)     intcor
     12.52     -16.20       0.72        0.00     114.51       1.98       0.66       3.03       ----

> <Gold.Chemscore.Fitness>
12.5184

> <Gold.Chemscore.DG>
-16.2000

> <Gold.Chemscore.ZeroCoef>
-5.4800

> <Gold.Chemscore.Hbond>
0.7189

> <Gold.Chemscore.Metal>
0.0000

> <Gold.Chemscore.Lipo>
114.5134

> <Gold.Chemscore.Internal_Hbond>
0.0000

> <Gold.Chemscore.DEClash>
0.6559

> <Gold.Chemscore.DEInternal>
3.0257

> <Gold.Chemscore.Rot>
1.9840

> <Gold.Chemscore.Internal.Correction>
   9.000000E+99

> <Gold.Chemscore.Hbonds>
donor molecule, donor type, donor heavy atom, donor atom, acceptor molecule, acceptor atom, score
      P1  H  7997  8008       L1    10  0.08

> <Gold.Chemscore.Hbond.Weighted>
-2.4010

> <Gold.Chemscore.Metal.Weighted>
-0.0000

> <Gold.Chemscore.Lipo.Weighted>
-13.3981

> <Gold.Chemscore.Internal_Hbond.Weighted>
0.0000

> <Gold.Chemscore.DEClash.Weighted>
0.6559

> <Gold.Chemscore.DEInternal.Weighted>
3.0257

> <Gold.Chemscore.Rot.Weighted>
5.0791

> <Gold.Chemscore.Internal.Correction.Weighted>
   9.000000E+99

> <Gold.Protein.RotatedTorsions>
[ 6907 6896 6895 6894 ] final -108.65 input  -60.11 | X-H torsion
[ 7974 7965 7964 7962 ] final -167.73 input  175.53 | X-H torsion
[ 8008 7997 7996 7995 ] final  -40.96 input   59.86 | X-H torsion
[ 10167 10162 10161 10158 ] final  -30.03 input  -65.29 | X-H torsion
[ 10718 10713 10712 10709 ] final   -7.14 input   66.30 | X-H torsion
[ 10763 10752 10751 10750 ] final   58.11 input  -60.55 | X-H torsion
[ 11005 11000 10999 10996 ] final  100.82 input  -57.11 | X-H torsion

> <Gold.Protein.ActiveResidues>
 VAL166  LYS551  ARG553  GLY616  TRP617  ASP618  TYR619  PRO620  LYS621  CYS622 
 ASP623  PHE694  ASN695  SER759  ASP760  ASP761  ALA762  ILE779  LEU786  VAL792 
 PHE793  MET794  SER795  GLU796  ALA797  LYS798  CYS799  TRP800  GLU811  SER814 

> <Gold.Protein.RotatedAtoms>
  150.7514  133.9645  159.3525 H   0  0  0  0  0  0  0  0  0  0  0  0  # atno 6907 bound_to 6896
  151.7574  135.0816  160.0349 H   0  0  0  0  0  0  0  0  0  0  0  0  # atno 6908 bound_to 6896
  152.3426  133.6047  159.5923 H   0  0  0  0  0  0  0  0  0  0  0  0  # atno 6909 bound_to 6896
  144.7217  140.2474  143.6283 H   0  0  0  0  0  0  0  0  0  0  0  0  # atno 7974 bound_to 7965
  154.4007  140.1512  156.3113 H   0  0  0  0  0  0  0  0  0  0  0  0  # atno 8008 bound_to 7997
  155.8613  140.3453  155.5737 H   0  0  0  0  0  0  0  0  0  0  0  0  # atno 8009 bound_to 7997
  155.7877  140.0852  157.2016 H   0  0  0  0  0  0  0  0  0  0  0  0  # atno 8010 bound_to 7997
  140.7254  143.3881  151.1479 H   0  0  0  0  0  0  0  0  0  0  0  0  # atno 10167 bound_to 10162
  156.7216  130.5152  149.5867 H   0  0  0  0  0  0  0  0  0  0  0  0  # atno 10718 bound_to 10713
  152.9864  135.5618  154.5499 H   0  0  0  0  0  0  0  0  0  0  0  0  # atno 10763 bound_to 10752
  154.4938  135.2794  155.1477 H   0  0  0  0  0  0  0  0  0  0  0  0  # atno 10764 bound_to 10752
  154.2936  135.6321  153.5448 H   0  0  0  0  0  0  0  0  0  0  0  0  # atno 10765 bound_to 10752
  139.8772  134.9156  156.4813 H   0  0  0  0  0  0  0  0  0  0  0  0  # atno 11005 bound_to 11000
  145.8261  139.2065  143.1910 LP  0  0  0  0  0  0  0  0  0  0  0  0  # atno 17320 bound_to 7965
  146.0472  140.8106  142.9799 LP  0  0  0  0  0  0  0  0  0  0  0  0  # atno 17321 bound_to 7965
  139.7482  143.8820  152.3069 LP  0  0  0  0  0  0  0  0  0  0  0  0  # atno 17342 bound_to 10162
  139.8664  144.7091  150.9039 LP  0  0  0  0  0  0  0  0  0  0  0  0  # atno 17343 bound_to 10162
  156.1591  130.6362  151.0695 LP  0  0  0  0  0  0  0  0  0  0  0  0  # atno 17370 bound_to 10713
  157.6896  131.0814  150.7146 LP  0  0  0  0  0  0  0  0  0  0  0  0  # atno 17371 bound_to 10713
  140.8725  133.7977  155.9380 LP  0  0  0  0  0  0  0  0  0  0  0  0  # atno 17394 bound_to 11000
  140.8938  134.2463  157.5080 LP  0  0  0  0  0  0  0  0  0  0  0  0  # atno 17395 bound_to 11000

$$$$
