AV-unprocessed.smi:1758|AV-procd|sdf|7081|dock1
  -GOLD-   22720 8303D 1   1.00000     0.00000
 Structure written by MMmdl.
 44 46  0  0  0  0  0  0  0  0  2 V2000
  151.2119  141.2799  157.4772 C   0  0  0  0  0  0  0  0  0  0  0  0
  152.0726  140.1267  156.9483 C   0  0  0  0  0  0  0  0  0  0  0  0
  151.3696  139.3462  155.9491 N   0  0  0  0  0  0  0  0  0  0  0  0
  151.0386  138.0063  155.9904 C   0  0  0  0  0  0  0  0  0  0  0  0
  150.3866  137.7509  154.8171 C   0  0  0  0  0  0  0  0  0  0  0  0
  149.8378  136.5344  154.3385 N   0  0  0  0  0  0  0  0  0  0  0  0
  149.6206  135.4076  155.0364 C   0  0  0  0  0  0  0  0  0  0  0  0
  149.8408  135.2672  156.2392 O   0  0  0  0  0  0  0  0  0  0  0  0
  149.1230  134.4402  154.2532 N   0  0  0  0  0  0  0  0  0  0  0  0
  148.7710  133.0919  154.6905 C   0  0  2  0  0  0  0  0  0  0  0  0
  149.9923  132.2379  155.0749 C   0  0  0  0  0  0  0  0  0  0  0  0
  149.6748  130.8188  154.5611 C   0  0  0  0  0  0  0  0  0  0  0  0
  148.3040  130.8968  154.0201 N   0  3  2  0  0  0  0  0  0  0  0  0
  147.9241  129.9023  152.9932 C   0  0  0  0  0  0  0  0  0  0  0  0
  146.4417  130.1009  152.6161 C   0  0  0  0  0  0  0  0  0  0  0  0
  146.1409  131.5588  152.2103 C   0  0  0  0  0  0  0  0  0  0  0  0
  146.6430  132.5494  153.2788 C   0  0  0  0  0  0  0  0  0  0  0  0
  148.1297  132.2836  153.5638 C   0  0  1  0  0  0  0  0  0  0  0  0
  150.3579  138.9833  154.1140 C   0  0  0  0  0  0  0  0  0  0  0  0
  150.9535  139.9433  154.8048 N   0  0  0  0  0  0  0  0  0  0  0  0
  151.7485  141.8456  158.2391 H   0  0  0  0  0  0  0  0  0  0  0  0
  150.2898  140.9088  157.9252 H   0  0  0  0  0  0  0  0  0  0  0  0
  150.9431  141.9712  156.6777 H   0  0  0  0  0  0  0  0  0  0  0  0
  152.9954  140.5101  156.5107 H   0  0  0  0  0  0  0  0  0  0  0  0
  152.3611  139.4663  157.7671 H   0  0  0  0  0  0  0  0  0  0  0  0
  151.2942  137.3782  156.8310 H   0  0  0  0  0  0  0  0  0  0  0  0
  149.5956  136.5188  153.3587 H   0  0  0  0  0  0  0  0  0  0  0  0
  148.9781  134.6534  153.2771 H   0  0  0  0  0  0  0  0  0  0  0  0
  148.0850  133.1124  155.5398 H   0  0  0  0  0  0  0  0  0  0  0  0
  150.9031  132.6067  154.6008 H   0  0  0  0  0  0  0  0  0  0  0  0
  150.1561  132.2529  156.1530 H   0  0  0  0  0  0  0  0  0  0  0  0
  150.3753  130.5422  153.7716 H   0  0  0  0  0  0  0  0  0  0  0  0
  149.7371  130.0670  155.3482 H   0  0  0  0  0  0  0  0  0  0  0  0
  148.5606  130.0129  152.1139 H   0  0  0  0  0  0  0  0  0  0  0  0
  148.0818  128.8958  153.3823 H   0  0  0  0  0  0  0  0  0  0  0  0
  146.1684  129.4238  151.8060 H   0  0  0  0  0  0  0  0  0  0  0  0
  145.8149  129.8296  153.4668 H   0  0  0  0  0  0  0  0  0  0  0  0
  146.6251  131.7766  151.2576 H   0  0  0  0  0  0  0  0  0  0  0  0
  145.0705  131.6904  152.0498 H   0  0  0  0  0  0  0  0  0  0  0  0
  146.4996  133.5752  152.9382 H   0  0  0  0  0  0  0  0  0  0  0  0
  146.0584  132.4373  154.1931 H   0  0  0  0  0  0  0  0  0  0  0  0
  148.7076  132.4231  152.6468 H   0  0  0  0  0  0  0  0  0  0  0  0
  149.9348  139.2096  153.1463 H   0  0  0  0  0  0  0  0  0  0  0  0
  147.6787  130.7745  154.8039 H   0  0  0  0  0  0  0  0  0  0  0  0
  1  2  1  0  0  0  0
  1 21  1  0  0  0  0
  1 22  1  0  0  0  0
  1 23  1  0  0  0  0
  2  3  1  0  0  0  0
  2 24  1  0  0  0  0
  2 25  1  0  0  0  0
  3 20  1  0  0  0  0
  3  4  1  0  0  0  0
  4  5  2  0  0  0  0
  4 26  1  0  0  0  0
  5  6  1  0  0  0  0
  5 19  1  0  0  0  0
  6  7  1  0  0  0  0
  6 27  1  0  0  0  0
  7  8  2  0  0  0  0
  7  9  1  0  0  0  0
  9 10  1  0  0  0  0
  9 28  1  0  0  0  0
 10 18  1  0  0  0  0
 10 11  1  0  0  0  0
 10 29  1  0  0  0  0
 11 12  1  0  0  0  0
 11 30  1  0  0  0  0
 11 31  1  0  0  0  0
 12 13  1  0  0  0  0
 12 32  1  0  0  0  0
 12 33  1  0  0  0  0
 13 18  1  0  0  0  0
 13 14  1  0  0  0  0
 13 44  1  0  0  0  0
 14 15  1  0  0  0  0
 14 34  1  0  0  0  0
 14 35  1  0  0  0  0
 15 16  1  0  0  0  0
 15 36  1  0  0  0  0
 15 37  1  0  0  0  0
 16 17  1  0  0  0  0
 16 38  1  0  0  0  0
 16 39  1  0  0  0  0
 17 18  1  0  0  0  0
 17 40  1  0  0  0  0
 17 41  1  0  0  0  0
 18 42  1  0  0  0  0
 19 20  2  0  0  0  0
 19 43  1  0  0  0  0
M  CHG  1  13   1
M  END
> <s_m_source_file>
AV-unprocessed.smi

> <i_m_source_file_index>
1758

> <i_lp_mmshare_version>
43012

> <i_f3d_flags>
0

> <s_epik_input>
W0NIM11bQ0gyXW4xW2NIXWMoW2NIXW4xKVtOSF1DKD1PKVtOSF1bQ0BIXShbQ0gyXVtDSDJdMilbQ0BASF0oTjIzKVtDSDJdW0NIMl1bQ0gyXVtDSDJdMw==

> <s_epik_cmdline>
J2VwaWtfcHl0aG9uJywgJy1waCcsICc3LjAnLCAnLXRuJywgJzgnLCAnLW1hJywgJzIwMCcsICctbWV0YWxfYmluZGluZycsICctaW1hZScsICc8aW5maWxlLm1hZT4nLCAnLW9tYWUnLCAnPG91dGZpbGUubWFlPic=

> <r_lp_tautomer_probability>
1

> <r_epik_Ionization_Penalty>
0.00111541

> <r_epik_Ionization_Penalty_Charging>
0.000974069

> <r_epik_Ionization_Penalty_Neutral>
0.000141346

> <r_epik_State_Penalty>
0.000633842

> <r_epik_Charging_Adjusted_Penalty>
0.00160791

> <i_epik_Tot_Q>
1

> <i_epik_Tot_abs_Q>
1

> <r_epik_Metal_State_Penalty>
-0

> <b_epik_Metal_Only>
0

> <s_lp_Force_Field>
OPLS_2005

> <r_lp_Energy>
39.1276

> <b_lp_Chiralities_Consistent>
1

> <s_lp_Variant>
AV-unprocessed.smi:1758-3

> <Gold.Version>
5.8.1

> <Gold.Id.Protein>
6NUR|6NUR_protein|mol2

> <Gold.PLP.Fitness>
42.5086

> <Gold.PLP.PLP>
-31.7913

> <Gold.PLP.part.hbond>
-3.6619

> <Gold.PLP.part.metal>
0.0000

> <Gold.PLP.part.buried>
-1.3955

> <Gold.PLP.part.nonpolar>
-26.4782

> <Gold.PLP.part.repulsive>
0.1443

> <Gold.PLP.ligand.clash>
0.0000

> <Gold.PLP.ligand.torsion>
0.0860

> <Gold.PLP.Chemscore.Hbond>
2.6224

> <Gold.PLP.Chemscore.CHOScore>
1.0000

> <Gold.PLP.Chemscore.Metal>
0.0000

> <Gold.Chemscore.Hbonds>
donor molecule, donor type, donor heavy atom, donor atom, acceptor molecule, acceptor atom, score
      L1  H     6    27       P1  7948  1.00
      L1  H     9    28       P1  7948  0.64
      P1  H  7989  7998       L1    20  1.00
      L1  C    19    43       P1  7957  1.00

> <Gold.PLP.Chemscore.Internal.Correction>
0.0220

> <Gold.Rescore>
     Score         DG    S(hbond)    S(metal)    S(lipo)     H(rot)  DE(clash)    DE(int)     intcor
     15.57     -16.97       1.86        0.00      71.20       1.19       0.21       1.18       ----

> <Gold.Chemscore.Fitness>
15.5722

> <Gold.Chemscore.DG>
-16.9690

> <Gold.Chemscore.ZeroCoef>
-5.4800

> <Gold.Chemscore.Hbond>
1.8566

> <Gold.Chemscore.Metal>
0.0000

> <Gold.Chemscore.Lipo>
71.1977

> <Gold.Chemscore.Internal_Hbond>
0.0000

> <Gold.Chemscore.DEClash>
0.2150

> <Gold.Chemscore.DEInternal>
1.1818

> <Gold.Chemscore.Rot>
1.1884

> <Gold.Chemscore.Internal.Correction>
   9.000000E+99

> <Gold.Chemscore.Hbonds>
donor molecule, donor type, donor heavy atom, donor atom, acceptor molecule, acceptor atom, score
      L1  H     6    27       P1  7948  0.50
      L1  H     9    28       P1  7948  0.09
      P1  H  7989  7998       L1    20  0.26

> <Gold.Chemscore.Hbond.Weighted>
-6.2011

> <Gold.Chemscore.Metal.Weighted>
-0.0000

> <Gold.Chemscore.Lipo.Weighted>
-8.3301

> <Gold.Chemscore.Internal_Hbond.Weighted>
0.0000

> <Gold.Chemscore.DEClash.Weighted>
0.2150

> <Gold.Chemscore.DEInternal.Weighted>
1.1818

> <Gold.Chemscore.Rot.Weighted>
3.0423

> <Gold.Chemscore.Internal.Correction.Weighted>
   9.000000E+99

> <Gold.Protein.RotatedTorsions>
[ 6907 6896 6895 6894 ] final   79.17 input  -60.11 | X-H torsion
[ 7974 7965 7964 7962 ] final   -7.97 input  175.53 | X-H torsion
[ 8008 7997 7996 7995 ] final  176.31 input   59.86 | X-H torsion
[ 10167 10162 10161 10158 ] final  -75.99 input  -65.29 | X-H torsion
[ 10718 10713 10712 10709 ] final   10.50 input   66.30 | X-H torsion
[ 10763 10752 10751 10750 ] final   75.75 input  -60.55 | X-H torsion
[ 11005 11000 10999 10996 ] final  -51.17 input  -57.11 | X-H torsion

> <Gold.Protein.ActiveResidues>
 VAL166  LYS551  ARG553  GLY616  TRP617  ASP618  TYR619  PRO620  LYS621  CYS622 
 ASP623  PHE694  ASN695  SER759  ASP760  ASP761  ALA762  ILE779  LEU786  VAL792 
 PHE793  MET794  SER795  GLU796  ALA797  LYS798  CYS799  TRP800  GLU811  SER814 

> <Gold.Protein.RotatedAtoms>
  152.5188  134.3552  159.9264 H   0  0  0  0  0  0  0  0  0  0  0  0  # atno 6907 bound_to 6896
  151.3503  133.3921  159.2687 H   0  0  0  0  0  0  0  0  0  0  0  0  # atno 6908 bound_to 6896
  150.9732  134.9120  159.7858 H   0  0  0  0  0  0  0  0  0  0  0  0  # atno 6909 bound_to 6896
  146.2293  140.2399  142.8343 H   0  0  0  0  0  0  0  0  0  0  0  0  # atno 7974 bound_to 7965
  156.0779  140.1387  156.9749 H   0  0  0  0  0  0  0  0  0  0  0  0  # atno 8008 bound_to 7997
  154.4568  140.0958  156.6830 H   0  0  0  0  0  0  0  0  0  0  0  0  # atno 8009 bound_to 7997
  155.5124  140.3454  155.4393 H   0  0  0  0  0  0  0  0  0  0  0  0  # atno 8010 bound_to 7997
  140.4895  143.2383  151.7930 H   0  0  0  0  0  0  0  0  0  0  0  0  # atno 10167 bound_to 10162
  156.9818  130.6008  149.5677 H   0  0  0  0  0  0  0  0  0  0  0  0  # atno 10718 bound_to 10713
  153.0677  135.4977  154.8235 H   0  0  0  0  0  0  0  0  0  0  0  0  # atno 10763 bound_to 10752
  154.6977  135.2996  154.9389 H   0  0  0  0  0  0  0  0  0  0  0  0  # atno 10764 bound_to 10752
  154.0123  135.6752  153.4819 H   0  0  0  0  0  0  0  0  0  0  0  0  # atno 10765 bound_to 10752
  141.0856  133.6643  156.3838 H   0  0  0  0  0  0  0  0  0  0  0  0  # atno 11005 bound_to 11000
  144.9492  140.8161  143.5582 LP  0  0  0  0  0  0  0  0  0  0  0  0  # atno 17320 bound_to 7965
  145.2358  139.2094  143.5019 LP  0  0  0  0  0  0  0  0  0  0  0  0  # atno 17321 bound_to 7965
  139.4848  144.4668  151.9474 LP  0  0  0  0  0  0  0  0  0  0  0  0  # atno 17342 bound_to 10162
  140.3754  144.2803  150.5914 LP  0  0  0  0  0  0  0  0  0  0  0  0  # atno 17343 bound_to 10162
  156.0241  130.5335  150.8358 LP  0  0  0  0  0  0  0  0  0  0  0  0  # atno 17370 bound_to 10713
  157.5520  131.0944  150.9681 LP  0  0  0  0  0  0  0  0  0  0  0  0  # atno 17371 bound_to 10713
  140.5370  134.6158  157.5368 LP  0  0  0  0  0  0  0  0  0  0  0  0  # atno 17394 bound_to 11000
  139.9674  134.7349  156.0110 LP  0  0  0  0  0  0  0  0  0  0  0  0  # atno 17395 bound_to 11000

$$$$
