AV-unprocessed.smi:2033|AV-procd|sdf|8260|dock5
  -GOLD-   2272010533D 1   1.00000     0.00000
 Structure written by MMmdl.
 33 34  0  0  0  0  0  0  0  0  1 V2000
  150.9761  130.9440  156.5451 C   0  0  0  0  0  0  0  0  0  0  0  0
  150.6079  132.3635  156.2782 C   0  0  0  0  0  0  0  0  0  0  0  0
  150.6651  133.3178  157.2153 N   0  0  0  0  0  0  0  0  0  0  0  0
  150.2747  134.5574  156.7283 N   0  0  0  0  0  0  0  0  0  0  0  0
  149.9328  134.5004  155.4339 C   0  0  0  0  0  0  0  0  0  0  0  0
  149.4947  135.6228  154.6829 N   0  0  0  0  0  0  0  0  0  0  0  0
  149.0806  136.8191  155.1357 C   0  0  0  0  0  0  0  0  0  0  0  0
  149.0107  137.1477  156.3204 O   0  0  0  0  0  0  0  0  0  0  0  0
  148.7428  137.6293  154.1219 N   0  0  0  0  0  0  0  0  0  0  0  0
  148.2111  138.9871  154.2519 C   0  0  1  0  0  0  0  0  0  0  0  0
  149.3441  140.0230  154.0763 C   0  0  0  0  0  0  0  0  0  0  0  0
  149.0438  141.3898  154.7122 C   0  0  0  0  0  0  0  0  0  0  0  0
  147.8448  142.1340  154.1061 C   0  0  0  0  0  0  0  0  0  0  0  0
  146.4985  141.4255  154.3342 C   0  0  0  0  0  0  0  0  0  0  0  0
  146.2847  140.3177  153.4115 N   0  0  0  0  0  0  0  0  0  0  0  0
  147.0123  139.1951  153.3071 C   0  0  0  0  0  0  0  0  0  0  0  0
  146.7303  138.3453  152.4622 O   0  0  0  0  0  0  0  0  0  0  0  0
  150.0655  132.9126  154.6976 S   0  0  0  0  0  0  0  0  0  0  0  0
  151.1612  130.7865  157.6082 H   0  0  0  0  0  0  0  0  0  0  0  0
  151.8776  130.6836  155.9907 H   0  0  0  0  0  0  0  0  0  0  0  0
  150.1676  130.2838  156.2304 H   0  0  0  0  0  0  0  0  0  0  0  0
  149.4889  135.4975  153.6815 H   0  0  0  0  0  0  0  0  0  0  0  0
  148.8291  137.2738  153.1808 H   0  0  0  0  0  0  0  0  0  0  0  0
  147.8172  139.0756  155.2662 H   0  0  0  0  0  0  0  0  0  0  0  0
  150.2577  139.6467  154.5386 H   0  0  0  0  0  0  0  0  0  0  0  0
  149.5800  140.1458  153.0183 H   0  0  0  0  0  0  0  0  0  0  0  0
  148.8904  141.2649  155.7848 H   0  0  0  0  0  0  0  0  0  0  0  0
  149.9284  142.0194  154.6112 H   0  0  0  0  0  0  0  0  0  0  0  0
  147.7942  143.1207  154.5678 H   0  0  0  0  0  0  0  0  0  0  0  0
  148.0054  142.3115  153.0418 H   0  0  0  0  0  0  0  0  0  0  0  0
  146.4001  141.0867  155.3667 H   0  0  0  0  0  0  0  0  0  0  0  0
  145.6895  142.1371  154.1682 H   0  0  0  0  0  0  0  0  0  0  0  0
  145.5069  140.4166  152.7753 H   0  0  0  0  0  0  0  0  0  0  0  0
  1  2  1  0  0  0  0
  1 19  1  0  0  0  0
  1 20  1  0  0  0  0
  1 21  1  0  0  0  0
  2 18  1  0  0  0  0
  2  3  2  0  0  0  0
  3  4  1  0  0  0  0
  4  5  2  0  0  0  0
  5  6  1  0  0  0  0
  5 18  1  0  0  0  0
  6  7  1  0  0  0  0
  6 22  1  0  0  0  0
  7  8  2  0  0  0  0
  7  9  1  0  0  0  0
  9 10  1  0  0  0  0
  9 23  1  0  0  0  0
 10 16  1  0  0  0  0
 10 11  1  0  0  0  0
 10 24  1  0  0  0  0
 11 12  1  0  0  0  0
 11 25  1  0  0  0  0
 11 26  1  0  0  0  0
 12 13  1  0  0  0  0
 12 27  1  0  0  0  0
 12 28  1  0  0  0  0
 13 14  1  0  0  0  0
 13 29  1  0  0  0  0
 13 30  1  0  0  0  0
 14 15  1  0  0  0  0
 14 31  1  0  0  0  0
 14 32  1  0  0  0  0
 15 16  1  0  0  0  0
 15 33  1  0  0  0  0
 16 17  2  0  0  0  0
M  END
> <s_m_source_file>
AV-unprocessed.smi

> <i_m_source_file_index>
2033

> <i_lp_mmshare_version>
43012

> <i_f3d_flags>
0

> <s_epik_input>
W0NIM11jMW5uYyhzMSlbTkhdQyg9TylbTkhdW0NAQEhdMltDSDJdW0NIMl1bQ0gyXVtDSDJdW05IXUMyPU8=

> <s_epik_cmdline>
J2VwaWtfcHl0aG9uJywgJy1waCcsICc3LjAnLCAnLXRuJywgJzgnLCAnLW1hJywgJzIwMCcsICctbWV0YWxfYmluZGluZycsICctaW1hZScsICc8aW5maWxlLm1hZT4nLCAnLW9tYWUnLCAnPG91dGZpbGUubWFlPic=

> <r_lp_tautomer_probability>
1

> <r_epik_Ionization_Penalty>
0.00079266

> <r_epik_Ionization_Penalty_Charging>
0

> <r_epik_Ionization_Penalty_Neutral>
0.00079266

> <r_epik_State_Penalty>
-0

> <r_epik_Charging_Adjusted_Penalty>
0

> <i_epik_Tot_Q>
0

> <i_epik_Tot_abs_Q>
0

> <r_epik_Metal_State_Penalty>
0.265831

> <b_epik_Metal_Only>
0

> <s_lp_Force_Field>
OPLS_2005

> <r_lp_Energy>
9.00356

> <b_lp_Chiralities_Consistent>
1

> <s_lp_Variant>
AV-unprocessed.smi:2033-2

> <Gold.Version>
5.8.1

> <Gold.Id.Protein>
6NUR|6NUR_protein|mol2

> <Gold.PLP.Fitness>
36.4418

> <Gold.PLP.PLP>
-25.1547

> <Gold.PLP.part.hbond>
-4.0000

> <Gold.PLP.part.metal>
0.0000

> <Gold.PLP.part.buried>
-1.8301

> <Gold.PLP.part.nonpolar>
-20.1528

> <Gold.PLP.part.repulsive>
0.3512

> <Gold.PLP.ligand.clash>
0.0000

> <Gold.PLP.ligand.torsion>
0.2982

> <Gold.PLP.Chemscore.Hbond>
3.9520

> <Gold.PLP.Chemscore.CHOScore>
0.0000

> <Gold.PLP.Chemscore.Metal>
0.0000

> <Gold.Chemscore.Hbonds>
donor molecule, donor type, donor heavy atom, donor atom, acceptor molecule, acceptor atom, score
      L1  H     6    22       P1  7948  0.93
      L1  H     9    23       P1  7948  1.00
      L1  H    15    33       P1 10175  1.00
      P1  H  6896  6907       L1     3  0.91

> <Gold.PLP.Chemscore.Internal.Correction>
0.0276

> <Gold.Rescore>
     Score         DG    S(hbond)    S(metal)    S(lipo)     H(rot)  DE(clash)    DE(int)     intcor
     17.64     -19.26       3.30        0.00      45.51       1.00       0.15       1.47       ----

> <Gold.Chemscore.Fitness>
17.6447

> <Gold.Chemscore.DG>
-19.2575

> <Gold.Chemscore.ZeroCoef>
-5.4800

> <Gold.Chemscore.Hbond>
3.2972

> <Gold.Chemscore.Metal>
0.0000

> <Gold.Chemscore.Lipo>
45.5127

> <Gold.Chemscore.Internal_Hbond>
0.0000

> <Gold.Chemscore.DEClash>
0.1465

> <Gold.Chemscore.DEInternal>
1.4662

> <Gold.Chemscore.Rot>
1.0000

> <Gold.Chemscore.Internal.Correction>
   9.000000E+99

> <Gold.Chemscore.Hbonds>
donor molecule, donor type, donor heavy atom, donor atom, acceptor molecule, acceptor atom, score
      L1  H     6    22       P1  7948  0.19
      L1  H     9    23       P1  7948  1.00
      L1  H    15    33       P1 10175  0.78
      P1  H  6896  6907       L1     3  0.55

> <Gold.Chemscore.Hbond.Weighted>
-11.0125

> <Gold.Chemscore.Metal.Weighted>
-0.0000

> <Gold.Chemscore.Lipo.Weighted>
-5.3250

> <Gold.Chemscore.Internal_Hbond.Weighted>
0.0000

> <Gold.Chemscore.DEClash.Weighted>
0.1465

> <Gold.Chemscore.DEInternal.Weighted>
1.4662

> <Gold.Chemscore.Rot.Weighted>
2.5600

> <Gold.Chemscore.Internal.Correction.Weighted>
   9.000000E+99

> <Gold.Protein.RotatedTorsions>
[ 6907 6896 6895 6894 ] final -141.94 input  -60.11 | X-H torsion
[ 7974 7965 7964 7962 ] final    2.41 input  175.53 | X-H torsion
[ 8008 7997 7996 7995 ] final  121.76 input   59.86 | X-H torsion
[ 10167 10162 10161 10158 ] final  101.90 input  -65.29 | X-H torsion
[ 10718 10713 10712 10709 ] final -154.88 input   66.30 | X-H torsion
[ 10763 10752 10751 10750 ] final -133.58 input  -60.55 | X-H torsion
[ 11005 11000 10999 10996 ] final  176.31 input  -57.11 | X-H torsion

> <Gold.Protein.ActiveResidues>
 VAL166  LYS551  ARG553  GLY616  TRP617  ASP618  TYR619  PRO620  LYS621  CYS622 
 ASP623  PHE694  ASN695  SER759  ASP760  ASP761  ALA762  ILE779  LEU786  VAL792 
 PHE793  MET794  SER795  GLU796  ALA797  LYS798  CYS799  TRP800  GLU811  SER814 

> <Gold.Protein.RotatedAtoms>
  151.0805  133.5394  159.2620 H   0  0  0  0  0  0  0  0  0  0  0  0  # atno 6907 bound_to 6896
  151.2299  135.0550  159.8993 H   0  0  0  0  0  0  0  0  0  0  0  0  # atno 6908 bound_to 6896
  152.5423  134.0595  159.8199 H   0  0  0  0  0  0  0  0  0  0  0  0  # atno 6909 bound_to 6896
  146.2443  140.0840  142.8355 H   0  0  0  0  0  0  0  0  0  0  0  0  # atno 7974 bound_to 7965
  156.2700  140.2801  156.1360 H   0  0  0  0  0  0  0  0  0  0  0  0  # atno 8008 bound_to 7997
  155.1004  140.0389  157.2713 H   0  0  0  0  0  0  0  0  0  0  0  0  # atno 8009 bound_to 7997
  154.6820  140.2610  155.6905 H   0  0  0  0  0  0  0  0  0  0  0  0  # atno 8010 bound_to 7997
  139.7397  144.7014  151.0594 H   0  0  0  0  0  0  0  0  0  0  0  0  # atno 10167 bound_to 10162
  156.5053  130.8410  151.2625 H   0  0  0  0  0  0  0  0  0  0  0  0  # atno 10718 bound_to 10713
  154.8731  135.3761  154.4597 H   0  0  0  0  0  0  0  0  0  0  0  0  # atno 10763 bound_to 10752
  153.5266  135.7028  153.5709 H   0  0  0  0  0  0  0  0  0  0  0  0  # atno 10764 bound_to 10752
  153.3933  135.3967  155.1903 H   0  0  0  0  0  0  0  0  0  0  0  0  # atno 10765 bound_to 10752
  140.3717  134.7024  157.4396 H   0  0  0  0  0  0  0  0  0  0  0  0  # atno 11005 bound_to 11000
  145.0708  140.9154  143.4883 LP  0  0  0  0  0  0  0  0  0  0  0  0  # atno 17320 bound_to 7965
  145.0974  139.2847  143.5704 LP  0  0  0  0  0  0  0  0  0  0  0  0  # atno 17321 bound_to 7965
  140.7784  143.4939  150.9857 LP  0  0  0  0  0  0  0  0  0  0  0  0  # atno 17342 bound_to 10162
  139.8627  143.7293  152.3172 LP  0  0  0  0  0  0  0  0  0  0  0  0  # atno 17343 bound_to 10162
  157.7457  130.9968  150.2792 LP  0  0  0  0  0  0  0  0  0  0  0  0  # atno 17370 bound_to 10713
  156.3292  130.3798  149.7506 LP  0  0  0  0  0  0  0  0  0  0  0  0  # atno 17371 bound_to 10713
  140.0546  134.6081  155.8820 LP  0  0  0  0  0  0  0  0  0  0  0  0  # atno 17394 bound_to 11000
  141.1952  133.6586  156.5632 LP  0  0  0  0  0  0  0  0  0  0  0  0  # atno 17395 bound_to 11000

$$$$
