AV-unprocessed.smi:1659|AV-procd|sdf|6650|dock5
  -GOLD-   22720 7353D 1   1.00000     0.00000
 Structure written by MMmdl.
 43 44  0  0  0  0  0  0  0  0  1 V2000
  143.6600  145.7830  154.5150 C   0  0  0  0  0  0  0  0  0  0  0  0
  144.6033  144.6366  154.6447 C   0  0  0  0  0  0  0  0  0  0  0  0
  145.6413  144.1946  153.8736 C   0  0  0  0  0  0  0  0  0  0  0  0
  146.1043  143.0549  154.5836 C   0  0  0  0  0  0  0  0  0  0  0  0
  147.1996  142.2931  154.1023 N   0  0  0  0  0  0  0  0  0  0  0  0
  147.8630  141.3163  154.7444 C   0  0  0  0  0  0  0  0  0  0  0  0
  147.6144  140.9204  155.8835 O   0  0  0  0  0  0  0  0  0  0  0  0
  148.8459  140.8125  153.9838 N   0  0  0  0  0  0  0  0  0  0  0  0
  149.7471  139.7382  154.3847 C   0  0  0  0  0  0  0  0  0  0  0  0
  150.1542  139.8638  155.8613 C   0  0  0  0  0  0  0  0  0  0  0  0
  151.5457  140.4959  156.0351 C   0  0  0  0  0  0  0  0  0  0  0  0
  151.6788  141.1464  157.3476 N   0  0  0  0  0  0  0  0  0  0  0  0
  150.8690  142.3588  157.5434 C   0  0  0  0  0  0  0  0  0  0  0  0
  151.7301  143.6259  157.7088 C   0  0  0  0  0  0  0  0  0  0  0  0
  152.2841  143.8236  159.1277 C   0  0  0  0  0  0  0  0  0  0  0  0
  153.2469  142.7209  159.5915 C   0  0  0  0  0  0  0  0  0  0  0  0
  152.5914  141.3316  159.6618 C   0  0  0  0  0  0  0  0  0  0  0  0
  152.5115  140.6457  158.2918 C   0  0  0  0  0  0  0  0  0  0  0  0
  153.2052  139.6457  158.1027 O   0  0  0  0  0  0  0  0  0  0  0  0
  145.4109  142.8218  155.6874 N   0  0  0  0  0  0  0  0  0  0  0  0
  144.4460  143.8351  155.7328 O   0  0  0  0  0  0  0  0  0  0  0  0
  143.7063  146.2144  153.5151 H   0  0  0  0  0  0  0  0  0  0  0  0
  143.9036  146.5659  155.2333 H   0  0  0  0  0  0  0  0  0  0  0  0
  142.6340  145.4628  154.6970 H   0  0  0  0  0  0  0  0  0  0  0  0
  146.0078  144.6209  152.9517 H   0  0  0  0  0  0  0  0  0  0  0  0
  147.5122  142.5167  153.1692 H   0  0  0  0  0  0  0  0  0  0  0  0
  148.9801  141.1980  153.0604 H   0  0  0  0  0  0  0  0  0  0  0  0
  149.2351  138.7898  154.2209 H   0  0  0  0  0  0  0  0  0  0  0  0
  150.6301  139.7295  153.7433 H   0  0  0  0  0  0  0  0  0  0  0  0
  149.4126  140.4600  156.3943 H   0  0  0  0  0  0  0  0  0  0  0  0
  150.1449  138.8761  156.3239 H   0  0  0  0  0  0  0  0  0  0  0  0
  152.3159  139.7366  155.8976 H   0  0  0  0  0  0  0  0  0  0  0  0
  151.7249  141.2180  155.2361 H   0  0  0  0  0  0  0  0  0  0  0  0
  150.2120  142.5153  156.6876 H   0  0  0  0  0  0  0  0  0  0  0  0
  150.1988  142.2311  158.3945 H   0  0  0  0  0  0  0  0  0  0  0  0
  152.5422  143.6294  156.9805 H   0  0  0  0  0  0  0  0  0  0  0  0
  151.1133  144.4927  157.4691 H   0  0  0  0  0  0  0  0  0  0  0  0
  152.8042  144.7811  159.1696 H   0  0  0  0  0  0  0  0  0  0  0  0
  151.4560  143.9034  159.8330 H   0  0  0  0  0  0  0  0  0  0  0  0
  154.1239  142.6954  158.9427 H   0  0  0  0  0  0  0  0  0  0  0  0
  153.6199  142.9814  160.5824 H   0  0  0  0  0  0  0  0  0  0  0  0
  153.1894  140.6974  160.3177 H   0  0  0  0  0  0  0  0  0  0  0  0
  151.6038  141.3819  160.1215 H   0  0  0  0  0  0  0  0  0  0  0  0
  1  2  1  0  0  0  0
  1 22  1  0  0  0  0
  1 23  1  0  0  0  0
  1 24  1  0  0  0  0
  2 21  1  0  0  0  0
  2  3  2  0  0  0  0
  3  4  1  0  0  0  0
  3 25  1  0  0  0  0
  4  5  1  0  0  0  0
  4 20  2  0  0  0  0
  5  6  1  0  0  0  0
  5 26  1  0  0  0  0
  6  7  2  0  0  0  0
  6  8  1  0  0  0  0
  8  9  1  0  0  0  0
  8 27  1  0  0  0  0
  9 10  1  0  0  0  0
  9 28  1  0  0  0  0
  9 29  1  0  0  0  0
 10 11  1  0  0  0  0
 10 30  1  0  0  0  0
 10 31  1  0  0  0  0
 11 12  1  0  0  0  0
 11 32  1  0  0  0  0
 11 33  1  0  0  0  0
 12 18  1  0  0  0  0
 12 13  1  0  0  0  0
 13 14  1  0  0  0  0
 13 34  1  0  0  0  0
 13 35  1  0  0  0  0
 14 15  1  0  0  0  0
 14 36  1  0  0  0  0
 14 37  1  0  0  0  0
 15 16  1  0  0  0  0
 15 38  1  0  0  0  0
 15 39  1  0  0  0  0
 16 17  1  0  0  0  0
 16 40  1  0  0  0  0
 16 41  1  0  0  0  0
 17 18  1  0  0  0  0
 17 42  1  0  0  0  0
 17 43  1  0  0  0  0
 18 19  2  0  0  0  0
 20 21  1  0  0  0  0
M  END
> <s_m_source_file>
AV-unprocessed.smi

> <i_m_source_file_index>
1659

> <i_lp_mmshare_version>
43012

> <i_f3d_flags>
0

> <s_epik_input>
W0NIM11jMVtjSF1jKG5vMSlbTkhdQyg9TylbTkhdW0NIMl1bQ0gyXVtDSDJdTjJbQ0gyXVtDSDJdW0NIMl1bQ0gyXVtDSDJdQzI9Tw==

> <s_epik_cmdline>
J2VwaWtfcHl0aG9uJywgJy1waCcsICc3LjAnLCAnLXRuJywgJzgnLCAnLW1hJywgJzIwMCcsICctbWV0YWxfYmluZGluZycsICctaW1hZScsICc8aW5maWxlLm1hZT4nLCAnLW9tYWUnLCAnPG91dGZpbGUubWFlPic=

> <r_lp_tautomer_probability>
1

> <r_epik_Ionization_Penalty>
2.8543e-05

> <r_epik_Ionization_Penalty_Charging>
0

> <r_epik_Ionization_Penalty_Neutral>
2.8543e-05

> <r_epik_State_Penalty>
-0

> <r_epik_Charging_Adjusted_Penalty>
0

> <i_epik_Tot_Q>
0

> <i_epik_Tot_abs_Q>
0

> <r_epik_Metal_State_Penalty>
0.00845548

> <b_epik_Metal_Only>
0

> <s_lp_Force_Field>
OPLS_2005

> <r_lp_Energy>
16.7735

> <b_lp_Chiralities_Consistent>
1

> <s_lp_Variant>
AV-unprocessed.smi:1659-1

> <Gold.Version>
5.8.1

> <Gold.Id.Protein>
6NUR|6NUR_protein|mol2

> <Gold.PLP.Fitness>
47.6832

> <Gold.PLP.PLP>
-43.7032

> <Gold.PLP.part.hbond>
-2.0000

> <Gold.PLP.part.metal>
0.0000

> <Gold.PLP.part.buried>
-4.6806

> <Gold.PLP.part.nonpolar>
-37.0558

> <Gold.PLP.part.repulsive>
0.6757

> <Gold.PLP.ligand.clash>
0.0000

> <Gold.PLP.ligand.torsion>
0.6655

> <Gold.PLP.Chemscore.Hbond>
1.7613

> <Gold.PLP.Chemscore.CHOScore>
0.0000

> <Gold.PLP.Chemscore.Metal>
0.0000

> <Gold.Chemscore.Hbonds>
donor molecule, donor type, donor heavy atom, donor atom, acceptor molecule, acceptor atom, score
      L1  H     8    27       P1  7957  0.18
      P1  H  7997  8008       L1    19  1.00

> <Gold.PLP.Chemscore.Internal.Correction>
0.0272

> <Gold.Rescore>
     Score         DG    S(hbond)    S(metal)    S(lipo)     H(rot)  DE(clash)    DE(int)     intcor
     14.20     -17.56       1.61        0.00      98.52       1.88       0.08       3.28       ----

> <Gold.Chemscore.Fitness>
14.2001

> <Gold.Chemscore.DG>
-17.5589

> <Gold.Chemscore.ZeroCoef>
-5.4800

> <Gold.Chemscore.Hbond>
1.6074

> <Gold.Chemscore.Metal>
0.0000

> <Gold.Chemscore.Lipo>
98.5217

> <Gold.Chemscore.Internal_Hbond>
0.0000

> <Gold.Chemscore.DEClash>
0.0834

> <Gold.Chemscore.DEInternal>
3.2753

> <Gold.Chemscore.Rot>
1.8816

> <Gold.Chemscore.Internal.Correction>
   9.000000E+99

> <Gold.Chemscore.Hbonds>
donor molecule, donor type, donor heavy atom, donor atom, acceptor molecule, acceptor atom, score
      L1  H     8    27       P1  7957  0.19
      P1  H  7997  8008       L1    19  0.78

> <Gold.Chemscore.Hbond.Weighted>
-5.3687

> <Gold.Chemscore.Metal.Weighted>
-0.0000

> <Gold.Chemscore.Lipo.Weighted>
-11.5270

> <Gold.Chemscore.Internal_Hbond.Weighted>
0.0000

> <Gold.Chemscore.DEClash.Weighted>
0.0834

> <Gold.Chemscore.DEInternal.Weighted>
3.2753

> <Gold.Chemscore.Rot.Weighted>
4.8169

> <Gold.Chemscore.Internal.Correction.Weighted>
   9.000000E+99

> <Gold.Protein.RotatedTorsions>
[ 6907 6896 6895 6894 ] final  -17.51 input  -60.11 | X-H torsion
[ 7974 7965 7964 7962 ] final  -29.63 input  175.53 | X-H torsion
[ 8008 7997 7996 7995 ] final  -90.10 input   59.86 | X-H torsion
[ 10167 10162 10161 10158 ] final  115.46 input  -65.29 | X-H torsion
[ 10718 10713 10712 10709 ] final   44.89 input   66.30 | X-H torsion
[ 10763 10752 10751 10750 ] final  -93.34 input  -60.55 | X-H torsion
[ 11005 11000 10999 10996 ] final   45.28 input  -57.11 | X-H torsion

> <Gold.Protein.ActiveResidues>
 VAL166  LYS551  ARG553  GLY616  TRP617  ASP618  TYR619  PRO620  LYS621  CYS622 
 ASP623  PHE694  ASN695  SER759  ASP760  ASP761  ALA762  ILE779  LEU786  VAL792 
 PHE793  MET794  SER795  GLU796  ALA797  LYS798  CYS799  TRP800  GLU811  SER814 

> <Gold.Protein.RotatedAtoms>
  151.2923  135.0745  159.9208 H   0  0  0  0  0  0  0  0  0  0  0  0  # atno 6907 bound_to 6896
  152.5314  133.9919  159.7865 H   0  0  0  0  0  0  0  0  0  0  0  0  # atno 6908 bound_to 6896
  151.0191  133.5842  159.2704 H   0  0  0  0  0  0  0  0  0  0  0  0  # atno 6909 bound_to 6896
  146.1202  140.5437  142.8739 H   0  0  0  0  0  0  0  0  0  0  0  0  # atno 7974 bound_to 7965
  154.6945  140.0534  157.0396 H   0  0  0  0  0  0  0  0  0  0  0  0  # atno 8008 bound_to 7997
  155.0771  140.3205  155.4594 H   0  0  0  0  0  0  0  0  0  0  0  0  # atno 8009 bound_to 7997
  156.2739  140.2071  156.5899 H   0  0  0  0  0  0  0  0  0  0  0  0  # atno 8010 bound_to 7997
  139.6316  144.7115  151.2421 H   0  0  0  0  0  0  0  0  0  0  0  0  # atno 10167 bound_to 10162
  157.4316  130.8028  149.7609 H   0  0  0  0  0  0  0  0  0  0  0  0  # atno 10718 bound_to 10713
  154.6949  135.5198  153.8444 H   0  0  0  0  0  0  0  0  0  0  0  0  # atno 10763 bound_to 10752
  153.0660  135.6585  154.0363 H   0  0  0  0  0  0  0  0  0  0  0  0  # atno 10764 bound_to 10752
  154.0232  135.2992  155.3358 H   0  0  0  0  0  0  0  0  0  0  0  0  # atno 10765 bound_to 10752
  140.1474  134.4505  155.8406 H   0  0  0  0  0  0  0  0  0  0  0  0  # atno 11005 bound_to 11000
  144.7590  140.5377  143.6748 LP  0  0  0  0  0  0  0  0  0  0  0  0  # atno 17320 bound_to 7965
  145.5481  139.1476  143.3409 LP  0  0  0  0  0  0  0  0  0  0  0  0  # atno 17321 bound_to 7965
  140.7442  143.6471  150.8282 LP  0  0  0  0  0  0  0  0  0  0  0  0  # atno 17342 bound_to 10162
  140.0096  143.5657  152.2844 LP  0  0  0  0  0  0  0  0  0  0  0  0  # atno 17343 bound_to 10162
  155.9915  130.3937  150.2980 LP  0  0  0  0  0  0  0  0  0  0  0  0  # atno 17370 bound_to 10713
  157.1137  131.0228  151.3037 LP  0  0  0  0  0  0  0  0  0  0  0  0  # atno 17371 bound_to 10713
  141.2194  133.6858  156.7358 LP  0  0  0  0  0  0  0  0  0  0  0  0  # atno 17394 bound_to 11000
  140.2647  134.8439  157.3791 LP  0  0  0  0  0  0  0  0  0  0  0  0  # atno 17395 bound_to 11000

$$$$
