AV-unprocessed.smi:2796|AV-procd|sdf|10782|dock8
  -GOLD-   2272015213D 1   1.00000     0.00000
 Structure written by MMmdl.
 27 28  0  0  0  0  0  0  0  0  1 V2000
  146.7248  138.5823  151.1683 N   0  0  0  0  0  0  0  0  0  0  0  0
  147.1539  139.2150  152.0371 C   0  0  0  0  0  0  0  0  0  0  0  0
  147.6934  140.0085  153.1282 C   0  0  0  0  0  0  0  0  0  0  0  0
  147.0883  141.2392  153.4582 C   0  0  0  0  0  0  0  0  0  0  0  0
  147.6265  141.9954  154.5173 C   0  0  0  0  0  0  0  0  0  0  0  0
  148.7525  141.4972  155.2128 C   0  0  0  0  0  0  0  0  0  0  0  0
  149.3645  142.1744  156.2771 N   0  0  0  0  0  0  0  0  0  0  0  0
  150.3116  141.4907  157.1456 C   0  0  0  0  0  0  0  0  0  0  0  0
  151.0695  142.4358  158.0568 C   0  0  0  0  0  0  0  0  0  0  0  0
  151.3922  143.7050  157.7328 C   0  0  0  0  0  0  0  0  0  0  0  0
  152.0104  144.5734  158.5964 O   0  0  0  0  0  0  0  0  0  0  0  0
  152.0213  144.1422  159.9530 C   0  0  0  0  0  0  0  0  0  0  0  0
  152.3393  142.6407  160.0391 C   0  0  0  0  0  0  0  0  0  0  0  0
  151.4148  141.8802  159.2665 O   0  0  0  0  0  0  0  0  0  0  0  0
  149.2784  140.2543  154.8016 C   0  0  0  0  0  0  0  0  0  0  0  0
  148.7681  139.5236  153.7874 N   0  0  0  0  0  0  0  0  0  0  0  0
  146.2287  141.6019  152.9130 H   0  0  0  0  0  0  0  0  0  0  0  0
  147.1702  142.9391  154.7760 H   0  0  0  0  0  0  0  0  0  0  0  0
  149.3547  143.1845  156.2850 H   0  0  0  0  0  0  0  0  0  0  0  0
  149.7803  140.7756  157.7743 H   0  0  0  0  0  0  0  0  0  0  0  0
  151.0221  140.9304  156.5365 H   0  0  0  0  0  0  0  0  0  0  0  0
  151.1478  144.1735  156.7910 H   0  0  0  0  0  0  0  0  0  0  0  0
  152.7609  144.7212  160.5066 H   0  0  0  0  0  0  0  0  0  0  0  0
  151.0492  144.3507  160.4020 H   0  0  0  0  0  0  0  0  0  0  0  0
  153.3490  142.4467  159.6749 H   0  0  0  0  0  0  0  0  0  0  0  0
  152.3023  142.3019  161.0744 H   0  0  0  0  0  0  0  0  0  0  0  0
  150.1373  139.8302  155.3011 H   0  0  0  0  0  0  0  0  0  0  0  0
  1  2  3  0  0  0  0
  2  3  1  0  0  0  0
  3 16  1  0  0  0  0
  3  4  2  0  0  0  0
  4  5  1  0  0  0  0
  4 17  1  0  0  0  0
  5  6  2  0  0  0  0
  5 18  1  0  0  0  0
  6  7  1  0  0  0  0
  6 15  1  0  0  0  0
  7  8  1  0  0  0  0
  7 19  1  0  0  0  0
  8  9  1  0  0  0  0
  8 20  1  0  0  0  0
  8 21  1  0  0  0  0
  9 14  1  0  0  0  0
  9 10  2  0  0  0  0
 10 11  1  0  0  0  0
 10 22  1  0  0  0  0
 11 12  1  0  0  0  0
 12 13  1  0  0  0  0
 12 23  1  0  0  0  0
 12 24  1  0  0  0  0
 13 14  1  0  0  0  0
 13 25  1  0  0  0  0
 13 26  1  0  0  0  0
 15 16  2  0  0  0  0
 15 27  1  0  0  0  0
M  END
> <s_m_source_file>
AV-unprocessed.smi

> <i_m_source_file_index>
2796

> <i_lp_mmshare_version>
43012

> <i_f3d_flags>
0

> <s_epik_input>
TiNDYzFbY0hdW2NIXWMoW2NIXW4xKVtOSF1bQ0gyXUMyPVtDSF1PW0NIMl1bQ0gyXU8y

> <s_epik_cmdline>
J2VwaWtfcHl0aG9uJywgJy1waCcsICc3LjAnLCAnLXRuJywgJzgnLCAnLW1hJywgJzIwMCcsICctbWV0YWxfYmluZGluZycsICctaW1hZScsICc8aW5maWxlLm1hZT4nLCAnLW9tYWUnLCAnPG91dGZpbGUubWFlPic=

> <r_lp_tautomer_probability>
1

> <r_epik_Ionization_Penalty>
1.57619e-06

> <r_epik_Ionization_Penalty_Charging>
0

> <r_epik_Ionization_Penalty_Neutral>
1.57619e-06

> <r_epik_State_Penalty>
-0

> <r_epik_Charging_Adjusted_Penalty>
0

> <i_epik_Tot_Q>
0

> <i_epik_Tot_abs_Q>
0

> <r_epik_Metal_State_Penalty>
-0

> <b_epik_Metal_Only>
0

> <s_lp_Force_Field>
OPLS_2005

> <r_lp_Energy>
3.17898

> <b_lp_Chiralities_Consistent>
1

> <s_lp_Variant>
AV-unprocessed.smi:2796-1

> <Gold.Version>
5.8.1

> <Gold.Id.Protein>
6NUR|6NUR_protein|mol2

> <Gold.PLP.Fitness>
38.4735

> <Gold.PLP.PLP>
-30.4564

> <Gold.PLP.part.hbond>
-2.0513

> <Gold.PLP.part.metal>
0.0000

> <Gold.PLP.part.buried>
-0.1841

> <Gold.PLP.part.nonpolar>
-30.9570

> <Gold.PLP.part.repulsive>
2.2896

> <Gold.PLP.ligand.clash>
0.0000

> <Gold.PLP.ligand.torsion>
0.4764

> <Gold.PLP.Chemscore.Hbond>
2.0000

> <Gold.PLP.Chemscore.CHOScore>
0.9899

> <Gold.PLP.Chemscore.Metal>
0.0000

> <Gold.Chemscore.Hbonds>
donor molecule, donor type, donor heavy atom, donor atom, acceptor molecule, acceptor atom, score
      L1  H     7    19       P1  8028  1.00
      P1  H  7954  7966       L1     1  0.96
      L1  C    10    22       P1  8028  0.93

> <Gold.PLP.Chemscore.Internal.Correction>
0.0002

> <Gold.Rescore>
     Score         DG    S(hbond)    S(metal)    S(lipo)     H(rot)  DE(clash)    DE(int)     intcor
     14.96     -15.11       0.99        0.00      81.56       1.26       0.06       0.09       ----

> <Gold.Chemscore.Fitness>
14.9605

> <Gold.Chemscore.DG>
-15.1105

> <Gold.Chemscore.ZeroCoef>
-5.4800

> <Gold.Chemscore.Hbond>
0.9885

> <Gold.Chemscore.Metal>
0.0000

> <Gold.Chemscore.Lipo>
81.5625

> <Gold.Chemscore.Internal_Hbond>
0.0000

> <Gold.Chemscore.DEClash>
0.0613

> <Gold.Chemscore.DEInternal>
0.0887

> <Gold.Chemscore.Rot>
1.2554

> <Gold.Chemscore.Internal.Correction>
   9.000000E+99

> <Gold.Chemscore.Hbonds>
donor molecule, donor type, donor heavy atom, donor atom, acceptor molecule, acceptor atom, score
      L1  H     7    19       P1  8028  0.97
      P1  H  7954  7966       L1     1  0.75

> <Gold.Chemscore.Hbond.Weighted>
-3.3016

> <Gold.Chemscore.Metal.Weighted>
-0.0000

> <Gold.Chemscore.Lipo.Weighted>
-9.5428

> <Gold.Chemscore.Internal_Hbond.Weighted>
0.0000

> <Gold.Chemscore.DEClash.Weighted>
0.0613

> <Gold.Chemscore.DEInternal.Weighted>
0.0887

> <Gold.Chemscore.Rot.Weighted>
3.2139

> <Gold.Chemscore.Internal.Correction.Weighted>
   9.000000E+99

> <Gold.Protein.RotatedTorsions>
[ 6907 6896 6895 6894 ] final   72.38 input  -60.11 | X-H torsion
[ 7974 7965 7964 7962 ] final   52.75 input  175.53 | X-H torsion
[ 8008 7997 7996 7995 ] final   54.66 input   59.86 | X-H torsion
[ 10167 10162 10161 10158 ] final  169.38 input  -65.29 | X-H torsion
[ 10718 10713 10712 10709 ] final   71.70 input   66.30 | X-H torsion
[ 10763 10752 10751 10750 ] final  -32.18 input  -60.55 | X-H torsion
[ 11005 11000 10999 10996 ] final -179.69 input  -57.11 | X-H torsion

> <Gold.Protein.ActiveResidues>
 VAL166  LYS551  ARG553  GLY616  TRP617  ASP618  TYR619  PRO620  LYS621  CYS622 
 ASP623  PHE694  ASN695  SER759  ASP760  ASP761  ALA762  ILE779  LEU786  VAL792 
 PHE793  MET794  SER795  GLU796  ALA797  LYS798  CYS799  TRP800  GLU811  SER814 

> <Gold.Protein.RotatedAtoms>
  152.4865  134.4580  159.9595 H   0  0  0  0  0  0  0  0  0  0  0  0  # atno 6907 bound_to 6896
  151.4575  133.3595  159.2812 H   0  0  0  0  0  0  0  0  0  0  0  0  # atno 6908 bound_to 6896
  150.8979  134.8414  159.7400 H   0  0  0  0  0  0  0  0  0  0  0  0  # atno 6909 bound_to 6896
  145.9781  139.4215  143.0149 H   0  0  0  0  0  0  0  0  0  0  0  0  # atno 7974 bound_to 7965
  155.4883  140.3470  155.4351 H   0  0  0  0  0  0  0  0  0  0  0  0  # atno 8008 bound_to 7997
  156.0993  140.1431  156.9517 H   0  0  0  0  0  0  0  0  0  0  0  0  # atno 8009 bound_to 7997
  154.4684  140.0909  156.7058 H   0  0  0  0  0  0  0  0  0  0  0  0  # atno 8010 bound_to 7997
  139.4991  144.3713  151.9722 H   0  0  0  0  0  0  0  0  0  0  0  0  # atno 10167 bound_to 10162
  157.6464  130.9541  150.0825 H   0  0  0  0  0  0  0  0  0  0  0  0  # atno 10718 bound_to 10713
  153.8096  135.6883  153.4843 H   0  0  0  0  0  0  0  0  0  0  0  0  # atno 10763 bound_to 10752
  153.1637  135.4570  154.9805 H   0  0  0  0  0  0  0  0  0  0  0  0  # atno 10764 bound_to 10752
  154.7973  135.3324  154.7578 H   0  0  0  0  0  0  0  0  0  0  0  0  # atno 10765 bound_to 10752
  140.4158  134.6651  157.4638 H   0  0  0  0  0  0  0  0  0  0  0  0  # atno 11005 bound_to 11000
  145.7809  140.9857  143.1100 LP  0  0  0  0  0  0  0  0  0  0  0  0  # atno 17320 bound_to 7965
  144.6854  139.9563  143.7479 LP  0  0  0  0  0  0  0  0  0  0  0  0  # atno 17321 bound_to 7965
  140.3149  144.3495  150.6024 LP  0  0  0  0  0  0  0  0  0  0  0  0  # atno 17342 bound_to 10162
  140.5769  143.2176  151.7498 LP  0  0  0  0  0  0  0  0  0  0  0  0  # atno 17343 bound_to 10162
  156.1797  130.3649  149.9051 LP  0  0  0  0  0  0  0  0  0  0  0  0  # atno 17370 bound_to 10713
  156.7007  130.8932  151.3599 LP  0  0  0  0  0  0  0  0  0  0  0  0  # atno 17371 bound_to 10713
  140.0235  134.6512  155.9206 LP  0  0  0  0  0  0  0  0  0  0  0  0  # atno 17394 bound_to 11000
  141.1803  133.6545  156.4995 LP  0  0  0  0  0  0  0  0  0  0  0  0  # atno 17395 bound_to 11000

$$$$
