AV-unprocessed.smi:2538|AV-procd|sdf|9982|dock2
  -GOLD-   2272014 23D 1   1.00000     0.00000
 Structure written by MMmdl.
 48 49  0  0  0  0  0  0  0  0  1 V2000
  152.3731  143.6300  161.0799 C   0  0  0  0  0  0  0  0  0  0  0  0
  152.0906  142.8193  159.8272 C   0  0  0  0  0  0  0  0  0  0  0  0
  152.1863  141.4106  159.8845 C   0  0  0  0  0  0  0  0  0  0  0  0
  151.9305  140.6200  158.7431 C   0  0  0  0  0  0  0  0  0  0  0  0
  151.9612  139.2458  158.5770 N   0  0  0  0  0  0  0  0  0  0  0  0
  151.6332  139.1240  157.2942 C   0  0  0  0  0  0  0  0  0  0  0  0
  151.3915  140.2583  156.6094 N   0  0  0  0  0  0  0  0  0  0  0  0
  151.0208  140.3634  155.2105 C   0  0  0  0  0  0  0  0  0  0  0  0
  149.5768  140.8738  155.0286 C   0  0  1  0  0  0  0  0  0  0  0  0
  149.4011  141.1946  153.6619 O   0  0  0  0  0  0  0  0  0  0  0  0
  148.5187  139.8234  155.4392 C   0  0  0  0  0  0  0  0  0  0  0  0
  147.1513  140.3138  155.1935 N   0  0  0  0  0  0  0  0  0  0  0  0
  146.2989  139.4236  154.3988 C   0  0  0  0  0  0  0  0  0  0  0  0
  146.3879  141.3927  156.3182 S   0  0  0  0  0  0  0  0  0  0  0  0
  145.1526  140.7382  156.7772 O   0  0  0  0  0  0  0  0  0  0  0  0
  147.3966  141.8203  157.2995 O   0  0  0  0  0  0  0  0  0  0  0  0
  145.9645  142.8419  155.2359 C   0  0  0  0  0  0  0  0  0  0  0  0
  144.4586  143.1382  155.2845 C   0  0  0  0  0  0  0  0  0  0  0  0
  146.4532  142.6067  153.7998 C   0  0  0  0  0  0  0  0  0  0  0  0
  151.5756  141.2825  157.5316 C   0  0  0  0  0  0  0  0  0  0  0  0
  151.4755  142.6834  157.4621 C   0  0  0  0  0  0  0  0  0  0  0  0
  151.7320  143.4581  158.6128 C   0  0  0  0  0  0  0  0  0  0  0  0
  151.6160  144.9698  158.5292 C   0  0  0  0  0  0  0  0  0  0  0  0
  152.6745  142.9892  161.9090 H   0  0  0  0  0  0  0  0  0  0  0  0
  151.4826  144.1787  161.3871 H   0  0  0  0  0  0  0  0  0  0  0  0
  153.1771  144.3445  160.9018 H   0  0  0  0  0  0  0  0  0  0  0  0
  152.4568  140.9234  160.8095 H   0  0  0  0  0  0  0  0  0  0  0  0
  151.5611  138.1540  156.8232 H   0  0  0  0  0  0  0  0  0  0  0  0
  151.7294  141.0185  154.7017 H   0  0  0  0  0  0  0  0  0  0  0  0
  151.1441  139.3786  154.7612 H   0  0  0  0  0  0  0  0  0  0  0  0
  149.4431  141.7920  155.6028 H   0  0  0  0  0  0  0  0  0  0  0  0
  149.4767  140.3998  153.1560 H   0  0  0  0  0  0  0  0  0  0  0  0
  148.6817  138.8848  154.9063 H   0  0  0  0  0  0  0  0  0  0  0  0
  148.6059  139.5735  156.4972 H   0  0  0  0  0  0  0  0  0  0  0  0
  146.8096  139.1159  153.4860 H   0  0  0  0  0  0  0  0  0  0  0  0
  145.3771  139.9316  154.1157 H   0  0  0  0  0  0  0  0  0  0  0  0
  146.0402  138.5360  154.9769 H   0  0  0  0  0  0  0  0  0  0  0  0
  146.4916  143.7074  155.6375 H   0  0  0  0  0  0  0  0  0  0  0  0
  144.2119  144.0109  154.6793 H   0  0  0  0  0  0  0  0  0  0  0  0
  144.1313  143.3439  156.3041 H   0  0  0  0  0  0  0  0  0  0  0  0
  143.8767  142.2964  154.9078 H   0  0  0  0  0  0  0  0  0  0  0  0
  146.2269  143.4618  153.1627 H   0  0  0  0  0  0  0  0  0  0  0  0
  145.9793  141.7286  153.3597 H   0  0  0  0  0  0  0  0  0  0  0  0
  147.5325  142.4545  153.7716 H   0  0  0  0  0  0  0  0  0  0  0  0
  151.2009  143.1571  156.5309 H   0  0  0  0  0  0  0  0  0  0  0  0
  151.3186  145.2909  157.5305 H   0  0  0  0  0  0  0  0  0  0  0  0
  152.5716  145.4405  158.7616 H   0  0  0  0  0  0  0  0  0  0  0  0
  150.8686  145.3353  159.2339 H   0  0  0  0  0  0  0  0  0  0  0  0
  1  2  1  0  0  0  0
  1 24  1  0  0  0  0
  1 25  1  0  0  0  0
  1 26  1  0  0  0  0
  2 22  1  0  0  0  0
  2  3  2  0  0  0  0
  3  4  1  0  0  0  0
  3 27  1  0  0  0  0
  4 20  2  0  0  0  0
  4  5  1  0  0  0  0
  5  6  2  0  0  0  0
  6  7  1  0  0  0  0
  6 28  1  0  0  0  0
  7  8  1  0  0  0  0
  7 20  1  0  0  0  0
  8  9  1  0  0  0  0
  8 29  1  0  0  0  0
  8 30  1  0  0  0  0
  9 10  1  0  0  0  0
  9 11  1  0  0  0  0
  9 31  1  0  0  0  0
 10 32  1  0  0  0  0
 11 12  1  0  0  0  0
 11 33  1  0  0  0  0
 11 34  1  0  0  0  0
 12 13  1  0  0  0  0
 12 14  1  0  0  0  0
 13 35  1  0  0  0  0
 13 36  1  0  0  0  0
 13 37  1  0  0  0  0
 14 15  2  0  0  0  0
 14 16  2  0  0  0  0
 14 17  1  0  0  0  0
 17 18  1  0  0  0  0
 17 19  1  0  0  0  0
 17 38  1  0  0  0  0
 18 39  1  0  0  0  0
 18 40  1  0  0  0  0
 18 41  1  0  0  0  0
 19 42  1  0  0  0  0
 19 43  1  0  0  0  0
 19 44  1  0  0  0  0
 20 21  1  0  0  0  0
 21 22  2  0  0  0  0
 21 45  1  0  0  0  0
 22 23  1  0  0  0  0
 23 46  1  0  0  0  0
 23 47  1  0  0  0  0
 23 48  1  0  0  0  0
M  END
> <s_m_source_file>
AV-unprocessed.smi

> <i_m_source_file_index>
2538

> <i_lp_mmshare_version>
43012

> <i_f3d_flags>
0

> <s_epik_input>
W0NIM11jKFtjSF0xKWMoW0NIM10pW2NIXWMoYzEyKW4oW2NIXW4yKVtDSDJdW0NASF0oW09IXSlbQ0gyXU4oW0NIM10pUyg9TykoPU8pW0NIXShbQ0gzXSlbQ0gzXQ==

> <s_epik_cmdline>
J2VwaWtfcHl0aG9uJywgJy1waCcsICc3LjAnLCAnLXRuJywgJzgnLCAnLW1hJywgJzIwMCcsICctbWV0YWxfYmluZGluZycsICctaW1hZScsICc8aW5maWxlLm1hZT4nLCAnLW9tYWUnLCAnPG91dGZpbGUubWFlPic=

> <r_epik_Ionization_Penalty>
0.105018

> <r_epik_Ionization_Penalty_Charging>
0

> <r_epik_Ionization_Penalty_Neutral>
0.105018

> <r_epik_State_Penalty>
0.094904

> <r_epik_Charging_Adjusted_Penalty>
0.094904

> <i_epik_Tot_Q>
0

> <i_epik_Tot_abs_Q>
0

> <r_epik_Metal_State_Penalty>
0.000102919

> <b_epik_Metal_Only>
0

> <s_lp_Force_Field>
OPLS_2005

> <r_lp_Energy>
6.99225

> <b_lp_Chiralities_Consistent>
1

> <s_lp_Variant>
AV-unprocessed.smi:2538-2

> <Gold.Version>
5.8.1

> <Gold.Id.Protein>
6NUR|6NUR_protein|mol2

> <Gold.PLP.Fitness>
47.2294

> <Gold.PLP.PLP>
-42.7142

> <Gold.PLP.part.hbond>
-3.0000

> <Gold.PLP.part.metal>
0.0000

> <Gold.PLP.part.buried>
-4.2798

> <Gold.PLP.part.nonpolar>
-34.6474

> <Gold.PLP.part.repulsive>
0.1438

> <Gold.PLP.ligand.clash>
0.0000

> <Gold.PLP.ligand.torsion>
1.4407

> <Gold.PLP.Chemscore.Hbond>
1.5784

> <Gold.PLP.Chemscore.CHOScore>
0.0000

> <Gold.PLP.Chemscore.Metal>
0.0000

> <Gold.Chemscore.Hbonds>
donor molecule, donor type, donor heavy atom, donor atom, acceptor molecule, acceptor atom, score
      L1  H    10    32       P1  7957  0.66
      P1  H  8011  8017       L1    10  0.90

> <Gold.PLP.Chemscore.Internal.Correction>
2.6614

> <Gold.Rescore>
     Score         DG    S(hbond)    S(metal)    S(lipo)     H(rot)  DE(clash)    DE(int)     intcor
     14.10     -16.87       1.11        0.00     115.83       2.29       1.34       1.44       ----

> <Gold.Chemscore.Fitness>
14.0977

> <Gold.Chemscore.DG>
-16.8709

> <Gold.Chemscore.ZeroCoef>
-5.4800

> <Gold.Chemscore.Hbond>
1.1094

> <Gold.Chemscore.Metal>
0.0000

> <Gold.Chemscore.Lipo>
115.8335

> <Gold.Chemscore.Internal_Hbond>
0.0000

> <Gold.Chemscore.DEClash>
1.3371

> <Gold.Chemscore.DEInternal>
1.4362

> <Gold.Chemscore.Rot>
2.2917

> <Gold.Chemscore.Internal.Correction>
   9.000000E+99

> <Gold.Chemscore.Hbonds>
donor molecule, donor type, donor heavy atom, donor atom, acceptor molecule, acceptor atom, score
      L1  H    10    32       P1  7957  0.60
      P1  H  8011  8017       L1    10  0.20

> <Gold.Chemscore.Hbond.Weighted>
-3.7052

> <Gold.Chemscore.Metal.Weighted>
-0.0000

> <Gold.Chemscore.Lipo.Weighted>
-13.5525

> <Gold.Chemscore.Internal_Hbond.Weighted>
0.0000

> <Gold.Chemscore.DEClash.Weighted>
1.3371

> <Gold.Chemscore.DEInternal.Weighted>
1.4362

> <Gold.Chemscore.Rot.Weighted>
5.8669

> <Gold.Chemscore.Internal.Correction.Weighted>
   9.000000E+99

> <Gold.Protein.RotatedTorsions>
[ 6907 6896 6895 6894 ] final  -70.03 input  -60.11 | X-H torsion
[ 7974 7965 7964 7962 ] final  -76.38 input  175.53 | X-H torsion
[ 8008 7997 7996 7995 ] final -104.88 input   59.86 | X-H torsion
[ 10167 10162 10161 10158 ] final   -9.11 input  -65.29 | X-H torsion
[ 10718 10713 10712 10709 ] final  -24.14 input   66.30 | X-H torsion
[ 10763 10752 10751 10750 ] final -108.26 input  -60.55 | X-H torsion
[ 11005 11000 10999 10996 ] final  128.50 input  -57.11 | X-H torsion

> <Gold.Protein.ActiveResidues>
 VAL166  LYS551  ARG553  GLY616  TRP617  ASP618  TYR619  PRO620  LYS621  CYS622 
 ASP623  PHE694  ASN695  SER759  ASP760  ASP761  ALA762  ILE779  LEU786  VAL792 
 PHE793  MET794  SER795  GLU796  ALA797  LYS798  CYS799  TRP800  GLU811  SER814 

> <Gold.Protein.RotatedAtoms>
  150.7277  134.5511  159.5794 H   0  0  0  0  0  0  0  0  0  0  0  0  # atno 6907 bound_to 6896
  152.2998  134.7621  160.0369 H   0  0  0  0  0  0  0  0  0  0  0  0  # atno 6908 bound_to 6896
  151.8206  133.3358  159.3619 H   0  0  0  0  0  0  0  0  0  0  0  0  # atno 6909 bound_to 6896
  145.6137  140.9380  143.1176 H   0  0  0  0  0  0  0  0  0  0  0  0  # atno 7974 bound_to 7965
  154.8918  140.0415  157.1843 H   0  0  0  0  0  0  0  0  0  0  0  0  # atno 8008 bound_to 7997
  154.8533  140.2932  155.5563 H   0  0  0  0  0  0  0  0  0  0  0  0  # atno 8009 bound_to 7997
  156.2996  140.2460  156.3495 H   0  0  0  0  0  0  0  0  0  0  0  0  # atno 8010 bound_to 7997
  140.7078  143.5894  150.8909 H   0  0  0  0  0  0  0  0  0  0  0  0  # atno 10167 bound_to 10162
  156.4816  130.4546  149.6808 H   0  0  0  0  0  0  0  0  0  0  0  0  # atno 10718 bound_to 10713
  154.8125  135.4644  154.0554 H   0  0  0  0  0  0  0  0  0  0  0  0  # atno 10763 bound_to 10752
  153.1973  135.6864  153.8282 H   0  0  0  0  0  0  0  0  0  0  0  0  # atno 10764 bound_to 10752
  153.7779  135.3261  155.3339 H   0  0  0  0  0  0  0  0  0  0  0  0  # atno 10765 bound_to 10752
  139.9564  134.9612  156.9012 H   0  0  0  0  0  0  0  0  0  0  0  0  # atno 11005 bound_to 11000
  144.7259  139.7877  143.7365 LP  0  0  0  0  0  0  0  0  0  0  0  0  # atno 17320 bound_to 7965
  146.1485  139.4561  143.0064 LP  0  0  0  0  0  0  0  0  0  0  0  0  # atno 17321 bound_to 7965
  139.9620  143.6153  152.2999 LP  0  0  0  0  0  0  0  0  0  0  0  0  # atno 17342 bound_to 10162
  139.6709  144.7661  151.1785 LP  0  0  0  0  0  0  0  0  0  0  0  0  # atno 17343 bound_to 10162
  156.3516  130.7435  151.2395 LP  0  0  0  0  0  0  0  0  0  0  0  0  # atno 17370 bound_to 10713
  157.7482  131.0375  150.4461 LP  0  0  0  0  0  0  0  0  0  0  0  0  # atno 17371 bound_to 10713
  140.5599  134.0545  155.7395 LP  0  0  0  0  0  0  0  0  0  0  0  0  # atno 17394 bound_to 11000
  141.1236  133.9420  157.2680 LP  0  0  0  0  0  0  0  0  0  0  0  0  # atno 17395 bound_to 11000

$$$$
