AV-unprocessed.smi:3323|AV-procd|sdf|12777|dock8
  -GOLD-   2272019123D 1   1.00000     0.00000
 Structure written by MMmdl.
 37 38  0  0  0  0  0  0  0  0  1 V2000
  153.1526  143.0631  162.8800 C   0  0  0  0  0  0  0  0  0  0  0  0
  152.4786  143.1022  161.5044 C   0  0  2  0  0  0  0  0  0  0  0  0
  153.4474  142.6981  160.3760 C   0  0  0  0  0  0  0  0  0  0  0  0
  152.7837  142.8111  158.9887 C   0  0  1  0  0  0  0  0  0  0  0  0
  151.7485  141.7028  158.6835 C   0  0  0  0  0  0  0  0  0  0  0  0
  150.8721  142.0556  157.5694 N   0  0  0  0  0  0  0  0  0  0  0  0
  150.1399  141.1927  156.8496 C   0  0  0  0  0  0  0  0  0  0  0  0
  150.1119  139.9817  157.0658 O   0  0  0  0  0  0  0  0  0  0  0  0
  149.4558  141.8305  155.8838 N   0  0  0  0  0  0  0  0  0  0  0  0
  148.5908  141.2957  154.8895 C   0  0  0  0  0  0  0  0  0  0  0  0
  148.7244  140.0117  154.3057 C   0  0  0  0  0  0  0  0  0  0  0  0
  147.8017  139.6141  153.3186 C   0  0  0  0  0  0  0  0  0  0  0  0
  146.7842  140.5133  152.9462 C   0  0  0  0  0  0  0  0  0  0  0  0
  146.6495  141.7421  153.4868 N   0  0  0  0  0  0  0  0  0  0  0  0
  147.5372  142.1161  154.4326 C   0  0  0  0  0  0  0  0  0  0  0  0
  152.1788  144.2201  158.8564 C   0  0  0  0  0  0  0  0  0  0  0  0
  151.2852  144.5705  160.0600 C   0  0  0  0  0  0  0  0  0  0  0  0
  152.0181  144.4303  161.2724 O   0  0  0  0  0  0  0  0  0  0  0  0
  153.5080  142.0590  163.1128 H   0  0  0  0  0  0  0  0  0  0  0  0
  152.4552  143.3582  163.6642 H   0  0  0  0  0  0  0  0  0  0  0  0
  154.0068  143.7395  162.9213 H   0  0  0  0  0  0  0  0  0  0  0  0
  151.6233  142.4254  161.5250 H   0  0  0  0  0  0  0  0  0  0  0  0
  154.3152  143.3583  160.4044 H   0  0  0  0  0  0  0  0  0  0  0  0
  153.8361  141.6946  160.5471 H   0  0  0  0  0  0  0  0  0  0  0  0
  153.5703  142.7202  158.2382 H   0  0  0  0  0  0  0  0  0  0  0  0
  152.2368  140.7441  158.5062 H   0  0  0  0  0  0  0  0  0  0  0  0
  151.1129  141.5527  159.5565 H   0  0  0  0  0  0  0  0  0  0  0  0
  150.8286  143.0334  157.3222 H   0  0  0  0  0  0  0  0  0  0  0  0
  149.5485  142.8356  155.8720 H   0  0  0  0  0  0  0  0  0  0  0  0
  149.5121  139.3282  154.5792 H   0  0  0  0  0  0  0  0  0  0  0  0
  147.8748  138.6417  152.8546 H   0  0  0  0  0  0  0  0  0  0  0  0
  146.0621  140.2400  152.1911 H   0  0  0  0  0  0  0  0  0  0  0  0
  147.3997  143.1073  154.8397 H   0  0  0  0  0  0  0  0  0  0  0  0
  152.9862  144.9512  158.7966 H   0  0  0  0  0  0  0  0  0  0  0  0
  151.6164  144.3123  157.9268 H   0  0  0  0  0  0  0  0  0  0  0  0
  150.9409  145.6016  159.9790 H   0  0  0  0  0  0  0  0  0  0  0  0
  150.3927  143.9444  160.0872 H   0  0  0  0  0  0  0  0  0  0  0  0
  1  2  1  0  0  0  0
  1 19  1  0  0  0  0
  1 20  1  0  0  0  0
  1 21  1  0  0  0  0
  2 18  1  0  0  0  0
  2  3  1  0  0  0  0
  2 22  1  0  0  0  0
  3  4  1  0  0  0  0
  3 23  1  0  0  0  0
  3 24  1  0  0  0  0
  4  5  1  0  0  0  0
  4 16  1  0  0  0  0
  4 25  1  0  0  0  0
  5  6  1  0  0  0  0
  5 26  1  0  0  0  0
  5 27  1  0  0  0  0
  6  7  1  0  0  0  0
  6 28  1  0  0  0  0
  7  8  2  0  0  0  0
  7  9  1  0  0  0  0
  9 10  1  0  0  0  0
  9 29  1  0  0  0  0
 10 15  1  0  0  0  0
 10 11  2  0  0  0  0
 11 12  1  0  0  0  0
 11 30  1  0  0  0  0
 12 13  2  0  0  0  0
 12 31  1  0  0  0  0
 13 14  1  0  0  0  0
 13 32  1  0  0  0  0
 14 15  2  0  0  0  0
 15 33  1  0  0  0  0
 16 17  1  0  0  0  0
 16 34  1  0  0  0  0
 16 35  1  0  0  0  0
 17 18  1  0  0  0  0
 17 36  1  0  0  0  0
 17 37  1  0  0  0  0
M  END
> <s_m_source_file>
AV-unprocessed.smi

> <i_m_source_file_index>
3323

> <i_lp_mmshare_version>
43012

> <i_f3d_flags>
0

> <s_epik_input>
W0NIM11bQ0BASF0xW0NIMl1bQ0BIXShbQ0gyXVtDSDJdTzEpW0NIMl1bTkhdQyg9TylbTkhdYzJbY0hdW2NIXVtjSF1uW2NIXTI=

> <s_epik_cmdline>
J2VwaWtfcHl0aG9uJywgJy1waCcsICc3LjAnLCAnLXRuJywgJzgnLCAnLW1hJywgJzIwMCcsICctbWV0YWxfYmluZGluZycsICctaW1hZScsICc8aW5maWxlLm1hZT4nLCAnLW9tYWUnLCAnPG91dGZpbGUubWFlPic=

> <r_epik_Ionization_Penalty>
0.00485293

> <r_epik_Ionization_Penalty_Charging>
0

> <r_epik_Ionization_Penalty_Neutral>
0.00485293

> <r_epik_State_Penalty>
0.00349083

> <r_epik_Charging_Adjusted_Penalty>
0.00349083

> <i_epik_Tot_Q>
0

> <i_epik_Tot_abs_Q>
0

> <r_epik_Metal_State_Penalty>
-0

> <b_epik_Metal_Only>
0

> <s_lp_Force_Field>
OPLS_2005

> <r_lp_Energy>
13.5955

> <b_lp_Chiralities_Consistent>
1

> <s_lp_Variant>
AV-unprocessed.smi:3323-1

> <Gold.Version>
5.8.1

> <Gold.Id.Protein>
6NUR|6NUR_protein|mol2

> <Gold.PLP.Fitness>
46.5591

> <Gold.PLP.PLP>
-38.8632

> <Gold.PLP.part.hbond>
-1.0000

> <Gold.PLP.part.metal>
0.0000

> <Gold.PLP.part.buried>
-1.1837

> <Gold.PLP.part.nonpolar>
-37.3453

> <Gold.PLP.part.repulsive>
0.5182

> <Gold.PLP.ligand.clash>
0.0000

> <Gold.PLP.ligand.torsion>
0.4952

> <Gold.PLP.Chemscore.Hbond>
1.0000

> <Gold.PLP.Chemscore.CHOScore>
1.8939

> <Gold.PLP.Chemscore.Metal>
0.0000

> <Gold.Chemscore.Hbonds>
donor molecule, donor type, donor heavy atom, donor atom, acceptor molecule, acceptor atom, score
      L1  H     9    29       P1  8028  1.00
      L1  C    13    32       P1 10175  0.89
      L1  C    15    33       P1  8028  1.00

> <Gold.PLP.Chemscore.Internal.Correction>
0.0045

> <Gold.Rescore>
     Score         DG    S(hbond)    S(metal)    S(lipo)     H(rot)  DE(clash)    DE(int)     intcor
     17.01     -18.37       0.84        0.00     113.03       1.23       0.12       1.23       ----

> <Gold.Chemscore.Fitness>
17.0148

> <Gold.Chemscore.DG>
-18.3653

> <Gold.Chemscore.ZeroCoef>
-5.4800

> <Gold.Chemscore.Hbond>
0.8391

> <Gold.Chemscore.Metal>
0.0000

> <Gold.Chemscore.Lipo>
113.0312

> <Gold.Chemscore.Internal_Hbond>
0.0000

> <Gold.Chemscore.DEClash>
0.1161

> <Gold.Chemscore.DEInternal>
1.2345

> <Gold.Chemscore.Rot>
1.2273

> <Gold.Chemscore.Internal.Correction>
   9.000000E+99

> <Gold.Chemscore.Hbonds>
donor molecule, donor type, donor heavy atom, donor atom, acceptor molecule, acceptor atom, score
      L1  H     9    29       P1  8028  0.93

> <Gold.Chemscore.Hbond.Weighted>
-2.8025

> <Gold.Chemscore.Metal.Weighted>
-0.0000

> <Gold.Chemscore.Lipo.Weighted>
-13.2247

> <Gold.Chemscore.Internal_Hbond.Weighted>
0.0000

> <Gold.Chemscore.DEClash.Weighted>
0.1161

> <Gold.Chemscore.DEInternal.Weighted>
1.2345

> <Gold.Chemscore.Rot.Weighted>
3.1418

> <Gold.Chemscore.Internal.Correction.Weighted>
   9.000000E+99

> <Gold.Protein.RotatedTorsions>
[ 6907 6896 6895 6894 ] final  177.38 input  -60.11 | X-H torsion
[ 7974 7965 7964 7962 ] final -130.90 input  175.53 | X-H torsion
[ 8008 7997 7996 7995 ] final  -56.12 input   59.86 | X-H torsion
[ 10167 10162 10161 10158 ] final  154.10 input  -65.29 | X-H torsion
[ 10718 10713 10712 10709 ] final  177.41 input   66.30 | X-H torsion
[ 10763 10752 10751 10750 ] final  112.77 input  -60.55 | X-H torsion
[ 11005 11000 10999 10996 ] final  -31.72 input  -57.11 | X-H torsion

> <Gold.Protein.ActiveResidues>
 VAL166  LYS551  ARG553  GLY616  TRP617  ASP618  TYR619  PRO620  LYS621  CYS622 
 ASP623  PHE694  ASN695  SER759  ASP760  ASP761  ALA762  ILE779  LEU786  VAL792 
 PHE793  MET794  SER795  GLU796  ALA797  LYS798  CYS799  TRP800  GLU811  SER814 

> <Gold.Protein.RotatedAtoms>
  151.7049  133.3311  159.3275 H   0  0  0  0  0  0  0  0  0  0  0  0  # atno 6907 bound_to 6896
  150.7719  134.6583  159.6335 H   0  0  0  0  0  0  0  0  0  0  0  0  # atno 6908 bound_to 6896
  152.3747  134.6684  160.0216 H   0  0  0  0  0  0  0  0  0  0  0  0  # atno 6909 bound_to 6896
  144.9430  140.7260  143.4834 H   0  0  0  0  0  0  0  0  0  0  0  0  # atno 7974 bound_to 7965
  154.4218  140.1137  156.5586 H   0  0  0  0  0  0  0  0  0  0  0  0  # atno 8008 bound_to 7997
  155.6335  140.3496  155.4672 H   0  0  0  0  0  0  0  0  0  0  0  0  # atno 8009 bound_to 7997
  155.9929  140.1183  157.0611 H   0  0  0  0  0  0  0  0  0  0  0  0  # atno 8010 bound_to 7997
  139.4824  144.5216  151.7867 H   0  0  0  0  0  0  0  0  0  0  0  0  # atno 10167 bound_to 10162
  156.9058  130.9893  151.3028 H   0  0  0  0  0  0  0  0  0  0  0  0  # atno 10718 bound_to 10713
  153.4826  135.3676  155.2450 H   0  0  0  0  0  0  0  0  0  0  0  0  # atno 10763 bound_to 10752
  154.8755  135.3958  154.3682 H   0  0  0  0  0  0  0  0  0  0  0  0  # atno 10764 bound_to 10752
  153.4288  135.7082  153.6310 H   0  0  0  0  0  0  0  0  0  0  0  0  # atno 10765 bound_to 10752
  140.9492  133.7231  156.1193 H   0  0  0  0  0  0  0  0  0  0  0  0  # atno 11005 bound_to 11000
  145.2961  139.1866  143.4714 LP  0  0  0  0  0  0  0  0  0  0  0  0  # atno 17320 bound_to 7965
  146.3293  140.2945  142.8617 LP  0  0  0  0  0  0  0  0  0  0  0  0  # atno 17321 bound_to 7965
  140.4731  144.1559  150.5921 LP  0  0  0  0  0  0  0  0  0  0  0  0  # atno 17342 bound_to 10162
  140.4361  143.2547  151.9533 LP  0  0  0  0  0  0  0  0  0  0  0  0  # atno 17343 bound_to 10162
  157.5998  130.8504  149.8785 LP  0  0  0  0  0  0  0  0  0  0  0  0  # atno 17370 bound_to 10713
  156.0560  130.3708  150.1091 LP  0  0  0  0  0  0  0  0  0  0  0  0  # atno 17371 bound_to 10713
  140.7627  134.3921  157.5523 LP  0  0  0  0  0  0  0  0  0  0  0  0  # atno 17394 bound_to 11000
  139.8842  134.8971  156.2717 LP  0  0  0  0  0  0  0  0  0  0  0  0  # atno 17395 bound_to 11000

$$$$
