AV-unprocessed.smi:2009|AV-procd|sdf|8147|dock6
  -GOLD-   2272010383D 1   1.00000     0.00000
 Structure written by MMmdl.
 37 38  0  0  0  0  0  0  0  0  2 V2000
  154.0307  142.1841  161.1426 C   0  0  0  0  0  0  0  0  0  0  0  0
  153.6509  141.2157  160.0143 C   0  0  2  0  0  0  0  0  0  0  0  0
  152.2852  141.5761  159.3770 C   0  0  0  0  0  0  0  0  0  0  0  0
  152.2360  142.9035  158.7704 N   0  0  0  0  0  0  0  0  0  0  0  0
  153.1862  143.9047  158.8227 C   0  0  0  0  0  0  0  0  0  0  0  0
  152.7103  144.9622  158.1023 C   0  0  0  0  0  0  0  0  0  0  0  0
  151.4491  144.5059  157.6283 C   0  0  0  0  0  0  0  0  0  0  0  0
  151.1723  143.2719  158.0170 N   0  0  0  0  0  0  0  0  0  0  0  0
  153.6113  139.8619  160.5511 N   0  5  0  0  0  0  0  0  0  0  0  0
  154.6823  138.7665  160.0187 S   0  0  0  0  0  0  0  0  0  0  0  0
  154.0702  137.5162  159.5398 O   0  0  0  0  0  0  0  0  0  0  0  0
  155.7432  139.3698  159.1955 O   0  0  0  0  0  0  0  0  0  0  0  0
  155.4008  138.3842  161.5556 N   0  0  0  0  0  0  0  0  0  0  0  0
  154.5675  137.6177  162.5060 C   0  0  0  0  0  0  0  0  0  0  0  0
  155.4011  137.0429  163.6635 C   0  0  0  0  0  0  0  0  0  0  0  0
  156.1935  138.1404  164.3768 C   0  0  0  0  0  0  0  0  0  0  0  0
  157.0702  138.8659  163.3541 C   0  0  0  0  0  0  0  0  0  0  0  0
  156.2267  139.4320  162.2005 C   0  0  0  0  0  0  0  0  0  0  0  0
  154.0871  143.2086  160.7746 H   0  0  0  0  0  0  0  0  0  0  0  0
  155.0047  141.9340  161.5651 H   0  0  0  0  0  0  0  0  0  0  0  0
  153.2993  142.1616  161.9514 H   0  0  0  0  0  0  0  0  0  0  0  0
  154.4131  141.3170  159.2402 H   0  0  0  0  0  0  0  0  0  0  0  0
  152.0174  140.8416  158.6159 H   0  0  0  0  0  0  0  0  0  0  0  0
  151.5021  141.5239  160.1346 H   0  0  0  0  0  0  0  0  0  0  0  0
  154.1082  143.7820  159.3709 H   0  0  0  0  0  0  0  0  0  0  0  0
  153.1900  145.9156  157.9400 H   0  0  0  0  0  0  0  0  0  0  0  0
  150.7328  145.0296  157.0128 H   0  0  0  0  0  0  0  0  0  0  0  0
  153.7806  138.2686  162.8889 H   0  0  0  0  0  0  0  0  0  0  0  0
  154.0742  136.7965  161.9867 H   0  0  0  0  0  0  0  0  0  0  0  0
  154.7480  136.5338  164.3727 H   0  0  0  0  0  0  0  0  0  0  0  0
  156.0871  136.2871  163.2783 H   0  0  0  0  0  0  0  0  0  0  0  0
  155.5112  138.8456  164.8528 H   0  0  0  0  0  0  0  0  0  0  0  0
  156.8096  137.7106  165.1668 H   0  0  0  0  0  0  0  0  0  0  0  0
  157.6203  139.6719  163.8403 H   0  0  0  0  0  0  0  0  0  0  0  0
  157.8170  138.1780  162.9555 H   0  0  0  0  0  0  0  0  0  0  0  0
  156.8916  139.8921  161.4713 H   0  0  0  0  0  0  0  0  0  0  0  0
  155.5701  140.2228  162.5651 H   0  0  0  0  0  0  0  0  0  0  0  0
  1  2  1  0  0  0  0
  1 19  1  0  0  0  0
  1 20  1  0  0  0  0
  1 21  1  0  0  0  0
  2  3  1  0  0  0  0
  2  9  1  0  0  0  0
  2 22  1  0  0  0  0
  3  4  1  0  0  0  0
  3 23  1  0  0  0  0
  3 24  1  0  0  0  0
  4  8  1  0  0  0  0
  4  5  1  0  0  0  0
  5  6  2  0  0  0  0
  5 25  1  0  0  0  0
  6  7  1  0  0  0  0
  6 26  1  0  0  0  0
  7  8  2  0  0  0  0
  7 27  1  0  0  0  0
  9 10  1  0  0  0  0
 10 11  2  0  0  0  0
 10 12  2  0  0  0  0
 10 13  1  0  0  0  0
 13 18  1  0  0  0  0
 13 14  1  0  0  0  0
 14 15  1  0  0  0  0
 14 28  1  0  0  0  0
 14 29  1  0  0  0  0
 15 16  1  0  0  0  0
 15 30  1  0  0  0  0
 15 31  1  0  0  0  0
 16 17  1  0  0  0  0
 16 32  1  0  0  0  0
 16 33  1  0  0  0  0
 17 18  1  0  0  0  0
 17 34  1  0  0  0  0
 17 35  1  0  0  0  0
 18 36  1  0  0  0  0
 18 37  1  0  0  0  0
M  CHG  1   9  -1
M  END
> <s_m_source_file>
AV-unprocessed.smi

> <i_m_source_file_index>
2009

> <i_lp_mmshare_version>
43012

> <i_f3d_flags>
0

> <s_epik_input>
bjFbY0hdW2NIXVtjSF1uMVtDSDJdW0NAQEhdKFtDSDNdKVtOSF1TKD1PKSg9TylOMltDSDJdW0NIMl1bQ0gyXVtDSDJdW0NIMl0y

> <s_epik_cmdline>
J2VwaWtfcHl0aG9uJywgJy1waCcsICc3LjAnLCAnLXRuJywgJzgnLCAnLW1hJywgJzIwMCcsICctbWV0YWxfYmluZGluZycsICctaW1hZScsICc8aW5maWxlLm1hZT4nLCAnLW9tYWUnLCAnPG91dGZpbGUubWFlPic=

> <r_lp_tautomer_probability>
1

> <r_epik_Ionization_Penalty>
1.75622

> <r_epik_Ionization_Penalty_Charging>
1.7562

> <r_epik_Ionization_Penalty_Neutral>
2.38826e-05

> <r_epik_State_Penalty>
1.86645

> <r_epik_Charging_Adjusted_Penalty>
3.62264

> <i_epik_Tot_Q>
-1

> <i_epik_Tot_abs_Q>
1

> <r_epik_Metal_State_Penalty>
0.460135

> <b_epik_Metal_Only>
0

> <s_lp_Force_Field>
OPLS_2005

> <r_lp_Energy>
5.98775

> <b_lp_Chiralities_Consistent>
1

> <s_lp_Variant>
AV-unprocessed.smi:2009-3

> <Gold.Version>
5.8.1

> <Gold.Id.Protein>
6NUR|6NUR_protein|mol2

> <Gold.PLP.Fitness>
41.3087

> <Gold.PLP.PLP>
-35.5438

> <Gold.PLP.part.hbond>
-0.9662

> <Gold.PLP.part.metal>
0.0000

> <Gold.PLP.part.buried>
-3.9854

> <Gold.PLP.part.nonpolar>
-29.9695

> <Gold.PLP.part.repulsive>
0.1249

> <Gold.PLP.ligand.clash>
0.0000

> <Gold.PLP.ligand.torsion>
0.8977

> <Gold.PLP.Chemscore.Hbond>
0.9913

> <Gold.PLP.Chemscore.CHOScore>
1.0000

> <Gold.PLP.Chemscore.Metal>
0.0000

> <Gold.Chemscore.Hbonds>
donor molecule, donor type, donor heavy atom, donor atom, acceptor molecule, acceptor atom, score
      P1  H  7997  8009       L1    12  1.00
      L1  C     7    27       P1  8028  1.00

> <Gold.PLP.Chemscore.Internal.Correction>
1.5865

> <Gold.Rescore>
     Score         DG    S(hbond)    S(metal)    S(lipo)     H(rot)  DE(clash)    DE(int)     intcor
     15.63     -16.75       0.99        0.00     102.27       1.57       0.17       0.96       ----

> <Gold.Chemscore.Fitness>
15.6274

> <Gold.Chemscore.DG>
-16.7522

> <Gold.Chemscore.ZeroCoef>
-5.4800

> <Gold.Chemscore.Hbond>
0.9935

> <Gold.Chemscore.Metal>
0.0000

> <Gold.Chemscore.Lipo>
102.2722

> <Gold.Chemscore.Internal_Hbond>
0.0000

> <Gold.Chemscore.DEClash>
0.1675

> <Gold.Chemscore.DEInternal>
0.9572

> <Gold.Chemscore.Rot>
1.5672

> <Gold.Chemscore.Internal.Correction>
   9.000000E+99

> <Gold.Chemscore.Hbonds>
donor molecule, donor type, donor heavy atom, donor atom, acceptor molecule, acceptor atom, score
      P1  H  7997  8009       L1    12  0.98

> <Gold.Chemscore.Hbond.Weighted>
-3.3182

> <Gold.Chemscore.Metal.Weighted>
-0.0000

> <Gold.Chemscore.Lipo.Weighted>
-11.9658

> <Gold.Chemscore.Internal_Hbond.Weighted>
0.0000

> <Gold.Chemscore.DEClash.Weighted>
0.1675

> <Gold.Chemscore.DEInternal.Weighted>
0.9572

> <Gold.Chemscore.Rot.Weighted>
4.0119

> <Gold.Chemscore.Internal.Correction.Weighted>
   9.000000E+99

> <Gold.Protein.RotatedTorsions>
[ 6907 6896 6895 6894 ] final  131.26 input  -60.11 | X-H torsion
[ 7974 7965 7964 7962 ] final  121.03 input  175.53 | X-H torsion
[ 8008 7997 7996 7995 ] final  102.39 input   59.86 | X-H torsion
[ 10167 10162 10161 10158 ] final  -81.39 input  -65.29 | X-H torsion
[ 10718 10713 10712 10709 ] final  -36.90 input   66.30 | X-H torsion
[ 10763 10752 10751 10750 ] final -157.70 input  -60.55 | X-H torsion
[ 11005 11000 10999 10996 ] final  -16.46 input  -57.11 | X-H torsion

> <Gold.Protein.ActiveResidues>
 VAL166  LYS551  ARG553  GLY616  TRP617  ASP618  TYR619  PRO620  LYS621  CYS622 
 ASP623  PHE694  ASN695  SER759  ASP760  ASP761  ALA762  ILE779  LEU786  VAL792 
 PHE793  MET794  SER795  GLU796  ALA797  LYS798  CYS799  TRP800  GLU811  SER814 

> <Gold.Protein.RotatedAtoms>
  152.3444  133.6105  159.5899 H   0  0  0  0  0  0  0  0  0  0  0  0  # atno 6907 bound_to 6896
  150.7498  133.9672  159.3543 H   0  0  0  0  0  0  0  0  0  0  0  0  # atno 6908 bound_to 6896
  151.7531  135.0828  160.0385 H   0  0  0  0  0  0  0  0  0  0  0  0  # atno 6909 bound_to 6896
  145.1242  139.3369  143.4698 H   0  0  0  0  0  0  0  0  0  0  0  0  # atno 7974 bound_to 7965
  156.1389  140.3182  155.8464 H   0  0  0  0  0  0  0  0  0  0  0  0  # atno 8008 bound_to 7997
  155.4192  140.0511  157.3044 H   0  0  0  0  0  0  0  0  0  0  0  0  # atno 8009 bound_to 7997
  154.4959  140.2110  155.9460 H   0  0  0  0  0  0  0  0  0  0  0  0  # atno 8010 bound_to 7997
  140.4417  143.2512  151.8617 H   0  0  0  0  0  0  0  0  0  0  0  0  # atno 10167 bound_to 10162
  156.3214  130.4266  149.7956 H   0  0  0  0  0  0  0  0  0  0  0  0  # atno 10718 bound_to 10713
  154.7615  135.3119  154.8368 H   0  0  0  0  0  0  0  0  0  0  0  0  # atno 10763 bound_to 10752
  153.9128  135.6804  153.4754 H   0  0  0  0  0  0  0  0  0  0  0  0  # atno 10764 bound_to 10752
  153.1216  135.4820  154.9137 H   0  0  0  0  0  0  0  0  0  0  0  0  # atno 10765 bound_to 10752
  140.8070  133.8170  155.9526 H   0  0  0  0  0  0  0  0  0  0  0  0  # atno 11005 bound_to 11000
  146.3519  140.1214  142.8600 LP  0  0  0  0  0  0  0  0  0  0  0  0  # atno 17320 bound_to 7965
  145.0707  140.9153  143.4884 LP  0  0  0  0  0  0  0  0  0  0  0  0  # atno 17321 bound_to 7965
  139.4790  144.5222  151.8786 LP  0  0  0  0  0  0  0  0  0  0  0  0  # atno 17342 bound_to 10162
  140.4311  144.2114  150.5888 LP  0  0  0  0  0  0  0  0  0  0  0  0  # atno 17343 bound_to 10162
  156.5263  130.8237  151.3221 LP  0  0  0  0  0  0  0  0  0  0  0  0  # atno 17370 bound_to 10713
  157.7412  130.9866  150.2432 LP  0  0  0  0  0  0  0  0  0  0  0  0  # atno 17371 bound_to 10713
  140.9237  134.2110  157.4910 LP  0  0  0  0  0  0  0  0  0  0  0  0  # atno 17394 bound_to 11000
  139.8717  134.9803  156.5071 LP  0  0  0  0  0  0  0  0  0  0  0  0  # atno 17395 bound_to 11000

$$$$
