AV-unprocessed.smi:1222|AV-procd|sdf|5123|dock8
  -GOLD-   22720 4183D 1   1.00000     0.00000
 Structure written by MMmdl.
 36 38  0  0  0  0  0  0  0  0  3 V2000
  152.1815  139.8405  154.8834 O   0  0  0  0  0  0  0  0  0  0  0  0
  151.0477  139.7902  155.3655 C   0  0  0  0  0  0  0  0  0  0  0  0
  149.9571  139.2304  154.7957 N   0  5  0  0  0  0  0  0  0  0  0  0
  148.8768  139.9830  154.5305 C   0  0  0  0  0  0  0  0  0  0  0  0
  148.8497  141.3084  154.7110 N   0  0  0  0  0  0  0  0  0  0  0  0
  147.6284  141.8904  154.3668 C   0  0  0  0  0  0  0  0  0  0  0  0
  146.7066  140.9882  153.9060 C   0  0  0  0  0  0  0  0  0  0  0  0
  147.3496  139.3708  153.8890 S   0  0  0  0  0  0  0  0  0  0  0  0
  150.8098  140.3238  156.5722 N   0  0  0  0  0  0  0  0  0  0  0  0
  151.7903  140.9909  157.4233 C   0  0  2  0  0  0  0  0  0  0  0  0
  152.1115  140.1361  158.6641 C   0  0  0  0  0  0  0  0  0  0  0  0
  153.0555  140.8809  159.6214 C   0  0  0  0  0  0  0  0  0  0  0  0
  152.4840  142.1913  160.0188 N   0  3  1  0  0  0  0  0  0  0  0  0
  153.3146  142.8785  161.0315 C   0  0  0  0  0  0  0  0  0  0  0  0
  152.9345  142.5483  162.4561 C   0  0  0  0  0  0  0  0  0  0  0  0
  152.5520  143.8853  161.8610 C   0  0  0  0  0  0  0  0  0  0  0  0
  152.2126  143.0516  158.8406 C   0  0  0  0  0  0  0  0  0  0  0  0
  151.2470  142.3598  157.8647 C   0  0  0  0  0  0  0  0  0  0  0  0
  147.5025  142.9567  154.4824 H   0  0  0  0  0  0  0  0  0  0  0  0
  145.6956  141.1741  153.5767 H   0  0  0  0  0  0  0  0  0  0  0  0
  149.8656  140.2601  156.9237 H   0  0  0  0  0  0  0  0  0  0  0  0
  152.7068  141.1541  156.8530 H   0  0  0  0  0  0  0  0  0  0  0  0
  151.1890  139.8825  159.1890 H   0  0  0  0  0  0  0  0  0  0  0  0
  152.5661  139.1909  158.3657 H   0  0  0  0  0  0  0  0  0  0  0  0
  153.2269  140.2714  160.5093 H   0  0  0  0  0  0  0  0  0  0  0  0
  154.0269  141.0333  159.1485 H   0  0  0  0  0  0  0  0  0  0  0  0
  154.3548  143.0565  160.7641 H   0  0  0  0  0  0  0  0  0  0  0  0
  152.1367  141.8266  162.6235 H   0  0  0  0  0  0  0  0  0  0  0  0
  153.7294  142.5427  163.1992 H   0  0  0  0  0  0  0  0  0  0  0  0
  153.0942  144.7607  162.2131 H   0  0  0  0  0  0  0  0  0  0  0  0
  151.5003  144.0507  161.6329 H   0  0  0  0  0  0  0  0  0  0  0  0
  151.7808  143.9974  159.1694 H   0  0  0  0  0  0  0  0  0  0  0  0
  153.1509  143.2894  158.3366 H   0  0  0  0  0  0  0  0  0  0  0  0
  151.0834  142.9960  156.9939 H   0  0  0  0  0  0  0  0  0  0  0  0
  150.2746  142.2366  158.3447 H   0  0  0  0  0  0  0  0  0  0  0  0
  151.5923  142.0005  160.4532 H   0  0  0  0  0  0  0  0  0  0  0  0
  1  2  2  0  0  0  0
  2  3  1  0  0  0  0
  2  9  1  0  0  0  0
  3  4  1  0  0  0  0
  4  8  1  0  0  0  0
  4  5  2  0  0  0  0
  5  6  1  0  0  0  0
  6  7  2  0  0  0  0
  6 19  1  0  0  0  0
  7  8  1  0  0  0  0
  7 20  1  0  0  0  0
  9 10  1  0  0  0  0
  9 21  1  0  0  0  0
 10 18  1  0  0  0  0
 10 11  1  0  0  0  0
 10 22  1  0  0  0  0
 11 12  1  0  0  0  0
 11 23  1  0  0  0  0
 11 24  1  0  0  0  0
 12 13  1  0  0  0  0
 12 25  1  0  0  0  0
 12 26  1  0  0  0  0
 13 14  1  0  0  0  0
 13 17  1  0  0  0  0
 13 36  1  0  0  0  0
 14 16  1  0  0  0  0
 14 15  1  0  0  0  0
 14 27  1  0  0  0  0
 15 16  1  0  0  0  0
 15 28  1  0  0  0  0
 15 29  1  0  0  0  0
 16 30  1  0  0  0  0
 16 31  1  0  0  0  0
 17 18  1  0  0  0  0
 17 32  1  0  0  0  0
 17 33  1  0  0  0  0
 18 34  1  0  0  0  0
 18 35  1  0  0  0  0
M  CHG  1   3  -1
M  CHG  1  13   1
M  END
> <s_m_source_file>
AV-unprocessed.smi

> <i_m_source_file_index>
1222

> <i_lp_mmshare_version>
43012

> <i_f3d_flags>
0

> <s_epik_input>
czFbY0hdW2NIXW5jMVtOSF1DKD1PKVtOSF1bQ0hdMltDSDJdW0NIMl1OKFtDSDJdW0NIMl0yKVtDSF0zW0NIMl1bQ0gyXTM=

> <s_epik_cmdline>
J2VwaWtfcHl0aG9uJywgJy1waCcsICc3LjAnLCAnLXRuJywgJzgnLCAnLW1hJywgJzIwMCcsICctbWV0YWxfYmluZGluZycsICctaW1hZScsICc8aW5maWxlLm1hZT4nLCAnLW9tYWUnLCAnPG91dGZpbGUubWFlPic=

> <r_lp_tautomer_probability>
0.999

> <r_epik_Ionization_Penalty>
6.4609

> <r_epik_Ionization_Penalty_Charging>
5.58663

> <r_epik_Ionization_Penalty_Neutral>
0.874262

> <r_epik_State_Penalty>
5.57752

> <r_epik_Charging_Adjusted_Penalty>
11.1642

> <i_epik_Tot_Q>
0

> <i_epik_Tot_abs_Q>
2

> <r_epik_Metal_State_Penalty>
1.58738

> <b_epik_Metal_Only>
1

> <s_lp_Force_Field>
OPLS_2005

> <r_lp_Energy>
15.8934

> <b_lp_Chiralities_Consistent>
1

> <s_lp_Variant>
AV-unprocessed.smi:1222-4

> <Gold.Version>
5.8.1

> <Gold.Id.Protein>
6NUR|6NUR_protein|mol2

> <Gold.PLP.Fitness>
44.7012

> <Gold.PLP.PLP>
-38.8360

> <Gold.PLP.part.hbond>
-1.0000

> <Gold.PLP.part.metal>
0.0000

> <Gold.PLP.part.buried>
-6.5895

> <Gold.PLP.part.nonpolar>
-32.1479

> <Gold.PLP.part.repulsive>
0.4830

> <Gold.PLP.ligand.clash>
0.0000

> <Gold.PLP.ligand.torsion>
1.2950

> <Gold.PLP.Chemscore.Hbond>
0.4136

> <Gold.PLP.Chemscore.CHOScore>
1.9830

> <Gold.PLP.Chemscore.Metal>
0.0000

> <Gold.Chemscore.Hbonds>
donor molecule, donor type, donor heavy atom, donor atom, acceptor molecule, acceptor atom, score
      P1  H  7989  7998       L1     1  0.54
      L1  C     6    19       P1  8028  1.00
      L1  C     7    20       P1 10175  1.00

> <Gold.PLP.Chemscore.Internal.Correction>
1.2653

> <Gold.Rescore>
     Score         DG    S(hbond)    S(metal)    S(lipo)     H(rot)  DE(clash)    DE(int)     intcor
     14.07     -15.28       0.81        0.00      87.80       1.25       0.03       1.18       ----

> <Gold.Chemscore.Fitness>
14.0689

> <Gold.Chemscore.DG>
-15.2764

> <Gold.Chemscore.ZeroCoef>
-5.4800

> <Gold.Chemscore.Hbond>
0.8131

> <Gold.Chemscore.Metal>
0.0000

> <Gold.Chemscore.Lipo>
87.8041

> <Gold.Chemscore.Internal_Hbond>
0.0000

> <Gold.Chemscore.DEClash>
0.0297

> <Gold.Chemscore.DEInternal>
1.1777

> <Gold.Chemscore.Rot>
1.2470

> <Gold.Chemscore.Internal.Correction>
   9.000000E+99

> <Gold.Chemscore.Hbonds>
donor molecule, donor type, donor heavy atom, donor atom, acceptor molecule, acceptor atom, score
      P1  H  7989  7998       L1     1  0.06

> <Gold.Chemscore.Hbond.Weighted>
-2.7157

> <Gold.Chemscore.Metal.Weighted>
-0.0000

> <Gold.Chemscore.Lipo.Weighted>
-10.2731

> <Gold.Chemscore.Internal_Hbond.Weighted>
0.0000

> <Gold.Chemscore.DEClash.Weighted>
0.0297

> <Gold.Chemscore.DEInternal.Weighted>
1.1777

> <Gold.Chemscore.Rot.Weighted>
3.1924

> <Gold.Chemscore.Internal.Correction.Weighted>
   9.000000E+99

> <Gold.Protein.RotatedTorsions>
[ 6907 6896 6895 6894 ] final  160.93 input  -60.11 | X-H torsion
[ 7974 7965 7964 7962 ] final  -88.15 input  175.53 | X-H torsion
[ 8008 7997 7996 7995 ] final -108.31 input   59.86 | X-H torsion
[ 10167 10162 10161 10158 ] final  -80.35 input  -65.29 | X-H torsion
[ 10718 10713 10712 10709 ] final   10.66 input   66.30 | X-H torsion
[ 10763 10752 10751 10750 ] final   15.86 input  -60.55 | X-H torsion
[ 11005 11000 10999 10996 ] final  166.23 input  -57.11 | X-H torsion

> <Gold.Protein.ActiveResidues>
 VAL166  LYS551  ARG553  GLY616  TRP617  ASP618  TYR619  PRO620  LYS621  CYS622 
 ASP623  PHE694  ASN695  SER759  ASP760  ASP761  ALA762  ILE779  LEU786  VAL792 
 PHE793  MET794  SER795  GLU796  ALA797  LYS798  CYS799  TRP800  GLU811  SER814 

> <Gold.Protein.RotatedAtoms>
  151.9633  133.3702  159.4043 H   0  0  0  0  0  0  0  0  0  0  0  0  # atno 6907 bound_to 6896
  150.6960  134.4217  159.5217 H   0  0  0  0  0  0  0  0  0  0  0  0  # atno 6908 bound_to 6896
  152.1910  134.8672  160.0568 H   0  0  0  0  0  0  0  0  0  0  0  0  # atno 6909 bound_to 6896
  145.4570  140.9561  143.1991 H   0  0  0  0  0  0  0  0  0  0  0  0  # atno 7974 bound_to 7965
  154.9423  140.0402  157.2103 H   0  0  0  0  0  0  0  0  0  0  0  0  # atno 8008 bound_to 7997
  154.8057  140.2859  155.5867 H   0  0  0  0  0  0  0  0  0  0  0  0  # atno 8009 bound_to 7997
  156.2966  140.2546  156.2935 H   0  0  0  0  0  0  0  0  0  0  0  0  # atno 8010 bound_to 7997
  140.4511  143.2483  151.8488 H   0  0  0  0  0  0  0  0  0  0  0  0  # atno 10167 bound_to 10162
  156.9843  130.6017  149.5679 H   0  0  0  0  0  0  0  0  0  0  0  0  # atno 10718 bound_to 10713
  153.1485  135.6774  153.8917 H   0  0  0  0  0  0  0  0  0  0  0  0  # atno 10763 bound_to 10752
  153.8351  135.3112  155.3423 H   0  0  0  0  0  0  0  0  0  0  0  0  # atno 10764 bound_to 10752
  154.7844  135.4870  154.0000 H   0  0  0  0  0  0  0  0  0  0  0  0  # atno 10765 bound_to 10752
  140.2642  134.7878  157.3618 H   0  0  0  0  0  0  0  0  0  0  0  0  # atno 11005 bound_to 11000
  144.8026  139.6111  143.7065 LP  0  0  0  0  0  0  0  0  0  0  0  0  # atno 17320 bound_to 7965
  146.2473  139.6124  142.9451 LP  0  0  0  0  0  0  0  0  0  0  0  0  # atno 17321 bound_to 7965
  139.4797  144.5119  151.8921 LP  0  0  0  0  0  0  0  0  0  0  0  0  # atno 17342 bound_to 10162
  140.4206  144.2248  150.5887 LP  0  0  0  0  0  0  0  0  0  0  0  0  # atno 17343 bound_to 10162
  156.0232  130.5326  150.8334 LP  0  0  0  0  0  0  0  0  0  0  0  0  # atno 17370 bound_to 10713
  157.5504  131.0943  150.9703 LP  0  0  0  0  0  0  0  0  0  0  0  0  # atno 17371 bound_to 10713
  140.1435  134.4941  155.8014 LP  0  0  0  0  0  0  0  0  0  0  0  0  # atno 17394 bound_to 11000
  141.2186  133.6834  156.7252 LP  0  0  0  0  0  0  0  0  0  0  0  0  # atno 17395 bound_to 11000

$$$$
