AV-unprocessed.smi:2034|AV-procd|sdf|8268|dock3
  -GOLD-   2272010543D 1   1.00000     0.00000
 Structure written by MMmdl.
 50 52  0  0  0  0  0  0  0  0  1 V2000
  152.9099  144.6613  157.9635 C   0  0  0  0  0  0  0  0  0  0  0  0
  151.7901  143.9113  158.7070 C   0  0  1  0  0  0  0  0  0  0  0  0
  150.9273  143.0246  157.7868 C   0  0  0  0  0  0  0  0  0  0  0  0
  151.6548  141.8239  157.3990 N   0  0  0  0  0  0  0  0  0  0  0  0
  150.9740  141.0442  156.4546 C   0  0  0  0  0  0  0  0  0  0  0  0
  151.5653  139.8996  155.8726 C   0  0  0  0  0  0  0  0  0  0  0  0
  150.8253  139.1643  154.9278 C   0  0  0  0  0  0  0  0  0  0  0  0
  149.5201  139.5823  154.5993 C   0  0  0  0  0  0  0  0  0  0  0  0
  148.8056  138.8378  153.6222 N   0  0  0  0  0  0  0  0  0  0  0  0
  147.5628  139.0484  153.1559 C   0  0  0  0  0  0  0  0  0  0  0  0
  146.7900  139.9185  153.5568 O   0  0  0  0  0  0  0  0  0  0  0  0
  147.2486  138.1636  152.1998 N   0  0  0  0  0  0  0  0  0  0  0  0
  145.9649  138.0942  151.5110 C   0  0  0  0  0  0  0  0  0  0  0  0
  145.2508  136.7604  151.7839 C   0  0  1  0  0  0  0  0  0  0  0  0
  145.4521  135.7186  150.6854 C   0  0  0  0  0  0  0  0  0  0  0  0
  145.2149  134.4322  151.4426 C   0  0  0  0  0  0  0  0  0  0  0  0
  145.8713  134.7376  152.7859 C   0  0  0  0  0  0  0  0  0  0  0  0
  145.7629  136.1476  152.9655 O   0  0  0  0  0  0  0  0  0  0  0  0
  149.0219  140.7461  155.2341 C   0  0  0  0  0  0  0  0  0  0  0  0
  149.7274  141.4569  156.1398 N   0  0  0  0  0  0  0  0  0  0  0  0
  152.1431  141.0721  158.5464 C   0  0  0  0  0  0  0  0  0  0  0  0
  153.0282  141.9731  159.4263 C   0  0  2  0  0  0  0  0  0  0  0  0
  153.4738  141.2593  160.7066 C   0  0  0  0  0  0  0  0  0  0  0  0
  152.2938  143.1396  159.8014 O   0  0  0  0  0  0  0  0  0  0  0  0
  152.4921  145.3400  157.2198 H   0  0  0  0  0  0  0  0  0  0  0  0
  153.5843  143.9844  157.4393 H   0  0  0  0  0  0  0  0  0  0  0  0
  153.5048  145.2572  158.6557 H   0  0  0  0  0  0  0  0  0  0  0  0
  151.1392  144.6696  159.1429 H   0  0  0  0  0  0  0  0  0  0  0  0
  150.0162  142.7353  158.3125 H   0  0  0  0  0  0  0  0  0  0  0  0
  150.6202  143.5817  156.9007 H   0  0  0  0  0  0  0  0  0  0  0  0
  152.5639  139.5877  156.1408 H   0  0  0  0  0  0  0  0  0  0  0  0
  151.2565  138.2884  154.4654 H   0  0  0  0  0  0  0  0  0  0  0  0
  149.2823  138.0234  153.2635 H   0  0  0  0  0  0  0  0  0  0  0  0
  147.9409  137.4769  151.9389 H   0  0  0  0  0  0  0  0  0  0  0  0
  145.3332  138.9305  151.8153 H   0  0  0  0  0  0  0  0  0  0  0  0
  146.1414  138.2134  150.4417 H   0  0  0  0  0  0  0  0  0  0  0  0
  144.1805  136.9204  151.9250 H   0  0  0  0  0  0  0  0  0  0  0  0
  144.7732  135.8521  149.8428 H   0  0  0  0  0  0  0  0  0  0  0  0
  146.4758  135.7455  150.3089 H   0  0  0  0  0  0  0  0  0  0  0  0
  144.1444  134.2683  151.5744 H   0  0  0  0  0  0  0  0  0  0  0  0
  145.6378  133.5565  150.9497 H   0  0  0  0  0  0  0  0  0  0  0  0
  145.4063  134.1935  153.6082 H   0  0  0  0  0  0  0  0  0  0  0  0
  146.9293  134.4743  152.7608 H   0  0  0  0  0  0  0  0  0  0  0  0
  148.0470  141.1480  155.0071 H   0  0  0  0  0  0  0  0  0  0  0  0
  151.3007  140.6960  159.1285 H   0  0  0  0  0  0  0  0  0  0  0  0
  152.7119  140.2068  158.2041 H   0  0  0  0  0  0  0  0  0  0  0  0
  153.9216  142.2635  158.8730 H   0  0  0  0  0  0  0  0  0  0  0  0
  154.0517  140.3640  160.4759 H   0  0  0  0  0  0  0  0  0  0  0  0
  152.6165  140.9590  161.3095 H   0  0  0  0  0  0  0  0  0  0  0  0
  154.1000  141.9096  161.3178 H   0  0  0  0  0  0  0  0  0  0  0  0
  1  2  1  0  0  0  0
  1 25  1  0  0  0  0
  1 26  1  0  0  0  0
  1 27  1  0  0  0  0
  2 24  1  0  0  0  0
  2  3  1  0  0  0  0
  2 28  1  0  0  0  0
  3  4  1  0  0  0  0
  3 29  1  0  0  0  0
  3 30  1  0  0  0  0
  4  5  1  0  0  0  0
  4 21  1  0  0  0  0
  5 20  1  0  0  0  0
  5  6  2  0  0  0  0
  6  7  1  0  0  0  0
  6 31  1  0  0  0  0
  7  8  2  0  0  0  0
  7 32  1  0  0  0  0
  8  9  1  0  0  0  0
  8 19  1  0  0  0  0
  9 10  1  0  0  0  0
  9 33  1  0  0  0  0
 10 11  2  0  0  0  0
 10 12  1  0  0  0  0
 12 13  1  0  0  0  0
 12 34  1  0  0  0  0
 13 14  1  0  0  0  0
 13 35  1  0  0  0  0
 13 36  1  0  0  0  0
 14 18  1  0  0  0  0
 14 15  1  0  0  0  0
 14 37  1  0  0  0  0
 15 16  1  0  0  0  0
 15 38  1  0  0  0  0
 15 39  1  0  0  0  0
 16 17  1  0  0  0  0
 16 40  1  0  0  0  0
 16 41  1  0  0  0  0
 17 18  1  0  0  0  0
 17 42  1  0  0  0  0
 17 43  1  0  0  0  0
 19 20  2  0  0  0  0
 19 44  1  0  0  0  0
 21 22  1  0  0  0  0
 21 45  1  0  0  0  0
 21 46  1  0  0  0  0
 22 23  1  0  0  0  0
 22 24  1  0  0  0  0
 22 47  1  0  0  0  0
 23 48  1  0  0  0  0
 23 49  1  0  0  0  0
 23 50  1  0  0  0  0
M  END
> <s_m_source_file>
AV-unprocessed.smi

> <i_m_source_file_index>
2034

> <i_lp_mmshare_version>
43012

> <i_f3d_flags>
0

> <s_epik_input>
W0NIM11bQ0BASF0xW0NIMl1OKFtDSDJdW0NASF0oTzEpW0NIM10pYzJbY0hdW2NIXWMoW2NIXW4yKVtOSF1DKD1PKVtOSF1bQ0gyXVtDQEBIXTNbQ0gyXVtDSDJdW0NIMl1PMw==

> <s_epik_cmdline>
J2VwaWtfcHl0aG9uJywgJy1waCcsICc3LjAnLCAnLXRuJywgJzgnLCAnLW1hJywgJzIwMCcsICctbWV0YWxfYmluZGluZycsICctaW1hZScsICc8aW5maWxlLm1hZT4nLCAnLW9tYWUnLCAnPG91dGZpbGUubWFlPic=

> <r_lp_tautomer_probability>
1

> <r_epik_Ionization_Penalty>
0.00268225

> <r_epik_Ionization_Penalty_Charging>
0

> <r_epik_Ionization_Penalty_Neutral>
0.00268225

> <r_epik_State_Penalty>
0.00184408

> <r_epik_Charging_Adjusted_Penalty>
0.00184408

> <i_epik_Tot_Q>
0

> <i_epik_Tot_abs_Q>
0

> <r_epik_Metal_State_Penalty>
-0

> <b_epik_Metal_Only>
0

> <s_lp_Force_Field>
OPLS_2005

> <r_lp_Energy>
38.1853

> <b_lp_Chiralities_Consistent>
1

> <s_lp_Variant>
AV-unprocessed.smi:2034-6

> <Gold.Version>
5.8.1

> <Gold.Id.Protein>
6NUR|6NUR_protein|mol2

> <Gold.PLP.Fitness>
49.6555

> <Gold.PLP.PLP>
-46.7992

> <Gold.PLP.part.hbond>
-3.0862

> <Gold.PLP.part.metal>
0.0000

> <Gold.PLP.part.buried>
-2.5479

> <Gold.PLP.part.nonpolar>
-43.3071

> <Gold.PLP.part.repulsive>
0.5266

> <Gold.PLP.ligand.clash>
0.0000

> <Gold.PLP.ligand.torsion>
0.5964

> <Gold.PLP.Chemscore.Hbond>
1.3120

> <Gold.PLP.Chemscore.CHOScore>
0.0000

> <Gold.PLP.Chemscore.Metal>
0.0000

> <Gold.Chemscore.Hbonds>
donor molecule, donor type, donor heavy atom, donor atom, acceptor molecule, acceptor atom, score
      L1  H     9    33       P1  7948  0.34
      L1  H    12    34       P1  7948  1.00

> <Gold.PLP.Chemscore.Internal.Correction>
0.1130

> <Gold.Rescore>
     Score         DG    S(hbond)    S(metal)    S(lipo)     H(rot)  DE(clash)    DE(int)     intcor
     17.39     -20.08       1.22        0.00     119.98       1.37       0.79       1.91       ----

> <Gold.Chemscore.Fitness>
17.3857

> <Gold.Chemscore.DG>
-20.0835

> <Gold.Chemscore.ZeroCoef>
-5.4800

> <Gold.Chemscore.Hbond>
1.2166

> <Gold.Chemscore.Metal>
0.0000

> <Gold.Chemscore.Lipo>
119.9798

> <Gold.Chemscore.Internal_Hbond>
0.0000

> <Gold.Chemscore.DEClash>
0.7852

> <Gold.Chemscore.DEInternal>
1.9126

> <Gold.Chemscore.Rot>
1.3663

> <Gold.Chemscore.Internal.Correction>
   9.000000E+99

> <Gold.Chemscore.Hbonds>
donor molecule, donor type, donor heavy atom, donor atom, acceptor molecule, acceptor atom, score
      L1  H     9    33       P1  7948  0.34
      L1  H    12    34       P1  7948  0.97

> <Gold.Chemscore.Hbond.Weighted>
-4.0636

> <Gold.Chemscore.Metal.Weighted>
-0.0000

> <Gold.Chemscore.Lipo.Weighted>
-14.0376

> <Gold.Chemscore.Internal_Hbond.Weighted>
0.0000

> <Gold.Chemscore.DEClash.Weighted>
0.7852

> <Gold.Chemscore.DEInternal.Weighted>
1.9126

> <Gold.Chemscore.Rot.Weighted>
3.4977

> <Gold.Chemscore.Internal.Correction.Weighted>
   9.000000E+99

> <Gold.Protein.RotatedTorsions>
[ 6907 6896 6895 6894 ] final   30.20 input  -60.11 | X-H torsion
[ 7974 7965 7964 7962 ] final  -69.00 input  175.53 | X-H torsion
[ 8008 7997 7996 7995 ] final -106.30 input   59.86 | X-H torsion
[ 10167 10162 10161 10158 ] final -150.16 input  -65.29 | X-H torsion
[ 10718 10713 10712 10709 ] final -150.87 input   66.30 | X-H torsion
[ 10763 10752 10751 10750 ] final  120.82 input  -60.55 | X-H torsion
[ 11005 11000 10999 10996 ] final   21.12 input  -57.11 | X-H torsion

> <Gold.Protein.ActiveResidues>
 VAL166  LYS551  ARG553  GLY616  TRP617  ASP618  TYR619  PRO620  LYS621  CYS622 
 ASP623  PHE694  ASN695  SER759  ASP760  ASP761  ALA762  ILE779  LEU786  VAL792 
 PHE793  MET794  SER795  GLU796  ALA797  LYS798  CYS799  TRP800  GLU811  SER814 

> <Gold.Protein.RotatedAtoms>
  152.0425  134.9702  160.0573 H   0  0  0  0  0  0  0  0  0  0  0  0  # atno 6907 bound_to 6896
  152.1135  133.4309  159.4650 H   0  0  0  0  0  0  0  0  0  0  0  0  # atno 6908 bound_to 6896
  150.6845  134.2538  159.4565 H   0  0  0  0  0  0  0  0  0  0  0  0  # atno 6909 bound_to 6896
  145.7093  140.9085  143.0689 H   0  0  0  0  0  0  0  0  0  0  0  0  # atno 7974 bound_to 7965
  154.9126  140.0409  157.1954 H   0  0  0  0  0  0  0  0  0  0  0  0  # atno 8008 bound_to 7997
  154.8333  140.2902  155.5686 H   0  0  0  0  0  0  0  0  0  0  0  0  # atno 8009 bound_to 7997
  156.2988  140.2496  156.3262 H   0  0  0  0  0  0  0  0  0  0  0  0  # atno 8010 bound_to 7997
  139.7379  143.8707  152.2554 H   0  0  0  0  0  0  0  0  0  0  0  0  # atno 10167 bound_to 10162
  156.4518  130.8171  151.2402 H   0  0  0  0  0  0  0  0  0  0  0  0  # atno 10718 bound_to 10713
  153.6044  135.3442  155.2957 H   0  0  0  0  0  0  0  0  0  0  0  0  # atno 10763 bound_to 10752
  154.8630  135.4235  154.2377 H   0  0  0  0  0  0  0  0  0  0  0  0  # atno 10764 bound_to 10752
  153.3213  135.7038  153.7099 H   0  0  0  0  0  0  0  0  0  0  0  0  # atno 10765 bound_to 10752
  140.3950  134.1778  155.7663 H   0  0  0  0  0  0  0  0  0  0  0  0  # atno 11005 bound_to 11000
  144.6946  139.9053  143.7460 LP  0  0  0  0  0  0  0  0  0  0  0  0  # atno 17320 bound_to 7965
  146.0727  139.3716  143.0513 LP  0  0  0  0  0  0  0  0  0  0  0  0  # atno 17321 bound_to 7965
  139.8649  144.7098  150.9055 LP  0  0  0  0  0  0  0  0  0  0  0  0  # atno 17342 bound_to 10162
  140.7781  143.3786  151.1518 LP  0  0  0  0  0  0  0  0  0  0  0  0  # atno 17343 bound_to 10162
  157.7502  131.0135  150.3428 LP  0  0  0  0  0  0  0  0  0  0  0  0  # atno 17370 bound_to 10713
  156.3808  130.3880  149.7103 LP  0  0  0  0  0  0  0  0  0  0  0  0  # atno 17371 bound_to 10713
  141.1877  133.8275  157.1021 LP  0  0  0  0  0  0  0  0  0  0  0  0  # atno 17394 bound_to 11000
  140.0378  134.9869  157.0904 LP  0  0  0  0  0  0  0  0  0  0  0  0  # atno 17395 bound_to 11000

$$$$
