AV-unprocessed.smi:155|AV-procd|sdf|1275|dock9
  -GOLD-   2262018543D 1   1.00000     0.00000
 Structure written by MMmdl.
 63 66  0  0  0  0  0  0  0  0  2 V2000
  145.5853  131.1007  152.3746 C   0  0  0  0  0  0  0  0  0  0  0  0
  146.3826  132.2084  151.8006 N   0  3  0  0  0  0  0  0  0  0  0  0
  145.5392  133.1252  151.0019 C   0  0  0  0  0  0  0  0  0  0  0  0
  147.1978  132.9371  152.8056 C   0  0  0  0  0  0  0  0  0  0  0  0
  148.1654  132.0157  153.5844 C   0  0  0  0  0  0  0  0  0  0  0  0
  148.9028  132.7233  154.6343 N   0  0  0  0  0  0  0  0  0  0  0  0
  149.6959  131.7903  155.4457 C   0  0  0  0  0  0  0  0  0  0  0  0
  150.7313  132.4220  156.4023 C   0  0  0  0  0  0  0  0  0  0  0  0
  150.3176  133.7453  157.0618 C   0  0  0  0  0  0  0  0  0  0  0  0
  150.5465  134.8755  156.1664 N   0  0  0  0  0  0  0  0  0  0  0  0
  150.7395  136.0397  156.8211 C   0  0  0  0  0  0  0  0  0  0  0  0
  150.7093  136.0659  158.1795 N   0  0  0  0  0  0  0  0  0  0  0  0
  150.9080  137.2192  158.8259 C   0  0  0  0  0  0  0  0  0  0  0  0
  151.1493  138.4309  158.3188 N   0  0  0  0  0  0  0  0  0  0  0  0
  151.1815  138.4006  156.9548 C   0  0  0  0  0  0  0  0  0  0  0  0
  150.9863  137.2559  156.1340 C   0  0  0  0  0  0  0  0  0  0  0  0
  151.0903  137.6035  154.7935 N   0  0  0  0  0  0  0  0  0  0  0  0
  151.3423  138.8842  154.8197 C   0  0  0  0  0  0  0  0  0  0  0  0
  151.4252  139.4418  156.0762 N   0  0  0  0  0  0  0  0  0  0  0  0
  151.7058  140.8313  156.3961 C   0  0  0  0  0  0  0  0  0  0  0  0
  150.6187  141.5112  157.2585 C   0  0  2  0  0  0  0  0  0  0  0  0
  149.5367  141.9424  156.4563 O   0  0  0  0  0  0  0  0  0  0  0  0
  151.1179  142.6697  158.1515 C   0  0  2  0  0  0  0  0  0  0  0  0
  151.5452  143.9442  157.4247 C   0  0  0  0  0  0  0  0  0  0  0  0
  152.4213  144.6433  158.4527 C   0  0  0  0  0  0  0  0  0  0  0  0
  152.7946  143.5386  159.4492 C   0  0  0  0  0  0  0  0  0  0  0  0
  152.2754  142.3351  158.9004 O   0  0  0  0  0  0  0  0  0  0  0  0
  149.6695  135.0106  155.0092 C   0  0  0  0  0  0  0  0  0  0  0  0
  149.7210  133.7954  154.0674 C   0  0  0  0  0  0  0  0  0  0  0  0
  144.8963  131.4663  153.1372 H   0  0  0  0  0  0  0  0  0  0  0  0
  146.2260  130.3430  152.8227 H   0  0  0  0  0  0  0  0  0  0  0  0
  145.0006  130.6056  151.5984 H   0  0  0  0  0  0  0  0  0  0  0  0
  144.8118  133.6370  151.6334 H   0  0  0  0  0  0  0  0  0  0  0  0
  144.9966  132.5786  150.2299 H   0  0  0  0  0  0  0  0  0  0  0  0
  146.1495  133.8783  150.5022 H   0  0  0  0  0  0  0  0  0  0  0  0
  147.8016  133.6878  152.2934 H   0  0  0  0  0  0  0  0  0  0  0  0
  146.5389  133.5031  153.4655 H   0  0  0  0  0  0  0  0  0  0  0  0
  147.6532  131.1520  154.0103 H   0  0  0  0  0  0  0  0  0  0  0  0
  148.8707  131.6100  152.8576 H   0  0  0  0  0  0  0  0  0  0  0  0
  149.0112  131.1823  156.0358 H   0  0  0  0  0  0  0  0  0  0  0  0
  150.2320  131.1040  154.7898 H   0  0  0  0  0  0  0  0  0  0  0  0
  150.9437  131.6937  157.1854 H   0  0  0  0  0  0  0  0  0  0  0  0
  151.6798  132.5629  155.8820 H   0  0  0  0  0  0  0  0  0  0  0  0
  149.2735  133.7120  157.3765 H   0  0  0  0  0  0  0  0  0  0  0  0
  150.9128  133.8843  157.9660 H   0  0  0  0  0  0  0  0  0  0  0  0
  150.8692  137.1630  159.9036 H   0  0  0  0  0  0  0  0  0  0  0  0
  151.4829  139.4609  153.9169 H   0  0  0  0  0  0  0  0  0  0  0  0
  152.6691  140.8752  156.9059 H   0  0  0  0  0  0  0  0  0  0  0  0
  151.8323  141.3807  155.4625 H   0  0  0  0  0  0  0  0  0  0  0  0
  150.2133  140.7440  157.9191 H   0  0  0  0  0  0  0  0  0  0  0  0
  149.5342  142.8875  156.4476 H   0  0  0  0  0  0  0  0  0  0  0  0
  150.3286  142.9231  158.8622 H   0  0  0  0  0  0  0  0  0  0  0  0
  152.1423  143.7092  156.5429 H   0  0  0  0  0  0  0  0  0  0  0  0
  150.6978  144.5513  157.1051 H   0  0  0  0  0  0  0  0  0  0  0  0
  153.3015  145.0861  157.9854 H   0  0  0  0  0  0  0  0  0  0  0  0
  151.8737  145.4397  158.9581 H   0  0  0  0  0  0  0  0  0  0  0  0
  153.8710  143.4595  159.6020 H   0  0  0  0  0  0  0  0  0  0  0  0
  152.3270  143.7214  160.4179 H   0  0  0  0  0  0  0  0  0  0  0  0
  148.6450  135.1999  155.3342 H   0  0  0  0  0  0  0  0  0  0  0  0
  149.9820  135.8926  154.4476 H   0  0  0  0  0  0  0  0  0  0  0  0
  150.7399  133.4728  153.8476 H   0  0  0  0  0  0  0  0  0  0  0  0
  149.2979  134.1217  153.1169 H   0  0  0  0  0  0  0  0  0  0  0  0
  147.0340  131.7924  151.1502 H   0  0  0  0  0  0  0  0  0  0  0  0
  1  2  1  0  0  0  0
  1 30  1  0  0  0  0
  1 31  1  0  0  0  0
  1 32  1  0  0  0  0
  2  3  1  0  0  0  0
  2  4  1  0  0  0  0
  2 63  1  0  0  0  0
  3 33  1  0  0  0  0
  3 34  1  0  0  0  0
  3 35  1  0  0  0  0
  4  5  1  0  0  0  0
  4 36  1  0  0  0  0
  4 37  1  0  0  0  0
  5  6  1  0  0  0  0
  5 38  1  0  0  0  0
  5 39  1  0  0  0  0
  6 29  1  0  0  0  0
  6  7  1  0  0  0  0
  7  8  1  0  0  0  0
  7 40  1  0  0  0  0
  7 41  1  0  0  0  0
  8  9  1  0  0  0  0
  8 42  1  0  0  0  0
  8 43  1  0  0  0  0
  9 10  1  0  0  0  0
  9 44  1  0  0  0  0
  9 45  1  0  0  0  0
 10 11  1  0  0  0  0
 10 28  1  0  0  0  0
 11 16  1  0  0  0  0
 11 12  2  0  0  0  0
 12 13  1  0  0  0  0
 13 14  2  0  0  0  0
 13 46  1  0  0  0  0
 14 15  1  0  0  0  0
 15 19  1  0  0  0  0
 15 16  2  0  0  0  0
 16 17  1  0  0  0  0
 17 18  2  0  0  0  0
 18 19  1  0  0  0  0
 18 47  1  0  0  0  0
 19 20  1  0  0  0  0
 20 21  1  0  0  0  0
 20 48  1  0  0  0  0
 20 49  1  0  0  0  0
 21 22  1  0  0  0  0
 21 23  1  0  0  0  0
 21 50  1  0  0  0  0
 22 51  1  0  0  0  0
 23 27  1  0  0  0  0
 23 24  1  0  0  0  0
 23 52  1  0  0  0  0
 24 25  1  0  0  0  0
 24 53  1  0  0  0  0
 24 54  1  0  0  0  0
 25 26  1  0  0  0  0
 25 55  1  0  0  0  0
 25 56  1  0  0  0  0
 26 27  1  0  0  0  0
 26 57  1  0  0  0  0
 26 58  1  0  0  0  0
 28 29  1  0  0  0  0
 28 59  1  0  0  0  0
 28 60  1  0  0  0  0
 29 61  1  0  0  0  0
 29 62  1  0  0  0  0
M  CHG  1   2   1
M  END
> <s_m_source_file>
AV-unprocessed.smi

> <i_m_source_file_index>
155

> <i_lp_mmshare_version>
43012

> <i_f3d_flags>
0

> <s_epik_input>
W0NIM11OKFtDSDNdKVtDSDJdW0NIMl1OMVtDSDJdW0NIMl1bQ0gyXU4oW0NIMl1bQ0gyXTEpYyhuW2NIXW4yKWMoYzIzKW5bY0hdbjNbQ0gyXVtDQEhdKFtPSF0pW0NAQEhdNFtDSDJdW0NIMl1bQ0gyXU80

> <s_epik_cmdline>
J2VwaWtfcHl0aG9uJywgJy1waCcsICc3LjAnLCAnLXRuJywgJzgnLCAnLW1hJywgJzIwMCcsICctbWV0YWxfYmluZGluZycsICctaW1hZScsICc8aW5maWxlLm1hZT4nLCAnLW9tYWUnLCAnPG91dGZpbGUubWFlPic=

> <r_lp_tautomer_probability>
1

> <r_epik_Ionization_Penalty>
0.0599493

> <r_epik_Ionization_Penalty_Charging>
0.00816363

> <r_epik_Ionization_Penalty_Neutral>
0.0517857

> <r_epik_State_Penalty>
0.460607

> <r_epik_Charging_Adjusted_Penalty>
0.468771

> <i_epik_Tot_Q>
1

> <i_epik_Tot_abs_Q>
1

> <r_epik_Metal_State_Penalty>
0.45965

> <b_epik_Metal_Only>
0

> <s_lp_Force_Field>
OPLS_2005

> <r_lp_Energy>
61.9788

> <b_lp_Chiralities_Consistent>
1

> <s_lp_Variant>
AV-unprocessed.smi:155-9

> <Gold.Version>
5.8.1

> <Gold.Id.Protein>
6NUR|6NUR_protein|mol2

> <Gold.PLP.Fitness>
57.0940

> <Gold.PLP.PLP>
-49.2592

> <Gold.PLP.part.hbond>
-3.0000

> <Gold.PLP.part.metal>
0.0000

> <Gold.PLP.part.buried>
-7.3440

> <Gold.PLP.part.nonpolar>
-40.3710

> <Gold.PLP.part.repulsive>
0.2105

> <Gold.PLP.ligand.clash>
0.0000

> <Gold.PLP.ligand.torsion>
0.5892

> <Gold.PLP.Chemscore.Hbond>
2.8800

> <Gold.PLP.Chemscore.CHOScore>
0.0000

> <Gold.PLP.Chemscore.Metal>
0.0000

> <Gold.Chemscore.Hbonds>
donor molecule, donor type, donor heavy atom, donor atom, acceptor molecule, acceptor atom, score
      L1  H     2    63       P1 10747  0.26
      L1  H    22    51       P1  8028  0.83
      P1  H  6896  6908       L1    12  0.60

> <Gold.PLP.Chemscore.Internal.Correction>
0.3733

> <Gold.Rescore>
     Score         DG    S(hbond)    S(metal)    S(lipo)     H(rot)  DE(clash)    DE(int)     intcor
     17.61     -20.08       2.67        0.00     113.85       2.99       0.52       1.94       ----

> <Gold.Chemscore.Fitness>
17.6140

> <Gold.Chemscore.DG>
-20.0789

> <Gold.Chemscore.ZeroCoef>
-5.4800

> <Gold.Chemscore.Hbond>
2.6715

> <Gold.Chemscore.Metal>
0.0000

> <Gold.Chemscore.Lipo>
113.8543

> <Gold.Chemscore.Internal_Hbond>
0.0000

> <Gold.Chemscore.DEClash>
0.5229

> <Gold.Chemscore.DEInternal>
1.9420

> <Gold.Chemscore.Rot>
2.9862

> <Gold.Chemscore.Internal.Correction>
   9.000000E+99

> <Gold.Chemscore.Hbonds>
donor molecule, donor type, donor heavy atom, donor atom, acceptor molecule, acceptor atom, score
      L1  H     2    63       P1 10747  0.27
      L1  H    22    51       P1  8028  0.79
      P1  H  6896  6908       L1    12  0.12

> <Gold.Chemscore.Hbond.Weighted>
-8.9227

> <Gold.Chemscore.Metal.Weighted>
-0.0000

> <Gold.Chemscore.Lipo.Weighted>
-13.3209

> <Gold.Chemscore.Internal_Hbond.Weighted>
0.0000

> <Gold.Chemscore.DEClash.Weighted>
0.5229

> <Gold.Chemscore.DEInternal.Weighted>
1.9420

> <Gold.Chemscore.Rot.Weighted>
7.6448

> <Gold.Chemscore.Internal.Correction.Weighted>
   9.000000E+99

> <Gold.Protein.RotatedTorsions>
[ 6907 6896 6895 6894 ] final -168.68 input  -60.11 | X-H torsion
[ 7974 7965 7964 7962 ] final   -4.19 input  175.53 | X-H torsion
[ 8008 7997 7996 7995 ] final  165.30 input   59.86 | X-H torsion
[ 10167 10162 10161 10158 ] final  -42.18 input  -65.29 | X-H torsion
[ 10718 10713 10712 10709 ] final  -15.16 input   66.30 | X-H torsion
[ 10763 10752 10751 10750 ] final    8.68 input  -60.55 | X-H torsion
[ 11005 11000 10999 10996 ] final  118.19 input  -57.11 | X-H torsion

> <Gold.Protein.ActiveResidues>
 VAL166  LYS551  ARG553  GLY616  TRP617  ASP618  TYR619  PRO620  LYS621  CYS622 
 ASP623  PHE694  ASN695  SER759  ASP760  ASP761  ALA762  ILE779  LEU786  VAL792 
 PHE793  MET794  SER795  GLU796  ALA797  LYS798  CYS799  TRP800  GLU811  SER814 

> <Gold.Protein.RotatedAtoms>
  151.4794  133.3550  159.2835 H   0  0  0  0  0  0  0  0  0  0  0  0  # atno 6907 bound_to 6896
  150.8907  134.8313  159.7302 H   0  0  0  0  0  0  0  0  0  0  0  0  # atno 6908 bound_to 6896
  152.4821  134.4703  159.9685 H   0  0  0  0  0  0  0  0  0  0  0  0  # atno 6909 bound_to 6896
  146.2377  140.1833  142.8332 H   0  0  0  0  0  0  0  0  0  0  0  0  # atno 7974 bound_to 7965
  156.1811  140.1673  156.8272 H   0  0  0  0  0  0  0  0  0  0  0  0  # atno 8008 bound_to 7997
  154.5361  140.0746  156.8463 H   0  0  0  0  0  0  0  0  0  0  0  0  # atno 8009 bound_to 7997
  155.3308  140.3379  155.4242 H   0  0  0  0  0  0  0  0  0  0  0  0  # atno 8010 bound_to 7997
  140.6978  143.3052  151.3172 H   0  0  0  0  0  0  0  0  0  0  0  0  # atno 10167 bound_to 10162
  156.6057  130.4836  149.6221 H   0  0  0  0  0  0  0  0  0  0  0  0  # atno 10718 bound_to 10713
  153.2224  135.6883  153.7985 H   0  0  0  0  0  0  0  0  0  0  0  0  # atno 10763 bound_to 10752
  153.7179  135.3272  155.3261 H   0  0  0  0  0  0  0  0  0  0  0  0  # atno 10764 bound_to 10752
  154.8275  135.4606  154.1076 H   0  0  0  0  0  0  0  0  0  0  0  0  # atno 10765 bound_to 10752
  139.9100  134.9618  156.7465 H   0  0  0  0  0  0  0  0  0  0  0  0  # atno 11005 bound_to 11000
  144.9916  140.8552  143.5336 LP  0  0  0  0  0  0  0  0  0  0  0  0  # atno 17320 bound_to 7965
  145.1840  139.2336  143.5277 LP  0  0  0  0  0  0  0  0  0  0  0  0  # atno 17321 bound_to 7965
  139.6455  144.0459  152.2587 LP  0  0  0  0  0  0  0  0  0  0  0  0  # atno 17342 bound_to 10162
  139.9978  144.6315  150.7756 LP  0  0  0  0  0  0  0  0  0  0  0  0  # atno 17343 bound_to 10162
  156.2431  130.6863  151.1575 LP  0  0  0  0  0  0  0  0  0  0  0  0  # atno 17370 bound_to 10713
  157.7267  131.0644  150.5895 LP  0  0  0  0  0  0  0  0  0  0  0  0  # atno 17371 bound_to 10713
  140.6808  133.9476  155.7909 LP  0  0  0  0  0  0  0  0  0  0  0  0  # atno 17394 bound_to 11000
  141.0512  134.0483  157.3781 LP  0  0  0  0  0  0  0  0  0  0  0  0  # atno 17395 bound_to 11000

$$$$
