AV-unprocessed.smi:2457|AV-procd|sdf|9705|dock1
  -GOLD-   2272013343D 1   1.00000     0.00000
 Structure written by MMmdl.
 40 41  0  0  0  0  0  0  0  0  1 V2000
  145.4742  136.9375  154.0042 C   0  0  0  0  0  0  0  0  0  0  0  0
  146.0642  138.0881  153.2517 C   0  0  0  0  0  0  0  0  0  0  0  0
  146.0706  138.2693  151.8912 C   0  0  0  0  0  0  0  0  0  0  0  0
  146.8611  139.7538  151.4375 S   0  0  0  0  0  0  0  0  0  0  0  0
  147.1575  140.0815  153.1420 C   0  0  0  0  0  0  0  0  0  0  0  0
  147.8867  141.2978  153.6268 C   0  0  1  0  0  0  0  0  0  0  0  0
  146.9597  142.2741  154.3649 C   0  0  0  0  0  0  0  0  0  0  0  0
  149.1670  140.9622  154.4244 C   0  0  0  0  0  0  0  0  0  0  0  0
  149.6445  142.0817  155.2321 N   0  0  0  0  0  0  0  0  0  0  0  0
  150.5361  141.9843  156.2273 C   0  0  0  0  0  0  0  0  0  0  0  0
  151.0943  140.9363  156.5528 O   0  0  0  0  0  0  0  0  0  0  0  0
  150.7269  143.1605  156.8404 N   0  0  0  0  0  0  0  0  0  0  0  0
  151.5894  143.3740  157.9987 C   0  0  2  0  0  0  0  0  0  0  0  0
  151.4654  142.1854  158.9748 C   0  0  0  0  0  0  0  0  0  0  0  0
  152.3930  142.3214  160.1926 C   0  0  0  0  0  0  0  0  0  0  0  0
  152.0853  143.5742  161.0249 C   0  0  0  0  0  0  0  0  0  0  0  0
  152.3307  145.0858  160.0536 S   0  0  0  0  0  0  0  0  0  0  0  0
  151.2179  144.7065  158.6719 C   0  0  0  0  0  0  0  0  0  0  0  0
  146.6916  139.1237  153.9495 N   0  0  0  0  0  0  0  0  0  0  0  0
  144.9813  136.2331  153.3340 H   0  0  0  0  0  0  0  0  0  0  0  0
  144.7317  137.2794  154.7257 H   0  0  0  0  0  0  0  0  0  0  0  0
  146.2414  136.3902  154.5521 H   0  0  0  0  0  0  0  0  0  0  0  0
  145.6585  137.6230  151.1306 H   0  0  0  0  0  0  0  0  0  0  0  0
  148.2113  141.8259  152.7294 H   0  0  0  0  0  0  0  0  0  0  0  0
  146.1190  142.5684  153.7358 H   0  0  0  0  0  0  0  0  0  0  0  0
  147.4928  143.1815  154.6496 H   0  0  0  0  0  0  0  0  0  0  0  0
  146.5558  141.8270  155.2736 H   0  0  0  0  0  0  0  0  0  0  0  0
  149.0077  140.0872  155.0562 H   0  0  0  0  0  0  0  0  0  0  0  0
  149.9685  140.7004  153.7332 H   0  0  0  0  0  0  0  0  0  0  0  0
  149.2376  142.9857  155.0420 H   0  0  0  0  0  0  0  0  0  0  0  0
  150.2160  143.9620  156.5006 H   0  0  0  0  0  0  0  0  0  0  0  0
  152.6241  143.4459  157.6570 H   0  0  0  0  0  0  0  0  0  0  0  0
  150.4323  142.0875  159.3112 H   0  0  0  0  0  0  0  0  0  0  0  0
  151.7048  141.2564  158.4558 H   0  0  0  0  0  0  0  0  0  0  0  0
  152.2886  141.4374  160.8225 H   0  0  0  0  0  0  0  0  0  0  0  0
  153.4330  142.3419  159.8642 H   0  0  0  0  0  0  0  0  0  0  0  0
  151.0573  143.5470  161.3875 H   0  0  0  0  0  0  0  0  0  0  0  0
  152.7330  143.6134  161.9010 H   0  0  0  0  0  0  0  0  0  0  0  0
  151.2753  145.5254  157.9539 H   0  0  0  0  0  0  0  0  0  0  0  0
  150.1925  144.6772  159.0422 H   0  0  0  0  0  0  0  0  0  0  0  0
  1  2  1  0  0  0  0
  1 20  1  0  0  0  0
  1 21  1  0  0  0  0
  1 22  1  0  0  0  0
  2 19  1  0  0  0  0
  2  3  2  0  0  0  0
  3  4  1  0  0  0  0
  3 23  1  0  0  0  0
  4  5  1  0  0  0  0
  5  6  1  0  0  0  0
  5 19  2  0  0  0  0
  6  7  1  0  0  0  0
  6  8  1  0  0  0  0
  6 24  1  0  0  0  0
  7 25  1  0  0  0  0
  7 26  1  0  0  0  0
  7 27  1  0  0  0  0
  8  9  1  0  0  0  0
  8 28  1  0  0  0  0
  8 29  1  0  0  0  0
  9 10  1  0  0  0  0
  9 30  1  0  0  0  0
 10 11  2  0  0  0  0
 10 12  1  0  0  0  0
 12 13  1  0  0  0  0
 12 31  1  0  0  0  0
 13 18  1  0  0  0  0
 13 14  1  0  0  0  0
 13 32  1  0  0  0  0
 14 15  1  0  0  0  0
 14 33  1  0  0  0  0
 14 34  1  0  0  0  0
 15 16  1  0  0  0  0
 15 35  1  0  0  0  0
 15 36  1  0  0  0  0
 16 17  1  0  0  0  0
 16 37  1  0  0  0  0
 16 38  1  0  0  0  0
 17 18  1  0  0  0  0
 18 39  1  0  0  0  0
 18 40  1  0  0  0  0
M  END
> <s_m_source_file>
AV-unprocessed.smi

> <i_m_source_file_index>
2457

> <i_lp_mmshare_version>
43012

> <i_f3d_flags>
0

> <s_epik_input>
W0NIM11jMVtjSF1zYyhuMSlbQ0BIXShbQ0gzXSlbQ0gyXVtOSF1DKD1PKVtOSF1bQ0BASF0yW0NIMl1bQ0gyXVtDSDJdU1tDSDJdMg==

> <s_epik_cmdline>
J2VwaWtfcHl0aG9uJywgJy1waCcsICc3LjAnLCAnLXRuJywgJzgnLCAnLW1hJywgJzIwMCcsICctbWV0YWxfYmluZGluZycsICctaW1hZScsICc8aW5maWxlLm1hZT4nLCAnLW9tYWUnLCAnPG91dGZpbGUubWFlPic=

> <r_epik_Ionization_Penalty>
0.00154805

> <r_epik_Ionization_Penalty_Charging>
0

> <r_epik_Ionization_Penalty_Neutral>
0.00154805

> <r_epik_State_Penalty>
0.00100357

> <r_epik_Charging_Adjusted_Penalty>
0.00100357

> <i_epik_Tot_Q>
0

> <i_epik_Tot_abs_Q>
0

> <r_epik_Metal_State_Penalty>
-0

> <b_epik_Metal_Only>
0

> <s_lp_Force_Field>
OPLS_2005

> <r_lp_Energy>
-7.39523

> <b_lp_Chiralities_Consistent>
1

> <s_lp_Variant>
AV-unprocessed.smi:2457-2

> <Gold.Version>
5.8.1

> <Gold.Id.Protein>
6NUR|6NUR_protein|mol2

> <Gold.PLP.Fitness>
49.7390

> <Gold.PLP.PLP>
-43.0422

> <Gold.PLP.part.hbond>
-2.0000

> <Gold.PLP.part.metal>
0.0000

> <Gold.PLP.part.buried>
-1.5428

> <Gold.PLP.part.nonpolar>
-40.2265

> <Gold.PLP.part.repulsive>
0.4183

> <Gold.PLP.ligand.clash>
0.0000

> <Gold.PLP.ligand.torsion>
0.6866

> <Gold.PLP.Chemscore.Hbond>
1.9920

> <Gold.PLP.Chemscore.CHOScore>
0.6577

> <Gold.PLP.Chemscore.Metal>
0.0000

> <Gold.Chemscore.Hbonds>
donor molecule, donor type, donor heavy atom, donor atom, acceptor molecule, acceptor atom, score
      L1  H     9    30       P1  8028  0.98
      L1  H    12    31       P1  8028  1.00
      L1  C     3    23       P1 10171  0.70

> <Gold.PLP.Chemscore.Internal.Correction>
0.1209

> <Gold.Rescore>
     Score         DG    S(hbond)    S(metal)    S(lipo)     H(rot)  DE(clash)    DE(int)     intcor
     19.30     -21.63       1.80        0.00     118.54       1.46       0.57       1.76       ----

> <Gold.Chemscore.Fitness>
19.2971

> <Gold.Chemscore.DG>
-21.6250

> <Gold.Chemscore.ZeroCoef>
-5.4800

> <Gold.Chemscore.Hbond>
1.8018

> <Gold.Chemscore.Metal>
0.0000

> <Gold.Chemscore.Lipo>
118.5360

> <Gold.Chemscore.Internal_Hbond>
0.0000

> <Gold.Chemscore.DEClash>
0.5715

> <Gold.Chemscore.DEInternal>
1.7565

> <Gold.Chemscore.Rot>
1.4616

> <Gold.Chemscore.Internal.Correction>
   9.000000E+99

> <Gold.Chemscore.Hbonds>
donor molecule, donor type, donor heavy atom, donor atom, acceptor molecule, acceptor atom, score
      L1  H     9    30       P1  8028  0.93
      L1  H    12    31       P1  8028  0.98

> <Gold.Chemscore.Hbond.Weighted>
-6.0179

> <Gold.Chemscore.Metal.Weighted>
-0.0000

> <Gold.Chemscore.Lipo.Weighted>
-13.8687

> <Gold.Chemscore.Internal_Hbond.Weighted>
0.0000

> <Gold.Chemscore.DEClash.Weighted>
0.5715

> <Gold.Chemscore.DEInternal.Weighted>
1.7565

> <Gold.Chemscore.Rot.Weighted>
3.7416

> <Gold.Chemscore.Internal.Correction.Weighted>
   9.000000E+99

> <Gold.Protein.RotatedTorsions>
[ 6907 6896 6895 6894 ] final  -16.47 input  -60.11 | X-H torsion
[ 7974 7965 7964 7962 ] final  110.32 input  175.53 | X-H torsion
[ 8008 7997 7996 7995 ] final -177.55 input   59.86 | X-H torsion
[ 10167 10162 10161 10158 ] final   61.63 input  -65.29 | X-H torsion
[ 10718 10713 10712 10709 ] final   51.93 input   66.30 | X-H torsion
[ 10763 10752 10751 10750 ] final   61.57 input  -60.55 | X-H torsion
[ 11005 11000 10999 10996 ] final  102.56 input  -57.11 | X-H torsion

> <Gold.Protein.ActiveResidues>
 VAL166  LYS551  ARG553  GLY616  TRP617  ASP618  TYR619  PRO620  LYS621  CYS622 
 ASP623  PHE694  ASN695  SER759  ASP760  ASP761  ALA762  ILE779  LEU786  VAL792 
 PHE793  MET794  SER795  GLU796  ALA797  LYS798  CYS799  TRP800  GLU811  SER814 

> <Gold.Protein.RotatedAtoms>
  151.3081  135.0787  159.9262 H   0  0  0  0  0  0  0  0  0  0  0  0  # atno 6907 bound_to 6896
  152.5283  133.9764  159.7796 H   0  0  0  0  0  0  0  0  0  0  0  0  # atno 6908 bound_to 6896
  151.0063  133.5956  159.2718 H   0  0  0  0  0  0  0  0  0  0  0  0  # atno 6909 bound_to 6896
  145.2565  139.2719  143.4040 H   0  0  0  0  0  0  0  0  0  0  0  0  # atno 7974 bound_to 7965
  156.0083  140.1235  157.0479 H   0  0  0  0  0  0  0  0  0  0  0  0  # atno 8008 bound_to 7997
  154.4266  140.1093  156.5863 H   0  0  0  0  0  0  0  0  0  0  0  0  # atno 8009 bound_to 7997
  155.6116  140.3471  155.4626 H   0  0  0  0  0  0  0  0  0  0  0  0  # atno 8010 bound_to 7997
  140.1527  144.4447  150.6750 H   0  0  0  0  0  0  0  0  0  0  0  0  # atno 10167 bound_to 10162
  157.5027  130.8448  149.8336 H   0  0  0  0  0  0  0  0  0  0  0  0  # atno 10718 bound_to 10713
  152.9954  135.5496  154.6054 H   0  0  0  0  0  0  0  0  0  0  0  0  # atno 10763 bound_to 10752
  154.5386  135.2818  155.1118 H   0  0  0  0  0  0  0  0  0  0  0  0  # atno 10764 bound_to 10752
  154.2404  135.6417  153.5258 H   0  0  0  0  0  0  0  0  0  0  0  0  # atno 10765 bound_to 10752
  139.8778  134.9229  156.5077 H   0  0  0  0  0  0  0  0  0  0  0  0  # atno 11005 bound_to 11000
  146.3288  140.2970  142.8618 LP  0  0  0  0  0  0  0  0  0  0  0  0  # atno 17320 bound_to 7965
  144.9456  140.8125  143.5603 LP  0  0  0  0  0  0  0  0  0  0  0  0  # atno 17321 bound_to 7965
  140.6692  143.2279  151.5667 LP  0  0  0  0  0  0  0  0  0  0  0  0  # atno 17342 bound_to 10162
  139.5418  144.2627  152.1365 LP  0  0  0  0  0  0  0  0  0  0  0  0  # atno 17343 bound_to 10162
  156.0239  130.3786  150.1880 LP  0  0  0  0  0  0  0  0  0  0  0  0  # atno 17370 bound_to 10713
  157.0070  130.9939  151.3376 LP  0  0  0  0  0  0  0  0  0  0  0  0  # atno 17371 bound_to 10713
  140.8543  133.8108  155.9200 LP  0  0  0  0  0  0  0  0  0  0  0  0  # atno 17394 bound_to 11000
  140.9113  134.2257  157.4984 LP  0  0  0  0  0  0  0  0  0  0  0  0  # atno 17395 bound_to 11000

$$$$
