AV-unprocessed.smi:1487|AV-procd|sdf|6011|dock5
  -GOLD-   22720 6113D 1   1.00000     0.00000
 Structure written by MMmdl.
 48 50  0  0  0  0  0  0  0  0  2 V2000
  153.6358  142.0494  162.0969 C   0  0  0  0  0  0  0  0  0  0  0  0
  153.1299  141.7383  160.6993 C   0  0  0  0  0  0  0  0  0  0  0  0
  152.3631  142.7077  160.0149 C   0  0  0  0  0  0  0  0  0  0  0  0
  151.8752  142.4584  158.7135 C   0  0  0  0  0  0  0  0  0  0  0  0
  151.1158  143.2523  157.8714 N   0  0  0  0  0  0  0  0  0  0  0  0
  150.9883  142.4679  156.8058 C   0  0  0  0  0  0  0  0  0  0  0  0
  151.5712  141.2550  156.8593 N   0  0  0  0  0  0  0  0  0  0  0  0
  151.5619  140.2373  155.8233 C   0  0  0  0  0  0  0  0  0  0  0  0
  150.1342  139.8087  155.4347 C   0  0  2  0  0  0  0  0  0  0  0  0
  149.3103  139.8312  156.5847 O   0  0  0  0  0  0  0  0  0  0  0  0
  150.1058  138.3878  154.8387 C   0  0  0  0  0  0  0  0  0  0  0  0
  148.8227  138.0882  154.1536 N   0  3  1  0  0  0  0  0  0  0  0  0
  147.8174  137.4487  155.0428 C   0  0  0  0  0  0  0  0  0  0  0  0
  146.5844  136.9999  154.2438 C   0  0  0  0  0  0  0  0  0  0  0  0
  145.9586  138.1820  153.4897 C   0  0  0  0  0  0  0  0  0  0  0  0
  147.0080  138.9087  152.6316 C   0  0  2  0  0  0  0  0  0  0  0  0
  147.3787  138.1117  151.5241 O   0  0  0  0  0  0  0  0  0  0  0  0
  148.2630  139.2722  153.4496 C   0  0  0  0  0  0  0  0  0  0  0  0
  152.1769  141.2021  158.1106 C   0  0  0  0  0  0  0  0  0  0  0  0
  152.9370  140.2285  158.7826 C   0  0  0  0  0  0  0  0  0  0  0  0
  153.4176  140.4944  160.0820 C   0  0  0  0  0  0  0  0  0  0  0  0
  154.2404  139.4383  160.7984 C   0  0  0  0  0  0  0  0  0  0  0  0
  153.3641  143.0600  162.4030 H   0  0  0  0  0  0  0  0  0  0  0  0
  154.7222  141.9694  162.1380 H   0  0  0  0  0  0  0  0  0  0  0  0
  153.2086  141.3542  162.8201 H   0  0  0  0  0  0  0  0  0  0  0  0
  152.1429  143.6548  160.4854 H   0  0  0  0  0  0  0  0  0  0  0  0
  150.4357  142.7922  155.9359 H   0  0  0  0  0  0  0  0  0  0  0  0
  152.0858  140.6354  154.9532 H   0  0  0  0  0  0  0  0  0  0  0  0
  152.1407  139.3790  156.1676 H   0  0  0  0  0  0  0  0  0  0  0  0
  149.7392  140.5296  154.7194 H   0  0  0  0  0  0  0  0  0  0  0  0
  149.5220  140.6002  157.0927 H   0  0  0  0  0  0  0  0  0  0  0  0
  150.9283  138.2481  154.1354 H   0  0  0  0  0  0  0  0  0  0  0  0
  150.2750  137.6732  155.6459 H   0  0  0  0  0  0  0  0  0  0  0  0
  148.2480  136.5822  155.5434 H   0  0  0  0  0  0  0  0  0  0  0  0
  147.5227  138.1494  155.8259 H   0  0  0  0  0  0  0  0  0  0  0  0
  146.8698  136.2184  153.5383 H   0  0  0  0  0  0  0  0  0  0  0  0
  145.8478  136.5556  154.9137 H   0  0  0  0  0  0  0  0  0  0  0  0
  145.1248  137.8429  152.8735 H   0  0  0  0  0  0  0  0  0  0  0  0
  145.5403  138.8839  154.2124 H   0  0  0  0  0  0  0  0  0  0  0  0
  146.5691  139.8224  152.2294 H   0  0  0  0  0  0  0  0  0  0  0  0
  147.7687  137.3122  151.8444 H   0  0  0  0  0  0  0  0  0  0  0  0
  148.0145  140.0376  154.1866 H   0  0  0  0  0  0  0  0  0  0  0  0
  149.0154  139.7059  152.7888 H   0  0  0  0  0  0  0  0  0  0  0  0
  153.1487  139.2845  158.3027 H   0  0  0  0  0  0  0  0  0  0  0  0
  154.3369  138.5338  160.1971 H   0  0  0  0  0  0  0  0  0  0  0  0
  153.7714  139.1631  161.7434 H   0  0  0  0  0  0  0  0  0  0  0  0
  155.2435  139.8117  161.0050 H   0  0  0  0  0  0  0  0  0  0  0  0
  149.0435  137.4200  153.4282 H   0  0  0  0  0  0  0  0  0  0  0  0
  1  2  1  0  0  0  0
  1 23  1  0  0  0  0
  1 24  1  0  0  0  0
  1 25  1  0  0  0  0
  2 21  1  0  0  0  0
  2  3  2  0  0  0  0
  3  4  1  0  0  0  0
  3 26  1  0  0  0  0
  4 19  2  0  0  0  0
  4  5  1  0  0  0  0
  5  6  2  0  0  0  0
  6  7  1  0  0  0  0
  6 27  1  0  0  0  0
  7  8  1  0  0  0  0
  7 19  1  0  0  0  0
  8  9  1  0  0  0  0
  8 28  1  0  0  0  0
  8 29  1  0  0  0  0
  9 10  1  0  0  0  0
  9 11  1  0  0  0  0
  9 30  1  0  0  0  0
 10 31  1  0  0  0  0
 11 12  1  0  0  0  0
 11 32  1  0  0  0  0
 11 33  1  0  0  0  0
 12 18  1  0  0  0  0
 12 13  1  0  0  0  0
 12 48  1  0  0  0  0
 13 14  1  0  0  0  0
 13 34  1  0  0  0  0
 13 35  1  0  0  0  0
 14 15  1  0  0  0  0
 14 36  1  0  0  0  0
 14 37  1  0  0  0  0
 15 16  1  0  0  0  0
 15 38  1  0  0  0  0
 15 39  1  0  0  0  0
 16 17  1  0  0  0  0
 16 18  1  0  0  0  0
 16 40  1  0  0  0  0
 17 41  1  0  0  0  0
 18 42  1  0  0  0  0
 18 43  1  0  0  0  0
 19 20  1  0  0  0  0
 20 21  2  0  0  0  0
 20 44  1  0  0  0  0
 21 22  1  0  0  0  0
 22 45  1  0  0  0  0
 22 46  1  0  0  0  0
 22 47  1  0  0  0  0
M  CHG  1  12   1
M  END
> <s_m_source_file>
AV-unprocessed.smi

> <i_m_source_file_index>
1487

> <i_lp_mmshare_version>
43012

> <i_f3d_flags>
0

> <s_epik_input>
W0NIM11jKFtjSF0xKWMoW0NIM10pW2NIXWMoYzEyKW4oW2NIXW4yKVtDSDJdW0NASF0oW09IXSlbQ0gyXU4zW0NIMl1bQ0gyXVtDSDJdW0NAQEhdKFtPSF0pW0NIMl0z

> <s_epik_cmdline>
J2VwaWtfcHl0aG9uJywgJy1waCcsICc3LjAnLCAnLXRuJywgJzgnLCAnLW1hJywgJzIwMCcsICctbWV0YWxfYmluZGluZycsICctaW1hZScsICc8aW5maWxlLm1hZT4nLCAnLW9tYWUnLCAnPG91dGZpbGUubWFlPic=

> <r_epik_Ionization_Penalty>
0.0940186

> <r_epik_Ionization_Penalty_Charging>
0.00679686

> <r_epik_Ionization_Penalty_Neutral>
0.0872218

> <r_epik_State_Penalty>
0.0799311

> <r_epik_Charging_Adjusted_Penalty>
0.086728

> <i_epik_Tot_Q>
1

> <i_epik_Tot_abs_Q>
1

> <r_epik_Metal_State_Penalty>
7.95545e-05

> <b_epik_Metal_Only>
0

> <s_lp_Force_Field>
OPLS_2005

> <r_lp_Energy>
22.5409

> <b_lp_Chiralities_Consistent>
1

> <s_lp_Variant>
AV-unprocessed.smi:1487-5

> <Gold.Version>
5.8.1

> <Gold.Id.Protein>
6NUR|6NUR_protein|mol2

> <Gold.PLP.Fitness>
52.8619

> <Gold.PLP.PLP>
-40.6148

> <Gold.PLP.part.hbond>
-3.6957

> <Gold.PLP.part.metal>
0.0000

> <Gold.PLP.part.buried>
-1.8234

> <Gold.PLP.part.nonpolar>
-35.2051

> <Gold.PLP.part.repulsive>
0.1264

> <Gold.PLP.ligand.clash>
0.0000

> <Gold.PLP.ligand.torsion>
0.7072

> <Gold.PLP.Chemscore.Hbond>
3.5500

> <Gold.PLP.Chemscore.CHOScore>
0.9888

> <Gold.PLP.Chemscore.Metal>
0.0000

> <Gold.Chemscore.Hbonds>
donor molecule, donor type, donor heavy atom, donor atom, acceptor molecule, acceptor atom, score
      L1  H    12    48       P1  7948  2.00
      L1  H    17    41       P1  7948  0.99
      P1  H  7954  7966       L1    17  0.55
      L1  C     6    27       P1  8028  1.00

> <Gold.PLP.Chemscore.Internal.Correction>
0.0451

> <Gold.Rescore>
     Score         DG    S(hbond)    S(metal)    S(lipo)     H(rot)  DE(clash)    DE(int)     intcor
     16.65     -18.82       2.02        0.00     114.68       2.67       1.59       0.57       ----

> <Gold.Chemscore.Fitness>
16.6547

> <Gold.Chemscore.DG>
-18.8217

> <Gold.Chemscore.ZeroCoef>
-5.4800

> <Gold.Chemscore.Hbond>
2.0247

> <Gold.Chemscore.Metal>
0.0000

> <Gold.Chemscore.Lipo>
114.6796

> <Gold.Chemscore.Internal_Hbond>
0.0000

> <Gold.Chemscore.DEClash>
1.5923

> <Gold.Chemscore.DEInternal>
0.5747

> <Gold.Chemscore.Rot>
2.6712

> <Gold.Chemscore.Internal.Correction>
   9.000000E+99

> <Gold.Chemscore.Hbonds>
donor molecule, donor type, donor heavy atom, donor atom, acceptor molecule, acceptor atom, score
      L1  H    12    48       P1  7948  0.99
      L1  H    17    41       P1  7948  0.92
      P1  H  7954  7966       L1    17  0.03

> <Gold.Chemscore.Hbond.Weighted>
-6.7625

> <Gold.Chemscore.Metal.Weighted>
-0.0000

> <Gold.Chemscore.Lipo.Weighted>
-13.4175

> <Gold.Chemscore.Internal_Hbond.Weighted>
0.0000

> <Gold.Chemscore.DEClash.Weighted>
1.5923

> <Gold.Chemscore.DEInternal.Weighted>
0.5747

> <Gold.Chemscore.Rot.Weighted>
6.8383

> <Gold.Chemscore.Internal.Correction.Weighted>
   9.000000E+99

> <Gold.Protein.RotatedTorsions>
[ 6907 6896 6895 6894 ] final  -10.04 input  -60.11 | X-H torsion
[ 7974 7965 7964 7962 ] final  -20.20 input  175.53 | X-H torsion
[ 8008 7997 7996 7995 ] final   38.44 input   59.86 | X-H torsion
[ 10167 10162 10161 10158 ] final -128.14 input  -65.29 | X-H torsion
[ 10718 10713 10712 10709 ] final  -85.73 input   66.30 | X-H torsion
[ 10763 10752 10751 10750 ] final  -79.63 input  -60.55 | X-H torsion
[ 11005 11000 10999 10996 ] final  -69.00 input  -57.11 | X-H torsion

> <Gold.Protein.ActiveResidues>
 VAL166  LYS551  ARG553  GLY616  TRP617  ASP618  TYR619  PRO620  LYS621  CYS622 
 ASP623  PHE694  ASN695  SER759  ASP760  ASP761  ALA762  ILE779  LEU786  VAL792 
 PHE793  MET794  SER795  GLU796  ALA797  LYS798  CYS799  TRP800  GLU811  SER814 

> <Gold.Protein.RotatedAtoms>
  151.4083  135.0981  159.9576 H   0  0  0  0  0  0  0  0  0  0  0  0  # atno 6907 bound_to 6896
  152.5028  133.8822  159.7362 H   0  0  0  0  0  0  0  0  0  0  0  0  # atno 6908 bound_to 6896
  150.9311  133.6709  159.2839 H   0  0  0  0  0  0  0  0  0  0  0  0  # atno 6909 bound_to 6896
  146.1801  140.4169  142.8498 H   0  0  0  0  0  0  0  0  0  0  0  0  # atno 7974 bound_to 7965
  155.2202  140.3330  155.4316 H   0  0  0  0  0  0  0  0  0  0  0  0  # atno 8008 bound_to 7997
  156.2336  140.1862  156.7226 H   0  0  0  0  0  0  0  0  0  0  0  0  # atno 8009 bound_to 7997
  154.6020  140.0621  156.9367 H   0  0  0  0  0  0  0  0  0  0  0  0  # atno 8010 bound_to 7997
  139.9535  143.6029  152.2468 H   0  0  0  0  0  0  0  0  0  0  0  0  # atno 10167 bound_to 10162
  155.9994  130.4741  150.4607 H   0  0  0  0  0  0  0  0  0  0  0  0  # atno 10718 bound_to 10713
  154.5410  135.5689  153.6840 H   0  0  0  0  0  0  0  0  0  0  0  0  # atno 10763 bound_to 10752
  152.9963  135.6228  154.2501 H   0  0  0  0  0  0  0  0  0  0  0  0  # atno 10764 bound_to 10752
  154.2432  135.2861  155.2825 H   0  0  0  0  0  0  0  0  0  0  0  0  # atno 10765 bound_to 10752
  141.1544  133.6754  156.6532 H   0  0  0  0  0  0  0  0  0  0  0  0  # atno 11005 bound_to 11000
  144.8300  140.6692  143.6297 LP  0  0  0  0  0  0  0  0  0  0  0  0  # atno 17320 bound_to 7965
  145.4101  139.1581  143.4130 LP  0  0  0  0  0  0  0  0  0  0  0  0  # atno 17321 bound_to 7965
  139.6610  144.7662  151.1963 LP  0  0  0  0  0  0  0  0  0  0  0  0  # atno 17342 bound_to 10162
  140.7575  143.6011  150.8699 LP  0  0  0  0  0  0  0  0  0  0  0  0  # atno 17343 bound_to 10162
  157.2631  131.0571  151.2307 LP  0  0  0  0  0  0  0  0  0  0  0  0  # atno 17370 bound_to 10713
  157.3415  130.7035  149.6384 LP  0  0  0  0  0  0  0  0  0  0  0  0  # atno 17371 bound_to 10713
  140.3304  134.7933  157.4322 LP  0  0  0  0  0  0  0  0  0  0  0  0  # atno 17394 bound_to 11000
  140.1021  134.5458  155.8343 LP  0  0  0  0  0  0  0  0  0  0  0  0  # atno 17395 bound_to 11000

$$$$
