AV-unprocessed.smi:658|AV-procd|sdf|3235|dock4
  -GOLD-   22720 0183D 1   1.00000     0.00000
 Structure written by MMmdl.
 37 37  0  0  0  0  0  0  0  0  3 V2000
  145.5455  134.1148  153.9628 C   0  0  0  0  0  0  0  0  0  0  0  0
  146.3205  135.0271  152.9949 C   0  0  1  0  0  0  0  0  0  0  0  0
  147.6714  134.4627  152.7813 N   0  3  0  0  0  0  0  0  0  0  0  0
  148.5761  134.5583  153.9447 C   0  0  0  0  0  0  0  0  0  0  0  0
  149.6444  133.4604  153.9023 C   0  0  0  0  0  0  0  0  0  0  0  0
  150.8105  133.7343  154.8663 C   0  0  0  0  0  0  0  0  0  0  0  0
  151.2612  132.2354  155.8402 S   0  0  0  0  0  0  0  0  0  0  0  0
  152.4419  132.8237  156.7691 N   0  5  0  0  0  0  0  0  0  0  0  0
  150.0659  131.8699  156.6160 O   0  0  0  0  0  0  0  0  0  0  0  0
  151.7669  131.2626  154.8608 O   0  0  0  0  0  0  0  0  0  0  0  0
  145.5996  135.2254  151.6345 C   0  0  2  0  0  0  0  0  0  0  0  0
  144.2741  135.9999  151.7685 C   0  0  0  0  0  0  0  0  0  0  0  0
  145.3696  133.9599  150.9494 N   0  0  0  0  0  0  0  0  0  0  0  0
  144.1660  133.3759  150.6104 C   0  0  0  0  0  0  0  0  0  0  0  0
  144.4466  132.1979  149.9797 C   0  0  0  0  0  0  0  0  0  0  0  0
  145.8682  132.1423  149.9835 C   0  0  0  0  0  0  0  0  0  0  0  0
  146.4174  133.1964  150.5647 N   0  0  0  0  0  0  0  0  0  0  0  0
  144.5788  134.5393  154.2343 H   0  0  0  0  0  0  0  0  0  0  0  0
  146.0996  133.9689  154.8906 H   0  0  0  0  0  0  0  0  0  0  0  0
  145.3667  133.1327  153.5236 H   0  0  0  0  0  0  0  0  0  0  0  0
  146.4152  136.0005  153.4799 H   0  0  0  0  0  0  0  0  0  0  0  0
  147.5802  133.4889  152.5298 H   0  0  0  0  0  0  0  0  0  0  0  0
  149.0520  135.5398  153.9695 H   0  0  0  0  0  0  0  0  0  0  0  0
  147.9849  134.4647  154.8566 H   0  0  0  0  0  0  0  0  0  0  0  0
  149.1807  132.5100  154.1684 H   0  0  0  0  0  0  0  0  0  0  0  0
  150.0135  133.3448  152.8826 H   0  0  0  0  0  0  0  0  0  0  0  0
  151.6991  134.0306  154.3097 H   0  0  0  0  0  0  0  0  0  0  0  0
  150.5798  134.5392  155.5648 H   0  0  0  0  0  0  0  0  0  0  0  0
  153.3370  132.6541  156.2950 H   0  0  0  0  0  0  0  0  0  0  0  0
  146.2569  135.8120  150.9902 H   0  0  0  0  0  0  0  0  0  0  0  0
  144.4353  137.0093  152.1471 H   0  0  0  0  0  0  0  0  0  0  0  0
  143.5838  135.4983  152.4475 H   0  0  0  0  0  0  0  0  0  0  0  0
  143.7779  136.0946  150.8018 H   0  0  0  0  0  0  0  0  0  0  0  0
  143.2192  133.8415  150.8412 H   0  0  0  0  0  0  0  0  0  0  0  0
  143.7437  131.4834  149.5776 H   0  0  0  0  0  0  0  0  0  0  0  0
  146.5127  131.3733  149.5841 H   0  0  0  0  0  0  0  0  0  0  0  0
  148.0995  134.9525  152.0086 H   0  0  0  0  0  0  0  0  0  0  0  0
  1  2  1  0  0  0  0
  1 18  1  0  0  0  0
  1 19  1  0  0  0  0
  1 20  1  0  0  0  0
  2  3  1  0  0  0  0
  2 11  1  0  0  0  0
  2 21  1  0  0  0  0
  3  4  1  0  0  0  0
  3 22  1  0  0  0  0
  3 37  1  0  0  0  0
  4  5  1  0  0  0  0
  4 23  1  0  0  0  0
  4 24  1  0  0  0  0
  5  6  1  0  0  0  0
  5 25  1  0  0  0  0
  5 26  1  0  0  0  0
  6  7  1  0  0  0  0
  6 27  1  0  0  0  0
  6 28  1  0  0  0  0
  7  8  1  0  0  0  0
  7  9  2  0  0  0  0
  7 10  2  0  0  0  0
  8 29  1  0  0  0  0
 11 12  1  0  0  0  0
 11 13  1  0  0  0  0
 11 30  1  0  0  0  0
 12 31  1  0  0  0  0
 12 32  1  0  0  0  0
 12 33  1  0  0  0  0
 13 17  1  0  0  0  0
 13 14  1  0  0  0  0
 14 15  2  0  0  0  0
 14 34  1  0  0  0  0
 15 16  1  0  0  0  0
 15 35  1  0  0  0  0
 16 17  2  0  0  0  0
 16 36  1  0  0  0  0
M  CHG  1   3   1
M  CHG  1   8  -1
M  END
> <s_m_source_file>
AV-unprocessed.smi

> <i_m_source_file_index>
658

> <i_lp_mmshare_version>
43012

> <i_f3d_flags>
0

> <s_epik_input>
bjFbY0hdW2NIXVtjSF1uMVtDQEBIXShbQ0gzXSlbQ0BIXShbQ0gzXSlbTkhdW0NIMl1bQ0gyXVtDSDJdUyg9TykoPU8pW05IMl0=

> <s_epik_cmdline>
J2VwaWtfcHl0aG9uJywgJy1waCcsICc3LjAnLCAnLXRuJywgJzgnLCAnLW1hJywgJzIwMCcsICctbWV0YWxfYmluZGluZycsICctaW1hZScsICc8aW5maWxlLm1hZT4nLCAnLW9tYWUnLCAnPG91dGZpbGUubWFlPic=

> <r_lp_tautomer_probability>
1

> <r_epik_Ionization_Penalty>
4.63642

> <r_epik_Ionization_Penalty_Charging>
4.63641

> <r_epik_Ionization_Penalty_Neutral>
1.08396e-05

> <r_epik_State_Penalty>
4.63466

> <r_epik_Charging_Adjusted_Penalty>
9.27106

> <i_epik_Tot_Q>
0

> <i_epik_Tot_abs_Q>
2

> <r_epik_Metal_State_Penalty>
0.890424

> <b_epik_Metal_Only>
1

> <s_lp_Force_Field>
OPLS_2005

> <r_lp_Energy>
-2.21025

> <b_lp_Chiralities_Consistent>
1

> <s_lp_Variant>
AV-unprocessed.smi:658-6

> <Gold.Version>
5.8.1

> <Gold.Id.Protein>
6NUR|6NUR_protein|mol2

> <Gold.PLP.Fitness>
44.5645

> <Gold.PLP.PLP>
-27.8751

> <Gold.PLP.part.hbond>
-2.0000

> <Gold.PLP.part.metal>
0.0000

> <Gold.PLP.part.buried>
-3.8756

> <Gold.PLP.part.nonpolar>
-21.9801

> <Gold.PLP.part.repulsive>
0.2099

> <Gold.PLP.ligand.clash>
0.0000

> <Gold.PLP.ligand.torsion>
0.7436

> <Gold.PLP.Chemscore.Hbond>
4.0000

> <Gold.PLP.Chemscore.CHOScore>
1.9971

> <Gold.PLP.Chemscore.Metal>
0.0000

> <Gold.Chemscore.Hbonds>
donor molecule, donor type, donor heavy atom, donor atom, acceptor molecule, acceptor atom, score
      L1  H     3    37       P1  7948  1.34
      L1  C    14    34       P1 10186  0.77
      L1  C    16    36       P1 10747  0.82

> <Gold.PLP.Chemscore.Internal.Correction>
0.1853

> <Gold.Rescore>
     Score         DG    S(hbond)    S(metal)    S(lipo)     H(rot)  DE(clash)    DE(int)     intcor
      8.81     -10.88       1.94        0.00      57.22       3.04       0.02       2.05       ----

> <Gold.Chemscore.Fitness>
8.8054

> <Gold.Chemscore.DG>
-10.8762

> <Gold.Chemscore.ZeroCoef>
-5.4800

> <Gold.Chemscore.Hbond>
1.9419

> <Gold.Chemscore.Metal>
0.0000

> <Gold.Chemscore.Lipo>
57.2232

> <Gold.Chemscore.Internal_Hbond>
0.0000

> <Gold.Chemscore.DEClash>
0.0179

> <Gold.Chemscore.DEInternal>
2.0530

> <Gold.Chemscore.Rot>
3.0409

> <Gold.Chemscore.Internal.Correction>
   9.000000E+99

> <Gold.Chemscore.Hbonds>
donor molecule, donor type, donor heavy atom, donor atom, acceptor molecule, acceptor atom, score
      L1  H     3    37       P1  7948  0.22

> <Gold.Chemscore.Hbond.Weighted>
-6.4859

> <Gold.Chemscore.Metal.Weighted>
-0.0000

> <Gold.Chemscore.Lipo.Weighted>
-6.6951

> <Gold.Chemscore.Internal_Hbond.Weighted>
0.0000

> <Gold.Chemscore.DEClash.Weighted>
0.0179

> <Gold.Chemscore.DEInternal.Weighted>
2.0530

> <Gold.Chemscore.Rot.Weighted>
7.7848

> <Gold.Chemscore.Internal.Correction.Weighted>
   9.000000E+99

> <Gold.Protein.RotatedTorsions>
[ 6907 6896 6895 6894 ] final   60.42 input  -60.11 | X-H torsion
[ 7974 7965 7964 7962 ] final -129.21 input  175.53 | X-H torsion
[ 8008 7997 7996 7995 ] final  159.34 input   59.86 | X-H torsion
[ 10167 10162 10161 10158 ] final   22.56 input  -65.29 | X-H torsion
[ 10718 10713 10712 10709 ] final  125.44 input   66.30 | X-H torsion
[ 10763 10752 10751 10750 ] final  161.34 input  -60.55 | X-H torsion
[ 11005 11000 10999 10996 ] final  -44.94 input  -57.11 | X-H torsion

> <Gold.Protein.ActiveResidues>
 VAL166  LYS551  ARG553  GLY616  TRP617  ASP618  TYR619  PRO620  LYS621  CYS622 
 ASP623  PHE694  ASN695  SER759  ASP760  ASP761  ALA762  ILE779  LEU786  VAL792 
 PHE793  MET794  SER795  GLU796  ALA797  LYS798  CYS799  TRP800  GLU811  SER814 

> <Gold.Protein.RotatedAtoms>
  152.4001  134.6300  160.0072 H   0  0  0  0  0  0  0  0  0  0  0  0  # atno 6907 bound_to 6896
  151.6508  133.3315  159.3159 H   0  0  0  0  0  0  0  0  0  0  0  0  # atno 6908 bound_to 6896
  150.7903  134.6963  159.6570 H   0  0  0  0  0  0  0  0  0  0  0  0  # atno 6909 bound_to 6896
  144.9594  140.7431  143.4738 H   0  0  0  0  0  0  0  0  0  0  0  0  # atno 7974 bound_to 7965
  156.2245  140.1834  156.7396 H   0  0  0  0  0  0  0  0  0  0  0  0  # atno 8008 bound_to 7997
  154.5919  140.0649  156.9278 H   0  0  0  0  0  0  0  0  0  0  0  0  # atno 8009 bound_to 7997
  155.2322  140.3315  155.4304 H   0  0  0  0  0  0  0  0  0  0  0  0  # atno 8010 bound_to 7997
  140.5338  143.9795  150.6480 H   0  0  0  0  0  0  0  0  0  0  0  0  # atno 10167 bound_to 10162
  157.5502  131.1094  150.8714 H   0  0  0  0  0  0  0  0  0  0  0  0  # atno 10718 bound_to 10713
  154.2614  135.2768  155.2776 H   0  0  0  0  0  0  0  0  0  0  0  0  # atno 10763 bound_to 10752
  154.5381  135.5710  153.6819 H   0  0  0  0  0  0  0  0  0  0  0  0  # atno 10764 bound_to 10752
  152.9961  135.6244  154.2764 H   0  0  0  0  0  0  0  0  0  0  0  0  # atno 10765 bound_to 10752
  141.0483  133.6752  156.2943 H   0  0  0  0  0  0  0  0  0  0  0  0  # atno 11005 bound_to 11000
  145.2722  139.1950  143.4835 LP  0  0  0  0  0  0  0  0  0  0  0  0  # atno 17320 bound_to 7965
  146.3348  140.2670  142.8604 LP  0  0  0  0  0  0  0  0  0  0  0  0  # atno 17321 bound_to 7965
  140.3177  143.3157  152.0815 LP  0  0  0  0  0  0  0  0  0  0  0  0  # atno 17342 bound_to 10162
  139.4964  144.6594  151.6498 LP  0  0  0  0  0  0  0  0  0  0  0  0  # atno 17343 bound_to 10162
  156.9241  130.5326  149.5279 LP  0  0  0  0  0  0  0  0  0  0  0  0  # atno 17370 bound_to 10713
  156.0570  130.5630  150.9113 LP  0  0  0  0  0  0  0  0  0  0  0  0  # atno 17371 bound_to 10713
  140.6104  134.5464  157.5532 LP  0  0  0  0  0  0  0  0  0  0  0  0  # atno 17394 bound_to 11000
  139.9329  134.7929  156.0880 LP  0  0  0  0  0  0  0  0  0  0  0  0  # atno 17395 bound_to 11000

$$$$
