AV-unprocessed.smi:3101|AV-procd|sdf|11808|dock4
  -GOLD-   2272017183D 1   1.00000     0.00000
 Structure written by MMmdl.
 28 29  0  0  0  0  0  0  0  0  1 V2000
  152.8033  141.9699  160.8013 C   0  0  0  0  0  0  0  0  0  0  0  0
  152.8391  142.7044  159.4516 C   0  0  2  0  0  0  0  0  0  0  0  0
  152.5438  144.1874  159.5611 C   0  0  0  0  0  0  0  0  0  0  0  0
  152.1260  144.5558  158.1383 C   0  0  0  0  0  0  0  0  0  0  0  0
  151.6837  143.3485  157.5228 O   0  0  0  0  0  0  0  0  0  0  0  0
  151.7596  142.2693  158.4502 C   0  0  1  0  0  0  0  0  0  0  0  0
  152.0325  140.9609  157.6940 C   0  0  0  0  0  0  0  0  0  0  0  0
  152.9586  140.2250  158.0363 O   0  0  0  0  0  0  0  0  0  0  0  0
  151.1932  140.6998  156.6744 N   0  0  0  0  0  0  0  0  0  0  0  0
  151.1873  139.5750  155.8083 C   0  0  0  0  0  0  0  0  0  0  0  0
  151.8232  138.4132  156.3059 C   0  0  0  0  0  0  0  0  0  0  0  0
  151.9019  137.2645  155.5978 N   0  0  0  0  0  0  0  0  0  0  0  0
  151.3366  137.2710  154.3720 C   0  0  0  0  0  0  0  0  0  0  0  0
  150.6981  138.4184  153.8601 C   0  0  0  0  0  0  0  0  0  0  0  0
  150.6242  139.5633  154.5729 N   0  0  0  0  0  0  0  0  0  0  0  0
  151.8305  142.0706  161.2832 H   0  0  0  0  0  0  0  0  0  0  0  0
  153.5546  142.3716  161.4815 H   0  0  0  0  0  0  0  0  0  0  0  0
  153.0051  140.9058  160.6810 H   0  0  0  0  0  0  0  0  0  0  0  0
  153.8263  142.5811  159.0025 H   0  0  0  0  0  0  0  0  0  0  0  0
  151.7106  144.3577  160.2447 H   0  0  0  0  0  0  0  0  0  0  0  0
  153.3960  144.7678  159.9158 H   0  0  0  0  0  0  0  0  0  0  0  0
  151.3415  145.3129  158.1281 H   0  0  0  0  0  0  0  0  0  0  0  0
  152.9753  144.9411  157.5736 H   0  0  0  0  0  0  0  0  0  0  0  0
  150.7954  142.1916  158.9556 H   0  0  0  0  0  0  0  0  0  0  0  0
  150.4791  141.3914  156.4981 H   0  0  0  0  0  0  0  0  0  0  0  0
  152.2768  138.4028  157.2864 H   0  0  0  0  0  0  0  0  0  0  0  0
  151.3934  136.3586  153.7971 H   0  0  0  0  0  0  0  0  0  0  0  0
  150.2468  138.4178  152.8789 H   0  0  0  0  0  0  0  0  0  0  0  0
  1  2  1  0  0  0  0
  1 16  1  0  0  0  0
  1 17  1  0  0  0  0
  1 18  1  0  0  0  0
  2  6  1  0  0  0  0
  2  3  1  0  0  0  0
  2 19  1  0  0  0  0
  3  4  1  0  0  0  0
  3 20  1  0  0  0  0
  3 21  1  0  0  0  0
  4  5  1  0  0  0  0
  4 22  1  0  0  0  0
  4 23  1  0  0  0  0
  5  6  1  0  0  0  0
  6  7  1  0  0  0  0
  6 24  1  0  0  0  0
  7  8  2  0  0  0  0
  7  9  1  0  0  0  0
  9 10  1  0  0  0  0
  9 25  1  0  0  0  0
 10 15  1  0  0  0  0
 10 11  2  0  0  0  0
 11 12  1  0  0  0  0
 11 26  1  0  0  0  0
 12 13  2  0  0  0  0
 13 14  1  0  0  0  0
 13 27  1  0  0  0  0
 14 15  2  0  0  0  0
 14 28  1  0  0  0  0
M  END
> <s_m_source_file>
AV-unprocessed.smi

> <i_m_source_file_index>
3101

> <i_lp_mmshare_version>
43012

> <i_f3d_flags>
0

> <s_epik_input>
W0NIM11bQ0BASF0xW0NIMl1bQ0gyXU9bQ0BIXTFDKD1PKVtOSF1jMltjSF1uW2NIXVtjSF1uMg==

> <s_epik_cmdline>
J2VwaWtfcHl0aG9uJywgJy1waCcsICc3LjAnLCAnLXRuJywgJzgnLCAnLW1hJywgJzIwMCcsICctbWV0YWxfYmluZGluZycsICctaW1hZScsICc8aW5maWxlLm1hZT4nLCAnLW9tYWUnLCAnPG91dGZpbGUubWFlPic=

> <r_lp_tautomer_probability>
1

> <r_epik_Ionization_Penalty>
2.83174e-06

> <r_epik_Ionization_Penalty_Charging>
0

> <r_epik_Ionization_Penalty_Neutral>
2.83174e-06

> <r_epik_State_Penalty>
-0

> <r_epik_Charging_Adjusted_Penalty>
0

> <i_epik_Tot_Q>
0

> <i_epik_Tot_abs_Q>
0

> <r_epik_Metal_State_Penalty>
-0

> <b_epik_Metal_Only>
0

> <s_lp_Force_Field>
OPLS_2005

> <r_lp_Energy>
26.5454

> <b_lp_Chiralities_Consistent>
1

> <s_lp_Variant>
AV-unprocessed.smi:3101-1

> <Gold.Version>
5.8.1

> <Gold.Id.Protein>
6NUR|6NUR_protein|mol2

> <Gold.PLP.Fitness>
44.5471

> <Gold.PLP.PLP>
-30.4792

> <Gold.PLP.part.hbond>
-2.8327

> <Gold.PLP.part.metal>
0.0000

> <Gold.PLP.part.buried>
-1.6107

> <Gold.PLP.part.nonpolar>
-26.2741

> <Gold.PLP.part.repulsive>
0.3414

> <Gold.PLP.ligand.clash>
0.0000

> <Gold.PLP.ligand.torsion>
0.2684

> <Gold.PLP.Chemscore.Hbond>
2.1979

> <Gold.PLP.Chemscore.CHOScore>
2.6683

> <Gold.PLP.Chemscore.Metal>
0.0000

> <Gold.Chemscore.Hbonds>
donor molecule, donor type, donor heavy atom, donor atom, acceptor molecule, acceptor atom, score
      P1  H  7989  7998       L1    15  1.00
      P1  H  7997  8008       L1     8  0.96
      P1  H 10752 10763       L1    12  0.20
      L1  C    13    27       P1  7949  1.00
      L1  C    14    28       P1  7948  0.49
      L1  C    14    28       P1  7957  1.00

> <Gold.PLP.Chemscore.Internal.Correction>
0.0061

> <Gold.Rescore>
     Score         DG    S(hbond)    S(metal)    S(lipo)     H(rot)  DE(clash)    DE(int)     intcor
     15.16     -17.27       1.46        0.00      80.94       1.00       0.43       1.68       ----

> <Gold.Chemscore.Fitness>
15.1551

> <Gold.Chemscore.DG>
-17.2716

> <Gold.Chemscore.ZeroCoef>
-5.4800

> <Gold.Chemscore.Hbond>
1.4615

> <Gold.Chemscore.Metal>
0.0000

> <Gold.Chemscore.Lipo>
80.9415

> <Gold.Chemscore.Internal_Hbond>
0.0000

> <Gold.Chemscore.DEClash>
0.4349

> <Gold.Chemscore.DEInternal>
1.6816

> <Gold.Chemscore.Rot>
1.0000

> <Gold.Chemscore.Internal.Correction>
   9.000000E+99

> <Gold.Chemscore.Hbonds>
donor molecule, donor type, donor heavy atom, donor atom, acceptor molecule, acceptor atom, score
      P1  H  7989  7998       L1    15  0.27
      P1  H  7997  8008       L1     8  0.89
      P1  H 10752 10763       L1    12  0.01

> <Gold.Chemscore.Hbond.Weighted>
-4.8815

> <Gold.Chemscore.Metal.Weighted>
-0.0000

> <Gold.Chemscore.Lipo.Weighted>
-9.4702

> <Gold.Chemscore.Internal_Hbond.Weighted>
0.0000

> <Gold.Chemscore.DEClash.Weighted>
0.4349

> <Gold.Chemscore.DEInternal.Weighted>
1.6816

> <Gold.Chemscore.Rot.Weighted>
2.5600

> <Gold.Chemscore.Internal.Correction.Weighted>
   9.000000E+99

> <Gold.Protein.RotatedTorsions>
[ 6907 6896 6895 6894 ] final -155.10 input  -60.11 | X-H torsion
[ 7974 7965 7964 7962 ] final   89.23 input  175.53 | X-H torsion
[ 8008 7997 7996 7995 ] final  -76.77 input   59.86 | X-H torsion
[ 10167 10162 10161 10158 ] final  170.00 input  -65.29 | X-H torsion
[ 10718 10713 10712 10709 ] final -101.52 input   66.30 | X-H torsion
[ 10763 10752 10751 10750 ] final   89.70 input  -60.55 | X-H torsion
[ 11005 11000 10999 10996 ] final -174.12 input  -57.11 | X-H torsion

> <Gold.Protein.ActiveResidues>
 VAL166  LYS551  ARG553  GLY616  TRP617  ASP618  TYR619  PRO620  LYS621  CYS622 
 ASP623  PHE694  ASN695  SER759  ASP760  ASP761  ALA762  ILE779  LEU786  VAL792 
 PHE793  MET794  SER795  GLU796  ALA797  LYS798  CYS799  TRP800  GLU811  SER814 

> <Gold.Protein.RotatedAtoms>
  151.2674  133.4272  159.2619 H   0  0  0  0  0  0  0  0  0  0  0  0  # atno 6907 bound_to 6896
  151.0476  134.9651  159.8205 H   0  0  0  0  0  0  0  0  0  0  0  0  # atno 6908 bound_to 6896
  152.5377  134.2630  159.8995 H   0  0  0  0  0  0  0  0  0  0  0  0  # atno 6909 bound_to 6896
  145.5352  139.2285  143.2596 H   0  0  0  0  0  0  0  0  0  0  0  0  # atno 7974 bound_to 7965
  154.5535  140.0721  156.8706 H   0  0  0  0  0  0  0  0  0  0  0  0  # atno 8008 bound_to 7997
  155.2947  140.3380  155.4232 H   0  0  0  0  0  0  0  0  0  0  0  0  # atno 8009 bound_to 7997
  156.1982  140.1711  156.7941 H   0  0  0  0  0  0  0  0  0  0  0  0  # atno 8010 bound_to 7997
  139.5007  144.3644  151.9791 H   0  0  0  0  0  0  0  0  0  0  0  0  # atno 10167 bound_to 10162
  156.0197  130.5377  150.6975 H   0  0  0  0  0  0  0  0  0  0  0  0  # atno 10718 bound_to 10713
  153.1898  135.4460  155.0135 H   0  0  0  0  0  0  0  0  0  0  0  0  # atno 10763 bound_to 10752
  154.8083  135.3284  154.7375 H   0  0  0  0  0  0  0  0  0  0  0  0  # atno 10764 bound_to 10752
  153.7830  135.6976  153.4940 H   0  0  0  0  0  0  0  0  0  0  0  0  # atno 10765 bound_to 10752
  140.4780  134.6102  157.4908 H   0  0  0  0  0  0  0  0  0  0  0  0  # atno 11005 bound_to 11000
  146.2018  140.6170  142.9099 LP  0  0  0  0  0  0  0  0  0  0  0  0  # atno 17320 bound_to 7965
  144.7605  140.5411  143.6739 LP  0  0  0  0  0  0  0  0  0  0  0  0  # atno 17321 bound_to 7965
  140.3080  144.3571  150.6041 LP  0  0  0  0  0  0  0  0  0  0  0  0  # atno 17342 bound_to 10162
  140.5821  143.2172  151.7409 LP  0  0  0  0  0  0  0  0  0  0  0  0  # atno 17343 bound_to 10162
  157.4643  131.0886  151.0712 LP  0  0  0  0  0  0  0  0  0  0  0  0  # atno 17370 bound_to 10713
  157.1191  130.6054  149.5500 LP  0  0  0  0  0  0  0  0  0  0  0  0  # atno 17371 bound_to 10713
  139.9844  134.7086  155.9801 LP  0  0  0  0  0  0  0  0  0  0  0  0  # atno 17394 bound_to 11000
  141.1545  133.6544  156.4117 LP  0  0  0  0  0  0  0  0  0  0  0  0  # atno 17395 bound_to 11000

$$$$
