AV-unprocessed.smi:16|AV-procd|sdf|91|dock1
  -GOLD-   2262015233D 1   1.00000     0.00000
 Structure written by MMmdl.
 60 64  0  0  0  0  0  0  0  0  2 V2000
  147.9225  142.3188  157.8746 C   0  0  0  0  0  0  0  0  0  0  0  0
  148.9163  143.1769  158.6718 C   0  0  0  0  0  0  0  0  0  0  0  0
  150.1665  143.4623  157.9173 N   0  3  1  0  0  0  0  0  0  0  0  0
  151.2022  144.1498  158.7343 C   0  0  0  0  0  0  0  0  0  0  0  0
  151.9118  143.1843  159.7028 C   0  0  0  0  0  0  0  0  0  0  0  0
  152.5120  141.9995  158.9352 C   0  0  1  0  0  0  0  0  0  0  0  0
  153.1071  141.0827  159.8461 O   0  0  0  0  0  0  0  0  0  0  0  0
  153.7417  140.0046  159.1651 C   0  0  0  0  0  0  0  0  0  0  0  0
  152.6991  139.2311  158.3402 C   0  0  0  0  0  0  0  0  0  0  0  0
  151.9911  140.1310  157.4345 N   0  0  0  0  0  0  0  0  0  0  0  0
  151.1402  139.4573  156.6278 C   0  0  0  0  0  0  0  0  0  0  0  0
  151.1240  139.7069  155.2914 N   0  0  0  0  0  0  0  0  0  0  0  0
  150.3039  139.0140  154.4954 C   0  0  0  0  0  0  0  0  0  0  0  0
  149.4429  138.0474  154.8222 N   0  0  0  0  0  0  0  0  0  0  0  0
  149.4558  137.8007  156.1641 C   0  0  0  0  0  0  0  0  0  0  0  0
  150.2695  138.4561  157.1295 C   0  0  0  0  0  0  0  0  0  0  0  0
  150.0333  137.9313  158.3926 N   0  0  0  0  0  0  0  0  0  0  0  0
  149.1321  137.0097  158.1854 C   0  0  0  0  0  0  0  0  0  0  0  0
  148.7104  136.8799  156.8804 N   0  0  0  0  0  0  0  0  0  0  0  0
  147.7798  135.9121  156.3765 C   0  0  0  0  0  0  0  0  0  0  0  0
  148.0135  135.1990  155.0416 C   0  0  0  0  0  0  0  0  0  0  0  0
  146.4970  135.2262  154.7481 C   0  0  0  0  0  0  0  0  0  0  0  0
  146.1159  135.6764  153.3295 C   0  0  0  0  0  0  0  0  0  0  0  0
  146.8276  136.8359  152.9477 O   0  0  0  0  0  0  0  0  0  0  0  0
  145.6952  133.9390  155.0463 C   0  0  0  0  0  0  0  0  0  0  0  0
  144.2950  134.1237  154.9917 O   0  0  0  0  0  0  0  0  0  0  0  0
  146.4207  136.3418  155.8143 C   0  0  0  0  0  0  0  0  0  0  0  0
  151.4087  141.2803  158.1313 C   0  0  2  0  0  0  0  0  0  0  0  0
  150.7303  142.2984  157.1789 C   0  0  0  0  0  0  0  0  0  0  0  0
  153.2817  142.3770  158.2583 H   0  0  0  0  0  0  0  0  0  0  0  0
  150.6669  140.8960  158.8326 H   0  0  0  0  0  0  0  0  0  0  0  0
  146.9729  142.2428  158.4048 H   0  0  0  0  0  0  0  0  0  0  0  0
  148.2851  141.3024  157.7242 H   0  0  0  0  0  0  0  0  0  0  0  0
  147.7195  142.7549  156.8959 H   0  0  0  0  0  0  0  0  0  0  0  0
  148.4237  144.1225  158.9009 H   0  0  0  0  0  0  0  0  0  0  0  0
  149.1353  142.7088  159.6313 H   0  0  0  0  0  0  0  0  0  0  0  0
  151.9380  144.5840  158.0561 H   0  0  0  0  0  0  0  0  0  0  0  0
  150.7641  144.9865  159.2795 H   0  0  0  0  0  0  0  0  0  0  0  0
  152.6986  143.7131  160.2417 H   0  0  0  0  0  0  0  0  0  0  0  0
  151.2107  142.8242  160.4565 H   0  0  0  0  0  0  0  0  0  0  0  0
  154.5414  140.3822  158.5258 H   0  0  0  0  0  0  0  0  0  0  0  0
  154.2056  139.3451  159.8987 H   0  0  0  0  0  0  0  0  0  0  0  0
  153.1898  138.4406  157.7706 H   0  0  0  0  0  0  0  0  0  0  0  0
  151.9868  138.7486  159.0112 H   0  0  0  0  0  0  0  0  0  0  0  0
  150.3447  139.2678  153.4463 H   0  0  0  0  0  0  0  0  0  0  0  0
  148.7474  136.3945  158.9860 H   0  0  0  0  0  0  0  0  0  0  0  0
  147.6517  135.1851  157.1792 H   0  0  0  0  0  0  0  0  0  0  0  0
  148.5909  135.8079  154.3436 H   0  0  0  0  0  0  0  0  0  0  0  0
  148.4436  134.2015  155.1358 H   0  0  0  0  0  0  0  0  0  0  0  0
  146.3062  134.8880  152.6003 H   0  0  0  0  0  0  0  0  0  0  0  0
  145.0514  135.9041  153.2656 H   0  0  0  0  0  0  0  0  0  0  0  0
  147.5963  136.5707  152.4661 H   0  0  0  0  0  0  0  0  0  0  0  0
  145.9509  133.1523  154.3357 H   0  0  0  0  0  0  0  0  0  0  0  0
  145.9325  133.5516  156.0375 H   0  0  0  0  0  0  0  0  0  0  0  0
  143.8892  133.2902  154.8071 H   0  0  0  0  0  0  0  0  0  0  0  0
  145.5936  136.2489  156.5187 H   0  0  0  0  0  0  0  0  0  0  0  0
  146.4500  137.3437  155.3826 H   0  0  0  0  0  0  0  0  0  0  0  0
  149.9523  141.8303  156.5781 H   0  0  0  0  0  0  0  0  0  0  0  0
  151.4665  142.6714  156.4654 H   0  0  0  0  0  0  0  0  0  0  0  0
  149.8936  144.1324  157.2125 H   0  0  0  0  0  0  0  0  0  0  0  0
  1  2  1  0  0  0  0
  1 32  1  0  0  0  0
  1 33  1  0  0  0  0
  1 34  1  0  0  0  0
  2  3  1  0  0  0  0
  2 35  1  0  0  0  0
  2 36  1  0  0  0  0
  3 29  1  0  0  0  0
  3  4  1  0  0  0  0
  3 60  1  0  0  0  0
  4  5  1  0  0  0  0
  4 37  1  0  0  0  0
  4 38  1  0  0  0  0
  5  6  1  0  0  0  0
  5 39  1  0  0  0  0
  5 40  1  0  0  0  0
  6 30  1  0  0  0  0
  6 28  1  0  0  0  0
  6  7  1  0  0  0  0
  7  8  1  0  0  0  0
  8  9  1  0  0  0  0
  8 41  1  0  0  0  0
  8 42  1  0  0  0  0
  9 10  1  0  0  0  0
  9 43  1  0  0  0  0
  9 44  1  0  0  0  0
 10 11  1  0  0  0  0
 10 28  1  0  0  0  0
 11 16  1  0  0  0  0
 11 12  2  0  0  0  0
 12 13  1  0  0  0  0
 13 14  2  0  0  0  0
 13 45  1  0  0  0  0
 14 15  1  0  0  0  0
 15 19  1  0  0  0  0
 15 16  2  0  0  0  0
 16 17  1  0  0  0  0
 17 18  2  0  0  0  0
 18 19  1  0  0  0  0
 18 46  1  0  0  0  0
 19 20  1  0  0  0  0
 20 27  1  0  0  0  0
 20 21  1  0  0  0  0
 20 47  1  0  0  0  0
 21 22  1  0  0  0  0
 21 48  1  0  0  0  0
 21 49  1  0  0  0  0
 22 23  1  0  0  0  0
 22 25  1  0  0  0  0
 22 27  1  0  0  0  0
 23 24  1  0  0  0  0
 23 50  1  0  0  0  0
 23 51  1  0  0  0  0
 24 52  1  0  0  0  0
 25 26  1  0  0  0  0
 25 53  1  0  0  0  0
 25 54  1  0  0  0  0
 26 55  1  0  0  0  0
 27 56  1  0  0  0  0
 27 57  1  0  0  0  0
 28 31  1  0  0  0  0
 28 29  1  0  0  0  0
 29 58  1  0  0  0  0
 29 59  1  0  0  0  0
M  CHG  1   3   1
M  END
> <s_m_source_file>
AV-unprocessed.smi

> <i_m_source_file_index>
16

> <i_lp_mmshare_version>
43012

> <i_f3d_flags>
0

> <s_epik_input>
W0NIM11bQ0gyXU4oW0NIMl1bQ0gyXTEpW0NIMl1bQ0BASF0oW0NAQEhdMTIpTihbQ0gyXVtDSDJdTzIpYyhuW2NIXW4zKWMoYzM0KW5bY0hdbjRbQ0hdKFtDSDJdNSlbQ0gyXUM1KFtDSDJdW09IXSlbQ0gyXVtPSF0=

> <s_epik_cmdline>
J2VwaWtfcHl0aG9uJywgJy1waCcsICc3LjAnLCAnLXRuJywgJzgnLCAnLW1hJywgJzIwMCcsICctbWV0YWxfYmluZGluZycsICctaW1hZScsICc8aW5maWxlLm1hZT4nLCAnLW9tYWUnLCAnPG91dGZpbGUubWFlPic=

> <r_lp_tautomer_probability>
1

> <r_epik_Ionization_Penalty>
0.0135603

> <r_epik_Ionization_Penalty_Charging>
0.0131385

> <r_epik_Ionization_Penalty_Neutral>
0.000421734

> <r_epik_State_Penalty>
0.0102091

> <r_epik_Charging_Adjusted_Penalty>
0.0233476

> <i_epik_Tot_Q>
1

> <i_epik_Tot_abs_Q>
1

> <r_epik_Metal_State_Penalty>
0.0103746

> <b_epik_Metal_Only>
0

> <s_lp_Force_Field>
OPLS_2005

> <r_lp_Energy>
58.6505

> <b_lp_Chiralities_Consistent>
1

> <s_lp_Variant>
AV-unprocessed.smi:16-5

> <Gold.Version>
5.8.1

> <Gold.Id.Protein>
6NUR|6NUR_protein|mol2

> <Gold.PLP.Fitness>
45.5910

> <Gold.PLP.PLP>
-31.4393

> <Gold.PLP.part.hbond>
-3.3008

> <Gold.PLP.part.metal>
0.0000

> <Gold.PLP.part.buried>
-4.8855

> <Gold.PLP.part.nonpolar>
-23.6466

> <Gold.PLP.part.repulsive>
0.2149

> <Gold.PLP.ligand.clash>
0.0000

> <Gold.PLP.ligand.torsion>
1.0523

> <Gold.PLP.Chemscore.Hbond>
4.2048

> <Gold.PLP.Chemscore.CHOScore>
1.0000

> <Gold.PLP.Chemscore.Metal>
0.0000

> <Gold.Chemscore.Hbonds>
donor molecule, donor type, donor heavy atom, donor atom, acceptor molecule, acceptor atom, score
      L1  H     3    60       P1  8028  2.00
      L1  H    24    52       P1  7948  0.96
      L1  H    26    55       P1 10957  1.00
      P1  H  7989  7998       L1    12  0.18
      L1  C    13    45       P1  7957  1.00

> <Gold.PLP.Chemscore.Internal.Correction>
0.6420

> <Gold.Rescore>
     Score         DG    S(hbond)    S(metal)    S(lipo)     H(rot)  DE(clash)    DE(int)     intcor
     12.15     -14.63       2.78        0.00      71.55       3.33       0.14       2.34       ----

> <Gold.Chemscore.Fitness>
12.1482

> <Gold.Chemscore.DG>
-14.6307

> <Gold.Chemscore.ZeroCoef>
-5.4800

> <Gold.Chemscore.Hbond>
2.7819

> <Gold.Chemscore.Metal>
0.0000

> <Gold.Chemscore.Lipo>
71.5499

> <Gold.Chemscore.Internal_Hbond>
0.0000

> <Gold.Chemscore.DEClash>
0.1429

> <Gold.Chemscore.DEInternal>
2.3396

> <Gold.Chemscore.Rot>
3.3251

> <Gold.Chemscore.Internal.Correction>
   9.000000E+99

> <Gold.Chemscore.Hbonds>
donor molecule, donor type, donor heavy atom, donor atom, acceptor molecule, acceptor atom, score
      L1  H     3    60       P1  8028  0.68
      L1  H    24    52       P1  7948  0.91
      L1  H    26    55       P1 10957  0.99

> <Gold.Chemscore.Hbond.Weighted>
-9.2915

> <Gold.Chemscore.Metal.Weighted>
-0.0000

> <Gold.Chemscore.Lipo.Weighted>
-8.3713

> <Gold.Chemscore.Internal_Hbond.Weighted>
0.0000

> <Gold.Chemscore.DEClash.Weighted>
0.1429

> <Gold.Chemscore.DEInternal.Weighted>
2.3396

> <Gold.Chemscore.Rot.Weighted>
8.5122

> <Gold.Chemscore.Internal.Correction.Weighted>
   9.000000E+99

> <Gold.Protein.RotatedTorsions>
[ 6907 6896 6895 6894 ] final  -58.94 input  -60.11 | X-H torsion
[ 7974 7965 7964 7962 ] final -156.00 input  175.53 | X-H torsion
[ 8008 7997 7996 7995 ] final   -5.68 input   59.86 | X-H torsion
[ 10167 10162 10161 10158 ] final -114.14 input  -65.29 | X-H torsion
[ 10718 10713 10712 10709 ] final  -40.16 input   66.30 | X-H torsion
[ 10763 10752 10751 10750 ] final  -40.32 input  -60.55 | X-H torsion
[ 11005 11000 10999 10996 ] final -133.85 input  -57.11 | X-H torsion

> <Gold.Protein.ActiveResidues>
 VAL166  LYS551  ARG553  GLY616  TRP617  ASP618  TYR619  PRO620  LYS621  CYS622 
 ASP623  PHE694  ASN695  SER759  ASP760  ASP761  ALA762  ILE779  LEU786  VAL792 
 PHE793  MET794  SER795  GLU796  ALA797  LYS798  CYS799  TRP800  GLU811  SER814 

> <Gold.Protein.RotatedAtoms>
  150.7968  134.7034  159.6562 H   0  0  0  0  0  0  0  0  0  0  0  0  # atno 6907 bound_to 6896
  152.4081  134.6168  160.0050 H   0  0  0  0  0  0  0  0  0  0  0  0  # atno 6908 bound_to 6896
  151.6419  133.3288  159.3168 H   0  0  0  0  0  0  0  0  0  0  0  0  # atno 6909 bound_to 6896
  144.7613  140.4171  143.5974 H   0  0  0  0  0  0  0  0  0  0  0  0  # atno 7974 bound_to 7965
  154.6015  140.2452  155.7787 H   0  0  0  0  0  0  0  0  0  0  0  0  # atno 8008 bound_to 7997
  156.2314  140.2965  156.0150 H   0  0  0  0  0  0  0  0  0  0  0  0  # atno 8009 bound_to 7997
  155.2203  140.0400  157.2938 H   0  0  0  0  0  0  0  0  0  0  0  0  # atno 8010 bound_to 7997
  140.1042  143.4585  152.1793 H   0  0  0  0  0  0  0  0  0  0  0  0  # atno 10167 bound_to 10162
  156.2844  130.4221  149.8303 H   0  0  0  0  0  0  0  0  0  0  0  0  # atno 10718 bound_to 10713
  153.9440  135.6758  153.4744 H   0  0  0  0  0  0  0  0  0  0  0  0  # atno 10763 bound_to 10752
  153.0917  135.4871  154.8700 H   0  0  0  0  0  0  0  0  0  0  0  0  # atno 10764 bound_to 10752
  154.7362  135.3149  154.8766 H   0  0  0  0  0  0  0  0  0  0  0  0  # atno 10765 bound_to 10752
  140.9044  134.1649  157.4437 H   0  0  0  0  0  0  0  0  0  0  0  0  # atno 11005 bound_to 11000
  145.6610  139.1581  143.2808 LP  0  0  0  0  0  0  0  0  0  0  0  0  # atno 17320 bound_to 7965
  146.1679  140.6690  142.9247 LP  0  0  0  0  0  0  0  0  0  0  0  0  # atno 17321 bound_to 7965
  139.5654  144.7432  151.4037 LP  0  0  0  0  0  0  0  0  0  0  0  0  # atno 17342 bound_to 10162
  140.6961  143.7746  150.7329 LP  0  0  0  0  0  0  0  0  0  0  0  0  # atno 17343 bound_to 10162
  156.5739  130.8436  151.3364 LP  0  0  0  0  0  0  0  0  0  0  0  0  # atno 17370 bound_to 10713
  157.7324  130.9714  150.1926 LP  0  0  0  0  0  0  0  0  0  0  0  0  # atno 17371 bound_to 10713
  139.8747  134.9911  156.5532 LP  0  0  0  0  0  0  0  0  0  0  0  0  # atno 17394 bound_to 11000
  140.8190  133.8369  155.8878 LP  0  0  0  0  0  0  0  0  0  0  0  0  # atno 17395 bound_to 11000

$$$$
