AV-unprocessed.smi:3320|AV-procd|sdf|12768|dock2
  -GOLD-   2272019103D 1   1.00000     0.00000
 Structure written by MMmdl.
 37 38  0  0  0  0  0  0  0  0  1 V2000
  151.1932  145.6035  159.9460 C   0  0  0  0  0  0  0  0  0  0  0  0
  152.5354  145.0275  159.4723 C   0  0  0  0  0  0  0  0  0  0  0  0
  152.6235  144.8845  157.9460 C   0  0  0  0  0  0  0  0  0  0  0  0
  152.8818  143.7541  160.1781 C   0  0  0  0  0  0  0  0  0  0  0  0
  153.1499  142.6062  159.5481 N   0  0  0  0  0  0  0  0  0  0  0  0
  153.4432  141.5607  160.4285 C   0  0  0  0  0  0  0  0  0  0  0  0
  153.7578  140.1985  159.8896 C   0  0  0  0  0  0  0  0  0  0  0  0
  155.0076  139.5909  160.5477 C   0  0  0  0  0  0  0  0  0  0  0  0
  154.6652  138.7848  161.7138 N   0  0  0  0  0  0  0  0  0  0  0  0
  153.7756  137.7808  161.7210 C   0  0  0  0  0  0  0  0  0  0  0  0
  153.1476  137.4296  160.7213 O   0  0  0  0  0  0  0  0  0  0  0  0
  153.5728  137.0704  163.0658 C   0  0  0  0  0  0  0  0  0  0  0  0
  154.5641  137.4854  164.1678 C   0  0  0  0  0  0  0  0  0  0  0  0
  154.7210  136.0050  164.5275 C   0  0  0  0  0  0  0  0  0  0  0  0
  154.1784  135.6574  163.1380 C   0  0  0  0  0  0  0  0  0  0  0  0
  153.3963  141.9358  161.7479 C   0  0  0  0  0  0  0  0  0  0  0  0
  152.9791  143.6173  161.9306 S   0  0  0  0  0  0  0  0  0  0  0  0
  151.1954  145.7687  161.0238 H   0  0  0  0  0  0  0  0  0  0  0  0
  150.3682  144.9292  159.7139 H   0  0  0  0  0  0  0  0  0  0  0  0
  150.9849  146.5598  159.4656 H   0  0  0  0  0  0  0  0  0  0  0  0
  153.2985  145.7529  159.7572 H   0  0  0  0  0  0  0  0  0  0  0  0
  153.6153  144.5502  157.6402 H   0  0  0  0  0  0  0  0  0  0  0  0
  152.4285  145.8360  157.4506 H   0  0  0  0  0  0  0  0  0  0  0  0
  151.8978  144.1613  157.5728 H   0  0  0  0  0  0  0  0  0  0  0  0
  152.9028  139.5384  160.0412 H   0  0  0  0  0  0  0  0  0  0  0  0
  153.9057  140.2509  158.8103 H   0  0  0  0  0  0  0  0  0  0  0  0
  155.5268  138.9504  159.8344 H   0  0  0  0  0  0  0  0  0  0  0  0
  155.7123  140.3751  160.8301 H   0  0  0  0  0  0  0  0  0  0  0  0
  155.1360  139.0084  162.5786 H   0  0  0  0  0  0  0  0  0  0  0  0
  152.5395  137.0904  163.4182 H   0  0  0  0  0  0  0  0  0  0  0  0
  155.4906  137.9287  163.7981 H   0  0  0  0  0  0  0  0  0  0  0  0
  154.1255  138.0900  164.9622 H   0  0  0  0  0  0  0  0  0  0  0  0
  155.7482  135.6865  164.7077 H   0  0  0  0  0  0  0  0  0  0  0  0
  154.0522  135.6931  165.3312 H   0  0  0  0  0  0  0  0  0  0  0  0
  153.4422  134.8530  163.1384 H   0  0  0  0  0  0  0  0  0  0  0  0
  154.9709  135.4701  162.4110 H   0  0  0  0  0  0  0  0  0  0  0  0
  153.5792  141.3267  162.6206 H   0  0  0  0  0  0  0  0  0  0  0  0
  1  2  1  0  0  0  0
  1 18  1  0  0  0  0
  1 19  1  0  0  0  0
  1 20  1  0  0  0  0
  2  3  1  0  0  0  0
  2  4  1  0  0  0  0
  2 21  1  0  0  0  0
  3 22  1  0  0  0  0
  3 23  1  0  0  0  0
  3 24  1  0  0  0  0
  4 17  1  0  0  0  0
  4  5  2  0  0  0  0
  5  6  1  0  0  0  0
  6  7  1  0  0  0  0
  6 16  2  0  0  0  0
  7  8  1  0  0  0  0
  7 25  1  0  0  0  0
  7 26  1  0  0  0  0
  8  9  1  0  0  0  0
  8 27  1  0  0  0  0
  8 28  1  0  0  0  0
  9 10  1  0  0  0  0
  9 29  1  0  0  0  0
 10 11  2  0  0  0  0
 10 12  1  0  0  0  0
 12 15  1  0  0  0  0
 12 13  1  0  0  0  0
 12 30  1  0  0  0  0
 13 14  1  0  0  0  0
 13 31  1  0  0  0  0
 13 32  1  0  0  0  0
 14 15  1  0  0  0  0
 14 33  1  0  0  0  0
 14 34  1  0  0  0  0
 15 35  1  0  0  0  0
 15 36  1  0  0  0  0
 16 17  1  0  0  0  0
 16 37  1  0  0  0  0
M  END
> <s_m_source_file>
AV-unprocessed.smi

> <i_m_source_file_index>
3320

> <i_lp_mmshare_version>
43012

> <i_f3d_flags>
0

> <s_epik_input>
W0NIM11bQ0hdKFtDSDNdKWMxbmMoW2NIXXMxKVtDSDJdW0NIMl1bTkhdQyg9TylbQ0hdMltDSDJdW0NIMl1bQ0gyXTI=

> <s_epik_cmdline>
J2VwaWtfcHl0aG9uJywgJy1waCcsICc3LjAnLCAnLXRuJywgJzgnLCAnLW1hJywgJzIwMCcsICctbWV0YWxfYmluZGluZycsICctaW1hZScsICc8aW5maWxlLm1hZT4nLCAnLW9tYWUnLCAnPG91dGZpbGUubWFlPic=

> <r_epik_Ionization_Penalty>
0.000842111

> <r_epik_Ionization_Penalty_Charging>
0

> <r_epik_Ionization_Penalty_Neutral>
0.000842111

> <r_epik_State_Penalty>
0.000542609

> <r_epik_Charging_Adjusted_Penalty>
0.000542609

> <i_epik_Tot_Q>
0

> <i_epik_Tot_abs_Q>
0

> <r_epik_Metal_State_Penalty>
-0

> <b_epik_Metal_Only>
0

> <s_lp_Force_Field>
OPLS_2005

> <r_lp_Energy>
-0.445202

> <b_lp_Chiralities_Consistent>
1

> <s_lp_Variant>
AV-unprocessed.smi:3320-1

> <Gold.Version>
5.8.1

> <Gold.Id.Protein>
6NUR|6NUR_protein|mol2

> <Gold.PLP.Fitness>
45.4450

> <Gold.PLP.PLP>
-46.1798

> <Gold.PLP.part.hbond>
0.0000

> <Gold.PLP.part.metal>
0.0000

> <Gold.PLP.part.buried>
-6.3281

> <Gold.PLP.part.nonpolar>
-40.1343

> <Gold.PLP.part.repulsive>
0.0000

> <Gold.PLP.ligand.clash>
0.0000

> <Gold.PLP.ligand.torsion>
0.6131

> <Gold.PLP.Chemscore.Hbond>
0.0000

> <Gold.PLP.Chemscore.CHOScore>
0.0000

> <Gold.PLP.Chemscore.Metal>
0.0000

> <Gold.PLP.Chemscore.Internal.Correction>
0.4914

> <Gold.Rescore>
     Score         DG    S(hbond)    S(metal)    S(lipo)     H(rot)  DE(clash)    DE(int)     intcor
     15.31     -17.00       0.00        0.00     130.98       1.49       0.08       1.61       ----

> <Gold.Chemscore.Fitness>
15.3122

> <Gold.Chemscore.DG>
-16.9983

> <Gold.Chemscore.ZeroCoef>
-5.4800

> <Gold.Chemscore.Hbond>
0.0000

> <Gold.Chemscore.Metal>
0.0000

> <Gold.Chemscore.Lipo>
130.9826

> <Gold.Chemscore.Internal_Hbond>
0.0000

> <Gold.Chemscore.DEClash>
0.0751

> <Gold.Chemscore.DEInternal>
1.6110

> <Gold.Chemscore.Rot>
1.4870

> <Gold.Chemscore.Internal.Correction>
   9.000000E+99

> <Gold.Chemscore.Hbond.Weighted>
-0.0000

> <Gold.Chemscore.Metal.Weighted>
-0.0000

> <Gold.Chemscore.Lipo.Weighted>
-15.3250

> <Gold.Chemscore.Internal_Hbond.Weighted>
0.0000

> <Gold.Chemscore.DEClash.Weighted>
0.0751

> <Gold.Chemscore.DEInternal.Weighted>
1.6110

> <Gold.Chemscore.Rot.Weighted>
3.8067

> <Gold.Chemscore.Internal.Correction.Weighted>
   9.000000E+99

> <Gold.Protein.RotatedTorsions>
[ 6907 6896 6895 6894 ] final  -53.20 input  -60.11 | X-H torsion
[ 7974 7965 7964 7962 ] final   64.15 input  175.53 | X-H torsion
[ 8008 7997 7996 7995 ] final -102.70 input   59.86 | X-H torsion
[ 10167 10162 10161 10158 ] final   46.92 input  -65.29 | X-H torsion
[ 10718 10713 10712 10709 ] final -101.73 input   66.30 | X-H torsion
[ 10763 10752 10751 10750 ] final  -85.48 input  -60.55 | X-H torsion
[ 11005 11000 10999 10996 ] final   16.25 input  -57.11 | X-H torsion

> <Gold.Protein.ActiveResidues>
 VAL166  LYS551  ARG553  GLY616  TRP617  ASP618  TYR619  PRO620  LYS621  CYS622 
 ASP623  PHE694  ASN695  SER759  ASP760  ASP761  ALA762  ILE779  LEU786  VAL792 
 PHE793  MET794  SER795  GLU796  ALA797  LYS798  CYS799  TRP800  GLU811  SER814 

> <Gold.Protein.RotatedAtoms>
  150.8448  134.7753  159.6961 H   0  0  0  0  0  0  0  0  0  0  0  0  # atno 6907 bound_to 6896
  152.4527  134.5355  159.9833 H   0  0  0  0  0  0  0  0  0  0  0  0  # atno 6908 bound_to 6896
  151.5487  133.3383  159.2985 H   0  0  0  0  0  0  0  0  0  0  0  0  # atno 6909 bound_to 6896
  145.8535  139.3269  143.0861 H   0  0  0  0  0  0  0  0  0  0  0  0  # atno 7974 bound_to 7965
  154.8603  140.0427  157.1661 H   0  0  0  0  0  0  0  0  0  0  0  0  # atno 8008 bound_to 7997
  154.8847  140.2977  155.5384 H   0  0  0  0  0  0  0  0  0  0  0  0  # atno 8009 bound_to 7997
  156.2998  140.2405  156.3854 H   0  0  0  0  0  0  0  0  0  0  0  0  # atno 8010 bound_to 7997
  140.3089  144.2844  150.6203 H   0  0  0  0  0  0  0  0  0  0  0  0  # atno 10167 bound_to 10162
  156.0204  130.5387  150.7006 H   0  0  0  0  0  0  0  0  0  0  0  0  # atno 10718 bound_to 10713
  154.6115  135.5483  153.7478 H   0  0  0  0  0  0  0  0  0  0  0  0  # atno 10763 bound_to 10752
  153.0197  135.6390  154.1571 H   0  0  0  0  0  0  0  0  0  0  0  0  # atno 10764 bound_to 10752
  154.1509  135.2903  155.3115 H   0  0  0  0  0  0  0  0  0  0  0  0  # atno 10765 bound_to 10752
  140.4492  134.1242  155.7700 H   0  0  0  0  0  0  0  0  0  0  0  0  # atno 11005 bound_to 11000
  145.9330  140.9035  143.0346 LP  0  0  0  0  0  0  0  0  0  0  0  0  # atno 17320 bound_to 7965
  144.6728  140.1444  143.7434 LP  0  0  0  0  0  0  0  0  0  0  0  0  # atno 17321 bound_to 7965
  140.5585  143.2195  151.7806 LP  0  0  0  0  0  0  0  0  0  0  0  0  # atno 17342 bound_to 10162
  139.4898  144.4381  151.9796 LP  0  0  0  0  0  0  0  0  0  0  0  0  # atno 17343 bound_to 10162
  157.4667  131.0889  151.0687 LP  0  0  0  0  0  0  0  0  0  0  0  0  # atno 17370 bound_to 10713
  157.1159  130.6041  149.5493 LP  0  0  0  0  0  0  0  0  0  0  0  0  # atno 17371 bound_to 10713
  141.1671  133.8681  157.1681 LP  0  0  0  0  0  0  0  0  0  0  0  0  # atno 17394 bound_to 11000
  140.0018  135.0025  157.0206 LP  0  0  0  0  0  0  0  0  0  0  0  0  # atno 17395 bound_to 11000

$$$$
