AV-unprocessed.smi:1440|AV-procd|sdf|5873|dock7
  -GOLD-   22720 5553D 1   1.00000     0.00000
 Structure written by MMmdl.
 41 42  0  0  0  0  0  0  0  0  1 V2000
  150.2838  141.7262  157.7876 C   0  0  0  0  0  0  0  0  0  0  0  0
  149.4471  141.0328  156.7033 C   0  0  2  0  0  0  0  0  0  0  0  0
  149.4602  139.5020  156.8718 C   0  0  0  0  0  0  0  0  0  0  0  0
  148.6182  138.8073  155.7899 C   0  0  0  0  0  0  0  0  0  0  0  0
  149.0837  139.1969  154.3713 C   0  0  1  0  0  0  0  0  0  0  0  0
  148.2177  138.5992  153.3590 N   0  0  0  0  0  0  0  0  0  0  0  0
  146.8844  138.7341  153.2964 C   0  0  0  0  0  0  0  0  0  0  0  0
  146.2357  139.4003  154.1047 O   0  0  0  0  0  0  0  0  0  0  0  0
  146.1967  138.0140  152.1292 C   0  0  0  0  0  0  0  0  0  0  0  0
  146.4575  136.5769  152.1030 N   0  0  0  0  0  0  0  0  0  0  0  0
  145.6313  135.6461  151.5993 C   0  0  0  0  0  0  0  0  0  0  0  0
  144.5327  135.9063  151.1096 O   0  0  0  0  0  0  0  0  0  0  0  0
  146.1223  134.1989  151.6507 C   0  0  0  0  0  0  0  0  0  0  0  0
  145.2499  133.3203  150.8935 N   0  0  0  0  0  0  0  0  0  0  0  0
  145.5353  132.2745  150.1153 C   0  0  0  0  0  0  0  0  0  0  0  0
  144.4686  131.7048  149.5719 N   0  0  0  0  0  0  0  0  0  0  0  0
  143.4915  132.5057  150.0929 C   0  0  0  0  0  0  0  0  0  0  0  0
  143.9060  133.4891  150.8918 N   0  0  0  0  0  0  0  0  0  0  0  0
  149.0862  140.7275  154.2023 C   0  0  0  0  0  0  0  0  0  0  0  0
  149.9248  141.4174  155.2903 C   0  0  0  0  0  0  0  0  0  0  0  0
  151.3306  141.4264  157.7331 H   0  0  0  0  0  0  0  0  0  0  0  0
  149.9177  141.4786  158.7844 H   0  0  0  0  0  0  0  0  0  0  0  0
  150.2418  142.8106  157.6814 H   0  0  0  0  0  0  0  0  0  0  0  0
  148.4171  141.3747  156.8157 H   0  0  0  0  0  0  0  0  0  0  0  0
  150.4862  139.1340  156.8248 H   0  0  0  0  0  0  0  0  0  0  0  0
  149.0809  139.2314  157.8577 H   0  0  0  0  0  0  0  0  0  0  0  0
  148.6771  137.7267  155.9247 H   0  0  0  0  0  0  0  0  0  0  0  0
  147.5691  139.0766  155.9214 H   0  0  0  0  0  0  0  0  0  0  0  0
  150.1032  138.8358  154.2216 H   0  0  0  0  0  0  0  0  0  0  0  0
  148.6685  138.0365  152.6521 H   0  0  0  0  0  0  0  0  0  0  0  0
  145.1199  138.1618  152.2152 H   0  0  0  0  0  0  0  0  0  0  0  0
  146.5005  138.4708  151.1856 H   0  0  0  0  0  0  0  0  0  0  0  0
  147.3411  136.2687  152.4825 H   0  0  0  0  0  0  0  0  0  0  0  0
  147.1297  134.1322  151.2373 H   0  0  0  0  0  0  0  0  0  0  0  0
  146.1763  133.8572  152.6858 H   0  0  0  0  0  0  0  0  0  0  0  0
  146.5428  131.9256  149.9417 H   0  0  0  0  0  0  0  0  0  0  0  0
  142.4433  132.3598  149.8768 H   0  0  0  0  0  0  0  0  0  0  0  0
  149.4736  140.9942  153.2182 H   0  0  0  0  0  0  0  0  0  0  0  0
  148.0637  141.1058  154.2443 H   0  0  0  0  0  0  0  0  0  0  0  0
  149.8707  142.4988  155.1605 H   0  0  0  0  0  0  0  0  0  0  0  0
  150.9738  141.1441  155.1680 H   0  0  0  0  0  0  0  0  0  0  0  0
  1  2  1  0  0  0  0
  1 21  1  0  0  0  0
  1 22  1  0  0  0  0
  1 23  1  0  0  0  0
  2 20  1  0  0  0  0
  2  3  1  0  0  0  0
  2 24  1  0  0  0  0
  3  4  1  0  0  0  0
  3 25  1  0  0  0  0
  3 26  1  0  0  0  0
  4  5  1  0  0  0  0
  4 27  1  0  0  0  0
  4 28  1  0  0  0  0
  5  6  1  0  0  0  0
  5 19  1  0  0  0  0
  5 29  1  0  0  0  0
  6  7  1  0  0  0  0
  6 30  1  0  0  0  0
  7  8  2  0  0  0  0
  7  9  1  0  0  0  0
  9 10  1  0  0  0  0
  9 31  1  0  0  0  0
  9 32  1  0  0  0  0
 10 11  1  0  0  0  0
 10 33  1  0  0  0  0
 11 12  2  0  0  0  0
 11 13  1  0  0  0  0
 13 14  1  0  0  0  0
 13 34  1  0  0  0  0
 13 35  1  0  0  0  0
 14 18  1  0  0  0  0
 14 15  1  0  0  0  0
 15 16  2  0  0  0  0
 15 36  1  0  0  0  0
 16 17  1  0  0  0  0
 17 18  2  0  0  0  0
 17 37  1  0  0  0  0
 19 20  1  0  0  0  0
 19 38  1  0  0  0  0
 19 39  1  0  0  0  0
 20 40  1  0  0  0  0
 20 41  1  0  0  0  0
M  END
> <s_m_source_file>
AV-unprocessed.smi

> <i_m_source_file_index>
1440

> <i_lp_mmshare_version>
43012

> <i_f3d_flags>
0

> <s_epik_input>
W0NIM11bQ0BASF0xW0NIMl1bQ0gyXVtDQEhdKFtDSDJdW0NIMl0xKVtOSF1DKD1PKVtDSDJdW05IXUMoPU8pW0NIMl1uMltjSF1uW2NIXW4y

> <s_epik_cmdline>
J2VwaWtfcHl0aG9uJywgJy1waCcsICc3LjAnLCAnLXRuJywgJzgnLCAnLW1hJywgJzIwMCcsICctbWV0YWxfYmluZGluZycsICctaW1hZScsICc8aW5maWxlLm1hZT4nLCAnLW9tYWUnLCAnPG91dGZpbGUubWFlPic=

> <r_lp_tautomer_probability>
1

> <r_epik_Ionization_Penalty>
7.34071e-06

> <r_epik_Ionization_Penalty_Charging>
0

> <r_epik_Ionization_Penalty_Neutral>
7.34071e-06

> <r_epik_State_Penalty>
-0

> <r_epik_Charging_Adjusted_Penalty>
0

> <i_epik_Tot_Q>
0

> <i_epik_Tot_abs_Q>
0

> <r_epik_Metal_State_Penalty>
-0

> <b_epik_Metal_Only>
0

> <s_lp_Force_Field>
OPLS_2005

> <r_lp_Energy>
7.17082

> <b_lp_Chiralities_Consistent>
1

> <s_lp_Variant>
AV-unprocessed.smi:1440-1

> <Gold.Version>
5.8.1

> <Gold.Id.Protein>
6NUR|6NUR_protein|mol2

> <Gold.PLP.Fitness>
43.5398

> <Gold.PLP.PLP>
-32.1188

> <Gold.PLP.part.hbond>
-3.8910

> <Gold.PLP.part.metal>
0.0000

> <Gold.PLP.part.buried>
-4.7924

> <Gold.PLP.part.nonpolar>
-26.5928

> <Gold.PLP.part.repulsive>
1.4163

> <Gold.PLP.ligand.clash>
0.0000

> <Gold.PLP.ligand.torsion>
0.6199

> <Gold.PLP.Chemscore.Hbond>
1.9444

> <Gold.PLP.Chemscore.CHOScore>
2.2709

> <Gold.PLP.Chemscore.Metal>
0.0000

> <Gold.Chemscore.Hbonds>
donor molecule, donor type, donor heavy atom, donor atom, acceptor molecule, acceptor atom, score
      L1  H     6    30       P1  7948  0.99
      L1  H    10    33       P1  7948  0.66
      P1  H 10785 10796       L1    16  0.33
      L1  C    15    36       P1 10747  0.66
      L1  C    17    37       P1 10186  0.77
      L1  C    17    37       P1 10952  0.84

> <Gold.PLP.Chemscore.Internal.Correction>
0.0150

> <Gold.Rescore>
     Score         DG    S(hbond)    S(metal)    S(lipo)     H(rot)  DE(clash)    DE(int)     intcor
      9.16     -12.59       2.66        0.00      47.55       2.86       0.31       3.11       ----

> <Gold.Chemscore.Fitness>
9.1649

> <Gold.Chemscore.DG>
-12.5898

> <Gold.Chemscore.ZeroCoef>
-5.4800

> <Gold.Chemscore.Hbond>
2.6568

> <Gold.Chemscore.Metal>
0.0000

> <Gold.Chemscore.Lipo>
47.5465

> <Gold.Chemscore.Internal_Hbond>
0.0000

> <Gold.Chemscore.DEClash>
0.3139

> <Gold.Chemscore.DEInternal>
3.1109

> <Gold.Chemscore.Rot>
2.8621

> <Gold.Chemscore.Internal.Correction>
   9.000000E+99

> <Gold.Chemscore.Hbonds>
donor molecule, donor type, donor heavy atom, donor atom, acceptor molecule, acceptor atom, score
      L1  H     6    30       P1  7948  0.92
      L1  H    10    33       P1  7948  0.66
      P1  H 10785 10796       L1    16  0.09

> <Gold.Chemscore.Hbond.Weighted>
-8.8738

> <Gold.Chemscore.Metal.Weighted>
-0.0000

> <Gold.Chemscore.Lipo.Weighted>
-5.5629

> <Gold.Chemscore.Internal_Hbond.Weighted>
0.0000

> <Gold.Chemscore.DEClash.Weighted>
0.3139

> <Gold.Chemscore.DEInternal.Weighted>
3.1109

> <Gold.Chemscore.Rot.Weighted>
7.3270

> <Gold.Chemscore.Internal.Correction.Weighted>
   9.000000E+99

> <Gold.Protein.RotatedTorsions>
[ 6907 6896 6895 6894 ] final  -83.78 input  -60.11 | X-H torsion
[ 7974 7965 7964 7962 ] final  -42.32 input  175.53 | X-H torsion
[ 8008 7997 7996 7995 ] final  -90.57 input   59.86 | X-H torsion
[ 10167 10162 10161 10158 ] final  158.13 input  -65.29 | X-H torsion
[ 10718 10713 10712 10709 ] final   15.54 input   66.30 | X-H torsion
[ 10763 10752 10751 10750 ] final  151.36 input  -60.55 | X-H torsion
[ 11005 11000 10999 10996 ] final  141.73 input  -57.11 | X-H torsion

> <Gold.Protein.ActiveResidues>
 VAL166  LYS551  ARG553  GLY616  TRP617  ASP618  TYR619  PRO620  LYS621  CYS622 
 ASP623  PHE694  ASN695  SER759  ASP760  ASP761  ALA762  ILE779  LEU786  VAL792 
 PHE793  MET794  SER795  GLU796  ALA797  LYS798  CYS799  TRP800  GLU811  SER814 

> <Gold.Protein.RotatedAtoms>
  150.6882  134.3459  159.4887 H   0  0  0  0  0  0  0  0  0  0  0  0  # atno 6907 bound_to 6896
  152.1307  134.9134  160.0568 H   0  0  0  0  0  0  0  0  0  0  0  0  # atno 6908 bound_to 6896
  152.0305  133.3901  159.4332 H   0  0  0  0  0  0  0  0  0  0  0  0  # atno 6909 bound_to 6896
  146.0127  140.6945  142.9216 H   0  0  0  0  0  0  0  0  0  0  0  0  # atno 7974 bound_to 7965
  154.7001  140.0529  157.0450 H   0  0  0  0  0  0  0  0  0  0  0  0  # atno 8008 bound_to 7997
  155.0696  140.3198  155.4616 H   0  0  0  0  0  0  0  0  0  0  0  0  # atno 8009 bound_to 7997
  156.2757  140.2084  156.5823 H   0  0  0  0  0  0  0  0  0  0  0  0  # atno 8010 bound_to 7997
  139.4825  144.4853  151.8386 H   0  0  0  0  0  0  0  0  0  0  0  0  # atno 10167 bound_to 10162
  157.0550  130.6285  149.5775 H   0  0  0  0  0  0  0  0  0  0  0  0  # atno 10718 bound_to 10713
  154.1025  135.2844  155.3248 H   0  0  0  0  0  0  0  0  0  0  0  0  # atno 10763 bound_to 10752
  154.6546  135.5357  153.7946 H   0  0  0  0  0  0  0  0  0  0  0  0  # atno 10764 bound_to 10752
  153.0374  135.6518  154.1188 H   0  0  0  0  0  0  0  0  0  0  0  0  # atno 10765 bound_to 10752
  140.0423  134.9298  157.0866 H   0  0  0  0  0  0  0  0  0  0  0  0  # atno 11005 bound_to 11000
  144.6959  140.3427  143.7196 LP  0  0  0  0  0  0  0  0  0  0  0  0  # atno 17320 bound_to 7965
  145.7317  139.1738  143.2426 LP  0  0  0  0  0  0  0  0  0  0  0  0  # atno 17321 bound_to 7965
  140.4332  144.2087  150.5888 LP  0  0  0  0  0  0  0  0  0  0  0  0  # atno 17342 bound_to 10162
  140.4758  143.2396  151.9025 LP  0  0  0  0  0  0  0  0  0  0  0  0  # atno 17343 bound_to 10162
  155.9996  130.5072  150.7612 LP  0  0  0  0  0  0  0  0  0  0  0  0  # atno 17370 bound_to 10713
  157.5000  131.0918  151.0325 LP  0  0  0  0  0  0  0  0  0  0  0  0  # atno 17371 bound_to 10713
  140.4049  134.2043  155.7163 LP  0  0  0  0  0  0  0  0  0  0  0  0  # atno 17394 bound_to 11000
  141.1889  133.8249  157.0976 LP  0  0  0  0  0  0  0  0  0  0  0  0  # atno 17395 bound_to 11000

$$$$
