AV-unprocessed.smi:1783|AV-procd|sdf|7193|dock6
  -GOLD-   22720 8433D 1   1.00000     0.00000
 Structure written by MMmdl.
 30 31  0  0  0  0  0  0  0  0  1 V2000
  152.9125  140.0199  155.3775 O   0  0  0  0  0  0  0  0  0  0  0  0
  151.8273  139.6993  155.8615 C   0  0  0  0  0  0  0  0  0  0  0  0
  151.3697  140.1045  157.0634 N   0  0  0  0  0  0  0  0  0  0  0  0
  151.9681  140.9548  158.0079 C   0  0  0  0  0  0  0  0  0  0  0  0
  151.4840  142.1695  158.3771 C   0  0  0  0  0  0  0  0  0  0  0  0
  152.1488  142.9948  159.3717 C   0  0  0  0  0  0  0  0  0  0  0  0
  151.6459  144.3888  159.7138 C   0  0  0  0  0  0  0  0  0  0  0  0
  150.3197  144.3731  159.8407 F   0  0  0  0  0  0  0  0  0  0  0  0
  152.1682  144.8239  160.8614 F   0  0  0  0  0  0  0  0  0  0  0  0
  151.9604  145.2595  158.7544 F   0  0  0  0  0  0  0  0  0  0  0  0
  153.2775  142.4960  159.9085 C   0  0  0  0  0  0  0  0  0  0  0  0
  153.7688  141.2383  159.5516 N   0  0  0  0  0  0  0  0  0  0  0  0
  153.1913  140.4285  158.6359 C   0  0  0  0  0  0  0  0  0  0  0  0
  153.6880  139.3337  158.3739 O   0  0  0  0  0  0  0  0  0  0  0  0
  150.8875  138.7635  155.0746 C   0  0  1  0  0  0  0  0  0  0  0  0
  149.6249  138.3458  155.8356 C   0  0  0  0  0  0  0  0  0  0  0  0
  148.6863  139.5254  155.6411 C   0  0  0  0  0  0  0  0  0  0  0  0
  149.1871  140.1861  154.3523 C   0  0  0  0  0  0  0  0  0  0  0  0
  150.3346  139.4405  153.9487 O   0  0  0  0  0  0  0  0  0  0  0  0
  154.6121  140.9272  160.0120 H   0  0  0  0  0  0  0  0  0  0  0  0
  150.4894  139.7045  157.3568 H   0  0  0  0  0  0  0  0  0  0  0  0
  150.5696  142.5542  157.9564 H   0  0  0  0  0  0  0  0  0  0  0  0
  153.8865  143.0138  160.6348 H   0  0  0  0  0  0  0  0  0  0  0  0
  151.4595  137.8945  154.7483 H   0  0  0  0  0  0  0  0  0  0  0  0
  149.2002  137.4570  155.3674 H   0  0  0  0  0  0  0  0  0  0  0  0
  149.7933  138.1095  156.8869 H   0  0  0  0  0  0  0  0  0  0  0  0
  147.6446  139.2107  155.5719 H   0  0  0  0  0  0  0  0  0  0  0  0
  148.7714  140.2227  156.4755 H   0  0  0  0  0  0  0  0  0  0  0  0
  148.4350  140.1694  153.5630 H   0  0  0  0  0  0  0  0  0  0  0  0
  149.4649  141.2254  154.5326 H   0  0  0  0  0  0  0  0  0  0  0  0
  1  2  2  0  0  0  0
  2  3  1  0  0  0  0
  2 15  1  0  0  0  0
  3  4  1  0  0  0  0
  3 21  1  0  0  0  0
  4 13  1  0  0  0  0
  4  5  2  0  0  0  0
  5  6  1  0  0  0  0
  5 22  1  0  0  0  0
  6  7  1  0  0  0  0
  6 11  2  0  0  0  0
  7  8  1  0  0  0  0
  7  9  1  0  0  0  0
  7 10  1  0  0  0  0
 11 12  1  0  0  0  0
 11 23  1  0  0  0  0
 12 20  1  0  0  0  0
 12 13  1  0  0  0  0
 13 14  2  0  0  0  0
 15 19  1  0  0  0  0
 15 16  1  0  0  0  0
 15 24  1  0  0  0  0
 16 17  1  0  0  0  0
 16 25  1  0  0  0  0
 16 26  1  0  0  0  0
 17 18  1  0  0  0  0
 17 27  1  0  0  0  0
 17 28  1  0  0  0  0
 18 19  1  0  0  0  0
 18 29  1  0  0  0  0
 18 30  1  0  0  0  0
M  END
> <s_m_source_file>
AV-unprocessed.smi

> <i_m_source_file_index>
1783

> <i_lp_mmshare_version>
43012

> <i_f3d_flags>
0

> <s_epik_input>
TzFbQ0gyXVtDSDJdW0NIMl1bQ0BIXTFDKD1PKVtOSF1jMltjSF1jKEMoRikoRilGKVtjSF1bbkhdYzI9Tw==

> <s_epik_cmdline>
J2VwaWtfcHl0aG9uJywgJy1waCcsICc3LjAnLCAnLXRuJywgJzgnLCAnLW1hJywgJzIwMCcsICctbWV0YWxfYmluZGluZycsICctaW1hZScsICc8aW5maWxlLm1hZT4nLCAnLW9tYWUnLCAnPG91dGZpbGUubWFlPic=

> <r_lp_tautomer_probability>
0.999

> <r_epik_Ionization_Penalty>
0.00885957

> <r_epik_Ionization_Penalty_Charging>
0.00885947

> <r_epik_Ionization_Penalty_Neutral>
9.33956e-08

> <r_epik_State_Penalty>
0.00669851

> <r_epik_Charging_Adjusted_Penalty>
0.015558

> <i_epik_Tot_Q>
0

> <i_epik_Tot_abs_Q>
0

> <r_epik_Metal_State_Penalty>
0.320804

> <b_epik_Metal_Only>
0

> <s_lp_Force_Field>
OPLS_2005

> <r_lp_Energy>
32.0123

> <b_lp_Chiralities_Consistent>
1

> <s_lp_Variant>
AV-unprocessed.smi:1783-2

> <Gold.Version>
5.8.1

> <Gold.Id.Protein>
6NUR|6NUR_protein|mol2

> <Gold.PLP.Fitness>
40.2546

> <Gold.PLP.PLP>
-35.9416

> <Gold.PLP.part.hbond>
-3.8546

> <Gold.PLP.part.metal>
0.0000

> <Gold.PLP.part.buried>
-2.7761

> <Gold.PLP.part.nonpolar>
-29.3473

> <Gold.PLP.part.repulsive>
1.8683

> <Gold.PLP.ligand.clash>
0.0300

> <Gold.PLP.ligand.torsion>
1.4845

> <Gold.PLP.Chemscore.Hbond>
2.4144

> <Gold.PLP.Chemscore.CHOScore>
0.0000

> <Gold.PLP.Chemscore.Metal>
0.0000

> <Gold.Chemscore.Hbonds>
donor molecule, donor type, donor heavy atom, donor atom, acceptor molecule, acceptor atom, score
      P1  H  7989  7998       L1    19  1.00
      P1  H  7997  8008       L1    14  0.70
      P1  H  7997  8009       L1     1  0.83

> <Gold.PLP.Chemscore.Internal.Correction>
0.0688

> <Gold.Rescore>
     Score         DG    S(hbond)    S(metal)    S(lipo)     H(rot)  DE(clash)    DE(int)     intcor
     13.63     -15.21       1.43        0.00      64.26       1.00       0.76       0.83       ----

> <Gold.Chemscore.Fitness>
13.6257

> <Gold.Chemscore.DG>
-15.2121

> <Gold.Chemscore.ZeroCoef>
-5.4800

> <Gold.Chemscore.Hbond>
1.4292

> <Gold.Chemscore.Metal>
0.0000

> <Gold.Chemscore.Lipo>
64.2604

> <Gold.Chemscore.Internal_Hbond>
0.0000

> <Gold.Chemscore.DEClash>
0.7606

> <Gold.Chemscore.DEInternal>
0.8258

> <Gold.Chemscore.Rot>
1.0000

> <Gold.Chemscore.Internal.Correction>
   9.000000E+99

> <Gold.Chemscore.Hbonds>
donor molecule, donor type, donor heavy atom, donor atom, acceptor molecule, acceptor atom, score
      P1  H  7989  7998       L1    19  0.21
      P1  H  7997  8008       L1    14  0.09
      P1  H  7997  8009       L1     1  0.83

> <Gold.Chemscore.Hbond.Weighted>
-4.7736

> <Gold.Chemscore.Metal.Weighted>
-0.0000

> <Gold.Chemscore.Lipo.Weighted>
-7.5185

> <Gold.Chemscore.Internal_Hbond.Weighted>
0.0000

> <Gold.Chemscore.DEClash.Weighted>
0.7606

> <Gold.Chemscore.DEInternal.Weighted>
0.8258

> <Gold.Chemscore.Rot.Weighted>
2.5600

> <Gold.Chemscore.Internal.Correction.Weighted>
   9.000000E+99

> <Gold.Protein.RotatedTorsions>
[ 6907 6896 6895 6894 ] final -147.78 input  -60.11 | X-H torsion
[ 7974 7965 7964 7962 ] final  -45.26 input  175.53 | X-H torsion
[ 8008 7997 7996 7995 ] final -118.01 input   59.86 | X-H torsion
[ 10167 10162 10161 10158 ] final  -78.81 input  -65.29 | X-H torsion
[ 10718 10713 10712 10709 ] final   41.72 input   66.30 | X-H torsion
[ 10763 10752 10751 10750 ] final   62.45 input  -60.55 | X-H torsion
[ 11005 11000 10999 10996 ] final  116.04 input  -57.11 | X-H torsion

> <Gold.Protein.ActiveResidues>
 VAL166  LYS551  ARG553  GLY616  TRP617  ASP618  TYR619  PRO620  LYS621  CYS622 
 ASP623  PHE694  ASN695  SER759  ASP760  ASP761  ALA762  ILE779  LEU786  VAL792 
 PHE793  MET794  SER795  GLU796  ALA797  LYS798  CYS799  TRP800  GLU811  SER814 

> <Gold.Protein.RotatedAtoms>
  151.1605  133.4848  159.2594 H   0  0  0  0  0  0  0  0  0  0  0  0  # atno 6907 bound_to 6896
  151.1459  135.0203  159.8656 H   0  0  0  0  0  0  0  0  0  0  0  0  # atno 6908 bound_to 6896
  152.5463  134.1494  159.8565 H   0  0  0  0  0  0  0  0  0  0  0  0  # atno 6909 bound_to 6896
  145.9838  140.7254  142.9350 H   0  0  0  0  0  0  0  0  0  0  0  0  # atno 7974 bound_to 7965
  155.0929  140.0395  157.2674 H   0  0  0  0  0  0  0  0  0  0  0  0  # atno 8008 bound_to 7997
  154.6818  140.2634  155.6876 H   0  0  0  0  0  0  0  0  0  0  0  0  # atno 8009 bound_to 7997
  156.2697  140.2777  156.1365 H   0  0  0  0  0  0  0  0  0  0  0  0  # atno 8010 bound_to 7997
  140.4649  143.2443  151.8292 H   0  0  0  0  0  0  0  0  0  0  0  0  # atno 10167 bound_to 10162
  157.3967  130.7837  149.7314 H   0  0  0  0  0  0  0  0  0  0  0  0  # atno 10718 bound_to 10713
  152.9983  135.5464  154.6195 H   0  0  0  0  0  0  0  0  0  0  0  0  # atno 10763 bound_to 10752
  154.5497  135.2825  155.1022 H   0  0  0  0  0  0  0  0  0  0  0  0  # atno 10764 bound_to 10752
  154.2266  135.6441  153.5214 H   0  0  0  0  0  0  0  0  0  0  0  0  # atno 10765 bound_to 10752
  139.9028  134.9592  156.7137 H   0  0  0  0  0  0  0  0  0  0  0  0  # atno 11005 bound_to 11000
  144.6869  140.2954  143.7271 LP  0  0  0  0  0  0  0  0  0  0  0  0  # atno 17320 bound_to 7965
  145.7730  139.1864  143.2201 LP  0  0  0  0  0  0  0  0  0  0  0  0  # atno 17321 bound_to 7965
  139.4811  144.4962  151.9120 LP  0  0  0  0  0  0  0  0  0  0  0  0  # atno 17342 bound_to 10162
  140.4048  144.2446  150.5891 LP  0  0  0  0  0  0  0  0  0  0  0  0  # atno 17343 bound_to 10162
  155.9812  130.4021  150.3483 LP  0  0  0  0  0  0  0  0  0  0  0  0  # atno 17370 bound_to 10713
  157.1606  131.0344  151.2842 LP  0  0  0  0  0  0  0  0  0  0  0  0  # atno 17371 bound_to 10713
  140.7056  133.9268  155.8051 LP  0  0  0  0  0  0  0  0  0  0  0  0  # atno 17394 bound_to 11000
  141.0339  134.0717  157.3982 LP  0  0  0  0  0  0  0  0  0  0  0  0  # atno 17395 bound_to 11000

$$$$
