AV-unprocessed.smi:2007|AV-procd|sdf|8135|dock9
  -GOLD-   2272010373D 1   1.00000     0.00000
 Structure written by MMmdl.
 37 38  0  0  0  0  0  0  0  0  2 V2000
  146.1378  139.5346  153.3603 C   0  0  0  0  0  0  0  0  0  0  0  0
  147.0864  138.5151  154.0049 C   0  0  2  0  0  0  0  0  0  0  0  0
  148.5141  139.0936  154.1455 C   0  0  0  0  0  0  0  0  0  0  0  0
  149.5651  138.0479  154.2325 N   0  3  0  0  0  0  0  0  0  0  0  0
  150.9246  138.6057  154.4224 C   0  0  0  0  0  0  0  0  0  0  0  0
  151.9690  137.4760  154.4319 C   0  0  0  0  0  0  0  0  0  0  0  0
  151.6456  136.5318  155.4453 O   0  0  0  0  0  0  0  0  0  0  0  0
  150.3762  135.9288  155.2256 C   0  0  0  0  0  0  0  0  0  0  0  0
  149.2837  137.0101  155.2541 C   0  0  0  0  0  0  0  0  0  0  0  0
  147.0783  137.2885  153.2058 N   0  0  0  0  0  0  0  0  0  0  0  0
  145.9945  136.5702  152.8750 C   0  0  0  0  0  0  0  0  0  0  0  0
  144.8552  136.8525  153.2469 O   0  0  0  0  0  0  0  0  0  0  0  0
  146.3220  135.5168  152.1069 N   0  0  0  0  0  0  0  0  0  0  0  0
  145.4657  134.5068  151.5947 C   0  0  0  0  0  0  0  0  0  0  0  0
  144.1292  134.5728  151.6099 N   0  0  0  0  0  0  0  0  0  0  0  0
  143.5419  133.4381  151.0444 C   0  0  0  0  0  0  0  0  0  0  0  0
  144.4527  132.5095  150.6055 C   0  0  0  0  0  0  0  0  0  0  0  0
  146.0941  133.0280  150.8827 S   0  0  0  0  0  0  0  0  0  0  0  0
  146.0852  140.4490  153.9519 H   0  0  0  0  0  0  0  0  0  0  0  0
  145.1253  139.1364  153.2828 H   0  0  0  0  0  0  0  0  0  0  0  0
  146.4667  139.8071  152.3567 H   0  0  0  0  0  0  0  0  0  0  0  0
  146.6853  138.2967  154.9954 H   0  0  0  0  0  0  0  0  0  0  0  0
  148.7100  139.7250  153.2772 H   0  0  0  0  0  0  0  0  0  0  0  0
  148.5809  139.7486  155.0157 H   0  0  0  0  0  0  0  0  0  0  0  0
  151.1537  139.3069  153.6190 H   0  0  0  0  0  0  0  0  0  0  0  0
  150.9645  139.1633  155.3594 H   0  0  0  0  0  0  0  0  0  0  0  0
  152.0170  136.9819  153.4601 H   0  0  0  0  0  0  0  0  0  0  0  0
  152.9604  137.8828  154.6317 H   0  0  0  0  0  0  0  0  0  0  0  0
  150.3716  135.3945  154.2739 H   0  0  0  0  0  0  0  0  0  0  0  0
  150.1948  135.1905  156.0065 H   0  0  0  0  0  0  0  0  0  0  0  0
  149.2378  137.4688  156.2430 H   0  0  0  0  0  0  0  0  0  0  0  0
  148.3136  136.5485  155.0715 H   0  0  0  0  0  0  0  0  0  0  0  0
  147.9721  136.9780  152.8530 H   0  0  0  0  0  0  0  0  0  0  0  0
  147.2975  135.4199  151.8654 H   0  0  0  0  0  0  0  0  0  0  0  0
  142.4649  133.3734  150.9957 H   0  0  0  0  0  0  0  0  0  0  0  0
  144.2584  131.5560  150.1369 H   0  0  0  0  0  0  0  0  0  0  0  0
  149.5747  137.5797  153.3373 H   0  0  0  0  0  0  0  0  0  0  0  0
  1  2  1  0  0  0  0
  1 19  1  0  0  0  0
  1 20  1  0  0  0  0
  1 21  1  0  0  0  0
  2  3  1  0  0  0  0
  2 10  1  0  0  0  0
  2 22  1  0  0  0  0
  3  4  1  0  0  0  0
  3 23  1  0  0  0  0
  3 24  1  0  0  0  0
  4  9  1  0  0  0  0
  4  5  1  0  0  0  0
  4 37  1  0  0  0  0
  5  6  1  0  0  0  0
  5 25  1  0  0  0  0
  5 26  1  0  0  0  0
  6  7  1  0  0  0  0
  6 27  1  0  0  0  0
  6 28  1  0  0  0  0
  7  8  1  0  0  0  0
  8  9  1  0  0  0  0
  8 29  1  0  0  0  0
  8 30  1  0  0  0  0
  9 31  1  0  0  0  0
  9 32  1  0  0  0  0
 10 11  1  0  0  0  0
 10 33  1  0  0  0  0
 11 12  2  0  0  0  0
 11 13  1  0  0  0  0
 13 14  1  0  0  0  0
 13 34  1  0  0  0  0
 14 18  1  0  0  0  0
 14 15  2  0  0  0  0
 15 16  1  0  0  0  0
 16 17  2  0  0  0  0
 16 35  1  0  0  0  0
 17 18  1  0  0  0  0
 17 36  1  0  0  0  0
M  CHG  1   4   1
M  END
> <s_m_source_file>
AV-unprocessed.smi

> <i_m_source_file_index>
2007

> <i_lp_mmshare_version>
43012

> <i_f3d_flags>
0

> <s_epik_input>
W0NIMl0xW0NIMl1PW0NIMl1bQ0gyXU4xW0NIMl1bQ0BASF0oW0NIM10pW05IXUMoPU8pW05IXWMybltjSF1bY0hdczI=

> <s_epik_cmdline>
J2VwaWtfcHl0aG9uJywgJy1waCcsICc3LjAnLCAnLXRuJywgJzgnLCAnLW1hJywgJzIwMCcsICctbWV0YWxfYmluZGluZycsICctaW1hZScsICc8aW5maWxlLm1hZT4nLCAnLW9tYWUnLCAnPG91dGZpbGUubWFlPic=

> <r_lp_tautomer_probability>
0.999

> <r_epik_Ionization_Penalty>
0.695848

> <r_epik_Ionization_Penalty_Charging>
0.695697

> <r_epik_Ionization_Penalty_Neutral>
0.000150585

> <r_epik_State_Penalty>
0.717972

> <r_epik_Charging_Adjusted_Penalty>
1.41367

> <i_epik_Tot_Q>
1

> <i_epik_Tot_abs_Q>
1

> <r_epik_Metal_State_Penalty>
0.763271

> <b_epik_Metal_Only>
0

> <s_lp_Force_Field>
OPLS_2005

> <r_lp_Energy>
20.6348

> <b_lp_Chiralities_Consistent>
1

> <s_lp_Variant>
AV-unprocessed.smi:2007-3

> <Gold.Version>
5.8.1

> <Gold.Id.Protein>
6NUR|6NUR_protein|mol2

> <Gold.PLP.Fitness>
39.1408

> <Gold.PLP.PLP>
-22.2981

> <Gold.PLP.part.hbond>
-3.9697

> <Gold.PLP.part.metal>
0.0000

> <Gold.PLP.part.buried>
0.9249

> <Gold.PLP.part.nonpolar>
-19.5823

> <Gold.PLP.part.repulsive>
0.4403

> <Gold.PLP.ligand.clash>
0.0000

> <Gold.PLP.ligand.torsion>
0.3301

> <Gold.PLP.Chemscore.Hbond>
4.9600

> <Gold.PLP.Chemscore.CHOScore>
0.8618

> <Gold.PLP.Chemscore.Metal>
0.0000

> <Gold.Chemscore.Hbonds>
donor molecule, donor type, donor heavy atom, donor atom, acceptor molecule, acceptor atom, score
      L1  H     4    37       P1  7948  1.85
      L1  H    10    33       P1  7948  1.00
      L1  H    13    34       P1  7948  0.94
      P1  H 10752 10763       L1     7  0.40
      L1  C    16    35       P1 10186  1.00

> <Gold.PLP.Chemscore.Internal.Correction>
0.0374

> <Gold.Rescore>
     Score         DG    S(hbond)    S(metal)    S(lipo)     H(rot)  DE(clash)    DE(int)     intcor
     13.98     -19.53       3.15        0.00      65.89       1.63       1.73       3.82       ----

> <Gold.Chemscore.Fitness>
13.9804

> <Gold.Chemscore.DG>
-19.5284

> <Gold.Chemscore.ZeroCoef>
-5.4800

> <Gold.Chemscore.Hbond>
3.1476

> <Gold.Chemscore.Metal>
0.0000

> <Gold.Chemscore.Lipo>
65.8940

> <Gold.Chemscore.Internal_Hbond>
0.0000

> <Gold.Chemscore.DEClash>
1.7305

> <Gold.Chemscore.DEInternal>
3.8175

> <Gold.Chemscore.Rot>
1.6306

> <Gold.Chemscore.Internal.Correction>
   9.000000E+99

> <Gold.Chemscore.Hbonds>
donor molecule, donor type, donor heavy atom, donor atom, acceptor molecule, acceptor atom, score
      L1  H     4    37       P1  7948  0.75
      L1  H    10    33       P1  7948  0.96
      L1  H    13    34       P1  7948  0.91
      P1  H 10752 10763       L1     7  0.01

> <Gold.Chemscore.Hbond.Weighted>
-10.5131

> <Gold.Chemscore.Metal.Weighted>
-0.0000

> <Gold.Chemscore.Lipo.Weighted>
-7.7096

> <Gold.Chemscore.Internal_Hbond.Weighted>
0.0000

> <Gold.Chemscore.DEClash.Weighted>
1.7305

> <Gold.Chemscore.DEInternal.Weighted>
3.8175

> <Gold.Chemscore.Rot.Weighted>
4.1743

> <Gold.Chemscore.Internal.Correction.Weighted>
   9.000000E+99

> <Gold.Protein.RotatedTorsions>
[ 6907 6896 6895 6894 ] final   18.72 input  -60.11 | X-H torsion
[ 7974 7965 7964 7962 ] final  -66.17 input  175.53 | X-H torsion
[ 8008 7997 7996 7995 ] final  168.11 input   59.86 | X-H torsion
[ 10167 10162 10161 10158 ] final  -45.40 input  -65.29 | X-H torsion
[ 10718 10713 10712 10709 ] final  145.02 input   66.30 | X-H torsion
[ 10763 10752 10751 10750 ] final   76.59 input  -60.55 | X-H torsion
[ 11005 11000 10999 10996 ] final -160.04 input  -57.11 | X-H torsion

> <Gold.Protein.ActiveResidues>
 VAL166  LYS551  ARG553  GLY616  TRP617  ASP618  TYR619  PRO620  LYS621  CYS622 
 ASP623  PHE694  ASN695  SER759  ASP760  ASP761  ALA762  ILE779  LEU786  VAL792 
 PHE793  MET794  SER795  GLU796  ALA797  LYS798  CYS799  TRP800  GLU811  SER814 

> <Gold.Protein.RotatedAtoms>
  151.8697  135.0494  160.0477 H   0  0  0  0  0  0  0  0  0  0  0  0  # atno 6907 bound_to 6896
  152.2598  133.5282  159.5383 H   0  0  0  0  0  0  0  0  0  0  0  0  # atno 6908 bound_to 6896
  150.7112  134.0762  159.3924 H   0  0  0  0  0  0  0  0  0  0  0  0  # atno 6909 bound_to 6896
  145.7452  140.8935  143.0509 H   0  0  0  0  0  0  0  0  0  0  0  0  # atno 7974 bound_to 7965
  156.1575  140.1599  156.8668 H   0  0  0  0  0  0  0  0  0  0  0  0  # atno 8008 bound_to 7997
  154.5129  140.0796  156.8060 H   0  0  0  0  0  0  0  0  0  0  0  0  # atno 8009 bound_to 7997
  155.3774  140.3403  155.4247 H   0  0  0  0  0  0  0  0  0  0  0  0  # atno 8010 bound_to 7997
  140.6859  143.2881  151.3633 H   0  0  0  0  0  0  0  0  0  0  0  0  # atno 10167 bound_to 10162
  157.3503  131.0949  151.1006 H   0  0  0  0  0  0  0  0  0  0  0  0  # atno 10718 bound_to 10713
  153.0736  135.4946  154.8358 H   0  0  0  0  0  0  0  0  0  0  0  0  # atno 10763 bound_to 10752
  154.7057  135.3010  154.9276 H   0  0  0  0  0  0  0  0  0  0  0  0  # atno 10764 bound_to 10752
  153.9986  135.6769  153.4811 H   0  0  0  0  0  0  0  0  0  0  0  0  # atno 10765 bound_to 10752
  140.6360  134.4602  157.5231 H   0  0  0  0  0  0  0  0  0  0  0  0  # atno 11005 bound_to 11000
  144.6862  139.9515  143.7478 LP  0  0  0  0  0  0  0  0  0  0  0  0  # atno 17320 bound_to 7965
  146.0410  139.3421  143.0697 LP  0  0  0  0  0  0  0  0  0  0  0  0  # atno 17321 bound_to 7965
  139.6218  144.0892  152.2398 LP  0  0  0  0  0  0  0  0  0  0  0  0  # atno 17342 bound_to 10162
  140.0338  144.6060  150.7466 LP  0  0  0  0  0  0  0  0  0  0  0  0  # atno 17343 bound_to 10162
  157.2184  130.6470  149.5801 LP  0  0  0  0  0  0  0  0  0  0  0  0  # atno 17370 bound_to 10713
  155.9720  130.4637  150.6191 LP  0  0  0  0  0  0  0  0  0  0  0  0  # atno 17371 bound_to 10713
  139.9098  134.8369  156.1570 LP  0  0  0  0  0  0  0  0  0  0  0  0  # atno 17394 bound_to 11000
  141.0641  133.6827  156.2011 LP  0  0  0  0  0  0  0  0  0  0  0  0  # atno 17395 bound_to 11000

$$$$
