AV-unprocessed.smi:2168|AV-procd|sdf|8821|dock3
  -GOLD-   2272012 13D 1   1.00000     0.00000
 Structure written by MMmdl.
 46 47  0  0  0  0  0  0  0  0  3 V2000
  146.5183  133.1759  162.1451 C   0  0  0  0  0  0  0  0  0  0  0  0
  147.6623  133.7745  161.3105 C   0  0  0  0  0  0  0  0  0  0  0  0
  147.6319  135.2505  161.2610 N   0  0  0  0  0  0  0  0  0  0  0  0
  148.0037  135.9682  162.4971 C   0  0  0  0  0  0  0  0  0  0  0  0
  147.0911  137.1678  162.7940 C   0  0  0  0  0  0  0  0  0  0  0  0
  147.5890  136.0897  159.7352 S   0  0  0  0  0  0  0  0  0  0  0  0
  146.3088  135.7324  159.1019 O   0  0  0  0  0  0  0  0  0  0  0  0
  147.8344  137.5096  160.0366 O   0  0  0  0  0  0  0  0  0  0  0  0
  148.8669  135.3570  159.0602 N   0  5  0  0  0  0  0  0  0  0  0  0
  149.4159  135.8857  157.8285 C   0  0  0  0  0  0  0  0  0  0  0  0
  148.6282  135.3873  156.6277 C   0  0  0  0  0  0  0  0  0  0  0  0
  147.5107  134.5389  156.7938 C   0  0  0  0  0  0  0  0  0  0  0  0
  146.7886  134.1088  155.6609 C   0  0  0  0  0  0  0  0  0  0  0  0
  147.1862  134.5276  154.3655 C   0  0  0  0  0  0  0  0  0  0  0  0
  146.5152  134.1582  153.1775 N   0  0  0  0  0  0  0  0  0  0  0  0
  147.1295  133.1447  152.3238 C   0  0  0  0  0  0  0  0  0  0  0  0
  146.1289  132.6445  151.2683 C   0  0  0  0  0  0  0  0  0  0  0  0
  145.6045  133.7489  150.5412 O   0  0  0  0  0  0  0  0  0  0  0  0
  144.8862  134.6395  151.3865 C   0  0  0  0  0  0  0  0  0  0  0  0
  145.8334  135.2262  152.4462 C   0  0  0  0  0  0  0  0  0  0  0  0
  148.2659  135.3408  154.2631 N   0  3  0  0  0  0  0  0  0  0  0  0
  148.9856  135.7785  155.3197 C   0  0  0  0  0  0  0  0  0  0  0  0
  146.5363  132.0875  162.0925 H   0  0  0  0  0  0  0  0  0  0  0  0
  145.5411  133.5064  161.7956 H   0  0  0  0  0  0  0  0  0  0  0  0
  146.6057  133.4491  163.1965 H   0  0  0  0  0  0  0  0  0  0  0  0
  148.6187  133.4595  161.7279 H   0  0  0  0  0  0  0  0  0  0  0  0
  147.6294  133.3738  160.2971 H   0  0  0  0  0  0  0  0  0  0  0  0
  147.9790  135.2779  163.3397 H   0  0  0  0  0  0  0  0  0  0  0  0
  149.0372  136.3049  162.4120 H   0  0  0  0  0  0  0  0  0  0  0  0
  147.3636  137.6264  163.7445 H   0  0  0  0  0  0  0  0  0  0  0  0
  146.0449  136.8709  162.8625 H   0  0  0  0  0  0  0  0  0  0  0  0
  147.1765  137.9382  162.0283 H   0  0  0  0  0  0  0  0  0  0  0  0
  149.4047  136.9761  157.8137 H   0  0  0  0  0  0  0  0  0  0  0  0
  150.4593  135.5990  157.6940 H   0  0  0  0  0  0  0  0  0  0  0  0
  147.1922  134.2161  157.7759 H   0  0  0  0  0  0  0  0  0  0  0  0
  145.9413  133.4587  155.8144 H   0  0  0  0  0  0  0  0  0  0  0  0
  148.0094  133.5685  151.8384 H   0  0  0  0  0  0  0  0  0  0  0  0
  147.4574  132.2920  152.9186 H   0  0  0  0  0  0  0  0  0  0  0  0
  146.6244  131.9653  150.5746 H   0  0  0  0  0  0  0  0  0  0  0  0
  145.3173  132.0844  151.7358 H   0  0  0  0  0  0  0  0  0  0  0  0
  144.4611  135.4392  150.7802 H   0  0  0  0  0  0  0  0  0  0  0  0
  144.0502  134.1191  151.8567 H   0  0  0  0  0  0  0  0  0  0  0  0
  145.2533  135.8637  153.1133 H   0  0  0  0  0  0  0  0  0  0  0  0
  146.5824  135.8591  151.9688 H   0  0  0  0  0  0  0  0  0  0  0  0
  149.8135  136.4312  155.0782 H   0  0  0  0  0  0  0  0  0  0  0  0
  148.5492  135.6499  153.3336 H   0  0  0  0  0  0  0  0  0  0  0  0
  1  2  1  0  0  0  0
  1 23  1  0  0  0  0
  1 24  1  0  0  0  0
  1 25  1  0  0  0  0
  2  3  1  0  0  0  0
  2 26  1  0  0  0  0
  2 27  1  0  0  0  0
  3  4  1  0  0  0  0
  3  6  1  0  0  0  0
  4  5  1  0  0  0  0
  4 28  1  0  0  0  0
  4 29  1  0  0  0  0
  5 30  1  0  0  0  0
  5 31  1  0  0  0  0
  5 32  1  0  0  0  0
  6  7  2  0  0  0  0
  6  8  2  0  0  0  0
  6  9  1  0  0  0  0
  9 10  1  0  0  0  0
 10 11  1  0  0  0  0
 10 33  1  0  0  0  0
 10 34  1  0  0  0  0
 11 22  1  0  0  0  0
 11 12  2  0  0  0  0
 12 13  1  0  0  0  0
 12 35  1  0  0  0  0
 13 14  2  0  0  0  0
 13 36  1  0  0  0  0
 14 15  1  0  0  0  0
 14 21  1  0  0  0  0
 15 20  1  0  0  0  0
 15 16  1  0  0  0  0
 16 17  1  0  0  0  0
 16 37  1  0  0  0  0
 16 38  1  0  0  0  0
 17 18  1  0  0  0  0
 17 39  1  0  0  0  0
 17 40  1  0  0  0  0
 18 19  1  0  0  0  0
 19 20  1  0  0  0  0
 19 41  1  0  0  0  0
 19 42  1  0  0  0  0
 20 43  1  0  0  0  0
 20 44  1  0  0  0  0
 21 22  2  0  0  0  0
 21 46  1  0  0  0  0
 22 45  1  0  0  0  0
M  CHG  1   9  -1
M  CHG  1  21   1
M  END
> <s_m_source_file>
AV-unprocessed.smi

> <i_m_source_file_index>
2168

> <i_lp_mmshare_version>
43012

> <i_f3d_flags>
0

> <s_epik_input>
W0NIM11bQ0gyXU4oW0NIMl1bQ0gzXSlTKD1PKSg9TylbTkhdW0NIMl1jMVtjSF1bY0hdYyhuW2NIXTEpTjJbQ0gyXVtDSDJdT1tDSDJdW0NIMl0y

> <s_epik_cmdline>
J2VwaWtfcHl0aG9uJywgJy1waCcsICc3LjAnLCAnLXRuJywgJzgnLCAnLW1hJywgJzIwMCcsICctbWV0YWxfYmluZGluZycsICctaW1hZScsICc8aW5maWxlLm1hZT4nLCAnLW9tYWUnLCAnPG91dGZpbGUubWFlPic=

> <r_lp_tautomer_probability>
0.999994

> <r_epik_Ionization_Penalty>
2.67026

> <r_epik_Ionization_Penalty_Charging>
2.67026

> <r_epik_Ionization_Penalty_Neutral>
4.07977e-08

> <r_epik_State_Penalty>
4.05768

> <r_epik_Charging_Adjusted_Penalty>
6.72795

> <i_epik_Tot_Q>
0

> <i_epik_Tot_abs_Q>
2

> <r_epik_Metal_State_Penalty>
2.91237

> <b_epik_Metal_Only>
1

> <s_lp_Force_Field>
OPLS_2005

> <r_lp_Energy>
13.0843

> <b_lp_Chiralities_Consistent>
1

> <s_lp_Variant>
AV-unprocessed.smi:2168-4

> <Gold.Version>
5.8.1

> <Gold.Id.Protein>
6NUR|6NUR_protein|mol2

> <Gold.PLP.Fitness>
42.3009

> <Gold.PLP.PLP>
-31.0070

> <Gold.PLP.part.hbond>
-4.0000

> <Gold.PLP.part.metal>
0.0000

> <Gold.PLP.part.buried>
-3.5392

> <Gold.PLP.part.nonpolar>
-23.2599

> <Gold.PLP.part.repulsive>
0.2633

> <Gold.PLP.ligand.clash>
0.0000

> <Gold.PLP.ligand.torsion>
2.3417

> <Gold.PLP.Chemscore.Hbond>
4.0409

> <Gold.PLP.Chemscore.CHOScore>
0.0000

> <Gold.PLP.Chemscore.Metal>
0.0000

> <Gold.Chemscore.Hbonds>
donor molecule, donor type, donor heavy atom, donor atom, acceptor molecule, acceptor atom, score
      L1  H    21    46       P1  7948  2.00
      P1  H  6896  6907       L1     9  1.10
      P1  H  6931  6943       L1     8  0.13
      P1  H  6934  6947       L1     8  0.72

> <Gold.PLP.Chemscore.Internal.Correction>
3.8545

> <Gold.Rescore>
     Score         DG    S(hbond)    S(metal)    S(lipo)     H(rot)  DE(clash)    DE(int)     intcor
     12.72     -16.46       2.31        0.00      65.36       1.72       0.22       3.52       ----

> <Gold.Chemscore.Fitness>
12.7194

> <Gold.Chemscore.DG>
-16.4585

> <Gold.Chemscore.ZeroCoef>
-5.4800

> <Gold.Chemscore.Hbond>
2.3126

> <Gold.Chemscore.Metal>
0.0000

> <Gold.Chemscore.Lipo>
65.3601

> <Gold.Chemscore.Internal_Hbond>
0.0000

> <Gold.Chemscore.DEClash>
0.2220

> <Gold.Chemscore.DEInternal>
3.5171

> <Gold.Chemscore.Rot>
1.7159

> <Gold.Chemscore.Internal.Correction>
   9.000000E+99

> <Gold.Chemscore.Hbonds>
donor molecule, donor type, donor heavy atom, donor atom, acceptor molecule, acceptor atom, score
      L1  H    21    46       P1  7948  0.98
      P1  H  6896  6907       L1     9  0.03
      P1  H  6931  6943       L1     8  0.13
      P1  H  6934  6947       L1     8  0.72

> <Gold.Chemscore.Hbond.Weighted>
-7.7240

> <Gold.Chemscore.Metal.Weighted>
-0.0000

> <Gold.Chemscore.Lipo.Weighted>
-7.6471

> <Gold.Chemscore.Internal_Hbond.Weighted>
0.0000

> <Gold.Chemscore.DEClash.Weighted>
0.2220

> <Gold.Chemscore.DEInternal.Weighted>
3.5171

> <Gold.Chemscore.Rot.Weighted>
4.3926

> <Gold.Chemscore.Internal.Correction.Weighted>
   9.000000E+99

> <Gold.Protein.RotatedTorsions>
[ 6907 6896 6895 6894 ] final  -69.40 input  -60.11 | X-H torsion
[ 7974 7965 7964 7962 ] final   26.85 input  175.53 | X-H torsion
[ 8008 7997 7996 7995 ] final  164.74 input   59.86 | X-H torsion
[ 10167 10162 10161 10158 ] final  -18.14 input  -65.29 | X-H torsion
[ 10718 10713 10712 10709 ] final  -46.36 input   66.30 | X-H torsion
[ 10763 10752 10751 10750 ] final -105.78 input  -60.55 | X-H torsion
[ 11005 11000 10999 10996 ] final -136.30 input  -57.11 | X-H torsion

> <Gold.Protein.ActiveResidues>
 VAL166  LYS551  ARG553  GLY616  TRP617  ASP618  TYR619  PRO620  LYS621  CYS622 
 ASP623  PHE694  ASN695  SER759  ASP760  ASP761  ALA762  ILE779  LEU786  VAL792 
 PHE793  MET794  SER795  GLU796  ALA797  LYS798  CYS799  TRP800  GLU811  SER814 

> <Gold.Protein.RotatedAtoms>
  150.7307  134.5601  159.5837 H   0  0  0  0  0  0  0  0  0  0  0  0  # atno 6907 bound_to 6896
  152.3067  134.7544  160.0355 H   0  0  0  0  0  0  0  0  0  0  0  0  # atno 6908 bound_to 6896
  151.8106  133.3345  159.3591 H   0  0  0  0  0  0  0  0  0  0  0  0  # atno 6909 bound_to 6896
  146.1815  139.7271  142.8896 H   0  0  0  0  0  0  0  0  0  0  0  0  # atno 7974 bound_to 7965
  156.1856  140.1688  156.8191 H   0  0  0  0  0  0  0  0  0  0  0  0  # atno 8008 bound_to 7997
  154.5410  140.0736  156.8543 H   0  0  0  0  0  0  0  0  0  0  0  0  # atno 8009 bound_to 7997
  155.3214  140.3373  155.4243 H   0  0  0  0  0  0  0  0  0  0  0  0  # atno 8010 bound_to 7997
  140.7255  143.4946  150.9948 H   0  0  0  0  0  0  0  0  0  0  0  0  # atno 10167 bound_to 10162
  156.2190  130.4165  149.9016 H   0  0  0  0  0  0  0  0  0  0  0  0  # atno 10718 bound_to 10713
  154.7969  135.4736  154.0183 H   0  0  0  0  0  0  0  0  0  0  0  0  # atno 10763 bound_to 10752
  153.1718  135.6826  153.8604 H   0  0  0  0  0  0  0  0  0  0  0  0  # atno 10764 bound_to 10752
  153.8184  135.3207  155.3385 H   0  0  0  0  0  0  0  0  0  0  0  0  # atno 10765 bound_to 10752
  140.8817  134.1923  157.4586 H   0  0  0  0  0  0  0  0  0  0  0  0  # atno 11005 bound_to 11000
  145.4061  141.0391  143.3043 LP  0  0  0  0  0  0  0  0  0  0  0  0  # atno 17320 bound_to 7965
  144.8324  139.5606  143.6937 LP  0  0  0  0  0  0  0  0  0  0  0  0  # atno 17321 bound_to 7965
  139.8652  143.7263  152.3170 LP  0  0  0  0  0  0  0  0  0  0  0  0  # atno 17342 bound_to 10162
  139.7493  144.7538  151.0532 LP  0  0  0  0  0  0  0  0  0  0  0  0  # atno 17343 bound_to 10162
  156.6669  130.8804  151.3556 LP  0  0  0  0  0  0  0  0  0  0  0  0  # atno 17370 bound_to 10713
  157.7078  130.9405  150.0988 LP  0  0  0  0  0  0  0  0  0  0  0  0  # atno 17371 bound_to 10713
  139.8720  134.9820  156.5140 LP  0  0  0  0  0  0  0  0  0  0  0  0  # atno 17394 bound_to 11000
  140.8453  133.8174  155.9114 LP  0  0  0  0  0  0  0  0  0  0  0  0  # atno 17395 bound_to 11000

$$$$
