AV-unprocessed.smi:2076|AV-procd|sdf|8457|dock7
  -GOLD-   2272011153D 1   1.00000     0.00000
 Structure written by MMmdl.
 44 45  0  0  0  0  0  0  0  0  1 V2000
  154.1648  140.8284  160.5011 C   0  0  0  0  0  0  0  0  0  0  0  0
  153.2264  141.8263  159.8899 C   0  0  0  0  0  0  0  0  0  0  0  0
  153.3957  143.2334  159.7621 C   0  0  0  0  0  0  0  0  0  0  0  0
  152.2524  143.6563  159.1447 C   0  0  0  0  0  0  0  0  0  0  0  0
  151.8258  145.0305  158.7451 C   0  0  0  0  0  0  0  0  0  0  0  0
  151.4731  142.5332  158.9300 N   0  0  0  0  0  0  0  0  0  0  0  0
  150.1503  142.4342  158.3310 C   0  0  0  0  0  0  0  0  0  0  0  0
  150.1936  141.5935  157.0546 C   0  0  0  0  0  0  0  0  0  0  0  0
  150.9005  140.5875  157.0011 O   0  0  0  0  0  0  0  0  0  0  0  0
  149.4525  142.0346  156.0266 N   0  0  0  0  0  0  0  0  0  0  0  0
  149.4640  141.4731  154.6803 C   0  0  0  0  0  0  0  0  0  0  0  0
  148.9628  139.9994  154.6316 C   0  0  2  0  0  0  0  0  0  0  0  0
  147.5889  139.9102  155.3461 C   0  0  0  0  0  0  0  0  0  0  0  0
  149.9495  139.0290  155.1602 N   0  0  0  0  0  0  0  0  0  0  0  0
  151.2899  139.2177  154.5930 C   0  0  0  0  0  0  0  0  0  0  0  0
  152.3101  138.1901  155.1133 C   0  0  0  0  0  0  0  0  0  0  0  0
  151.8463  136.8742  154.8453 O   0  0  0  0  0  0  0  0  0  0  0  0
  150.5835  136.6220  155.4450 C   0  0  0  0  0  0  0  0  0  0  0  0
  149.5511  137.6363  154.9238 C   0  0  0  0  0  0  0  0  0  0  0  0
  152.0749  141.4129  159.3870 N   0  0  0  0  0  0  0  0  0  0  0  0
  155.0017  141.3247  160.9928 H   0  0  0  0  0  0  0  0  0  0  0  0
  154.5738  140.1603  159.7432 H   0  0  0  0  0  0  0  0  0  0  0  0
  153.6581  140.2166  161.2481 H   0  0  0  0  0  0  0  0  0  0  0  0
  154.2294  143.8419  160.0802 H   0  0  0  0  0  0  0  0  0  0  0  0
  152.6029  145.7607  158.9716 H   0  0  0  0  0  0  0  0  0  0  0  0
  150.9227  145.3275  159.2785 H   0  0  0  0  0  0  0  0  0  0  0  0
  151.6217  145.0799  157.6754 H   0  0  0  0  0  0  0  0  0  0  0  0
  149.4638  141.9914  159.0535 H   0  0  0  0  0  0  0  0  0  0  0  0
  149.7743  143.4332  158.1043 H   0  0  0  0  0  0  0  0  0  0  0  0
  148.9011  142.8692  156.1674 H   0  0  0  0  0  0  0  0  0  0  0  0
  148.8620  142.1329  154.0568 H   0  0  0  0  0  0  0  0  0  0  0  0
  150.4834  141.5309  154.2984 H   0  0  0  0  0  0  0  0  0  0  0  0
  148.7874  139.7555  153.5824 H   0  0  0  0  0  0  0  0  0  0  0  0
  146.8769  140.6486  154.9785 H   0  0  0  0  0  0  0  0  0  0  0  0
  147.6933  140.0632  156.4208 H   0  0  0  0  0  0  0  0  0  0  0  0
  147.1007  138.9500  155.1876 H   0  0  0  0  0  0  0  0  0  0  0  0
  151.2430  139.1622  153.5044 H   0  0  0  0  0  0  0  0  0  0  0  0
  151.6803  140.2015  154.8442 H   0  0  0  0  0  0  0  0  0  0  0  0
  153.2733  138.3332  154.6238 H   0  0  0  0  0  0  0  0  0  0  0  0
  152.4737  138.3160  156.1850 H   0  0  0  0  0  0  0  0  0  0  0  0
  150.2715  135.6062  155.2029 H   0  0  0  0  0  0  0  0  0  0  0  0
  150.6684  136.6801  156.5314 H   0  0  0  0  0  0  0  0  0  0  0  0
  148.6097  137.4157  155.4237 H   0  0  0  0  0  0  0  0  0  0  0  0
  149.3902  137.4731  153.8570 H   0  0  0  0  0  0  0  0  0  0  0  0
  1  2  1  0  0  0  0
  1 21  1  0  0  0  0
  1 22  1  0  0  0  0
  1 23  1  0  0  0  0
  2 20  2  0  0  0  0
  2  3  1  0  0  0  0
  3  4  2  0  0  0  0
  3 24  1  0  0  0  0
  4  5  1  0  0  0  0
  4  6  1  0  0  0  0
  5 25  1  0  0  0  0
  5 26  1  0  0  0  0
  5 27  1  0  0  0  0
  6  7  1  0  0  0  0
  6 20  1  0  0  0  0
  7  8  1  0  0  0  0
  7 28  1  0  0  0  0
  7 29  1  0  0  0  0
  8  9  2  0  0  0  0
  8 10  1  0  0  0  0
 10 11  1  0  0  0  0
 10 30  1  0  0  0  0
 11 12  1  0  0  0  0
 11 31  1  0  0  0  0
 11 32  1  0  0  0  0
 12 13  1  0  0  0  0
 12 14  1  0  0  0  0
 12 33  1  0  0  0  0
 13 34  1  0  0  0  0
 13 35  1  0  0  0  0
 13 36  1  0  0  0  0
 14 19  1  0  0  0  0
 14 15  1  0  0  0  0
 15 16  1  0  0  0  0
 15 37  1  0  0  0  0
 15 38  1  0  0  0  0
 16 17  1  0  0  0  0
 16 39  1  0  0  0  0
 16 40  1  0  0  0  0
 17 18  1  0  0  0  0
 18 19  1  0  0  0  0
 18 41  1  0  0  0  0
 18 42  1  0  0  0  0
 19 43  1  0  0  0  0
 19 44  1  0  0  0  0
M  END
> <s_m_source_file>
AV-unprocessed.smi

> <i_m_source_file_index>
2076

> <i_lp_mmshare_version>
43012

> <i_f3d_flags>
0

> <s_epik_input>
W0NIM11jMVtjSF1jKFtDSDNdKW4objEpW0NIMl1DKD1PKVtOSF1bQ0gyXVtDQEhdKFtDSDNdKU4yW0NIMl1bQ0gyXU9bQ0gyXVtDSDJdMg==

> <s_epik_cmdline>
J2VwaWtfcHl0aG9uJywgJy1waCcsICc3LjAnLCAnLXRuJywgJzgnLCAnLW1hJywgJzIwMCcsICctbWV0YWxfYmluZGluZycsICctaW1hZScsICc8aW5maWxlLm1hZT4nLCAnLW9tYWUnLCAnPG91dGZpbGUubWFlPic=

> <r_lp_tautomer_probability>
1

> <r_epik_Ionization_Penalty>
0.197284

> <r_epik_Ionization_Penalty_Charging>
0

> <r_epik_Ionization_Penalty_Neutral>
0.197284

> <r_epik_State_Penalty>
0.186684

> <r_epik_Charging_Adjusted_Penalty>
0.186684

> <i_epik_Tot_Q>
0

> <i_epik_Tot_abs_Q>
0

> <r_epik_Metal_State_Penalty>
0.186636

> <b_epik_Metal_Only>
0

> <s_lp_Force_Field>
OPLS_2005

> <r_lp_Energy>
25.7273

> <b_lp_Chiralities_Consistent>
1

> <s_lp_Variant>
AV-unprocessed.smi:2076-1

> <Gold.Version>
5.8.1

> <Gold.Id.Protein>
6NUR|6NUR_protein|mol2

> <Gold.PLP.Fitness>
45.4158

> <Gold.PLP.PLP>
-40.4191

> <Gold.PLP.part.hbond>
-2.0000

> <Gold.PLP.part.metal>
0.0000

> <Gold.PLP.part.buried>
-4.7300

> <Gold.PLP.part.nonpolar>
-33.7224

> <Gold.PLP.part.repulsive>
0.2913

> <Gold.PLP.ligand.clash>
0.0000

> <Gold.PLP.ligand.torsion>
0.4325

> <Gold.PLP.Chemscore.Hbond>
1.9440

> <Gold.PLP.Chemscore.CHOScore>
0.0000

> <Gold.PLP.Chemscore.Metal>
0.0000

> <Gold.Chemscore.Hbonds>
donor molecule, donor type, donor heavy atom, donor atom, acceptor molecule, acceptor atom, score
      L1  H    10    30       P1  8028  0.80
      P1  H 10752 10764       L1    17  1.00

> <Gold.PLP.Chemscore.Internal.Correction>
0.0298

> <Gold.Rescore>
     Score         DG    S(hbond)    S(metal)    S(lipo)     H(rot)  DE(clash)    DE(int)     intcor
     14.59     -19.55       1.80        0.00     106.15       1.70       0.07       4.89       ----

> <Gold.Chemscore.Fitness>
14.5913

> <Gold.Chemscore.DG>
-19.5486

> <Gold.Chemscore.ZeroCoef>
-5.4800

> <Gold.Chemscore.Hbond>
1.7961

> <Gold.Chemscore.Metal>
0.0000

> <Gold.Chemscore.Lipo>
106.1516

> <Gold.Chemscore.Internal_Hbond>
0.0000

> <Gold.Chemscore.DEClash>
0.0682

> <Gold.Chemscore.DEInternal>
4.8890

> <Gold.Chemscore.Rot>
1.6993

> <Gold.Chemscore.Internal.Correction>
   9.000000E+99

> <Gold.Chemscore.Hbonds>
donor molecule, donor type, donor heavy atom, donor atom, acceptor molecule, acceptor atom, score
      L1  H    10    30       P1  8028  0.79
      P1  H 10752 10764       L1    17  0.93

> <Gold.Chemscore.Hbond.Weighted>
-5.9990

> <Gold.Chemscore.Metal.Weighted>
-0.0000

> <Gold.Chemscore.Lipo.Weighted>
-12.4197

> <Gold.Chemscore.Internal_Hbond.Weighted>
0.0000

> <Gold.Chemscore.DEClash.Weighted>
0.0682

> <Gold.Chemscore.DEInternal.Weighted>
4.8890

> <Gold.Chemscore.Rot.Weighted>
4.3502

> <Gold.Chemscore.Internal.Correction.Weighted>
   9.000000E+99

> <Gold.Protein.RotatedTorsions>
[ 6907 6896 6895 6894 ] final   93.21 input  -60.11 | X-H torsion
[ 7974 7965 7964 7962 ] final   27.09 input  175.53 | X-H torsion
[ 8008 7997 7996 7995 ] final    4.03 input   59.86 | X-H torsion
[ 10167 10162 10161 10158 ] final  172.86 input  -65.29 | X-H torsion
[ 10718 10713 10712 10709 ] final    9.28 input   66.30 | X-H torsion
[ 10763 10752 10751 10750 ] final  -55.49 input  -60.55 | X-H torsion
[ 11005 11000 10999 10996 ] final  127.55 input  -57.11 | X-H torsion

> <Gold.Protein.ActiveResidues>
 VAL166  LYS551  ARG553  GLY616  TRP617  ASP618  TYR619  PRO620  LYS621  CYS622 
 ASP623  PHE694  ASN695  SER759  ASP760  ASP761  ALA762  ILE779  LEU786  VAL792 
 PHE793  MET794  SER795  GLU796  ALA797  LYS798  CYS799  TRP800  GLU811  SER814 

> <Gold.Protein.RotatedAtoms>
  152.5452  134.1382  159.8467 H   0  0  0  0  0  0  0  0  0  0  0  0  # atno 6907 bound_to 6896
  151.1421  133.4957  159.2604 H   0  0  0  0  0  0  0  0  0  0  0  0  # atno 6908 bound_to 6896
  151.1562  135.0261  159.8745 H   0  0  0  0  0  0  0  0  0  0  0  0  # atno 6909 bound_to 6896
  146.1803  139.7239  142.8905 H   0  0  0  0  0  0  0  0  0  0  0  0  # atno 7974 bound_to 7965
  154.7109  140.2692  155.6630 H   0  0  0  0  0  0  0  0  0  0  0  0  # atno 8008 bound_to 7997
  156.2795  140.2753  156.1674 H   0  0  0  0  0  0  0  0  0  0  0  0  # atno 8009 bound_to 7997
  155.0637  140.0371  157.2575 H   0  0  0  0  0  0  0  0  0  0  0  0  # atno 8010 bound_to 7997
  139.5090  144.3326  152.0097 H   0  0  0  0  0  0  0  0  0  0  0  0  # atno 10167 bound_to 10162
  156.9641  130.5944  149.5664 H   0  0  0  0  0  0  0  0  0  0  0  0  # atno 10718 bound_to 10713
  154.1916  135.6426  153.5061 H   0  0  0  0  0  0  0  0  0  0  0  0  # atno 10763 bound_to 10752
  153.0034  135.5430  154.6409 H   0  0  0  0  0  0  0  0  0  0  0  0  # atno 10764 bound_to 10752
  154.5799  135.2924  155.0715 H   0  0  0  0  0  0  0  0  0  0  0  0  # atno 10765 bound_to 10752
  139.9513  134.9621  156.8871 H   0  0  0  0  0  0  0  0  0  0  0  0  # atno 11005 bound_to 11000
  145.4096  141.0395  143.3025 LP  0  0  0  0  0  0  0  0  0  0  0  0  # atno 17320 bound_to 7965
  144.8304  139.5639  143.6946 LP  0  0  0  0  0  0  0  0  0  0  0  0  # atno 17321 bound_to 7965
  140.2765  144.3907  150.6133 LP  0  0  0  0  0  0  0  0  0  0  0  0  # atno 17342 bound_to 10162
  140.6050  143.2167  151.6999 LP  0  0  0  0  0  0  0  0  0  0  0  0  # atno 17343 bound_to 10162
  156.0310  130.5401  150.8534 LP  0  0  0  0  0  0  0  0  0  0  0  0  # atno 17370 bound_to 10713
  157.5638  131.0946  150.9520 LP  0  0  0  0  0  0  0  0  0  0  0  0  # atno 17371 bound_to 10713
  140.5712  134.0442  155.7431 LP  0  0  0  0  0  0  0  0  0  0  0  0  # atno 17394 bound_to 11000
  141.1177  133.9513  157.2791 LP  0  0  0  0  0  0  0  0  0  0  0  0  # atno 17395 bound_to 11000

$$$$
