AV-unprocessed.smi:3321|AV-procd|sdf|12770|dock3
  -GOLD-   2272019113D 1   1.00000     0.00000
 Structure written by MMmdl.
 41 42  0  0  0  0  0  0  0  0  2 V2000
  147.3950  141.0354  153.6529 C   0  0  0  0  0  0  0  0  0  0  0  0
  147.8594  139.5811  153.8375 C   0  0  1  0  0  0  0  0  0  0  0  0
  147.8612  138.8988  152.5218 N   0  3  0  0  0  0  0  0  0  0  0  0
  146.5241  138.5859  151.9737 C   0  0  0  0  0  0  0  0  0  0  0  0
  145.7908  137.5731  152.8647 C   0  0  0  0  0  0  0  0  0  0  0  0
  145.3022  136.4388  152.1050 N   0  0  0  0  0  0  0  0  0  0  0  0
  145.9966  135.6239  151.2357 C   0  0  0  0  0  0  0  0  0  0  0  0
  145.1143  134.7010  150.7521 C   0  0  0  0  0  0  0  0  0  0  0  0
  143.8878  135.0390  151.3897 C   0  0  0  0  0  0  0  0  0  0  0  0
  144.0032  136.0812  152.1973 N   0  0  0  0  0  0  0  0  0  0  0  0
  149.2525  139.5469  154.5026 C   0  0  0  0  0  0  0  0  0  0  0  0
  150.2250  139.2805  153.7935 O   0  0  0  0  0  0  0  0  0  0  0  0
  149.3809  139.8068  155.8282 N   0  0  0  0  0  0  0  0  0  0  0  0
  150.6356  139.8245  156.5932 C   0  0  0  0  0  0  0  0  0  0  0  0
  150.9752  141.2831  156.9476 C   0  0  0  0  0  0  0  0  0  0  0  0
  149.8198  141.9366  157.7300 C   0  0  0  0  0  0  0  0  0  0  0  0
  148.4644  141.7311  157.0260 C   0  0  0  0  0  0  0  0  0  0  0  0
  148.2509  140.2510  156.6559 C   0  0  0  0  0  0  0  0  0  0  0  0
  147.3600  141.5737  154.6005 H   0  0  0  0  0  0  0  0  0  0  0  0
  146.3938  141.0732  153.2228 H   0  0  0  0  0  0  0  0  0  0  0  0
  148.0613  141.5856  152.9870 H   0  0  0  0  0  0  0  0  0  0  0  0
  147.1327  139.0519  154.4534 H   0  0  0  0  0  0  0  0  0  0  0  0
  148.3276  139.5009  151.8587 H   0  0  0  0  0  0  0  0  0  0  0  0
  145.9332  139.4990  151.8934 H   0  0  0  0  0  0  0  0  0  0  0  0
  146.6379  138.1871  150.9647 H   0  0  0  0  0  0  0  0  0  0  0  0
  146.4514  137.2032  153.6501 H   0  0  0  0  0  0  0  0  0  0  0  0
  144.9435  138.0490  153.3599 H   0  0  0  0  0  0  0  0  0  0  0  0
  147.0484  135.7663  151.0346 H   0  0  0  0  0  0  0  0  0  0  0  0
  145.3136  133.9067  150.0482 H   0  0  0  0  0  0  0  0  0  0  0  0
  142.9237  134.5631  151.2888 H   0  0  0  0  0  0  0  0  0  0  0  0
  150.5027  139.2453  157.5083 H   0  0  0  0  0  0  0  0  0  0  0  0
  151.4741  139.3533  156.0849 H   0  0  0  0  0  0  0  0  0  0  0  0
  151.8927  141.3238  157.5355 H   0  0  0  0  0  0  0  0  0  0  0  0
  151.1662  141.8472  156.0335 H   0  0  0  0  0  0  0  0  0  0  0  0
  149.7720  141.4956  158.7264 H   0  0  0  0  0  0  0  0  0  0  0  0
  150.0140  143.0001  157.8738 H   0  0  0  0  0  0  0  0  0  0  0  0
  147.6543  142.0790  157.6674 H   0  0  0  0  0  0  0  0  0  0  0  0
  148.4269  142.3405  156.1219 H   0  0  0  0  0  0  0  0  0  0  0  0
  147.2854  140.1294  156.1630 H   0  0  0  0  0  0  0  0  0  0  0  0
  148.1986  139.6411  157.5590 H   0  0  0  0  0  0  0  0  0  0  0  0
  148.3908  138.0427  152.6089 H   0  0  0  0  0  0  0  0  0  0  0  0
  1  2  1  0  0  0  0
  1 19  1  0  0  0  0
  1 20  1  0  0  0  0
  1 21  1  0  0  0  0
  2  3  1  0  0  0  0
  2 11  1  0  0  0  0
  2 22  1  0  0  0  0
  3  4  1  0  0  0  0
  3 23  1  0  0  0  0
  3 41  1  0  0  0  0
  4  5  1  0  0  0  0
  4 24  1  0  0  0  0
  4 25  1  0  0  0  0
  5  6  1  0  0  0  0
  5 26  1  0  0  0  0
  5 27  1  0  0  0  0
  6 10  1  0  0  0  0
  6  7  1  0  0  0  0
  7  8  2  0  0  0  0
  7 28  1  0  0  0  0
  8  9  1  0  0  0  0
  8 29  1  0  0  0  0
  9 10  2  0  0  0  0
  9 30  1  0  0  0  0
 11 12  2  0  0  0  0
 11 13  1  0  0  0  0
 13 18  1  0  0  0  0
 13 14  1  0  0  0  0
 14 15  1  0  0  0  0
 14 31  1  0  0  0  0
 14 32  1  0  0  0  0
 15 16  1  0  0  0  0
 15 33  1  0  0  0  0
 15 34  1  0  0  0  0
 16 17  1  0  0  0  0
 16 35  1  0  0  0  0
 16 36  1  0  0  0  0
 17 18  1  0  0  0  0
 17 37  1  0  0  0  0
 17 38  1  0  0  0  0
 18 39  1  0  0  0  0
 18 40  1  0  0  0  0
M  CHG  1   3   1
M  END
> <s_m_source_file>
AV-unprocessed.smi

> <i_m_source_file_index>
3321

> <i_lp_mmshare_version>
43012

> <i_f3d_flags>
0

> <s_epik_input>
W0NIMl0xW0NIMl1bQ0gyXVtDSDJdW0NIMl1OMUMoPU8pW0NASF0oW0NIM10pW05IXVtDSDJdW0NIMl1uMltjSF1bY0hdW2NIXW4y

> <s_epik_cmdline>
J2VwaWtfcHl0aG9uJywgJy1waCcsICc3LjAnLCAnLXRuJywgJzgnLCAnLW1hJywgJzIwMCcsICctbWV0YWxfYmluZGluZycsICctaW1hZScsICc8aW5maWxlLm1hZT4nLCAnLW9tYWUnLCAnPG91dGZpbGUubWFlPic=

> <r_lp_tautomer_probability>
1

> <r_epik_Ionization_Penalty>
0.202061

> <r_epik_Ionization_Penalty_Charging>
0.202058

> <r_epik_Ionization_Penalty_Neutral>
2.46932e-06

> <r_epik_State_Penalty>
0.191938

> <r_epik_Charging_Adjusted_Penalty>
0.393996

> <i_epik_Tot_Q>
1

> <i_epik_Tot_abs_Q>
1

> <r_epik_Metal_State_Penalty>
0.192188

> <b_epik_Metal_Only>
0

> <s_lp_Force_Field>
OPLS_2005

> <r_lp_Energy>
26.1916

> <b_lp_Chiralities_Consistent>
1

> <s_lp_Variant>
AV-unprocessed.smi:3321-2

> <Gold.Version>
5.8.1

> <Gold.Id.Protein>
6NUR|6NUR_protein|mol2

> <Gold.PLP.Fitness>
42.4813

> <Gold.PLP.PLP>
-28.4024

> <Gold.PLP.part.hbond>
-2.7438

> <Gold.PLP.part.metal>
0.0000

> <Gold.PLP.part.buried>
-3.8406

> <Gold.PLP.part.nonpolar>
-25.0365

> <Gold.PLP.part.repulsive>
2.5518

> <Gold.PLP.ligand.clash>
0.0000

> <Gold.PLP.ligand.torsion>
0.9335

> <Gold.PLP.Chemscore.Hbond>
3.6933

> <Gold.PLP.Chemscore.CHOScore>
1.5976

> <Gold.PLP.Chemscore.Metal>
0.0000

> <Gold.Chemscore.Hbonds>
donor molecule, donor type, donor heavy atom, donor atom, acceptor molecule, acceptor atom, score
      L1  H     3    23       P1  7957  0.99
      L1  H     3    41       P1  7948  1.98
      P1  H  7989  7998       L1    12  0.75
      L1  C     7    28       P1  7948  1.00
      L1  C     9    30       P1 10186  0.64

> <Gold.PLP.Chemscore.Internal.Correction>
0.0735

> <Gold.Rescore>
     Score         DG    S(hbond)    S(metal)    S(lipo)     H(rot)  DE(clash)    DE(int)     intcor
     15.04     -17.26       2.59        0.00      65.95       1.79       1.37       0.85       ----

> <Gold.Chemscore.Fitness>
15.0396

> <Gold.Chemscore.DG>
-17.2633

> <Gold.Chemscore.ZeroCoef>
-5.4800

> <Gold.Chemscore.Hbond>
2.5918

> <Gold.Chemscore.Metal>
0.0000

> <Gold.Chemscore.Lipo>
65.9492

> <Gold.Chemscore.Internal_Hbond>
0.0000

> <Gold.Chemscore.DEClash>
1.3687

> <Gold.Chemscore.DEInternal>
0.8550

> <Gold.Chemscore.Rot>
1.7928

> <Gold.Chemscore.Internal.Correction>
   9.000000E+99

> <Gold.Chemscore.Hbonds>
donor molecule, donor type, donor heavy atom, donor atom, acceptor molecule, acceptor atom, score
      L1  H     3    23       P1  7957  0.91
      L1  H     3    41       P1  7948  0.89
      P1  H  7989  7998       L1    12  0.66

> <Gold.Chemscore.Hbond.Weighted>
-8.6567

> <Gold.Chemscore.Metal.Weighted>
-0.0000

> <Gold.Chemscore.Lipo.Weighted>
-7.7161

> <Gold.Chemscore.Internal_Hbond.Weighted>
0.0000

> <Gold.Chemscore.DEClash.Weighted>
1.3687

> <Gold.Chemscore.DEInternal.Weighted>
0.8550

> <Gold.Chemscore.Rot.Weighted>
4.5895

> <Gold.Chemscore.Internal.Correction.Weighted>
   9.000000E+99

> <Gold.Protein.RotatedTorsions>
[ 6907 6896 6895 6894 ] final   59.77 input  -60.11 | X-H torsion
[ 7974 7965 7964 7962 ] final  -58.11 input  175.53 | X-H torsion
[ 8008 7997 7996 7995 ] final  -65.06 input   59.86 | X-H torsion
[ 10167 10162 10161 10158 ] final -179.63 input  -65.29 | X-H torsion
[ 10718 10713 10712 10709 ] final  -67.82 input   66.30 | X-H torsion
[ 10763 10752 10751 10750 ] final  -91.05 input  -60.55 | X-H torsion
[ 11005 11000 10999 10996 ] final  -40.01 input  -57.11 | X-H torsion

> <Gold.Protein.ActiveResidues>
 VAL166  LYS551  ARG553  GLY616  TRP617  ASP618  TYR619  PRO620  LYS621  CYS622 
 ASP623  PHE694  ASN695  SER759  ASP760  ASP761  ALA762  ILE779  LEU786  VAL792 
 PHE793  MET794  SER795  GLU796  ALA797  LYS798  CYS799  TRP800  GLU811  SER814 

> <Gold.Protein.RotatedAtoms>
  152.3944  134.6389  160.0094 H   0  0  0  0  0  0  0  0  0  0  0  0  # atno 6907 bound_to 6896
  151.6613  133.3311  159.3183 H   0  0  0  0  0  0  0  0  0  0  0  0  # atno 6908 bound_to 6896
  150.7854  134.6878  159.6524 H   0  0  0  0  0  0  0  0  0  0  0  0  # atno 6909 bound_to 6896
  145.8432  140.8403  143.0024 H   0  0  0  0  0  0  0  0  0  0  0  0  # atno 7974 bound_to 7965
  154.4649  140.0941  156.6993 H   0  0  0  0  0  0  0  0  0  0  0  0  # atno 8008 bound_to 7997
  155.4887  140.3470  155.4333 H   0  0  0  0  0  0  0  0  0  0  0  0  # atno 8009 bound_to 7997
  156.0938  140.1404  156.9546 H   0  0  0  0  0  0  0  0  0  0  0  0  # atno 8010 bound_to 7997
  139.5378  144.2449  152.0831 H   0  0  0  0  0  0  0  0  0  0  0  0  # atno 10167 bound_to 10162
  156.0538  130.4284  150.1909 H   0  0  0  0  0  0  0  0  0  0  0  0  # atno 10718 bound_to 10713
  154.6721  135.5282  153.8151 H   0  0  0  0  0  0  0  0  0  0  0  0  # atno 10763 bound_to 10752
  153.0508  135.6531  154.0709 H   0  0  0  0  0  0  0  0  0  0  0  0  # atno 10764 bound_to 10752
  154.0607  135.2962  155.3305 H   0  0  0  0  0  0  0  0  0  0  0  0  # atno 10765 bound_to 10752
  141.0143  133.6892  156.2263 H   0  0  0  0  0  0  0  0  0  0  0  0  # atno 11005 bound_to 11000
  144.6732  140.0843  143.7468 LP  0  0  0  0  0  0  0  0  0  0  0  0  # atno 17320 bound_to 7965
  145.9442  139.2689  143.1251 LP  0  0  0  0  0  0  0  0  0  0  0  0  # atno 17321 bound_to 7965
  140.1922  144.4740  150.6473 LP  0  0  0  0  0  0  0  0  0  0  0  0  # atno 17342 bound_to 10162
  140.6593  143.2247  151.5894 LP  0  0  0  0  0  0  0  0  0  0  0  0  # atno 17343 bound_to 10162
  156.9989  130.9916  151.3396 LP  0  0  0  0  0  0  0  0  0  0  0  0  # atno 17370 bound_to 10713
  157.5488  130.8169  149.8120 LP  0  0  0  0  0  0  0  0  0  0  0  0  # atno 17371 bound_to 10713
  140.6680  134.4897  157.5586 LP  0  0  0  0  0  0  0  0  0  0  0  0  # atno 17394 bound_to 11000
  139.9108  134.8349  156.1536 LP  0  0  0  0  0  0  0  0  0  0  0  0  # atno 17395 bound_to 11000

$$$$
