AV-unprocessed.smi:3167|AV-procd|sdf|12098|dock6
  -GOLD-   2272017533D 1   1.00000     0.00000
 Structure written by MMmdl.
 37 38  0  0  0  0  0  0  0  0  2 V2000
  142.7495  136.2340  152.9746 C   0  0  0  0  0  0  0  0  0  0  0  0
  143.6403  136.1410  151.7148 C   0  0  1  0  0  0  0  0  0  0  0  0
  145.1007  136.5327  152.0458 C   0  0  0  0  0  0  0  0  0  0  0  0
  145.2286  137.9500  152.3640 N   0  0  0  0  0  0  0  0  0  0  0  0
  146.3191  138.5042  152.9097 C   0  0  0  0  0  0  0  0  0  0  0  0
  147.3320  137.8655  153.1956 O   0  0  0  0  0  0  0  0  0  0  0  0
  146.1566  139.8241  153.0976 N   0  0  0  0  0  0  0  0  0  0  0  0
  147.0920  140.7365  153.6483 C   0  0  0  0  0  0  0  0  0  0  0  0
  148.5036  140.5781  153.5970 C   0  0  0  0  0  0  0  0  0  0  0  0
  149.1256  141.5849  154.1935 N   0  0  0  0  0  0  0  0  0  0  0  0
  148.1245  142.3842  154.6261 N   0  0  0  0  0  0  0  0  0  0  0  0
  146.8696  141.9076  154.3169 C   0  0  0  0  0  0  0  0  0  0  0  0
  143.5843  134.7772  151.1123 N   0  3  0  0  0  0  0  0  0  0  0  0
  144.5890  134.4952  150.0632 C   0  0  0  0  0  0  0  0  0  0  0  0
  144.6625  132.9752  149.9823 C   0  0  0  0  0  0  0  0  0  0  0  0
  144.5043  132.5472  151.4361 C   0  0  0  0  0  0  0  0  0  0  0  0
  143.6573  133.6529  152.0810 C   0  0  0  0  0  0  0  0  0  0  0  0
  148.3116  143.2417  155.1260 H   0  0  0  0  0  0  0  0  0  0  0  0
  142.7897  137.2250  153.4266 H   0  0  0  0  0  0  0  0  0  0  0  0
  143.0611  135.5149  153.7327 H   0  0  0  0  0  0  0  0  0  0  0  0
  141.6997  136.0481  152.7488 H   0  0  0  0  0  0  0  0  0  0  0  0
  143.2521  136.8457  150.9772 H   0  0  0  0  0  0  0  0  0  0  0  0
  145.4616  135.9419  152.8896 H   0  0  0  0  0  0  0  0  0  0  0  0
  145.7645  136.3210  151.2070 H   0  0  0  0  0  0  0  0  0  0  0  0
  144.4383  138.5442  152.1595 H   0  0  0  0  0  0  0  0  0  0  0  0
  145.2707  140.2197  152.8187 H   0  0  0  0  0  0  0  0  0  0  0  0
  149.0857  139.7825  153.1558 H   0  0  0  0  0  0  0  0  0  0  0  0
  145.9676  142.4320  154.5946 H   0  0  0  0  0  0  0  0  0  0  0  0
  144.3172  134.9407  149.1057 H   0  0  0  0  0  0  0  0  0  0  0  0
  145.5591  134.8944  150.3642 H   0  0  0  0  0  0  0  0  0  0  0  0
  143.8297  132.5939  149.3897 H   0  0  0  0  0  0  0  0  0  0  0  0
  145.5892  132.6176  149.5323 H   0  0  0  0  0  0  0  0  0  0  0  0
  144.0510  131.5602  151.5325 H   0  0  0  0  0  0  0  0  0  0  0  0
  145.4835  132.5092  151.9153 H   0  0  0  0  0  0  0  0  0  0  0  0
  144.1136  133.9588  153.0235 H   0  0  0  0  0  0  0  0  0  0  0  0
  142.6478  133.3027  152.2985 H   0  0  0  0  0  0  0  0  0  0  0  0
  142.6862  134.6925  150.6579 H   0  0  0  0  0  0  0  0  0  0  0  0
  1  2  1  0  0  0  0
  1 19  1  0  0  0  0
  1 20  1  0  0  0  0
  1 21  1  0  0  0  0
  2  3  1  0  0  0  0
  2 13  1  0  0  0  0
  2 22  1  0  0  0  0
  3  4  1  0  0  0  0
  3 23  1  0  0  0  0
  3 24  1  0  0  0  0
  4  5  1  0  0  0  0
  4 25  1  0  0  0  0
  5  6  2  0  0  0  0
  5  7  1  0  0  0  0
  7  8  1  0  0  0  0
  7 26  1  0  0  0  0
  8 12  2  0  0  0  0
  8  9  1  0  0  0  0
  9 10  2  0  0  0  0
  9 27  1  0  0  0  0
 10 11  1  0  0  0  0
 11 18  1  0  0  0  0
 11 12  1  0  0  0  0
 12 28  1  0  0  0  0
 13 17  1  0  0  0  0
 13 14  1  0  0  0  0
 13 37  1  0  0  0  0
 14 15  1  0  0  0  0
 14 29  1  0  0  0  0
 14 30  1  0  0  0  0
 15 16  1  0  0  0  0
 15 31  1  0  0  0  0
 15 32  1  0  0  0  0
 16 17  1  0  0  0  0
 16 33  1  0  0  0  0
 16 34  1  0  0  0  0
 17 35  1  0  0  0  0
 17 36  1  0  0  0  0
M  CHG  1  13   1
M  END
> <s_m_source_file>
AV-unprocessed.smi

> <i_m_source_file_index>
3167

> <i_lp_mmshare_version>
43012

> <i_f3d_flags>
0

> <s_epik_input>
W0NIMl0xW0NIMl1bQ0gyXVtDSDJdTjFbQ0BIXShbQ0gzXSlbQ0gyXVtOSF1DKD1PKVtOSF1jMltjSF1uW25IXVtjSF0y

> <s_epik_cmdline>
J2VwaWtfcHl0aG9uJywgJy1waCcsICc3LjAnLCAnLXRuJywgJzgnLCAnLW1hJywgJzIwMCcsICctbWV0YWxfYmluZGluZycsICctaW1hZScsICc8aW5maWxlLm1hZT4nLCAnLW9tYWUnLCAnPG91dGZpbGUubWFlPic=

> <r_lp_tautomer_probability>
0.5

> <r_epik_Ionization_Penalty>
0.000801258

> <r_epik_Ionization_Penalty_Charging>
0.000761583

> <r_epik_Ionization_Penalty_Neutral>
3.96747e-05

> <r_epik_State_Penalty>
0.000487427

> <r_epik_Charging_Adjusted_Penalty>
0.00124901

> <i_epik_Tot_Q>
1

> <i_epik_Tot_abs_Q>
1

> <r_epik_Metal_State_Penalty>
-0

> <b_epik_Metal_Only>
0

> <s_lp_Force_Field>
OPLS_2005

> <r_lp_Energy>
33.9812

> <b_lp_Chiralities_Consistent>
1

> <s_lp_Variant>
AV-unprocessed.smi:3167-2

> <Gold.Version>
5.8.1

> <Gold.Id.Protein>
6NUR|6NUR_protein|mol2

> <Gold.PLP.Fitness>
42.3566

> <Gold.PLP.PLP>
-26.3958

> <Gold.PLP.part.hbond>
-6.6782

> <Gold.PLP.part.metal>
0.0000

> <Gold.PLP.part.buried>
-0.2255

> <Gold.PLP.part.nonpolar>
-23.5865

> <Gold.PLP.part.repulsive>
3.5729

> <Gold.PLP.ligand.clash>
0.0000

> <Gold.PLP.ligand.torsion>
0.5282

> <Gold.PLP.Chemscore.Hbond>
5.0165

> <Gold.PLP.Chemscore.CHOScore>
0.6463

> <Gold.PLP.Chemscore.Metal>
0.0000

> <Gold.Chemscore.Hbonds>
donor molecule, donor type, donor heavy atom, donor atom, acceptor molecule, acceptor atom, score
      L1  H     4    25       P1 10175  0.80
      L1  H     7    26       P1 10175  1.00
      L1  H    11    18       P1  8028  1.00
      L1  H    13    37       P1 10186  1.70
      P1  H  8011  8017       L1    10  0.28
      L1  C     9    27       P1  7957  0.72

> <Gold.PLP.Chemscore.Internal.Correction>
0.0288

> <Gold.Rescore>
     Score         DG    S(hbond)    S(metal)    S(lipo)     H(rot)  DE(clash)    DE(int)     intcor
     14.45     -18.05       2.90        0.00      60.47       1.63       2.25       1.36       ----

> <Gold.Chemscore.Fitness>
14.4472

> <Gold.Chemscore.DG>
-18.0538

> <Gold.Chemscore.ZeroCoef>
-5.4800

> <Gold.Chemscore.Hbond>
2.8966

> <Gold.Chemscore.Metal>
0.0000

> <Gold.Chemscore.Lipo>
60.4685

> <Gold.Chemscore.Internal_Hbond>
0.0000

> <Gold.Chemscore.DEClash>
2.2496

> <Gold.Chemscore.DEInternal>
1.3570

> <Gold.Chemscore.Rot>
1.6311

> <Gold.Chemscore.Internal.Correction>
   9.000000E+99

> <Gold.Chemscore.Hbonds>
donor molecule, donor type, donor heavy atom, donor atom, acceptor molecule, acceptor atom, score
      L1  H     4    25       P1 10175  0.75
      L1  H     7    26       P1 10175  0.97
      L1  H    11    18       P1  8028  0.98
      L1  H    13    37       P1 10186  0.14
      P1  H  8011  8017       L1    10  0.01

> <Gold.Chemscore.Hbond.Weighted>
-9.6747

> <Gold.Chemscore.Metal.Weighted>
-0.0000

> <Gold.Chemscore.Lipo.Weighted>
-7.0748

> <Gold.Chemscore.Internal_Hbond.Weighted>
0.0000

> <Gold.Chemscore.DEClash.Weighted>
2.2496

> <Gold.Chemscore.DEInternal.Weighted>
1.3570

> <Gold.Chemscore.Rot.Weighted>
4.1757

> <Gold.Chemscore.Internal.Correction.Weighted>
   9.000000E+99

> <Gold.Protein.RotatedTorsions>
[ 6907 6896 6895 6894 ] final -172.76 input  -60.11 | X-H torsion
[ 7974 7965 7964 7962 ] final   40.49 input  175.53 | X-H torsion
[ 8008 7997 7996 7995 ] final   31.39 input   59.86 | X-H torsion
[ 10167 10162 10161 10158 ] final  158.66 input  -65.29 | X-H torsion
[ 10718 10713 10712 10709 ] final -138.57 input   66.30 | X-H torsion
[ 10763 10752 10751 10750 ] final -146.46 input  -60.55 | X-H torsion
[ 11005 11000 10999 10996 ] final   65.14 input  -57.11 | X-H torsion

> <Gold.Protein.ActiveResidues>
 VAL166  LYS551  ARG553  GLY616  TRP617  ASP618  TYR619  PRO620  LYS621  CYS622 
 ASP623  PHE694  ASN695  SER759  ASP760  ASP761  ALA762  ILE779  LEU786  VAL792 
 PHE793  MET794  SER795  GLU796  ALA797  LYS798  CYS799  TRP800  GLU811  SER814 

> <Gold.Protein.RotatedAtoms>
  151.5453  133.3426  159.2942 H   0  0  0  0  0  0  0  0  0  0  0  0  # atno 6907 bound_to 6896
  150.8511  134.7839  159.7020 H   0  0  0  0  0  0  0  0  0  0  0  0  # atno 6908 bound_to 6896
  152.4557  134.5305  159.9861 H   0  0  0  0  0  0  0  0  0  0  0  0  # atno 6909 bound_to 6896
  146.0901  139.5527  142.9481 H   0  0  0  0  0  0  0  0  0  0  0  0  # atno 7974 bound_to 7965
  155.1057  140.3234  155.4535 H   0  0  0  0  0  0  0  0  0  0  0  0  # atno 8008 bound_to 7997
  156.2705  140.2053  156.6129 H   0  0  0  0  0  0  0  0  0  0  0  0  # atno 8009 bound_to 7997
  154.6795  140.0528  157.0237 H   0  0  0  0  0  0  0  0  0  0  0  0  # atno 8010 bound_to 7997
  139.4828  144.4803  151.8453 H   0  0  0  0  0  0  0  0  0  0  0  0  # atno 10167 bound_to 10162
  156.3008  130.7427  151.1479 H   0  0  0  0  0  0  0  0  0  0  0  0  # atno 10718 bound_to 10713
  154.8335  135.3386  154.6664 H   0  0  0  0  0  0  0  0  0  0  0  0  # atno 10763 bound_to 10752
  153.7282  135.6954  153.5000 H   0  0  0  0  0  0  0  0  0  0  0  0  # atno 10764 bound_to 10752
  153.2332  135.4409  155.0570 H   0  0  0  0  0  0  0  0  0  0  0  0  # atno 10765 bound_to 10752
  139.9914  134.6586  156.0085 H   0  0  0  0  0  0  0  0  0  0  0  0  # atno 11005 bound_to 11000
  145.6056  141.0348  143.1995 LP  0  0  0  0  0  0  0  0  0  0  0  0  # atno 17320 bound_to 7965
  144.7354  139.7602  143.7331 LP  0  0  0  0  0  0  0  0  0  0  0  0  # atno 17321 bound_to 7965
  140.4279  144.2156  150.5887 LP  0  0  0  0  0  0  0  0  0  0  0  0  # atno 17342 bound_to 10162
  140.4809  143.2379  151.8957 LP  0  0  0  0  0  0  0  0  0  0  0  0  # atno 17343 bound_to 10162
  157.7367  131.0559  150.5397 LP  0  0  0  0  0  0  0  0  0  0  0  0  # atno 17370 bound_to 10713
  156.5524  130.4235  149.6101 LP  0  0  0  0  0  0  0  0  0  0  0  0  # atno 17371 bound_to 10713
  141.1569  133.6542  156.4189 LP  0  0  0  0  0  0  0  0  0  0  0  0  # atno 17394 bound_to 11000
  140.4902  134.6583  157.5207 LP  0  0  0  0  0  0  0  0  0  0  0  0  # atno 17395 bound_to 11000

$$$$
