AV-unprocessed.smi:96|AV-procd|sdf|859|dock5
  -GOLD-   2262017303D 1   1.00000     0.00000
 Structure written by MMmdl.
 43 46  0  0  0  0  0  0  0  0  1 V2000
  151.6187  136.3565  156.0273 O   0  0  0  0  0  0  0  0  0  0  0  0
  150.9098  136.6381  155.0602 C   0  0  0  0  0  0  0  0  0  0  0  0
  150.8260  138.0850  154.5479 C   0  0  0  0  0  0  0  0  0  0  0  0
  150.3612  139.0526  155.5665 N   0  0  0  0  0  0  0  0  0  0  0  0
  148.9911  139.0519  155.9290 C   0  0  0  0  0  0  0  0  0  0  0  0
  148.1908  138.2784  155.4008 O   0  0  0  0  0  0  0  0  0  0  0  0
  148.6127  140.0087  156.9623 C   0  0  0  0  0  0  0  0  0  0  0  0
  147.3369  140.0681  157.3803 F   0  0  0  0  0  0  0  0  0  0  0  0
  149.5263  140.8356  157.5106 C   0  0  0  0  0  0  0  0  0  0  0  0
  150.8548  140.8418  157.1333 N   0  0  0  0  0  0  0  0  0  0  0  0
  151.8174  141.7699  157.8376 C   0  0  2  0  0  0  0  0  0  0  0  0
  152.9085  141.0348  158.6391 C   0  0  0  0  0  0  0  0  0  0  0  0
  152.7066  141.5617  160.0504 C   0  0  0  0  0  0  0  0  0  0  0  0
  151.9522  142.8668  159.8214 C   0  0  0  0  0  0  0  0  0  0  0  0
  151.0977  142.5634  158.7300 O   0  0  0  0  0  0  0  0  0  0  0  0
  151.3094  139.9166  156.1652 C   0  0  0  0  0  0  0  0  0  0  0  0
  152.5002  139.8563  155.8543 O   0  0  0  0  0  0  0  0  0  0  0  0
  150.1437  135.7552  154.3934 N   0  0  0  0  0  0  0  0  0  0  0  0
  149.9990  134.3582  154.6115 C   0  0  0  0  0  0  0  0  0  0  0  0
  150.7237  133.6406  155.6068 C   0  0  0  0  0  0  0  0  0  0  0  0
  150.5514  132.2464  155.7639 C   0  0  0  0  0  0  0  0  0  0  0  0
  149.6548  131.5943  154.9030 C   0  0  0  0  0  0  0  0  0  0  0  0
  148.9620  132.2800  153.9278 C   0  0  0  0  0  0  0  0  0  0  0  0
  149.1145  133.6646  153.7505 C   0  0  0  0  0  0  0  0  0  0  0  0
  148.1760  131.4159  153.2358 O   0  0  0  0  0  0  0  0  0  0  0  0
  148.3948  130.1535  153.8108 C   0  0  0  0  0  0  0  0  0  0  0  0
  149.3259  130.2783  154.8549 O   0  0  0  0  0  0  0  0  0  0  0  0
  151.8044  138.3718  154.1587 H   0  0  0  0  0  0  0  0  0  0  0  0
  150.1793  138.1018  153.6691 H   0  0  0  0  0  0  0  0  0  0  0  0
  149.1949  141.5220  158.2762 H   0  0  0  0  0  0  0  0  0  0  0  0
  152.2470  142.4044  157.0610 H   0  0  0  0  0  0  0  0  0  0  0  0
  152.8202  139.9502  158.5720 H   0  0  0  0  0  0  0  0  0  0  0  0
  153.8832  141.3261  158.2464 H   0  0  0  0  0  0  0  0  0  0  0  0
  152.0879  140.8717  160.6251 H   0  0  0  0  0  0  0  0  0  0  0  0
  153.6432  141.7032  160.5902 H   0  0  0  0  0  0  0  0  0  0  0  0
  151.3882  143.1877  160.6974 H   0  0  0  0  0  0  0  0  0  0  0  0
  152.6367  143.6679  159.5379 H   0  0  0  0  0  0  0  0  0  0  0  0
  149.5428  136.1453  153.6819 H   0  0  0  0  0  0  0  0  0  0  0  0
  151.4304  134.1379  156.2529 H   0  0  0  0  0  0  0  0  0  0  0  0
  151.0979  131.6989  156.5176 H   0  0  0  0  0  0  0  0  0  0  0  0
  148.5638  134.1820  152.9784 H   0  0  0  0  0  0  0  0  0  0  0  0
  147.4552  129.7632  154.2035 H   0  0  0  0  0  0  0  0  0  0  0  0
  148.7830  129.4700  153.0549 H   0  0  0  0  0  0  0  0  0  0  0  0
  1  2  2  0  0  0  0
  2  3  1  0  0  0  0
  2 18  1  0  0  0  0
  3  4  1  0  0  0  0
  3 28  1  0  0  0  0
  3 29  1  0  0  0  0
  4 16  1  0  0  0  0
  4  5  1  0  0  0  0
  5  6  2  0  0  0  0
  5  7  1  0  0  0  0
  7  8  1  0  0  0  0
  7  9  2  0  0  0  0
  9 10  1  0  0  0  0
  9 30  1  0  0  0  0
 10 11  1  0  0  0  0
 10 16  1  0  0  0  0
 11 15  1  0  0  0  0
 11 12  1  0  0  0  0
 11 31  1  0  0  0  0
 12 13  1  0  0  0  0
 12 32  1  0  0  0  0
 12 33  1  0  0  0  0
 13 14  1  0  0  0  0
 13 34  1  0  0  0  0
 13 35  1  0  0  0  0
 14 15  1  0  0  0  0
 14 36  1  0  0  0  0
 14 37  1  0  0  0  0
 16 17  2  0  0  0  0
 18 19  1  0  0  0  0
 18 38  1  0  0  0  0
 19 24  1  0  0  0  0
 19 20  2  0  0  0  0
 20 21  1  0  0  0  0
 20 39  1  0  0  0  0
 21 22  2  0  0  0  0
 21 40  1  0  0  0  0
 22 27  1  0  0  0  0
 22 23  1  0  0  0  0
 23 24  2  0  0  0  0
 23 25  1  0  0  0  0
 24 41  1  0  0  0  0
 25 26  1  0  0  0  0
 26 27  1  0  0  0  0
 26 42  1  0  0  0  0
 26 43  1  0  0  0  0
M  END
> <s_m_source_file>
AV-unprocessed.smi

> <i_m_source_file_index>
96

> <i_lp_mmshare_version>
43012

> <i_f3d_flags>
0

> <s_epik_input>
TzFbQ0gyXU9jKGMxMilbY0hdYyhbY0hdW2NIXTIpW05IXUMoPU8pW0NIMl1uM2MoPU8pYyhGKVtjSF1uKGMzPU8pW0NAQEhdNFtDSDJdW0NIMl1bQ0gyXU80

> <s_epik_cmdline>
J2VwaWtfcHl0aG9uJywgJy1waCcsICc3LjAnLCAnLXRuJywgJzgnLCAnLW1hJywgJzIwMCcsICctbWV0YWxfYmluZGluZycsICctaW1hZScsICc8aW5maWxlLm1hZT4nLCAnLW9tYWUnLCAnPG91dGZpbGUubWFlPic=

> <r_lp_tautomer_probability>
1

> <r_epik_Ionization_Penalty>
1.04778e-05

> <r_epik_Ionization_Penalty_Charging>
3.88729e-08

> <r_epik_Ionization_Penalty_Neutral>
1.04389e-05

> <r_epik_State_Penalty>
-0

> <r_epik_Charging_Adjusted_Penalty>
3.88729e-08

> <i_epik_Tot_Q>
0

> <i_epik_Tot_abs_Q>
0

> <r_epik_Metal_State_Penalty>
-0

> <b_epik_Metal_Only>
0

> <s_epik_Chemistry_Notes>
This compound contains an acetal/aminal-like group ( X-CH(R)-Y where X, Y are N, S, or O) that may be acid/base labile, releasing an aldehyde.

> <s_lp_Force_Field>
OPLS_2005

> <r_lp_Energy>
41.3846

> <b_lp_Chiralities_Consistent>
1

> <s_lp_Variant>
AV-unprocessed.smi:96-1

> <Gold.Version>
5.8.1

> <Gold.Id.Protein>
6NUR|6NUR_protein|mol2

> <Gold.PLP.Fitness>
48.0219

> <Gold.PLP.PLP>
-39.7117

> <Gold.PLP.part.hbond>
-3.8487

> <Gold.PLP.part.metal>
0.0000

> <Gold.PLP.part.buried>
-4.4864

> <Gold.PLP.part.nonpolar>
-30.5532

> <Gold.PLP.part.repulsive>
0.4356

> <Gold.PLP.ligand.clash>
0.0000

> <Gold.PLP.ligand.torsion>
0.2006

> <Gold.PLP.Chemscore.Hbond>
2.8920

> <Gold.PLP.Chemscore.CHOScore>
0.0000

> <Gold.PLP.Chemscore.Metal>
0.0000

> <Gold.Chemscore.Hbonds>
donor molecule, donor type, donor heavy atom, donor atom, acceptor molecule, acceptor atom, score
      L1  H    18    38       P1  7948  0.98
      P1  H  7997  8008       L1    17  1.00
      P1  H 10752 10765       L1     1  0.90

> <Gold.PLP.Chemscore.Internal.Correction>
0.0353

> <Gold.Rescore>
     Score         DG    S(hbond)    S(metal)    S(lipo)     H(rot)  DE(clash)    DE(int)     intcor
     14.76     -17.28       2.39        0.00      73.09       1.85       0.15       2.37       ----

> <Gold.Chemscore.Fitness>
14.7612

> <Gold.Chemscore.DG>
-17.2833

> <Gold.Chemscore.ZeroCoef>
-5.4800

> <Gold.Chemscore.Hbond>
2.3913

> <Gold.Chemscore.Metal>
0.0000

> <Gold.Chemscore.Lipo>
73.0926

> <Gold.Chemscore.Internal_Hbond>
0.0000

> <Gold.Chemscore.DEClash>
0.1507

> <Gold.Chemscore.DEInternal>
2.3714

> <Gold.Chemscore.Rot>
1.8497

> <Gold.Chemscore.Internal.Correction>
   9.000000E+99

> <Gold.Chemscore.Hbonds>
donor molecule, donor type, donor heavy atom, donor atom, acceptor molecule, acceptor atom, score
      L1  H    18    38       P1  7948  0.52
      P1  H  7997  8008       L1    17  1.00
      P1  H 10752 10765       L1     1  0.17

> <Gold.Chemscore.Hbond.Weighted>
-7.9868

> <Gold.Chemscore.Metal.Weighted>
-0.0000

> <Gold.Chemscore.Lipo.Weighted>
-8.5518

> <Gold.Chemscore.Internal_Hbond.Weighted>
0.0000

> <Gold.Chemscore.DEClash.Weighted>
0.1507

> <Gold.Chemscore.DEInternal.Weighted>
2.3714

> <Gold.Chemscore.Rot.Weighted>
4.7354

> <Gold.Chemscore.Internal.Correction.Weighted>
   9.000000E+99

> <Gold.Protein.RotatedTorsions>
[ 6907 6896 6895 6894 ] final   31.22 input  -60.11 | X-H torsion
[ 7974 7965 7964 7962 ] final -110.39 input  175.53 | X-H torsion
[ 8008 7997 7996 7995 ] final  -28.94 input   59.86 | X-H torsion
[ 10167 10162 10161 10158 ] final  120.91 input  -65.29 | X-H torsion
[ 10718 10713 10712 10709 ] final  -12.39 input   66.30 | X-H torsion
[ 10763 10752 10751 10750 ] final -152.53 input  -60.55 | X-H torsion
[ 11005 11000 10999 10996 ] final   70.39 input  -57.11 | X-H torsion

> <Gold.Protein.ActiveResidues>
 VAL166  LYS551  ARG553  GLY616  TRP617  ASP618  TYR619  PRO620  LYS621  CYS622 
 ASP623  PHE694  ASN695  SER759  ASP760  ASP761  ALA762  ILE779  LEU786  VAL792 
 PHE793  MET794  SER795  GLU796  ALA797  LYS798  CYS799  TRP800  GLU811  SER814 

> <Gold.Protein.RotatedAtoms>
  152.0571  134.9617  160.0574 H   0  0  0  0  0  0  0  0  0  0  0  0  # atno 6907 bound_to 6896
  152.0995  133.4238  159.4589 H   0  0  0  0  0  0  0  0  0  0  0  0  # atno 6908 bound_to 6896
  150.6839  134.2696  159.4626 H   0  0  0  0  0  0  0  0  0  0  0  0  # atno 6909 bound_to 6896
  145.1688  140.8915  143.3547 H   0  0  0  0  0  0  0  0  0  0  0  0  # atno 7974 bound_to 7965
  154.4311  140.1832  156.1169 H   0  0  0  0  0  0  0  0  0  0  0  0  # atno 8008 bound_to 7997
  156.0174  140.3344  155.6978 H   0  0  0  0  0  0  0  0  0  0  0  0  # atno 8009 bound_to 7997
  155.6025  140.0642  157.2720 H   0  0  0  0  0  0  0  0  0  0  0  0  # atno 8010 bound_to 7997
  139.5953  144.7039  151.3192 H   0  0  0  0  0  0  0  0  0  0  0  0  # atno 10167 bound_to 10162
  156.6453  130.4939  149.6080 H   0  0  0  0  0  0  0  0  0  0  0  0  # atno 10718 bound_to 10713
  154.7988  135.3234  154.7601 H   0  0  0  0  0  0  0  0  0  0  0  0  # atno 10763 bound_to 10752
  153.8274  135.6882  153.4823 H   0  0  0  0  0  0  0  0  0  0  0  0  # atno 10764 bound_to 10752
  153.1693  135.4629  154.9823 H   0  0  0  0  0  0  0  0  0  0  0  0  # atno 10765 bound_to 10752
  139.9600  134.7077  156.0666 H   0  0  0  0  0  0  0  0  0  0  0  0  # atno 11005 bound_to 11000
  145.0254  139.3387  143.6051 LP  0  0  0  0  0  0  0  0  0  0  0  0  # atno 17320 bound_to 7965
  146.3472  139.9571  142.8722 LP  0  0  0  0  0  0  0  0  0  0  0  0  # atno 17321 bound_to 7965
  140.7206  143.7145  150.7743 LP  0  0  0  0  0  0  0  0  0  0  0  0  # atno 17342 bound_to 10162
  140.0710  143.5061  152.2580 LP  0  0  0  0  0  0  0  0  0  0  0  0  # atno 17343 bound_to 10162
  156.2127  130.6688  151.1286 LP  0  0  0  0  0  0  0  0  0  0  0  0  # atno 17370 bound_to 10713
  157.7158  131.0710  150.6331 LP  0  0  0  0  0  0  0  0  0  0  0  0  # atno 17371 bound_to 10713
  141.1276  133.6595  156.3379 LP  0  0  0  0  0  0  0  0  0  0  0  0  # atno 17394 bound_to 11000
  140.5521  134.6017  157.5410 LP  0  0  0  0  0  0  0  0  0  0  0  0  # atno 17395 bound_to 11000

$$$$
