AV-unprocessed.smi:1304|AV-procd|sdf|5432|dock9
  -GOLD-   22720 4593D 1   1.00000     0.00000
 Structure written by MMmdl.
 48 49  0  0  0  0  0  0  0  0  2 V2000
  149.9141  135.2617  156.0231 C   0  0  0  0  0  0  0  0  0  0  0  0
  150.6662  135.9658  157.1666 C   0  0  0  0  0  0  0  0  0  0  0  0
  149.9680  137.2291  157.7587 C   0  0  2  0  0  0  0  0  0  0  0  0
  150.6414  137.5270  159.1248 C   0  0  0  0  0  0  0  0  0  0  0  0
  148.4521  136.9394  157.9987 C   0  0  0  0  0  0  0  0  0  0  0  0
  148.2083  135.8923  158.9897 N   0  0  0  0  0  0  0  0  0  0  0  0
  148.0094  136.0875  160.3024 C   0  0  0  0  0  0  0  0  0  0  0  0
  148.0596  137.1951  160.8378 O   0  0  0  0  0  0  0  0  0  0  0  0
  147.7052  134.8357  161.1350 C   0  0  0  0  0  0  0  0  0  0  0  0
  146.3527  134.8652  161.7158 N   0  0  0  0  0  0  0  0  0  0  0  0
  145.7600  136.1293  161.9077 C   0  0  0  0  0  0  0  0  0  0  0  0
  144.5284  136.2645  162.4244 C   0  0  0  0  0  0  0  0  0  0  0  0
  143.8053  135.0691  162.7881 C   0  0  0  0  0  0  0  0  0  0  0  0
  144.3622  133.8548  162.6076 C   0  0  0  0  0  0  0  0  0  0  0  0
  145.7078  133.7019  162.0425 C   0  0  0  0  0  0  0  0  0  0  0  0
  146.2233  132.5964  161.8707 O   0  0  0  0  0  0  0  0  0  0  0  0
  150.1438  138.3962  156.8189 N   0  3  0  0  0  0  0  0  0  0  0  0
  151.5183  138.9686  156.7437 C   0  0  0  0  0  0  0  0  0  0  0  0
  151.5150  140.2718  155.9287 C   0  0  0  0  0  0  0  0  0  0  0  0
  151.0110  140.0154  154.6255 O   0  0  0  0  0  0  0  0  0  0  0  0
  149.6711  139.5443  154.6630 C   0  0  0  0  0  0  0  0  0  0  0  0
  149.6040  138.2190  155.4410 C   0  0  0  0  0  0  0  0  0  0  0  0
  150.4874  134.4073  155.6625 H   0  0  0  0  0  0  0  0  0  0  0  0
  149.7549  135.9242  155.1726 H   0  0  0  0  0  0  0  0  0  0  0  0
  148.9431  134.8856  156.3448 H   0  0  0  0  0  0  0  0  0  0  0  0
  150.8731  135.2401  157.9528 H   0  0  0  0  0  0  0  0  0  0  0  0
  151.6497  136.2373  156.7832 H   0  0  0  0  0  0  0  0  0  0  0  0
  150.7284  136.6278  159.7362 H   0  0  0  0  0  0  0  0  0  0  0  0
  150.0692  138.2420  159.7160 H   0  0  0  0  0  0  0  0  0  0  0  0
  151.6473  137.9296  159.0035 H   0  0  0  0  0  0  0  0  0  0  0  0
  147.9488  137.8330  158.3661 H   0  0  0  0  0  0  0  0  0  0  0  0
  147.9484  136.6779  157.0680 H   0  0  0  0  0  0  0  0  0  0  0  0
  148.1558  134.9448  158.6437 H   0  0  0  0  0  0  0  0  0  0  0  0
  147.8253  133.9392  160.5231 H   0  0  0  0  0  0  0  0  0  0  0  0
  148.4634  134.7548  161.9149 H   0  0  0  0  0  0  0  0  0  0  0  0
  146.3626  136.9730  161.6044 H   0  0  0  0  0  0  0  0  0  0  0  0
  144.0887  137.2416  162.5612 H   0  0  0  0  0  0  0  0  0  0  0  0
  142.8126  135.1485  163.2060 H   0  0  0  0  0  0  0  0  0  0  0  0
  143.8057  132.9715  162.8853 H   0  0  0  0  0  0  0  0  0  0  0  0
  151.9152  139.1889  157.7326 H   0  0  0  0  0  0  0  0  0  0  0  0
  152.2003  138.2601  156.2733 H   0  0  0  0  0  0  0  0  0  0  0  0
  150.9181  141.0406  156.4218 H   0  0  0  0  0  0  0  0  0  0  0  0
  152.5292  140.6620  155.8423 H   0  0  0  0  0  0  0  0  0  0  0  0
  149.0211  140.2945  155.1167 H   0  0  0  0  0  0  0  0  0  0  0  0
  149.3214  139.3975  153.6409 H   0  0  0  0  0  0  0  0  0  0  0  0
  150.1698  137.4539  154.9091 H   0  0  0  0  0  0  0  0  0  0  0  0
  148.5633  137.9002  155.4530 H   0  0  0  0  0  0  0  0  0  0  0  0
  149.5768  139.1272  157.2245 H   0  0  0  0  0  0  0  0  0  0  0  0
  1  2  1  0  0  0  0
  1 23  1  0  0  0  0
  1 24  1  0  0  0  0
  1 25  1  0  0  0  0
  2  3  1  0  0  0  0
  2 26  1  0  0  0  0
  2 27  1  0  0  0  0
  3  4  1  0  0  0  0
  3  5  1  0  0  0  0
  3 17  1  0  0  0  0
  4 28  1  0  0  0  0
  4 29  1  0  0  0  0
  4 30  1  0  0  0  0
  5  6  1  0  0  0  0
  5 31  1  0  0  0  0
  5 32  1  0  0  0  0
  6  7  1  0  0  0  0
  6 33  1  0  0  0  0
  7  8  2  0  0  0  0
  7  9  1  0  0  0  0
  9 10  1  0  0  0  0
  9 34  1  0  0  0  0
  9 35  1  0  0  0  0
 10 15  1  0  0  0  0
 10 11  1  0  0  0  0
 11 12  2  0  0  0  0
 11 36  1  0  0  0  0
 12 13  1  0  0  0  0
 12 37  1  0  0  0  0
 13 14  2  0  0  0  0
 13 38  1  0  0  0  0
 14 15  1  0  0  0  0
 14 39  1  0  0  0  0
 15 16  2  0  0  0  0
 17 22  1  0  0  0  0
 17 18  1  0  0  0  0
 17 48  1  0  0  0  0
 18 19  1  0  0  0  0
 18 40  1  0  0  0  0
 18 41  1  0  0  0  0
 19 20  1  0  0  0  0
 19 42  1  0  0  0  0
 19 43  1  0  0  0  0
 20 21  1  0  0  0  0
 21 22  1  0  0  0  0
 21 44  1  0  0  0  0
 21 45  1  0  0  0  0
 22 46  1  0  0  0  0
 22 47  1  0  0  0  0
M  CHG  1  17   1
M  END
> <s_m_source_file>
AV-unprocessed.smi

> <i_m_source_file_index>
1304

> <i_lp_mmshare_version>
43012

> <i_f3d_flags>
0

> <s_epik_input>
W0NIMl0xW0NIMl1PW0NIMl1bQ0gyXU4xW0NAQF0oW0NIM10pKFtDSDJdW0NIM10pW0NIMl1bTkhdQyg9TylbQ0gyXW4yW2NIXVtjSF1bY0hdW2NIXWMyPU8=

> <s_epik_cmdline>
J2VwaWtfcHl0aG9uJywgJy1waCcsICc3LjAnLCAnLXRuJywgJzgnLCAnLW1hJywgJzIwMCcsICctbWV0YWxfYmluZGluZycsICctaW1hZScsICc8aW5maWxlLm1hZT4nLCAnLW9tYWUnLCAnPG91dGZpbGUubWFlPic=

> <r_lp_tautomer_probability>
1

> <r_epik_Ionization_Penalty>
0.519658

> <r_epik_Ionization_Penalty_Charging>
0.519658

> <r_epik_Ionization_Penalty_Neutral>
8.70177e-08

> <r_epik_State_Penalty>
0.527569

> <r_epik_Charging_Adjusted_Penalty>
1.04723

> <i_epik_Tot_Q>
1

> <i_epik_Tot_abs_Q>
1

> <r_epik_Metal_State_Penalty>
0.527613

> <b_epik_Metal_Only>
0

> <s_lp_Force_Field>
OPLS_2005

> <r_lp_Energy>
37.518

> <b_lp_Chiralities_Consistent>
1

> <s_lp_Variant>
AV-unprocessed.smi:1304-4

> <Gold.Version>
5.8.1

> <Gold.Id.Protein>
6NUR|6NUR_protein|mol2

> <Gold.PLP.Fitness>
40.0666

> <Gold.PLP.PLP>
-33.7450

> <Gold.PLP.part.hbond>
-3.0000

> <Gold.PLP.part.metal>
0.0000

> <Gold.PLP.part.buried>
-6.1678

> <Gold.PLP.part.nonpolar>
-24.9759

> <Gold.PLP.part.repulsive>
0.2234

> <Gold.PLP.ligand.clash>
0.0000

> <Gold.PLP.ligand.torsion>
0.8767

> <Gold.PLP.Chemscore.Hbond>
2.6000

> <Gold.PLP.Chemscore.CHOScore>
0.0000

> <Gold.PLP.Chemscore.Metal>
0.0000

> <Gold.Chemscore.Hbonds>
donor molecule, donor type, donor heavy atom, donor atom, acceptor molecule, acceptor atom, score
      P1  H  6931  6943       L1     8  0.88
      P1  H  6934  6947       L1     8  0.72
      P1  H  7989  7998       L1    20  1.00

> <Gold.PLP.Chemscore.Internal.Correction>
0.2751

> <Gold.Rescore>
     Score         DG    S(hbond)    S(metal)    S(lipo)     H(rot)  DE(clash)    DE(int)     intcor
     14.19     -16.75       2.61        0.00      66.10       2.03       0.01       2.55       ----

> <Gold.Chemscore.Fitness>
14.1914

> <Gold.Chemscore.DG>
-16.7475

> <Gold.Chemscore.ZeroCoef>
-5.4800

> <Gold.Chemscore.Hbond>
2.6138

> <Gold.Chemscore.Metal>
0.0000

> <Gold.Chemscore.Lipo>
66.0997

> <Gold.Chemscore.Internal_Hbond>
0.0000

> <Gold.Chemscore.DEClash>
0.0073

> <Gold.Chemscore.DEInternal>
2.5488

> <Gold.Chemscore.Rot>
2.0298

> <Gold.Chemscore.Internal.Correction>
   9.000000E+99

> <Gold.Chemscore.Hbonds>
donor molecule, donor type, donor heavy atom, donor atom, acceptor molecule, acceptor atom, score
      P1  H  6931  6943       L1     8  0.87
      P1  H  6934  6947       L1     8  0.68
      P1  H  7989  7998       L1    20  0.85

> <Gold.Chemscore.Hbond.Weighted>
-8.7301

> <Gold.Chemscore.Metal.Weighted>
-0.0000

> <Gold.Chemscore.Lipo.Weighted>
-7.7337

> <Gold.Chemscore.Internal_Hbond.Weighted>
0.0000

> <Gold.Chemscore.DEClash.Weighted>
0.0073

> <Gold.Chemscore.DEInternal.Weighted>
2.5488

> <Gold.Chemscore.Rot.Weighted>
5.1962

> <Gold.Chemscore.Internal.Correction.Weighted>
   9.000000E+99

> <Gold.Protein.RotatedTorsions>
[ 6907 6896 6895 6894 ] final   30.29 input  -60.11 | X-H torsion
[ 7974 7965 7964 7962 ] final   59.37 input  175.53 | X-H torsion
[ 8008 7997 7996 7995 ] final  -79.79 input   59.86 | X-H torsion
[ 10167 10162 10161 10158 ] final  -48.70 input  -65.29 | X-H torsion
[ 10718 10713 10712 10709 ] final   23.22 input   66.30 | X-H torsion
[ 10763 10752 10751 10750 ] final -113.93 input  -60.55 | X-H torsion
[ 11005 11000 10999 10996 ] final  -13.34 input  -57.11 | X-H torsion

> <Gold.Protein.ActiveResidues>
 VAL166  LYS551  ARG553  GLY616  TRP617  ASP618  TYR619  PRO620  LYS621  CYS622 
 ASP623  PHE694  ASN695  SER759  ASP760  ASP761  ALA762  ILE779  LEU786  VAL792 
 PHE793  MET794  SER795  GLU796  ALA797  LYS798  CYS799  TRP800  GLU811  SER814 

> <Gold.Protein.RotatedAtoms>
  152.0438  134.9695  160.0573 H   0  0  0  0  0  0  0  0  0  0  0  0  # atno 6907 bound_to 6896
  152.1123  133.4303  159.4645 H   0  0  0  0  0  0  0  0  0  0  0  0  # atno 6908 bound_to 6896
  150.6844  134.2552  159.4570 H   0  0  0  0  0  0  0  0  0  0  0  0  # atno 6909 bound_to 6896
  145.9079  139.3631  143.0553 H   0  0  0  0  0  0  0  0  0  0  0  0  # atno 7974 bound_to 7965
  154.5819  140.0673  156.9116 H   0  0  0  0  0  0  0  0  0  0  0  0  # atno 8008 bound_to 7997
  155.2447  140.3347  155.4270 H   0  0  0  0  0  0  0  0  0  0  0  0  # atno 8009 bound_to 7997
  156.2195  140.1793  156.7495 H   0  0  0  0  0  0  0  0  0  0  0  0  # atno 8010 bound_to 7997
  140.6719  143.2728  151.4109 H   0  0  0  0  0  0  0  0  0  0  0  0  # atno 10167 bound_to 10162
  157.1631  130.6726  149.6051 H   0  0  0  0  0  0  0  0  0  0  0  0  # atno 10718 bound_to 10713
  154.8418  135.4436  154.1426 H   0  0  0  0  0  0  0  0  0  0  0  0  # atno 10763 bound_to 10752
  153.2607  135.6936  153.7587 H   0  0  0  0  0  0  0  0  0  0  0  0  # atno 10764 bound_to 10752
  153.6865  135.3394  155.3167 H   0  0  0  0  0  0  0  0  0  0  0  0  # atno 10765 bound_to 10752
  140.7750  133.8408  155.9241 H   0  0  0  0  0  0  0  0  0  0  0  0  # atno 11005 bound_to 11000
  145.8709  140.9420  143.0651 LP  0  0  0  0  0  0  0  0  0  0  0  0  # atno 17320 bound_to 7965
  144.6741  140.0653  143.7475 LP  0  0  0  0  0  0  0  0  0  0  0  0  # atno 17321 bound_to 7965
  139.5991  144.1334  152.2178 LP  0  0  0  0  0  0  0  0  0  0  0  0  # atno 17342 bound_to 10162
  140.0712  144.5777  150.7190 LP  0  0  0  0  0  0  0  0  0  0  0  0  # atno 17343 bound_to 10162
  155.9750  130.4704  150.6430 LP  0  0  0  0  0  0  0  0  0  0  0  0  # atno 17370 bound_to 10713
  157.4113  131.0824  151.1218 LP  0  0  0  0  0  0  0  0  0  0  0  0  # atno 17371 bound_to 10713
  140.9537  134.1746  157.4708 LP  0  0  0  0  0  0  0  0  0  0  0  0  # atno 17394 bound_to 11000
  139.8750  134.9919  156.5570 LP  0  0  0  0  0  0  0  0  0  0  0  0  # atno 17395 bound_to 11000

$$$$
