AV-unprocessed.smi:2249|AV-procd|sdf|9099|dock3
  -GOLD-   2272012293D 1   1.00000     0.00000
 Structure written by MMmdl.
 38 39  0  0  0  0  0  0  0  0  1 V2000
  147.0747  140.3467  152.3116 C   0  0  0  0  0  0  0  0  0  0  0  0
  147.1217  139.3328  153.4698 C   0  0  1  0  0  0  0  0  0  0  0  0
  147.1404  137.9818  152.9094 N   0  0  0  0  0  0  0  0  0  0  0  0
  146.0611  137.2561  152.5819 C   0  0  0  0  0  0  0  0  0  0  0  0
  144.9053  137.6605  152.7107 O   0  0  0  0  0  0  0  0  0  0  0  0
  146.4169  136.0522  152.1005 N   0  0  0  0  0  0  0  0  0  0  0  0
  145.6190  135.0374  151.6742 C   0  0  0  0  0  0  0  0  0  0  0  0
  144.3452  135.0944  151.1778 C   0  0  0  0  0  0  0  0  0  0  0  0
  144.0557  133.7248  150.9151 C   0  0  0  0  0  0  0  0  0  0  0  0
  145.0588  132.9124  151.2240 N   0  0  0  0  0  0  0  0  0  0  0  0
  146.0308  133.7226  151.6967 N   0  0  0  0  0  0  0  0  0  0  0  0
  147.2940  133.1611  152.1342 C   0  0  0  0  0  0  0  0  0  0  0  0
  148.3355  139.5342  154.4144 C   0  0  0  0  0  0  0  0  0  0  0  0
  148.7624  141.0146  154.5173 C   0  0  0  0  0  0  0  0  0  0  0  0
  150.0102  141.1769  155.4000 C   0  0  0  0  0  0  0  0  0  0  0  0
  151.0740  140.3838  154.8888 O   0  0  0  0  0  0  0  0  0  0  0  0
  150.7732  138.9939  154.8960 C   0  0  0  0  0  0  0  0  0  0  0  0
  149.5670  138.7104  153.9860 C   0  0  0  0  0  0  0  0  0  0  0  0
  146.9260  141.3643  152.6711 H   0  0  0  0  0  0  0  0  0  0  0  0
  146.2489  140.1307  151.6330 H   0  0  0  0  0  0  0  0  0  0  0  0
  147.9959  140.3271  151.7282 H   0  0  0  0  0  0  0  0  0  0  0  0
  146.2146  139.4562  154.0645 H   0  0  0  0  0  0  0  0  0  0  0  0
  148.0496  137.5670  152.7658 H   0  0  0  0  0  0  0  0  0  0  0  0
  147.4083  135.8710  152.0456 H   0  0  0  0  0  0  0  0  0  0  0  0
  143.7120  135.9546  151.0211 H   0  0  0  0  0  0  0  0  0  0  0  0
  143.1499  133.2976  150.5108 H   0  0  0  0  0  0  0  0  0  0  0  0
  148.0908  133.4931  151.4686 H   0  0  0  0  0  0  0  0  0  0  0  0
  147.2547  132.0709  152.1231 H   0  0  0  0  0  0  0  0  0  0  0  0
  147.5131  133.4953  153.1487 H   0  0  0  0  0  0  0  0  0  0  0  0
  148.0445  139.2030  155.4128 H   0  0  0  0  0  0  0  0  0  0  0  0
  148.9720  141.4076  153.5215 H   0  0  0  0  0  0  0  0  0  0  0  0
  147.9579  141.6249  154.9280 H   0  0  0  0  0  0  0  0  0  0  0  0
  150.3256  142.2203  155.4129 H   0  0  0  0  0  0  0  0  0  0  0  0
  149.7958  140.8968  156.4325 H   0  0  0  0  0  0  0  0  0  0  0  0
  151.6456  138.4441  154.5421 H   0  0  0  0  0  0  0  0  0  0  0  0
  150.5787  138.6577  155.9156 H   0  0  0  0  0  0  0  0  0  0  0  0
  149.3497  137.6433  154.0179 H   0  0  0  0  0  0  0  0  0  0  0  0
  149.8295  138.9458  152.9538 H   0  0  0  0  0  0  0  0  0  0  0  0
  1  2  1  0  0  0  0
  1 19  1  0  0  0  0
  1 20  1  0  0  0  0
  1 21  1  0  0  0  0
  2  3  1  0  0  0  0
  2 13  1  0  0  0  0
  2 22  1  0  0  0  0
  3  4  1  0  0  0  0
  3 23  1  0  0  0  0
  4  5  2  0  0  0  0
  4  6  1  0  0  0  0
  6  7  1  0  0  0  0
  6 24  1  0  0  0  0
  7 11  1  0  0  0  0
  7  8  2  0  0  0  0
  8  9  1  0  0  0  0
  8 25  1  0  0  0  0
  9 10  2  0  0  0  0
  9 26  1  0  0  0  0
 10 11  1  0  0  0  0
 11 12  1  0  0  0  0
 12 27  1  0  0  0  0
 12 28  1  0  0  0  0
 12 29  1  0  0  0  0
 13 18  1  0  0  0  0
 13 14  1  0  0  0  0
 13 30  1  0  0  0  0
 14 15  1  0  0  0  0
 14 31  1  0  0  0  0
 14 32  1  0  0  0  0
 15 16  1  0  0  0  0
 15 33  1  0  0  0  0
 15 34  1  0  0  0  0
 16 17  1  0  0  0  0
 17 18  1  0  0  0  0
 17 35  1  0  0  0  0
 17 36  1  0  0  0  0
 18 37  1  0  0  0  0
 18 38  1  0  0  0  0
M  END
> <s_m_source_file>
AV-unprocessed.smi

> <i_m_source_file_index>
2249

> <i_lp_mmshare_version>
43012

> <i_f3d_flags>
0

> <s_epik_input>
W0NIMl0xW0NIMl1PW0NIMl1bQ0gyXVtDSF0xW0NASF0oW0NIM10pW05IXUMoPU8pW05IXWMyW2NIXVtjSF1ubjJbQ0gzXQ==

> <s_epik_cmdline>
J2VwaWtfcHl0aG9uJywgJy1waCcsICc3LjAnLCAnLXRuJywgJzgnLCAnLW1hJywgJzIwMCcsICctbWV0YWxfYmluZGluZycsICctaW1hZScsICc8aW5maWxlLm1hZT4nLCAnLW9tYWUnLCAnPG91dGZpbGUubWFlPic=

> <r_lp_tautomer_probability>
1

> <r_epik_Ionization_Penalty>
4.67687e-05

> <r_epik_Ionization_Penalty_Charging>
0

> <r_epik_Ionization_Penalty_Neutral>
4.67687e-05

> <r_epik_State_Penalty>
-0

> <r_epik_Charging_Adjusted_Penalty>
0

> <i_epik_Tot_Q>
0

> <i_epik_Tot_abs_Q>
0

> <r_epik_Metal_State_Penalty>
-0

> <b_epik_Metal_Only>
0

> <s_lp_Force_Field>
OPLS_2005

> <r_lp_Energy>
13.2478

> <b_lp_Chiralities_Consistent>
1

> <s_lp_Variant>
AV-unprocessed.smi:2249-2

> <Gold.Version>
5.8.1

> <Gold.Id.Protein>
6NUR|6NUR_protein|mol2

> <Gold.PLP.Fitness>
39.0269

> <Gold.PLP.PLP>
-29.7921

> <Gold.PLP.part.hbond>
-2.9907

> <Gold.PLP.part.metal>
0.0000

> <Gold.PLP.part.buried>
-1.8766

> <Gold.PLP.part.nonpolar>
-26.8057

> <Gold.PLP.part.repulsive>
1.3372

> <Gold.PLP.ligand.clash>
0.0000

> <Gold.PLP.ligand.torsion>
1.2127

> <Gold.PLP.Chemscore.Hbond>
2.8800

> <Gold.PLP.Chemscore.CHOScore>
1.0000

> <Gold.PLP.Chemscore.Metal>
0.0000

> <Gold.Chemscore.Hbonds>
donor molecule, donor type, donor heavy atom, donor atom, acceptor molecule, acceptor atom, score
      L1  H     3    23       P1  7948  0.88
      L1  H     6    24       P1  7948  1.00
      P1  H  7989  7998       L1    16  1.00
      L1  C     9    26       P1 10186  0.82

> <Gold.PLP.Chemscore.Internal.Correction>
0.0202

> <Gold.Rescore>
     Score         DG    S(hbond)    S(metal)    S(lipo)     H(rot)  DE(clash)    DE(int)     intcor
     17.27     -19.13       2.77        0.00      65.08       1.26       0.47       1.38       ----

> <Gold.Chemscore.Fitness>
17.2730

> <Gold.Chemscore.DG>
-19.1252

> <Gold.Chemscore.ZeroCoef>
-5.4800

> <Gold.Chemscore.Hbond>
2.7705

> <Gold.Chemscore.Metal>
0.0000

> <Gold.Chemscore.Lipo>
65.0766

> <Gold.Chemscore.Internal_Hbond>
0.0000

> <Gold.Chemscore.DEClash>
0.4678

> <Gold.Chemscore.DEInternal>
1.3844

> <Gold.Chemscore.Rot>
1.2588

> <Gold.Chemscore.Internal.Correction>
   9.000000E+99

> <Gold.Chemscore.Hbonds>
donor molecule, donor type, donor heavy atom, donor atom, acceptor molecule, acceptor atom, score
      L1  H     3    23       P1  7948  0.87
      L1  H     6    24       P1  7948  0.96
      P1  H  7989  7998       L1    16  0.72

> <Gold.Chemscore.Hbond.Weighted>
-9.2536

> <Gold.Chemscore.Metal.Weighted>
-0.0000

> <Gold.Chemscore.Lipo.Weighted>
-7.6140

> <Gold.Chemscore.Internal_Hbond.Weighted>
0.0000

> <Gold.Chemscore.DEClash.Weighted>
0.4678

> <Gold.Chemscore.DEInternal.Weighted>
1.3844

> <Gold.Chemscore.Rot.Weighted>
3.2224

> <Gold.Chemscore.Internal.Correction.Weighted>
   9.000000E+99

> <Gold.Protein.RotatedTorsions>
[ 6907 6896 6895 6894 ] final  -25.31 input  -60.11 | X-H torsion
[ 7974 7965 7964 7962 ] final   52.78 input  175.53 | X-H torsion
[ 8008 7997 7996 7995 ] final -122.84 input   59.86 | X-H torsion
[ 10167 10162 10161 10158 ] final  143.14 input  -65.29 | X-H torsion
[ 10718 10713 10712 10709 ] final -159.81 input   66.30 | X-H torsion
[ 10763 10752 10751 10750 ] final  116.04 input  -60.55 | X-H torsion
[ 11005 11000 10999 10996 ] final -168.74 input  -57.11 | X-H torsion

> <Gold.Protein.ActiveResidues>
 VAL166  LYS551  ARG553  GLY616  TRP617  ASP618  TYR619  PRO620  LYS621  CYS622 
 ASP623  PHE694  ASN695  SER759  ASP760  ASP761  ALA762  ILE779  LEU786  VAL792 
 PHE793  MET794  SER795  GLU796  ALA797  LYS798  CYS799  TRP800  GLU811  SER814 

> <Gold.Protein.RotatedAtoms>
  151.1770  135.0344  159.8775 H   0  0  0  0  0  0  0  0  0  0  0  0  # atno 6907 bound_to 6896
  152.5446  134.1106  159.8367 H   0  0  0  0  0  0  0  0  0  0  0  0  # atno 6908 bound_to 6896
  151.1219  133.5051  159.2634 H   0  0  0  0  0  0  0  0  0  0  0  0  # atno 6909 bound_to 6896
  145.9779  139.4213  143.0150 H   0  0  0  0  0  0  0  0  0  0  0  0  # atno 7974 bound_to 7965
  155.1708  140.0408  157.2862 H   0  0  0  0  0  0  0  0  0  0  0  0  # atno 8008 bound_to 7997
  154.6271  140.2515  155.7452 H   0  0  0  0  0  0  0  0  0  0  0  0  # atno 8009 bound_to 7997
  156.2465  140.2883  156.0605 H   0  0  0  0  0  0  0  0  0  0  0  0  # atno 8010 bound_to 7997
  139.4977  144.6060  151.6377 H   0  0  0  0  0  0  0  0  0  0  0  0  # atno 10167 bound_to 10162
  156.5734  130.8698  151.2844 H   0  0  0  0  0  0  0  0  0  0  0  0  # atno 10718 bound_to 10713
  153.5313  135.3577  155.2677 H   0  0  0  0  0  0  0  0  0  0  0  0  # atno 10763 bound_to 10752
  154.8726  135.4069  154.3148 H   0  0  0  0  0  0  0  0  0  0  0  0  # atno 10764 bound_to 10752
  153.3837  135.7069  153.6613 H   0  0  0  0  0  0  0  0  0  0  0  0  # atno 10765 bound_to 10752
  140.5386  134.5545  157.5094 H   0  0  0  0  0  0  0  0  0  0  0  0  # atno 11005 bound_to 11000
  145.7812  140.9855  143.1098 LP  0  0  0  0  0  0  0  0  0  0  0  0  # atno 17320 bound_to 7965
  144.6853  139.9567  143.7479 LP  0  0  0  0  0  0  0  0  0  0  0  0  # atno 17321 bound_to 7965
  140.5722  144.0090  150.6222 LP  0  0  0  0  0  0  0  0  0  0  0  0  # atno 17342 bound_to 10162
  140.3211  143.3136  152.0783 LP  0  0  0  0  0  0  0  0  0  0  0  0  # atno 17343 bound_to 10162
  157.7343  130.9744  150.2022 LP  0  0  0  0  0  0  0  0  0  0  0  0  # atno 17370 bound_to 10713
  156.2695  130.3720  149.8046 LP  0  0  0  0  0  0  0  0  0  0  0  0  # atno 17371 bound_to 10713
  139.9516  134.7607  156.0435 LP  0  0  0  0  0  0  0  0  0  0  0  0  # atno 17394 bound_to 11000
  141.1240  133.6604  156.3289 LP  0  0  0  0  0  0  0  0  0  0  0  0  # atno 17395 bound_to 11000

$$$$
