AV-unprocessed.smi:218|AV-procd|sdf|1674|dock3
  -GOLD-   2262020 93D 1   1.00000     0.00000
 Structure written by MMmdl.
 54 57  0  0  0  0  0  0  0  0  1 V2000
  153.1057  143.7463  160.4266 C   0  0  0  0  0  0  0  0  0  0  0  0
  152.8160  143.2704  158.9979 C   0  0  0  0  0  0  0  0  0  0  0  0
  153.1119  144.3783  157.9723 C   0  0  0  0  0  0  0  0  0  0  0  0
  151.4340  142.9088  158.9529 O   0  0  0  0  0  0  0  0  0  0  0  0
  150.9018  142.3398  157.8116 C   0  0  0  0  0  0  0  0  0  0  0  0
  149.5736  141.8688  157.8564 C   0  0  0  0  0  0  0  0  0  0  0  0
  149.0190  141.2801  156.7010 C   0  0  0  0  0  0  0  0  0  0  0  0
  147.5924  140.7588  156.7018 C   0  0  0  0  0  0  0  0  0  0  0  0
  147.4756  139.3053  156.6588 N   0  0  0  0  0  0  0  0  0  0  0  0
  146.3380  138.7174  156.2259 C   0  0  0  0  0  0  0  0  0  0  0  0
  145.1252  139.0883  156.7140 N   0  0  0  0  0  0  0  0  0  0  0  0
  144.0150  138.4940  156.2672 C   0  0  0  0  0  0  0  0  0  0  0  0
  143.8963  137.5307  155.3515 N   0  0  0  0  0  0  0  0  0  0  0  0
  145.1105  137.1573  154.8534 C   0  0  0  0  0  0  0  0  0  0  0  0
  146.3684  137.7017  155.2356 C   0  0  0  0  0  0  0  0  0  0  0  0
  147.3861  137.0861  154.5187 N   0  0  0  0  0  0  0  0  0  0  0  0
  146.7615  136.2274  153.7588 C   0  0  0  0  0  0  0  0  0  0  0  0
  145.3916  136.1978  153.9010 N   0  0  0  0  0  0  0  0  0  0  0  0
  144.4208  135.3135  153.1814 C   0  0  2  0  0  0  0  0  0  0  0  0
  145.1281  134.2849  152.5634 O   0  0  0  0  0  0  0  0  0  0  0  0
  144.4887  133.9561  151.3357 C   0  0  2  0  0  0  0  0  0  0  0  0
  145.4362  133.1731  150.4100 C   0  0  0  0  0  0  0  0  0  0  0  0
  144.7599  132.8043  149.2273 O   0  0  0  0  0  0  0  0  0  0  0  0
  144.0215  135.3211  150.8083 C   0  0  2  0  0  0  0  0  0  0  0  0
  145.0600  135.9786  150.1026 O   0  0  0  0  0  0  0  0  0  0  0  0
  143.6211  136.0535  152.0878 C   0  0  2  0  0  0  0  0  0  0  0  0
  143.8125  137.4581  152.0236 O   0  0  0  0  0  0  0  0  0  0  0  0
  149.8179  141.1818  155.5448 C   0  0  0  0  0  0  0  0  0  0  0  0
  151.1331  141.6821  155.5950 C   0  0  0  0  0  0  0  0  0  0  0  0
  151.6702  142.2456  156.6978 N   0  0  0  0  0  0  0  0  0  0  0  0
  143.7812  134.9095  153.9673 H   0  0  0  0  0  0  0  0  0  0  0  0
  143.6028  133.3579  151.5583 H   0  0  0  0  0  0  0  0  0  0  0  0
  143.1743  135.2185  150.1296 H   0  0  0  0  0  0  0  0  0  0  0  0
  142.5658  135.8654  152.2890 H   0  0  0  0  0  0  0  0  0  0  0  0
  154.1493  144.0424  160.5385 H   0  0  0  0  0  0  0  0  0  0  0  0
  152.9071  142.9540  161.1487 H   0  0  0  0  0  0  0  0  0  0  0  0
  152.4841  144.6020  160.6919 H   0  0  0  0  0  0  0  0  0  0  0  0
  153.4565  142.4074  158.8100 H   0  0  0  0  0  0  0  0  0  0  0  0
  154.1565  144.6868  158.0220 H   0  0  0  0  0  0  0  0  0  0  0  0
  152.4957  145.2587  158.1563 H   0  0  0  0  0  0  0  0  0  0  0  0
  152.9184  144.0482  156.9520 H   0  0  0  0  0  0  0  0  0  0  0  0
  148.9923  141.9597  158.7623 H   0  0  0  0  0  0  0  0  0  0  0  0
  147.0548  141.1424  157.5699 H   0  0  0  0  0  0  0  0  0  0  0  0
  147.0839  141.1633  155.8266 H   0  0  0  0  0  0  0  0  0  0  0  0
  148.2234  138.7916  157.1023 H   0  0  0  0  0  0  0  0  0  0  0  0
  143.0900  138.8393  156.7048 H   0  0  0  0  0  0  0  0  0  0  0  0
  147.2887  135.5812  153.0722 H   0  0  0  0  0  0  0  0  0  0  0  0
  146.2807  133.7988  150.1201 H   0  0  0  0  0  0  0  0  0  0  0  0
  145.8393  132.2897  150.9064 H   0  0  0  0  0  0  0  0  0  0  0  0
  145.0756  133.3485  148.5221 H   0  0  0  0  0  0  0  0  0  0  0  0
  144.7469  136.8304  149.8382 H   0  0  0  0  0  0  0  0  0  0  0  0
  143.5342  137.7601  151.1725 H   0  0  0  0  0  0  0  0  0  0  0  0
  149.4326  140.7400  154.6376 H   0  0  0  0  0  0  0  0  0  0  0  0
  151.7716  141.6265  154.7259 H   0  0  0  0  0  0  0  0  0  0  0  0
  1  2  1  0  0  0  0
  1 35  1  0  0  0  0
  1 36  1  0  0  0  0
  1 37  1  0  0  0  0
  2  3  1  0  0  0  0
  2  4  1  0  0  0  0
  2 38  1  0  0  0  0
  3 39  1  0  0  0  0
  3 40  1  0  0  0  0
  3 41  1  0  0  0  0
  4  5  1  0  0  0  0
  5 30  1  0  0  0  0
  5  6  2  0  0  0  0
  6  7  1  0  0  0  0
  6 42  1  0  0  0  0
  7  8  1  0  0  0  0
  7 28  2  0  0  0  0
  8  9  1  0  0  0  0
  8 43  1  0  0  0  0
  8 44  1  0  0  0  0
  9 10  1  0  0  0  0
  9 45  1  0  0  0  0
 10 15  1  0  0  0  0
 10 11  2  0  0  0  0
 11 12  1  0  0  0  0
 12 13  2  0  0  0  0
 12 46  1  0  0  0  0
 13 14  1  0  0  0  0
 14 18  1  0  0  0  0
 14 15  2  0  0  0  0
 15 16  1  0  0  0  0
 16 17  2  0  0  0  0
 17 18  1  0  0  0  0
 17 47  1  0  0  0  0
 18 19  1  0  0  0  0
 19 31  1  0  0  0  0
 19 26  1  0  0  0  0
 19 20  1  0  0  0  0
 20 21  1  0  0  0  0
 21 32  1  0  0  0  0
 21 22  1  0  0  0  0
 21 24  1  0  0  0  0
 22 23  1  0  0  0  0
 22 48  1  0  0  0  0
 22 49  1  0  0  0  0
 23 50  1  0  0  0  0
 24 33  1  0  0  0  0
 24 25  1  0  0  0  0
 24 26  1  0  0  0  0
 25 51  1  0  0  0  0
 26 34  1  0  0  0  0
 26 27  1  0  0  0  0
 27 52  1  0  0  0  0
 28 29  1  0  0  0  0
 28 53  1  0  0  0  0
 29 30  2  0  0  0  0
 29 54  1  0  0  0  0
M  END
> <s_m_source_file>
AV-unprocessed.smi

> <i_m_source_file_index>
218

> <i_lp_mmshare_version>
43012

> <i_f3d_flags>
0

> <s_epik_input>
W0NIM11bQ0hdKFtDSDNdKU9jMVtjSF1jKFtjSF1bY0hdbjEpW0NIMl1bTkhdYyhuW2NIXW4yKWMoYzIzKW5bY0hdbjNbQ0BASF00T1tDQEhdKFtDSDJdW09IXSlbQ0BASF0oW09IXSlbQ0BIXTRbT0hd

> <s_epik_cmdline>
J2VwaWtfcHl0aG9uJywgJy1waCcsICc3LjAnLCAnLXRuJywgJzgnLCAnLW1hJywgJzIwMCcsICctbWV0YWxfYmluZGluZycsICctaW1hZScsICc8aW5maWxlLm1hZT4nLCAnLW9tYWUnLCAnPG91dGZpbGUubWFlPic=

> <r_lp_tautomer_probability>
1

> <r_epik_Ionization_Penalty>
0.00457014

> <r_epik_Ionization_Penalty_Charging>
0

> <r_epik_Ionization_Penalty_Neutral>
0.00457014

> <r_epik_State_Penalty>
-0

> <r_epik_Charging_Adjusted_Penalty>
0

> <i_epik_Tot_Q>
0

> <i_epik_Tot_abs_Q>
0

> <r_epik_Metal_State_Penalty>
-0

> <b_epik_Metal_Only>
0

> <s_epik_Chemistry_Notes>
This compound contains an acetal/aminal-like group ( X-CH(R)-Y where X, Y are N, S, or O) that may be acid/base labile, releasing an aldehyde.

> <s_lp_Force_Field>
OPLS_2005

> <r_lp_Energy>
51.9748

> <b_lp_Chiralities_Consistent>
1

> <s_lp_Variant>
AV-unprocessed.smi:218-13

> <Gold.Version>
5.8.1

> <Gold.Id.Protein>
6NUR|6NUR_protein|mol2

> <Gold.PLP.Fitness>
50.1946

> <Gold.PLP.PLP>
-40.3121

> <Gold.PLP.part.hbond>
-5.3978

> <Gold.PLP.part.metal>
0.0000

> <Gold.PLP.part.buried>
-8.7042

> <Gold.PLP.part.nonpolar>
-26.9076

> <Gold.PLP.part.repulsive>
0.4074

> <Gold.PLP.ligand.clash>
0.0000

> <Gold.PLP.ligand.torsion>
1.1154

> <Gold.PLP.Chemscore.Hbond>
3.0000

> <Gold.PLP.Chemscore.CHOScore>
1.0000

> <Gold.PLP.Chemscore.Metal>
0.0000

> <Gold.Chemscore.Hbonds>
donor molecule, donor type, donor heavy atom, donor atom, acceptor molecule, acceptor atom, score
      L1  H    23    50       P1  7921  1.00
      L1  H    25    51       P1 10171  1.00
      L1  H    27    52       P1 10171  1.00
      L1  C    17    47       P1  7948  0.89

> <Gold.PLP.Chemscore.Internal.Correction>
0.1133

> <Gold.Rescore>
     Score         DG    S(hbond)    S(metal)    S(lipo)     H(rot)  DE(clash)    DE(int)     intcor
     10.14     -11.70       2.72        0.00      82.64       4.90       0.01       1.54       ----

> <Gold.Chemscore.Fitness>
10.1430

> <Gold.Chemscore.DG>
-11.6959

> <Gold.Chemscore.ZeroCoef>
-5.4800

> <Gold.Chemscore.Hbond>
2.7241

> <Gold.Chemscore.Metal>
0.0000

> <Gold.Chemscore.Lipo>
82.6404

> <Gold.Chemscore.Internal_Hbond>
0.0000

> <Gold.Chemscore.DEClash>
0.0150

> <Gold.Chemscore.DEInternal>
1.5379

> <Gold.Chemscore.Rot>
4.9029

> <Gold.Chemscore.Internal.Correction>
   9.000000E+99

> <Gold.Chemscore.Hbonds>
donor molecule, donor type, donor heavy atom, donor atom, acceptor molecule, acceptor atom, score
      L1  H    23    50       P1  7921  0.53
      L1  H    25    51       P1 10171  0.99
      L1  H    27    52       P1 10171  0.89

> <Gold.Chemscore.Hbond.Weighted>
-9.0985

> <Gold.Chemscore.Metal.Weighted>
-0.0000

> <Gold.Chemscore.Lipo.Weighted>
-9.6689

> <Gold.Chemscore.Internal_Hbond.Weighted>
0.0000

> <Gold.Chemscore.DEClash.Weighted>
0.0150

> <Gold.Chemscore.DEInternal.Weighted>
1.5379

> <Gold.Chemscore.Rot.Weighted>
12.5515

> <Gold.Chemscore.Internal.Correction.Weighted>
   9.000000E+99

> <Gold.Protein.RotatedTorsions>
[ 6907 6896 6895 6894 ] final -122.44 input  -60.11 | X-H torsion
[ 7974 7965 7964 7962 ] final   13.56 input  175.53 | X-H torsion
[ 8008 7997 7996 7995 ] final   83.25 input   59.86 | X-H torsion
[ 10167 10162 10161 10158 ] final  157.93 input  -65.29 | X-H torsion
[ 10718 10713 10712 10709 ] final   20.11 input   66.30 | X-H torsion
[ 10763 10752 10751 10750 ] final  113.45 input  -60.55 | X-H torsion
[ 11005 11000 10999 10996 ] final  -98.92 input  -57.11 | X-H torsion

> <Gold.Protein.ActiveResidues>
 VAL166  LYS551  ARG553  GLY616  TRP617  ASP618  TYR619  PRO620  LYS621  CYS622 
 ASP623  PHE694  ASN695  SER759  ASP760  ASP761  ALA762  ILE779  LEU786  VAL792 
 PHE793  MET794  SER795  GLU796  ALA797  LYS798  CYS799  TRP800  GLU811  SER814 

> <Gold.Protein.RotatedAtoms>
  150.8576  133.7692  159.3003 H   0  0  0  0  0  0  0  0  0  0  0  0  # atno 6907 bound_to 6896
  151.5344  135.1067  159.9920 H   0  0  0  0  0  0  0  0  0  0  0  0  # atno 6908 bound_to 6896
  152.4602  133.7762  159.6881 H   0  0  0  0  0  0  0  0  0  0  0  0  # atno 6909 bound_to 6896
  146.2326  139.9170  142.8516 H   0  0  0  0  0  0  0  0  0  0  0  0  # atno 7974 bound_to 7965
  155.9214  140.3421  155.6176 H   0  0  0  0  0  0  0  0  0  0  0  0  # atno 8008 bound_to 7997
  155.7269  140.0790  157.2325 H   0  0  0  0  0  0  0  0  0  0  0  0  # atno 8009 bound_to 7997
  154.4070  140.1595  156.2452 H   0  0  0  0  0  0  0  0  0  0  0  0  # atno 8010 bound_to 7997
  139.4825  144.4872  151.8361 H   0  0  0  0  0  0  0  0  0  0  0  0  # atno 10167 bound_to 10162
  157.1199  130.6545  149.5921 H   0  0  0  0  0  0  0  0  0  0  0  0  # atno 10718 bound_to 10713
  153.4927  135.3655  155.2500 H   0  0  0  0  0  0  0  0  0  0  0  0  # atno 10763 bound_to 10752
  154.8751  135.3981  154.3570 H   0  0  0  0  0  0  0  0  0  0  0  0  # atno 10764 bound_to 10752
  153.4192  135.7080  153.6371 H   0  0  0  0  0  0  0  0  0  0  0  0  # atno 10765 bound_to 10752
  141.1327  133.8282  157.0903 H   0  0  0  0  0  0  0  0  0  0  0  0  # atno 11005 bound_to 11000
  145.2174  140.9921  143.4065 LP  0  0  0  0  0  0  0  0  0  0  0  0  # atno 17320 bound_to 7965
  144.9639  139.3950  143.6342 LP  0  0  0  0  0  0  0  0  0  0  0  0  # atno 17321 bound_to 7965
  140.4352  144.2061  150.5889 LP  0  0  0  0  0  0  0  0  0  0  0  0  # atno 17342 bound_to 10162
  140.4739  143.2403  151.9051 LP  0  0  0  0  0  0  0  0  0  0  0  0  # atno 17343 bound_to 10162
  155.9831  130.4848  150.6915 LP  0  0  0  0  0  0  0  0  0  0  0  0  # atno 17370 bound_to 10713
  157.4486  131.0870  151.0870 LP  0  0  0  0  0  0  0  0  0  0  0  0  # atno 17371 bound_to 10713
  140.0396  134.9861  157.0937 LP  0  0  0  0  0  0  0  0  0  0  0  0  # atno 17394 bound_to 11000
  140.4156  134.1935  155.7163 LP  0  0  0  0  0  0  0  0  0  0  0  0  # atno 17395 bound_to 11000

$$$$
