AV-unprocessed.smi:3303|AV-procd|sdf|12687|dock4
  -GOLD-   2272019 23D 1   1.00000     0.00000
 Structure written by MMmdl.
 44 45  0  0  0  0  0  0  0  0  2 V2000
  147.0097  139.3870  152.9250 C   0  0  0  0  0  0  0  0  0  0  0  0
  147.3121  139.7929  154.3778 C   0  0  2  0  0  0  0  0  0  0  0  0
  146.0309  139.8402  155.2336 C   0  0  0  0  0  0  0  0  0  0  0  0
  145.1583  140.9919  154.8870 N   0  3  1  0  0  0  0  0  0  0  0  0
  143.8680  140.9103  155.6133 C   0  0  0  0  0  0  0  0  0  0  0  0
  145.8654  142.2973  155.0482 C   0  0  2  0  0  0  0  0  0  0  0  0
  144.9799  143.5035  154.6787 C   0  0  0  0  0  0  0  0  0  0  0  0
  147.1552  142.3280  154.1976 C   0  0  0  0  0  0  0  0  0  0  0  0
  148.0872  141.1302  154.4542 C   0  0  1  0  0  0  0  0  0  0  0  0
  148.7351  141.3056  155.7484 N   0  0  0  0  0  0  0  0  0  0  0  0
  150.1443  141.6589  155.6380 C   0  0  0  0  0  0  0  0  0  0  0  0
  150.9292  141.1113  156.8421 C   0  0  0  0  0  0  0  0  0  0  0  0
  151.5153  142.2084  157.7173 C   0  0  0  0  0  0  0  0  0  0  0  0
  151.4501  143.5587  157.3120 C   0  0  0  0  0  0  0  0  0  0  0  0
  152.0295  144.5383  158.1415 C   0  0  0  0  0  0  0  0  0  0  0  0
  152.6513  144.1325  159.3381 C   0  0  0  0  0  0  0  0  0  0  0  0
  152.6636  142.7595  159.6543 C   0  0  0  0  0  0  0  0  0  0  0  0
  152.1116  141.8126  158.8656 N   0  0  0  0  0  0  0  0  0  0  0  0
  146.3581  140.1054  152.4276 H   0  0  0  0  0  0  0  0  0  0  0  0
  146.5185  138.4142  152.8844 H   0  0  0  0  0  0  0  0  0  0  0  0
  147.9277  139.3130  152.3413 H   0  0  0  0  0  0  0  0  0  0  0  0
  147.9329  138.9923  154.7788 H   0  0  0  0  0  0  0  0  0  0  0  0
  145.4804  138.9067  155.1094 H   0  0  0  0  0  0  0  0  0  0  0  0
  146.2948  139.9009  156.2912 H   0  0  0  0  0  0  0  0  0  0  0  0
  144.0044  141.1109  156.6768 H   0  0  0  0  0  0  0  0  0  0  0  0
  143.4283  139.9178  155.5105 H   0  0  0  0  0  0  0  0  0  0  0  0
  143.1381  141.6151  155.2160 H   0  0  0  0  0  0  0  0  0  0  0  0
  146.1432  142.3984  156.0989 H   0  0  0  0  0  0  0  0  0  0  0  0
  145.5528  144.4307  154.7133 H   0  0  0  0  0  0  0  0  0  0  0  0
  144.1476  143.6293  155.3709 H   0  0  0  0  0  0  0  0  0  0  0  0
  144.5733  143.4059  153.6716 H   0  0  0  0  0  0  0  0  0  0  0  0
  146.8826  142.3387  153.1414 H   0  0  0  0  0  0  0  0  0  0  0  0
  147.6957  143.2604  154.3679 H   0  0  0  0  0  0  0  0  0  0  0  0
  148.8696  141.1465  153.6936 H   0  0  0  0  0  0  0  0  0  0  0  0
  148.2621  142.0226  156.2804 H   0  0  0  0  0  0  0  0  0  0  0  0
  150.5822  141.2708  154.7193 H   0  0  0  0  0  0  0  0  0  0  0  0
  150.2297  142.7451  155.5971 H   0  0  0  0  0  0  0  0  0  0  0  0
  150.2691  140.4944  157.4526 H   0  0  0  0  0  0  0  0  0  0  0  0
  151.7286  140.4506  156.5028 H   0  0  0  0  0  0  0  0  0  0  0  0
  150.9717  143.8387  156.3847 H   0  0  0  0  0  0  0  0  0  0  0  0
  151.9996  145.5816  157.8635 H   0  0  0  0  0  0  0  0  0  0  0  0
  153.1065  144.8558  159.9982 H   0  0  0  0  0  0  0  0  0  0  0  0
  153.1319  142.4118  160.5631 H   0  0  0  0  0  0  0  0  0  0  0  0
  144.9398  140.8983  153.9053 H   0  0  0  0  0  0  0  0  0  0  0  0
  1  2  1  0  0  0  0
  1 19  1  0  0  0  0
  1 20  1  0  0  0  0
  1 21  1  0  0  0  0
  2  9  1  0  0  0  0
  2  3  1  0  0  0  0
  2 22  1  0  0  0  0
  3  4  1  0  0  0  0
  3 23  1  0  0  0  0
  3 24  1  0  0  0  0
  4  5  1  0  0  0  0
  4  6  1  0  0  0  0
  4 44  1  0  0  0  0
  5 25  1  0  0  0  0
  5 26  1  0  0  0  0
  5 27  1  0  0  0  0
  6  7  1  0  0  0  0
  6  8  1  0  0  0  0
  6 28  1  0  0  0  0
  7 29  1  0  0  0  0
  7 30  1  0  0  0  0
  7 31  1  0  0  0  0
  8  9  1  0  0  0  0
  8 32  1  0  0  0  0
  8 33  1  0  0  0  0
  9 10  1  0  0  0  0
  9 34  1  0  0  0  0
 10 11  1  0  0  0  0
 10 35  1  0  0  0  0
 11 12  1  0  0  0  0
 11 36  1  0  0  0  0
 11 37  1  0  0  0  0
 12 13  1  0  0  0  0
 12 38  1  0  0  0  0
 12 39  1  0  0  0  0
 13 18  1  0  0  0  0
 13 14  2  0  0  0  0
 14 15  1  0  0  0  0
 14 40  1  0  0  0  0
 15 16  2  0  0  0  0
 15 41  1  0  0  0  0
 16 17  1  0  0  0  0
 16 42  1  0  0  0  0
 17 18  2  0  0  0  0
 17 43  1  0  0  0  0
M  CHG  1   4   1
M  END
> <s_m_source_file>
AV-unprocessed.smi

> <i_m_source_file_index>
3303

> <i_lp_mmshare_version>
43012

> <i_f3d_flags>
0

> <s_epik_input>
W0NIM11bQ0BASF0xW0NIMl1OKFtDSDNdKVtDQEBIXShbQ0gzXSlbQ0gyXVtDQEhdMVtOSF1bQ0gyXVtDSDJdYzJbY0hdW2NIXVtjSF1bY0hdbjI=

> <s_epik_cmdline>
J2VwaWtfcHl0aG9uJywgJy1waCcsICc3LjAnLCAnLXRuJywgJzgnLCAnLW1hJywgJzIwMCcsICctbWV0YWxfYmluZGluZycsICctaW1hZScsICc8aW5maWxlLm1hZT4nLCAnLW9tYWUnLCAnPG91dGZpbGUubWFlPic=

> <r_epik_Ionization_Penalty>
2.31085

> <r_epik_Ionization_Penalty_Charging>
0.000313057

> <r_epik_Ionization_Penalty_Neutral>
2.31054

> <r_epik_State_Penalty>
2.4087

> <r_epik_Charging_Adjusted_Penalty>
2.40902

> <i_epik_Tot_Q>
1

> <i_epik_Tot_abs_Q>
1

> <r_epik_Metal_State_Penalty>
2.30979

> <b_epik_Metal_Only>
0

> <s_lp_Force_Field>
OPLS_2005

> <r_lp_Energy>
26.8033

> <b_lp_Chiralities_Consistent>
1

> <s_lp_Variant>
AV-unprocessed.smi:3303-31

> <Gold.Version>
5.8.1

> <Gold.Id.Protein>
6NUR|6NUR_protein|mol2

> <Gold.PLP.Fitness>
41.2745

> <Gold.PLP.PLP>
-37.8419

> <Gold.PLP.part.hbond>
-1.0000

> <Gold.PLP.part.metal>
0.0000

> <Gold.PLP.part.buried>
-2.8914

> <Gold.PLP.part.nonpolar>
-33.6376

> <Gold.PLP.part.repulsive>
0.0000

> <Gold.PLP.ligand.clash>
0.0000

> <Gold.PLP.ligand.torsion>
1.2947

> <Gold.PLP.Chemscore.Hbond>
2.0000

> <Gold.PLP.Chemscore.CHOScore>
0.0000

> <Gold.PLP.Chemscore.Metal>
0.0000

> <Gold.Chemscore.Hbonds>
donor molecule, donor type, donor heavy atom, donor atom, acceptor molecule, acceptor atom, score
      L1  H     4    44       P1 10175  2.00

> <Gold.PLP.Chemscore.Internal.Correction>
0.0220

> <Gold.Rescore>
     Score         DG    S(hbond)    S(metal)    S(lipo)     H(rot)  DE(clash)    DE(int)     intcor
     16.72     -18.26       0.93        0.00     111.56       1.33       0.27       1.27       ----

> <Gold.Chemscore.Fitness>
16.7181

> <Gold.Chemscore.DG>
-18.2551

> <Gold.Chemscore.ZeroCoef>
-5.4800

> <Gold.Chemscore.Hbond>
0.9342

> <Gold.Chemscore.Metal>
0.0000

> <Gold.Chemscore.Lipo>
111.5613

> <Gold.Chemscore.Internal_Hbond>
0.0000

> <Gold.Chemscore.DEClash>
0.2689

> <Gold.Chemscore.DEInternal>
1.2681

> <Gold.Chemscore.Rot>
1.3272

> <Gold.Chemscore.Internal.Correction>
   9.000000E+99

> <Gold.Chemscore.Hbonds>
donor molecule, donor type, donor heavy atom, donor atom, acceptor molecule, acceptor atom, score
      L1  H     4    44       P1 10175  0.85

> <Gold.Chemscore.Hbond.Weighted>
-3.1201

> <Gold.Chemscore.Metal.Weighted>
-0.0000

> <Gold.Chemscore.Lipo.Weighted>
-13.0527

> <Gold.Chemscore.Internal_Hbond.Weighted>
0.0000

> <Gold.Chemscore.DEClash.Weighted>
0.2689

> <Gold.Chemscore.DEInternal.Weighted>
1.2681

> <Gold.Chemscore.Rot.Weighted>
3.3976

> <Gold.Chemscore.Internal.Correction.Weighted>
   9.000000E+99

> <Gold.Protein.RotatedTorsions>
[ 6907 6896 6895 6894 ] final   -5.88 input  -60.11 | X-H torsion
[ 7974 7965 7964 7962 ] final   63.34 input  175.53 | X-H torsion
[ 8008 7997 7996 7995 ] final   94.50 input   59.86 | X-H torsion
[ 10167 10162 10161 10158 ] final  126.52 input  -65.29 | X-H torsion
[ 10718 10713 10712 10709 ] final -141.93 input   66.30 | X-H torsion
[ 10763 10752 10751 10750 ] final  -53.70 input  -60.55 | X-H torsion
[ 11005 11000 10999 10996 ] final -171.71 input  -57.11 | X-H torsion

> <Gold.Protein.ActiveResidues>
 VAL166  LYS551  ARG553  GLY616  TRP617  ASP618  TYR619  PRO620  LYS621  CYS622 
 ASP623  PHE694  ASN695  SER759  ASP760  ASP761  ALA762  ILE779  LEU786  VAL792 
 PHE793  MET794  SER795  GLU796  ALA797  LYS798  CYS799  TRP800  GLU811  SER814 

> <Gold.Protein.RotatedAtoms>
  151.4745  135.1048  159.9760 H   0  0  0  0  0  0  0  0  0  0  0  0  # atno 6907 bound_to 6896
  152.4804  133.8235  159.7076 H   0  0  0  0  0  0  0  0  0  0  0  0  # atno 6908 bound_to 6896
  150.8871  133.7232  159.2942 H   0  0  0  0  0  0  0  0  0  0  0  0  # atno 6909 bound_to 6896
  145.8630  139.3327  143.0807 H   0  0  0  0  0  0  0  0  0  0  0  0  # atno 7974 bound_to 7965
  156.0586  140.3299  155.7434 H   0  0  0  0  0  0  0  0  0  0  0  0  # atno 8008 bound_to 7997
  155.5491  140.0608  157.2871 H   0  0  0  0  0  0  0  0  0  0  0  0  # atno 8009 bound_to 7997
  154.4470  140.1897  156.0656 H   0  0  0  0  0  0  0  0  0  0  0  0  # atno 8010 bound_to 7997
  139.5627  144.6892  151.3998 H   0  0  0  0  0  0  0  0  0  0  0  0  # atno 10167 bound_to 10162
  156.3399  130.7631  151.1766 H   0  0  0  0  0  0  0  0  0  0  0  0  # atno 10718 bound_to 10713
  154.1630  135.6471  153.4990 H   0  0  0  0  0  0  0  0  0  0  0  0  # atno 10763 bound_to 10752
  153.0105  135.5365  154.6691 H   0  0  0  0  0  0  0  0  0  0  0  0  # atno 10764 bound_to 10752
  154.6010  135.2944  155.0507 H   0  0  0  0  0  0  0  0  0  0  0  0  # atno 10765 bound_to 10752
  140.5052  134.5855  157.5001 H   0  0  0  0  0  0  0  0  0  0  0  0  # atno 11005 bound_to 11000
  145.9226  140.9105  143.0397 LP  0  0  0  0  0  0  0  0  0  0  0  0  # atno 17320 bound_to 7965
  144.6726  140.1309  143.7443 LP  0  0  0  0  0  0  0  0  0  0  0  0  # atno 17321 bound_to 7965
  140.6908  143.7866  150.7252 LP  0  0  0  0  0  0  0  0  0  0  0  0  # atno 17342 bound_to 10162
  140.1348  143.4494  152.2232 LP  0  0  0  0  0  0  0  0  0  0  0  0  # atno 17343 bound_to 10162
  157.7445  131.0457  150.4859 LP  0  0  0  0  0  0  0  0  0  0  0  0  # atno 17370 bound_to 10713
  156.5037  130.4123  149.6339 LP  0  0  0  0  0  0  0  0  0  0  0  0  # atno 17371 bound_to 10713
  139.9690  134.7324  156.0079 LP  0  0  0  0  0  0  0  0  0  0  0  0  # atno 17394 bound_to 11000
  141.1415  133.6564  156.3743 LP  0  0  0  0  0  0  0  0  0  0  0  0  # atno 17395 bound_to 11000

$$$$
