AV-unprocessed.smi:1875|AV-procd|sdf|7618|dock10
  -GOLD-   22720 9343D 1   1.00000     0.00000
 Structure written by MMmdl.
 48 50  0  0  0  0  0  0  0  0  2 V2000
  143.6779  133.4299  150.9268 C   0  0  0  0  0  0  0  0  0  0  0  0
  145.0302  133.5289  151.6021 C   0  0  0  0  0  0  0  0  0  0  0  0
  145.9995  132.7325  151.1400 N   0  0  0  0  0  0  0  0  0  0  0  0
  147.2041  132.8228  151.7451 C   0  0  0  0  0  0  0  0  0  0  0  0
  147.4337  133.7135  152.8133 C   0  0  0  0  0  0  0  0  0  0  0  0
  146.3345  134.5033  153.2125 C   0  0  0  0  0  0  0  0  0  0  0  0
  146.4499  135.4949  154.3525 C   0  0  0  0  0  0  0  0  0  0  0  0
  147.4294  136.5406  154.0737 N   0  0  0  0  0  0  0  0  0  0  0  0
  146.9558  137.8786  154.4168 C   0  0  0  0  0  0  0  0  0  0  0  0
  147.7635  138.9637  153.6860 C   0  0  2  0  0  0  0  0  0  0  0  0
  147.7895  138.6493  152.3073 O   0  0  0  0  0  0  0  0  0  0  0  0
  149.2133  139.0382  154.2045 C   0  0  0  0  0  0  0  0  0  0  0  0
  149.5001  140.2844  154.9281 N   0  0  0  0  0  0  0  0  0  0  0  0
  149.0768  141.5543  154.6835 C   0  0  0  0  0  0  0  0  0  0  0  0
  149.6184  142.3583  155.6400 N   0  3  0  0  0  0  0  0  0  0  0  0
  150.3997  141.5906  156.5063 C   0  0  0  0  0  0  0  0  0  0  0  0
  151.1474  141.9516  157.6208 C   0  0  0  0  0  0  0  0  0  0  0  0
  151.8381  140.9199  158.2959 C   0  0  0  0  0  0  0  0  0  0  0  0
  152.6683  141.2812  159.5160 C   0  0  0  0  0  0  0  0  0  0  0  0
  151.7616  139.5753  157.8482 C   0  0  0  0  0  0  0  0  0  0  0  0
  152.5078  138.4743  158.5828 C   0  0  0  0  0  0  0  0  0  0  0  0
  150.9948  139.2281  156.7128 C   0  0  0  0  0  0  0  0  0  0  0  0
  150.3246  140.2578  156.0572 C   0  0  0  0  0  0  0  0  0  0  0  0
  145.1317  134.4081  152.6033 N   0  0  0  0  0  0  0  0  0  0  0  0
  143.6850  132.6950  150.1206 H   0  0  0  0  0  0  0  0  0  0  0  0
  143.3947  134.3944  150.5043 H   0  0  0  0  0  0  0  0  0  0  0  0
  142.9155  133.1346  151.6484 H   0  0  0  0  0  0  0  0  0  0  0  0
  147.9895  132.1806  151.3750 H   0  0  0  0  0  0  0  0  0  0  0  0
  148.3969  133.7848  153.2963 H   0  0  0  0  0  0  0  0  0  0  0  0
  145.4678  135.9357  154.5273 H   0  0  0  0  0  0  0  0  0  0  0  0
  146.7198  134.9613  155.2653 H   0  0  0  0  0  0  0  0  0  0  0  0
  147.6759  136.5133  153.0896 H   0  0  0  0  0  0  0  0  0  0  0  0
  145.9073  137.9646  154.1282 H   0  0  0  0  0  0  0  0  0  0  0  0
  146.9918  138.0381  155.4955 H   0  0  0  0  0  0  0  0  0  0  0  0
  147.2857  139.9358  153.8163 H   0  0  0  0  0  0  0  0  0  0  0  0
  148.5316  139.0867  151.9175 H   0  0  0  0  0  0  0  0  0  0  0  0
  149.4394  138.1972  154.8610 H   0  0  0  0  0  0  0  0  0  0  0  0
  149.9161  138.9762  153.3722 H   0  0  0  0  0  0  0  0  0  0  0  0
  148.4268  141.8667  153.8787 H   0  0  0  0  0  0  0  0  0  0  0  0
  151.1999  142.9771  157.9564 H   0  0  0  0  0  0  0  0  0  0  0  0
  153.7157  141.0251  159.3559 H   0  0  0  0  0  0  0  0  0  0  0  0
  152.3110  140.7453  160.3953 H   0  0  0  0  0  0  0  0  0  0  0  0
  152.6159  142.3485  159.7329 H   0  0  0  0  0  0  0  0  0  0  0  0
  152.3434  137.5018  158.1182 H   0  0  0  0  0  0  0  0  0  0  0  0
  152.1735  138.4090  159.6185 H   0  0  0  0  0  0  0  0  0  0  0  0
  153.5804  138.6691  158.5761 H   0  0  0  0  0  0  0  0  0  0  0  0
  150.9355  138.2053  156.3710 H   0  0  0  0  0  0  0  0  0  0  0  0
  149.4632  143.3569  155.6950 H   0  0  0  0  0  0  0  0  0  0  0  0
  1  2  1  0  0  0  0
  1 25  1  0  0  0  0
  1 26  1  0  0  0  0
  1 27  1  0  0  0  0
  2 24  1  0  0  0  0
  2  3  2  0  0  0  0
  3  4  1  0  0  0  0
  4  5  2  0  0  0  0
  4 28  1  0  0  0  0
  5  6  1  0  0  0  0
  5 29  1  0  0  0  0
  6  7  1  0  0  0  0
  6 24  2  0  0  0  0
  7  8  1  0  0  0  0
  7 30  1  0  0  0  0
  7 31  1  0  0  0  0
  8  9  1  0  0  0  0
  8 32  1  0  0  0  0
  9 10  1  0  0  0  0
  9 33  1  0  0  0  0
  9 34  1  0  0  0  0
 10 11  1  0  0  0  0
 10 12  1  0  0  0  0
 10 35  1  0  0  0  0
 11 36  1  0  0  0  0
 12 13  1  0  0  0  0
 12 37  1  0  0  0  0
 12 38  1  0  0  0  0
 13 23  1  0  0  0  0
 13 14  1  0  0  0  0
 14 15  2  0  0  0  0
 14 39  1  0  0  0  0
 15 16  1  0  0  0  0
 15 48  1  0  0  0  0
 16 23  2  0  0  0  0
 16 17  1  0  0  0  0
 17 18  2  0  0  0  0
 17 40  1  0  0  0  0
 18 19  1  0  0  0  0
 18 20  1  0  0  0  0
 19 41  1  0  0  0  0
 19 42  1  0  0  0  0
 19 43  1  0  0  0  0
 20 21  1  0  0  0  0
 20 22  2  0  0  0  0
 21 44  1  0  0  0  0
 21 45  1  0  0  0  0
 21 46  1  0  0  0  0
 22 23  1  0  0  0  0
 22 47  1  0  0  0  0
M  CHG  1  15   1
M  END
> <s_m_source_file>
AV-unprocessed.smi

> <i_m_source_file_index>
1875

> <i_lp_mmshare_version>
43012

> <i_f3d_flags>
0

> <s_epik_input>
W0NIM11jMW5bY0hdW2NIXWMobjEpW0NIMl1bTkhdW0NIMl1bQ0BIXShbT0hdKVtDSDJdbihbY0hdbjIpYyhjMjMpW2NIXWMoW0NIM10pYyhbY0hdMylbQ0gzXQ==

> <s_epik_cmdline>
J2VwaWtfcHl0aG9uJywgJy1waCcsICc3LjAnLCAnLXRuJywgJzgnLCAnLW1hJywgJzIwMCcsICctbWV0YWxfYmluZGluZycsICctaW1hZScsICc8aW5maWxlLm1hZT4nLCAnLW9tYWUnLCAnPG91dGZpbGUubWFlPic=

> <r_epik_Ionization_Penalty>
2.02862

> <r_epik_Ionization_Penalty_Charging>
1.0004

> <r_epik_Ionization_Penalty_Neutral>
1.02823

> <r_epik_State_Penalty>
2.23022

> <r_epik_Charging_Adjusted_Penalty>
3.23062

> <i_epik_Tot_Q>
1

> <i_epik_Tot_abs_Q>
1

> <r_epik_Metal_State_Penalty>
2.31249

> <b_epik_Metal_Only>
0

> <s_epik_Chemistry_Notes>
This compound contains an electron-poor aromatic ring that is susceptible to covalent hydrolysis at low pH, typically resulting in measured values for nitrogen ring protonation that are around two units higher than predicted values.

> <s_lp_Force_Field>
OPLS_2005

> <r_lp_Energy>
18.1078

> <b_lp_Chiralities_Consistent>
1

> <s_lp_Variant>
AV-unprocessed.smi:1875-7

> <Gold.Version>
5.8.1

> <Gold.Id.Protein>
6NUR|6NUR_protein|mol2

> <Gold.PLP.Fitness>
50.2245

> <Gold.PLP.PLP>
-38.0888

> <Gold.PLP.part.hbond>
-3.8403

> <Gold.PLP.part.metal>
0.0000

> <Gold.PLP.part.buried>
-3.1505

> <Gold.PLP.part.nonpolar>
-31.2443

> <Gold.PLP.part.repulsive>
0.4109

> <Gold.PLP.ligand.clash>
0.0000

> <Gold.PLP.ligand.torsion>
1.4874

> <Gold.PLP.Chemscore.Hbond>
4.0000

> <Gold.PLP.Chemscore.CHOScore>
1.0000

> <Gold.PLP.Chemscore.Metal>
0.0000

> <Gold.Chemscore.Hbonds>
donor molecule, donor type, donor heavy atom, donor atom, acceptor molecule, acceptor atom, score
      L1  H     8    32       P1  7948  0.94
      L1  H    11    36       P1  7957  1.00
      L1  H    15    48       P1  8028  1.76
      L1  C     4    28       P1 10747  0.87

> <Gold.PLP.Chemscore.Internal.Correction>
0.1105

> <Gold.Rescore>
     Score         DG    S(hbond)    S(metal)    S(lipo)     H(rot)  DE(clash)    DE(int)     intcor
     16.15     -17.96       2.96        0.00      83.65       2.80       0.31       1.50       ----

> <Gold.Chemscore.Fitness>
16.1465

> <Gold.Chemscore.DG>
-17.9634

> <Gold.Chemscore.ZeroCoef>
-5.4800

> <Gold.Chemscore.Hbond>
2.9558

> <Gold.Chemscore.Metal>
0.0000

> <Gold.Chemscore.Lipo>
83.6502

> <Gold.Chemscore.Internal_Hbond>
0.0000

> <Gold.Chemscore.DEClash>
0.3145

> <Gold.Chemscore.DEInternal>
1.5024

> <Gold.Chemscore.Rot>
2.8032

> <Gold.Chemscore.Internal.Correction>
   9.000000E+99

> <Gold.Chemscore.Hbonds>
donor molecule, donor type, donor heavy atom, donor atom, acceptor molecule, acceptor atom, score
      L1  H     8    32       P1  7948  0.91
      L1  H    11    36       P1  7957  0.96
      L1  H    15    48       P1  8028  0.86

> <Gold.Chemscore.Hbond.Weighted>
-9.8724

> <Gold.Chemscore.Metal.Weighted>
-0.0000

> <Gold.Chemscore.Lipo.Weighted>
-9.7871

> <Gold.Chemscore.Internal_Hbond.Weighted>
0.0000

> <Gold.Chemscore.DEClash.Weighted>
0.3145

> <Gold.Chemscore.DEInternal.Weighted>
1.5024

> <Gold.Chemscore.Rot.Weighted>
7.1761

> <Gold.Chemscore.Internal.Correction.Weighted>
   9.000000E+99

> <Gold.Protein.RotatedTorsions>
[ 6907 6896 6895 6894 ] final   13.08 input  -60.11 | X-H torsion
[ 7974 7965 7964 7962 ] final  -54.23 input  175.53 | X-H torsion
[ 8008 7997 7996 7995 ] final   88.68 input   59.86 | X-H torsion
[ 10167 10162 10161 10158 ] final -100.71 input  -65.29 | X-H torsion
[ 10718 10713 10712 10709 ] final   26.10 input   66.30 | X-H torsion
[ 10763 10752 10751 10750 ] final  171.97 input  -60.55 | X-H torsion
[ 11005 11000 10999 10996 ] final -161.32 input  -57.11 | X-H torsion

> <Gold.Protein.ActiveResidues>
 VAL166  LYS551  ARG553  GLY616  TRP617  ASP618  TYR619  PRO620  LYS621  CYS622 
 ASP623  PHE694  ASN695  SER759  ASP760  ASP761  ALA762  ILE779  LEU786  VAL792 
 PHE793  MET794  SER795  GLU796  ALA797  LYS798  CYS799  TRP800  GLU811  SER814 

> <Gold.Protein.RotatedAtoms>
  151.7806  135.0762  160.0372 H   0  0  0  0  0  0  0  0  0  0  0  0  # atno 6907 bound_to 6896
  152.3225  133.5865  159.5763 H   0  0  0  0  0  0  0  0  0  0  0  0  # atno 6908 bound_to 6896
  150.7377  133.9905  159.3647 H   0  0  0  0  0  0  0  0  0  0  0  0  # atno 6909 bound_to 6896
  145.8879  140.8093  142.9806 H   0  0  0  0  0  0  0  0  0  0  0  0  # atno 7974 bound_to 7965
  155.9907  140.3369  155.6750 H   0  0  0  0  0  0  0  0  0  0  0  0  # atno 8008 bound_to 7997
  155.6424  140.0696  157.2632 H   0  0  0  0  0  0  0  0  0  0  0  0  # atno 8009 bound_to 7997
  154.4218  140.1740  156.1575 H   0  0  0  0  0  0  0  0  0  0  0  0  # atno 8010 bound_to 7997
  140.2490  143.3486  152.0732 H   0  0  0  0  0  0  0  0  0  0  0  0  # atno 10167 bound_to 10162
  157.2023  130.6896  149.6193 H   0  0  0  0  0  0  0  0  0  0  0  0  # atno 10718 bound_to 10713
  154.4195  135.2757  155.1985 H   0  0  0  0  0  0  0  0  0  0  0  0  # atno 10763 bound_to 10752
  154.3937  135.6060  153.5861 H   0  0  0  0  0  0  0  0  0  0  0  0  # atno 10764 bound_to 10752
  152.9832  135.5909  154.4489 H   0  0  0  0  0  0  0  0  0  0  0  0  # atno 10765 bound_to 10752
  140.6217  134.4744  157.5224 H   0  0  0  0  0  0  0  0  0  0  0  0  # atno 11005 bound_to 11000
  144.6729  140.1485  143.7432 LP  0  0  0  0  0  0  0  0  0  0  0  0  # atno 17320 bound_to 7965
  145.8944  139.2394  143.1530 LP  0  0  0  0  0  0  0  0  0  0  0  0  # atno 17321 bound_to 7965
  139.5052  144.6791  151.6054 LP  0  0  0  0  0  0  0  0  0  0  0  0  # atno 17342 bound_to 10162
  140.6055  143.9532  150.6416 LP  0  0  0  0  0  0  0  0  0  0  0  0  # atno 17343 bound_to 10162
  155.9699  130.4578  150.5978 LP  0  0  0  0  0  0  0  0  0  0  0  0  # atno 17370 bound_to 10713
  157.3755  131.0772  151.1522 LP  0  0  0  0  0  0  0  0  0  0  0  0  # atno 17371 bound_to 10713
  139.9151  134.8264  156.1395 LP  0  0  0  0  0  0  0  0  0  0  0  0  # atno 17394 bound_to 11000
  141.0738  133.6785  156.2194 LP  0  0  0  0  0  0  0  0  0  0  0  0  # atno 17395 bound_to 11000

$$$$
