AV-unprocessed.smi:2274|AV-procd|sdf|9168|dock8
  -GOLD-   2272012383D 1   1.00000     0.00000
 Structure written by MMmdl.
 47 48  0  0  0  0  0  0  0  0  1 V2000
  146.1885  128.3700  152.6959 C   0  0  0  0  0  0  0  0  0  0  0  0
  145.4981  129.6045  152.1042 C   0  0  0  0  0  0  0  0  0  0  0  0
  146.2305  130.8221  152.4056 N   0  0  0  0  0  0  0  0  0  0  0  0
  147.3539  130.7397  153.1582 N   0  0  0  0  0  0  0  0  0  0  0  0
  147.8015  131.9815  153.2704 C   0  0  0  0  0  0  0  0  0  0  0  0
  149.0160  132.2411  154.1178 C   0  0  0  0  0  0  0  0  0  0  0  0
  146.9649  132.8780  152.5402 C   0  0  0  0  0  0  0  0  0  0  0  0
  147.0586  134.2868  152.4192 N   0  0  0  0  0  0  0  0  0  0  0  0
  146.1371  135.1865  152.7952 C   0  0  0  0  0  0  0  0  0  0  0  0
  145.0689  134.9130  153.3421 O   0  0  0  0  0  0  0  0  0  0  0  0
  146.5325  136.4373  152.5198 N   0  0  0  0  0  0  0  0  0  0  0  0
  145.7578  137.6401  152.8019 C   0  0  0  0  0  0  0  0  0  0  0  0
  146.5195  138.9134  152.3931 C   0  0  0  0  0  0  0  0  0  0  0  0
  147.2794  139.5574  153.5632 C   0  0  2  0  0  0  0  0  0  0  0  0
  147.5169  141.0633  153.3347 C   0  0  0  0  0  0  0  0  0  0  0  0
  148.3479  141.6590  154.4766 C   0  0  0  0  0  0  0  0  0  0  0  0
  149.6303  140.8416  154.6628 C   0  0  0  0  0  0  0  0  0  0  0  0
  149.2943  139.3506  154.8208 C   0  0  0  0  0  0  0  0  0  0  0  0
  148.5392  138.9020  153.6994 O   0  0  0  0  0  0  0  0  0  0  0  0
  145.9526  132.1229  152.0226 C   0  0  0  0  0  0  0  0  0  0  0  0
  144.7626  132.4951  151.1974 C   0  0  0  0  0  0  0  0  0  0  0  0
  145.6283  127.4642  152.4644 H   0  0  0  0  0  0  0  0  0  0  0  0
  146.2665  128.4447  153.7811 H   0  0  0  0  0  0  0  0  0  0  0  0
  147.1953  128.2509  152.2944 H   0  0  0  0  0  0  0  0  0  0  0  0
  145.4035  129.5035  151.0227 H   0  0  0  0  0  0  0  0  0  0  0  0
  144.4847  129.6948  152.4984 H   0  0  0  0  0  0  0  0  0  0  0  0
  148.9552  133.2126  154.6084 H   0  0  0  0  0  0  0  0  0  0  0  0
  149.9243  132.2236  153.5153 H   0  0  0  0  0  0  0  0  0  0  0  0
  149.1245  131.4892  154.9003 H   0  0  0  0  0  0  0  0  0  0  0  0
  147.9460  134.6475  152.1012 H   0  0  0  0  0  0  0  0  0  0  0  0
  147.4299  136.5678  152.0763 H   0  0  0  0  0  0  0  0  0  0  0  0
  144.7924  137.5907  152.2952 H   0  0  0  0  0  0  0  0  0  0  0  0
  145.5458  137.6576  153.8712 H   0  0  0  0  0  0  0  0  0  0  0  0
  147.2168  138.6840  151.5862 H   0  0  0  0  0  0  0  0  0  0  0  0
  145.8124  139.6393  151.9892 H   0  0  0  0  0  0  0  0  0  0  0  0
  146.7002  139.4188  154.4781 H   0  0  0  0  0  0  0  0  0  0  0  0
  148.0376  141.2149  152.3882 H   0  0  0  0  0  0  0  0  0  0  0  0
  146.5648  141.5890  153.2552 H   0  0  0  0  0  0  0  0  0  0  0  0
  148.5879  142.7023  154.2692 H   0  0  0  0  0  0  0  0  0  0  0  0
  147.7667  141.6469  155.3995 H   0  0  0  0  0  0  0  0  0  0  0  0
  150.2811  140.9781  153.7983 H   0  0  0  0  0  0  0  0  0  0  0  0
  150.1839  141.1996  155.5315 H   0  0  0  0  0  0  0  0  0  0  0  0
  150.2114  138.7647  154.8841 H   0  0  0  0  0  0  0  0  0  0  0  0
  148.7382  139.1720  155.7426 H   0  0  0  0  0  0  0  0  0  0  0  0
  144.8054  133.5403  150.8915 H   0  0  0  0  0  0  0  0  0  0  0  0
  143.8409  132.3476  151.7605 H   0  0  0  0  0  0  0  0  0  0  0  0
  144.7097  131.8865  150.2945 H   0  0  0  0  0  0  0  0  0  0  0  0
  1  2  1  0  0  0  0
  1 22  1  0  0  0  0
  1 23  1  0  0  0  0
  1 24  1  0  0  0  0
  2  3  1  0  0  0  0
  2 25  1  0  0  0  0
  2 26  1  0  0  0  0
  3 20  1  0  0  0  0
  3  4  1  0  0  0  0
  4  5  2  0  0  0  0
  5  6  1  0  0  0  0
  5  7  1  0  0  0  0
  6 27  1  0  0  0  0
  6 28  1  0  0  0  0
  6 29  1  0  0  0  0
  7  8  1  0  0  0  0
  7 20  2  0  0  0  0
  8  9  1  0  0  0  0
  8 30  1  0  0  0  0
  9 10  2  0  0  0  0
  9 11  1  0  0  0  0
 11 12  1  0  0  0  0
 11 31  1  0  0  0  0
 12 13  1  0  0  0  0
 12 32  1  0  0  0  0
 12 33  1  0  0  0  0
 13 14  1  0  0  0  0
 13 34  1  0  0  0  0
 13 35  1  0  0  0  0
 14 19  1  0  0  0  0
 14 15  1  0  0  0  0
 14 36  1  0  0  0  0
 15 16  1  0  0  0  0
 15 37  1  0  0  0  0
 15 38  1  0  0  0  0
 16 17  1  0  0  0  0
 16 39  1  0  0  0  0
 16 40  1  0  0  0  0
 17 18  1  0  0  0  0
 17 41  1  0  0  0  0
 17 42  1  0  0  0  0
 18 19  1  0  0  0  0
 18 43  1  0  0  0  0
 18 44  1  0  0  0  0
 20 21  1  0  0  0  0
 21 45  1  0  0  0  0
 21 46  1  0  0  0  0
 21 47  1  0  0  0  0
M  END
> <s_m_source_file>
AV-unprocessed.smi

> <i_m_source_file_index>
2274

> <i_lp_mmshare_version>
43012

> <i_f3d_flags>
0

> <s_epik_input>
W0NIM11bQ0gyXW4xbmMoW0NIM10pYyhjMVtDSDNdKVtOSF1DKD1PKVtOSF1bQ0gyXVtDSDJdW0NAQEhdMltDSDJdW0NIMl1bQ0gyXVtDSDJdTzI=

> <s_epik_cmdline>
J2VwaWtfcHl0aG9uJywgJy1waCcsICc3LjAnLCAnLXRuJywgJzgnLCAnLW1hJywgJzIwMCcsICctbWV0YWxfYmluZGluZycsICctaW1hZScsICc8aW5maWxlLm1hZT4nLCAnLW9tYWUnLCAnPG91dGZpbGUubWFlPic=

> <r_lp_tautomer_probability>
1

> <r_epik_Ionization_Penalty>
0.00368263

> <r_epik_Ionization_Penalty_Charging>
0

> <r_epik_Ionization_Penalty_Neutral>
0.00368263

> <r_epik_State_Penalty>
0.00259417

> <r_epik_Charging_Adjusted_Penalty>
0.00259417

> <i_epik_Tot_Q>
0

> <i_epik_Tot_abs_Q>
0

> <r_epik_Metal_State_Penalty>
-0

> <b_epik_Metal_Only>
0

> <s_lp_Force_Field>
OPLS_2005

> <r_lp_Energy>
11.6854

> <b_lp_Chiralities_Consistent>
1

> <s_lp_Variant>
AV-unprocessed.smi:2274-1

> <Gold.Version>
5.8.1

> <Gold.Id.Protein>
6NUR|6NUR_protein|mol2

> <Gold.PLP.Fitness>
42.6829

> <Gold.PLP.PLP>
-38.6681

> <Gold.PLP.part.hbond>
-1.8751

> <Gold.PLP.part.metal>
0.0000

> <Gold.PLP.part.buried>
-3.4894

> <Gold.PLP.part.nonpolar>
-34.9023

> <Gold.PLP.part.repulsive>
1.5602

> <Gold.PLP.ligand.clash>
0.0000

> <Gold.PLP.ligand.torsion>
1.0530

> <Gold.PLP.Chemscore.Hbond>
1.9280

> <Gold.PLP.Chemscore.CHOScore>
0.0000

> <Gold.PLP.Chemscore.Metal>
0.0000

> <Gold.Chemscore.Hbonds>
donor molecule, donor type, donor heavy atom, donor atom, acceptor molecule, acceptor atom, score
      L1  H     8    30       P1  7948  0.91
      L1  H    11    31       P1  7948  1.00

> <Gold.PLP.Chemscore.Internal.Correction>
0.3368

> <Gold.Rescore>
     Score         DG    S(hbond)    S(metal)    S(lipo)     H(rot)  DE(clash)    DE(int)     intcor
     17.01     -18.22       1.63        0.00      94.42       1.46       0.24       0.97       ----

> <Gold.Chemscore.Fitness>
17.0136

> <Gold.Chemscore.DG>
-18.2226

> <Gold.Chemscore.ZeroCoef>
-5.4800

> <Gold.Chemscore.Hbond>
1.6272

> <Gold.Chemscore.Metal>
0.0000

> <Gold.Chemscore.Lipo>
94.4196

> <Gold.Chemscore.Internal_Hbond>
0.0000

> <Gold.Chemscore.DEClash>
0.2381

> <Gold.Chemscore.DEInternal>
0.9709

> <Gold.Chemscore.Rot>
1.4606

> <Gold.Chemscore.Internal.Correction>
   9.000000E+99

> <Gold.Chemscore.Hbonds>
donor molecule, donor type, donor heavy atom, donor atom, acceptor molecule, acceptor atom, score
      L1  H     8    30       P1  7948  0.31
      L1  H    11    31       P1  7948  0.94

> <Gold.Chemscore.Hbond.Weighted>
-5.4347

> <Gold.Chemscore.Metal.Weighted>
-0.0000

> <Gold.Chemscore.Lipo.Weighted>
-11.0471

> <Gold.Chemscore.Internal_Hbond.Weighted>
0.0000

> <Gold.Chemscore.DEClash.Weighted>
0.2381

> <Gold.Chemscore.DEInternal.Weighted>
0.9709

> <Gold.Chemscore.Rot.Weighted>
3.7393

> <Gold.Chemscore.Internal.Correction.Weighted>
   9.000000E+99

> <Gold.Protein.RotatedTorsions>
[ 6907 6896 6895 6894 ] final  -94.25 input  -60.11 | X-H torsion
[ 7974 7965 7964 7962 ] final -155.37 input  175.53 | X-H torsion
[ 8008 7997 7996 7995 ] final  -58.31 input   59.86 | X-H torsion
[ 10167 10162 10161 10158 ] final  178.73 input  -65.29 | X-H torsion
[ 10718 10713 10712 10709 ] final  -73.44 input   66.30 | X-H torsion
[ 10763 10752 10751 10750 ] final -133.90 input  -60.55 | X-H torsion
[ 11005 11000 10999 10996 ] final  -24.26 input  -57.11 | X-H torsion

> <Gold.Protein.ActiveResidues>
 VAL166  LYS551  ARG553  GLY616  TRP617  ASP618  TYR619  PRO620  LYS621  CYS622 
 ASP623  PHE694  ASN695  SER759  ASP760  ASP761  ALA762  ILE779  LEU786  VAL792 
 PHE793  MET794  SER795  GLU796  ALA797  LYS798  CYS799  TRP800  GLU811  SER814 

> <Gold.Protein.RotatedAtoms>
  150.6938  134.1841  159.4259 H   0  0  0  0  0  0  0  0  0  0  0  0  # atno 6907 bound_to 6896
  151.9814  135.0024  160.0567 H   0  0  0  0  0  0  0  0  0  0  0  0  # atno 6908 bound_to 6896
  152.1751  133.4635  159.4966 H   0  0  0  0  0  0  0  0  0  0  0  0  # atno 6909 bound_to 6896
  144.7643  140.4259  143.5953 H   0  0  0  0  0  0  0  0  0  0  0  0  # atno 7974 bound_to 7965
  154.4303  140.1087  156.5936 H   0  0  0  0  0  0  0  0  0  0  0  0  # atno 8008 bound_to 7997
  155.5985  140.3493  155.4568 H   0  0  0  0  0  0  0  0  0  0  0  0  # atno 8009 bound_to 7997
  156.0191  140.1236  157.0365 H   0  0  0  0  0  0  0  0  0  0  0  0  # atno 8010 bound_to 7997
  139.5306  144.2645  152.0679 H   0  0  0  0  0  0  0  0  0  0  0  0  # atno 10167 bound_to 10162
  156.0280  130.4394  150.2743 H   0  0  0  0  0  0  0  0  0  0  0  0  # atno 10718 bound_to 10713
  154.8726  135.3751  154.4648 H   0  0  0  0  0  0  0  0  0  0  0  0  # atno 10763 bound_to 10752
  153.5313  135.7028  153.5687 H   0  0  0  0  0  0  0  0  0  0  0  0  # atno 10764 bound_to 10752
  153.3890  135.3977  155.1875 H   0  0  0  0  0  0  0  0  0  0  0  0  # atno 10765 bound_to 10752
  140.8828  133.7642  156.0323 H   0  0  0  0  0  0  0  0  0  0  0  0  # atno 11005 bound_to 11000
  145.6518  139.1566  143.2857 LP  0  0  0  0  0  0  0  0  0  0  0  0  # atno 17320 bound_to 7965
  146.1737  140.6606  142.9221 LP  0  0  0  0  0  0  0  0  0  0  0  0  # atno 17321 bound_to 7965
  140.2108  144.4565  150.6387 LP  0  0  0  0  0  0  0  0  0  0  0  0  # atno 17342 bound_to 10162
  140.6482  143.2218  151.6138 LP  0  0  0  0  0  0  0  0  0  0  0  0  # atno 17343 bound_to 10162
  157.0846  131.0153  151.3144 LP  0  0  0  0  0  0  0  0  0  0  0  0  # atno 17370 bound_to 10713
  157.4901  130.7817  149.7499 LP  0  0  0  0  0  0  0  0  0  0  0  0  # atno 17371 bound_to 10713
  140.8440  134.3032  157.5302 LP  0  0  0  0  0  0  0  0  0  0  0  0  # atno 17394 bound_to 11000
  139.8721  134.9432  156.3846 LP  0  0  0  0  0  0  0  0  0  0  0  0  # atno 17395 bound_to 11000

$$$$
