AV-unprocessed.smi:215|AV-procd|sdf|1657|dock8
  -GOLD-   2262020 53D 1   1.00000     0.00000
 Structure written by MMmdl.
 59 62  0  0  0  0  0  0  0  0  2 V2000
  156.0266  135.4189  161.8287 C   0  0  0  0  0  0  0  0  0  0  0  0
  154.9194  135.8692  162.8082 C   0  0  1  0  0  0  0  0  0  0  0  0
  155.2829  135.6692  164.2948 C   0  0  1  0  0  0  0  0  0  0  0  0
  155.9120  134.3556  164.6258 N   0  3  1  0  0  0  0  0  0  0  0  0
  156.6850  134.3962  165.8935 C   0  0  0  0  0  0  0  0  0  0  0  0
  154.9334  133.2325  164.6077 C   0  0  0  0  0  0  0  0  0  0  0  0
  154.0683  133.1617  165.8800 C   0  0  0  0  0  0  0  0  0  0  0  0
  153.1982  132.0519  165.8208 O   0  0  0  0  0  0  0  0  0  0  0  0
  156.1445  136.9098  164.5859 C   0  0  0  0  0  0  0  0  0  0  0  0
  155.5293  138.0046  163.7054 C   0  0  0  0  0  0  0  0  0  0  0  0
  154.7005  137.3072  162.7276 N   0  0  0  0  0  0  0  0  0  0  0  0
  154.1712  137.9413  161.6459 C   0  0  0  0  0  0  0  0  0  0  0  0
  153.7134  137.1784  160.6180 N   0  0  0  0  0  0  0  0  0  0  0  0
  153.1747  137.7440  159.5347 C   0  0  0  0  0  0  0  0  0  0  0  0
  153.0058  139.0392  159.2690 N   0  0  0  0  0  0  0  0  0  0  0  0
  153.4770  139.8173  160.2844 C   0  0  0  0  0  0  0  0  0  0  0  0
  154.0663  139.3580  161.4988 C   0  0  0  0  0  0  0  0  0  0  0  0
  154.4125  140.4521  162.2854 N   0  0  0  0  0  0  0  0  0  0  0  0
  154.0392  141.4887  161.5875 C   0  0  0  0  0  0  0  0  0  0  0  0
  153.4931  141.1992  160.3589 N   0  0  0  0  0  0  0  0  0  0  0  0
  152.9671  142.1379  159.4116 C   0  0  0  0  0  0  0  0  0  0  0  0
  152.9607  143.6401  159.7049 C   0  0  0  0  0  0  0  0  0  0  0  0
  151.6583  143.7868  158.8857 C   0  0  0  0  0  0  0  0  0  0  0  0
  150.6279  144.7506  159.4997 C   0  0  0  0  0  0  0  0  0  0  0  0
  149.3044  144.4051  159.1466 O   0  0  0  0  0  0  0  0  0  0  0  0
  151.8903  144.1629  157.4068 C   0  0  0  0  0  0  0  0  0  0  0  0
  151.0462  143.4429  156.5317 O   0  0  0  0  0  0  0  0  0  0  0  0
  151.4598  142.2845  159.1927 C   0  0  0  0  0  0  0  0  0  0  0  0
  153.9931  135.3390  162.5953 H   0  0  0  0  0  0  0  0  0  0  0  0
  154.3690  135.7592  164.8860 H   0  0  0  0  0  0  0  0  0  0  0  0
  156.1846  134.3428  161.8735 H   0  0  0  0  0  0  0  0  0  0  0  0
  156.9802  135.9039  162.0377 H   0  0  0  0  0  0  0  0  0  0  0  0
  155.7643  135.6543  160.7975 H   0  0  0  0  0  0  0  0  0  0  0  0
  156.0451  134.6810  166.7297 H   0  0  0  0  0  0  0  0  0  0  0  0
  157.5076  135.1084  165.8365 H   0  0  0  0  0  0  0  0  0  0  0  0
  157.1337  133.4324  166.1275 H   0  0  0  0  0  0  0  0  0  0  0  0
  154.2965  133.3268  163.7268 H   0  0  0  0  0  0  0  0  0  0  0  0
  155.4441  132.2758  164.5027 H   0  0  0  0  0  0  0  0  0  0  0  0
  154.6641  133.1130  166.7902 H   0  0  0  0  0  0  0  0  0  0  0  0
  153.4591  134.0627  165.9563 H   0  0  0  0  0  0  0  0  0  0  0  0
  152.5557  132.2070  165.1445 H   0  0  0  0  0  0  0  0  0  0  0  0
  156.1485  137.1879  165.6404 H   0  0  0  0  0  0  0  0  0  0  0  0
  157.1778  136.7385  164.2811 H   0  0  0  0  0  0  0  0  0  0  0  0
  154.8986  138.6680  164.2982 H   0  0  0  0  0  0  0  0  0  0  0  0
  156.3050  138.6045  163.2278 H   0  0  0  0  0  0  0  0  0  0  0  0
  152.8303  137.0612  158.7720 H   0  0  0  0  0  0  0  0  0  0  0  0
  154.1601  142.4991  161.9506 H   0  0  0  0  0  0  0  0  0  0  0  0
  153.4750  141.9293  158.4686 H   0  0  0  0  0  0  0  0  0  0  0  0
  152.8296  143.8523  160.7677 H   0  0  0  0  0  0  0  0  0  0  0  0
  153.8196  144.1808  159.3058 H   0  0  0  0  0  0  0  0  0  0  0  0
  150.6858  144.7365  160.5885 H   0  0  0  0  0  0  0  0  0  0  0  0
  150.8185  145.7806  159.1969 H   0  0  0  0  0  0  0  0  0  0  0  0
  149.0311  144.9539  158.4279 H   0  0  0  0  0  0  0  0  0  0  0  0
  151.7332  145.2293  157.2435 H   0  0  0  0  0  0  0  0  0  0  0  0
  152.9187  143.9617  157.1062 H   0  0  0  0  0  0  0  0  0  0  0  0
  150.3139  143.9928  156.2994 H   0  0  0  0  0  0  0  0  0  0  0  0
  151.0646  141.6906  158.3680 H   0  0  0  0  0  0  0  0  0  0  0  0
  150.8848  142.1137  160.1051 H   0  0  0  0  0  0  0  0  0  0  0  0
  156.5739  134.1680  163.8856 H   0  0  0  0  0  0  0  0  0  0  0  0
  1  2  1  0  0  0  0
  1 31  1  0  0  0  0
  1 32  1  0  0  0  0
  1 33  1  0  0  0  0
  2 29  1  0  0  0  0
  2 11  1  0  0  0  0
  2  3  1  0  0  0  0
  3 30  1  0  0  0  0
  3  4  1  0  0  0  0
  3  9  1  0  0  0  0
  4  5  1  0  0  0  0
  4  6  1  0  0  0  0
  4 59  1  0  0  0  0
  5 34  1  0  0  0  0
  5 35  1  0  0  0  0
  5 36  1  0  0  0  0
  6  7  1  0  0  0  0
  6 37  1  0  0  0  0
  6 38  1  0  0  0  0
  7  8  1  0  0  0  0
  7 39  1  0  0  0  0
  7 40  1  0  0  0  0
  8 41  1  0  0  0  0
  9 10  1  0  0  0  0
  9 42  1  0  0  0  0
  9 43  1  0  0  0  0
 10 11  1  0  0  0  0
 10 44  1  0  0  0  0
 10 45  1  0  0  0  0
 11 12  1  0  0  0  0
 12 17  1  0  0  0  0
 12 13  2  0  0  0  0
 13 14  1  0  0  0  0
 14 15  2  0  0  0  0
 14 46  1  0  0  0  0
 15 16  1  0  0  0  0
 16 20  1  0  0  0  0
 16 17  2  0  0  0  0
 17 18  1  0  0  0  0
 18 19  2  0  0  0  0
 19 20  1  0  0  0  0
 19 47  1  0  0  0  0
 20 21  1  0  0  0  0
 21 28  1  0  0  0  0
 21 22  1  0  0  0  0
 21 48  1  0  0  0  0
 22 23  1  0  0  0  0
 22 49  1  0  0  0  0
 22 50  1  0  0  0  0
 23 24  1  0  0  0  0
 23 26  1  0  0  0  0
 23 28  1  0  0  0  0
 24 25  1  0  0  0  0
 24 51  1  0  0  0  0
 24 52  1  0  0  0  0
 25 53  1  0  0  0  0
 26 27  1  0  0  0  0
 26 54  1  0  0  0  0
 26 55  1  0  0  0  0
 27 56  1  0  0  0  0
 28 57  1  0  0  0  0
 28 58  1  0  0  0  0
M  CHG  1   4   1
M  END
> <s_m_source_file>
AV-unprocessed.smi

> <i_m_source_file_index>
215

> <i_lp_mmshare_version>
43012

> <i_f3d_flags>
0

> <s_epik_input>
W09IXVtDSDJdW0NIMl1OKFtDSDNdKVtDQEBIXShbQ0BIXTFbQ0gzXSlbQ0gyXVtDSDJdTjFjKG5bY0hdbjIpYyhjMjMpbltjSF1uM1tDSF0oW0NIMl00KVtDSDJdQzQoW0NIMl1bT0hdKVtDSDJdW09IXQ==

> <s_epik_cmdline>
J2VwaWtfcHl0aG9uJywgJy1waCcsICc3LjAnLCAnLXRuJywgJzgnLCAnLW1hJywgJzIwMCcsICctbWV0YWxfYmluZGluZycsICctaW1hZScsICc8aW5maWxlLm1hZT4nLCAnLW9tYWUnLCAnPG91dGZpbGUubWFlPic=

> <r_lp_tautomer_probability>
1

> <r_epik_Ionization_Penalty>
0.0036237

> <r_epik_Ionization_Penalty_Charging>
0.0032725

> <r_epik_Ionization_Penalty_Neutral>
0.000351196

> <r_epik_State_Penalty>
-0

> <r_epik_Charging_Adjusted_Penalty>
0.0032725

> <i_epik_Tot_Q>
1

> <i_epik_Tot_abs_Q>
1

> <r_epik_Metal_State_Penalty>
-0

> <b_epik_Metal_Only>
0

> <s_lp_Force_Field>
OPLS_2005

> <r_lp_Energy>
65.1718

> <b_lp_Chiralities_Consistent>
1

> <s_lp_Variant>
AV-unprocessed.smi:215-8

> <Gold.Version>
5.8.1

> <Gold.Id.Protein>
6NUR|6NUR_protein|mol2

> <Gold.PLP.Fitness>
56.9516

> <Gold.PLP.PLP>
-52.7809

> <Gold.PLP.part.hbond>
-2.3786

> <Gold.PLP.part.metal>
0.0000

> <Gold.PLP.part.buried>
-8.4621

> <Gold.PLP.part.nonpolar>
-43.2496

> <Gold.PLP.part.repulsive>
0.0000

> <Gold.PLP.ligand.clash>
0.0000

> <Gold.PLP.ligand.torsion>
1.4661

> <Gold.PLP.Chemscore.Hbond>
2.1300

> <Gold.PLP.Chemscore.CHOScore>
0.0000

> <Gold.PLP.Chemscore.Metal>
0.0000

> <Gold.Chemscore.Hbonds>
donor molecule, donor type, donor heavy atom, donor atom, acceptor molecule, acceptor atom, score
      L1  H    25    53       P1  8029  1.00
      L1  H    27    56       P1  8028  1.00

> <Gold.PLP.Chemscore.Internal.Correction>
0.7129

> <Gold.Rescore>
     Score         DG    S(hbond)    S(metal)    S(lipo)     H(rot)  DE(clash)    DE(int)     intcor
     12.69     -14.92       1.98        0.00     122.17       4.48       0.03       2.19       ----

> <Gold.Chemscore.Fitness>
12.6940

> <Gold.Chemscore.DG>
-14.9199

> <Gold.Chemscore.ZeroCoef>
-5.4800

> <Gold.Chemscore.Hbond>
1.9794

> <Gold.Chemscore.Metal>
0.0000

> <Gold.Chemscore.Lipo>
122.1716

> <Gold.Chemscore.Internal_Hbond>
0.0000

> <Gold.Chemscore.DEClash>
0.0318

> <Gold.Chemscore.DEInternal>
2.1941

> <Gold.Chemscore.Rot>
4.4787

> <Gold.Chemscore.Internal.Correction>
   9.000000E+99

> <Gold.Chemscore.Hbonds>
donor molecule, donor type, donor heavy atom, donor atom, acceptor molecule, acceptor atom, score
      L1  H    25    53       P1  8029  0.78
      L1  H    27    56       P1  8028  1.00

> <Gold.Chemscore.Hbond.Weighted>
-6.6113

> <Gold.Chemscore.Metal.Weighted>
-0.0000

> <Gold.Chemscore.Lipo.Weighted>
-14.2941

> <Gold.Chemscore.Internal_Hbond.Weighted>
0.0000

> <Gold.Chemscore.DEClash.Weighted>
0.0318

> <Gold.Chemscore.DEInternal.Weighted>
2.1941

> <Gold.Chemscore.Rot.Weighted>
11.4655

> <Gold.Chemscore.Internal.Correction.Weighted>
   9.000000E+99

> <Gold.Protein.RotatedTorsions>
[ 6907 6896 6895 6894 ] final  150.80 input  -60.11 | X-H torsion
[ 7974 7965 7964 7962 ] final  -36.24 input  175.53 | X-H torsion
[ 8008 7997 7996 7995 ] final   91.74 input   59.86 | X-H torsion
[ 10167 10162 10161 10158 ] final  144.31 input  -65.29 | X-H torsion
[ 10718 10713 10712 10709 ] final   96.41 input   66.30 | X-H torsion
[ 10763 10752 10751 10750 ] final   -1.66 input  -60.55 | X-H torsion
[ 11005 11000 10999 10996 ] final    7.81 input  -57.11 | X-H torsion

> <Gold.Protein.ActiveResidues>
 VAL166  LYS551  ARG553  GLY616  TRP617  ASP618  TYR619  PRO620  LYS621  CYS622 
 ASP623  PHE694  ASN695  SER759  ASP760  ASP761  ALA762  ILE779  LEU786  VAL792 
 PHE793  MET794  SER795  GLU796  ALA797  LYS798  CYS799  TRP800  GLU811  SER814 

> <Gold.Protein.RotatedAtoms>
  152.1095  133.4293  159.4623 H   0  0  0  0  0  0  0  0  0  0  0  0  # atno 6907 bound_to 6896
  150.6867  134.2665  159.4580 H   0  0  0  0  0  0  0  0  0  0  0  0  # atno 6908 bound_to 6896
  152.0533  134.9640  160.0625 H   0  0  0  0  0  0  0  0  0  0  0  0  # atno 6909 bound_to 6896
  146.0678  140.6255  142.8966 H   0  0  0  0  0  0  0  0  0  0  0  0  # atno 7974 bound_to 7965
  156.0273  140.3334  155.7102 H   0  0  0  0  0  0  0  0  0  0  0  0  # atno 8008 bound_to 7997
  155.5936  140.0648  157.2770 H   0  0  0  0  0  0  0  0  0  0  0  0  # atno 8009 bound_to 7997
  154.4339  140.1823  156.1088 H   0  0  0  0  0  0  0  0  0  0  0  0  # atno 8010 bound_to 7997
  139.4950  144.5981  151.6540 H   0  0  0  0  0  0  0  0  0  0  0  0  # atno 10167 bound_to 10162
  157.6927  131.0577  150.4486 H   0  0  0  0  0  0  0  0  0  0  0  0  # atno 10718 bound_to 10713
  153.3478  135.6984  153.6813 H   0  0  0  0  0  0  0  0  0  0  0  0  # atno 10763 bound_to 10752
  153.5552  135.3546  155.2777 H   0  0  0  0  0  0  0  0  0  0  0  0  # atno 10764 bound_to 10752
  154.8648  135.4236  154.2706 H   0  0  0  0  0  0  0  0  0  0  0  0  # atno 10765 bound_to 10752
  140.5440  134.0347  155.7914 H   0  0  0  0  0  0  0  0  0  0  0  0  # atno 11005 bound_to 11000
  144.7213  140.4382  143.7006 LP  0  0  0  0  0  0  0  0  0  0  0  0  # atno 17320 bound_to 7965
  145.6445  139.1555  143.2896 LP  0  0  0  0  0  0  0  0  0  0  0  0  # atno 17321 bound_to 7965
  140.5624  144.0247  150.6176 LP  0  0  0  0  0  0  0  0  0  0  0  0  # atno 17342 bound_to 10162
  140.3337  143.3062  152.0660 LP  0  0  0  0  0  0  0  0  0  0  0  0  # atno 17343 bound_to 10162
  156.4839  130.4080  149.6445 LP  0  0  0  0  0  0  0  0  0  0  0  0  # atno 17370 bound_to 10713
  156.3480  130.7417  151.2372 LP  0  0  0  0  0  0  0  0  0  0  0  0  # atno 17371 bound_to 10713
  141.1210  133.9461  157.2729 LP  0  0  0  0  0  0  0  0  0  0  0  0  # atno 17394 bound_to 11000
  139.9489  135.0179  156.8935 LP  0  0  0  0  0  0  0  0  0  0  0  0  # atno 17395 bound_to 11000

$$$$
