AV-unprocessed.smi:766|AV-procd|sdf|3656|dock10
  -GOLD-   22720 1 63D 1   1.00000     0.00000
 Structure written by MMmdl.
 46 48  0  0  0  0  0  0  0  0  1 V2000
  153.1740  142.5108  161.9285 C   0  0  0  0  0  0  0  0  0  0  0  0
  152.6248  142.2691  160.5337 C   0  0  0  0  0  0  0  0  0  0  0  0
  152.9635  141.0744  159.8593 C   0  0  0  0  0  0  0  0  0  0  0  0
  152.4775  140.8136  158.5595 C   0  0  0  0  0  0  0  0  0  0  0  0
  152.6824  139.7288  157.7244 N   0  0  0  0  0  0  0  0  0  0  0  0
  151.9728  140.0781  156.6556 C   0  0  0  0  0  0  0  0  0  0  0  0
  151.3276  141.2599  156.7010 N   0  0  0  0  0  0  0  0  0  0  0  0
  150.5007  141.8487  155.6626 C   0  0  0  0  0  0  0  0  0  0  0  0
  149.0780  141.2498  155.6182 C   0  0  1  0  0  0  0  0  0  0  0  0
  148.2610  141.8728  156.5874 O   0  0  0  0  0  0  0  0  0  0  0  0
  148.3747  141.2953  154.2464 C   0  0  0  0  0  0  0  0  0  0  0  0
  148.6311  140.0937  153.4573 N   0  0  0  0  0  0  0  0  0  0  0  0
  147.4628  139.2320  153.3073 C   0  0  0  0  0  0  0  0  0  0  0  0
  147.1619  138.9477  151.8269 C   0  0  0  0  0  0  0  0  0  0  0  0
  146.5669  137.6376  151.6273 N   0  0  0  0  0  0  0  0  0  0  0  0
  145.5471  137.0410  152.3386 C   0  0  0  0  0  0  0  0  0  0  0  0
  145.3286  135.8126  151.7835 C   0  0  0  0  0  0  0  0  0  0  0  0
  146.2786  135.7458  150.7262 C   0  0  0  0  0  0  0  0  0  0  0  0
  147.0216  136.8373  150.6385 N   0  0  0  0  0  0  0  0  0  0  0  0
  151.6351  141.7882  157.9489 C   0  0  0  0  0  0  0  0  0  0  0  0
  151.2881  142.9790  158.6105 C   0  0  0  0  0  0  0  0  0  0  0  0
  151.7837  143.2244  159.9081 C   0  0  0  0  0  0  0  0  0  0  0  0
  151.4061  144.5153  160.6128 C   0  0  0  0  0  0  0  0  0  0  0  0
  153.8242  141.6958  162.2479 H   0  0  0  0  0  0  0  0  0  0  0  0
  152.3602  142.5924  162.6492 H   0  0  0  0  0  0  0  0  0  0  0  0
  153.7563  143.4321  161.9564 H   0  0  0  0  0  0  0  0  0  0  0  0
  153.6040  140.3462  160.3348 H   0  0  0  0  0  0  0  0  0  0  0  0
  151.9137  139.4370  155.7891 H   0  0  0  0  0  0  0  0  0  0  0  0
  150.4517  142.9249  155.8325 H   0  0  0  0  0  0  0  0  0  0  0  0
  151.0032  141.7112  154.7040 H   0  0  0  0  0  0  0  0  0  0  0  0
  149.1453  140.2016  155.9118 H   0  0  0  0  0  0  0  0  0  0  0  0
  148.2383  142.8005  156.4083 H   0  0  0  0  0  0  0  0  0  0  0  0
  147.3003  141.3990  154.4046 H   0  0  0  0  0  0  0  0  0  0  0  0
  148.6881  142.1841  153.6973 H   0  0  0  0  0  0  0  0  0  0  0  0
  148.9906  140.3534  152.5442 H   0  0  0  0  0  0  0  0  0  0  0  0
  147.6167  138.2917  153.8382 H   0  0  0  0  0  0  0  0  0  0  0  0
  146.5956  139.7079  153.7660 H   0  0  0  0  0  0  0  0  0  0  0  0
  146.4716  139.6973  151.4377 H   0  0  0  0  0  0  0  0  0  0  0  0
  148.0710  139.0196  151.2283 H   0  0  0  0  0  0  0  0  0  0  0  0
  145.0636  137.5367  153.1675 H   0  0  0  0  0  0  0  0  0  0  0  0
  144.5996  135.0748  152.0844 H   0  0  0  0  0  0  0  0  0  0  0  0
  146.4494  134.9424  150.0249 H   0  0  0  0  0  0  0  0  0  0  0  0
  150.6478  143.6976  158.1208 H   0  0  0  0  0  0  0  0  0  0  0  0
  150.7386  145.1219  160.0001 H   0  0  0  0  0  0  0  0  0  0  0  0
  152.2961  145.1079  160.8259 H   0  0  0  0  0  0  0  0  0  0  0  0
  150.8969  144.3036  161.5531 H   0  0  0  0  0  0  0  0  0  0  0  0
  1  2  1  0  0  0  0
  1 24  1  0  0  0  0
  1 25  1  0  0  0  0
  1 26  1  0  0  0  0
  2 22  1  0  0  0  0
  2  3  2  0  0  0  0
  3  4  1  0  0  0  0
  3 27  1  0  0  0  0
  4 20  2  0  0  0  0
  4  5  1  0  0  0  0
  5  6  2  0  0  0  0
  6  7  1  0  0  0  0
  6 28  1  0  0  0  0
  7  8  1  0  0  0  0
  7 20  1  0  0  0  0
  8  9  1  0  0  0  0
  8 29  1  0  0  0  0
  8 30  1  0  0  0  0
  9 10  1  0  0  0  0
  9 11  1  0  0  0  0
  9 31  1  0  0  0  0
 10 32  1  0  0  0  0
 11 12  1  0  0  0  0
 11 33  1  0  0  0  0
 11 34  1  0  0  0  0
 12 13  1  0  0  0  0
 12 35  1  0  0  0  0
 13 14  1  0  0  0  0
 13 36  1  0  0  0  0
 13 37  1  0  0  0  0
 14 15  1  0  0  0  0
 14 38  1  0  0  0  0
 14 39  1  0  0  0  0
 15 19  1  0  0  0  0
 15 16  1  0  0  0  0
 16 17  2  0  0  0  0
 16 40  1  0  0  0  0
 17 18  1  0  0  0  0
 17 41  1  0  0  0  0
 18 19  2  0  0  0  0
 18 42  1  0  0  0  0
 20 21  1  0  0  0  0
 21 22  2  0  0  0  0
 21 43  1  0  0  0  0
 22 23  1  0  0  0  0
 23 44  1  0  0  0  0
 23 45  1  0  0  0  0
 23 46  1  0  0  0  0
M  END
> <s_m_source_file>
AV-unprocessed.smi

> <i_m_source_file_index>
766

> <i_lp_mmshare_version>
43012

> <i_f3d_flags>
0

> <s_epik_input>
W0NIM11jKFtjSF0xKWMoW0NIM10pW2NIXWMoYzEyKW4oW2NIXW4yKVtDSDJdW0NASF0oW09IXSlbQ0gyXVtOSF1bQ0gyXVtDSDJdbjNbY0hdW2NIXVtjSF1uMw==

> <s_epik_cmdline>
J2VwaWtfcHl0aG9uJywgJy1waCcsICc3LjAnLCAnLXRuJywgJzgnLCAnLW1hJywgJzIwMCcsICctbWV0YWxfYmluZGluZycsICctaW1hZScsICc8aW5maWxlLm1hZT4nLCAnLW9tYWUnLCAnPG91dGZpbGUubWFlPic=

> <r_lp_tautomer_probability>
1

> <r_epik_Ionization_Penalty>
1.68727

> <r_epik_Ionization_Penalty_Charging>
0

> <r_epik_Ionization_Penalty_Neutral>
1.68727

> <r_epik_State_Penalty>
1.78741

> <r_epik_Charging_Adjusted_Penalty>
1.78741

> <i_epik_Tot_Q>
0

> <i_epik_Tot_abs_Q>
0

> <r_epik_Metal_State_Penalty>
1.73664

> <b_epik_Metal_Only>
0

> <s_lp_Force_Field>
OPLS_2005

> <r_lp_Energy>
18.4914

> <b_lp_Chiralities_Consistent>
1

> <s_lp_Variant>
AV-unprocessed.smi:766-6

> <Gold.Version>
5.8.1

> <Gold.Id.Protein>
6NUR|6NUR_protein|mol2

> <Gold.PLP.Fitness>
59.7280

> <Gold.PLP.PLP>
-48.6194

> <Gold.PLP.part.hbond>
-4.0000

> <Gold.PLP.part.metal>
0.0000

> <Gold.PLP.part.buried>
0.2851

> <Gold.PLP.part.nonpolar>
-46.0682

> <Gold.PLP.part.repulsive>
2.4124

> <Gold.PLP.ligand.clash>
0.0000

> <Gold.PLP.ligand.torsion>
2.0724

> <Gold.PLP.Chemscore.Hbond>
3.9193

> <Gold.PLP.Chemscore.CHOScore>
1.1372

> <Gold.PLP.Chemscore.Metal>
0.0000

> <Gold.Chemscore.Hbonds>
donor molecule, donor type, donor heavy atom, donor atom, acceptor molecule, acceptor atom, score
      L1  H    10    32       P1  8028  0.71
      L1  H    12    35       P1  7957  1.00
      P1  H  7954  7966       L1    19  0.88
      P1  H  7997  8010       L1     5  0.70
      L1  C    18    42       P1  7921  1.00

> <Gold.PLP.Chemscore.Internal.Correction>
0.0841

> <Gold.Rescore>
     Score         DG    S(hbond)    S(metal)    S(lipo)     H(rot)  DE(clash)    DE(int)     intcor
     16.50     -21.81       2.30        0.00     135.91       2.83       3.25       2.07       ----

> <Gold.Chemscore.Fitness>
16.4960

> <Gold.Chemscore.DG>
-21.8123

> <Gold.Chemscore.ZeroCoef>
-5.4800

> <Gold.Chemscore.Hbond>
2.3019

> <Gold.Chemscore.Metal>
0.0000

> <Gold.Chemscore.Lipo>
135.9085

> <Gold.Chemscore.Internal_Hbond>
0.0000

> <Gold.Chemscore.DEClash>
3.2512

> <Gold.Chemscore.DEInternal>
2.0651

> <Gold.Chemscore.Rot>
2.8348

> <Gold.Chemscore.Internal.Correction>
   9.000000E+99

> <Gold.Chemscore.Hbonds>
donor molecule, donor type, donor heavy atom, donor atom, acceptor molecule, acceptor atom, score
      L1  H    10    32       P1  8028  0.52
      L1  H    12    35       P1  7957  0.92
      P1  H  7954  7966       L1    19  0.30
      P1  H  7997  8010       L1     5  0.03

> <Gold.Chemscore.Hbond.Weighted>
-7.6882

> <Gold.Chemscore.Metal.Weighted>
-0.0000

> <Gold.Chemscore.Lipo.Weighted>
-15.9013

> <Gold.Chemscore.Internal_Hbond.Weighted>
0.0000

> <Gold.Chemscore.DEClash.Weighted>
3.2512

> <Gold.Chemscore.DEInternal.Weighted>
2.0651

> <Gold.Chemscore.Rot.Weighted>
7.2572

> <Gold.Chemscore.Internal.Correction.Weighted>
   9.000000E+99

> <Gold.Protein.RotatedTorsions>
[ 6907 6896 6895 6894 ] final  -93.17 input  -60.11 | X-H torsion
[ 7974 7965 7964 7962 ] final   17.05 input  175.53 | X-H torsion
[ 8008 7997 7996 7995 ] final   47.86 input   59.86 | X-H torsion
[ 10167 10162 10161 10158 ] final  -96.59 input  -65.29 | X-H torsion
[ 10718 10713 10712 10709 ] final  -24.12 input   66.30 | X-H torsion
[ 10763 10752 10751 10750 ] final  169.68 input  -60.55 | X-H torsion
[ 11005 11000 10999 10996 ] final  -38.35 input  -57.11 | X-H torsion

> <Gold.Protein.ActiveResidues>
 VAL166  LYS551  ARG553  GLY616  TRP617  ASP618  TYR619  PRO620  LYS621  CYS622 
 ASP623  PHE694  ASN695  SER759  ASP760  ASP761  ALA762  ILE779  LEU786  VAL792 
 PHE793  MET794  SER795  GLU796  ALA797  LYS798  CYS799  TRP800  GLU811  SER814 

> <Gold.Protein.RotatedAtoms>
  150.6918  134.2008  159.4321 H   0  0  0  0  0  0  0  0  0  0  0  0  # atno 6907 bound_to 6896
  151.9975  134.9944  160.0573 H   0  0  0  0  0  0  0  0  0  0  0  0  # atno 6908 bound_to 6896
  152.1610  133.4547  159.4898 H   0  0  0  0  0  0  0  0  0  0  0  0  # atno 6909 bound_to 6896
  146.2231  139.8659  142.8596 H   0  0  0  0  0  0  0  0  0  0  0  0  # atno 7974 bound_to 7965
  155.3761  140.3426  155.4245 H   0  0  0  0  0  0  0  0  0  0  0  0  # atno 8008 bound_to 7997
  156.1636  140.1609  156.8603 H   0  0  0  0  0  0  0  0  0  0  0  0  # atno 8009 bound_to 7997
  154.5163  140.0777  156.8070 H   0  0  0  0  0  0  0  0  0  0  0  0  # atno 8010 bound_to 7997
  140.2922  143.3214  152.0334 H   0  0  0  0  0  0  0  0  0  0  0  0  # atno 10167 bound_to 10162
  156.4819  130.4547  149.6807 H   0  0  0  0  0  0  0  0  0  0  0  0  # atno 10718 bound_to 10713
  154.3867  135.2753  155.2179 H   0  0  0  0  0  0  0  0  0  0  0  0  # atno 10763 bound_to 10752
  154.4263  135.5988  153.6044 H   0  0  0  0  0  0  0  0  0  0  0  0  # atno 10764 bound_to 10752
  152.9833  135.5984  154.4117 H   0  0  0  0  0  0  0  0  0  0  0  0  # atno 10765 bound_to 10752
  141.0021  133.6950  156.2042 H   0  0  0  0  0  0  0  0  0  0  0  0  # atno 11005 bound_to 11000
  145.2657  141.0092  143.3800 LP  0  0  0  0  0  0  0  0  0  0  0  0  # atno 17320 bound_to 7965
  144.9263  139.4351  143.6517 LP  0  0  0  0  0  0  0  0  0  0  0  0  # atno 17321 bound_to 7965
  139.4935  144.6517  151.6662 LP  0  0  0  0  0  0  0  0  0  0  0  0  # atno 17342 bound_to 10162
  140.5723  144.0088  150.6223 LP  0  0  0  0  0  0  0  0  0  0  0  0  # atno 17343 bound_to 10162
  156.3513  130.7433  151.2393 LP  0  0  0  0  0  0  0  0  0  0  0  0  # atno 17370 bound_to 10713
  157.7482  131.0376  150.4464 LP  0  0  0  0  0  0  0  0  0  0  0  0  # atno 17371 bound_to 10713
  140.6872  134.4704  157.5589 LP  0  0  0  0  0  0  0  0  0  0  0  0  # atno 17394 bound_to 11000
  139.9044  134.8482  156.1765 LP  0  0  0  0  0  0  0  0  0  0  0  0  # atno 17395 bound_to 11000

$$$$
