AV-unprocessed.smi:2040|AV-procd|sdf|8289|dock8
  -GOLD-   2272010553D 1   1.00000     0.00000
 Structure written by MMmdl.
 38 39  0  0  0  0  0  0  0  0  1 V2000
  153.2261  142.6403  162.5855 C   0  0  0  0  0  0  0  0  0  0  0  0
  152.7960  142.8266  161.1604 C   0  0  0  0  0  0  0  0  0  0  0  0
  152.6430  141.8305  160.1524 C   0  0  0  0  0  0  0  0  0  0  0  0
  152.2374  142.5596  159.0681 C   0  0  0  0  0  0  0  0  0  0  0  0
  151.9449  142.1326  157.8109 N   0  0  0  0  0  0  0  0  0  0  0  0
  151.1997  141.0797  157.4328 C   0  0  0  0  0  0  0  0  0  0  0  0
  150.6102  140.3126  158.1940 O   0  0  0  0  0  0  0  0  0  0  0  0
  151.1733  140.9662  156.0969 N   0  0  0  0  0  0  0  0  0  0  0  0
  150.4694  139.9322  155.3406 C   0  0  1  0  0  0  0  0  0  0  0  0
  150.7896  138.5553  155.9421 C   0  0  0  0  0  0  0  0  0  0  0  0
  148.9566  140.2258  155.3369 C   0  0  1  0  0  0  0  0  0  0  0  0
  148.5648  141.5350  154.6463 C   0  0  0  0  0  0  0  0  0  0  0  0
  147.1390  141.2517  154.2344 C   0  0  0  0  0  0  0  0  0  0  0  0
  147.2268  139.7882  153.8161 C   0  0  0  0  0  0  0  0  0  0  0  0
  148.2500  139.2119  154.6237 O   0  0  0  0  0  0  0  0  0  0  0  0
  152.1645  143.8871  159.4263 N   0  0  0  0  0  0  0  0  0  0  0  0
  151.7863  145.0366  158.6277 C   0  0  0  0  0  0  0  0  0  0  0  0
  152.5087  144.0473  160.7224 N   0  0  0  0  0  0  0  0  0  0  0  0
  153.5043  141.6045  162.7809 H   0  0  0  0  0  0  0  0  0  0  0  0
  152.4238  142.9038  163.2747 H   0  0  0  0  0  0  0  0  0  0  0  0
  154.0884  143.2646  162.8212 H   0  0  0  0  0  0  0  0  0  0  0  0
  152.8103  140.7671  160.2327 H   0  0  0  0  0  0  0  0  0  0  0  0
  152.3465  142.6827  157.0662 H   0  0  0  0  0  0  0  0  0  0  0  0
  151.6868  141.6460  155.5556 H   0  0  0  0  0  0  0  0  0  0  0  0
  150.8093  139.9362  154.3034 H   0  0  0  0  0  0  0  0  0  0  0  0
  150.3002  137.7577  155.3827 H   0  0  0  0  0  0  0  0  0  0  0  0
  150.4574  138.4866  156.9783 H   0  0  0  0  0  0  0  0  0  0  0  0
  151.8620  138.3580  155.9215 H   0  0  0  0  0  0  0  0  0  0  0  0
  148.5723  140.2378  156.3585 H   0  0  0  0  0  0  0  0  0  0  0  0
  148.6564  142.4051  155.2971 H   0  0  0  0  0  0  0  0  0  0  0  0
  149.1812  141.7035  153.7617 H   0  0  0  0  0  0  0  0  0  0  0  0
  146.4725  141.3605  155.0910 H   0  0  0  0  0  0  0  0  0  0  0  0
  146.7830  141.9036  153.4363 H   0  0  0  0  0  0  0  0  0  0  0  0
  146.2792  139.2630  153.9372 H   0  0  0  0  0  0  0  0  0  0  0  0
  147.5270  139.7087  152.7706 H   0  0  0  0  0  0  0  0  0  0  0  0
  150.7435  144.9429  158.3242 H   0  0  0  0  0  0  0  0  0  0  0  0
  152.4140  145.0873  157.7376 H   0  0  0  0  0  0  0  0  0  0  0  0
  151.9080  145.9584  159.1982 H   0  0  0  0  0  0  0  0  0  0  0  0
  1  2  1  0  0  0  0
  1 19  1  0  0  0  0
  1 20  1  0  0  0  0
  1 21  1  0  0  0  0
  2 18  2  0  0  0  0
  2  3  1  0  0  0  0
  3  4  2  0  0  0  0
  3 22  1  0  0  0  0
  4  5  1  0  0  0  0
  4 16  1  0  0  0  0
  5  6  1  0  0  0  0
  5 23  1  0  0  0  0
  6  7  2  0  0  0  0
  6  8  1  0  0  0  0
  8  9  1  0  0  0  0
  8 24  1  0  0  0  0
  9 10  1  0  0  0  0
  9 11  1  0  0  0  0
  9 25  1  0  0  0  0
 10 26  1  0  0  0  0
 10 27  1  0  0  0  0
 10 28  1  0  0  0  0
 11 15  1  0  0  0  0
 11 12  1  0  0  0  0
 11 29  1  0  0  0  0
 12 13  1  0  0  0  0
 12 30  1  0  0  0  0
 12 31  1  0  0  0  0
 13 14  1  0  0  0  0
 13 32  1  0  0  0  0
 13 33  1  0  0  0  0
 14 15  1  0  0  0  0
 14 34  1  0  0  0  0
 14 35  1  0  0  0  0
 16 17  1  0  0  0  0
 16 18  1  0  0  0  0
 17 36  1  0  0  0  0
 17 37  1  0  0  0  0
 17 38  1  0  0  0  0
M  END
> <s_m_source_file>
AV-unprocessed.smi

> <i_m_source_file_index>
2040

> <i_lp_mmshare_version>
43012

> <i_f3d_flags>
0

> <s_epik_input>
W0NIM11jMVtjSF1jKG4objEpW0NIM10pW05IXUMoPU8pW05IXVtDQEhdKFtDSDNdKVtDQEBIXTJbQ0gyXVtDSDJdW0NIMl1PMg==

> <s_epik_cmdline>
J2VwaWtfcHl0aG9uJywgJy1waCcsICc3LjAnLCAnLXRuJywgJzgnLCAnLW1hJywgJzIwMCcsICctbWV0YWxfYmluZGluZycsICctaW1hZScsICc8aW5maWxlLm1hZT4nLCAnLW9tYWUnLCAnPG91dGZpbGUubWFlPic=

> <r_lp_tautomer_probability>
1

> <r_epik_Ionization_Penalty>
9.09088e-05

> <r_epik_Ionization_Penalty_Charging>
0

> <r_epik_Ionization_Penalty_Neutral>
9.09088e-05

> <r_epik_State_Penalty>
-0

> <r_epik_Charging_Adjusted_Penalty>
0

> <i_epik_Tot_Q>
0

> <i_epik_Tot_abs_Q>
0

> <r_epik_Metal_State_Penalty>
-0

> <b_epik_Metal_Only>
0

> <s_lp_Force_Field>
OPLS_2005

> <r_lp_Energy>
18.8774

> <b_lp_Chiralities_Consistent>
1

> <s_lp_Variant>
AV-unprocessed.smi:2040-4

> <Gold.Version>
5.8.1

> <Gold.Id.Protein>
6NUR|6NUR_protein|mol2

> <Gold.PLP.Fitness>
37.6462

> <Gold.PLP.PLP>
-38.7372

> <Gold.PLP.part.hbond>
0.0000

> <Gold.PLP.part.metal>
0.0000

> <Gold.PLP.part.buried>
-0.1420

> <Gold.PLP.part.nonpolar>
-36.6695

> <Gold.PLP.part.repulsive>
0.4245

> <Gold.PLP.ligand.clash>
0.0000

> <Gold.PLP.ligand.torsion>
0.5508

> <Gold.PLP.Chemscore.Hbond>
0.0000

> <Gold.PLP.Chemscore.CHOScore>
0.0000

> <Gold.PLP.Chemscore.Metal>
0.0000

> <Gold.PLP.Chemscore.Internal.Correction>
0.0105

> <Gold.Rescore>
     Score         DG    S(hbond)    S(metal)    S(lipo)     H(rot)  DE(clash)    DE(int)     intcor
     10.37     -12.04       0.00        0.00      83.09       1.23       0.04       1.63       ----

> <Gold.Chemscore.Fitness>
10.3717

> <Gold.Chemscore.DG>
-12.0437

> <Gold.Chemscore.ZeroCoef>
-5.4800

> <Gold.Chemscore.Hbond>
0.0000

> <Gold.Chemscore.Metal>
0.0000

> <Gold.Chemscore.Lipo>
83.0948

> <Gold.Chemscore.Internal_Hbond>
0.0000

> <Gold.Chemscore.DEClash>
0.0402

> <Gold.Chemscore.DEInternal>
1.6317

> <Gold.Chemscore.Rot>
1.2338

> <Gold.Chemscore.Internal.Correction>
   9.000000E+99

> <Gold.Chemscore.Hbond.Weighted>
-0.0000

> <Gold.Chemscore.Metal.Weighted>
-0.0000

> <Gold.Chemscore.Lipo.Weighted>
-9.7221

> <Gold.Chemscore.Internal_Hbond.Weighted>
0.0000

> <Gold.Chemscore.DEClash.Weighted>
0.0402

> <Gold.Chemscore.DEInternal.Weighted>
1.6317

> <Gold.Chemscore.Rot.Weighted>
3.1584

> <Gold.Chemscore.Internal.Correction.Weighted>
   9.000000E+99

> <Gold.Protein.RotatedTorsions>
[ 6907 6896 6895 6894 ] final   55.32 input  -60.11 | X-H torsion
[ 7974 7965 7964 7962 ] final   37.90 input  175.53 | X-H torsion
[ 8008 7997 7996 7995 ] final   -1.93 input   59.86 | X-H torsion
[ 10167 10162 10161 10158 ] final  -41.98 input  -65.29 | X-H torsion
[ 10718 10713 10712 10709 ] final -121.57 input   66.30 | X-H torsion
[ 10763 10752 10751 10750 ] final -114.05 input  -60.55 | X-H torsion
[ 11005 11000 10999 10996 ] final  134.16 input  -57.11 | X-H torsion

> <Gold.Protein.ActiveResidues>
 VAL166  LYS551  ARG553  GLY616  TRP617  ASP618  TYR619  PRO620  LYS621  CYS622 
 ASP623  PHE694  ASN695  SER759  ASP760  ASP761  ALA762  ILE779  LEU786  VAL792 
 PHE793  MET794  SER795  GLU796  ALA797  LYS798  CYS799  TRP800  GLU811  SER814 

> <Gold.Protein.RotatedAtoms>
  152.3527  134.6983  160.0231 H   0  0  0  0  0  0  0  0  0  0  0  0  # atno 6907 bound_to 6896
  151.7332  133.3313  159.3354 H   0  0  0  0  0  0  0  0  0  0  0  0  # atno 6908 bound_to 6896
  150.7551  134.6278  159.6215 H   0  0  0  0  0  0  0  0  0  0  0  0  # atno 6909 bound_to 6896
  146.1102  139.5837  142.9357 H   0  0  0  0  0  0  0  0  0  0  0  0  # atno 7974 bound_to 7965
  154.6413  140.2547  155.7319 H   0  0  0  0  0  0  0  0  0  0  0  0  # atno 8008 bound_to 7997
  156.2530  140.2887  156.0728 H   0  0  0  0  0  0  0  0  0  0  0  0  # atno 8009 bound_to 7997
  155.1592  140.0384  157.2829 H   0  0  0  0  0  0  0  0  0  0  0  0  # atno 8010 bound_to 7997
  140.6985  143.3063  151.3144 H   0  0  0  0  0  0  0  0  0  0  0  0  # atno 10167 bound_to 10162
  156.1348  130.6422  150.9678 H   0  0  0  0  0  0  0  0  0  0  0  0  # atno 10718 bound_to 10713
  154.8423  135.4432  154.1445 H   0  0  0  0  0  0  0  0  0  0  0  0  # atno 10763 bound_to 10752
  153.2621  135.6937  153.7573 H   0  0  0  0  0  0  0  0  0  0  0  0  # atno 10764 bound_to 10752
  153.6846  135.3397  155.3162 H   0  0  0  0  0  0  0  0  0  0  0  0  # atno 10765 bound_to 10752
  139.9897  134.9519  156.9827 H   0  0  0  0  0  0  0  0  0  0  0  0  # atno 11005 bound_to 11000
  145.5678  141.0397  143.2191 LP  0  0  0  0  0  0  0  0  0  0  0  0  # atno 17320 bound_to 7965
  144.7505  139.7206  143.7275 LP  0  0  0  0  0  0  0  0  0  0  0  0  # atno 17321 bound_to 7965
  139.6471  144.0432  152.2598 LP  0  0  0  0  0  0  0  0  0  0  0  0  # atno 17342 bound_to 10162
  139.9956  144.6330  150.7775 LP  0  0  0  0  0  0  0  0  0  0  0  0  # atno 17343 bound_to 10162
  157.6522  131.0895  150.8026 LP  0  0  0  0  0  0  0  0  0  0  0  0  # atno 17370 bound_to 10713
  156.8107  130.4951  149.5356 LP  0  0  0  0  0  0  0  0  0  0  0  0  # atno 17371 bound_to 10713
  140.4933  134.1171  155.7236 LP  0  0  0  0  0  0  0  0  0  0  0  0  # atno 17394 bound_to 11000
  141.1555  133.8890  157.1988 LP  0  0  0  0  0  0  0  0  0  0  0  0  # atno 17395 bound_to 11000

$$$$
