AV-unprocessed.smi:2640|AV-procd|sdf|10271|dock3
  -GOLD-   2272014283D 1   1.00000     0.00000
 Structure written by MMmdl.
 41 42  0  0  0  0  0  0  0  0  1 V2000
  146.4643  139.5515  153.8843 O   0  0  0  0  0  0  0  0  0  0  0  0
  147.2815  139.0882  153.0895 C   0  0  0  0  0  0  0  0  0  0  0  0
  146.8144  138.5229  151.7504 C   0  0  0  0  0  0  0  0  0  0  0  0
  145.4465  138.0062  151.8433 N   0  0  0  0  0  0  0  0  0  0  0  0
  145.4452  136.6094  152.2527 C   0  0  0  0  0  0  0  0  0  0  0  0
  145.7312  135.7048  151.0417 C   0  0  0  0  0  0  0  0  0  0  0  0
  144.9870  134.4584  151.0936 N   0  0  0  0  0  0  0  0  0  0  0  0
  143.8838  134.1508  151.8618 C   0  0  0  0  0  0  0  0  0  0  0  0
  143.5251  132.8681  151.5616 C   0  0  0  0  0  0  0  0  0  0  0  0
  144.4832  132.4681  150.5886 C   0  0  0  0  0  0  0  0  0  0  0  0
  145.3578  133.4216  150.3115 N   0  0  0  0  0  0  0  0  0  0  0  0
  148.6038  139.0457  153.3237 N   0  0  0  0  0  0  0  0  0  0  0  0
  149.2753  139.5754  154.5122 C   0  0  1  0  0  0  0  0  0  0  0  0
  150.7747  139.2150  154.4029 C   0  0  0  0  0  0  0  0  0  0  0  0
  151.5116  139.2107  155.7540 C   0  0  0  0  0  0  0  0  0  0  0  0
  151.6044  140.5785  156.4479 C   0  0  0  0  0  0  0  0  0  0  0  0
  150.2375  141.1766  156.8222 C   0  0  0  0  0  0  0  0  0  0  0  0
  149.5620  141.7606  155.6710 N   0  0  0  0  0  0  0  0  0  0  0  0
  149.1284  141.1139  154.5784 C   0  0  0  0  0  0  0  0  0  0  0  0
  148.6282  141.7396  153.6434 O   0  0  0  0  0  0  0  0  0  0  0  0
  146.8668  139.3099  150.9963 H   0  0  0  0  0  0  0  0  0  0  0  0
  147.4907  137.7258  151.4368 H   0  0  0  0  0  0  0  0  0  0  0  0
  144.9653  138.0860  150.9587 H   0  0  0  0  0  0  0  0  0  0  0  0
  146.1938  136.4430  153.0289 H   0  0  0  0  0  0  0  0  0  0  0  0
  144.4739  136.3569  152.6801 H   0  0  0  0  0  0  0  0  0  0  0  0
  145.4666  136.2233  150.1193 H   0  0  0  0  0  0  0  0  0  0  0  0
  146.7962  135.4771  150.9764 H   0  0  0  0  0  0  0  0  0  0  0  0
  143.4483  134.8641  152.5460 H   0  0  0  0  0  0  0  0  0  0  0  0
  142.7030  132.3021  151.9734 H   0  0  0  0  0  0  0  0  0  0  0  0
  144.5682  131.5201  150.0783 H   0  0  0  0  0  0  0  0  0  0  0  0
  149.1955  138.6483  152.6090 H   0  0  0  0  0  0  0  0  0  0  0  0
  148.8414  139.1171  155.4027 H   0  0  0  0  0  0  0  0  0  0  0  0
  150.8692  138.2110  153.9859 H   0  0  0  0  0  0  0  0  0  0  0  0
  151.2852  139.8720  153.6964 H   0  0  0  0  0  0  0  0  0  0  0  0
  151.0321  138.4967  156.4247 H   0  0  0  0  0  0  0  0  0  0  0  0
  152.5228  138.8348  155.5962 H   0  0  0  0  0  0  0  0  0  0  0  0
  152.1881  140.4549  157.3607 H   0  0  0  0  0  0  0  0  0  0  0  0
  152.1653  141.2791  155.8278 H   0  0  0  0  0  0  0  0  0  0  0  0
  149.6000  140.4359  157.3066 H   0  0  0  0  0  0  0  0  0  0  0  0
  150.3834  141.9770  157.5479 H   0  0  0  0  0  0  0  0  0  0  0  0
  149.4383  142.7628  155.6886 H   0  0  0  0  0  0  0  0  0  0  0  0
  1  2  2  0  0  0  0
  2  3  1  0  0  0  0
  2 12  1  0  0  0  0
  3  4  1  0  0  0  0
  3 21  1  0  0  0  0
  3 22  1  0  0  0  0
  4  5  1  0  0  0  0
  4 23  1  0  0  0  0
  5  6  1  0  0  0  0
  5 24  1  0  0  0  0
  5 25  1  0  0  0  0
  6  7  1  0  0  0  0
  6 26  1  0  0  0  0
  6 27  1  0  0  0  0
  7 11  1  0  0  0  0
  7  8  1  0  0  0  0
  8  9  2  0  0  0  0
  8 28  1  0  0  0  0
  9 10  1  0  0  0  0
  9 29  1  0  0  0  0
 10 11  2  0  0  0  0
 10 30  1  0  0  0  0
 12 13  1  0  0  0  0
 12 31  1  0  0  0  0
 13 19  1  0  0  0  0
 13 14  1  0  0  0  0
 13 32  1  0  0  0  0
 14 15  1  0  0  0  0
 14 33  1  0  0  0  0
 14 34  1  0  0  0  0
 15 16  1  0  0  0  0
 15 35  1  0  0  0  0
 15 36  1  0  0  0  0
 16 17  1  0  0  0  0
 16 37  1  0  0  0  0
 16 38  1  0  0  0  0
 17 18  1  0  0  0  0
 17 39  1  0  0  0  0
 17 40  1  0  0  0  0
 18 19  1  0  0  0  0
 18 41  1  0  0  0  0
 19 20  2  0  0  0  0
M  END
> <s_m_source_file>
AV-unprocessed.smi

> <i_m_source_file_index>
2640

> <i_lp_mmshare_version>
43012

> <i_f3d_flags>
0

> <s_epik_input>
Tz1DMVtOSF1bQ0gyXVtDSDJdW0NIMl1bQ0gyXVtDQEhdMVtOSF1DKD1PKVtDSDJdW05IXVtDSDJdW0NIMl1uMltjSF1bY0hdW2NIXW4y

> <s_epik_cmdline>
J2VwaWtfcHl0aG9uJywgJy1waCcsICc3LjAnLCAnLXRuJywgJzgnLCAnLW1hJywgJzIwMCcsICctbWV0YWxfYmluZGluZycsICctaW1hZScsICc8aW5maWxlLm1hZT4nLCAnLW9tYWUnLCAnPG91dGZpbGUubWFlPic=

> <r_lp_tautomer_probability>
1

> <r_epik_Ionization_Penalty>
0.641667

> <r_epik_Ionization_Penalty_Charging>
0

> <r_epik_Ionization_Penalty_Neutral>
0.641667

> <r_epik_State_Penalty>
0.657743

> <r_epik_Charging_Adjusted_Penalty>
0.657743

> <i_epik_Tot_Q>
0

> <i_epik_Tot_abs_Q>
0

> <r_epik_Metal_State_Penalty>
0.656014

> <b_epik_Metal_Only>
0

> <s_lp_Force_Field>
OPLS_2005

> <r_lp_Energy>
12.1888

> <b_lp_Chiralities_Consistent>
1

> <s_lp_Variant>
AV-unprocessed.smi:2640-4

> <Gold.Version>
5.8.1

> <Gold.Id.Protein>
6NUR|6NUR_protein|mol2

> <Gold.PLP.Fitness>
48.3019

> <Gold.PLP.PLP>
-41.8456

> <Gold.PLP.part.hbond>
-5.3678

> <Gold.PLP.part.metal>
0.0000

> <Gold.PLP.part.buried>
-4.3516

> <Gold.PLP.part.nonpolar>
-34.3336

> <Gold.PLP.part.repulsive>
1.8907

> <Gold.PLP.ligand.clash>
0.0000

> <Gold.PLP.ligand.torsion>
1.1374

> <Gold.PLP.Chemscore.Hbond>
2.8800

> <Gold.PLP.Chemscore.CHOScore>
0.0000

> <Gold.PLP.Chemscore.Metal>
0.0000

> <Gold.Chemscore.Hbonds>
donor molecule, donor type, donor heavy atom, donor atom, acceptor molecule, acceptor atom, score
      L1  H     4    23       P1 10171  1.00
      L1  H    12    31       P1  7957  0.24
      L1  H    18    41       P1  8028  0.99
      P1  H  8011  8017       L1    20  0.61

> <Gold.PLP.Chemscore.Internal.Correction>
0.0912

> <Gold.Rescore>
     Score         DG    S(hbond)    S(metal)    S(lipo)     H(rot)  DE(clash)    DE(int)     intcor
     16.13     -17.98       2.91        0.00      75.86       2.37       0.64       1.21       ----

> <Gold.Chemscore.Fitness>
16.1274

> <Gold.Chemscore.DG>
-17.9847

> <Gold.Chemscore.ZeroCoef>
-5.4800

> <Gold.Chemscore.Hbond>
2.9056

> <Gold.Chemscore.Metal>
0.0000

> <Gold.Chemscore.Lipo>
75.8572

> <Gold.Chemscore.Internal_Hbond>
0.0000

> <Gold.Chemscore.DEClash>
0.6432

> <Gold.Chemscore.DEInternal>
1.2142

> <Gold.Chemscore.Rot>
2.3732

> <Gold.Chemscore.Internal.Correction>
   9.000000E+99

> <Gold.Chemscore.Hbonds>
donor molecule, donor type, donor heavy atom, donor atom, acceptor molecule, acceptor atom, score
      L1  H     4    23       P1 10171  0.99
      L1  H    12    31       P1  7957  0.20
      L1  H    18    41       P1  8028  0.92
      P1  H  8011  8017       L1    20  0.57

> <Gold.Chemscore.Hbond.Weighted>
-9.7047

> <Gold.Chemscore.Metal.Weighted>
-0.0000

> <Gold.Chemscore.Lipo.Weighted>
-8.8753

> <Gold.Chemscore.Internal_Hbond.Weighted>
0.0000

> <Gold.Chemscore.DEClash.Weighted>
0.6432

> <Gold.Chemscore.DEInternal.Weighted>
1.2142

> <Gold.Chemscore.Rot.Weighted>
6.0753

> <Gold.Chemscore.Internal.Correction.Weighted>
   9.000000E+99

> <Gold.Protein.RotatedTorsions>
[ 6907 6896 6895 6894 ] final  -75.48 input  -60.11 | X-H torsion
[ 7974 7965 7964 7962 ] final   32.01 input  175.53 | X-H torsion
[ 8008 7997 7996 7995 ] final  163.16 input   59.86 | X-H torsion
[ 10167 10162 10161 10158 ] final  -43.68 input  -65.29 | X-H torsion
[ 10718 10713 10712 10709 ] final   83.04 input   66.30 | X-H torsion
[ 10763 10752 10751 10750 ] final   19.40 input  -60.55 | X-H torsion
[ 11005 11000 10999 10996 ] final -136.49 input  -57.11 | X-H torsion

> <Gold.Protein.ActiveResidues>
 VAL166  LYS551  ARG553  GLY616  TRP617  ASP618  TYR619  PRO620  LYS621  CYS622 
 ASP623  PHE694  ASN695  SER759  ASP760  ASP761  ALA762  ILE779  LEU786  VAL792 
 PHE793  MET794  SER795  GLU796  ALA797  LYS798  CYS799  TRP800  GLU811  SER814 

> <Gold.Protein.RotatedAtoms>
  150.7058  134.4715  159.5427 H   0  0  0  0  0  0  0  0  0  0  0  0  # atno 6907 bound_to 6896
  152.2370  134.8263  160.0475 H   0  0  0  0  0  0  0  0  0  0  0  0  # atno 6908 bound_to 6896
  151.9058  133.3514  159.3883 H   0  0  0  0  0  0  0  0  0  0  0  0  # atno 6909 bound_to 6896
  146.1513  139.6581  142.9096 H   0  0  0  0  0  0  0  0  0  0  0  0  # atno 7974 bound_to 7965
  156.1978  140.1731  156.7962 H   0  0  0  0  0  0  0  0  0  0  0  0  # atno 8008 bound_to 7997
  154.5552  140.0710  156.8763 H   0  0  0  0  0  0  0  0  0  0  0  0  # atno 8009 bound_to 7997
  155.2952  140.3358  155.4253 H   0  0  0  0  0  0  0  0  0  0  0  0  # atno 8010 bound_to 7997
  140.6925  143.2970  151.3386 H   0  0  0  0  0  0  0  0  0  0  0  0  # atno 10167 bound_to 10162
  157.6870  131.0073  150.2464 H   0  0  0  0  0  0  0  0  0  0  0  0  # atno 10718 bound_to 10713
  153.1165  135.6709  153.9409 H   0  0  0  0  0  0  0  0  0  0  0  0  # atno 10763 bound_to 10752
  153.8937  135.3044  155.3449 H   0  0  0  0  0  0  0  0  0  0  0  0  # atno 10764 bound_to 10752
  154.7581  135.5002  153.9490 H   0  0  0  0  0  0  0  0  0  0  0  0  # atno 10765 bound_to 10752
  140.8800  134.1944  157.4597 H   0  0  0  0  0  0  0  0  0  0  0  0  # atno 11005 bound_to 11000
  145.4815  141.0438  143.2643 LP  0  0  0  0  0  0  0  0  0  0  0  0  # atno 17320 bound_to 7965
  144.7908  139.6332  143.7114 LP  0  0  0  0  0  0  0  0  0  0  0  0  # atno 17321 bound_to 7965
  139.6343  144.0661  152.2502 LP  0  0  0  0  0  0  0  0  0  0  0  0  # atno 17342 bound_to 10162
  140.0146  144.6199  150.7618 LP  0  0  0  0  0  0  0  0  0  0  0  0  # atno 17343 bound_to 10162
  156.3068  130.3766  149.7698 LP  0  0  0  0  0  0  0  0  0  0  0  0  # atno 17370 bound_to 10713
  156.5311  130.8258  151.3237 LP  0  0  0  0  0  0  0  0  0  0  0  0  # atno 17371 bound_to 10713
  139.8719  134.9813  156.5109 LP  0  0  0  0  0  0  0  0  0  0  0  0  # atno 17394 bound_to 11000
  140.8473  133.8159  155.9133 LP  0  0  0  0  0  0  0  0  0  0  0  0  # atno 17395 bound_to 11000

$$$$
