AV-unprocessed.smi:16|AV-procd|sdf|94|dock5
  -GOLD-   2262015233D 1   1.00000     0.00000
 Structure written by MMmdl.
 60 64  0  0  0  0  0  0  0  0  2 V2000
  150.3387  138.1393  158.5128 C   0  0  0  0  0  0  0  0  0  0  0  0
  149.6966  138.1577  157.1189 C   0  0  0  0  0  0  0  0  0  0  0  0
  150.6459  138.5956  156.0616 N   0  3  2  0  0  0  0  0  0  0  0  0
  151.1752  139.9754  156.2263 C   0  0  0  0  0  0  0  0  0  0  0  0
  150.1442  141.0403  155.8201 C   0  0  0  0  0  0  0  0  0  0  0  0
  149.6641  140.8114  154.3734 C   0  0  2  0  0  0  0  0  0  0  0  0
  148.7084  141.7861  153.9544 O   0  0  0  0  0  0  0  0  0  0  0  0
  147.4288  141.6621  154.5679 C   0  0  0  0  0  0  0  0  0  0  0  0
  146.8570  140.2640  154.3012 C   0  0  0  0  0  0  0  0  0  0  0  0
  147.7885  139.2318  154.7418 N   0  0  0  0  0  0  0  0  0  0  0  0
  147.1987  138.0143  154.6778 C   0  0  0  0  0  0  0  0  0  0  0  0
  147.2353  137.1733  155.7448 N   0  0  0  0  0  0  0  0  0  0  0  0
  146.6609  135.9692  155.6650 C   0  0  0  0  0  0  0  0  0  0  0  0
  146.0145  135.4199  154.6345 N   0  0  0  0  0  0  0  0  0  0  0  0
  145.9842  136.2584  153.5583 C   0  0  0  0  0  0  0  0  0  0  0  0
  146.5512  137.5617  153.4982 C   0  0  0  0  0  0  0  0  0  0  0  0
  146.3269  138.1258  152.2500 N   0  0  0  0  0  0  0  0  0  0  0  0
  145.6667  137.2044  151.6030 C   0  0  0  0  0  0  0  0  0  0  0  0
  145.4151  136.0498  152.3116 N   0  0  0  0  0  0  0  0  0  0  0  0
  144.7158  134.8915  151.8290 C   0  0  0  0  0  0  0  0  0  0  0  0
  144.9676  133.4996  152.4123 C   0  0  0  0  0  0  0  0  0  0  0  0
  144.6780  132.8777  151.0260 C   0  0  0  0  0  0  0  0  0  0  0  0
  145.6227  131.7262  150.6387 C   0  0  0  0  0  0  0  0  0  0  0  0
  146.9592  131.9827  151.0184 O   0  0  0  0  0  0  0  0  0  0  0  0
  143.2149  132.4220  150.8423 C   0  0  0  0  0  0  0  0  0  0  0  0
  142.8951  132.1794  149.4875 O   0  0  0  0  0  0  0  0  0  0  0  0
  145.0393  134.2747  150.4680 C   0  0  0  0  0  0  0  0  0  0  0  0
  149.1292  139.3752  154.1592 C   0  0  2  0  0  0  0  0  0  0  0  0
  150.1704  138.3394  154.6740 C   0  0  0  0  0  0  0  0  0  0  0  0
  150.5297  140.9436  153.7229 H   0  0  0  0  0  0  0  0  0  0  0  0
  149.0180  139.2281  153.0836 H   0  0  0  0  0  0  0  0  0  0  0  0
  149.6484  137.7192  159.2444 H   0  0  0  0  0  0  0  0  0  0  0  0
  150.6023  139.1392  158.8559 H   0  0  0  0  0  0  0  0  0  0  0  0
  151.2422  137.5288  158.5233 H   0  0  0  0  0  0  0  0  0  0  0  0
  149.3652  137.1423  156.8986 H   0  0  0  0  0  0  0  0  0  0  0  0
  148.8014  138.7786  157.1241 H   0  0  0  0  0  0  0  0  0  0  0  0
  151.5125  140.1440  157.2482 H   0  0  0  0  0  0  0  0  0  0  0  0
  152.0619  140.0760  155.5990 H   0  0  0  0  0  0  0  0  0  0  0  0
  149.3128  141.0183  156.5226 H   0  0  0  0  0  0  0  0  0  0  0  0
  150.5878  142.0327  155.9062 H   0  0  0  0  0  0  0  0  0  0  0  0
  147.4830  141.8651  155.6370 H   0  0  0  0  0  0  0  0  0  0  0  0
  146.7670  142.4186  154.1461 H   0  0  0  0  0  0  0  0  0  0  0  0
  145.8998  140.1588  154.8144 H   0  0  0  0  0  0  0  0  0  0  0  0
  146.6625  140.1426  153.2343 H   0  0  0  0  0  0  0  0  0  0  0  0
  146.7302  135.3573  156.5524 H   0  0  0  0  0  0  0  0  0  0  0  0
  145.3439  137.3449  150.5813 H   0  0  0  0  0  0  0  0  0  0  0  0
  143.6516  135.1287  151.8820 H   0  0  0  0  0  0  0  0  0  0  0  0
  145.9981  133.3559  152.7399 H   0  0  0  0  0  0  0  0  0  0  0  0
  144.2709  133.2101  153.1996 H   0  0  0  0  0  0  0  0  0  0  0  0
  145.3211  130.7988  151.1264 H   0  0  0  0  0  0  0  0  0  0  0  0
  145.5906  131.5317  149.5661 H   0  0  0  0  0  0  0  0  0  0  0  0
  147.5289  131.4280  150.5078 H   0  0  0  0  0  0  0  0  0  0  0  0
  143.0091  131.5183  151.4167 H   0  0  0  0  0  0  0  0  0  0  0  0
  142.5197  133.1766  151.2110 H   0  0  0  0  0  0  0  0  0  0  0  0
  142.2314  132.7960  149.2191 H   0  0  0  0  0  0  0  0  0  0  0  0
  144.4046  134.6268  149.6545 H   0  0  0  0  0  0  0  0  0  0  0  0
  146.0933  134.3613  150.1996 H   0  0  0  0  0  0  0  0  0  0  0  0
  151.0468  138.3955  154.0271 H   0  0  0  0  0  0  0  0  0  0  0  0
  149.8187  137.3124  154.5790 H   0  0  0  0  0  0  0  0  0  0  0  0
  151.4417  137.9842  156.1763 H   0  0  0  0  0  0  0  0  0  0  0  0
  1  2  1  0  0  0  0
  1 32  1  0  0  0  0
  1 33  1  0  0  0  0
  1 34  1  0  0  0  0
  2  3  1  0  0  0  0
  2 35  1  0  0  0  0
  2 36  1  0  0  0  0
  3 29  1  0  0  0  0
  3  4  1  0  0  0  0
  3 60  1  0  0  0  0
  4  5  1  0  0  0  0
  4 37  1  0  0  0  0
  4 38  1  0  0  0  0
  5  6  1  0  0  0  0
  5 39  1  0  0  0  0
  5 40  1  0  0  0  0
  6 30  1  0  0  0  0
  6 28  1  0  0  0  0
  6  7  1  0  0  0  0
  7  8  1  0  0  0  0
  8  9  1  0  0  0  0
  8 41  1  0  0  0  0
  8 42  1  0  0  0  0
  9 10  1  0  0  0  0
  9 43  1  0  0  0  0
  9 44  1  0  0  0  0
 10 11  1  0  0  0  0
 10 28  1  0  0  0  0
 11 16  1  0  0  0  0
 11 12  2  0  0  0  0
 12 13  1  0  0  0  0
 13 14  2  0  0  0  0
 13 45  1  0  0  0  0
 14 15  1  0  0  0  0
 15 19  1  0  0  0  0
 15 16  2  0  0  0  0
 16 17  1  0  0  0  0
 17 18  2  0  0  0  0
 18 19  1  0  0  0  0
 18 46  1  0  0  0  0
 19 20  1  0  0  0  0
 20 27  1  0  0  0  0
 20 21  1  0  0  0  0
 20 47  1  0  0  0  0
 21 22  1  0  0  0  0
 21 48  1  0  0  0  0
 21 49  1  0  0  0  0
 22 23  1  0  0  0  0
 22 25  1  0  0  0  0
 22 27  1  0  0  0  0
 23 24  1  0  0  0  0
 23 50  1  0  0  0  0
 23 51  1  0  0  0  0
 24 52  1  0  0  0  0
 25 26  1  0  0  0  0
 25 53  1  0  0  0  0
 25 54  1  0  0  0  0
 26 55  1  0  0  0  0
 27 56  1  0  0  0  0
 27 57  1  0  0  0  0
 28 31  1  0  0  0  0
 28 29  1  0  0  0  0
 29 58  1  0  0  0  0
 29 59  1  0  0  0  0
M  CHG  1   3   1
M  END
> <s_m_source_file>
AV-unprocessed.smi

> <i_m_source_file_index>
16

> <i_lp_mmshare_version>
43012

> <i_f3d_flags>
0

> <s_epik_input>
W0NIM11bQ0gyXU4oW0NIMl1bQ0gyXTEpW0NIMl1bQ0BASF0oW0NAQEhdMTIpTihbQ0gyXVtDSDJdTzIpYyhuW2NIXW4zKWMoYzM0KW5bY0hdbjRbQ0hdKFtDSDJdNSlbQ0gyXUM1KFtDSDJdW09IXSlbQ0gyXVtPSF0=

> <s_epik_cmdline>
J2VwaWtfcHl0aG9uJywgJy1waCcsICc3LjAnLCAnLXRuJywgJzgnLCAnLW1hJywgJzIwMCcsICctbWV0YWxfYmluZGluZycsICctaW1hZScsICc8aW5maWxlLm1hZT4nLCAnLW9tYWUnLCAnPG91dGZpbGUubWFlPic=

> <r_lp_tautomer_probability>
1

> <r_epik_Ionization_Penalty>
0.0135603

> <r_epik_Ionization_Penalty_Charging>
0.0131385

> <r_epik_Ionization_Penalty_Neutral>
0.000421734

> <r_epik_State_Penalty>
0.0102091

> <r_epik_Charging_Adjusted_Penalty>
0.0233476

> <i_epik_Tot_Q>
1

> <i_epik_Tot_abs_Q>
1

> <r_epik_Metal_State_Penalty>
0.0103746

> <b_epik_Metal_Only>
0

> <s_lp_Force_Field>
OPLS_2005

> <r_lp_Energy>
67.696

> <b_lp_Chiralities_Consistent>
1

> <s_lp_Variant>
AV-unprocessed.smi:16-8

> <Gold.Version>
5.8.1

> <Gold.Id.Protein>
6NUR|6NUR_protein|mol2

> <Gold.PLP.Fitness>
49.4689

> <Gold.PLP.PLP>
-39.0213

> <Gold.PLP.part.hbond>
-4.2155

> <Gold.PLP.part.metal>
0.0000

> <Gold.PLP.part.buried>
-2.3625

> <Gold.PLP.part.nonpolar>
-34.0656

> <Gold.PLP.part.repulsive>
0.6757

> <Gold.PLP.ligand.clash>
0.0000

> <Gold.PLP.ligand.torsion>
1.1199

> <Gold.PLP.Chemscore.Hbond>
3.0021

> <Gold.PLP.Chemscore.CHOScore>
0.9897

> <Gold.PLP.Chemscore.Metal>
0.0000

> <Gold.Chemscore.Hbonds>
donor molecule, donor type, donor heavy atom, donor atom, acceptor molecule, acceptor atom, score
      L1  H    24    52       P1 10747  0.98
      L1  H    26    55       P1 10186  0.96
      P1  H  8011  8017       L1     7  0.40
      P1  H 10785 10796       L1    26  0.60
      L1  C    18    46       P1 10171  1.00

> <Gold.PLP.Chemscore.Internal.Correction>
0.7119

> <Gold.Rescore>
     Score         DG    S(hbond)    S(metal)    S(lipo)     H(rot)  DE(clash)    DE(int)     intcor
     13.97     -15.72       2.42        0.00      91.20       3.33       0.91       0.83       ----

> <Gold.Chemscore.Fitness>
13.9681

> <Gold.Chemscore.DG>
-15.7157

> <Gold.Chemscore.ZeroCoef>
-5.4800

> <Gold.Chemscore.Hbond>
2.4185

> <Gold.Chemscore.Metal>
0.0000

> <Gold.Chemscore.Lipo>
91.1975

> <Gold.Chemscore.Internal_Hbond>
0.0000

> <Gold.Chemscore.DEClash>
0.9142

> <Gold.Chemscore.DEInternal>
0.8335

> <Gold.Chemscore.Rot>
3.3251

> <Gold.Chemscore.Internal.Correction>
   9.000000E+99

> <Gold.Chemscore.Hbonds>
donor molecule, donor type, donor heavy atom, donor atom, acceptor molecule, acceptor atom, score
      L1  H    24    52       P1 10747  0.90
      L1  H    26    55       P1 10186  0.87
      P1  H  8011  8017       L1     7  0.06
      P1  H 10785 10796       L1    26  0.57

> <Gold.Chemscore.Hbond.Weighted>
-8.0778

> <Gold.Chemscore.Metal.Weighted>
-0.0000

> <Gold.Chemscore.Lipo.Weighted>
-10.6701

> <Gold.Chemscore.Internal_Hbond.Weighted>
0.0000

> <Gold.Chemscore.DEClash.Weighted>
0.9142

> <Gold.Chemscore.DEInternal.Weighted>
0.8335

> <Gold.Chemscore.Rot.Weighted>
8.5122

> <Gold.Chemscore.Internal.Correction.Weighted>
   9.000000E+99

> <Gold.Protein.RotatedTorsions>
[ 6907 6896 6895 6894 ] final -157.14 input  -60.11 | X-H torsion
[ 7974 7965 7964 7962 ] final  -49.33 input  175.53 | X-H torsion
[ 8008 7997 7996 7995 ] final  116.21 input   59.86 | X-H torsion
[ 10167 10162 10161 10158 ] final   21.70 input  -65.29 | X-H torsion
[ 10718 10713 10712 10709 ] final   43.08 input   66.30 | X-H torsion
[ 10763 10752 10751 10750 ] final -176.36 input  -60.55 | X-H torsion
[ 11005 11000 10999 10996 ] final   29.54 input  -57.11 | X-H torsion

> <Gold.Protein.ActiveResidues>
 VAL166  LYS551  ARG553  GLY616  TRP617  ASP618  TYR619  PRO620  LYS621  CYS622 
 ASP623  PHE694  ASN695  SER759  ASP760  ASP761  ALA762  ILE779  LEU786  VAL792 
 PHE793  MET794  SER795  GLU796  ALA797  LYS798  CYS799  TRP800  GLU811  SER814 

> <Gold.Protein.RotatedAtoms>
  151.2983  133.4134  159.2637 H   0  0  0  0  0  0  0  0  0  0  0  0  # atno 6907 bound_to 6896
  151.0217  134.9475  159.8073 H   0  0  0  0  0  0  0  0  0  0  0  0  # atno 6908 bound_to 6896
  152.5326  134.2946  159.9108 H   0  0  0  0  0  0  0  0  0  0  0  0  # atno 6909 bound_to 6896
  145.9417  140.7656  142.9549 H   0  0  0  0  0  0  0  0  0  0  0  0  # atno 7974 bound_to 7965
  156.2426  140.2922  156.0488 H   0  0  0  0  0  0  0  0  0  0  0  0  # atno 8008 bound_to 7997
  155.1904  140.0406  157.2916 H   0  0  0  0  0  0  0  0  0  0  0  0  # atno 8009 bound_to 7997
  154.6198  140.2473  155.7570 H   0  0  0  0  0  0  0  0  0  0  0  0  # atno 8010 bound_to 7997
  140.5406  143.9683  150.6517 H   0  0  0  0  0  0  0  0  0  0  0  0  # atno 10167 bound_to 10162
  157.4120  130.7919  149.7438 H   0  0  0  0  0  0  0  0  0  0  0  0  # atno 10718 bound_to 10713
  154.5732  135.2830  155.0806 H   0  0  0  0  0  0  0  0  0  0  0  0  # atno 10763 bound_to 10752
  154.2171  135.6398  153.5137 H   0  0  0  0  0  0  0  0  0  0  0  0  # atno 10764 bound_to 10752
  153.0064  135.5505  154.6363 H   0  0  0  0  0  0  0  0  0  0  0  0  # atno 10765 bound_to 10752
  140.3039  134.2726  155.7748 H   0  0  0  0  0  0  0  0  0  0  0  0  # atno 11005 bound_to 11000
  144.6780  140.2290  143.7357 LP  0  0  0  0  0  0  0  0  0  0  0  0  # atno 17320 bound_to 7965
  145.8291  139.2078  143.1893 LP  0  0  0  0  0  0  0  0  0  0  0  0  # atno 17321 bound_to 7965
  140.3083  143.3215  152.0904 LP  0  0  0  0  0  0  0  0  0  0  0  0  # atno 17342 bound_to 10162
  139.4987  144.6653  151.6371 LP  0  0  0  0  0  0  0  0  0  0  0  0  # atno 17343 bound_to 10162
  155.9853  130.3984  150.3266 LP  0  0  0  0  0  0  0  0  0  0  0  0  # atno 17370 bound_to 10713
  157.1405  131.0295  151.2929 LP  0  0  0  0  0  0  0  0  0  0  0  0  # atno 17371 bound_to 10713
  141.2122  133.7664  156.9807 LP  0  0  0  0  0  0  0  0  0  0  0  0  # atno 17394 bound_to 11000
  140.1085  134.9492  157.2030 LP  0  0  0  0  0  0  0  0  0  0  0  0  # atno 17395 bound_to 11000

$$$$
