AV-unprocessed.smi:1410|AV-procd|sdf|5737|dock7
  -GOLD-   22720 5373D 1   1.00000     0.00000
 Structure written by MMmdl.
 40 41  0  0  0  0  0  0  0  0  4 V2000
  152.6238  124.7921  152.3398 N   0  5  0  0  0  0  0  0  0  0  0  0
  151.7033  124.0990  153.0368 C   0  0  0  0  0  0  0  0  0  0  0  0
  151.4230  122.9060  152.9398 O   0  0  0  0  0  0  0  0  0  0  0  0
  150.9388  124.9777  154.0328 C   0  0  0  0  0  0  0  0  0  0  0  0
  150.3248  126.1326  153.3312 N   0  3  2  0  0  0  0  0  0  0  0  0
  149.8463  127.1933  154.2583 C   0  0  0  0  0  0  0  0  0  0  0  0
  149.3464  128.4226  153.4824 C   0  0  0  0  0  0  0  0  0  0  0  0
  148.2373  128.0383  152.4906 C   0  0  1  0  0  0  0  0  0  0  0  0
  147.8383  129.2100  151.7161 N   0  0  0  0  0  0  0  0  0  0  0  0
  146.5848  129.6737  151.6082 C   0  0  0  0  0  0  0  0  0  0  0  0
  145.6141  129.1359  152.1405 O   0  0  0  0  0  0  0  0  0  0  0  0
  146.5361  130.7734  150.8363 N   0  0  0  0  0  0  0  0  0  0  0  0
  145.4088  131.5771  150.5130 C   0  0  0  0  0  0  0  0  0  0  0  0
  144.4439  131.7882  151.5228 C   0  0  0  0  0  0  0  0  0  0  0  0
  143.3010  132.5643  151.2413 C   0  0  0  0  0  0  0  0  0  0  0  0
  143.1319  133.0902  150.0093 N   0  3  0  0  0  0  0  0  0  0  0  0
  144.0183  132.9034  149.0080 C   0  0  0  0  0  0  0  0  0  0  0  0
  145.1804  132.1365  149.2298 C   0  0  0  0  0  0  0  0  0  0  0  0
  148.7395  126.9127  151.5682 C   0  0  0  0  0  0  0  0  0  0  0  0
  149.2601  125.7164  152.3832 C   0  0  0  0  0  0  0  0  0  0  0  0
  152.5542  125.8167  152.3141 H   0  0  0  0  0  0  0  0  0  0  0  0
  150.1609  124.3517  154.4722 H   0  0  0  0  0  0  0  0  0  0  0  0
  151.5631  125.3218  154.8605 H   0  0  0  0  0  0  0  0  0  0  0  0
  149.0479  126.7953  154.8867 H   0  0  0  0  0  0  0  0  0  0  0  0
  150.6489  127.5012  154.9286 H   0  0  0  0  0  0  0  0  0  0  0  0
  148.9796  129.1742  154.1824 H   0  0  0  0  0  0  0  0  0  0  0  0
  150.1830  128.8777  152.9496 H   0  0  0  0  0  0  0  0  0  0  0  0
  147.3801  127.6756  153.0613 H   0  0  0  0  0  0  0  0  0  0  0  0
  148.5742  129.7103  151.2393 H   0  0  0  0  0  0  0  0  0  0  0  0
  147.4014  131.0419  150.3908 H   0  0  0  0  0  0  0  0  0  0  0  0
  144.5769  131.3659  152.5085 H   0  0  0  0  0  0  0  0  0  0  0  0
  142.5222  132.7768  151.9590 H   0  0  0  0  0  0  0  0  0  0  0  0
  143.7703  133.3641  148.0629 H   0  0  0  0  0  0  0  0  0  0  0  0
  145.8646  131.9823  148.4094 H   0  0  0  0  0  0  0  0  0  0  0  0
  147.9390  126.5819  150.9053 H   0  0  0  0  0  0  0  0  0  0  0  0
  149.5382  127.2869  150.9256 H   0  0  0  0  0  0  0  0  0  0  0  0
  149.6497  124.9614  151.6993 H   0  0  0  0  0  0  0  0  0  0  0  0
  148.4418  125.2523  152.9360 H   0  0  0  0  0  0  0  0  0  0  0  0
  151.0633  126.5380  152.7735 H   0  0  0  0  0  0  0  0  0  0  0  0
  142.2971  133.6476  149.8254 H   0  0  0  0  0  0  0  0  0  0  0  0
  1  2  1  0  0  0  0
  1 21  1  0  0  0  0
  2  3  2  0  0  0  0
  2  4  1  0  0  0  0
  4  5  1  0  0  0  0
  4 22  1  0  0  0  0
  4 23  1  0  0  0  0
  5 20  1  0  0  0  0
  5  6  1  0  0  0  0
  5 39  1  0  0  0  0
  6  7  1  0  0  0  0
  6 24  1  0  0  0  0
  6 25  1  0  0  0  0
  7  8  1  0  0  0  0
  7 26  1  0  0  0  0
  7 27  1  0  0  0  0
  8  9  1  0  0  0  0
  8 19  1  0  0  0  0
  8 28  1  0  0  0  0
  9 10  1  0  0  0  0
  9 29  1  0  0  0  0
 10 11  2  0  0  0  0
 10 12  1  0  0  0  0
 12 13  1  0  0  0  0
 12 30  1  0  0  0  0
 13 18  1  0  0  0  0
 13 14  2  0  0  0  0
 14 15  1  0  0  0  0
 14 31  1  0  0  0  0
 15 16  2  0  0  0  0
 15 32  1  0  0  0  0
 16 17  1  0  0  0  0
 16 40  1  0  0  0  0
 17 18  2  0  0  0  0
 17 33  1  0  0  0  0
 18 34  1  0  0  0  0
 19 20  1  0  0  0  0
 19 35  1  0  0  0  0
 19 36  1  0  0  0  0
 20 37  1  0  0  0  0
 20 38  1  0  0  0  0
M  CHG  1   1  -1
M  CHG  1   5   1
M  CHG  1  16   1
M  END
> <s_m_source_file>
AV-unprocessed.smi

> <i_m_source_file_index>
1410

> <i_lp_mmshare_version>
43012

> <i_f3d_flags>
0

> <s_epik_input>
W05IMl1DKD1PKVtDSDJdTjFbQ0gyXVtDSDJdW0NIXShbQ0gyXVtDSDJdMSlbTkhdQyg9TylbTkhdYzJbY0hdW2NIXW5bY0hdW2NIXTI=

> <s_epik_cmdline>
J2VwaWtfcHl0aG9uJywgJy1waCcsICc3LjAnLCAnLXRuJywgJzgnLCAnLW1hJywgJzIwMCcsICctbWV0YWxfYmluZGluZycsICctaW1hZScsICc8aW5maWxlLm1hZT4nLCAnLW9tYWUnLCAnPG91dGZpbGUubWFlPic=

> <r_epik_Ionization_Penalty>
6.84067

> <r_epik_Ionization_Penalty_Charging>
6.84065

> <r_epik_Ionization_Penalty_Neutral>
1.84563e-05

> <r_epik_State_Penalty>
7.68217

> <r_epik_Charging_Adjusted_Penalty>
14.5228

> <i_epik_Tot_Q>
1

> <i_epik_Tot_abs_Q>
3

> <r_epik_Metal_State_Penalty>
3.74331

> <b_epik_Metal_Only>
1

> <s_lp_Force_Field>
OPLS_2005

> <r_lp_Energy>
19.1226

> <b_lp_Chiralities_Consistent>
1

> <s_lp_Variant>
AV-unprocessed.smi:1410-9

> <Gold.Version>
5.8.1

> <Gold.Id.Protein>
6NUR|6NUR_protein|mol2

> <Gold.PLP.Fitness>
49.8082

> <Gold.PLP.PLP>
-33.1361

> <Gold.PLP.part.hbond>
-4.5393

> <Gold.PLP.part.metal>
0.0000

> <Gold.PLP.part.buried>
-2.8339

> <Gold.PLP.part.nonpolar>
-26.1486

> <Gold.PLP.part.repulsive>
0.3875

> <Gold.PLP.ligand.clash>
0.0000

> <Gold.PLP.ligand.torsion>
0.4007

> <Gold.PLP.Chemscore.Hbond>
5.8175

> <Gold.PLP.Chemscore.CHOScore>
0.0000

> <Gold.PLP.Chemscore.Metal>
0.0000

> <Gold.Chemscore.Hbonds>
donor molecule, donor type, donor heavy atom, donor atom, acceptor molecule, acceptor atom, score
      L1  H     1    21       P1 10737  1.00
      L1  H     5    39       P1 10737  1.00
      L1  H     9    29       P1 10747  0.83
      L1  H    12    30       P1 10747  0.98
      L1  H    16    40       P1 10186  1.98

> <Gold.PLP.Chemscore.Internal.Correction>
0.0212

> <Gold.Rescore>
     Score         DG    S(hbond)    S(metal)    S(lipo)     H(rot)  DE(clash)    DE(int)     intcor
     22.80     -24.43       4.25        0.00      83.47       1.96       0.08       1.55       ----

> <Gold.Chemscore.Fitness>
22.8000

> <Gold.Chemscore.DG>
-24.4254

> <Gold.Chemscore.ZeroCoef>
-5.4800

> <Gold.Chemscore.Hbond>
4.2516

> <Gold.Chemscore.Metal>
0.0000

> <Gold.Chemscore.Lipo>
83.4690

> <Gold.Chemscore.Internal_Hbond>
0.0000

> <Gold.Chemscore.DEClash>
0.0804

> <Gold.Chemscore.DEInternal>
1.5450

> <Gold.Chemscore.Rot>
1.9612

> <Gold.Chemscore.Internal.Correction>
   9.000000E+99

> <Gold.Chemscore.Hbonds>
donor molecule, donor type, donor heavy atom, donor atom, acceptor molecule, acceptor atom, score
      L1  H     1    21       P1 10737  0.96
      L1  H     5    39       P1 10737  1.00
      L1  H     9    29       P1 10747  0.15
      L1  H    12    30       P1 10747  0.91
      L1  H    16    40       P1 10186  0.92

> <Gold.Chemscore.Hbond.Weighted>
-14.2003

> <Gold.Chemscore.Metal.Weighted>
-0.0000

> <Gold.Chemscore.Lipo.Weighted>
-9.7659

> <Gold.Chemscore.Internal_Hbond.Weighted>
0.0000

> <Gold.Chemscore.DEClash.Weighted>
0.0804

> <Gold.Chemscore.DEInternal.Weighted>
1.5450

> <Gold.Chemscore.Rot.Weighted>
5.0208

> <Gold.Chemscore.Internal.Correction.Weighted>
   9.000000E+99

> <Gold.Protein.RotatedTorsions>
[ 6907 6896 6895 6894 ] final  -48.34 input  -60.11 | X-H torsion
[ 7974 7965 7964 7962 ] final  -36.99 input  175.53 | X-H torsion
[ 8008 7997 7996 7995 ] final   53.63 input   59.86 | X-H torsion
[ 10167 10162 10161 10158 ] final   57.96 input  -65.29 | X-H torsion
[ 10718 10713 10712 10709 ] final  -73.19 input   66.30 | X-H torsion
[ 10763 10752 10751 10750 ] final  -62.28 input  -60.55 | X-H torsion
[ 11005 11000 10999 10996 ] final   81.79 input  -57.11 | X-H torsion

> <Gold.Protein.ActiveResidues>
 VAL166  LYS551  ARG553  GLY616  TRP617  ASP618  TYR619  PRO620  LYS621  CYS622 
 ASP623  PHE694  ASN695  SER759  ASP760  ASP761  ALA762  ILE779  LEU786  VAL792 
 PHE793  MET794  SER795  GLU796  ALA797  LYS798  CYS799  TRP800  GLU811  SER814 

> <Gold.Protein.RotatedAtoms>
  150.8915  134.8320  159.7296 H   0  0  0  0  0  0  0  0  0  0  0  0  # atno 6907 bound_to 6896
  152.4840  134.4640  159.9624 H   0  0  0  0  0  0  0  0  0  0  0  0  # atno 6908 bound_to 6896
  151.4702  133.3532  159.2857 H   0  0  0  0  0  0  0  0  0  0  0  0  # atno 6909 bound_to 6896
  146.0614  140.6343  142.8995 H   0  0  0  0  0  0  0  0  0  0  0  0  # atno 7974 bound_to 7965
  155.4714  140.3465  155.4326 H   0  0  0  0  0  0  0  0  0  0  0  0  # atno 8008 bound_to 7997
  156.1098  140.1458  156.9383 H   0  0  0  0  0  0  0  0  0  0  0  0  # atno 8009 bound_to 7997
  154.4749  140.0888  156.7215 H   0  0  0  0  0  0  0  0  0  0  0  0  # atno 8010 bound_to 7997
  140.1924  144.4072  150.6565 H   0  0  0  0  0  0  0  0  0  0  0  0  # atno 10167 bound_to 10162
  156.0290  130.4388  150.2705 H   0  0  0  0  0  0  0  0  0  0  0  0  # atno 10718 bound_to 10713
  154.2975  135.6241  153.5411 H   0  0  0  0  0  0  0  0  0  0  0  0  # atno 10763 bound_to 10752
  152.9844  135.5670  154.5321 H   0  0  0  0  0  0  0  0  0  0  0  0  # atno 10764 bound_to 10752
  154.4945  135.2869  155.1446 H   0  0  0  0  0  0  0  0  0  0  0  0  # atno 10765 bound_to 10752
  139.9086  134.8023  156.2088 H   0  0  0  0  0  0  0  0  0  0  0  0  # atno 11005 bound_to 11000
  144.7177  140.4266  143.7032 LP  0  0  0  0  0  0  0  0  0  0  0  0  # atno 17320 bound_to 7965
  145.6554  139.1572  143.2838 LP  0  0  0  0  0  0  0  0  0  0  0  0  # atno 17321 bound_to 7965
  140.6447  143.2211  151.6213 LP  0  0  0  0  0  0  0  0  0  0  0  0  # atno 17342 bound_to 10162
  139.5250  144.3086  152.1012 LP  0  0  0  0  0  0  0  0  0  0  0  0  # atno 17343 bound_to 10162
  157.0808  131.0143  151.3157 LP  0  0  0  0  0  0  0  0  0  0  0  0  # atno 17370 bound_to 10713
  157.4929  130.7833  149.7525 LP  0  0  0  0  0  0  0  0  0  0  0  0  # atno 17371 bound_to 10713
  141.0479  133.6904  156.1716 LP  0  0  0  0  0  0  0  0  0  0  0  0  # atno 17394 bound_to 11000
  140.6856  134.4720  157.5589 LP  0  0  0  0  0  0  0  0  0  0  0  0  # atno 17395 bound_to 11000

$$$$
