AV-unprocessed.smi:1040|AV-procd|sdf|4525|dock2
  -GOLD-   22720 2543D 1   1.00000     0.00000
 Structure written by MMmdl.
 54 55  0  0  0  0  0  0  0  0  1 V2000
  145.5289  137.9301  158.6924 C   0  0  0  0  0  0  0  0  0  0  0  0
  146.6911  136.9658  158.9838 C   0  0  1  0  0  0  0  0  0  0  0  0
  147.9369  137.6384  158.6205 N   0  0  0  0  0  0  0  0  0  0  0  0
  149.1406  137.0522  158.5466 C   0  0  0  0  0  0  0  0  0  0  0  0
  149.3245  135.8517  158.7465 O   0  0  0  0  0  0  0  0  0  0  0  0
  150.0895  137.9451  158.2200 N   0  0  0  0  0  0  0  0  0  0  0  0
  151.4716  137.7273  157.9492 C   0  0  0  0  0  0  0  0  0  0  0  0
  152.0614  136.4394  157.9407 C   0  0  0  0  0  0  0  0  0  0  0  0
  153.4419  136.3177  157.7016 C   0  0  0  0  0  0  0  0  0  0  0  0
  154.1897  137.4891  157.4908 C   0  0  0  0  0  0  0  0  0  0  0  0
  153.6474  138.7232  157.5091 N   0  0  0  0  0  0  0  0  0  0  0  0
  152.3169  138.8499  157.7350 C   0  0  0  0  0  0  0  0  0  0  0  0
  151.7834  140.1542  157.7308 N   0  0  0  0  0  0  0  0  0  0  0  0
  152.3476  141.1032  158.6901 C   0  0  0  0  0  0  0  0  0  0  0  0
  151.4583  142.3533  158.8025 C   0  0  0  0  0  0  0  0  0  0  0  0
  151.2180  142.9837  157.4209 C   0  0  0  0  0  0  0  0  0  0  0  0
  150.6581  141.9353  156.4456 C   0  0  0  0  0  0  0  0  0  0  0  0
  151.5662  140.6950  156.3904 C   0  0  0  0  0  0  0  0  0  0  0  0
  146.6743  136.6476  160.4872 C   0  0  0  0  0  0  0  0  0  0  0  0
  146.6065  137.5573  161.3154 O   0  0  0  0  0  0  0  0  0  0  0  0
  146.7167  135.3426  160.8099 N   0  0  0  0  0  0  0  0  0  0  0  0
  146.6986  134.7305  162.1437 C   0  0  0  0  0  0  0  0  0  0  0  0
  147.6170  135.5806  163.0393 C   0  0  0  0  0  0  0  0  0  0  0  0
  147.2492  133.2901  162.0875 C   0  0  0  0  0  0  0  0  0  0  0  0
  145.2718  134.7451  162.7322 C   0  0  0  0  0  0  0  0  0  0  0  0
  144.5676  137.4792  158.9424 H   0  0  0  0  0  0  0  0  0  0  0  0
  145.4981  138.1911  157.6340 H   0  0  0  0  0  0  0  0  0  0  0  0
  145.6179  138.8596  159.2575 H   0  0  0  0  0  0  0  0  0  0  0  0
  146.5671  136.0525  158.3982 H   0  0  0  0  0  0  0  0  0  0  0  0
  147.8796  138.6300  158.4422 H   0  0  0  0  0  0  0  0  0  0  0  0
  149.7649  138.8841  158.0399 H   0  0  0  0  0  0  0  0  0  0  0  0
  151.4899  135.5444  158.1293 H   0  0  0  0  0  0  0  0  0  0  0  0
  153.9174  135.3483  157.6887 H   0  0  0  0  0  0  0  0  0  0  0  0
  155.2526  137.4351  157.3082 H   0  0  0  0  0  0  0  0  0  0  0  0
  152.4447  140.6293  159.6679 H   0  0  0  0  0  0  0  0  0  0  0  0
  153.3499  141.3909  158.3695 H   0  0  0  0  0  0  0  0  0  0  0  0
  150.5016  142.0803  159.2499 H   0  0  0  0  0  0  0  0  0  0  0  0
  151.9182  143.0800  159.4726 H   0  0  0  0  0  0  0  0  0  0  0  0
  150.5311  143.8263  157.5046 H   0  0  0  0  0  0  0  0  0  0  0  0
  152.1560  143.3817  157.0319 H   0  0  0  0  0  0  0  0  0  0  0  0
  149.6568  141.6396  156.7620 H   0  0  0  0  0  0  0  0  0  0  0  0
  150.5536  142.3668  155.4498 H   0  0  0  0  0  0  0  0  0  0  0  0
  152.5316  140.9593  155.9571 H   0  0  0  0  0  0  0  0  0  0  0  0
  151.1239  139.9446  155.7348 H   0  0  0  0  0  0  0  0  0  0  0  0
  146.7693  134.6938  160.0380 H   0  0  0  0  0  0  0  0  0  0  0  0
  147.6560  135.1870  164.0558 H   0  0  0  0  0  0  0  0  0  0  0  0
  147.2688  136.6124  163.1014 H   0  0  0  0  0  0  0  0  0  0  0  0
  148.6384  135.6001  162.6569 H   0  0  0  0  0  0  0  0  0  0  0  0
  148.2428  133.2628  161.6389 H   0  0  0  0  0  0  0  0  0  0  0  0
  146.6073  132.6274  161.5071 H   0  0  0  0  0  0  0  0  0  0  0  0
  147.3294  132.8615  163.0872 H   0  0  0  0  0  0  0  0  0  0  0  0
  145.2680  134.3798  163.7598 H   0  0  0  0  0  0  0  0  0  0  0  0
  144.5873  134.1124  162.1674 H   0  0  0  0  0  0  0  0  0  0  0  0
  144.8564  135.7537  162.7416 H   0  0  0  0  0  0  0  0  0  0  0  0
  1  2  1  0  0  0  0
  1 26  1  0  0  0  0
  1 27  1  0  0  0  0
  1 28  1  0  0  0  0
  2  3  1  0  0  0  0
  2 19  1  0  0  0  0
  2 29  1  0  0  0  0
  3  4  1  0  0  0  0
  3 30  1  0  0  0  0
  4  5  2  0  0  0  0
  4  6  1  0  0  0  0
  6  7  1  0  0  0  0
  6 31  1  0  0  0  0
  7 12  1  0  0  0  0
  7  8  2  0  0  0  0
  8  9  1  0  0  0  0
  8 32  1  0  0  0  0
  9 10  2  0  0  0  0
  9 33  1  0  0  0  0
 10 11  1  0  0  0  0
 10 34  1  0  0  0  0
 11 12  2  0  0  0  0
 12 13  1  0  0  0  0
 13 18  1  0  0  0  0
 13 14  1  0  0  0  0
 14 15  1  0  0  0  0
 14 35  1  0  0  0  0
 14 36  1  0  0  0  0
 15 16  1  0  0  0  0
 15 37  1  0  0  0  0
 15 38  1  0  0  0  0
 16 17  1  0  0  0  0
 16 39  1  0  0  0  0
 16 40  1  0  0  0  0
 17 18  1  0  0  0  0
 17 41  1  0  0  0  0
 17 42  1  0  0  0  0
 18 43  1  0  0  0  0
 18 44  1  0  0  0  0
 19 20  2  0  0  0  0
 19 21  1  0  0  0  0
 21 22  1  0  0  0  0
 21 45  1  0  0  0  0
 22 23  1  0  0  0  0
 22 24  1  0  0  0  0
 22 25  1  0  0  0  0
 23 46  1  0  0  0  0
 23 47  1  0  0  0  0
 23 48  1  0  0  0  0
 24 49  1  0  0  0  0
 24 50  1  0  0  0  0
 24 51  1  0  0  0  0
 25 52  1  0  0  0  0
 25 53  1  0  0  0  0
 25 54  1  0  0  0  0
M  END
> <s_m_source_file>
AV-unprocessed.smi

> <i_m_source_file_index>
1040

> <i_lp_mmshare_version>
43012

> <i_f3d_flags>
0

> <s_epik_input>
W0NIM11DKFtDSDNdKShbQ0gzXSlbTkhdQyg9TylbQ0BIXShbQ0gzXSlbTkhdQyg9TylbTkhdYzFbY0hdW2NIXVtjSF1uYzFOMltDSDJdW0NIMl1bQ0gyXVtDSDJdW0NIMl0y

> <s_epik_cmdline>
J2VwaWtfcHl0aG9uJywgJy1waCcsICc3LjAnLCAnLXRuJywgJzgnLCAnLW1hJywgJzIwMCcsICctbWV0YWxfYmluZGluZycsICctaW1hZScsICc8aW5maWxlLm1hZT4nLCAnLW9tYWUnLCAnPG91dGZpbGUubWFlPic=

> <r_lp_tautomer_probability>
1

> <r_epik_Ionization_Penalty>
0.0878593

> <r_epik_Ionization_Penalty_Charging>
0

> <r_epik_Ionization_Penalty_Neutral>
0.0878593

> <r_epik_State_Penalty>
0.07381

> <r_epik_Charging_Adjusted_Penalty>
0.07381

> <i_epik_Tot_Q>
0

> <i_epik_Tot_abs_Q>
0

> <r_epik_Metal_State_Penalty>
0.0646628

> <b_epik_Metal_Only>
0

> <s_lp_Force_Field>
OPLS_2005

> <r_lp_Energy>
20.3339

> <b_lp_Chiralities_Consistent>
1

> <s_lp_Variant>
AV-unprocessed.smi:1040-2

> <Gold.Version>
5.8.1

> <Gold.Id.Protein>
6NUR|6NUR_protein|mol2

> <Gold.PLP.Fitness>
42.3892

> <Gold.PLP.PLP>
-34.9137

> <Gold.PLP.part.hbond>
-3.1126

> <Gold.PLP.part.metal>
0.0000

> <Gold.PLP.part.buried>
-4.1654

> <Gold.PLP.part.nonpolar>
-28.3410

> <Gold.PLP.part.repulsive>
0.2933

> <Gold.PLP.ligand.clash>
0.0000

> <Gold.PLP.ligand.torsion>
0.9202

> <Gold.PLP.Chemscore.Hbond>
3.0000

> <Gold.PLP.Chemscore.CHOScore>
0.0000

> <Gold.PLP.Chemscore.Metal>
0.0000

> <Gold.Chemscore.Hbonds>
donor molecule, donor type, donor heavy atom, donor atom, acceptor molecule, acceptor atom, score
      P1  H  6896  6907       L1     5  0.99
      P1  H  6934  6947       L1    20  1.00
      P1  H  7997  8008       L1    11  1.00

> <Gold.PLP.Chemscore.Internal.Correction>
0.3159

> <Gold.Rescore>
     Score         DG    S(hbond)    S(metal)    S(lipo)     H(rot)  DE(clash)    DE(int)     intcor
     18.26     -21.70       2.89        0.00      91.52       1.61       0.31       3.12       ----

> <Gold.Chemscore.Fitness>
18.2641

> <Gold.Chemscore.DG>
-21.7023

> <Gold.Chemscore.ZeroCoef>
-5.4800

> <Gold.Chemscore.Hbond>
2.8883

> <Gold.Chemscore.Metal>
0.0000

> <Gold.Chemscore.Lipo>
91.5208

> <Gold.Chemscore.Internal_Hbond>
0.0000

> <Gold.Chemscore.DEClash>
0.3145

> <Gold.Chemscore.DEInternal>
3.1238

> <Gold.Chemscore.Rot>
1.6143

> <Gold.Chemscore.Internal.Correction>
   9.000000E+99

> <Gold.Chemscore.Hbonds>
donor molecule, donor type, donor heavy atom, donor atom, acceptor molecule, acceptor atom, score
      P1  H  6896  6907       L1     5  0.92
      P1  H  6934  6947       L1    20  0.96
      P1  H  7997  8008       L1    11  0.94

> <Gold.Chemscore.Hbond.Weighted>
-9.6470

> <Gold.Chemscore.Metal.Weighted>
-0.0000

> <Gold.Chemscore.Lipo.Weighted>
-10.7079

> <Gold.Chemscore.Internal_Hbond.Weighted>
0.0000

> <Gold.Chemscore.DEClash.Weighted>
0.3145

> <Gold.Chemscore.DEInternal.Weighted>
3.1238

> <Gold.Chemscore.Rot.Weighted>
4.1326

> <Gold.Chemscore.Internal.Correction.Weighted>
   9.000000E+99

> <Gold.Protein.RotatedTorsions>
[ 6907 6896 6895 6894 ] final  -73.85 input  -60.11 | X-H torsion
[ 7974 7965 7964 7962 ] final -135.30 input  175.53 | X-H torsion
[ 8008 7997 7996 7995 ] final  -81.67 input   59.86 | X-H torsion
[ 10167 10162 10161 10158 ] final   22.04 input  -65.29 | X-H torsion
[ 10718 10713 10712 10709 ] final -132.10 input   66.30 | X-H torsion
[ 10763 10752 10751 10750 ] final  -86.33 input  -60.55 | X-H torsion
[ 11005 11000 10999 10996 ] final   39.53 input  -57.11 | X-H torsion

> <Gold.Protein.ActiveResidues>
 VAL166  LYS551  ARG553  GLY616  TRP617  ASP618  TYR619  PRO620  LYS621  CYS622 
 ASP623  PHE694  ASN695  SER759  ASP760  ASP761  ALA762  ILE779  LEU786  VAL792 
 PHE793  MET794  SER795  GLU796  ALA797  LYS798  CYS799  TRP800  GLU811  SER814 

> <Gold.Protein.RotatedAtoms>
  150.7114  134.4955  159.5535 H   0  0  0  0  0  0  0  0  0  0  0  0  # atno 6907 bound_to 6896
  152.2563  134.8077  160.0447 H   0  0  0  0  0  0  0  0  0  0  0  0  # atno 6908 bound_to 6896
  151.8807  133.3459  159.3802 H   0  0  0  0  0  0  0  0  0  0  0  0  # atno 6909 bound_to 6896
  144.9026  140.6791  143.5075 H   0  0  0  0  0  0  0  0  0  0  0  0  # atno 7974 bound_to 7965
  154.6007  140.0644  156.9364 H   0  0  0  0  0  0  0  0  0  0  0  0  # atno 8008 bound_to 7997
  155.2138  140.3325  155.4307 H   0  0  0  0  0  0  0  0  0  0  0  0  # atno 8009 bound_to 7997
  156.2316  140.1843  156.7212 H   0  0  0  0  0  0  0  0  0  0  0  0  # atno 8010 bound_to 7997
  140.5379  143.9728  150.6502 H   0  0  0  0  0  0  0  0  0  0  0  0  # atno 10167 bound_to 10162
  156.2311  130.7038  151.0859 H   0  0  0  0  0  0  0  0  0  0  0  0  # atno 10718 bound_to 10713
  154.6213  135.5453  153.7578 H   0  0  0  0  0  0  0  0  0  0  0  0  # atno 10763 bound_to 10752
  153.0239  135.6413  154.1437 H   0  0  0  0  0  0  0  0  0  0  0  0  # atno 10764 bound_to 10752
  154.1371  135.2910  155.3150 H   0  0  0  0  0  0  0  0  0  0  0  0  # atno 10765 bound_to 10752
  140.2019  134.3860  155.8092 H   0  0  0  0  0  0  0  0  0  0  0  0  # atno 11005 bound_to 11000
  145.3591  139.1686  143.4393 LP  0  0  0  0  0  0  0  0  0  0  0  0  # atno 17320 bound_to 7965
  146.3116  140.3651  142.8668 LP  0  0  0  0  0  0  0  0  0  0  0  0  # atno 17321 bound_to 7965
  140.3121  143.3191  152.0869 LP  0  0  0  0  0  0  0  0  0  0  0  0  # atno 17342 bound_to 10162
  139.4978  144.6629  151.6422 LP  0  0  0  0  0  0  0  0  0  0  0  0  # atno 17343 bound_to 10162
  157.7133  131.0723  150.6420 LP  0  0  0  0  0  0  0  0  0  0  0  0  # atno 17370 bound_to 10713
  156.6487  130.4479  149.5727 LP  0  0  0  0  0  0  0  0  0  0  0  0  # atno 17371 bound_to 10713
  141.2227  133.7098  156.8272 LP  0  0  0  0  0  0  0  0  0  0  0  0  # atno 17394 bound_to 11000
  140.2045  134.8873  157.3206 LP  0  0  0  0  0  0  0  0  0  0  0  0  # atno 17395 bound_to 11000

$$$$
