AV-unprocessed.smi:221|AV-procd|sdf|1689|dock6
  -GOLD-   2262020133D 1   1.00000     0.00000
 Structure written by MMmdl.
 50 53  0  0  0  0  0  0  0  0  1 V2000
  148.0137  132.4938  159.4520 N   0  0  0  0  0  0  0  0  0  0  0  0
  147.6913  132.9110  160.6810 C   0  0  0  0  0  0  0  0  0  0  0  0
  147.8657  132.1984  161.6670 O   0  0  0  0  0  0  0  0  0  0  0  0
  147.0834  134.3171  160.8548 C   0  0  1  0  0  0  0  0  0  0  0  0
  146.7499  134.5930  162.3303 C   0  0  0  0  0  0  0  0  0  0  0  0
  146.7898  136.1135  162.4365 C   0  0  2  0  0  0  0  0  0  0  0  0
  145.6333  136.6205  162.0065 F   0  0  0  0  0  0  0  0  0  0  0  0
  147.9063  136.5032  161.4685 C   0  0  0  0  0  0  0  0  0  0  0  0
  147.9711  135.4284  160.4836 N   0  0  0  0  0  0  0  0  0  0  0  0
  148.2352  135.7477  159.1871 C   0  0  0  0  0  0  0  0  0  0  0  0
  148.8488  134.8382  158.3843 N   0  0  0  0  0  0  0  0  0  0  0  0
  149.1185  135.1301  157.1091 C   0  0  0  0  0  0  0  0  0  0  0  0
  148.8705  136.2577  156.4421 N   0  0  0  0  0  0  0  0  0  0  0  0
  148.2678  137.1827  157.2420 C   0  0  0  0  0  0  0  0  0  0  0  0
  147.9160  137.0124  158.6117 C   0  0  0  0  0  0  0  0  0  0  0  0
  147.3280  138.1775  159.0926 N   0  0  0  0  0  0  0  0  0  0  0  0
  147.3221  138.9828  158.0660 C   0  0  0  0  0  0  0  0  0  0  0  0
  147.8757  138.4694  156.9162 N   0  0  0  0  0  0  0  0  0  0  0  0
  147.9966  139.1459  155.6368 C   0  0  0  0  0  0  0  0  0  0  0  0
  148.6175  140.5643  155.7681 C   0  0  2  0  0  0  0  0  0  0  0  0
  148.3082  141.4166  154.5185 C   0  0  0  0  0  0  0  0  0  0  0  0
  149.1808  141.0982  153.4543 O   0  0  0  0  0  0  0  0  0  0  0  0
  150.1338  140.5466  156.1054 C   0  0  2  0  0  0  0  0  0  0  0  0
  150.5031  139.8417  157.4137 C   0  0  0  0  0  0  0  0  0  0  0  0
  151.5075  140.7877  158.0645 C   0  0  0  0  0  0  0  0  0  0  0  0
  151.0764  142.0648  157.6273 O   0  0  0  0  0  0  0  0  0  0  0  0
  150.7625  141.9418  156.2486 C   0  0  0  0  0  0  0  0  0  0  0  0
  146.1624  134.3801  160.2727 H   0  0  0  0  0  0  0  0  0  0  0  0
  146.9518  136.4757  163.4522 H   0  0  0  0  0  0  0  0  0  0  0  0
  148.4057  131.5725  159.3217 H   0  0  0  0  0  0  0  0  0  0  0  0
  147.8569  133.0985  158.6588 H   0  0  0  0  0  0  0  0  0  0  0  0
  145.7871  134.1770  162.6294 H   0  0  0  0  0  0  0  0  0  0  0  0
  147.5120  134.1686  162.9867 H   0  0  0  0  0  0  0  0  0  0  0  0
  147.7170  137.4825  161.0256 H   0  0  0  0  0  0  0  0  0  0  0  0
  148.8631  136.5481  161.9898 H   0  0  0  0  0  0  0  0  0  0  0  0
  149.6026  134.3486  156.5423 H   0  0  0  0  0  0  0  0  0  0  0  0
  146.9186  139.9837  158.1206 H   0  0  0  0  0  0  0  0  0  0  0  0
  148.5773  138.5105  154.9689 H   0  0  0  0  0  0  0  0  0  0  0  0
  147.0006  139.1941  155.1953 H   0  0  0  0  0  0  0  0  0  0  0  0
  148.1270  141.0675  156.6034 H   0  0  0  0  0  0  0  0  0  0  0  0
  147.2762  141.2818  154.1936 H   0  0  0  0  0  0  0  0  0  0  0  0
  148.4361  142.4761  154.7434 H   0  0  0  0  0  0  0  0  0  0  0  0
  148.7449  140.4874  152.8796 H   0  0  0  0  0  0  0  0  0  0  0  0
  150.6588  140.0489  155.2887 H   0  0  0  0  0  0  0  0  0  0  0  0
  149.6375  139.7260  158.0657 H   0  0  0  0  0  0  0  0  0  0  0  0
  150.9205  138.8478  157.2502 H   0  0  0  0  0  0  0  0  0  0  0  0
  151.5125  140.7141  159.1522 H   0  0  0  0  0  0  0  0  0  0  0  0
  152.5183  140.5969  157.7002 H   0  0  0  0  0  0  0  0  0  0  0  0
  151.6860  142.0035  155.6711 H   0  0  0  0  0  0  0  0  0  0  0  0
  150.1129  142.7496  155.9128 H   0  0  0  0  0  0  0  0  0  0  0  0
  1  2  1  0  0  0  0
  1 30  1  0  0  0  0
  1 31  1  0  0  0  0
  2  3  2  0  0  0  0
  2  4  1  0  0  0  0
  4 28  1  0  0  0  0
  4  9  1  0  0  0  0
  4  5  1  0  0  0  0
  5  6  1  0  0  0  0
  5 32  1  0  0  0  0
  5 33  1  0  0  0  0
  6 29  1  0  0  0  0
  6  7  1  0  0  0  0
  6  8  1  0  0  0  0
  8  9  1  0  0  0  0
  8 34  1  0  0  0  0
  8 35  1  0  0  0  0
  9 10  1  0  0  0  0
 10 15  1  0  0  0  0
 10 11  2  0  0  0  0
 11 12  1  0  0  0  0
 12 13  2  0  0  0  0
 12 36  1  0  0  0  0
 13 14  1  0  0  0  0
 14 18  1  0  0  0  0
 14 15  2  0  0  0  0
 15 16  1  0  0  0  0
 16 17  2  0  0  0  0
 17 18  1  0  0  0  0
 17 37  1  0  0  0  0
 18 19  1  0  0  0  0
 19 20  1  0  0  0  0
 19 38  1  0  0  0  0
 19 39  1  0  0  0  0
 20 21  1  0  0  0  0
 20 23  1  0  0  0  0
 20 40  1  0  0  0  0
 21 22  1  0  0  0  0
 21 41  1  0  0  0  0
 21 42  1  0  0  0  0
 22 43  1  0  0  0  0
 23 27  1  0  0  0  0
 23 24  1  0  0  0  0
 23 44  1  0  0  0  0
 24 25  1  0  0  0  0
 24 45  1  0  0  0  0
 24 46  1  0  0  0  0
 25 26  1  0  0  0  0
 25 47  1  0  0  0  0
 25 48  1  0  0  0  0
 26 27  1  0  0  0  0
 27 49  1  0  0  0  0
 27 50  1  0  0  0  0
M  END
> <s_m_source_file>
AV-unprocessed.smi

> <i_m_source_file_index>
221

> <i_lp_mmshare_version>
43012

> <i_f3d_flags>
0

> <s_epik_input>
W05IMl1DKD1PKVtDQEBIXTFbQ0gyXVtDQEBIXShGKVtDSDJdTjFjKG5bY0hdbjIpYyhjMjMpbltjSF1uM1tDSDJdW0NASF0oW0NIMl1bT0hdKVtDQEBIXTRbQ0gyXVtDSDJdT1tDSDJdNA==

> <s_epik_cmdline>
J2VwaWtfcHl0aG9uJywgJy1waCcsICc3LjAnLCAnLXRuJywgJzgnLCAnLW1hJywgJzIwMCcsICctbWV0YWxfYmluZGluZycsICctaW1hZScsICc8aW5maWxlLm1hZT4nLCAnLW9tYWUnLCAnPG91dGZpbGUubWFlPic=

> <r_lp_tautomer_probability>
1

> <r_epik_Ionization_Penalty>
0.000818822

> <r_epik_Ionization_Penalty_Charging>
0

> <r_epik_Ionization_Penalty_Neutral>
0.000818822

> <r_epik_State_Penalty>
0.000440551

> <r_epik_Charging_Adjusted_Penalty>
0.000440551

> <i_epik_Tot_Q>
0

> <i_epik_Tot_abs_Q>
0

> <r_epik_Metal_State_Penalty>
-0

> <b_epik_Metal_Only>
0

> <s_lp_Force_Field>
OPLS_2005

> <r_lp_Energy>
52.2348

> <b_lp_Chiralities_Consistent>
1

> <s_lp_Variant>
AV-unprocessed.smi:221-4

> <Gold.Version>
5.8.1

> <Gold.Id.Protein>
6NUR|6NUR_protein|mol2

> <Gold.PLP.Fitness>
44.7206

> <Gold.PLP.PLP>
-36.8642

> <Gold.PLP.part.hbond>
-4.9604

> <Gold.PLP.part.metal>
0.0000

> <Gold.PLP.part.buried>
-4.9507

> <Gold.PLP.part.nonpolar>
-27.9734

> <Gold.PLP.part.repulsive>
0.1511

> <Gold.PLP.ligand.clash>
0.0000

> <Gold.PLP.ligand.torsion>
1.1262

> <Gold.PLP.Chemscore.Hbond>
3.2058

> <Gold.PLP.Chemscore.CHOScore>
0.0000

> <Gold.PLP.Chemscore.Metal>
0.0000

> <Gold.Chemscore.Hbonds>
donor molecule, donor type, donor heavy atom, donor atom, acceptor molecule, acceptor atom, score
      L1  H    22    43       P1  7957  0.37
      P1  H  6896  6908       L1    11  0.75
      P1  H  6934  6947       L1    16  0.42
      P1  H  8011  8017       L1    22  1.00

> <Gold.PLP.Chemscore.Internal.Correction>
0.4912

> <Gold.Rescore>
     Score         DG    S(hbond)    S(metal)    S(lipo)     H(rot)  DE(clash)    DE(int)     intcor
      7.70     -11.70       1.93        0.00      70.40       3.31       0.02       3.97       ----

> <Gold.Chemscore.Fitness>
7.7036

> <Gold.Chemscore.DG>
-11.6974

> <Gold.Chemscore.ZeroCoef>
-5.4800

> <Gold.Chemscore.Hbond>
1.9317

> <Gold.Chemscore.Metal>
0.0000

> <Gold.Chemscore.Lipo>
70.3964

> <Gold.Chemscore.Internal_Hbond>
0.0000

> <Gold.Chemscore.DEClash>
0.0203

> <Gold.Chemscore.DEInternal>
3.9735

> <Gold.Chemscore.Rot>
3.3089

> <Gold.Chemscore.Internal.Correction>
   9.000000E+99

> <Gold.Chemscore.Hbonds>
donor molecule, donor type, donor heavy atom, donor atom, acceptor molecule, acceptor atom, score
      L1  H    22    43       P1  7957  0.35
      P1  H  6896  6908       L1    11  0.26
      P1  H  6934  6947       L1    16  0.37
      P1  H  7989  7998       L1    22  0.02
      P1  H  8011  8017       L1    22  0.43

> <Gold.Chemscore.Hbond.Weighted>
-6.4519

> <Gold.Chemscore.Metal.Weighted>
-0.0000

> <Gold.Chemscore.Lipo.Weighted>
-8.2364

> <Gold.Chemscore.Internal_Hbond.Weighted>
0.0000

> <Gold.Chemscore.DEClash.Weighted>
0.0203

> <Gold.Chemscore.DEInternal.Weighted>
3.9735

> <Gold.Chemscore.Rot.Weighted>
8.4709

> <Gold.Chemscore.Internal.Correction.Weighted>
   9.000000E+99

> <Gold.Protein.RotatedTorsions>
[ 6907 6896 6895 6894 ] final  154.90 input  -60.11 | X-H torsion
[ 7974 7965 7964 7962 ] final   58.58 input  175.53 | X-H torsion
[ 8008 7997 7996 7995 ] final  -67.26 input   59.86 | X-H torsion
[ 10167 10162 10161 10158 ] final   -6.59 input  -65.29 | X-H torsion
[ 10718 10713 10712 10709 ] final   29.14 input   66.30 | X-H torsion
[ 10763 10752 10751 10750 ] final  138.35 input  -60.55 | X-H torsion
[ 11005 11000 10999 10996 ] final  -53.02 input  -57.11 | X-H torsion

> <Gold.Protein.ActiveResidues>
 VAL166  LYS551  ARG553  GLY616  TRP617  ASP618  TYR619  PRO620  LYS621  CYS622 
 ASP623  PHE694  ASN695  SER759  ASP760  ASP761  ALA762  ILE779  LEU786  VAL792 
 PHE793  MET794  SER795  GLU796  ALA797  LYS798  CYS799  TRP800  GLU811  SER814 

> <Gold.Protein.RotatedAtoms>
  152.0519  133.4023  159.4380 H   0  0  0  0  0  0  0  0  0  0  0  0  # atno 6907 bound_to 6896
  150.6870  134.3298  159.4831 H   0  0  0  0  0  0  0  0  0  0  0  0  # atno 6908 bound_to 6896
  152.1109  134.9274  160.0617 H   0  0  0  0  0  0  0  0  0  0  0  0  # atno 6909 bound_to 6896
  145.9166  139.3696  143.0503 H   0  0  0  0  0  0  0  0  0  0  0  0  # atno 7974 bound_to 7965
  154.4788  140.0896  156.7327 H   0  0  0  0  0  0  0  0  0  0  0  0  # atno 8008 bound_to 7997
  155.4525  140.3458  155.4284 H   0  0  0  0  0  0  0  0  0  0  0  0  # atno 8009 bound_to 7997
  156.1159  140.1460  156.9262 H   0  0  0  0  0  0  0  0  0  0  0  0  # atno 8010 bound_to 7997
  140.7002  143.6177  150.8642 H   0  0  0  0  0  0  0  0  0  0  0  0  # atno 10167 bound_to 10162
  157.2426  130.7076  149.6366 H   0  0  0  0  0  0  0  0  0  0  0  0  # atno 10718 bound_to 10713
  153.8881  135.3036  155.3447 H   0  0  0  0  0  0  0  0  0  0  0  0  # atno 10763 bound_to 10752
  154.7730  135.4876  153.9689 H   0  0  0  0  0  0  0  0  0  0  0  0  # atno 10764 bound_to 10752
  153.1313  135.6804  153.9271 H   0  0  0  0  0  0  0  0  0  0  0  0  # atno 10765 bound_to 10752
  141.0954  133.6625  156.4109 H   0  0  0  0  0  0  0  0  0  0  0  0  # atno 11005 bound_to 11000
  145.8603  140.9479  143.0703 LP  0  0  0  0  0  0  0  0  0  0  0  0  # atno 17320 bound_to 7965
  144.6748  140.0522  143.7478 LP  0  0  0  0  0  0  0  0  0  0  0  0  # atno 17321 bound_to 7965
  139.9898  143.5859  152.2914 LP  0  0  0  0  0  0  0  0  0  0  0  0  # atno 17342 bound_to 10162
  139.6510  144.7660  151.2148 LP  0  0  0  0  0  0  0  0  0  0  0  0  # atno 17343 bound_to 10162
  155.9669  130.4453  150.5496 LP  0  0  0  0  0  0  0  0  0  0  0  0  # atno 17370 bound_to 10713
  157.3362  131.0708  151.1823 LP  0  0  0  0  0  0  0  0  0  0  0  0  # atno 17371 bound_to 10713
  140.5152  134.6357  157.5298 LP  0  0  0  0  0  0  0  0  0  0  0  0  # atno 17394 bound_to 11000
  139.9790  134.7169  155.9896 LP  0  0  0  0  0  0  0  0  0  0  0  0  # atno 17395 bound_to 11000

$$$$
