AV-unprocessed.smi:148|AV-procd|sdf|1219|dock1
  -GOLD-   2262018403D 1   1.00000     0.00000
 Structure written by MMmdl.
 63 67  0  0  0  0  0  0  0  0  1 V2000
  149.5047  141.0433  153.6274 O   0  0  0  0  0  0  0  0  0  0  0  0
  148.5571  141.3282  154.6374 C   0  0  0  0  0  0  0  0  0  0  0  0
  149.0719  140.9573  156.0550 C   0  0  1  0  0  0  0  0  0  0  0  0
  148.6266  139.5551  156.5782 C   0  0  0  0  0  0  0  0  0  0  0  0
  147.3477  139.0712  156.0853 N   0  0  0  0  0  0  0  0  0  0  0  0
  146.2159  138.8333  156.8322 C   0  0  0  0  0  0  0  0  0  0  0  0
  145.1913  138.3839  156.1602 N   0  0  0  0  0  0  0  0  0  0  0  0
  145.6507  138.3132  154.8503 C   0  0  0  0  0  0  0  0  0  0  0  0
  145.0801  137.8945  153.6148 C   0  0  0  0  0  0  0  0  0  0  0  0
  143.8277  137.4059  153.4679 N   0  0  0  0  0  0  0  0  0  0  0  0
  142.8990  138.1428  154.3239 C   0  0  0  0  0  0  0  0  0  0  0  0
  141.4421  137.7916  153.9983 C   0  0  0  0  0  0  0  0  0  0  0  0
  141.2270  136.2781  154.0981 C   0  0  0  0  0  0  0  0  0  0  0  0
  142.2139  135.5458  153.1789 C   0  0  0  0  0  0  0  0  0  0  0  0
  143.6850  135.9376  153.4798 C   0  0  1  0  0  0  0  0  0  0  0  0
  144.7183  135.2195  152.5539 C   0  0  2  0  0  0  0  0  0  0  0  0
  144.7573  135.6891  151.0859 C   0  0  0  0  0  0  0  0  0  0  0  0
  145.1727  134.4674  150.2498 C   0  0  0  0  0  0  0  0  0  0  0  0
  145.4588  133.3424  151.2487 C   0  0  0  0  0  0  0  0  0  0  0  0
  144.6012  133.6908  152.4644 C   0  0  1  0  0  0  0  0  0  0  0  0
  145.0778  133.0505  153.6300 O   0  0  0  0  0  0  0  0  0  0  0  0
  145.8431  137.9839  152.4978 N   0  0  0  0  0  0  0  0  0  0  0  0
  147.0990  138.4332  152.5815 C   0  0  0  0  0  0  0  0  0  0  0  0
  147.7718  138.8369  153.6616 N   0  0  0  0  0  0  0  0  0  0  0  0
  146.9996  138.7601  154.7835 C   0  0  0  0  0  0  0  0  0  0  0  0
  150.6046  141.1698  156.2409 C   0  0  1  0  0  0  0  0  0  0  0  0
  151.0298  142.5571  156.7076 C   0  0  0  0  0  0  0  0  0  0  0  0
  150.8306  142.4953  158.2192 C   0  0  0  0  0  0  0  0  0  0  0  0
  150.9866  141.1250  158.5718 O   0  0  0  0  0  0  0  0  0  0  0  0
  151.1854  140.3443  157.3981 C   0  0  0  0  0  0  0  0  0  0  0  0
  149.1440  140.3842  153.0538 H   0  0  0  0  0  0  0  0  0  0  0  0
  148.3106  142.3878  154.5852 H   0  0  0  0  0  0  0  0  0  0  0  0
  147.6242  140.8125  154.4116 H   0  0  0  0  0  0  0  0  0  0  0  0
  148.5822  141.6736  156.7164 H   0  0  0  0  0  0  0  0  0  0  0  0
  149.3692  138.7929  156.3415 H   0  0  0  0  0  0  0  0  0  0  0  0
  148.5745  139.5774  157.6676 H   0  0  0  0  0  0  0  0  0  0  0  0
  146.1811  138.9895  157.9007 H   0  0  0  0  0  0  0  0  0  0  0  0
  143.1094  137.9110  155.3691 H   0  0  0  0  0  0  0  0  0  0  0  0
  143.0491  139.2168  154.2009 H   0  0  0  0  0  0  0  0  0  0  0  0
  140.7697  138.3134  154.6796 H   0  0  0  0  0  0  0  0  0  0  0  0
  141.1966  138.1345  152.9922 H   0  0  0  0  0  0  0  0  0  0  0  0
  141.3694  135.9510  155.1288 H   0  0  0  0  0  0  0  0  0  0  0  0
  140.2016  136.0251  153.8271 H   0  0  0  0  0  0  0  0  0  0  0  0
  142.0638  134.4750  153.3058 H   0  0  0  0  0  0  0  0  0  0  0  0
  141.9586  135.7736  152.1446 H   0  0  0  0  0  0  0  0  0  0  0  0
  143.8863  135.6095  154.4997 H   0  0  0  0  0  0  0  0  0  0  0  0
  145.7185  135.3989  152.9511 H   0  0  0  0  0  0  0  0  0  0  0  0
  143.7912  136.0541  150.7415 H   0  0  0  0  0  0  0  0  0  0  0  0
  145.4644  136.5101  150.9637 H   0  0  0  0  0  0  0  0  0  0  0  0
  144.3511  134.1782  149.5930 H   0  0  0  0  0  0  0  0  0  0  0  0
  146.0370  134.6758  149.6185 H   0  0  0  0  0  0  0  0  0  0  0  0
  145.2366  132.3540  150.8449 H   0  0  0  0  0  0  0  0  0  0  0  0
  146.5163  133.3604  151.5181 H   0  0  0  0  0  0  0  0  0  0  0  0
  143.5772  133.3760  152.2690 H   0  0  0  0  0  0  0  0  0  0  0  0
  144.4375  132.4121  153.9050 H   0  0  0  0  0  0  0  0  0  0  0  0
  147.6448  138.4693  151.6505 H   0  0  0  0  0  0  0  0  0  0  0  0
  151.1062  140.9211  155.3046 H   0  0  0  0  0  0  0  0  0  0  0  0
  152.0910  142.6932  156.4938 H   0  0  0  0  0  0  0  0  0  0  0  0
  150.5090  143.3896  156.2382 H   0  0  0  0  0  0  0  0  0  0  0  0
  151.5404  143.1268  158.7538 H   0  0  0  0  0  0  0  0  0  0  0  0
  149.8229  142.8134  158.4885 H   0  0  0  0  0  0  0  0  0  0  0  0
  150.7445  139.3544  157.5100 H   0  0  0  0  0  0  0  0  0  0  0  0
  152.2587  140.2088  157.2571 H   0  0  0  0  0  0  0  0  0  0  0  0
  1  2  1  0  0  0  0
  1 31  1  0  0  0  0
  2  3  1  0  0  0  0
  2 32  1  0  0  0  0
  2 33  1  0  0  0  0
  3  4  1  0  0  0  0
  3 26  1  0  0  0  0
  3 34  1  0  0  0  0
  4  5  1  0  0  0  0
  4 35  1  0  0  0  0
  4 36  1  0  0  0  0
  5 25  1  0  0  0  0
  5  6  1  0  0  0  0
  6  7  2  0  0  0  0
  6 37  1  0  0  0  0
  7  8  1  0  0  0  0
  8 25  2  0  0  0  0
  8  9  1  0  0  0  0
  9 10  1  0  0  0  0
  9 22  2  0  0  0  0
 10 15  1  0  0  0  0
 10 11  1  0  0  0  0
 11 12  1  0  0  0  0
 11 38  1  0  0  0  0
 11 39  1  0  0  0  0
 12 13  1  0  0  0  0
 12 40  1  0  0  0  0
 12 41  1  0  0  0  0
 13 14  1  0  0  0  0
 13 42  1  0  0  0  0
 13 43  1  0  0  0  0
 14 15  1  0  0  0  0
 14 44  1  0  0  0  0
 14 45  1  0  0  0  0
 15 16  1  0  0  0  0
 15 46  1  0  0  0  0
 16 20  1  0  0  0  0
 16 17  1  0  0  0  0
 16 47  1  0  0  0  0
 17 18  1  0  0  0  0
 17 48  1  0  0  0  0
 17 49  1  0  0  0  0
 18 19  1  0  0  0  0
 18 50  1  0  0  0  0
 18 51  1  0  0  0  0
 19 20  1  0  0  0  0
 19 52  1  0  0  0  0
 19 53  1  0  0  0  0
 20 21  1  0  0  0  0
 20 54  1  0  0  0  0
 21 55  1  0  0  0  0
 22 23  1  0  0  0  0
 23 24  2  0  0  0  0
 23 56  1  0  0  0  0
 24 25  1  0  0  0  0
 26 30  1  0  0  0  0
 26 27  1  0  0  0  0
 26 57  1  0  0  0  0
 27 28  1  0  0  0  0
 27 58  1  0  0  0  0
 27 59  1  0  0  0  0
 28 29  1  0  0  0  0
 28 60  1  0  0  0  0
 28 61  1  0  0  0  0
 29 30  1  0  0  0  0
 30 62  1  0  0  0  0
 30 63  1  0  0  0  0
M  END
> <s_m_source_file>
AV-unprocessed.smi

> <i_m_source_file_index>
148

> <i_lp_mmshare_version>
43012

> <i_f3d_flags>
0

> <s_epik_input>
W0NIMl0xT1tDSDJdW0NIMl1bQ0BIXTFbQ0BIXShbQ0gyXVtPSF0pW0NIMl1uKFtjSF1uMiljKGMyMyluW2NIXW5jM040W0NIMl1bQ0gyXVtDSDJdW0NIMl1bQ0BIXTRbQ0BASF01W0NIMl1bQ0gyXVtDSDJdW0NASF01W09IXQ==

> <s_epik_cmdline>
J2VwaWtfcHl0aG9uJywgJy1waCcsICc3LjAnLCAnLXRuJywgJzgnLCAnLW1hJywgJzIwMCcsICctbWV0YWxfYmluZGluZycsICctaW1hZScsICc8aW5maWxlLm1hZT4nLCAnLW9tYWUnLCAnPG91dGZpbGUubWFlPic=

> <r_lp_tautomer_probability>
1

> <r_epik_Ionization_Penalty>
0.00556303

> <r_epik_Ionization_Penalty_Charging>
0

> <r_epik_Ionization_Penalty_Neutral>
0.00556303

> <r_epik_State_Penalty>
0.00401767

> <r_epik_Charging_Adjusted_Penalty>
0.00401767

> <i_epik_Tot_Q>
0

> <i_epik_Tot_abs_Q>
0

> <r_epik_Metal_State_Penalty>
-0

> <b_epik_Metal_Only>
0

> <s_lp_Force_Field>
OPLS_2005

> <r_lp_Energy>
73.5051

> <b_lp_Chiralities_Consistent>
1

> <s_lp_Variant>
AV-unprocessed.smi:148-18

> <Gold.Version>
5.8.1

> <Gold.Id.Protein>
6NUR|6NUR_protein|mol2

> <Gold.PLP.Fitness>
43.1414

> <Gold.PLP.PLP>
-34.4412

> <Gold.PLP.part.hbond>
-4.0000

> <Gold.PLP.part.metal>
0.0000

> <Gold.PLP.part.buried>
-0.2089

> <Gold.PLP.part.nonpolar>
-29.6960

> <Gold.PLP.part.repulsive>
0.6589

> <Gold.PLP.ligand.clash>
0.0000

> <Gold.PLP.ligand.torsion>
2.1740

> <Gold.PLP.Chemscore.Hbond>
2.7650

> <Gold.PLP.Chemscore.CHOScore>
1.3456

> <Gold.PLP.Chemscore.Metal>
0.0000

> <Gold.Chemscore.Hbonds>
donor molecule, donor type, donor heavy atom, donor atom, acceptor molecule, acceptor atom, score
      L1  H     1    31       P1  7957  0.54
      L1  H    21    55       P1 10957  0.91
      P1  H  7989  7998       L1     1  0.24
      P1  H  8011  8017       L1     1  0.95
      L1  C    23    56       P1  7948  0.37
      L1  C    23    56       P1  7957  0.93

> <Gold.PLP.Chemscore.Internal.Correction>
0.7162

> <Gold.Rescore>
     Score         DG    S(hbond)    S(metal)    S(lipo)     H(rot)  DE(clash)    DE(int)     intcor
      3.98     -14.41       2.23        0.00      85.39       3.32       1.43       9.00       ----

> <Gold.Chemscore.Fitness>
3.9790

> <Gold.Chemscore.DG>
-14.4109

> <Gold.Chemscore.ZeroCoef>
-5.4800

> <Gold.Chemscore.Hbond>
2.2277

> <Gold.Chemscore.Metal>
0.0000

> <Gold.Chemscore.Lipo>
85.3876

> <Gold.Chemscore.Internal_Hbond>
0.0000

> <Gold.Chemscore.DEClash>
1.4297

> <Gold.Chemscore.DEInternal>
9.0022

> <Gold.Chemscore.Rot>
3.3203

> <Gold.Chemscore.Internal.Correction>
   9.000000E+99

> <Gold.Chemscore.Hbonds>
donor molecule, donor type, donor heavy atom, donor atom, acceptor molecule, acceptor atom, score
      L1  H     1    31       P1  7957  0.55
      L1  H    21    55       P1 10957  0.35
      P1  H  7989  7998       L1     1  0.15
      P1  H  8011  8017       L1     1  0.19

> <Gold.Chemscore.Hbond.Weighted>
-7.4406

> <Gold.Chemscore.Metal.Weighted>
-0.0000

> <Gold.Chemscore.Lipo.Weighted>
-9.9904

> <Gold.Chemscore.Internal_Hbond.Weighted>
0.0000

> <Gold.Chemscore.DEClash.Weighted>
1.4297

> <Gold.Chemscore.DEInternal.Weighted>
9.0022

> <Gold.Chemscore.Rot.Weighted>
8.5000

> <Gold.Chemscore.Internal.Correction.Weighted>
   9.000000E+99

> <Gold.Protein.RotatedTorsions>
[ 6907 6896 6895 6894 ] final  -89.44 input  -60.11 | X-H torsion
[ 7974 7965 7964 7962 ] final  -11.14 input  175.53 | X-H torsion
[ 8008 7997 7996 7995 ] final -124.62 input   59.86 | X-H torsion
[ 10167 10162 10161 10158 ] final   87.24 input  -65.29 | X-H torsion
[ 10718 10713 10712 10709 ] final -178.07 input   66.30 | X-H torsion
[ 10763 10752 10751 10750 ] final  -40.57 input  -60.55 | X-H torsion
[ 11005 11000 10999 10996 ] final -168.15 input  -57.11 | X-H torsion

> <Gold.Protein.ActiveResidues>
 VAL166  LYS551  ARG553  GLY616  TRP617  ASP618  TYR619  PRO620  LYS621  CYS622 
 ASP623  PHE694  ASN695  SER759  ASP760  ASP761  ALA762  ILE779  LEU786  VAL792 
 PHE793  MET794  SER795  GLU796  ALA797  LYS798  CYS799  TRP800  GLU811  SER814 

> <Gold.Protein.RotatedAtoms>
  150.6874  134.2587  159.4540 H   0  0  0  0  0  0  0  0  0  0  0  0  # atno 6907 bound_to 6896
  152.0519  134.9646  160.0584 H   0  0  0  0  0  0  0  0  0  0  0  0  # atno 6908 bound_to 6896
  152.1107  133.4264  159.4666 H   0  0  0  0  0  0  0  0  0  0  0  0  # atno 6909 bound_to 6896
  146.2197  140.2867  142.8366 H   0  0  0  0  0  0  0  0  0  0  0  0  # atno 7974 bound_to 7965
  155.1999  140.0415  157.2915 H   0  0  0  0  0  0  0  0  0  0  0  0  # atno 8008 bound_to 7997
  154.6081  140.2469  155.7676 H   0  0  0  0  0  0  0  0  0  0  0  0  # atno 8009 bound_to 7997
  156.2363  140.2920  156.0330 H   0  0  0  0  0  0  0  0  0  0  0  0  # atno 8010 bound_to 7997
  139.8793  144.6449  150.8861 H   0  0  0  0  0  0  0  0  0  0  0  0  # atno 10167 bound_to 10162
  156.8388  130.9679  151.3101 H   0  0  0  0  0  0  0  0  0  0  0  0  # atno 10718 bound_to 10713
  153.9482  135.6753  153.4744 H   0  0  0  0  0  0  0  0  0  0  0  0  # atno 10763 bound_to 10752
  153.0898  135.4880  154.8664 H   0  0  0  0  0  0  0  0  0  0  0  0  # atno 10764 bound_to 10752
  154.7340  135.3145  154.8802 H   0  0  0  0  0  0  0  0  0  0  0  0  # atno 10765 bound_to 10752
  140.5452  134.5483  157.5109 H   0  0  0  0  0  0  0  0  0  0  0  0  # atno 11005 bound_to 11000
  144.9157  140.7809  143.5780 LP  0  0  0  0  0  0  0  0  0  0  0  0  # atno 17320 bound_to 7965
  145.2800  139.1922  143.4796 LP  0  0  0  0  0  0  0  0  0  0  0  0  # atno 17321 bound_to 7965
  140.7747  143.3599  151.1849 LP  0  0  0  0  0  0  0  0  0  0  0  0  # atno 17342 bound_to 10162
  139.7210  143.9223  152.2985 LP  0  0  0  0  0  0  0  0  0  0  0  0  # atno 17343 bound_to 10162
  157.6367  130.8772  149.9371 LP  0  0  0  0  0  0  0  0  0  0  0  0  # atno 17370 bound_to 10713
  156.0892  130.3665  150.0428 LP  0  0  0  0  0  0  0  0  0  0  0  0  # atno 17371 bound_to 10713
  139.9483  134.7662  156.0508 LP  0  0  0  0  0  0  0  0  0  0  0  0  # atno 17394 bound_to 11000
  141.1204  133.6614  156.3200 LP  0  0  0  0  0  0  0  0  0  0  0  0  # atno 17395 bound_to 11000

$$$$
