AV-unprocessed.smi:784|AV-procd|sdf|3718|dock7
  -GOLD-   22720 1143D 1   1.00000     0.00000
 Structure written by MMmdl.
 38 39  0  0  0  0  0  0  0  0  1 V2000
  144.6140  143.6958  154.7320 C   0  0  0  0  0  0  0  0  0  0  0  0
  145.8299  142.8304  154.8833 C   0  0  0  0  0  0  0  0  0  0  0  0
  146.8798  142.6092  153.9503 C   0  0  0  0  0  0  0  0  0  0  0  0
  147.7164  141.7503  154.6045 C   0  0  0  0  0  0  0  0  0  0  0  0
  149.0078  141.1066  154.2305 C   0  0  0  0  0  0  0  0  0  0  0  0
  149.9640  140.7242  155.7589 S   0  0  0  0  0  0  0  0  0  0  0  0
  149.1332  139.8734  156.6246 O   0  0  0  0  0  0  0  0  0  0  0  0
  151.3178  140.2924  155.3786 O   0  0  0  0  0  0  0  0  0  0  0  0
  150.0969  142.2632  156.5275 N   0  0  0  0  0  0  0  0  0  0  0  0
  151.3080  142.6480  157.2564 C   0  0  0  0  0  0  0  0  0  0  0  0
  151.4061  141.8043  158.5432 C   0  0  0  0  0  0  0  0  0  0  0  0
  152.7920  141.8754  159.2059 C   0  0  0  0  0  0  0  0  0  0  0  0
  153.0004  143.0450  160.1842 C   0  0  0  0  0  0  0  0  0  0  0  0
  152.3982  144.4011  159.7754 C   0  0  0  0  0  0  0  0  0  0  0  0
  152.4745  144.7325  158.2761 C   0  0  0  0  0  0  0  0  0  0  0  0
  151.2835  144.1711  157.4808 C   0  0  0  0  0  0  0  0  0  0  0  0
  147.2233  141.4627  155.8364 O   0  0  0  0  0  0  0  0  0  0  0  0
  146.0204  142.1568  156.0054 N   0  0  0  0  0  0  0  0  0  0  0  0
  144.4437  143.9555  153.6871 H   0  0  0  0  0  0  0  0  0  0  0  0
  144.7245  144.6252  155.2908 H   0  0  0  0  0  0  0  0  0  0  0  0
  143.7191  143.1904  155.0968 H   0  0  0  0  0  0  0  0  0  0  0  0
  147.0027  143.0203  152.9595 H   0  0  0  0  0  0  0  0  0  0  0  0
  148.8337  140.1813  153.6817 H   0  0  0  0  0  0  0  0  0  0  0  0
  149.6032  141.7688  153.6026 H   0  0  0  0  0  0  0  0  0  0  0  0
  149.5995  143.0210  156.0602 H   0  0  0  0  0  0  0  0  0  0  0  0
  152.1678  142.4086  156.6294 H   0  0  0  0  0  0  0  0  0  0  0  0
  150.6212  142.0709  159.2520 H   0  0  0  0  0  0  0  0  0  0  0  0
  151.2255  140.7615  158.2771 H   0  0  0  0  0  0  0  0  0  0  0  0
  152.9696  140.9486  159.7525 H   0  0  0  0  0  0  0  0  0  0  0  0
  153.5624  141.9015  158.4344 H   0  0  0  0  0  0  0  0  0  0  0  0
  152.5920  142.7731  161.1581 H   0  0  0  0  0  0  0  0  0  0  0  0
  154.0727  143.1648  160.3422 H   0  0  0  0  0  0  0  0  0  0  0  0
  151.3597  144.4532  160.1049 H   0  0  0  0  0  0  0  0  0  0  0  0
  152.9144  145.1800  160.3376 H   0  0  0  0  0  0  0  0  0  0  0  0
  152.4561  145.8179  158.1726 H   0  0  0  0  0  0  0  0  0  0  0  0
  153.4238  144.4089  157.8477 H   0  0  0  0  0  0  0  0  0  0  0  0
  151.2643  144.6614  156.5067 H   0  0  0  0  0  0  0  0  0  0  0  0
  150.3531  144.4594  157.9718 H   0  0  0  0  0  0  0  0  0  0  0  0
  1  2  1  0  0  0  0
  1 19  1  0  0  0  0
  1 20  1  0  0  0  0
  1 21  1  0  0  0  0
  2 18  2  0  0  0  0
  2  3  1  0  0  0  0
  3  4  2  0  0  0  0
  3 22  1  0  0  0  0
  4  5  1  0  0  0  0
  4 17  1  0  0  0  0
  5  6  1  0  0  0  0
  5 23  1  0  0  0  0
  5 24  1  0  0  0  0
  6  7  2  0  0  0  0
  6  8  2  0  0  0  0
  6  9  1  0  0  0  0
  9 10  1  0  0  0  0
  9 25  1  0  0  0  0
 10 16  1  0  0  0  0
 10 11  1  0  0  0  0
 10 26  1  0  0  0  0
 11 12  1  0  0  0  0
 11 27  1  0  0  0  0
 11 28  1  0  0  0  0
 12 13  1  0  0  0  0
 12 29  1  0  0  0  0
 12 30  1  0  0  0  0
 13 14  1  0  0  0  0
 13 31  1  0  0  0  0
 13 32  1  0  0  0  0
 14 15  1  0  0  0  0
 14 33  1  0  0  0  0
 14 34  1  0  0  0  0
 15 16  1  0  0  0  0
 15 35  1  0  0  0  0
 15 36  1  0  0  0  0
 16 37  1  0  0  0  0
 16 38  1  0  0  0  0
 17 18  1  0  0  0  0
M  END
> <s_m_source_file>
AV-unprocessed.smi

> <i_m_source_file_index>
784

> <i_lp_mmshare_version>
43012

> <i_f3d_flags>
0

> <s_epik_input>
W0NIM11jMVtjSF1jKG9uMSlbQ0gyXVMoPU8pKD1PKVtOSF1bQ0hdMltDSDJdW0NIMl1bQ0gyXVtDSDJdW0NIMl1bQ0gyXTI=

> <s_epik_cmdline>
J2VwaWtfcHl0aG9uJywgJy1waCcsICc3LjAnLCAnLXRuJywgJzgnLCAnLW1hJywgJzIwMCcsICctbWV0YWxfYmluZGluZycsICctaW1hZScsICc8aW5maWxlLm1hZT4nLCAnLW9tYWUnLCAnPG91dGZpbGUubWFlPic=

> <r_lp_tautomer_probability>
1

> <r_epik_Ionization_Penalty>
4.92328e-05

> <r_epik_Ionization_Penalty_Charging>
0

> <r_epik_Ionization_Penalty_Neutral>
4.92328e-05

> <r_epik_State_Penalty>
-0

> <r_epik_Charging_Adjusted_Penalty>
0

> <i_epik_Tot_Q>
0

> <i_epik_Tot_abs_Q>
0

> <r_epik_Metal_State_Penalty>
0.0438012

> <b_epik_Metal_Only>
0

> <s_lp_Force_Field>
OPLS_2005

> <r_lp_Energy>
5.5121

> <b_lp_Chiralities_Consistent>
1

> <s_lp_Variant>
AV-unprocessed.smi:784-1

> <Gold.Version>
5.8.1

> <Gold.Id.Protein>
6NUR|6NUR_protein|mol2

> <Gold.PLP.Fitness>
46.9569

> <Gold.PLP.PLP>
-42.1334

> <Gold.PLP.part.hbond>
-2.0000

> <Gold.PLP.part.metal>
0.0000

> <Gold.PLP.part.buried>
-4.4503

> <Gold.PLP.part.nonpolar>
-36.7654

> <Gold.PLP.part.repulsive>
0.2823

> <Gold.PLP.ligand.clash>
0.0000

> <Gold.PLP.ligand.torsion>
1.1298

> <Gold.PLP.Chemscore.Hbond>
1.9920

> <Gold.PLP.Chemscore.CHOScore>
0.0000

> <Gold.PLP.Chemscore.Metal>
0.0000

> <Gold.Chemscore.Hbonds>
donor molecule, donor type, donor heavy atom, donor atom, acceptor molecule, acceptor atom, score
      L1  H     9    25       P1  8028  1.00
      P1  H  7989  7998       L1     8  0.99

> <Gold.PLP.Chemscore.Internal.Correction>
1.1072

> <Gold.Rescore>
     Score         DG    S(hbond)    S(metal)    S(lipo)     H(rot)  DE(clash)    DE(int)     intcor
     18.14     -20.91       1.96        0.00     106.05       1.37       0.05       2.73       ----

> <Gold.Chemscore.Fitness>
18.1390

> <Gold.Chemscore.DG>
-20.9114

> <Gold.Chemscore.ZeroCoef>
-5.4800

> <Gold.Chemscore.Hbond>
1.9583

> <Gold.Chemscore.Metal>
0.0000

> <Gold.Chemscore.Lipo>
106.0464

> <Gold.Chemscore.Internal_Hbond>
0.0000

> <Gold.Chemscore.DEClash>
0.0460

> <Gold.Chemscore.DEInternal>
2.7263

> <Gold.Chemscore.Rot>
1.3738

> <Gold.Chemscore.Internal.Correction>
   9.000000E+99

> <Gold.Chemscore.Hbonds>
donor molecule, donor type, donor heavy atom, donor atom, acceptor molecule, acceptor atom, score
      L1  H     9    25       P1  8028  1.00
      P1  H  7989  7998       L1     8  0.59

> <Gold.Chemscore.Hbond.Weighted>
-6.5408

> <Gold.Chemscore.Metal.Weighted>
-0.0000

> <Gold.Chemscore.Lipo.Weighted>
-12.4074

> <Gold.Chemscore.Internal_Hbond.Weighted>
0.0000

> <Gold.Chemscore.DEClash.Weighted>
0.0460

> <Gold.Chemscore.DEInternal.Weighted>
2.7263

> <Gold.Chemscore.Rot.Weighted>
3.5168

> <Gold.Chemscore.Internal.Correction.Weighted>
   9.000000E+99

> <Gold.Protein.RotatedTorsions>
[ 6907 6896 6895 6894 ] final  155.52 input  -60.11 | X-H torsion
[ 7974 7965 7964 7962 ] final  110.76 input  175.53 | X-H torsion
[ 8008 7997 7996 7995 ] final -166.14 input   59.86 | X-H torsion
[ 10167 10162 10161 10158 ] final   98.76 input  -65.29 | X-H torsion
[ 10718 10713 10712 10709 ] final   93.66 input   66.30 | X-H torsion
[ 10763 10752 10751 10750 ] final  -74.53 input  -60.55 | X-H torsion
[ 11005 11000 10999 10996 ] final  169.45 input  -57.11 | X-H torsion

> <Gold.Protein.ActiveResidues>
 VAL166  LYS551  ARG553  GLY616  TRP617  ASP618  TYR619  PRO620  LYS621  CYS622 
 ASP623  PHE694  ASN695  SER759  ASP760  ASP761  ALA762  ILE779  LEU786  VAL792 
 PHE793  MET794  SER795  GLU796  ALA797  LYS798  CYS799  TRP800  GLU811  SER814 

> <Gold.Protein.RotatedAtoms>
  152.0430  133.3985  159.4344 H   0  0  0  0  0  0  0  0  0  0  0  0  # atno 6907 bound_to 6896
  150.6874  134.3394  159.4870 H   0  0  0  0  0  0  0  0  0  0  0  0  # atno 6908 bound_to 6896
  152.1194  134.9216  160.0614 H   0  0  0  0  0  0  0  0  0  0  0  0  # atno 6909 bound_to 6896
  145.2509  139.2740  143.4068 H   0  0  0  0  0  0  0  0  0  0  0  0  # atno 7974 bound_to 7965
  155.8597  140.0976  157.1621 H   0  0  0  0  0  0  0  0  0  0  0  0  # atno 8008 bound_to 7997
  154.3990  140.1367  156.4008 H   0  0  0  0  0  0  0  0  0  0  0  0  # atno 8009 bound_to 7997
  155.7870  140.3457  155.5331 H   0  0  0  0  0  0  0  0  0  0  0  0  # atno 8010 bound_to 7997
  139.7679  144.6932  151.0198 H   0  0  0  0  0  0  0  0  0  0  0  0  # atno 10167 bound_to 10162
  157.6953  131.0486  150.4067 H   0  0  0  0  0  0  0  0  0  0  0  0  # atno 10718 bound_to 10713
  154.4744  135.5861  153.6344 H   0  0  0  0  0  0  0  0  0  0  0  0  # atno 10763 bound_to 10752
  152.9839  135.6074  154.3326 H   0  0  0  0  0  0  0  0  0  0  0  0  # atno 10764 bound_to 10752
  154.3211  135.2843  155.2498 H   0  0  0  0  0  0  0  0  0  0  0  0  # atno 10765 bound_to 10752
  140.2978  134.7620  157.3892 H   0  0  0  0  0  0  0  0  0  0  0  0  # atno 11005 bound_to 11000
  146.3303  140.2899  142.8614 LP  0  0  0  0  0  0  0  0  0  0  0  0  # atno 17320 bound_to 7965
  144.9504  140.8172  143.5575 LP  0  0  0  0  0  0  0  0  0  0  0  0  # atno 17321 bound_to 7965
  140.7812  143.4622  151.0262 LP  0  0  0  0  0  0  0  0  0  0  0  0  # atno 17342 bound_to 10162
  139.8307  143.7695  152.3179 LP  0  0  0  0  0  0  0  0  0  0  0  0  # atno 17343 bound_to 10162
  156.4455  130.4000  149.6669 LP  0  0  0  0  0  0  0  0  0  0  0  0  # atno 17370 bound_to 10713
  156.3837  130.7592  151.2587 LP  0  0  0  0  0  0  0  0  0  0  0  0  # atno 17371 bound_to 10713
  140.1136  134.5312  155.8244 LP  0  0  0  0  0  0  0  0  0  0  0  0  # atno 17394 bound_to 11000
  141.2134  133.6733  156.6735 LP  0  0  0  0  0  0  0  0  0  0  0  0  # atno 17395 bound_to 11000

$$$$
