AV-unprocessed.smi:3147|AV-procd|sdf|11990|dock10
  -GOLD-   2272017393D 1   1.00000     0.00000
 Structure written by MMmdl.
 36 37  0  0  0  0  0  0  0  0  1 V2000
  152.9675  143.2615  162.7184 C   0  0  0  0  0  0  0  0  0  0  0  0
  152.7216  142.9195  161.2808 C   0  0  0  0  0  0  0  0  0  0  0  0
  153.1403  141.6960  160.7634 N   0  0  0  0  0  0  0  0  0  0  0  0
  152.7616  141.7411  159.4942 C   0  0  0  0  0  0  0  0  0  0  0  0
  152.1423  142.8748  159.1387 N   0  0  0  0  0  0  0  0  0  0  0  0
  151.6231  143.1977  157.8177 C   0  0  0  0  0  0  0  0  0  0  0  0
  150.5846  142.1849  157.3196 C   0  0  0  0  0  0  0  0  0  0  0  0
  149.4969  142.0557  157.8836 O   0  0  0  0  0  0  0  0  0  0  0  0
  150.9399  141.4697  156.2418 N   0  0  0  0  0  0  0  0  0  0  0  0
  150.1114  140.4601  155.5927 C   0  0  0  0  0  0  0  0  0  0  0  0
  149.1160  141.0893  154.6037 C   0  0  1  0  0  0  0  0  0  0  0  0
  148.2043  140.0753  153.9196 C   0  0  0  0  0  0  0  0  0  0  0  0
  147.0654  140.9579  153.4599 C   0  0  0  0  0  0  0  0  0  0  0  0
  146.9585  141.9790  154.5929 C   0  0  0  0  0  0  0  0  0  0  0  0
  148.2097  141.9556  155.2776 O   0  0  0  0  0  0  0  0  0  0  0  0
  152.1024  143.6574  160.2919 C   0  0  0  0  0  0  0  0  0  0  0  0
  151.4801  145.0171  160.3328 C   0  0  0  0  0  0  0  0  0  0  0  0
  152.5950  144.2531  162.9725 H   0  0  0  0  0  0  0  0  0  0  0  0
  154.0330  143.2445  162.9479 H   0  0  0  0  0  0  0  0  0  0  0  0
  152.4759  142.5478  163.3799 H   0  0  0  0  0  0  0  0  0  0  0  0
  152.9408  140.9290  158.8050 H   0  0  0  0  0  0  0  0  0  0  0  0
  151.1790  144.1933  157.8409 H   0  0  0  0  0  0  0  0  0  0  0  0
  152.4585  143.2386  157.1171 H   0  0  0  0  0  0  0  0  0  0  0  0
  151.8526  141.6340  155.8422 H   0  0  0  0  0  0  0  0  0  0  0  0
  150.7471  139.7373  155.0785 H   0  0  0  0  0  0  0  0  0  0  0  0
  149.5754  139.9068  156.3643 H   0  0  0  0  0  0  0  0  0  0  0  0
  149.6422  141.6661  153.8409 H   0  0  0  0  0  0  0  0  0  0  0  0
  148.6935  139.5456  153.1015 H   0  0  0  0  0  0  0  0  0  0  0  0
  147.8404  139.3386  154.6374 H   0  0  0  0  0  0  0  0  0  0  0  0
  147.3379  141.4589  152.5300 H   0  0  0  0  0  0  0  0  0  0  0  0
  146.1386  140.4089  153.2911 H   0  0  0  0  0  0  0  0  0  0  0  0
  146.7376  142.9783  154.2168 H   0  0  0  0  0  0  0  0  0  0  0  0
  146.1721  141.7007  155.2950 H   0  0  0  0  0  0  0  0  0  0  0  0
  151.4862  145.4318  161.3399 H   0  0  0  0  0  0  0  0  0  0  0  0
  150.4432  144.9787  159.9984 H   0  0  0  0  0  0  0  0  0  0  0  0
  152.0185  145.7089  159.6848 H   0  0  0  0  0  0  0  0  0  0  0  0
  1  2  1  0  0  0  0
  1 18  1  0  0  0  0
  1 19  1  0  0  0  0
  1 20  1  0  0  0  0
  2 16  2  0  0  0  0
  2  3  1  0  0  0  0
  3  4  2  0  0  0  0
  4  5  1  0  0  0  0
  4 21  1  0  0  0  0
  5  6  1  0  0  0  0
  5 16  1  0  0  0  0
  6  7  1  0  0  0  0
  6 22  1  0  0  0  0
  6 23  1  0  0  0  0
  7  8  2  0  0  0  0
  7  9  1  0  0  0  0
  9 10  1  0  0  0  0
  9 24  1  0  0  0  0
 10 11  1  0  0  0  0
 10 25  1  0  0  0  0
 10 26  1  0  0  0  0
 11 15  1  0  0  0  0
 11 12  1  0  0  0  0
 11 27  1  0  0  0  0
 12 13  1  0  0  0  0
 12 28  1  0  0  0  0
 12 29  1  0  0  0  0
 13 14  1  0  0  0  0
 13 30  1  0  0  0  0
 13 31  1  0  0  0  0
 14 15  1  0  0  0  0
 14 32  1  0  0  0  0
 14 33  1  0  0  0  0
 16 17  1  0  0  0  0
 17 34  1  0  0  0  0
 17 35  1  0  0  0  0
 17 36  1  0  0  0  0
M  END
> <s_m_source_file>
AV-unprocessed.smi

> <i_m_source_file_index>
3147

> <i_lp_mmshare_version>
43012

> <i_f3d_flags>
0

> <s_epik_input>
W0NIM11jMW5bY0hdbihjMVtDSDNdKVtDSDJdQyg9TylbTkhdW0NIMl1bQ0BASF0yW0NIMl1bQ0gyXVtDSDJdTzI=

> <s_epik_cmdline>
J2VwaWtfcHl0aG9uJywgJy1waCcsICc3LjAnLCAnLXRuJywgJzgnLCAnLW1hJywgJzIwMCcsICctbWV0YWxfYmluZGluZycsICctaW1hZScsICc8aW5maWxlLm1hZT4nLCAnLW9tYWUnLCAnPG91dGZpbGUubWFlPic=

> <r_lp_tautomer_probability>
1

> <r_epik_Ionization_Penalty>
0.957393

> <r_epik_Ionization_Penalty_Charging>
0.957393

> <r_epik_Ionization_Penalty_Neutral>
1.43432e-07

> <r_epik_State_Penalty>
1.0022

> <r_epik_Charging_Adjusted_Penalty>
1.9596

> <i_epik_Tot_Q>
0

> <i_epik_Tot_abs_Q>
0

> <r_epik_Metal_State_Penalty>
0.374967

> <b_epik_Metal_Only>
0

> <s_lp_Force_Field>
OPLS_2005

> <r_lp_Energy>
18.0511

> <b_lp_Chiralities_Consistent>
1

> <s_lp_Variant>
AV-unprocessed.smi:3147-4

> <Gold.Version>
5.8.1

> <Gold.Id.Protein>
6NUR|6NUR_protein|mol2

> <Gold.PLP.Fitness>
39.7338

> <Gold.PLP.PLP>
-40.1157

> <Gold.PLP.part.hbond>
0.0000

> <Gold.PLP.part.metal>
0.0000

> <Gold.PLP.part.buried>
-5.8778

> <Gold.PLP.part.nonpolar>
-36.7317

> <Gold.PLP.part.repulsive>
2.2165

> <Gold.PLP.ligand.clash>
0.0000

> <Gold.PLP.ligand.torsion>
0.2005

> <Gold.PLP.Chemscore.Hbond>
0.0000

> <Gold.PLP.Chemscore.CHOScore>
0.0000

> <Gold.PLP.Chemscore.Metal>
0.0000

> <Gold.PLP.Chemscore.Internal.Correction>
0.0191

> <Gold.Rescore>
     Score         DG    S(hbond)    S(metal)    S(lipo)     H(rot)  DE(clash)    DE(int)     intcor
     10.11     -11.76       0.00        0.00      90.94       1.70       0.23       1.42       ----

> <Gold.Chemscore.Fitness>
10.1149

> <Gold.Chemscore.DG>
-11.7589

> <Gold.Chemscore.ZeroCoef>
-5.4800

> <Gold.Chemscore.Hbond>
0.0000

> <Gold.Chemscore.Metal>
0.0000

> <Gold.Chemscore.Lipo>
90.9365

> <Gold.Chemscore.Internal_Hbond>
0.0000

> <Gold.Chemscore.DEClash>
0.2283

> <Gold.Chemscore.DEInternal>
1.4157

> <Gold.Chemscore.Rot>
1.7034

> <Gold.Chemscore.Internal.Correction>
   9.000000E+99

> <Gold.Chemscore.Hbond.Weighted>
-0.0000

> <Gold.Chemscore.Metal.Weighted>
-0.0000

> <Gold.Chemscore.Lipo.Weighted>
-10.6396

> <Gold.Chemscore.Internal_Hbond.Weighted>
0.0000

> <Gold.Chemscore.DEClash.Weighted>
0.2283

> <Gold.Chemscore.DEInternal.Weighted>
1.4157

> <Gold.Chemscore.Rot.Weighted>
4.3607

> <Gold.Chemscore.Internal.Correction.Weighted>
   9.000000E+99

> <Gold.Protein.RotatedTorsions>
[ 6907 6896 6895 6894 ] final -142.78 input  -60.11 | X-H torsion
[ 7974 7965 7964 7962 ] final  175.96 input  175.53 | X-H torsion
[ 8008 7997 7996 7995 ] final    3.77 input   59.86 | X-H torsion
[ 10167 10162 10161 10158 ] final   84.77 input  -65.29 | X-H torsion
[ 10718 10713 10712 10709 ] final  -33.07 input   66.30 | X-H torsion
[ 10763 10752 10751 10750 ] final -173.61 input  -60.55 | X-H torsion
[ 11005 11000 10999 10996 ] final   24.98 input  -57.11 | X-H torsion

> <Gold.Protein.ActiveResidues>
 VAL166  LYS551  ARG553  GLY616  TRP617  ASP618  TYR619  PRO620  LYS621  CYS622 
 ASP623  PHE694  ASN695  SER759  ASP760  ASP761  ALA762  ILE779  LEU786  VAL792 
 PHE793  MET794  SER795  GLU796  ALA797  LYS798  CYS799  TRP800  GLU811  SER814 

> <Gold.Protein.RotatedAtoms>
  151.0917  133.5311  159.2614 H   0  0  0  0  0  0  0  0  0  0  0  0  # atno 6907 bound_to 6896
  151.2175  135.0505  159.8946 H   0  0  0  0  0  0  0  0  0  0  0  0  # atno 6908 bound_to 6896
  152.5435  134.0724  159.8253 H   0  0  0  0  0  0  0  0  0  0  0  0  # atno 6909 bound_to 6896
  144.7192  140.0025  143.6440 H   0  0  0  0  0  0  0  0  0  0  0  0  # atno 7974 bound_to 7965
  154.7077  140.2686  155.6658 H   0  0  0  0  0  0  0  0  0  0  0  0  # atno 8008 bound_to 7997
  156.2785  140.2759  156.1633 H   0  0  0  0  0  0  0  0  0  0  0  0  # atno 8009 bound_to 7997
  155.0677  140.0372  157.2588 H   0  0  0  0  0  0  0  0  0  0  0  0  # atno 8010 bound_to 7997
  139.9046  144.6308  150.8600 H   0  0  0  0  0  0  0  0  0  0  0  0  # atno 10167 bound_to 10162
  156.3672  130.4333  149.7575 H   0  0  0  0  0  0  0  0  0  0  0  0  # atno 10718 bound_to 10713
  154.6059  135.2859  155.0485 H   0  0  0  0  0  0  0  0  0  0  0  0  # atno 10763 bound_to 10752
  154.1733  135.6469  153.5019 H   0  0  0  0  0  0  0  0  0  0  0  0  # atno 10764 bound_to 10752
  153.0175  135.5406  154.6795 H   0  0  0  0  0  0  0  0  0  0  0  0  # atno 10765 bound_to 10752
  140.3529  134.2210  155.7678 H   0  0  0  0  0  0  0  0  0  0  0  0  # atno 11005 bound_to 11000
  146.0324  139.3346  143.0747 LP  0  0  0  0  0  0  0  0  0  0  0  0  # atno 17320 bound_to 7965
  145.8437  140.9567  143.0786 LP  0  0  0  0  0  0  0  0  0  0  0  0  # atno 17321 bound_to 7965
  140.7699  143.3410  151.2207 LP  0  0  0  0  0  0  0  0  0  0  0  0  # atno 17342 bound_to 10162
  139.6995  143.9557  152.2898 LP  0  0  0  0  0  0  0  0  0  0  0  0  # atno 17343 bound_to 10162
  156.4716  130.7999  151.3017 LP  0  0  0  0  0  0  0  0  0  0  0  0  # atno 17370 bound_to 10713
  157.7480  131.0034  150.3036 LP  0  0  0  0  0  0  0  0  0  0  0  0  # atno 17371 bound_to 10713
  141.2007  133.7981  157.0477 LP  0  0  0  0  0  0  0  0  0  0  0  0  # atno 17394 bound_to 11000
  140.0689  134.9713  157.1433 LP  0  0  0  0  0  0  0  0  0  0  0  0  # atno 17395 bound_to 11000

$$$$
