AV-unprocessed.smi:3243|AV-procd|sdf|12397|dock4
  -GOLD-   2272018273D 1   1.00000     0.00000
 Structure written by MMmdl.
 37 38  0  0  0  0  0  0  0  0  1 V2000
  153.7963  141.1365  160.6245 C   0  0  0  0  0  0  0  0  0  0  0  0
  153.3662  142.6021  160.7802 C   0  0  0  0  0  0  0  0  0  0  0  0
  152.7001  142.8941  162.1325 C   0  0  0  0  0  0  0  0  0  0  0  0
  152.5325  143.0695  159.6286 C   0  0  0  0  0  0  0  0  0  0  0  0
  152.1268  142.2738  158.6340 N   0  0  0  0  0  0  0  0  0  0  0  0
  151.3627  142.9496  157.6778 C   0  0  0  0  0  0  0  0  0  0  0  0
  150.8212  142.2084  156.4931 C   0  0  0  0  0  0  0  0  0  0  0  0
  149.5722  141.3876  156.8425 C   0  0  0  0  0  0  0  0  0  0  0  0
  148.5216  141.6061  155.8574 N   0  0  0  0  0  0  0  0  0  0  0  0
  148.6899  141.5001  154.5317 C   0  0  0  0  0  0  0  0  0  0  0  0
  149.7671  141.1994  154.0153 O   0  0  0  0  0  0  0  0  0  0  0  0
  147.4540  141.7799  153.7400 C   0  0  1  0  0  0  0  0  0  0  0  0
  146.2014  141.0079  154.1016 C   0  0  0  0  0  0  0  0  0  0  0  0
  146.3034  142.4742  154.4448 C   0  0  2  0  0  0  0  0  0  0  0  0
  145.4676  143.5027  153.7139 C   0  0  0  0  0  0  0  0  0  0  0  0
  151.1914  144.2807  157.9647 C   0  0  0  0  0  0  0  0  0  0  0  0
  151.9862  144.7331  159.4472 S   0  0  0  0  0  0  0  0  0  0  0  0
  154.3388  140.9839  159.6910 H   0  0  0  0  0  0  0  0  0  0  0  0
  152.9346  140.4683  160.6219 H   0  0  0  0  0  0  0  0  0  0  0  0
  154.4512  140.8304  161.4406 H   0  0  0  0  0  0  0  0  0  0  0  0
  154.2817  143.1945  160.7555 H   0  0  0  0  0  0  0  0  0  0  0  0
  152.4826  143.9570  162.2412 H   0  0  0  0  0  0  0  0  0  0  0  0
  153.3477  142.6036  162.9600 H   0  0  0  0  0  0  0  0  0  0  0  0
  151.7615  142.3491  162.2379 H   0  0  0  0  0  0  0  0  0  0  0  0
  150.5814  142.9120  155.6947 H   0  0  0  0  0  0  0  0  0  0  0  0
  151.5891  141.5478  156.0884 H   0  0  0  0  0  0  0  0  0  0  0  0
  149.8179  140.3250  156.8780 H   0  0  0  0  0  0  0  0  0  0  0  0
  149.2056  141.6679  157.8315 H   0  0  0  0  0  0  0  0  0  0  0  0
  147.6080  141.8579  156.2058 H   0  0  0  0  0  0  0  0  0  0  0  0
  147.5966  142.0095  152.6850 H   0  0  0  0  0  0  0  0  0  0  0  0
  145.5515  140.7139  153.2800 H   0  0  0  0  0  0  0  0  0  0  0  0
  146.2465  140.2982  154.9258 H   0  0  0  0  0  0  0  0  0  0  0  0
  146.4353  142.7035  155.5011 H   0  0  0  0  0  0  0  0  0  0  0  0
  145.3571  143.2367  152.6622 H   0  0  0  0  0  0  0  0  0  0  0  0
  145.9410  144.4825  153.7768 H   0  0  0  0  0  0  0  0  0  0  0  0
  144.4761  143.5657  154.1625 H   0  0  0  0  0  0  0  0  0  0  0  0
  150.6464  145.0199  157.3964 H   0  0  0  0  0  0  0  0  0  0  0  0
  1  2  1  0  0  0  0
  1 18  1  0  0  0  0
  1 19  1  0  0  0  0
  1 20  1  0  0  0  0
  2  3  1  0  0  0  0
  2  4  1  0  0  0  0
  2 21  1  0  0  0  0
  3 22  1  0  0  0  0
  3 23  1  0  0  0  0
  3 24  1  0  0  0  0
  4 17  1  0  0  0  0
  4  5  2  0  0  0  0
  5  6  1  0  0  0  0
  6  7  1  0  0  0  0
  6 16  2  0  0  0  0
  7  8  1  0  0  0  0
  7 25  1  0  0  0  0
  7 26  1  0  0  0  0
  8  9  1  0  0  0  0
  8 27  1  0  0  0  0
  8 28  1  0  0  0  0
  9 10  1  0  0  0  0
  9 29  1  0  0  0  0
 10 11  2  0  0  0  0
 10 12  1  0  0  0  0
 12 14  1  0  0  0  0
 12 13  1  0  0  0  0
 12 30  1  0  0  0  0
 13 14  1  0  0  0  0
 13 31  1  0  0  0  0
 13 32  1  0  0  0  0
 14 15  1  0  0  0  0
 14 33  1  0  0  0  0
 15 34  1  0  0  0  0
 15 35  1  0  0  0  0
 15 36  1  0  0  0  0
 16 17  1  0  0  0  0
 16 37  1  0  0  0  0
M  END
> <s_m_source_file>
AV-unprocessed.smi

> <i_m_source_file_index>
3243

> <i_lp_mmshare_version>
43012

> <i_f3d_flags>
0

> <s_epik_input>
W0NIM11bQ0hdKFtDSDNdKWMxbmMoW2NIXXMxKVtDSDJdW0NIMl1bTkhdQyg9TylbQ0BASF0yW0NIMl1bQ0BIXTJbQ0gzXQ==

> <s_epik_cmdline>
J2VwaWtfcHl0aG9uJywgJy1waCcsICc3LjAnLCAnLXRuJywgJzgnLCAnLW1hJywgJzIwMCcsICctbWV0YWxfYmluZGluZycsICctaW1hZScsICc8aW5maWxlLm1hZT4nLCAnLW9tYWUnLCAnPG91dGZpbGUubWFlPic=

> <r_epik_Ionization_Penalty>
0.00084212

> <r_epik_Ionization_Penalty_Charging>
0

> <r_epik_Ionization_Penalty_Neutral>
0.00084212

> <r_epik_State_Penalty>
0.000542609

> <r_epik_Charging_Adjusted_Penalty>
0.000542609

> <i_epik_Tot_Q>
0

> <i_epik_Tot_abs_Q>
0

> <r_epik_Metal_State_Penalty>
-0

> <b_epik_Metal_Only>
0

> <s_lp_Force_Field>
OPLS_2005

> <r_lp_Energy>
-2.05964

> <b_lp_Chiralities_Consistent>
1

> <s_lp_Variant>
AV-unprocessed.smi:3243-4

> <Gold.Version>
5.8.1

> <Gold.Id.Protein>
6NUR|6NUR_protein|mol2

> <Gold.PLP.Fitness>
50.8865

> <Gold.PLP.PLP>
-46.8547

> <Gold.PLP.part.hbond>
-3.0000

> <Gold.PLP.part.metal>
0.0000

> <Gold.PLP.part.buried>
-4.1808

> <Gold.PLP.part.nonpolar>
-40.9719

> <Gold.PLP.part.repulsive>
0.3009

> <Gold.PLP.ligand.clash>
0.0000

> <Gold.PLP.ligand.torsion>
0.9105

> <Gold.PLP.Chemscore.Hbond>
0.9256

> <Gold.PLP.Chemscore.CHOScore>
0.9750

> <Gold.PLP.Chemscore.Metal>
0.0000

> <Gold.Chemscore.Hbonds>
donor molecule, donor type, donor heavy atom, donor atom, acceptor molecule, acceptor atom, score
      P1  H  7989  7998       L1    11  0.35
      P1  H  8011  8017       L1    11  0.69
      L1  C    16    37       P1  8028  1.00

> <Gold.PLP.Chemscore.Internal.Correction>
0.1508

> <Gold.Rescore>
     Score         DG    S(hbond)    S(metal)    S(lipo)     H(rot)  DE(clash)    DE(int)     intcor
     16.38     -19.01       0.84        0.00     124.25       1.49       0.72       1.91       ----

> <Gold.Chemscore.Fitness>
16.3790

> <Gold.Chemscore.DG>
-19.0141

> <Gold.Chemscore.ZeroCoef>
-5.4800

> <Gold.Chemscore.Hbond>
0.8395

> <Gold.Chemscore.Metal>
0.0000

> <Gold.Chemscore.Lipo>
124.2456

> <Gold.Chemscore.Internal_Hbond>
0.0000

> <Gold.Chemscore.DEClash>
0.7230

> <Gold.Chemscore.DEInternal>
1.9121

> <Gold.Chemscore.Rot>
1.4870

> <Gold.Chemscore.Internal.Correction>
   9.000000E+99

> <Gold.Chemscore.Hbonds>
donor molecule, donor type, donor heavy atom, donor atom, acceptor molecule, acceptor atom, score
      P1  H  7989  7998       L1    11  0.36
      P1  H  8011  8017       L1    11  0.23

> <Gold.Chemscore.Hbond.Weighted>
-2.8041

> <Gold.Chemscore.Metal.Weighted>
-0.0000

> <Gold.Chemscore.Lipo.Weighted>
-14.5367

> <Gold.Chemscore.Internal_Hbond.Weighted>
0.0000

> <Gold.Chemscore.DEClash.Weighted>
0.7230

> <Gold.Chemscore.DEInternal.Weighted>
1.9121

> <Gold.Chemscore.Rot.Weighted>
3.8067

> <Gold.Chemscore.Internal.Correction.Weighted>
   9.000000E+99

> <Gold.Protein.RotatedTorsions>
[ 6907 6896 6895 6894 ] final -171.20 input  -60.11 | X-H torsion
[ 7974 7965 7964 7962 ] final -108.16 input  175.53 | X-H torsion
[ 8008 7997 7996 7995 ] final  -70.25 input   59.86 | X-H torsion
[ 10167 10162 10161 10158 ] final -167.78 input  -65.29 | X-H torsion
[ 10718 10713 10712 10709 ] final   51.08 input   66.30 | X-H torsion
[ 10763 10752 10751 10750 ] final    4.00 input  -60.55 | X-H torsion
[ 11005 11000 10999 10996 ] final   49.93 input  -57.11 | X-H torsion

> <Gold.Protein.ActiveResidues>
 VAL166  LYS551  ARG553  GLY616  TRP617  ASP618  TYR619  PRO620  LYS621  CYS622 
 ASP623  PHE694  ASN695  SER759  ASP760  ASP761  ALA762  ILE779  LEU786  VAL792 
 PHE793  MET794  SER795  GLU796  ALA797  LYS798  CYS799  TRP800  GLU811  SER814 

> <Gold.Protein.RotatedAtoms>
  151.5200  133.3468  159.2899 H   0  0  0  0  0  0  0  0  0  0  0  0  # atno 6907 bound_to 6896
  150.8658  134.8024  159.7129 H   0  0  0  0  0  0  0  0  0  0  0  0  # atno 6908 bound_to 6896
  152.4663  134.5076  159.9795 H   0  0  0  0  0  0  0  0  0  0  0  0  # atno 6909 bound_to 6896
  145.1963  140.9037  143.3395 H   0  0  0  0  0  0  0  0  0  0  0  0  # atno 7974 bound_to 7965
  154.4998  140.0838  156.7773 H   0  0  0  0  0  0  0  0  0  0  0  0  # atno 8008 bound_to 7997
  155.4030  140.3438  155.4240 H   0  0  0  0  0  0  0  0  0  0  0  0  # atno 8009 bound_to 7997
  156.1441  140.1538  156.8862 H   0  0  0  0  0  0  0  0  0  0  0  0  # atno 8010 bound_to 7997
  139.6027  144.0977  152.1760 H   0  0  0  0  0  0  0  0  0  0  0  0  # atno 10167 bound_to 10162
  157.4946  130.8398  149.8243 H   0  0  0  0  0  0  0  0  0  0  0  0  # atno 10718 bound_to 10713
  153.2765  135.6937  153.7428 H   0  0  0  0  0  0  0  0  0  0  0  0  # atno 10763 bound_to 10752
  153.6431  135.3390  155.3078 H   0  0  0  0  0  0  0  0  0  0  0  0  # atno 10764 bound_to 10752
  154.8481  135.4436  154.1805 H   0  0  0  0  0  0  0  0  0  0  0  0  # atno 10765 bound_to 10752
  140.1061  134.5017  155.8719 H   0  0  0  0  0  0  0  0  0  0  0  0  # atno 11005 bound_to 11000
  144.9992  139.3615  143.6176 LP  0  0  0  0  0  0  0  0  0  0  0  0  # atno 17320 bound_to 7965
  146.3426  139.9207  142.8767 LP  0  0  0  0  0  0  0  0  0  0  0  0  # atno 17321 bound_to 7965
  140.0577  144.5882  150.7287 LP  0  0  0  0  0  0  0  0  0  0  0  0  # atno 17342 bound_to 10162
  140.7262  143.2639  151.4112 LP  0  0  0  0  0  0  0  0  0  0  0  0  # atno 17343 bound_to 10162
  156.0193  130.3801  150.2011 LP  0  0  0  0  0  0  0  0  0  0  0  0  # atno 17370 bound_to 10713
  157.0200  130.9976  151.3342 LP  0  0  0  0  0  0  0  0  0  0  0  0  # atno 17371 bound_to 10713
  141.2118  133.6712  156.6613 LP  0  0  0  0  0  0  0  0  0  0  0  0  # atno 17394 bound_to 11000
  140.3154  134.8051  157.4210 LP  0  0  0  0  0  0  0  0  0  0  0  0  # atno 17395 bound_to 11000

$$$$
