AV-unprocessed.smi:8|AV-procd|sdf|48|dock9
  -GOLD-   2262015163D 1   1.00000     0.00000
 Structure written by MMmdl.
 34 35  0  0  0  0  0  0  0  0  3 V2000
  149.5294  136.5114  156.0532 C   0  0  0  0  0  0  0  0  0  0  0  0
  150.6933  135.5446  155.7941 C   0  0  0  0  0  0  0  0  0  0  0  0
  150.2090  134.2025  155.4448 N   0  0  0  0  0  0  0  0  0  0  0  0
  149.3100  134.0964  154.3704 C   0  0  0  0  0  0  0  0  0  0  0  0
  148.8096  132.9136  153.9574 C   0  0  0  0  0  0  0  0  0  0  0  0
  147.8190  132.8071  152.8081 C   0  0  0  0  0  0  0  0  0  0  0  0
  147.2092  134.0858  152.4642 N   0  0  0  0  0  0  0  0  0  0  0  0
  145.9687  134.0947  151.8105 C   0  0  0  0  0  0  0  0  0  0  0  0
  145.5362  132.9659  151.2036 N   0  0  0  0  0  0  0  0  0  0  0  0
  144.3508  132.9625  150.5826 C   0  0  0  0  0  0  0  0  0  0  0  0
  143.5512  134.0377  150.5307 N   0  3  0  0  0  0  0  0  0  0  0  0
  143.9420  135.1899  151.1270 C   0  0  0  0  0  0  0  0  0  0  0  0
  145.1787  135.2640  151.7986 C   0  0  0  0  0  0  0  0  0  0  0  0
  145.6253  136.5518  152.4667 C   0  0  0  0  0  0  0  0  0  0  0  0
  149.2266  131.7146  154.6936 C   0  0  0  0  0  0  0  0  0  0  0  0
  148.7811  130.6137  154.3699 O   0  0  0  0  0  0  0  0  0  0  0  0
  150.1091  131.8699  155.7229 N   0  5  0  0  0  0  0  0  0  0  0  0
  150.6126  133.0812  156.1110 C   0  0  0  0  0  0  0  0  0  0  0  0
  151.4160  133.1940  157.0375 O   0  0  0  0  0  0  0  0  0  0  0  0
  149.9006  137.4994  156.3256 H   0  0  0  0  0  0  0  0  0  0  0  0
  148.8964  136.1574  156.8673 H   0  0  0  0  0  0  0  0  0  0  0  0
  148.9042  136.6250  155.1671 H   0  0  0  0  0  0  0  0  0  0  0  0
  151.3370  135.9405  155.0070 H   0  0  0  0  0  0  0  0  0  0  0  0
  151.3275  135.4946  156.6802 H   0  0  0  0  0  0  0  0  0  0  0  0
  149.0562  135.0353  153.9000 H   0  0  0  0  0  0  0  0  0  0  0  0
  148.3328  132.4000  151.9360 H   0  0  0  0  0  0  0  0  0  0  0  0
  147.0361  132.0976  153.0791 H   0  0  0  0  0  0  0  0  0  0  0  0
  147.8479  134.8315  152.2258 H   0  0  0  0  0  0  0  0  0  0  0  0
  143.9955  132.0677  150.0934 H   0  0  0  0  0  0  0  0  0  0  0  0
  143.2502  136.0156  151.0463 H   0  0  0  0  0  0  0  0  0  0  0  0
  144.8842  137.3412  152.3380 H   0  0  0  0  0  0  0  0  0  0  0  0
  146.5663  136.8968  152.0366 H   0  0  0  0  0  0  0  0  0  0  0  0
  145.7715  136.3955  153.5358 H   0  0  0  0  0  0  0  0  0  0  0  0
  142.6533  133.9976  150.0476 H   0  0  0  0  0  0  0  0  0  0  0  0
  1  2  1  0  0  0  0
  1 20  1  0  0  0  0
  1 21  1  0  0  0  0
  1 22  1  0  0  0  0
  2  3  1  0  0  0  0
  2 23  1  0  0  0  0
  2 24  1  0  0  0  0
  3 18  1  0  0  0  0
  3  4  1  0  0  0  0
  4  5  2  0  0  0  0
  4 25  1  0  0  0  0
  5  6  1  0  0  0  0
  5 15  1  0  0  0  0
  6  7  1  0  0  0  0
  6 26  1  0  0  0  0
  6 27  1  0  0  0  0
  7  8  1  0  0  0  0
  7 28  1  0  0  0  0
  8 13  1  0  0  0  0
  8  9  2  0  0  0  0
  9 10  1  0  0  0  0
 10 11  2  0  0  0  0
 10 29  1  0  0  0  0
 11 12  1  0  0  0  0
 11 34  1  0  0  0  0
 12 13  2  0  0  0  0
 12 30  1  0  0  0  0
 13 14  1  0  0  0  0
 14 31  1  0  0  0  0
 14 32  1  0  0  0  0
 14 33  1  0  0  0  0
 15 16  2  0  0  0  0
 15 17  1  0  0  0  0
 17 18  1  0  0  0  0
 18 19  2  0  0  0  0
M  CHG  1  11   1
M  CHG  1  17  -1
M  END
> <s_m_source_file>
AV-unprocessed.smi

> <i_m_source_file_index>
8

> <i_lp_mmshare_version>
43012

> <i_f3d_flags>
0

> <s_epik_input>
W0NIM11bQ0gyXW4xW2NIXWMoYyg9TylbbkhdYzE9TylbQ0gyXVtOSF1jMm5bY0hdbltjSF1jMltDSDNd

> <s_epik_cmdline>
J2VwaWtfcHl0aG9uJywgJy1waCcsICc3LjAnLCAnLXRuJywgJzgnLCAnLW1hJywgJzIwMCcsICctbWV0YWxfYmluZGluZycsICctaW1hZScsICc8aW5maWxlLm1hZT4nLCAnLW9tYWUnLCAnPG91dGZpbGUubWFlPic=

> <r_lp_tautomer_probability>
0.998874

> <r_epik_Ionization_Penalty>
7.33654

> <r_epik_Ionization_Penalty_Charging>
3.33717

> <r_epik_Ionization_Penalty_Neutral>
3.99937

> <r_epik_State_Penalty>
6.31594

> <r_epik_Charging_Adjusted_Penalty>
9.65311

> <i_epik_Tot_Q>
0

> <i_epik_Tot_abs_Q>
2

> <r_epik_Metal_State_Penalty>
2.94778

> <b_epik_Metal_Only>
1

> <s_lp_Force_Field>
OPLS_2005

> <r_lp_Energy>
21.5879

> <b_lp_Chiralities_Consistent>
1

> <s_lp_Variant>
AV-unprocessed.smi:8-4

> <Gold.Version>
5.8.1

> <Gold.Id.Protein>
6NUR|6NUR_protein|mol2

> <Gold.PLP.Fitness>
44.8882

> <Gold.PLP.PLP>
-31.3317

> <Gold.PLP.part.hbond>
-3.0000

> <Gold.PLP.part.metal>
0.0000

> <Gold.PLP.part.buried>
-5.0761

> <Gold.PLP.part.nonpolar>
-24.4847

> <Gold.PLP.part.repulsive>
0.2173

> <Gold.PLP.ligand.clash>
0.0000

> <Gold.PLP.ligand.torsion>
0.4890

> <Gold.PLP.Chemscore.Hbond>
3.8424

> <Gold.PLP.Chemscore.CHOScore>
1.0000

> <Gold.PLP.Chemscore.Metal>
0.0000

> <Gold.Chemscore.Hbonds>
donor molecule, donor type, donor heavy atom, donor atom, acceptor molecule, acceptor atom, score
      L1  H     7    28       P1  7948  1.00
      L1  H    11    34       P1 10186  2.00
      P1  H  6896  6909       L1    19  0.48
      L1  C     4    25       P1  7948  1.00

> <Gold.PLP.Chemscore.Internal.Correction>
0.0072

> <Gold.Rescore>
     Score         DG    S(hbond)    S(metal)    S(lipo)     H(rot)  DE(clash)    DE(int)     intcor
     14.34     -14.90       2.85        0.00      36.95       1.73       0.00       0.57       ----

> <Gold.Chemscore.Fitness>
14.3363

> <Gold.Chemscore.DG>
-14.9029

> <Gold.Chemscore.ZeroCoef>
-5.4800

> <Gold.Chemscore.Hbond>
2.8521

> <Gold.Chemscore.Metal>
0.0000

> <Gold.Chemscore.Lipo>
36.9509

> <Gold.Chemscore.Internal_Hbond>
0.0000

> <Gold.Chemscore.DEClash>
0.0000

> <Gold.Chemscore.DEInternal>
0.5665

> <Gold.Chemscore.Rot>
1.7290

> <Gold.Chemscore.Internal.Correction>
   9.000000E+99

> <Gold.Chemscore.Hbonds>
donor molecule, donor type, donor heavy atom, donor atom, acceptor molecule, acceptor atom, score
      L1  H     7    28       P1  7948  0.70
      L1  H    11    34       P1 10186  0.99
      P1  H  6896  6909       L1    19  0.46

> <Gold.Chemscore.Hbond.Weighted>
-9.5259

> <Gold.Chemscore.Metal.Weighted>
-0.0000

> <Gold.Chemscore.Lipo.Weighted>
-4.3233

> <Gold.Chemscore.Internal_Hbond.Weighted>
0.0000

> <Gold.Chemscore.DEClash.Weighted>
0.0000

> <Gold.Chemscore.DEInternal.Weighted>
0.5665

> <Gold.Chemscore.Rot.Weighted>
4.4263

> <Gold.Chemscore.Internal.Correction.Weighted>
   9.000000E+99

> <Gold.Protein.RotatedTorsions>
[ 6907 6896 6895 6894 ] final  -43.17 input  -60.11 | X-H torsion
[ 7974 7965 7964 7962 ] final -126.80 input  175.53 | X-H torsion
[ 8008 7997 7996 7995 ] final -104.29 input   59.86 | X-H torsion
[ 10167 10162 10161 10158 ] final   48.25 input  -65.29 | X-H torsion
[ 10718 10713 10712 10709 ] final   41.37 input   66.30 | X-H torsion
[ 10763 10752 10751 10750 ] final   75.95 input  -60.55 | X-H torsion
[ 11005 11000 10999 10996 ] final -137.84 input  -57.11 | X-H torsion

> <Gold.Protein.ActiveResidues>
 VAL166  LYS551  ARG553  GLY616  TRP617  ASP618  TYR619  PRO620  LYS621  CYS622 
 ASP623  PHE694  ASN695  SER759  ASP760  ASP761  ALA762  ILE779  LEU786  VAL792 
 PHE793  MET794  SER795  GLU796  ALA797  LYS798  CYS799  TRP800  GLU811  SER814 

> <Gold.Protein.RotatedAtoms>
  150.9469  134.8873  159.7647 H   0  0  0  0  0  0  0  0  0  0  0  0  # atno 6907 bound_to 6896
  152.5104  134.3861  159.9378 H   0  0  0  0  0  0  0  0  0  0  0  0  # atno 6908 bound_to 6896
  151.3879  133.3758  159.2752 H   0  0  0  0  0  0  0  0  0  0  0  0  # atno 6909 bound_to 6896
  144.9835  140.7664  143.4597 H   0  0  0  0  0  0  0  0  0  0  0  0  # atno 7974 bound_to 7965
  154.8832  140.0418  157.1794 H   0  0  0  0  0  0  0  0  0  0  0  0  # atno 8008 bound_to 7997
  154.8618  140.2945  155.5514 H   0  0  0  0  0  0  0  0  0  0  0  0  # atno 8009 bound_to 7997
  156.2998  140.2445  156.3593 H   0  0  0  0  0  0  0  0  0  0  0  0  # atno 8010 bound_to 7997
  140.2952  144.2999  150.6231 H   0  0  0  0  0  0  0  0  0  0  0  0  # atno 10167 bound_to 10162
  157.3928  130.7816  149.7283 H   0  0  0  0  0  0  0  0  0  0  0  0  # atno 10718 bound_to 10713
  153.0690  135.4970  154.8264 H   0  0  0  0  0  0  0  0  0  0  0  0  # atno 10763 bound_to 10752
  154.6996  135.2999  154.9363 H   0  0  0  0  0  0  0  0  0  0  0  0  # atno 10764 bound_to 10752
  154.0092  135.6756  153.4817 H   0  0  0  0  0  0  0  0  0  0  0  0  # atno 10765 bound_to 10752
  140.8673  134.2095  157.4672 H   0  0  0  0  0  0  0  0  0  0  0  0  # atno 11005 bound_to 11000
  145.2386  139.2082  143.5004 LP  0  0  0  0  0  0  0  0  0  0  0  0  # atno 17320 bound_to 7965
  146.3414  140.2277  142.8592 LP  0  0  0  0  0  0  0  0  0  0  0  0  # atno 17321 bound_to 7965
  140.5698  143.2182  151.7619 LP  0  0  0  0  0  0  0  0  0  0  0  0  # atno 17342 bound_to 10162
  139.4928  144.4233  151.9954 LP  0  0  0  0  0  0  0  0  0  0  0  0  # atno 17343 bound_to 10162
  155.9802  130.4031  150.3539 LP  0  0  0  0  0  0  0  0  0  0  0  0  # atno 17370 bound_to 10713
  157.1657  131.0356  151.2819 LP  0  0  0  0  0  0  0  0  0  0  0  0  # atno 17371 bound_to 10713
  139.8710  134.9757  156.4895 LP  0  0  0  0  0  0  0  0  0  0  0  0  # atno 17394 bound_to 11000
  140.8614  133.8057  155.9269 LP  0  0  0  0  0  0  0  0  0  0  0  0  # atno 17395 bound_to 11000

$$$$
