AV-unprocessed.smi:3194|AV-procd|sdf|12212|dock10
  -GOLD-   2272018 53D 1   1.00000     0.00000
 Structure written by MMmdl.
 27 27  0  0  0  0  0  0  0  0  2 V2000
  149.3315  138.3350  154.4559 C   0  0  0  0  0  0  0  0  0  0  0  0
  150.8421  138.5502  154.6289 C   0  0  2  0  0  0  0  0  0  0  0  0
  151.4421  137.5280  155.6144 C   0  0  0  0  0  0  0  0  0  0  0  0
  151.2936  136.2045  155.1380 O   0  0  0  0  0  0  0  0  0  0  0  0
  151.0683  139.9072  155.1307 N   0  5  0  0  0  0  0  0  0  0  0  0
  151.7250  140.2017  156.2903 C   0  0  0  0  0  0  0  0  0  0  0  0
  152.7214  139.6702  156.7936 O   0  0  0  0  0  0  0  0  0  0  0  0
  151.0616  141.3769  157.0392 C   0  0  0  0  0  0  0  0  0  0  0  0
  150.9911  142.4324  156.2234 F   0  0  0  0  0  0  0  0  0  0  0  0
  149.8088  141.0456  157.3686 F   0  0  0  0  0  0  0  0  0  0  0  0
  151.8658  141.7484  158.2851 C   0  0  0  0  0  0  0  0  0  0  0  0
  152.1901  140.7762  159.2596 C   0  0  0  0  0  0  0  0  0  0  0  0
  152.9495  141.1669  160.3785 C   0  0  0  0  0  0  0  0  0  0  0  0
  153.3562  142.5101  160.4876 C   0  0  0  0  0  0  0  0  0  0  0  0
  152.9846  143.4058  159.4659 C   0  0  0  0  0  0  0  0  0  0  0  0
  152.2568  143.0419  158.3891 N   0  0  0  0  0  0  0  0  0  0  0  0
  151.3034  138.3838  153.6538 H   0  0  0  0  0  0  0  0  0  0  0  0
  149.1211  137.3362  154.0728 H   0  0  0  0  0  0  0  0  0  0  0  0
  148.9100  139.0513  153.7496 H   0  0  0  0  0  0  0  0  0  0  0  0
  148.8004  138.4461  155.4021 H   0  0  0  0  0  0  0  0  0  0  0  0
  152.4998  137.7290  155.7898 H   0  0  0  0  0  0  0  0  0  0  0  0
  150.9406  137.5960  156.5799 H   0  0  0  0  0  0  0  0  0  0  0  0
  151.0833  135.6453  155.8691 H   0  0  0  0  0  0  0  0  0  0  0  0
  151.8763  139.7492  159.1460 H   0  0  0  0  0  0  0  0  0  0  0  0
  153.2179  140.4477  161.1382 H   0  0  0  0  0  0  0  0  0  0  0  0
  153.9410  142.8453  161.3310 H   0  0  0  0  0  0  0  0  0  0  0  0
  153.2798  144.4435  159.5153 H   0  0  0  0  0  0  0  0  0  0  0  0
  1  2  1  0  0  0  0
  1 18  1  0  0  0  0
  1 19  1  0  0  0  0
  1 20  1  0  0  0  0
  2 17  1  0  0  0  0
  2  3  1  0  0  0  0
  2  5  1  0  0  0  0
  3  4  1  0  0  0  0
  3 21  1  0  0  0  0
  3 22  1  0  0  0  0
  4 23  1  0  0  0  0
  5  6  1  0  0  0  0
  6  7  2  0  0  0  0
  6  8  1  0  0  0  0
  8  9  1  0  0  0  0
  8 10  1  0  0  0  0
  8 11  1  0  0  0  0
 11 16  1  0  0  0  0
 11 12  2  0  0  0  0
 12 13  1  0  0  0  0
 12 24  1  0  0  0  0
 13 14  2  0  0  0  0
 13 25  1  0  0  0  0
 14 15  1  0  0  0  0
 14 26  1  0  0  0  0
 15 16  2  0  0  0  0
 15 27  1  0  0  0  0
M  CHG  1   5  -1
M  END
> <s_m_source_file>
AV-unprocessed.smi

> <i_m_source_file_index>
3194

> <i_lp_mmshare_version>
43012

> <i_f3d_flags>
0

> <s_epik_input>
W09IXVtDSDJdW0NASF0oW0NIM10pW05IXUMoPU8pQyhGKShGKWMxW2NIXVtjSF1bY0hdW2NIXW4x

> <s_epik_cmdline>
J2VwaWtfcHl0aG9uJywgJy1waCcsICc3LjAnLCAnLXRuJywgJzgnLCAnLW1hJywgJzIwMCcsICctbWV0YWxfYmluZGluZycsICctaW1hZScsICc8aW5maWxlLm1hZT4nLCAnLW9tYWUnLCAnPG91dGZpbGUubWFlPic=

> <r_lp_tautomer_probability>
1

> <r_epik_Ionization_Penalty>
5.78943

> <r_epik_Ionization_Penalty_Charging>
5.78942

> <r_epik_Ionization_Penalty_Neutral>
4.0054e-06

> <r_epik_State_Penalty>
5.78939

> <r_epik_Charging_Adjusted_Penalty>
11.5788

> <i_epik_Tot_Q>
-1

> <i_epik_Tot_abs_Q>
1

> <r_epik_Metal_State_Penalty>
1.76064

> <b_epik_Metal_Only>
1

> <s_lp_Force_Field>
OPLS_2005

> <r_lp_Energy>
16.8834

> <b_lp_Chiralities_Consistent>
1

> <s_lp_Variant>
AV-unprocessed.smi:3194-4

> <Gold.Version>
5.8.1

> <Gold.Id.Protein>
6NUR|6NUR_protein|mol2

> <Gold.PLP.Fitness>
40.7037

> <Gold.PLP.PLP>
-32.5473

> <Gold.PLP.part.hbond>
-3.0000

> <Gold.PLP.part.metal>
0.0000

> <Gold.PLP.part.buried>
-3.1903

> <Gold.PLP.part.nonpolar>
-24.9943

> <Gold.PLP.part.repulsive>
0.0629

> <Gold.PLP.ligand.clash>
0.0000

> <Gold.PLP.ligand.torsion>
0.4431

> <Gold.PLP.Chemscore.Hbond>
3.0000

> <Gold.PLP.Chemscore.CHOScore>
0.0000

> <Gold.PLP.Chemscore.Metal>
0.0000

> <Gold.Chemscore.Hbonds>
donor molecule, donor type, donor heavy atom, donor atom, acceptor molecule, acceptor atom, score
      P1  H  7989  7998       L1     5  1.00
      P1  H  7997  8009       L1     7  1.00
      P1  H 10752 10765       L1     4  1.00

> <Gold.PLP.Chemscore.Internal.Correction>
0.0426

> <Gold.Rescore>
     Score         DG    S(hbond)    S(metal)    S(lipo)     H(rot)  DE(clash)    DE(int)     intcor
     12.86     -16.91       2.56        0.00      77.65       2.43       0.65       3.40       ----

> <Gold.Chemscore.Fitness>
12.8647

> <Gold.Chemscore.DG>
-16.9106

> <Gold.Chemscore.ZeroCoef>
-5.4800

> <Gold.Chemscore.Hbond>
2.5630

> <Gold.Chemscore.Metal>
0.0000

> <Gold.Chemscore.Lipo>
77.6505

> <Gold.Chemscore.Internal_Hbond>
0.0000

> <Gold.Chemscore.DEClash>
0.6455

> <Gold.Chemscore.DEInternal>
3.4005

> <Gold.Chemscore.Rot>
2.4277

> <Gold.Chemscore.Internal.Correction>
   9.000000E+99

> <Gold.Chemscore.Hbonds>
donor molecule, donor type, donor heavy atom, donor atom, acceptor molecule, acceptor atom, score
      P1  H  7989  7998       L1     5  0.32
      P1  H  7997  8009       L1     7  0.99
      P1  H 10752 10765       L1     4  0.45

> <Gold.Chemscore.Hbond.Weighted>
-8.5604

> <Gold.Chemscore.Metal.Weighted>
-0.0000

> <Gold.Chemscore.Lipo.Weighted>
-9.0851

> <Gold.Chemscore.Internal_Hbond.Weighted>
0.0000

> <Gold.Chemscore.DEClash.Weighted>
0.6455

> <Gold.Chemscore.DEInternal.Weighted>
3.4005

> <Gold.Chemscore.Rot.Weighted>
6.2149

> <Gold.Chemscore.Internal.Correction.Weighted>
   9.000000E+99

> <Gold.Protein.RotatedTorsions>
[ 6907 6896 6895 6894 ] final  -78.39 input  -60.11 | X-H torsion
[ 7974 7965 7964 7962 ] final   13.17 input  175.53 | X-H torsion
[ 8008 7997 7996 7995 ] final  172.37 input   59.86 | X-H torsion
[ 10167 10162 10161 10158 ] final -153.33 input  -65.29 | X-H torsion
[ 10718 10713 10712 10709 ] final -163.66 input   66.30 | X-H torsion
[ 10763 10752 10751 10750 ] final  169.14 input  -60.55 | X-H torsion
[ 11005 11000 10999 10996 ] final -120.86 input  -57.11 | X-H torsion

> <Gold.Protein.ActiveResidues>
 VAL166  LYS551  ARG553  GLY616  TRP617  ASP618  TYR619  PRO620  LYS621  CYS622 
 ASP623  PHE694  ASN695  SER759  ASP760  ASP761  ALA762  ILE779  LEU786  VAL792 
 PHE793  MET794  SER795  GLU796  ALA797  LYS798  CYS799  TRP800  GLU811  SER814 

> <Gold.Protein.RotatedAtoms>
  150.6974  134.4280  159.5234 H   0  0  0  0  0  0  0  0  0  0  0  0  # atno 6907 bound_to 6896
  152.2011  134.8584  160.0517 H   0  0  0  0  0  0  0  0  0  0  0  0  # atno 6908 bound_to 6896
  151.9504  133.3629  159.4034 H   0  0  0  0  0  0  0  0  0  0  0  0  # atno 6909 bound_to 6896
  146.2335  139.9228  142.8507 H   0  0  0  0  0  0  0  0  0  0  0  0  # atno 7974 bound_to 7965
  156.1181  140.1487  156.9244 H   0  0  0  0  0  0  0  0  0  0  0  0  # atno 8008 bound_to 7997
  154.4815  140.0878  156.7431 H   0  0  0  0  0  0  0  0  0  0  0  0  # atno 8009 bound_to 7997
  155.4478  140.3433  155.4299 H   0  0  0  0  0  0  0  0  0  0  0  0  # atno 8010 bound_to 7997
  139.7106  143.9115  152.2466 H   0  0  0  0  0  0  0  0  0  0  0  0  # atno 10167 bound_to 10162
  156.6278  130.8917  151.2971 H   0  0  0  0  0  0  0  0  0  0  0  0  # atno 10718 bound_to 10713
  154.3788  135.2753  155.2223 H   0  0  0  0  0  0  0  0  0  0  0  0  # atno 10763 bound_to 10752
  154.4339  135.5970  153.6090 H   0  0  0  0  0  0  0  0  0  0  0  0  # atno 10764 bound_to 10752
  152.9835  135.6002  154.4028 H   0  0  0  0  0  0  0  0  0  0  0  0  # atno 10765 bound_to 10752
  141.0112  134.0261  157.3410 H   0  0  0  0  0  0  0  0  0  0  0  0  # atno 11005 bound_to 11000
  145.2119  140.9899  143.4095 LP  0  0  0  0  0  0  0  0  0  0  0  0  # atno 17320 bound_to 7965
  144.9683  139.3906  143.6321 LP  0  0  0  0  0  0  0  0  0  0  0  0  # atno 17321 bound_to 7965
  139.8983  144.6926  150.8694 LP  0  0  0  0  0  0  0  0  0  0  0  0  # atno 17342 bound_to 10162
  140.7732  143.3533  151.1970 LP  0  0  0  0  0  0  0  0  0  0  0  0  # atno 17343 bound_to 10162
  157.7209  130.9557  150.1434 LP  0  0  0  0  0  0  0  0  0  0  0  0  # atno 17370 bound_to 10713
  156.2259  130.3678  149.8501 LP  0  0  0  0  0  0  0  0  0  0  0  0  # atno 17371 bound_to 10713
  139.9091  135.0186  156.7615 LP  0  0  0  0  0  0  0  0  0  0  0  0  # atno 17394 bound_to 11000
  140.6730  133.9543  155.7867 LP  0  0  0  0  0  0  0  0  0  0  0  0  # atno 17395 bound_to 11000

$$$$
