AV-unprocessed.smi:1305|AV-procd|sdf|5433|dock1
  -GOLD-   22720 4593D 1   1.00000     0.00000
 Structure written by MMmdl.
 32 33  0  0  0  0  0  0  0  0  1 V2000
  155.4141  143.1286  166.8174 C   0  0  0  0  0  0  0  0  0  0  0  0
  155.3257  142.1647  165.6295 C   0  0  0  0  0  0  0  0  0  0  0  0
  154.4852  142.7276  164.4770 C   0  0  0  0  0  0  0  0  0  0  0  0
  154.2777  141.5037  163.1500 S   0  0  0  0  0  0  0  0  0  0  0  0
  153.3437  142.4546  161.9849 C   0  0  0  0  0  0  0  0  0  0  0  0
  152.4183  143.3608  162.3159 N   0  0  0  0  0  0  0  0  0  0  0  0
  151.9285  143.8481  161.1263 N   0  0  0  0  0  0  0  0  0  0  0  0
  152.6124  143.2100  160.1750 C   0  0  0  0  0  0  0  0  0  0  0  0
  152.3720  143.4107  158.7118 C   0  0  0  0  0  0  0  0  0  0  0  0
  152.7455  144.7090  158.0314 C   0  0  0  0  0  0  0  0  0  0  0  0
  151.2946  144.3489  158.2115 C   0  0  0  0  0  0  0  0  0  0  0  0
  153.5036  142.3152  160.6507 N   0  0  0  0  0  0  0  0  0  0  0  0
  154.3953  141.4261  159.9132 C   0  0  0  0  0  0  0  0  0  0  0  0
  153.7230  140.0953  159.5634 C   0  0  0  0  0  0  0  0  0  0  0  0
  153.5397  139.2161  160.5520 N   0  0  0  0  0  0  0  0  0  0  0  0
  153.3603  139.8683  158.4115 O   0  0  0  0  0  0  0  0  0  0  0  0
  156.0142  142.7012  167.6209 H   0  0  0  0  0  0  0  0  0  0  0  0
  154.4254  143.3477  167.2211 H   0  0  0  0  0  0  0  0  0  0  0  0
  155.8737  144.0728  166.5247 H   0  0  0  0  0  0  0  0  0  0  0  0
  156.3317  141.9409  165.2731 H   0  0  0  0  0  0  0  0  0  0  0  0
  154.8986  141.2190  165.9648 H   0  0  0  0  0  0  0  0  0  0  0  0
  153.5027  143.0248  164.8451 H   0  0  0  0  0  0  0  0  0  0  0  0
  154.9649  143.6171  164.0672 H   0  0  0  0  0  0  0  0  0  0  0  0
  152.5293  142.4830  158.1651 H   0  0  0  0  0  0  0  0  0  0  0  0
  153.1382  145.5132  158.6502 H   0  0  0  0  0  0  0  0  0  0  0  0
  153.1620  144.6460  157.0282 H   0  0  0  0  0  0  0  0  0  0  0  0
  150.7382  144.0472  157.3268 H   0  0  0  0  0  0  0  0  0  0  0  0
  150.7279  144.9160  158.9473 H   0  0  0  0  0  0  0  0  0  0  0  0
  154.7336  141.9191  159.0018 H   0  0  0  0  0  0  0  0  0  0  0  0
  155.2884  141.2429  160.5119 H   0  0  0  0  0  0  0  0  0  0  0  0
  153.0997  138.3270  160.3624 H   0  0  0  0  0  0  0  0  0  0  0  0
  153.8423  139.4444  161.4878 H   0  0  0  0  0  0  0  0  0  0  0  0
  1  2  1  0  0  0  0
  1 17  1  0  0  0  0
  1 18  1  0  0  0  0
  1 19  1  0  0  0  0
  2  3  1  0  0  0  0
  2 20  1  0  0  0  0
  2 21  1  0  0  0  0
  3  4  1  0  0  0  0
  3 22  1  0  0  0  0
  3 23  1  0  0  0  0
  4  5  1  0  0  0  0
  5 12  1  0  0  0  0
  5  6  2  0  0  0  0
  6  7  1  0  0  0  0
  7  8  2  0  0  0  0
  8  9  1  0  0  0  0
  8 12  1  0  0  0  0
  9 11  1  0  0  0  0
  9 10  1  0  0  0  0
  9 24  1  0  0  0  0
 10 11  1  0  0  0  0
 10 25  1  0  0  0  0
 10 26  1  0  0  0  0
 11 27  1  0  0  0  0
 11 28  1  0  0  0  0
 12 13  1  0  0  0  0
 13 14  1  0  0  0  0
 13 29  1  0  0  0  0
 13 30  1  0  0  0  0
 14 15  1  0  0  0  0
 14 16  2  0  0  0  0
 15 31  1  0  0  0  0
 15 32  1  0  0  0  0
M  END
> <s_m_source_file>
AV-unprocessed.smi

> <i_m_source_file_index>
1305

> <i_lp_mmshare_version>
43012

> <i_f3d_flags>
0

> <s_epik_input>
W0NIM11bQ0gyXVtDSDJdU2Mxbm5jKFtDSF0yW0NIMl1bQ0gyXTIpbjFbQ0gyXUMoPU8pW05IMl0=

> <s_epik_cmdline>
J2VwaWtfcHl0aG9uJywgJy1waCcsICc3LjAnLCAnLXRuJywgJzgnLCAnLW1hJywgJzIwMCcsICctbWV0YWxfYmluZGluZycsICctaW1hZScsICc8aW5maWxlLm1hZT4nLCAnLW9tYWUnLCAnPG91dGZpbGUubWFlPic=

> <r_lp_tautomer_probability>
1

> <r_epik_Ionization_Penalty>
4.21319e-06

> <r_epik_Ionization_Penalty_Charging>
0

> <r_epik_Ionization_Penalty_Neutral>
4.21319e-06

> <r_epik_State_Penalty>
-0

> <r_epik_Charging_Adjusted_Penalty>
0

> <i_epik_Tot_Q>
0

> <i_epik_Tot_abs_Q>
0

> <r_epik_Metal_State_Penalty>
-0

> <b_epik_Metal_Only>
0

> <s_lp_Force_Field>
OPLS_2005

> <r_lp_Energy>
5.08374

> <b_lp_Chiralities_Consistent>
1

> <s_lp_Variant>
AV-unprocessed.smi:1305-1

> <Gold.Version>
5.8.1

> <Gold.Id.Protein>
6NUR|6NUR_protein|mol2

> <Gold.PLP.Fitness>
41.6721

> <Gold.PLP.PLP>
-40.3436

> <Gold.PLP.part.hbond>
-1.0000

> <Gold.PLP.part.metal>
0.0000

> <Gold.PLP.part.buried>
-2.6843

> <Gold.PLP.part.nonpolar>
-34.7525

> <Gold.PLP.part.repulsive>
0.3382

> <Gold.PLP.ligand.clash>
0.0000

> <Gold.PLP.ligand.torsion>
0.9711

> <Gold.PLP.Chemscore.Hbond>
1.0000

> <Gold.PLP.Chemscore.CHOScore>
0.0000

> <Gold.PLP.Chemscore.Metal>
0.0000

> <Gold.Chemscore.Hbonds>
donor molecule, donor type, donor heavy atom, donor atom, acceptor molecule, acceptor atom, score
      P1  H  7997  8010       L1    16  1.00

> <Gold.PLP.Chemscore.Internal.Correction>
0.2708

> <Gold.Rescore>
     Score         DG    S(hbond)    S(metal)    S(lipo)     H(rot)  DE(clash)    DE(int)     intcor
     11.21     -12.31       0.99        0.00      86.36       2.57       0.21       0.88       ----

> <Gold.Chemscore.Fitness>
11.2145

> <Gold.Chemscore.DG>
-12.3081

> <Gold.Chemscore.ZeroCoef>
-5.4800

> <Gold.Chemscore.Hbond>
0.9884

> <Gold.Chemscore.Metal>
0.0000

> <Gold.Chemscore.Lipo>
86.3573

> <Gold.Chemscore.Internal_Hbond>
0.0000

> <Gold.Chemscore.DEClash>
0.2107

> <Gold.Chemscore.DEInternal>
0.8829

> <Gold.Chemscore.Rot>
2.5691

> <Gold.Chemscore.Internal.Correction>
   9.000000E+99

> <Gold.Chemscore.Hbonds>
donor molecule, donor type, donor heavy atom, donor atom, acceptor molecule, acceptor atom, score
      P1  H  7997  8010       L1    16  0.95

> <Gold.Chemscore.Hbond.Weighted>
-3.3013

> <Gold.Chemscore.Metal.Weighted>
-0.0000

> <Gold.Chemscore.Lipo.Weighted>
-10.1038

> <Gold.Chemscore.Internal_Hbond.Weighted>
0.0000

> <Gold.Chemscore.DEClash.Weighted>
0.2107

> <Gold.Chemscore.DEInternal.Weighted>
0.8829

> <Gold.Chemscore.Rot.Weighted>
6.5770

> <Gold.Chemscore.Internal.Correction.Weighted>
   9.000000E+99

> <Gold.Protein.RotatedTorsions>
[ 6907 6896 6895 6894 ] final  103.52 input  -60.11 | X-H torsion
[ 7974 7965 7964 7962 ] final   40.41 input  175.53 | X-H torsion
[ 8008 7997 7996 7995 ] final   41.73 input   59.86 | X-H torsion
[ 10167 10162 10161 10158 ] final -131.86 input  -65.29 | X-H torsion
[ 10718 10713 10712 10709 ] final  -54.11 input   66.30 | X-H torsion
[ 10763 10752 10751 10750 ] final -115.30 input  -60.55 | X-H torsion
[ 11005 11000 10999 10996 ] final -122.29 input  -57.11 | X-H torsion

> <Gold.Protein.ActiveResidues>
 VAL166  LYS551  ARG553  GLY616  TRP617  ASP618  TYR619  PRO620  LYS621  CYS622 
 ASP623  PHE694  ASN695  SER759  ASP760  ASP761  ALA762  ILE779  LEU786  VAL792 
 PHE793  MET794  SER795  GLU796  ALA797  LYS798  CYS799  TRP800  GLU811  SER814 

> <Gold.Protein.RotatedAtoms>
  152.5293  133.9814  159.7807 H   0  0  0  0  0  0  0  0  0  0  0  0  # atno 6907 bound_to 6896
  151.0067  133.5996  159.2695 H   0  0  0  0  0  0  0  0  0  0  0  0  # atno 6908 bound_to 6896
  151.3086  135.0794  159.9317 H   0  0  0  0  0  0  0  0  0  0  0  0  # atno 6909 bound_to 6896
  146.0907  139.5536  142.9478 H   0  0  0  0  0  0  0  0  0  0  0  0  # atno 7974 bound_to 7965
  155.2745  140.3368  155.4263 H   0  0  0  0  0  0  0  0  0  0  0  0  # atno 8008 bound_to 7997
  156.2118  140.1773  156.7720 H   0  0  0  0  0  0  0  0  0  0  0  0  # atno 8009 bound_to 7997
  154.5697  140.0672  156.8929 H   0  0  0  0  0  0  0  0  0  0  0  0  # atno 8010 bound_to 7997
  139.9145  143.6455  152.2568 H   0  0  0  0  0  0  0  0  0  0  0  0  # atno 10167 bound_to 10162
  156.1478  130.4152  149.9995 H   0  0  0  0  0  0  0  0  0  0  0  0  # atno 10718 bound_to 10713
  154.8476  135.4386  154.1642 H   0  0  0  0  0  0  0  0  0  0  0  0  # atno 10763 bound_to 10752
  153.2771  135.6950  153.7428 H   0  0  0  0  0  0  0  0  0  0  0  0  # atno 10764 bound_to 10752
  153.6646  135.3429  155.3112 H   0  0  0  0  0  0  0  0  0  0  0  0  # atno 10765 bound_to 10752
  141.0006  134.0408  157.3542 H   0  0  0  0  0  0  0  0  0  0  0  0  # atno 11005 bound_to 11000
  145.6044  141.0350  143.2000 LP  0  0  0  0  0  0  0  0  0  0  0  0  # atno 17320 bound_to 7965
  144.7358  139.7590  143.7330 LP  0  0  0  0  0  0  0  0  0  0  0  0  # atno 17321 bound_to 7965
  139.6914  144.7646  151.1432 LP  0  0  0  0  0  0  0  0  0  0  0  0  # atno 17342 bound_to 10162
  140.7677  143.5584  150.9126 LP  0  0  0  0  0  0  0  0  0  0  0  0  # atno 17343 bound_to 10162
  156.7861  130.9239  151.3646 LP  0  0  0  0  0  0  0  0  0  0  0  0  # atno 17370 bound_to 10713
  157.6631  130.8984  149.9873 LP  0  0  0  0  0  0  0  0  0  0  0  0  # atno 17371 bound_to 10713
  139.9037  135.0173  156.7387 LP  0  0  0  0  0  0  0  0  0  0  0  0  # atno 17394 bound_to 11000
  140.6895  133.9403  155.7958 LP  0  0  0  0  0  0  0  0  0  0  0  0  # atno 17395 bound_to 11000

$$$$
