AV-unprocessed.smi:2176|AV-procd|sdf|8847|dock9
  -GOLD-   2272012 43D 1   1.00000     0.00000
 Structure written by MMmdl.
 28 29  0  0  0  0  0  0  0  0  2 V2000
  153.2809  140.4919  158.6902 O   0  0  0  0  0  0  0  0  0  0  0  0
  152.1463  140.8895  158.9579 C   0  0  0  0  0  0  0  0  0  0  0  0
  150.9178  140.0649  158.5525 C   0  0  0  0  0  0  0  0  0  0  0  0
  150.4687  140.3646  157.1838 N   0  0  0  0  0  0  0  0  0  0  0  0
  149.1800  140.9018  157.0180 C   0  0  0  0  0  0  0  0  0  0  0  0
  148.6907  141.2115  155.8021 C   0  0  0  0  0  0  0  0  0  0  0  0
  149.5347  140.9755  154.6374 C   0  0  0  0  0  0  0  0  0  0  0  0
  149.1023  141.2476  153.5192 O   0  0  0  0  0  0  0  0  0  0  0  0
  150.7792  140.4566  154.8504 N   0  5  0  0  0  0  0  0  0  0  0  0
  151.2649  140.1490  156.0931 C   0  0  0  0  0  0  0  0  0  0  0  0
  152.3926  139.6836  156.2630 O   0  0  0  0  0  0  0  0  0  0  0  0
  151.9023  142.0511  159.5806 N   0  0  0  0  0  0  0  0  0  0  0  0
  152.9291  142.9654  160.0577 C   0  0  0  0  0  0  0  0  0  0  0  0
  152.5031  144.4183  160.0623 C   0  0  0  0  0  0  0  0  0  0  0  0
  151.0864  144.8048  159.7078 C   0  0  0  0  0  0  0  0  0  0  0  0
  152.2196  145.1469  158.7697 C   0  0  0  0  0  0  0  0  0  0  0  0
  151.1281  138.9983  158.6543 H   0  0  0  0  0  0  0  0  0  0  0  0
  150.1213  140.2685  159.2692 H   0  0  0  0  0  0  0  0  0  0  0  0
  148.6231  141.0516  157.9312 H   0  0  0  0  0  0  0  0  0  0  0  0
  147.6999  141.6270  155.6919 H   0  0  0  0  0  0  0  0  0  0  0  0
  150.9412  142.3031  159.7602 H   0  0  0  0  0  0  0  0  0  0  0  0
  153.2371  142.6826  161.0660 H   0  0  0  0  0  0  0  0  0  0  0  0
  153.8079  142.8656  159.4193 H   0  0  0  0  0  0  0  0  0  0  0  0
  152.9638  145.0070  160.8538 H   0  0  0  0  0  0  0  0  0  0  0  0
  150.4052  144.0126  159.4032 H   0  0  0  0  0  0  0  0  0  0  0  0
  150.6328  145.6209  160.2665 H   0  0  0  0  0  0  0  0  0  0  0  0
  152.5251  146.1891  158.7055 H   0  0  0  0  0  0  0  0  0  0  0  0
  152.2935  144.5816  157.8427 H   0  0  0  0  0  0  0  0  0  0  0  0
  1  2  2  0  0  0  0
  2  3  1  0  0  0  0
  2 12  1  0  0  0  0
  3  4  1  0  0  0  0
  3 17  1  0  0  0  0
  3 18  1  0  0  0  0
  4 10  1  0  0  0  0
  4  5  1  0  0  0  0
  5  6  2  0  0  0  0
  5 19  1  0  0  0  0
  6  7  1  0  0  0  0
  6 20  1  0  0  0  0
  7  8  2  0  0  0  0
  7  9  1  0  0  0  0
  9 10  1  0  0  0  0
 10 11  2  0  0  0  0
 12 13  1  0  0  0  0
 12 21  1  0  0  0  0
 13 14  1  0  0  0  0
 13 22  1  0  0  0  0
 13 23  1  0  0  0  0
 14 16  1  0  0  0  0
 14 15  1  0  0  0  0
 14 24  1  0  0  0  0
 15 16  1  0  0  0  0
 15 25  1  0  0  0  0
 15 26  1  0  0  0  0
 16 27  1  0  0  0  0
 16 28  1  0  0  0  0
M  CHG  1   9  -1
M  END
> <s_m_source_file>
AV-unprocessed.smi

> <i_m_source_file_index>
2176

> <i_lp_mmshare_version>
43012

> <i_f3d_flags>
0

> <s_epik_input>
W0NIMl0xW0NIMl1bQ0hdMVtDSDJdW05IXUMoPU8pW0NIMl1uMltjSF1bY0hdYyg9TylbbkhdYzI9Tw==

> <s_epik_cmdline>
J2VwaWtfcHl0aG9uJywgJy1waCcsICc3LjAnLCAnLXRuJywgJzgnLCAnLW1hJywgJzIwMCcsICctbWV0YWxfYmluZGluZycsICctaW1hZScsICc8aW5maWxlLm1hZT4nLCAnLW9tYWUnLCAnPG91dGZpbGUubWFlPic=

> <r_lp_tautomer_probability>
0.999537

> <r_epik_Ionization_Penalty>
3.07884

> <r_epik_Ionization_Penalty_Charging>
2.64713e-08

> <r_epik_Ionization_Penalty_Neutral>
3.07884

> <r_epik_State_Penalty>
3.07787

> <r_epik_Charging_Adjusted_Penalty>
3.07787

> <i_epik_Tot_Q>
-1

> <i_epik_Tot_abs_Q>
1

> <r_epik_Metal_State_Penalty>
0.459857

> <b_epik_Metal_Only>
1

> <s_lp_Force_Field>
OPLS_2005

> <r_lp_Energy>
21.5126

> <b_lp_Chiralities_Consistent>
1

> <s_lp_Variant>
AV-unprocessed.smi:2176-2

> <Gold.Version>
5.8.1

> <Gold.Id.Protein>
6NUR|6NUR_protein|mol2

> <Gold.PLP.Fitness>
39.1995

> <Gold.PLP.PLP>
-31.7451

> <Gold.PLP.part.hbond>
-4.9397

> <Gold.PLP.part.metal>
0.0000

> <Gold.PLP.part.buried>
-4.3409

> <Gold.PLP.part.nonpolar>
-24.0559

> <Gold.PLP.part.repulsive>
2.7579

> <Gold.PLP.ligand.clash>
0.0000

> <Gold.PLP.ligand.torsion>
0.9354

> <Gold.PLP.Chemscore.Hbond>
2.9280

> <Gold.PLP.Chemscore.CHOScore>
0.0000

> <Gold.PLP.Chemscore.Metal>
0.0000

> <Gold.Chemscore.Hbonds>
donor molecule, donor type, donor heavy atom, donor atom, acceptor molecule, acceptor atom, score
      P1  H  7989  7998       L1     9  1.00
      P1  H  7997  8008       L1    11  1.00
      P1  H  8011  8017       L1     8  0.96

> <Gold.PLP.Chemscore.Internal.Correction>
0.5411

> <Gold.Rescore>
     Score         DG    S(hbond)    S(metal)    S(lipo)     H(rot)  DE(clash)    DE(int)     intcor
     11.48     -16.51       2.64        0.00      62.51       1.99       1.38       3.64       ----

> <Gold.Chemscore.Fitness>
11.4824

> <Gold.Chemscore.DG>
-16.5054

> <Gold.Chemscore.ZeroCoef>
-5.4800

> <Gold.Chemscore.Hbond>
2.6362

> <Gold.Chemscore.Metal>
0.0000

> <Gold.Chemscore.Lipo>
62.5080

> <Gold.Chemscore.Internal_Hbond>
0.0000

> <Gold.Chemscore.DEClash>
1.3821

> <Gold.Chemscore.DEInternal>
3.6409

> <Gold.Chemscore.Rot>
1.9895

> <Gold.Chemscore.Internal.Correction>
   9.000000E+99

> <Gold.Chemscore.Hbonds>
donor molecule, donor type, donor heavy atom, donor atom, acceptor molecule, acceptor atom, score
      P1  H  7989  7998       L1     9  0.44
      P1  H  7997  8008       L1    11  0.94
      P1  H  8011  8017       L1     8  0.92

> <Gold.Chemscore.Hbond.Weighted>
-8.8051

> <Gold.Chemscore.Metal.Weighted>
-0.0000

> <Gold.Chemscore.Lipo.Weighted>
-7.3134

> <Gold.Chemscore.Internal_Hbond.Weighted>
0.0000

> <Gold.Chemscore.DEClash.Weighted>
1.3821

> <Gold.Chemscore.DEInternal.Weighted>
3.6409

> <Gold.Chemscore.Rot.Weighted>
5.0931

> <Gold.Chemscore.Internal.Correction.Weighted>
   9.000000E+99

> <Gold.Protein.RotatedTorsions>
[ 6907 6896 6895 6894 ] final  -31.23 input  -60.11 | X-H torsion
[ 7974 7965 7964 7962 ] final -153.09 input  175.53 | X-H torsion
[ 8008 7997 7996 7995 ] final  -31.72 input   59.86 | X-H torsion
[ 10167 10162 10161 10158 ] final  -96.04 input  -65.29 | X-H torsion
[ 10718 10713 10712 10709 ] final -120.01 input   66.30 | X-H torsion
[ 10763 10752 10751 10750 ] final   56.88 input  -60.55 | X-H torsion
[ 11005 11000 10999 10996 ] final -125.21 input  -57.11 | X-H torsion

> <Gold.Protein.ActiveResidues>
 VAL166  LYS551  ARG553  GLY616  TRP617  ASP618  TYR619  PRO620  LYS621  CYS622 
 ASP623  PHE694  ASN695  SER759  ASP760  ASP761  ALA762  ILE779  LEU786  VAL792 
 PHE793  MET794  SER795  GLU796  ALA797  LYS798  CYS799  TRP800  GLU811  SER814 

> <Gold.Protein.RotatedAtoms>
  151.0949  134.9938  159.8420 H   0  0  0  0  0  0  0  0  0  0  0  0  # atno 6907 bound_to 6896
  152.5432  134.2021  159.8726 H   0  0  0  0  0  0  0  0  0  0  0  0  # atno 6908 bound_to 6896
  151.2060  133.4539  159.2630 H   0  0  0  0  0  0  0  0  0  0  0  0  # atno 6909 bound_to 6896
  144.7759  140.4573  143.5874 H   0  0  0  0  0  0  0  0  0  0  0  0  # atno 7974 bound_to 7965
  154.4204  140.1756  156.1613 H   0  0  0  0  0  0  0  0  0  0  0  0  # atno 8008 bound_to 7997
  155.9836  140.3375  155.6662 H   0  0  0  0  0  0  0  0  0  0  0  0  # atno 8009 bound_to 7997
  155.6467  140.0686  157.2591 H   0  0  0  0  0  0  0  0  0  0  0  0  # atno 8010 bound_to 7997
  140.2979  143.3181  152.0279 H   0  0  0  0  0  0  0  0  0  0  0  0  # atno 10167 bound_to 10162
  156.1225  130.6334  150.9487 H   0  0  0  0  0  0  0  0  0  0  0  0  # atno 10718 bound_to 10713
  152.9839  135.5661  154.5300 H   0  0  0  0  0  0  0  0  0  0  0  0  # atno 10763 bound_to 10752
  154.4773  135.2787  155.1599 H   0  0  0  0  0  0  0  0  0  0  0  0  # atno 10764 bound_to 10752
  154.3122  135.6286  153.5524 H   0  0  0  0  0  0  0  0  0  0  0  0  # atno 10765 bound_to 10752
  140.9780  134.0713  157.3796 H   0  0  0  0  0  0  0  0  0  0  0  0  # atno 11005 bound_to 11000
  145.6188  139.1521  143.3034 LP  0  0  0  0  0  0  0  0  0  0  0  0  # atno 17320 bound_to 7965
  146.1938  140.6300  142.9133 LP  0  0  0  0  0  0  0  0  0  0  0  0  # atno 17321 bound_to 7965
  139.4922  144.6477  151.6742 LP  0  0  0  0  0  0  0  0  0  0  0  0  # atno 17342 bound_to 10162
  140.5676  144.0163  150.6200 LP  0  0  0  0  0  0  0  0  0  0  0  0  # atno 17343 bound_to 10162
  157.6408  131.0910  150.8255 LP  0  0  0  0  0  0  0  0  0  0  0  0  # atno 17370 bound_to 10713
  156.8350  130.5029  149.5327 LP  0  0  0  0  0  0  0  0  0  0  0  0  # atno 17371 bound_to 10713
  139.8938  135.0132  156.6920 LP  0  0  0  0  0  0  0  0  0  0  0  0  # atno 17394 bound_to 11000
  140.7229  133.9125  155.8159 LP  0  0  0  0  0  0  0  0  0  0  0  0  # atno 17395 bound_to 11000

$$$$
