AV-unprocessed.smi:21|AV-procd|sdf|148|dock7
  -GOLD-   2262015363D 1   1.00000     0.00000
 Structure written by MMmdl.
 62 65  0  0  0  0  0  0  0  0  2 V2000
  144.9297  130.6149  151.5186 C   0  0  0  0  0  0  0  0  0  0  0  0
  145.2370  131.7745  152.2765 O   0  0  0  0  0  0  0  0  0  0  0  0
  145.0463  132.9925  151.5683 C   0  0  2  0  0  0  0  0  0  0  0  0
  145.6820  134.1779  152.2956 C   0  0  0  0  0  0  0  0  0  0  0  0
  144.6480  134.6062  153.3528 C   0  0  2  0  0  0  0  0  0  0  0  0
  144.9883  134.1346  154.7826 C   0  0  0  0  0  0  0  0  0  0  0  0
  146.3060  134.5822  155.2395 N   0  0  0  0  0  0  0  0  0  0  0  0
  147.2253  133.6051  155.8112 C   0  0  0  0  0  0  0  0  0  0  0  0
  146.7004  135.8754  155.0529 C   0  0  0  0  0  0  0  0  0  0  0  0
  145.7438  136.8113  154.8054 N   0  0  0  0  0  0  0  0  0  0  0  0
  146.0689  138.0908  154.6063 C   0  0  0  0  0  0  0  0  0  0  0  0
  147.2776  138.6508  154.6033 N   0  0  0  0  0  0  0  0  0  0  0  0
  148.2490  137.7266  154.8474 C   0  0  0  0  0  0  0  0  0  0  0  0
  148.0543  136.3339  155.0856 C   0  0  0  0  0  0  0  0  0  0  0  0
  149.2905  135.7267  155.2876 N   0  0  0  0  0  0  0  0  0  0  0  0
  150.1565  136.6952  155.1745 C   0  0  0  0  0  0  0  0  0  0  0  0
  149.6177  137.9272  154.8884 N   0  0  0  0  0  0  0  0  0  0  0  0
  150.3467  139.1697  154.7041 C   0  0  0  0  0  0  0  0  0  0  0  0
  149.7806  140.3712  155.5059 C   0  0  2  0  0  0  0  0  0  0  0  0
  149.1039  141.3375  154.5026 C   0  0  0  0  0  0  0  0  0  0  0  0
  148.3401  140.6462  153.5360 O   0  0  0  0  0  0  0  0  0  0  0  0
  150.8607  141.0852  156.3771 C   0  0  1  0  0  0  0  0  0  0  0  0
  150.3379  142.1536  157.3253 C   0  0  0  0  0  0  0  0  0  0  0  0
  151.4937  142.3148  158.3005 C   0  0  0  0  0  0  0  0  0  0  0  0
  151.9651  140.9919  158.4973 O   0  0  0  0  0  0  0  0  0  0  0  0
  151.6291  140.1920  157.3669 C   0  0  0  0  0  0  0  0  0  0  0  0
  143.3604  134.0060  152.9277 N   0  3  1  0  0  0  0  0  0  0  0  0
  142.2079  134.9310  152.9655 C   0  0  0  0  0  0  0  0  0  0  0  0
  143.5617  133.3423  151.6230 C   0  0  0  0  0  0  0  0  0  0  0  0
  145.3899  132.8979  150.5368 H   0  0  0  0  0  0  0  0  0  0  0  0
  144.5683  135.6943  153.3357 H   0  0  0  0  0  0  0  0  0  0  0  0
  145.0843  129.7286  152.1339 H   0  0  0  0  0  0  0  0  0  0  0  0
  145.5660  130.5220  150.6386 H   0  0  0  0  0  0  0  0  0  0  0  0
  143.8876  130.6198  151.1969 H   0  0  0  0  0  0  0  0  0  0  0  0
  146.6679  133.9626  152.7031 H   0  0  0  0  0  0  0  0  0  0  0  0
  145.8126  134.9940  151.5835 H   0  0  0  0  0  0  0  0  0  0  0  0
  144.2270  134.4803  155.4831 H   0  0  0  0  0  0  0  0  0  0  0  0
  144.9391  133.0461  154.8264 H   0  0  0  0  0  0  0  0  0  0  0  0
  147.6580  133.9797  156.7394 H   0  0  0  0  0  0  0  0  0  0  0  0
  148.0316  133.3782  155.1135 H   0  0  0  0  0  0  0  0  0  0  0  0
  146.7158  132.6695  156.0421 H   0  0  0  0  0  0  0  0  0  0  0  0
  145.2431  138.7614  154.4192 H   0  0  0  0  0  0  0  0  0  0  0  0
  151.2191  136.5343  155.2843 H   0  0  0  0  0  0  0  0  0  0  0  0
  151.3948  139.0099  154.9594 H   0  0  0  0  0  0  0  0  0  0  0  0
  150.3251  139.3872  153.6356 H   0  0  0  0  0  0  0  0  0  0  0  0
  149.0006  139.9870  156.1651 H   0  0  0  0  0  0  0  0  0  0  0  0
  148.4750  142.0616  155.0214 H   0  0  0  0  0  0  0  0  0  0  0  0
  149.8493  141.9103  153.9504 H   0  0  0  0  0  0  0  0  0  0  0  0
  148.9309  140.2267  152.9292 H   0  0  0  0  0  0  0  0  0  0  0  0
  151.5855  141.5620  155.7148 H   0  0  0  0  0  0  0  0  0  0  0  0
  150.0868  143.0887  156.8239 H   0  0  0  0  0  0  0  0  0  0  0  0
  149.4544  141.7973  157.8567 H   0  0  0  0  0  0  0  0  0  0  0  0
  152.2892  142.9157  157.8575 H   0  0  0  0  0  0  0  0  0  0  0  0
  151.1940  142.7796  159.2400 H   0  0  0  0  0  0  0  0  0  0  0  0
  151.0147  139.3609  157.7135 H   0  0  0  0  0  0  0  0  0  0  0  0
  152.5379  139.7836  156.9276 H   0  0  0  0  0  0  0  0  0  0  0  0
  142.3434  135.7586  152.2677 H   0  0  0  0  0  0  0  0  0  0  0  0
  142.0847  135.3441  153.9674 H   0  0  0  0  0  0  0  0  0  0  0  0
  141.2898  134.4054  152.7017 H   0  0  0  0  0  0  0  0  0  0  0  0
  143.3289  134.0428  150.8192 H   0  0  0  0  0  0  0  0  0  0  0  0
  142.9139  132.4730  151.5052 H   0  0  0  0  0  0  0  0  0  0  0  0
  143.1723  133.2660  153.5894 H   0  0  0  0  0  0  0  0  0  0  0  0
  1  2  1  0  0  0  0
  1 32  1  0  0  0  0
  1 33  1  0  0  0  0
  1 34  1  0  0  0  0
  2  3  1  0  0  0  0
  3 30  1  0  0  0  0
  3 29  1  0  0  0  0
  3  4  1  0  0  0  0
  4  5  1  0  0  0  0
  4 35  1  0  0  0  0
  4 36  1  0  0  0  0
  5 31  1  0  0  0  0
  5  6  1  0  0  0  0
  5 27  1  0  0  0  0
  6  7  1  0  0  0  0
  6 37  1  0  0  0  0
  6 38  1  0  0  0  0
  7  8  1  0  0  0  0
  7  9  1  0  0  0  0
  8 39  1  0  0  0  0
  8 40  1  0  0  0  0
  8 41  1  0  0  0  0
  9 14  1  0  0  0  0
  9 10  2  0  0  0  0
 10 11  1  0  0  0  0
 11 12  2  0  0  0  0
 11 42  1  0  0  0  0
 12 13  1  0  0  0  0
 13 17  1  0  0  0  0
 13 14  2  0  0  0  0
 14 15  1  0  0  0  0
 15 16  2  0  0  0  0
 16 17  1  0  0  0  0
 16 43  1  0  0  0  0
 17 18  1  0  0  0  0
 18 19  1  0  0  0  0
 18 44  1  0  0  0  0
 18 45  1  0  0  0  0
 19 20  1  0  0  0  0
 19 22  1  0  0  0  0
 19 46  1  0  0  0  0
 20 21  1  0  0  0  0
 20 47  1  0  0  0  0
 20 48  1  0  0  0  0
 21 49  1  0  0  0  0
 22 26  1  0  0  0  0
 22 23  1  0  0  0  0
 22 50  1  0  0  0  0
 23 24  1  0  0  0  0
 23 51  1  0  0  0  0
 23 52  1  0  0  0  0
 24 25  1  0  0  0  0
 24 53  1  0  0  0  0
 24 54  1  0  0  0  0
 25 26  1  0  0  0  0
 26 55  1  0  0  0  0
 26 56  1  0  0  0  0
 27 28  1  0  0  0  0
 27 29  1  0  0  0  0
 27 62  1  0  0  0  0
 28 57  1  0  0  0  0
 28 58  1  0  0  0  0
 28 59  1  0  0  0  0
 29 60  1  0  0  0  0
 29 61  1  0  0  0  0
M  CHG  1  27   1
M  END
> <s_m_source_file>
AV-unprocessed.smi

> <i_m_source_file_index>
21

> <i_lp_mmshare_version>
43012

> <i_f3d_flags>
0

> <s_epik_input>
W0NIM11PW0NASF0xW0NIMl1bQ0BIXShOKFtDSDNdKVtDSDJdMSlbQ0gyXU4oW0NIM10pYyhuW2NIXW4yKWMoYzIzKW5bY0hdbjNbQ0gyXVtDQEhdKFtDSDJdW09IXSlbQ0BASF00W0NIMl1bQ0gyXU9bQ0gyXTQ=

> <s_epik_cmdline>
J2VwaWtfcHl0aG9uJywgJy1waCcsICc3LjAnLCAnLXRuJywgJzgnLCAnLW1hJywgJzIwMCcsICctbWV0YWxfYmluZGluZycsICctaW1hZScsICc8aW5maWxlLm1hZT4nLCAnLW9tYWUnLCAnPG91dGZpbGUubWFlPic=

> <r_lp_tautomer_probability>
1

> <r_epik_Ionization_Penalty>
0.0157465

> <r_epik_Ionization_Penalty_Charging>
0.015354

> <r_epik_Ionization_Penalty_Neutral>
0.000392529

> <r_epik_State_Penalty>
0.0120612

> <r_epik_Charging_Adjusted_Penalty>
0.0274152

> <i_epik_Tot_Q>
1

> <i_epik_Tot_abs_Q>
1

> <r_epik_Metal_State_Penalty>
0.0121253

> <b_epik_Metal_Only>
0

> <s_lp_Force_Field>
OPLS_2005

> <r_lp_Energy>
58.7805

> <b_lp_Chiralities_Consistent>
1

> <s_lp_Variant>
AV-unprocessed.smi:21-28

> <Gold.Version>
5.8.1

> <Gold.Id.Protein>
6NUR|6NUR_protein|mol2

> <Gold.PLP.Fitness>
44.6034

> <Gold.PLP.PLP>
-38.0803

> <Gold.PLP.part.hbond>
-2.0000

> <Gold.PLP.part.metal>
0.0000

> <Gold.PLP.part.buried>
-5.5605

> <Gold.PLP.part.nonpolar>
-30.3422

> <Gold.PLP.part.repulsive>
0.4532

> <Gold.PLP.ligand.clash>
0.0021

> <Gold.PLP.ligand.torsion>
1.3944

> <Gold.PLP.Chemscore.Hbond>
3.0000

> <Gold.PLP.Chemscore.CHOScore>
0.0000

> <Gold.PLP.Chemscore.Metal>
0.0000

> <Gold.Chemscore.Hbonds>
donor molecule, donor type, donor heavy atom, donor atom, acceptor molecule, acceptor atom, score
      L1  H    21    49       P1  7957  0.99
      L1  H    27    62       P1 10957  2.00

> <Gold.PLP.Chemscore.Internal.Correction>
0.3140

> <Gold.Rescore>
     Score         DG    S(hbond)    S(metal)    S(lipo)     H(rot)  DE(clash)    DE(int)     intcor
     10.95     -14.58       1.95        0.00      89.35       3.08       0.04       3.59       ----

> <Gold.Chemscore.Fitness>
10.9525

> <Gold.Chemscore.DG>
-14.5817

> <Gold.Chemscore.ZeroCoef>
-5.4800

> <Gold.Chemscore.Hbond>
1.9526

> <Gold.Chemscore.Metal>
0.0000

> <Gold.Chemscore.Lipo>
89.3533

> <Gold.Chemscore.Internal_Hbond>
0.0000

> <Gold.Chemscore.DEClash>
0.0430

> <Gold.Chemscore.DEInternal>
3.5863

> <Gold.Chemscore.Rot>
3.0758

> <Gold.Chemscore.Internal.Correction>
   9.000000E+99

> <Gold.Chemscore.Hbonds>
donor molecule, donor type, donor heavy atom, donor atom, acceptor molecule, acceptor atom, score
      L1  H    21    49       P1  7957  0.93
      L1  H    27    62       P1 10957  0.97

> <Gold.Chemscore.Hbond.Weighted>
-6.5216

> <Gold.Chemscore.Metal.Weighted>
-0.0000

> <Gold.Chemscore.Lipo.Weighted>
-10.4543

> <Gold.Chemscore.Internal_Hbond.Weighted>
0.0000

> <Gold.Chemscore.DEClash.Weighted>
0.0430

> <Gold.Chemscore.DEInternal.Weighted>
3.5863

> <Gold.Chemscore.Rot.Weighted>
7.8741

> <Gold.Chemscore.Internal.Correction.Weighted>
   9.000000E+99

> <Gold.Protein.RotatedTorsions>
[ 6907 6896 6895 6894 ] final  -20.76 input  -60.11 | X-H torsion
[ 7974 7965 7964 7962 ] final -142.13 input  175.53 | X-H torsion
[ 8008 7997 7996 7995 ] final -125.93 input   59.86 | X-H torsion
[ 10167 10162 10161 10158 ] final  -86.13 input  -65.29 | X-H torsion
[ 10718 10713 10712 10709 ] final -147.98 input   66.30 | X-H torsion
[ 10763 10752 10751 10750 ] final -108.28 input  -60.55 | X-H torsion
[ 11005 11000 10999 10996 ] final   70.47 input  -57.11 | X-H torsion

> <Gold.Protein.ActiveResidues>
 VAL166  LYS551  ARG553  GLY616  TRP617  ASP618  TYR619  PRO620  LYS621  CYS622 
 ASP623  PHE694  ASN695  SER759  ASP760  ASP761  ALA762  ILE779  LEU786  VAL792 
 PHE793  MET794  SER795  GLU796  ALA797  LYS798  CYS799  TRP800  GLU811  SER814 

> <Gold.Protein.RotatedAtoms>
  151.2434  135.0597  159.9033 H   0  0  0  0  0  0  0  0  0  0  0  0  # atno 6907 bound_to 6896
  152.5390  134.0410  159.8077 H   0  0  0  0  0  0  0  0  0  0  0  0  # atno 6908 bound_to 6896
  151.0607  133.5498  159.2666 H   0  0  0  0  0  0  0  0  0  0  0  0  # atno 6909 bound_to 6896
  144.8467  140.5996  143.5417 H   0  0  0  0  0  0  0  0  0  0  0  0  # atno 7974 bound_to 7965
  155.2214  140.0422  157.2949 H   0  0  0  0  0  0  0  0  0  0  0  0  # atno 8008 bound_to 7997
  154.5947  140.2436  155.7843 H   0  0  0  0  0  0  0  0  0  0  0  0  # atno 8009 bound_to 7997
  156.2282  140.2947  156.0130 H   0  0  0  0  0  0  0  0  0  0  0  0  # atno 8010 bound_to 7997
  140.3971  143.2679  151.9190 H   0  0  0  0  0  0  0  0  0  0  0  0  # atno 10167 bound_to 10162
  156.4144  130.7997  151.2217 H   0  0  0  0  0  0  0  0  0  0  0  0  # atno 10718 bound_to 10713
  154.8126  135.4644  154.0557 H   0  0  0  0  0  0  0  0  0  0  0  0  # atno 10763 bound_to 10752
  153.1975  135.6864  153.8280 H   0  0  0  0  0  0  0  0  0  0  0  0  # atno 10764 bound_to 10752
  153.7776  135.3261  155.3338 H   0  0  0  0  0  0  0  0  0  0  0  0  # atno 10765 bound_to 10752
  139.9596  134.7084  156.0676 H   0  0  0  0  0  0  0  0  0  0  0  0  # atno 11005 bound_to 11000
  145.4583  139.1515  143.3880 LP  0  0  0  0  0  0  0  0  0  0  0  0  # atno 17320 bound_to 7965
  146.2750  140.4712  142.8799 LP  0  0  0  0  0  0  0  0  0  0  0  0  # atno 17321 bound_to 7965
  139.4786  144.5670  151.8148 LP  0  0  0  0  0  0  0  0  0  0  0  0  # atno 17342 bound_to 10162
  140.4779  144.1492  150.5928 LP  0  0  0  0  0  0  0  0  0  0  0  0  # atno 17343 bound_to 10162
  157.7507  131.0247  150.3890 LP  0  0  0  0  0  0  0  0  0  0  0  0  # atno 17370 bound_to 10713
  156.4195  130.3950  149.6835 LP  0  0  0  0  0  0  0  0  0  0  0  0  # atno 17371 bound_to 10713
  141.1271  133.6596  156.3366 LP  0  0  0  0  0  0  0  0  0  0  0  0  # atno 17394 bound_to 11000
  140.5531  134.6008  157.5413 LP  0  0  0  0  0  0  0  0  0  0  0  0  # atno 17395 bound_to 11000

$$$$
