AV-unprocessed.smi:1552|AV-procd|sdf|6237|dock7
  -GOLD-   22720 6423D 1   1.00000     0.00000
 Structure written by MMmdl.
 49 50  0  0  0  0  0  0  0  0  3 V2000
  151.4479  139.8353  155.6131 C   0  0  0  0  0  0  0  0  0  0  0  0
  150.1957  140.3825  156.1833 N   0  3  0  0  0  0  0  0  0  0  0  0
  149.6786  141.5084  155.3659 C   0  0  0  0  0  0  0  0  0  0  0  0
  150.2860  140.6216  157.6588 C   0  0  1  0  0  0  0  0  0  0  0  0
  150.4387  139.3206  158.4880 C   0  0  0  0  0  0  0  0  0  0  0  0
  149.3313  138.4000  158.2609 N   0  0  0  0  0  0  0  0  0  0  0  0
  149.2369  137.1360  158.7032 C   0  0  0  0  0  0  0  0  0  0  0  0
  150.1519  136.6301  159.3508 O   0  0  0  0  0  0  0  0  0  0  0  0
  147.9810  136.3099  158.3608 C   0  0  0  0  0  0  0  0  0  0  0  0
  147.3815  135.6614  159.5379 N   0  0  0  0  0  0  0  0  0  0  0  0
  147.2012  134.2676  159.4988 C   0  0  0  0  0  0  0  0  0  0  0  0
  146.6610  133.5924  160.5313 C   0  0  0  0  0  0  0  0  0  0  0  0
  146.2578  134.3447  161.7132 C   0  0  0  0  0  0  0  0  0  0  0  0
  145.7577  133.7452  162.6630 O   0  0  0  0  0  0  0  0  0  0  0  0
  146.4584  135.6951  161.7050 N   0  5  0  0  0  0  0  0  0  0  0  0
  147.0116  136.3681  160.6487 C   0  0  0  0  0  0  0  0  0  0  0  0
  147.1863  137.5876  160.6618 O   0  0  0  0  0  0  0  0  0  0  0  0
  151.3244  141.7304  157.9974 C   0  0  0  0  0  0  0  0  0  0  0  0
  151.7544  141.6922  159.4811 C   0  0  0  0  0  0  0  0  0  0  0  0
  152.8653  142.7136  159.7759 C   0  0  0  0  0  0  0  0  0  0  0  0
  152.4446  144.1325  159.3638 C   0  0  0  0  0  0  0  0  0  0  0  0
  152.0187  144.1774  157.8882 C   0  0  0  0  0  0  0  0  0  0  0  0
  150.9001  143.1627  157.6024 C   0  0  0  0  0  0  0  0  0  0  0  0
  152.2652  140.5514  155.7081 H   0  0  0  0  0  0  0  0  0  0  0  0
  151.3209  139.5999  154.5560 H   0  0  0  0  0  0  0  0  0  0  0  0
  151.7359  138.9139  156.1201 H   0  0  0  0  0  0  0  0  0  0  0  0
  150.4067  142.3176  155.2964 H   0  0  0  0  0  0  0  0  0  0  0  0
  148.7536  141.9176  155.7689 H   0  0  0  0  0  0  0  0  0  0  0  0
  149.4668  141.1681  154.3518 H   0  0  0  0  0  0  0  0  0  0  0  0
  149.3280  141.0433  157.9689 H   0  0  0  0  0  0  0  0  0  0  0  0
  151.3662  138.8175  158.2102 H   0  0  0  0  0  0  0  0  0  0  0  0
  150.4956  139.5403  159.5545 H   0  0  0  0  0  0  0  0  0  0  0  0
  148.5608  138.7490  157.7091 H   0  0  0  0  0  0  0  0  0  0  0  0
  147.2243  136.9279  157.8767 H   0  0  0  0  0  0  0  0  0  0  0  0
  148.2605  135.5634  157.6159 H   0  0  0  0  0  0  0  0  0  0  0  0
  147.5313  133.7861  158.5901 H   0  0  0  0  0  0  0  0  0  0  0  0
  146.5319  132.5210  160.4870 H   0  0  0  0  0  0  0  0  0  0  0  0
  152.2252  141.5061  157.4248 H   0  0  0  0  0  0  0  0  0  0  0  0
  150.8997  141.8986  160.1260 H   0  0  0  0  0  0  0  0  0  0  0  0
  152.1054  140.6939  159.7447 H   0  0  0  0  0  0  0  0  0  0  0  0
  153.1159  142.6943  160.8371 H   0  0  0  0  0  0  0  0  0  0  0  0
  153.7727  142.4323  159.2398 H   0  0  0  0  0  0  0  0  0  0  0  0
  151.6192  144.4671  159.9934 H   0  0  0  0  0  0  0  0  0  0  0  0
  153.2661  144.8284  159.5358 H   0  0  0  0  0  0  0  0  0  0  0  0
  151.6844  145.1825  157.6295 H   0  0  0  0  0  0  0  0  0  0  0  0
  152.8785  143.9652  157.2515 H   0  0  0  0  0  0  0  0  0  0  0  0
  150.6377  143.2078  156.5454 H   0  0  0  0  0  0  0  0  0  0  0  0
  150.0134  143.4604  158.1616 H   0  0  0  0  0  0  0  0  0  0  0  0
  149.5190  139.6393  156.0832 H   0  0  0  0  0  0  0  0  0  0  0  0
  1  2  1  0  0  0  0
  1 24  1  0  0  0  0
  1 25  1  0  0  0  0
  1 26  1  0  0  0  0
  2  3  1  0  0  0  0
  2  4  1  0  0  0  0
  2 49  1  0  0  0  0
  3 27  1  0  0  0  0
  3 28  1  0  0  0  0
  3 29  1  0  0  0  0
  4  5  1  0  0  0  0
  4 18  1  0  0  0  0
  4 30  1  0  0  0  0
  5  6  1  0  0  0  0
  5 31  1  0  0  0  0
  5 32  1  0  0  0  0
  6  7  1  0  0  0  0
  6 33  1  0  0  0  0
  7  8  2  0  0  0  0
  7  9  1  0  0  0  0
  9 10  1  0  0  0  0
  9 34  1  0  0  0  0
  9 35  1  0  0  0  0
 10 16  1  0  0  0  0
 10 11  1  0  0  0  0
 11 12  2  0  0  0  0
 11 36  1  0  0  0  0
 12 13  1  0  0  0  0
 12 37  1  0  0  0  0
 13 14  2  0  0  0  0
 13 15  1  0  0  0  0
 15 16  1  0  0  0  0
 16 17  2  0  0  0  0
 18 23  1  0  0  0  0
 18 19  1  0  0  0  0
 18 38  1  0  0  0  0
 19 20  1  0  0  0  0
 19 39  1  0  0  0  0
 19 40  1  0  0  0  0
 20 21  1  0  0  0  0
 20 41  1  0  0  0  0
 20 42  1  0  0  0  0
 21 22  1  0  0  0  0
 21 43  1  0  0  0  0
 21 44  1  0  0  0  0
 22 23  1  0  0  0  0
 22 45  1  0  0  0  0
 22 46  1  0  0  0  0
 23 47  1  0  0  0  0
 23 48  1  0  0  0  0
M  CHG  1   2   1
M  CHG  1  15  -1
M  END
> <s_m_source_file>
AV-unprocessed.smi

> <i_m_source_file_index>
1552

> <i_lp_mmshare_version>
43012

> <i_f3d_flags>
0

> <s_epik_input>
W0NIMl0xW0NIMl1bQ0gyXVtDSDJdW0NIMl1bQ0hdMVtDQEhdKE4oW0NIM10pW0NIM10pW0NIMl1bTkhdQyg9TylbQ0gyXW4yW2NIXVtjSF1jKD1PKVtuSF1jMj1P

> <s_epik_cmdline>
J2VwaWtfcHl0aG9uJywgJy1waCcsICc3LjAnLCAnLXRuJywgJzgnLCAnLW1hJywgJzIwMCcsICctbWV0YWxfYmluZGluZycsICctaW1hZScsICc8aW5maWxlLm1hZT4nLCAnLW9tYWUnLCAnPG91dGZpbGUubWFlPic=

> <r_lp_tautomer_probability>
1

> <r_epik_Ionization_Penalty>
2.93575

> <r_epik_Ionization_Penalty_Charging>
0.00331645

> <r_epik_Ionization_Penalty_Neutral>
2.93244

> <r_epik_State_Penalty>
2.92822

> <r_epik_Charging_Adjusted_Penalty>
2.93154

> <i_epik_Tot_Q>
0

> <i_epik_Tot_abs_Q>
2

> <r_epik_Metal_State_Penalty>
0.448509

> <b_epik_Metal_Only>
1

> <s_lp_Force_Field>
OPLS_2005

> <r_lp_Energy>
36.4882

> <b_lp_Chiralities_Consistent>
1

> <s_lp_Variant>
AV-unprocessed.smi:1552-4

> <Gold.Version>
5.8.1

> <Gold.Id.Protein>
6NUR|6NUR_protein|mol2

> <Gold.PLP.Fitness>
50.1525

> <Gold.PLP.PLP>
-43.1739

> <Gold.PLP.part.hbond>
-3.8451

> <Gold.PLP.part.metal>
0.0000

> <Gold.PLP.part.buried>
-4.5442

> <Gold.PLP.part.nonpolar>
-36.2800

> <Gold.PLP.part.repulsive>
0.2440

> <Gold.PLP.ligand.clash>
0.0000

> <Gold.PLP.ligand.torsion>
0.6268

> <Gold.PLP.Chemscore.Hbond>
2.6423

> <Gold.PLP.Chemscore.CHOScore>
0.0000

> <Gold.PLP.Chemscore.Metal>
0.0000

> <Gold.Chemscore.Hbonds>
donor molecule, donor type, donor heavy atom, donor atom, acceptor molecule, acceptor atom, score
      P1  H  6896  6909       L1     8  1.00
      P1  H  6931  6943       L1    17  0.17
      P1  H  6934  6947       L1    17  0.81

> <Gold.PLP.Chemscore.Internal.Correction>
0.3054

> <Gold.Rescore>
     Score         DG    S(hbond)    S(metal)    S(lipo)     H(rot)  DE(clash)    DE(int)     intcor
     16.88     -19.39       2.70        0.00      94.96       2.43       0.00       2.52       ----

> <Gold.Chemscore.Fitness>
16.8756

> <Gold.Chemscore.DG>
-19.3921

> <Gold.Chemscore.ZeroCoef>
-5.4800

> <Gold.Chemscore.Hbond>
2.7017

> <Gold.Chemscore.Metal>
0.0000

> <Gold.Chemscore.Lipo>
94.9604

> <Gold.Chemscore.Internal_Hbond>
0.0000

> <Gold.Chemscore.DEClash>
0.0000

> <Gold.Chemscore.DEInternal>
2.5165

> <Gold.Chemscore.Rot>
2.4305

> <Gold.Chemscore.Internal.Correction>
   9.000000E+99

> <Gold.Chemscore.Hbonds>
donor molecule, donor type, donor heavy atom, donor atom, acceptor molecule, acceptor atom, score
      P1  H  6896  6909       L1     8  1.00
      P1  H  6931  6943       L1    17  0.15
      P1  H  6934  6947       L1    17  0.80

> <Gold.Chemscore.Hbond.Weighted>
-9.0238

> <Gold.Chemscore.Metal.Weighted>
-0.0000

> <Gold.Chemscore.Lipo.Weighted>
-11.1104

> <Gold.Chemscore.Internal_Hbond.Weighted>
0.0000

> <Gold.Chemscore.DEClash.Weighted>
0.0000

> <Gold.Chemscore.DEInternal.Weighted>
2.5165

> <Gold.Chemscore.Rot.Weighted>
6.2220

> <Gold.Chemscore.Internal.Correction.Weighted>
   9.000000E+99

> <Gold.Protein.RotatedTorsions>
[ 6907 6896 6895 6894 ] final   92.82 input  -60.11 | X-H torsion
[ 7974 7965 7964 7962 ] final  128.76 input  175.53 | X-H torsion
[ 8008 7997 7996 7995 ] final -125.51 input   59.86 | X-H torsion
[ 10167 10162 10161 10158 ] final  108.95 input  -65.29 | X-H torsion
[ 10718 10713 10712 10709 ] final -130.93 input   66.30 | X-H torsion
[ 10763 10752 10751 10750 ] final -133.82 input  -60.55 | X-H torsion
[ 11005 11000 10999 10996 ] final  102.41 input  -57.11 | X-H torsion

> <Gold.Protein.ActiveResidues>
 VAL166  LYS551  ARG553  GLY616  TRP617  ASP618  TYR619  PRO620  LYS621  CYS622 
 ASP623  PHE694  ASN695  SER759  ASP760  ASP761  ALA762  ILE779  LEU786  VAL792 
 PHE793  MET794  SER795  GLU796  ALA797  LYS798  CYS799  TRP800  GLU811  SER814 

> <Gold.Protein.RotatedAtoms>
  152.5453  134.1444  159.8491 H   0  0  0  0  0  0  0  0  0  0  0  0  # atno 6907 bound_to 6896
  151.1476  133.4921  159.2603 H   0  0  0  0  0  0  0  0  0  0  0  0  # atno 6908 bound_to 6896
  151.1506  135.0236  159.8721 H   0  0  0  0  0  0  0  0  0  0  0  0  # atno 6909 bound_to 6896
  145.0360  139.4004  143.5126 H   0  0  0  0  0  0  0  0  0  0  0  0  # atno 7974 bound_to 7965
  155.2144  140.0420  157.2938 H   0  0  0  0  0  0  0  0  0  0  0  0  # atno 8008 bound_to 7997
  154.5990  140.2447  155.7788 H   0  0  0  0  0  0  0  0  0  0  0  0  # atno 8009 bound_to 7997
  156.2309  140.2938  156.0195 H   0  0  0  0  0  0  0  0  0  0  0  0  # atno 8010 bound_to 7997
  139.6805  144.7118  151.1524 H   0  0  0  0  0  0  0  0  0  0  0  0  # atno 10167 bound_to 10162
  156.2193  130.6968  151.0738 H   0  0  0  0  0  0  0  0  0  0  0  0  # atno 10718 bound_to 10713
  154.8727  135.3754  154.4635 H   0  0  0  0  0  0  0  0  0  0  0  0  # atno 10763 bound_to 10752
  153.5302  135.7028  153.5692 H   0  0  0  0  0  0  0  0  0  0  0  0  # atno 10764 bound_to 10752
  153.3900  135.3974  155.1882 H   0  0  0  0  0  0  0  0  0  0  0  0  # atno 10765 bound_to 10752
  139.8777  134.9223  156.5054 H   0  0  0  0  0  0  0  0  0  0  0  0  # atno 11005 bound_to 11000
  146.3504  139.9936  142.8683 LP  0  0  0  0  0  0  0  0  0  0  0  0  # atno 17320 bound_to 7965
  145.1708  140.9720  143.4322 LP  0  0  0  0  0  0  0  0  0  0  0  0  # atno 17321 bound_to 7965
  140.7650  143.5707  150.8999 LP  0  0  0  0  0  0  0  0  0  0  0  0  # atno 17342 bound_to 10162
  139.9378  143.6417  152.3061 LP  0  0  0  0  0  0  0  0  0  0  0  0  # atno 17343 bound_to 10162
  157.7079  131.0748  150.6603 LP  0  0  0  0  0  0  0  0  0  0  0  0  # atno 17370 bound_to 10713
  156.6665  130.4527  149.5671 LP  0  0  0  0  0  0  0  0  0  0  0  0  # atno 17371 bound_to 10713
  140.8559  133.8096  155.9216 LP  0  0  0  0  0  0  0  0  0  0  0  0  # atno 17394 bound_to 11000
  140.9098  134.2275  157.4993 LP  0  0  0  0  0  0  0  0  0  0  0  0  # atno 17395 bound_to 11000

$$$$
