AV-unprocessed.smi:2982|AV-procd|sdf|11376|dock2
  -GOLD-   2272016293D 1   1.00000     0.00000
 Structure written by MMmdl.
 36 37  0  0  0  0  0  0  0  0  1 V2000
  149.2170  144.5653  159.8243 C   0  0  0  0  0  0  0  0  0  0  0  0
  150.6658  144.9294  159.4744 C   0  0  0  0  0  0  0  0  0  0  0  0
  151.1562  144.3738  158.1218 C   0  0  0  0  0  0  0  0  0  0  0  0
  151.6652  143.0154  158.1905 N   0  0  0  0  0  0  0  0  0  0  0  0
  151.2620  142.0041  157.3137 C   0  0  0  0  0  0  0  0  0  0  0  0
  150.3285  142.3181  156.3388 N   0  0  0  0  0  0  0  0  0  0  0  0
  151.7568  140.7356  157.3978 C   0  0  0  0  0  0  0  0  0  0  0  0
  151.3809  139.7020  156.5477 N   0  0  0  0  0  0  0  0  0  0  0  0
  151.6366  139.7132  155.1137 C   0  0  0  0  0  0  0  0  0  0  0  0
  152.5397  138.5308  154.7192 C   0  0  0  0  0  0  0  0  0  0  0  0
  151.9587  137.3108  155.1713 O   0  0  0  0  0  0  0  0  0  0  0  0
  151.8012  137.2808  156.5871 C   0  0  0  0  0  0  0  0  0  0  0  0
  150.8703  138.4247  157.0258 C   0  0  0  0  0  0  0  0  0  0  0  0
  152.7411  140.3877  158.4270 C   0  0  0  0  0  0  0  0  0  0  0  0
  153.2523  139.2796  158.5859 O   0  0  0  0  0  0  0  0  0  0  0  0
  153.0958  141.4323  159.2770 N   0  0  0  0  0  0  0  0  0  0  0  0
  152.6027  142.7307  159.2140 C   0  0  0  0  0  0  0  0  0  0  0  0
  152.9895  143.5601  160.0377 O   0  0  0  0  0  0  0  0  0  0  0  0
  153.7661  141.2280  160.0037 H   0  0  0  0  0  0  0  0  0  0  0  0
  148.9579  144.9258  160.8199 H   0  0  0  0  0  0  0  0  0  0  0  0
  149.0683  143.4853  159.8127 H   0  0  0  0  0  0  0  0  0  0  0  0
  148.5135  145.0114  159.1214 H   0  0  0  0  0  0  0  0  0  0  0  0
  150.7753  146.0140  159.4915 H   0  0  0  0  0  0  0  0  0  0  0  0
  151.3191  144.5503  160.2606 H   0  0  0  0  0  0  0  0  0  0  0  0
  150.3435  144.3502  157.3955 H   0  0  0  0  0  0  0  0  0  0  0  0
  151.9119  145.0176  157.6701 H   0  0  0  0  0  0  0  0  0  0  0  0
  149.9440  143.2482  156.2557 H   0  0  0  0  0  0  0  0  0  0  0  0
  149.9966  141.6330  155.6754 H   0  0  0  0  0  0  0  0  0  0  0  0
  150.6841  139.6540  154.5855 H   0  0  0  0  0  0  0  0  0  0  0  0
  152.1019  140.6555  154.8212 H   0  0  0  0  0  0  0  0  0  0  0  0
  152.6523  138.4905  153.6357 H   0  0  0  0  0  0  0  0  0  0  0  0
  153.5407  138.6443  155.1370 H   0  0  0  0  0  0  0  0  0  0  0  0
  151.3778  136.3192  156.8770 H   0  0  0  0  0  0  0  0  0  0  0  0
  152.7745  137.3588  157.0735 H   0  0  0  0  0  0  0  0  0  0  0  0
  150.7779  138.4387  158.1126 H   0  0  0  0  0  0  0  0  0  0  0  0
  149.8675  138.2721  156.6251 H   0  0  0  0  0  0  0  0  0  0  0  0
  1  2  1  0  0  0  0
  1 20  1  0  0  0  0
  1 21  1  0  0  0  0
  1 22  1  0  0  0  0
  2  3  1  0  0  0  0
  2 23  1  0  0  0  0
  2 24  1  0  0  0  0
  3  4  1  0  0  0  0
  3 25  1  0  0  0  0
  3 26  1  0  0  0  0
  4 17  1  0  0  0  0
  4  5  1  0  0  0  0
  5  6  1  0  0  0  0
  5  7  2  0  0  0  0
  6 27  1  0  0  0  0
  6 28  1  0  0  0  0
  7  8  1  0  0  0  0
  7 14  1  0  0  0  0
  8 13  1  0  0  0  0
  8  9  1  0  0  0  0
  9 10  1  0  0  0  0
  9 29  1  0  0  0  0
  9 30  1  0  0  0  0
 10 11  1  0  0  0  0
 10 31  1  0  0  0  0
 10 32  1  0  0  0  0
 11 12  1  0  0  0  0
 12 13  1  0  0  0  0
 12 33  1  0  0  0  0
 12 34  1  0  0  0  0
 13 35  1  0  0  0  0
 13 36  1  0  0  0  0
 14 15  2  0  0  0  0
 14 16  1  0  0  0  0
 16 19  1  0  0  0  0
 16 17  1  0  0  0  0
 17 18  2  0  0  0  0
M  END
> <s_m_source_file>
AV-unprocessed.smi

> <i_m_source_file_index>
2982

> <i_lp_mmshare_version>
43012

> <i_f3d_flags>
0

> <s_epik_input>
W0NIM11bQ0gyXVtDSDJdbjFjKFtOSDJdKWMoYyg9TylbbkhdYzE9TylOMltDSDJdW0NIMl1PW0NIMl1bQ0gyXTI=

> <s_epik_cmdline>
J2VwaWtfcHl0aG9uJywgJy1waCcsICc3LjAnLCAnLXRuJywgJzgnLCAnLW1hJywgJzIwMCcsICctbWV0YWxfYmluZGluZycsICctaW1hZScsICc8aW5maWxlLm1hZT4nLCAnLW9tYWUnLCAnPG91dGZpbGUubWFlPic=

> <r_lp_tautomer_probability>
1

> <r_epik_Ionization_Penalty>
1.08155e-05

> <r_epik_Ionization_Penalty_Charging>
2.81443e-06

> <r_epik_Ionization_Penalty_Neutral>
8.00112e-06

> <r_epik_State_Penalty>
-0

> <r_epik_Charging_Adjusted_Penalty>
2.81443e-06

> <i_epik_Tot_Q>
0

> <i_epik_Tot_abs_Q>
0

> <r_epik_Metal_State_Penalty>
-0

> <b_epik_Metal_Only>
0

> <s_epik_Chemistry_Notes>
This compound has an imine and may undergo hydrolysis.

> <s_lp_Force_Field>
OPLS_2005

> <r_lp_Energy>
28.8877

> <b_lp_Chiralities_Consistent>
1

> <s_lp_Variant>
AV-unprocessed.smi:2982-1

> <Gold.Version>
5.8.1

> <Gold.Id.Protein>
6NUR|6NUR_protein|mol2

> <Gold.PLP.Fitness>
37.2059

> <Gold.PLP.PLP>
-32.0689

> <Gold.PLP.part.hbond>
-2.7711

> <Gold.PLP.part.metal>
0.0000

> <Gold.PLP.part.buried>
-2.5978

> <Gold.PLP.part.nonpolar>
-26.5389

> <Gold.PLP.part.repulsive>
0.2420

> <Gold.PLP.ligand.clash>
0.0000

> <Gold.PLP.ligand.torsion>
1.3436

> <Gold.PLP.Chemscore.Hbond>
2.0597

> <Gold.PLP.Chemscore.CHOScore>
0.0000

> <Gold.PLP.Chemscore.Metal>
0.0000

> <Gold.Chemscore.Hbonds>
donor molecule, donor type, donor heavy atom, donor atom, acceptor molecule, acceptor atom, score
      L1  H     6    27       P1  8028  1.00
      P1  H  7997  8009       L1    15  0.14
      P1  H 10752 10763       L1    11  0.84

> <Gold.PLP.Chemscore.Internal.Correction>
1.6452

> <Gold.Rescore>
     Score         DG    S(hbond)    S(metal)    S(lipo)     H(rot)  DE(clash)    DE(int)     intcor
     11.19     -14.41       1.71        0.00      54.42       1.24       0.47       2.74       ----

> <Gold.Chemscore.Fitness>
11.1895

> <Gold.Chemscore.DG>
-14.4053

> <Gold.Chemscore.ZeroCoef>
-5.4800

> <Gold.Chemscore.Hbond>
1.7140

> <Gold.Chemscore.Metal>
0.0000

> <Gold.Chemscore.Lipo>
54.4224

> <Gold.Chemscore.Internal_Hbond>
0.0000

> <Gold.Chemscore.DEClash>
0.4728

> <Gold.Chemscore.DEInternal>
2.7430

> <Gold.Chemscore.Rot>
1.2371

> <Gold.Chemscore.Internal.Correction>
   9.000000E+99

> <Gold.Chemscore.Hbonds>
donor molecule, donor type, donor heavy atom, donor atom, acceptor molecule, acceptor atom, score
      L1  H     6    27       P1  8028  1.00
      P1  H 10752 10763       L1    11  0.49

> <Gold.Chemscore.Hbond.Weighted>
-5.7248

> <Gold.Chemscore.Metal.Weighted>
-0.0000

> <Gold.Chemscore.Lipo.Weighted>
-6.3674

> <Gold.Chemscore.Internal_Hbond.Weighted>
0.0000

> <Gold.Chemscore.DEClash.Weighted>
0.4728

> <Gold.Chemscore.DEInternal.Weighted>
2.7430

> <Gold.Chemscore.Rot.Weighted>
3.1669

> <Gold.Chemscore.Internal.Correction.Weighted>
   9.000000E+99

> <Gold.Protein.RotatedTorsions>
[ 6907 6896 6895 6894 ] final   -2.25 input  -60.11 | X-H torsion
[ 7974 7965 7964 7962 ] final  -39.43 input  175.53 | X-H torsion
[ 8008 7997 7996 7995 ] final  131.43 input   59.86 | X-H torsion
[ 10167 10162 10161 10158 ] final   -6.34 input  -65.29 | X-H torsion
[ 10718 10713 10712 10709 ] final -128.70 input   66.30 | X-H torsion
[ 10763 10752 10751 10750 ] final   57.75 input  -60.55 | X-H torsion
[ 11005 11000 10999 10996 ] final   42.02 input  -57.11 | X-H torsion

> <Gold.Protein.ActiveResidues>
 VAL166  LYS551  ARG553  GLY616  TRP617  ASP618  TYR619  PRO620  LYS621  CYS622 
 ASP623  PHE694  ASN695  SER759  ASP760  ASP761  ALA762  ILE779  LEU786  VAL792 
 PHE793  MET794  SER795  GLU796  ALA797  LYS798  CYS799  TRP800  GLU811  SER814 

> <Gold.Protein.RotatedAtoms>
  151.5330  135.1068  159.9907 H   0  0  0  0  0  0  0  0  0  0  0  0  # atno 6907 bound_to 6896
  152.4570  133.7739  159.6824 H   0  0  0  0  0  0  0  0  0  0  0  0  # atno 6908 bound_to 6896
  150.8517  133.7711  159.3048 H   0  0  0  0  0  0  0  0  0  0  0  0  # atno 6909 bound_to 6896
  146.0397  140.6625  142.9093 H   0  0  0  0  0  0  0  0  0  0  0  0  # atno 7974 bound_to 7965
  156.2970  140.2571  156.2924 H   0  0  0  0  0  0  0  0  0  0  0  0  # atno 8008 bound_to 7997
  154.9497  140.0394  157.2156 H   0  0  0  0  0  0  0  0  0  0  0  0  # atno 8009 bound_to 7997
  154.8048  140.2834  155.5900 H   0  0  0  0  0  0  0  0  0  0  0  0  # atno 8010 bound_to 7997
  140.6993  143.6205  150.8616 H   0  0  0  0  0  0  0  0  0  0  0  0  # atno 10167 bound_to 10162
  156.1975  130.6836  151.0500 H   0  0  0  0  0  0  0  0  0  0  0  0  # atno 10718 bound_to 10713
  152.9856  135.5631  154.5441 H   0  0  0  0  0  0  0  0  0  0  0  0  # atno 10763 bound_to 10752
  154.4890  135.2792  155.1513 H   0  0  0  0  0  0  0  0  0  0  0  0  # atno 10764 bound_to 10752
  154.2990  135.6311  153.5470 H   0  0  0  0  0  0  0  0  0  0  0  0  # atno 10765 bound_to 10752
  140.1779  134.4141  155.8218 H   0  0  0  0  0  0  0  0  0  0  0  0  # atno 11005 bound_to 11000
  144.7068  140.3885  143.7111 LP  0  0  0  0  0  0  0  0  0  0  0  0  # atno 17320 bound_to 7965
  145.6905  139.1638  143.2649 LP  0  0  0  0  0  0  0  0  0  0  0  0  # atno 17321 bound_to 7965
  139.9926  143.5830  152.2904 LP  0  0  0  0  0  0  0  0  0  0  0  0  # atno 17342 bound_to 10162
  139.6491  144.7660  151.2184 LP  0  0  0  0  0  0  0  0  0  0  0  0  # atno 17343 bound_to 10162
  157.6966  131.0791  150.6949 LP  0  0  0  0  0  0  0  0  0  0  0  0  # atno 17370 bound_to 10713
  156.7006  130.4622  149.5574 LP  0  0  0  0  0  0  0  0  0  0  0  0  # atno 17371 bound_to 10713
  141.2221  133.6986  156.7878 LP  0  0  0  0  0  0  0  0  0  0  0  0  # atno 17394 bound_to 11000
  140.2302  134.8692  157.3468 LP  0  0  0  0  0  0  0  0  0  0  0  0  # atno 17395 bound_to 11000

$$$$
