AV-unprocessed.smi:47|AV-procd|sdf|433|dock2
  -GOLD-   2262016303D 1   1.00000     0.00000
 Structure written by MMmdl.
 32 34  0  0  0  0  0  0  0  0  2 V2000
  146.2658  140.0369  153.2882 O   0  0  0  0  0  0  0  0  0  0  0  0
  147.2866  140.9832  153.5233 C   0  0  1  0  0  0  0  0  0  0  0  0
  146.9424  141.9322  154.6769 C   0  0  0  0  0  0  0  0  0  0  0  0
  148.2298  142.3194  155.2884 N   0  3  0  0  0  0  0  0  0  0  0  0
  149.2944  141.4818  154.6965 C   0  0  1  0  0  0  0  0  0  0  0  0
  150.1683  141.0757  155.8460 C   0  0  0  0  0  0  0  0  0  0  0  0
  150.4565  139.7931  156.0906 N   0  0  0  0  0  0  0  0  0  0  0  0
  151.2448  139.7077  157.1836 N   0  0  0  0  0  0  0  0  0  0  0  0
  151.3691  140.9888  157.5257 C   0  0  0  0  0  0  0  0  0  0  0  0
  152.1669  141.4091  158.7015 C   0  0  0  0  0  0  0  0  0  0  0  0
  152.9075  140.4665  159.4560 C   0  0  0  0  0  0  0  0  0  0  0  0
  153.6666  140.8618  160.5746 C   0  0  0  0  0  0  0  0  0  0  0  0
  153.6995  142.2130  160.9617 C   0  0  0  0  0  0  0  0  0  0  0  0
  152.9719  143.1651  160.2262 C   0  0  0  0  0  0  0  0  0  0  0  0
  152.2143  142.7651  159.1084 C   0  0  0  0  0  0  0  0  0  0  0  0
  150.7226  141.8985  156.7352 N   0  0  0  0  0  0  0  0  0  0  0  0
  148.5841  140.3275  153.9856 C   0  0  0  0  0  0  0  0  0  0  0  0
  147.4681  141.5574  152.6135 H   0  0  0  0  0  0  0  0  0  0  0  0
  149.8565  142.0849  153.9817 H   0  0  0  0  0  0  0  0  0  0  0  0
  145.4552  140.4968  153.1291 H   0  0  0  0  0  0  0  0  0  0  0  0
  146.3753  142.8025  154.3461 H   0  0  0  0  0  0  0  0  0  0  0  0
  146.3549  141.4175  155.4388 H   0  0  0  0  0  0  0  0  0  0  0  0
  148.4270  143.2955  155.1212 H   0  0  0  0  0  0  0  0  0  0  0  0
  152.9029  139.4216  159.1829 H   0  0  0  0  0  0  0  0  0  0  0  0
  154.2243  140.1264  161.1356 H   0  0  0  0  0  0  0  0  0  0  0  0
  154.2812  142.5182  161.8192 H   0  0  0  0  0  0  0  0  0  0  0  0
  152.9940  144.2045  160.5186 H   0  0  0  0  0  0  0  0  0  0  0  0
  151.6655  143.5194  158.5638 H   0  0  0  0  0  0  0  0  0  0  0  0
  148.3559  139.5322  154.6982 H   0  0  0  0  0  0  0  0  0  0  0  0
  149.1717  139.8946  153.1755 H   0  0  0  0  0  0  0  0  0  0  0  0
  148.1853  142.1455  156.2828 H   0  0  0  0  0  0  0  0  0  0  0  0
  150.1526  138.9831  155.5685 H   0  0  0  0  0  0  0  0  0  0  0  0
  1  2  1  0  0  0  0
  1 20  1  0  0  0  0
  2 18  1  0  0  0  0
  2 17  1  0  0  0  0
  2  3  1  0  0  0  0
  3  4  1  0  0  0  0
  3 21  1  0  0  0  0
  3 22  1  0  0  0  0
  4  5  1  0  0  0  0
  4 23  1  0  0  0  0
  4 31  1  0  0  0  0
  5 19  1  0  0  0  0
  5  6  1  0  0  0  0
  5 17  1  0  0  0  0
  6 16  2  0  0  0  0
  6  7  1  0  0  0  0
  7  8  1  0  0  0  0
  7 32  1  0  0  0  0
  8  9  2  0  0  0  0
  9 10  1  0  0  0  0
  9 16  1  0  0  0  0
 10 15  1  0  0  0  0
 10 11  2  0  0  0  0
 11 12  1  0  0  0  0
 11 24  1  0  0  0  0
 12 13  2  0  0  0  0
 12 25  1  0  0  0  0
 13 14  1  0  0  0  0
 13 26  1  0  0  0  0
 14 15  2  0  0  0  0
 14 27  1  0  0  0  0
 15 28  1  0  0  0  0
 17 29  1  0  0  0  0
 17 30  1  0  0  0  0
M  CHG  1   4   1
M  END
> <s_m_source_file>
AV-unprocessed.smi

> <i_m_source_file_index>
47

> <i_lp_mmshare_version>
43012

> <i_f3d_flags>
0

> <s_epik_input>
W09IXVtDQEhdMVtDSDJdW05IXVtDQEBIXShbQ0gyXTEpYzJuW25IXWMobjIpLWMzW2NIXVtjSF1bY0hdW2NIXVtjSF0z

> <s_epik_cmdline>
J2VwaWtfcHl0aG9uJywgJy1waCcsICc3LjAnLCAnLXRuJywgJzgnLCAnLW1hJywgJzIwMCcsICctbWV0YWxfYmluZGluZycsICctaW1hZScsICc8aW5maWxlLm1hZT4nLCAnLW9tYWUnLCAnPG91dGZpbGUubWFlPic=

> <r_epik_Ionization_Penalty>
1.14296

> <r_epik_Ionization_Penalty_Charging>
0.0688988

> <r_epik_Ionization_Penalty_Neutral>
1.07406

> <r_epik_State_Penalty>
1.72347

> <r_epik_Charging_Adjusted_Penalty>
1.79237

> <i_epik_Tot_Q>
1

> <i_epik_Tot_abs_Q>
1

> <r_epik_Metal_State_Penalty>
2.22085

> <b_epik_Metal_Only>
0

> <s_lp_Force_Field>
OPLS_2005

> <r_lp_Energy>
30.8137

> <b_lp_Chiralities_Consistent>
1

> <s_lp_Variant>
AV-unprocessed.smi:47-11

> <Gold.Version>
5.8.1

> <Gold.Id.Protein>
6NUR|6NUR_protein|mol2

> <Gold.PLP.Fitness>
44.7689

> <Gold.PLP.PLP>
-36.0669

> <Gold.PLP.part.hbond>
-1.9615

> <Gold.PLP.part.metal>
0.0000

> <Gold.PLP.part.buried>
-3.9520

> <Gold.PLP.part.nonpolar>
-30.5872

> <Gold.PLP.part.repulsive>
0.2721

> <Gold.PLP.ligand.clash>
0.0000

> <Gold.PLP.ligand.torsion>
0.1556

> <Gold.PLP.Chemscore.Hbond>
3.0000

> <Gold.PLP.Chemscore.CHOScore>
0.0000

> <Gold.PLP.Chemscore.Metal>
0.0000

> <Gold.Chemscore.Hbonds>
donor molecule, donor type, donor heavy atom, donor atom, acceptor molecule, acceptor atom, score
      L1  H     1    20       P1 10175  0.99
      L1  H     4    23       P1  8028  2.00

> <Gold.PLP.Chemscore.Internal.Correction>
0.0133

> <Gold.Rescore>
     Score         DG    S(hbond)    S(metal)    S(lipo)     H(rot)  DE(clash)    DE(int)     intcor
     18.09     -18.27       1.94        0.00      86.67       1.50       0.01       0.17       ----

> <Gold.Chemscore.Fitness>
18.0908

> <Gold.Chemscore.DG>
-18.2667

> <Gold.Chemscore.ZeroCoef>
-5.4800

> <Gold.Chemscore.Hbond>
1.9393

> <Gold.Chemscore.Metal>
0.0000

> <Gold.Chemscore.Lipo>
86.6715

> <Gold.Chemscore.Internal_Hbond>
0.0000

> <Gold.Chemscore.DEClash>
0.0076

> <Gold.Chemscore.DEInternal>
0.1683

> <Gold.Chemscore.Rot>
1.4966

> <Gold.Chemscore.Internal.Correction>
   9.000000E+99

> <Gold.Chemscore.Hbonds>
donor molecule, donor type, donor heavy atom, donor atom, acceptor molecule, acceptor atom, score
      L1  H     1    20       P1 10175  0.86
      L1  H     4    23       P1  8028  0.92

> <Gold.Chemscore.Hbond.Weighted>
-6.4773

> <Gold.Chemscore.Metal.Weighted>
-0.0000

> <Gold.Chemscore.Lipo.Weighted>
-10.1406

> <Gold.Chemscore.Internal_Hbond.Weighted>
0.0000

> <Gold.Chemscore.DEClash.Weighted>
0.0076

> <Gold.Chemscore.DEInternal.Weighted>
0.1683

> <Gold.Chemscore.Rot.Weighted>
3.8312

> <Gold.Chemscore.Internal.Correction.Weighted>
   9.000000E+99

> <Gold.Protein.RotatedTorsions>
[ 6907 6896 6895 6894 ] final  150.69 input  -60.11 | X-H torsion
[ 7974 7965 7964 7962 ] final   81.31 input  175.53 | X-H torsion
[ 8008 7997 7996 7995 ] final -175.32 input   59.86 | X-H torsion
[ 10167 10162 10161 10158 ] final  -41.79 input  -65.29 | X-H torsion
[ 10718 10713 10712 10709 ] final  -38.38 input   66.30 | X-H torsion
[ 10763 10752 10751 10750 ] final  -83.92 input  -60.55 | X-H torsion
[ 11005 11000 10999 10996 ] final -139.13 input  -57.11 | X-H torsion

> <Gold.Protein.ActiveResidues>
 VAL166  LYS551  ARG553  GLY616  TRP617  ASP618  TYR619  PRO620  LYS621  CYS622 
 ASP623  PHE694  ASN695  SER759  ASP760  ASP761  ALA762  ILE779  LEU786  VAL792 
 PHE793  MET794  SER795  GLU796  ALA797  LYS798  CYS799  TRP800  GLU811  SER814 

> <Gold.Protein.RotatedAtoms>
  152.1109  133.4300  159.4630 H   0  0  0  0  0  0  0  0  0  0  0  0  # atno 6907 bound_to 6896
  150.6867  134.2649  159.4574 H   0  0  0  0  0  0  0  0  0  0  0  0  # atno 6908 bound_to 6896
  152.0518  134.9648  160.0625 H   0  0  0  0  0  0  0  0  0  0  0  0  # atno 6909 bound_to 6896
  145.6398  139.2423  143.2037 H   0  0  0  0  0  0  0  0  0  0  0  0  # atno 7974 bound_to 7965
  155.9811  140.1182  157.0726 H   0  0  0  0  0  0  0  0  0  0  0  0  # atno 8008 bound_to 7997
  154.4183  140.1144  156.5504 H   0  0  0  0  0  0  0  0  0  0  0  0  # atno 8009 bound_to 7997
  155.6470  140.3473  155.4737 H   0  0  0  0  0  0  0  0  0  0  0  0  # atno 8010 bound_to 7997
  140.6991  143.3074  151.3116 H   0  0  0  0  0  0  0  0  0  0  0  0  # atno 10167 bound_to 10162
  156.3044  130.4244  149.8111 H   0  0  0  0  0  0  0  0  0  0  0  0  # atno 10718 bound_to 10713
  154.5934  135.5539  153.7301 H   0  0  0  0  0  0  0  0  0  0  0  0  # atno 10763 bound_to 10752
  153.0126  135.6349  154.1816 H   0  0  0  0  0  0  0  0  0  0  0  0  # atno 10764 bound_to 10752
  154.1757  135.2889  155.3047 H   0  0  0  0  0  0  0  0  0  0  0  0  # atno 10765 bound_to 10752
  140.8549  134.2240  157.4740 H   0  0  0  0  0  0  0  0  0  0  0  0  # atno 11005 bound_to 11000
  146.1290  140.7210  142.9421 LP  0  0  0  0  0  0  0  0  0  0  0  0  # atno 17320 bound_to 7965
  144.7162  140.4216  143.7043 LP  0  0  0  0  0  0  0  0  0  0  0  0  # atno 17321 bound_to 7965
  139.6485  144.0406  152.2609 LP  0  0  0  0  0  0  0  0  0  0  0  0  # atno 17342 bound_to 10162
  139.9935  144.6345  150.7793 LP  0  0  0  0  0  0  0  0  0  0  0  0  # atno 17343 bound_to 10162
  156.5478  130.8328  151.3290 LP  0  0  0  0  0  0  0  0  0  0  0  0  # atno 17370 bound_to 10713
  157.7376  130.9798  150.2202 LP  0  0  0  0  0  0  0  0  0  0  0  0  # atno 17371 bound_to 10713
  139.8705  134.9701  156.4691 LP  0  0  0  0  0  0  0  0  0  0  0  0  # atno 17394 bound_to 11000
  140.8748  133.7961  155.9403 LP  0  0  0  0  0  0  0  0  0  0  0  0  # atno 17395 bound_to 11000

$$$$
