AV-unprocessed.smi:47|AV-procd|sdf|435|dock2
  -GOLD-   2262016303D 1   1.00000     0.00000
 Structure written by MMmdl.
 31 33  0  0  0  0  0  0  0  0  1 V2000
  145.1307  141.1320  154.6832 O   0  0  0  0  0  0  0  0  0  0  0  0
  146.4668  140.6941  154.8101 C   0  0  1  0  0  0  0  0  0  0  0  0
  146.8715  139.7310  153.7017 C   0  0  0  0  0  0  0  0  0  0  0  0
  148.3266  139.7717  153.6984 N   0  0  0  0  0  0  0  0  0  0  0  0
  148.7380  141.1238  154.0952 C   0  0  2  0  0  0  0  0  0  0  0  0
  149.8538  141.1176  155.0950 C   0  0  0  0  0  0  0  0  0  0  0  0
  150.9084  140.3251  154.9324 N   0  0  0  0  0  0  0  0  0  0  0  0
  151.6737  140.6616  155.9910 N   0  0  0  0  0  0  0  0  0  0  0  0
  151.0781  141.6220  156.7095 C   0  0  0  0  0  0  0  0  0  0  0  0
  151.6389  142.2309  157.9178 C   0  0  0  0  0  0  0  0  0  0  0  0
  152.3621  141.4471  158.8468 C   0  0  0  0  0  0  0  0  0  0  0  0
  152.9046  142.0336  160.0069 C   0  0  0  0  0  0  0  0  0  0  0  0
  152.7303  143.4087  160.2503 C   0  0  0  0  0  0  0  0  0  0  0  0
  152.0115  144.1972  159.3327 C   0  0  0  0  0  0  0  0  0  0  0  0
  151.4684  143.6119  158.1724 C   0  0  0  0  0  0  0  0  0  0  0  0
  149.9052  141.9577  156.1728 N   0  0  0  0  0  0  0  0  0  0  0  0
  147.4801  141.8229  154.6460 C   0  0  0  0  0  0  0  0  0  0  0  0
  146.6009  140.2157  155.7818 H   0  0  0  0  0  0  0  0  0  0  0  0
  149.0753  141.6675  153.2115 H   0  0  0  0  0  0  0  0  0  0  0  0
  152.5697  140.2341  156.1760 H   0  0  0  0  0  0  0  0  0  0  0  0
  144.7493  140.7146  153.9260 H   0  0  0  0  0  0  0  0  0  0  0  0
  146.4913  138.7214  153.8585 H   0  0  0  0  0  0  0  0  0  0  0  0
  146.4937  140.0868  152.7421 H   0  0  0  0  0  0  0  0  0  0  0  0
  148.6589  139.5704  152.7609 H   0  0  0  0  0  0  0  0  0  0  0  0
  152.5093  140.3903  158.6801 H   0  0  0  0  0  0  0  0  0  0  0  0
  153.4563  141.4273  160.7103 H   0  0  0  0  0  0  0  0  0  0  0  0
  153.1471  143.8580  161.1396 H   0  0  0  0  0  0  0  0  0  0  0  0
  151.8766  145.2528  159.5176 H   0  0  0  0  0  0  0  0  0  0  0  0
  150.9209  144.2356  157.4811 H   0  0  0  0  0  0  0  0  0  0  0  0
  147.1212  142.5396  153.9055 H   0  0  0  0  0  0  0  0  0  0  0  0
  147.6518  142.3717  155.5732 H   0  0  0  0  0  0  0  0  0  0  0  0
  1  2  1  0  0  0  0
  1 21  1  0  0  0  0
  2 18  1  0  0  0  0
  2 17  1  0  0  0  0
  2  3  1  0  0  0  0
  3  4  1  0  0  0  0
  3 22  1  0  0  0  0
  3 23  1  0  0  0  0
  4  5  1  0  0  0  0
  4 24  1  0  0  0  0
  5 19  1  0  0  0  0
  5  6  1  0  0  0  0
  5 17  1  0  0  0  0
  6 16  1  0  0  0  0
  6  7  2  0  0  0  0
  7  8  1  0  0  0  0
  8 20  1  0  0  0  0
  8  9  1  0  0  0  0
  9 10  1  0  0  0  0
  9 16  2  0  0  0  0
 10 15  1  0  0  0  0
 10 11  2  0  0  0  0
 11 12  1  0  0  0  0
 11 25  1  0  0  0  0
 12 13  2  0  0  0  0
 12 26  1  0  0  0  0
 13 14  1  0  0  0  0
 13 27  1  0  0  0  0
 14 15  2  0  0  0  0
 14 28  1  0  0  0  0
 15 29  1  0  0  0  0
 17 30  1  0  0  0  0
 17 31  1  0  0  0  0
M  END
> <s_m_source_file>
AV-unprocessed.smi

> <i_m_source_file_index>
47

> <i_lp_mmshare_version>
43012

> <i_f3d_flags>
0

> <s_epik_input>
W09IXVtDQEhdMVtDSDJdW05IXVtDQEBIXShbQ0gyXTEpYzJuW25IXWMobjIpLWMzW2NIXVtjSF1bY0hdW2NIXVtjSF0z

> <s_epik_cmdline>
J2VwaWtfcHl0aG9uJywgJy1waCcsICc3LjAnLCAnLXRuJywgJzgnLCAnLW1hJywgJzIwMCcsICctbWV0YWxfYmluZGluZycsICctaW1hZScsICc8aW5maWxlLm1hZT4nLCAnLW9tYWUnLCAnPG91dGZpbGUubWFlPic=

> <r_epik_Ionization_Penalty>
1.65981

> <r_epik_Ionization_Penalty_Charging>
0

> <r_epik_Ionization_Penalty_Neutral>
1.65981

> <r_epik_State_Penalty>
2.0492

> <r_epik_Charging_Adjusted_Penalty>
2.0492

> <i_epik_Tot_Q>
0

> <i_epik_Tot_abs_Q>
0

> <r_epik_Metal_State_Penalty>
2.54641

> <b_epik_Metal_Only>
0

> <s_lp_Force_Field>
OPLS_2005

> <r_lp_Energy>
25.8537

> <b_lp_Chiralities_Consistent>
1

> <s_lp_Variant>
AV-unprocessed.smi:47-13

> <Gold.Version>
5.8.1

> <Gold.Id.Protein>
6NUR|6NUR_protein|mol2

> <Gold.PLP.Fitness>
43.8565

> <Gold.PLP.PLP>
-36.8357

> <Gold.PLP.part.hbond>
-3.0000

> <Gold.PLP.part.metal>
0.0000

> <Gold.PLP.part.buried>
-4.4778

> <Gold.PLP.part.nonpolar>
-30.7935

> <Gold.PLP.part.repulsive>
1.3170

> <Gold.PLP.ligand.clash>
0.0000

> <Gold.PLP.ligand.torsion>
0.9858

> <Gold.PLP.Chemscore.Hbond>
2.9920

> <Gold.PLP.Chemscore.CHOScore>
0.0000

> <Gold.PLP.Chemscore.Metal>
0.0000

> <Gold.Chemscore.Hbonds>
donor molecule, donor type, donor heavy atom, donor atom, acceptor molecule, acceptor atom, score
      L1  H     1    21       P1 10175  1.00
      L1  H     4    24       P1  7957  1.00
      P1  H  7989  7998       L1     7  1.00

> <Gold.PLP.Chemscore.Internal.Correction>
0.0163

> <Gold.Rescore>
     Score         DG    S(hbond)    S(metal)    S(lipo)     H(rot)  DE(clash)    DE(int)     intcor
     19.22     -20.65       2.69        0.00      85.20       1.48       0.72       0.71       ----

> <Gold.Chemscore.Fitness>
19.2221

> <Gold.Chemscore.DG>
-20.6521

> <Gold.Chemscore.ZeroCoef>
-5.4800

> <Gold.Chemscore.Hbond>
2.6912

> <Gold.Chemscore.Metal>
0.0000

> <Gold.Chemscore.Lipo>
85.2018

> <Gold.Chemscore.Internal_Hbond>
0.0000

> <Gold.Chemscore.DEClash>
0.7161

> <Gold.Chemscore.DEInternal>
0.7139

> <Gold.Chemscore.Rot>
1.4786

> <Gold.Chemscore.Internal.Correction>
   9.000000E+99

> <Gold.Chemscore.Hbonds>
donor molecule, donor type, donor heavy atom, donor atom, acceptor molecule, acceptor atom, score
      L1  H     1    21       P1 10175  0.98
      L1  H     4    24       P1  7957  0.97
      P1  H  7989  7998       L1     7  0.33

> <Gold.Chemscore.Hbond.Weighted>
-8.9888

> <Gold.Chemscore.Metal.Weighted>
-0.0000

> <Gold.Chemscore.Lipo.Weighted>
-9.9686

> <Gold.Chemscore.Internal_Hbond.Weighted>
0.0000

> <Gold.Chemscore.DEClash.Weighted>
0.7161

> <Gold.Chemscore.DEInternal.Weighted>
0.7139

> <Gold.Chemscore.Rot.Weighted>
3.7853

> <Gold.Chemscore.Internal.Correction.Weighted>
   9.000000E+99

> <Gold.Protein.RotatedTorsions>
[ 6907 6896 6895 6894 ] final  -14.92 input  -60.11 | X-H torsion
[ 7974 7965 7964 7962 ] final   89.53 input  175.53 | X-H torsion
[ 8008 7997 7996 7995 ] final  165.97 input   59.86 | X-H torsion
[ 10167 10162 10161 10158 ] final   35.63 input  -65.29 | X-H torsion
[ 10718 10713 10712 10709 ] final  166.05 input   66.30 | X-H torsion
[ 10763 10752 10751 10750 ] final  -12.56 input  -60.55 | X-H torsion
[ 11005 11000 10999 10996 ] final   12.37 input  -57.11 | X-H torsion

> <Gold.Protein.ActiveResidues>
 VAL166  LYS551  ARG553  GLY616  TRP617  ASP618  TYR619  PRO620  LYS621  CYS622 
 ASP623  PHE694  ASN695  SER759  ASP760  ASP761  ALA762  ILE779  LEU786  VAL792 
 PHE793  MET794  SER795  GLU796  ALA797  LYS798  CYS799  TRP800  GLU811  SER814 

> <Gold.Protein.RotatedAtoms>
  151.3319  135.0843  159.9341 H   0  0  0  0  0  0  0  0  0  0  0  0  # atno 6907 bound_to 6896
  152.5232  133.9534  159.7693 H   0  0  0  0  0  0  0  0  0  0  0  0  # atno 6908 bound_to 6896
  150.9875  133.6130  159.2743 H   0  0  0  0  0  0  0  0  0  0  0  0  # atno 6909 bound_to 6896
  145.5311  139.2283  143.2618 H   0  0  0  0  0  0  0  0  0  0  0  0  # atno 7974 bound_to 7965
  156.1757  140.1656  156.8366 H   0  0  0  0  0  0  0  0  0  0  0  0  # atno 8008 bound_to 7997
  154.5305  140.0758  156.8369 H   0  0  0  0  0  0  0  0  0  0  0  0  # atno 8009 bound_to 7997
  155.3418  140.3385  155.4241 H   0  0  0  0  0  0  0  0  0  0  0  0  # atno 8010 bound_to 7997
  140.4204  144.1468  150.6147 H   0  0  0  0  0  0  0  0  0  0  0  0  # atno 10167 bound_to 10162
  157.0714  131.0367  151.2610 H   0  0  0  0  0  0  0  0  0  0  0  0  # atno 10718 bound_to 10713
  153.5003  135.7017  153.5835 H   0  0  0  0  0  0  0  0  0  0  0  0  # atno 10763 bound_to 10752
  153.3969  135.3882  155.1961 H   0  0  0  0  0  0  0  0  0  0  0  0  # atno 10764 bound_to 10752
  154.8711  135.3872  154.4473 H   0  0  0  0  0  0  0  0  0  0  0  0  # atno 10765 bound_to 10752
  140.4928  134.0823  155.7775 H   0  0  0  0  0  0  0  0  0  0  0  0  # atno 11005 bound_to 11000
  146.2044  140.6127  142.9088 LP  0  0  0  0  0  0  0  0  0  0  0  0  # atno 17320 bound_to 7965
  144.7626  140.5456  143.6725 LP  0  0  0  0  0  0  0  0  0  0  0  0  # atno 17321 bound_to 7965
  140.4540  143.2475  151.9310 LP  0  0  0  0  0  0  0  0  0  0  0  0  # atno 17342 bound_to 10162
  139.4782  144.5534  151.8351 LP  0  0  0  0  0  0  0  0  0  0  0  0  # atno 17343 bound_to 10162
  157.4875  130.7802  149.7474 LP  0  0  0  0  0  0  0  0  0  0  0  0  # atno 17370 bound_to 10713
  155.9949  130.3915  150.2839 LP  0  0  0  0  0  0  0  0  0  0  0  0  # atno 17371 bound_to 10713
  141.1475  133.9028  157.2179 LP  0  0  0  0  0  0  0  0  0  0  0  0  # atno 17394 bound_to 11000
  139.9759  135.0114  156.9630 LP  0  0  0  0  0  0  0  0  0  0  0  0  # atno 17395 bound_to 11000

$$$$
