AV-unprocessed.smi:1510|AV-procd|sdf|6095|dock6
  -GOLD-   22720 6223D 1   1.00000     0.00000
 Structure written by MMmdl.
 32 33  0  0  0  0  0  0  0  0  2 V2000
  150.6053  141.0163  157.7530 O   0  0  0  0  0  0  0  0  0  0  0  0
  149.9881  141.7633  156.9916 C   0  0  0  0  0  0  0  0  0  0  0  0
  149.8657  141.4540  155.4910 C   0  0  0  0  0  0  0  0  0  0  0  0
  150.4853  140.1850  155.0820 N   0  0  0  0  0  0  0  0  0  0  0  0
  151.9145  140.1065  155.3722 N   0  5  0  0  0  0  0  0  0  0  0  0
  152.5964  138.9776  155.0425 C   0  0  0  0  0  0  0  0  0  0  0  0
  153.7961  138.8344  155.2668 O   0  0  0  0  0  0  0  0  0  0  0  0
  151.8656  137.9017  154.3934 C   0  0  0  0  0  0  0  0  0  0  0  0
  150.5501  138.0086  154.1213 C   0  0  0  0  0  0  0  0  0  0  0  0
  149.7783  139.1980  154.4605 C   0  0  0  0  0  0  0  0  0  0  0  0
  148.5784  139.3061  154.2069 O   0  0  0  0  0  0  0  0  0  0  0  0
  149.3904  142.8927  157.4002 N   0  0  0  0  0  0  0  0  0  0  0  0
  149.3722  143.3862  158.7719 C   0  0  0  0  0  0  0  0  0  0  0  0
  150.7793  143.7800  159.2511 C   0  0  1  0  0  0  0  0  0  0  0  0
  151.1315  145.2474  158.9991 C   0  0  0  0  0  0  0  0  0  0  0  0
  152.0787  145.6031  160.1375 C   0  0  0  0  0  0  0  0  0  0  0  0
  152.0577  144.3701  161.0426 C   0  0  0  0  0  0  0  0  0  0  0  0
  150.8814  143.6736  160.6628 O   0  0  0  0  0  0  0  0  0  0  0  0
  148.8097  141.4481  155.2154 H   0  0  0  0  0  0  0  0  0  0  0  0
  150.3063  142.2860  154.9386 H   0  0  0  0  0  0  0  0  0  0  0  0
  152.3902  136.9977  154.1209 H   0  0  0  0  0  0  0  0  0  0  0  0
  150.0483  137.1849  153.6356 H   0  0  0  0  0  0  0  0  0  0  0  0
  148.9053  143.4465  156.7098 H   0  0  0  0  0  0  0  0  0  0  0  0
  148.6943  144.2380  158.8489 H   0  0  0  0  0  0  0  0  0  0  0  0
  148.9618  142.6050  159.4121 H   0  0  0  0  0  0  0  0  0  0  0  0
  151.5361  143.1405  158.7925 H   0  0  0  0  0  0  0  0  0  0  0  0
  151.5784  145.3993  158.0160 H   0  0  0  0  0  0  0  0  0  0  0  0
  150.2394  145.8722  159.0598 H   0  0  0  0  0  0  0  0  0  0  0  0
  153.0878  145.8170  159.7840 H   0  0  0  0  0  0  0  0  0  0  0  0
  151.7157  146.4837  160.6689 H   0  0  0  0  0  0  0  0  0  0  0  0
  152.9263  143.7381  160.8518 H   0  0  0  0  0  0  0  0  0  0  0  0
  152.0477  144.6247  162.1025 H   0  0  0  0  0  0  0  0  0  0  0  0
  1  2  2  0  0  0  0
  2  3  1  0  0  0  0
  2 12  1  0  0  0  0
  3 19  1  0  0  0  0
  3 20  1  0  0  0  0
  3  4  1  0  0  0  0
  4  5  1  0  0  0  0
  4 10  1  0  0  0  0
  5  6  1  0  0  0  0
  6  7  2  0  0  0  0
  6  8  1  0  0  0  0
  8 21  1  0  0  0  0
  8  9  2  0  0  0  0
  9 22  1  0  0  0  0
  9 10  1  0  0  0  0
 10 11  2  0  0  0  0
 12 13  1  0  0  0  0
 12 23  1  0  0  0  0
 13 14  1  0  0  0  0
 13 24  1  0  0  0  0
 13 25  1  0  0  0  0
 14 18  1  0  0  0  0
 14 15  1  0  0  0  0
 14 26  1  0  0  0  0
 15 16  1  0  0  0  0
 15 27  1  0  0  0  0
 15 28  1  0  0  0  0
 16 17  1  0  0  0  0
 16 29  1  0  0  0  0
 16 30  1  0  0  0  0
 17 18  1  0  0  0  0
 17 31  1  0  0  0  0
 17 32  1  0  0  0  0
M  CHG  1   5  -1
M  END
> <s_m_source_file>
AV-unprocessed.smi

> <i_m_source_file_index>
1510

> <i_lp_mmshare_version>
43012

> <i_f3d_flags>
0

> <s_epik_input>
TzFbQ0gyXVtDSDJdW0NIMl1bQ0BIXTFbQ0gyXVtOSF1DKD1PKVtDSDJdbjJbbkhdYyg9TylbY0hdW2NIXWMyPU8=

> <s_epik_cmdline>
J2VwaWtfcHl0aG9uJywgJy1waCcsICc3LjAnLCAnLXRuJywgJzgnLCAnLW1hJywgJzIwMCcsICctbWV0YWxfYmluZGluZycsICctaW1hZScsICc8aW5maWxlLm1hZT4nLCAnLW9tYWUnLCAnPG91dGZpbGUubWFlPic=

> <r_lp_tautomer_probability>
1

> <r_epik_Ionization_Penalty>
0.0970799

> <r_epik_Ionization_Penalty_Charging>
0.0970799

> <r_epik_Ionization_Penalty_Neutral>
2.6859e-08

> <r_epik_State_Penalty>
0.0341592

> <r_epik_Charging_Adjusted_Penalty>
0.131239

> <i_epik_Tot_Q>
-1

> <i_epik_Tot_abs_Q>
1

> <r_epik_Metal_State_Penalty>
0.0341592

> <b_epik_Metal_Only>
0

> <s_lp_Force_Field>
OPLS_2005

> <r_lp_Energy>
32.1041

> <b_lp_Chiralities_Consistent>
1

> <s_lp_Variant>
AV-unprocessed.smi:1510-2

> <Gold.Version>
5.8.1

> <Gold.Id.Protein>
6NUR|6NUR_protein|mol2

> <Gold.PLP.Fitness>
43.2284

> <Gold.PLP.PLP>
-38.4511

> <Gold.PLP.part.hbond>
-3.7550

> <Gold.PLP.part.metal>
0.0000

> <Gold.PLP.part.buried>
-4.6844

> <Gold.PLP.part.nonpolar>
-31.2477

> <Gold.PLP.part.repulsive>
0.3226

> <Gold.PLP.ligand.clash>
0.0000

> <Gold.PLP.ligand.torsion>
0.3763

> <Gold.PLP.Chemscore.Hbond>
1.8400

> <Gold.PLP.Chemscore.CHOScore>
0.0000

> <Gold.PLP.Chemscore.Metal>
0.0000

> <Gold.Chemscore.Hbonds>
donor molecule, donor type, donor heavy atom, donor atom, acceptor molecule, acceptor atom, score
      L1  H    12    23       P1  8028  1.00
      P1  H  7997  8009       L1     7  0.83

> <Gold.PLP.Chemscore.Internal.Correction>
0.0099

> <Gold.Rescore>
     Score         DG    S(hbond)    S(metal)    S(lipo)     H(rot)  DE(clash)    DE(int)     intcor
     12.11     -13.92       1.56        0.00      72.34       2.05       0.16       1.65       ----

> <Gold.Chemscore.Fitness>
12.1098

> <Gold.Chemscore.DG>
-13.9201

> <Gold.Chemscore.ZeroCoef>
-5.4800

> <Gold.Chemscore.Hbond>
1.5615

> <Gold.Chemscore.Metal>
0.0000

> <Gold.Chemscore.Lipo>
72.3353

> <Gold.Chemscore.Internal_Hbond>
0.0000

> <Gold.Chemscore.DEClash>
0.1577

> <Gold.Chemscore.DEInternal>
1.6527

> <Gold.Chemscore.Rot>
2.0463

> <Gold.Chemscore.Internal.Correction>
   9.000000E+99

> <Gold.Chemscore.Hbonds>
donor molecule, donor type, donor heavy atom, donor atom, acceptor molecule, acceptor atom, score
      L1  H    12    23       P1  8028  0.77
      P1  H  7997  8009       L1     7  0.70

> <Gold.Chemscore.Hbond.Weighted>
-5.2155

> <Gold.Chemscore.Metal.Weighted>
-0.0000

> <Gold.Chemscore.Lipo.Weighted>
-8.4632

> <Gold.Chemscore.Internal_Hbond.Weighted>
0.0000

> <Gold.Chemscore.DEClash.Weighted>
0.1577

> <Gold.Chemscore.DEInternal.Weighted>
1.6527

> <Gold.Chemscore.Rot.Weighted>
5.2386

> <Gold.Chemscore.Internal.Correction.Weighted>
   9.000000E+99

> <Gold.Protein.RotatedTorsions>
[ 6907 6896 6895 6894 ] final   91.94 input  -60.11 | X-H torsion
[ 7974 7965 7964 7962 ] final   13.81 input  175.53 | X-H torsion
[ 8008 7997 7996 7995 ] final -133.27 input   59.86 | X-H torsion
[ 10167 10162 10161 10158 ] final -110.66 input  -65.29 | X-H torsion
[ 10718 10713 10712 10709 ] final  144.43 input   66.30 | X-H torsion
[ 10763 10752 10751 10750 ] final  112.52 input  -60.55 | X-H torsion
[ 11005 11000 10999 10996 ] final  -51.62 input  -57.11 | X-H torsion

> <Gold.Protein.ActiveResidues>
 VAL166  LYS551  ARG553  GLY616  TRP617  ASP618  TYR619  PRO620  LYS621  CYS622 
 ASP623  PHE694  ASN695  SER759  ASP760  ASP761  ALA762  ILE779  LEU786  VAL792 
 PHE793  MET794  SER795  GLU796  ALA797  LYS798  CYS799  TRP800  GLU811  SER814 

> <Gold.Protein.RotatedAtoms>
  152.5451  134.1579  159.8545 H   0  0  0  0  0  0  0  0  0  0  0  0  # atno 6907 bound_to 6896
  151.1600  133.4844  159.2602 H   0  0  0  0  0  0  0  0  0  0  0  0  # atno 6908 bound_to 6896
  151.1383  135.0177  159.8669 H   0  0  0  0  0  0  0  0  0  0  0  0  # atno 6909 bound_to 6896
  146.2320  139.9134  142.8521 H   0  0  0  0  0  0  0  0  0  0  0  0  # atno 7974 bound_to 7965
  155.3427  140.0473  157.3045 H   0  0  0  0  0  0  0  0  0  0  0  0  # atno 8008 bound_to 7997
  154.5268  140.2244  155.8840 H   0  0  0  0  0  0  0  0  0  0  0  0  # atno 8009 bound_to 7997
  156.1748  140.3087  155.9045 H   0  0  0  0  0  0  0  0  0  0  0  0  # atno 8010 bound_to 7997
  140.1421  143.4270  152.1555 H   0  0  0  0  0  0  0  0  0  0  0  0  # atno 10167 bound_to 10162
  157.3572  131.0959  151.0947 H   0  0  0  0  0  0  0  0  0  0  0  0  # atno 10718 bound_to 10713
  153.4790  135.3684  155.2432 H   0  0  0  0  0  0  0  0  0  0  0  0  # atno 10763 bound_to 10752
  154.8755  135.3949  154.3722 H   0  0  0  0  0  0  0  0  0  0  0  0  # atno 10764 bound_to 10752
  153.4323  135.7082  153.6288 H   0  0  0  0  0  0  0  0  0  0  0  0  # atno 10765 bound_to 10752
  141.0881  133.6638  156.3904 H   0  0  0  0  0  0  0  0  0  0  0  0  # atno 11005 bound_to 11000
  145.2207  140.9934  143.4047 LP  0  0  0  0  0  0  0  0  0  0  0  0  # atno 17320 bound_to 7965
  144.9612  139.3978  143.6355 LP  0  0  0  0  0  0  0  0  0  0  0  0  # atno 17321 bound_to 7965
  139.5467  144.7304  151.4562 LP  0  0  0  0  0  0  0  0  0  0  0  0  # atno 17342 bound_to 10162
  140.6754  143.8201  150.7052 LP  0  0  0  0  0  0  0  0  0  0  0  0  # atno 17343 bound_to 10162
  157.2101  130.6434  149.5771 LP  0  0  0  0  0  0  0  0  0  0  0  0  # atno 17370 bound_to 10713
  155.9731  130.4663  150.6283 LP  0  0  0  0  0  0  0  0  0  0  0  0  # atno 17371 bound_to 10713
  140.5317  134.6206  157.5352 LP  0  0  0  0  0  0  0  0  0  0  0  0  # atno 17394 bound_to 11000
  139.9702  134.7306  156.0057 LP  0  0  0  0  0  0  0  0  0  0  0  0  # atno 17395 bound_to 11000

$$$$
