AV-unprocessed.smi:1749|AV-procd|sdf|7046|dock6
  -GOLD-   22720 8263D 1   1.00000     0.00000
 Structure written by MMmdl.
 32 33  0  0  0  0  0  0  0  0  1 V2000
  153.1432  141.3975  160.6019 C   0  0  0  0  0  0  0  0  0  0  0  0
  152.8970  142.5887  159.6652 C   0  0  2  0  0  0  0  0  0  0  0  0
  152.5228  143.8578  160.4550 C   0  0  0  0  0  0  0  0  0  0  0  0
  152.2723  145.0507  159.5193 C   0  0  0  0  0  0  0  0  0  0  0  0
  151.1938  144.7230  158.4754 C   0  0  0  0  0  0  0  0  0  0  0  0
  151.5545  143.4580  157.6754 C   0  0  2  0  0  0  0  0  0  0  0  0
  150.4663  143.1302  156.7592 N   0  0  0  0  0  0  0  0  0  0  0  0
  150.2496  141.9417  156.1713 C   0  0  0  0  0  0  0  0  0  0  0  0
  150.9859  140.9704  156.3358 O   0  0  0  0  0  0  0  0  0  0  0  0
  149.1647  141.8577  155.3713 N   0  0  0  0  0  0  0  0  0  0  0  0
  148.6314  140.7829  154.6005 C   0  0  0  0  0  0  0  0  0  0  0  0
  149.0946  139.5221  154.6232 N   0  0  0  0  0  0  0  0  0  0  0  0
  148.3891  138.6891  153.7656 N   0  0  0  0  0  0  0  0  0  0  0  0
  147.4224  139.3516  153.1251 C   0  0  0  0  0  0  0  0  0  0  0  0
  147.2804  141.0582  153.5085 S   0  0  0  0  0  0  0  0  0  0  0  0
  151.8141  142.2664  158.6168 C   0  0  0  0  0  0  0  0  0  0  0  0
  152.2459  141.1467  161.1686 H   0  0  0  0  0  0  0  0  0  0  0  0
  153.9375  141.6170  161.3159 H   0  0  0  0  0  0  0  0  0  0  0  0
  153.4405  140.5113  160.0407 H   0  0  0  0  0  0  0  0  0  0  0  0
  153.8292  142.7864  159.1339 H   0  0  0  0  0  0  0  0  0  0  0  0
  151.6287  143.6714  161.0517 H   0  0  0  0  0  0  0  0  0  0  0  0
  153.3170  144.1070  161.1596 H   0  0  0  0  0  0  0  0  0  0  0  0
  151.9723  145.9225  160.1015 H   0  0  0  0  0  0  0  0  0  0  0  0
  153.2006  145.3207  159.0142 H   0  0  0  0  0  0  0  0  0  0  0  0
  150.2363  144.5822  158.9795 H   0  0  0  0  0  0  0  0  0  0  0  0
  151.0664  145.5698  157.7998 H   0  0  0  0  0  0  0  0  0  0  0  0
  152.4720  143.6598  157.1198 H   0  0  0  0  0  0  0  0  0  0  0  0
  149.8086  143.8712  156.5621 H   0  0  0  0  0  0  0  0  0  0  0  0
  148.6498  142.7218  155.2844 H   0  0  0  0  0  0  0  0  0  0  0  0
  146.7888  138.8320  152.4217 H   0  0  0  0  0  0  0  0  0  0  0  0
  152.1152  141.3963  158.0317 H   0  0  0  0  0  0  0  0  0  0  0  0
  150.8877  141.9903  159.1234 H   0  0  0  0  0  0  0  0  0  0  0  0
  1  2  1  0  0  0  0
  1 17  1  0  0  0  0
  1 18  1  0  0  0  0
  1 19  1  0  0  0  0
  2 16  1  0  0  0  0
  2  3  1  0  0  0  0
  2 20  1  0  0  0  0
  3  4  1  0  0  0  0
  3 21  1  0  0  0  0
  3 22  1  0  0  0  0
  4  5  1  0  0  0  0
  4 23  1  0  0  0  0
  4 24  1  0  0  0  0
  5  6  1  0  0  0  0
  5 25  1  0  0  0  0
  5 26  1  0  0  0  0
  6  7  1  0  0  0  0
  6 16  1  0  0  0  0
  6 27  1  0  0  0  0
  7  8  1  0  0  0  0
  7 28  1  0  0  0  0
  8  9  2  0  0  0  0
  8 10  1  0  0  0  0
 10 11  1  0  0  0  0
 10 29  1  0  0  0  0
 11 15  1  0  0  0  0
 11 12  2  0  0  0  0
 12 13  1  0  0  0  0
 13 14  2  0  0  0  0
 14 15  1  0  0  0  0
 14 30  1  0  0  0  0
 16 31  1  0  0  0  0
 16 32  1  0  0  0  0
M  END
> <s_m_source_file>
AV-unprocessed.smi

> <i_m_source_file_index>
1749

> <i_lp_mmshare_version>
43012

> <i_f3d_flags>
0

> <s_epik_input>
W0NIM11bQ0BASF0xW0NIMl1bQ0gyXVtDSDJdW0NASF0oW0NIMl0xKVtOSF1DKD1PKVtOSF1jMm5uW2NIXXMy

> <s_epik_cmdline>
J2VwaWtfcHl0aG9uJywgJy1waCcsICc3LjAnLCAnLXRuJywgJzgnLCAnLW1hJywgJzIwMCcsICctbWV0YWxfYmluZGluZycsICctaW1hZScsICc8aW5maWxlLm1hZT4nLCAnLW9tYWUnLCAnPG91dGZpbGUubWFlPic=

> <r_lp_tautomer_probability>
1

> <r_epik_Ionization_Penalty>
0.000318591

> <r_epik_Ionization_Penalty_Charging>
0

> <r_epik_Ionization_Penalty_Neutral>
0.000318591

> <r_epik_State_Penalty>
-0

> <r_epik_Charging_Adjusted_Penalty>
0

> <i_epik_Tot_Q>
0

> <i_epik_Tot_abs_Q>
0

> <r_epik_Metal_State_Penalty>
0.169791

> <b_epik_Metal_Only>
0

> <s_lp_Force_Field>
OPLS_2005

> <r_lp_Energy>
11.6734

> <b_lp_Chiralities_Consistent>
1

> <s_lp_Variant>
AV-unprocessed.smi:1749-3

> <Gold.Version>
5.8.1

> <Gold.Id.Protein>
6NUR|6NUR_protein|mol2

> <Gold.PLP.Fitness>
40.5762

> <Gold.PLP.PLP>
-35.7253

> <Gold.PLP.part.hbond>
-1.8657

> <Gold.PLP.part.metal>
0.0000

> <Gold.PLP.part.buried>
-4.4562

> <Gold.PLP.part.nonpolar>
-30.5112

> <Gold.PLP.part.repulsive>
0.5684

> <Gold.PLP.ligand.clash>
0.0000

> <Gold.PLP.ligand.torsion>
0.2889

> <Gold.PLP.Chemscore.Hbond>
1.8089

> <Gold.PLP.Chemscore.CHOScore>
0.0000

> <Gold.PLP.Chemscore.Metal>
0.0000

> <Gold.Chemscore.Hbonds>
donor molecule, donor type, donor heavy atom, donor atom, acceptor molecule, acceptor atom, score
      L1  H     7    28       P1  8028  1.00
      L1  H    10    29       P1  8028  0.81

> <Gold.PLP.Chemscore.Internal.Correction>
0.0021

> <Gold.Rescore>
     Score         DG    S(hbond)    S(metal)    S(lipo)     H(rot)  DE(clash)    DE(int)     intcor
     17.16     -20.19       1.84        0.00      95.02       1.00       0.06       2.98       ----

> <Gold.Chemscore.Fitness>
17.1564

> <Gold.Chemscore.DG>
-20.1922

> <Gold.Chemscore.ZeroCoef>
-5.4800

> <Gold.Chemscore.Hbond>
1.8429

> <Gold.Chemscore.Metal>
0.0000

> <Gold.Chemscore.Lipo>
95.0166

> <Gold.Chemscore.Internal_Hbond>
0.0000

> <Gold.Chemscore.DEClash>
0.0595

> <Gold.Chemscore.DEInternal>
2.9763

> <Gold.Chemscore.Rot>
1.0000

> <Gold.Chemscore.Internal.Correction>
   9.000000E+99

> <Gold.Chemscore.Hbonds>
donor molecule, donor type, donor heavy atom, donor atom, acceptor molecule, acceptor atom, score
      L1  H     7    28       P1  8028  0.92
      L1  H    10    29       P1  8028  0.75

> <Gold.Chemscore.Hbond.Weighted>
-6.1552

> <Gold.Chemscore.Metal.Weighted>
-0.0000

> <Gold.Chemscore.Lipo.Weighted>
-11.1169

> <Gold.Chemscore.Internal_Hbond.Weighted>
0.0000

> <Gold.Chemscore.DEClash.Weighted>
0.0595

> <Gold.Chemscore.DEInternal.Weighted>
2.9763

> <Gold.Chemscore.Rot.Weighted>
2.5600

> <Gold.Chemscore.Internal.Correction.Weighted>
   9.000000E+99

> <Gold.Protein.RotatedTorsions>
[ 6907 6896 6895 6894 ] final  176.99 input  -60.11 | X-H torsion
[ 7974 7965 7964 7962 ] final   -8.11 input  175.53 | X-H torsion
[ 8008 7997 7996 7995 ] final -171.73 input   59.86 | X-H torsion
[ 10167 10162 10161 10158 ] final -155.95 input  -65.29 | X-H torsion
[ 10718 10713 10712 10709 ] final  159.17 input   66.30 | X-H torsion
[ 10763 10752 10751 10750 ] final -158.59 input  -60.55 | X-H torsion
[ 11005 11000 10999 10996 ] final -129.08 input  -57.11 | X-H torsion

> <Gold.Protein.ActiveResidues>
 VAL166  LYS551  ARG553  GLY616  TRP617  ASP618  TYR619  PRO620  LYS621  CYS622 
 ASP623  PHE694  ASN695  SER759  ASP760  ASP761  ALA762  ILE779  LEU786  VAL792 
 PHE793  MET794  SER795  GLU796  ALA797  LYS798  CYS799  TRP800  GLU811  SER814 

> <Gold.Protein.RotatedAtoms>
  151.7112  133.3312  159.3290 H   0  0  0  0  0  0  0  0  0  0  0  0  # atno 6907 bound_to 6896
  150.7693  134.6530  159.6308 H   0  0  0  0  0  0  0  0  0  0  0  0  # atno 6908 bound_to 6896
  152.3710  134.6736  160.0228 H   0  0  0  0  0  0  0  0  0  0  0  0  # atno 6909 bound_to 6896
  146.2289  140.2420  142.8344 H   0  0  0  0  0  0  0  0  0  0  0  0  # atno 7974 bound_to 7965
  155.9354  140.1099  157.1099 H   0  0  0  0  0  0  0  0  0  0  0  0  # atno 8008 bound_to 7997
  154.4079  140.1229  156.4923 H   0  0  0  0  0  0  0  0  0  0  0  0  # atno 8009 bound_to 7997
  155.7028  140.3471  155.4942 H   0  0  0  0  0  0  0  0  0  0  0  0  # atno 8010 bound_to 7997
  139.6890  143.9453  152.2375 H   0  0  0  0  0  0  0  0  0  0  0  0  # atno 10167 bound_to 10162
  157.1679  131.0603  151.2198 H   0  0  0  0  0  0  0  0  0  0  0  0  # atno 10718 bound_to 10713
  154.7544  135.3101  154.8498 H   0  0  0  0  0  0  0  0  0  0  0  0  # atno 10763 bound_to 10752
  153.9276  135.6789  153.4750 H   0  0  0  0  0  0  0  0  0  0  0  0  # atno 10764 bound_to 10752
  153.1141  135.4853  154.9014 H   0  0  0  0  0  0  0  0  0  0  0  0  # atno 10765 bound_to 10752
  140.9462  134.1127  157.4105 H   0  0  0  0  0  0  0  0  0  0  0  0  # atno 11005 bound_to 11000
  144.9477  140.8146  143.5591 LP  0  0  0  0  0  0  0  0  0  0  0  0  # atno 17320 bound_to 7965
  145.2377  139.2086  143.5009 LP  0  0  0  0  0  0  0  0  0  0  0  0  # atno 17321 bound_to 7965
  139.9264  144.6768  150.8408 LP  0  0  0  0  0  0  0  0  0  0  0  0  # atno 17342 bound_to 10162
  140.7677  143.3339  151.2350 LP  0  0  0  0  0  0  0  0  0  0  0  0  # atno 17343 bound_to 10162
  157.4071  130.7365  149.6811 LP  0  0  0  0  0  0  0  0  0  0  0  0  # atno 17370 bound_to 10713
  155.9743  130.4105  150.3934 LP  0  0  0  0  0  0  0  0  0  0  0  0  # atno 17371 bound_to 10713
  139.8834  135.0052  156.6297 LP  0  0  0  0  0  0  0  0  0  0  0  0  # atno 17394 bound_to 11000
  140.7666  133.8773  155.8459 LP  0  0  0  0  0  0  0  0  0  0  0  0  # atno 17395 bound_to 11000

$$$$
