AV-unprocessed.smi:299|AV-procd|sdf|2268|dock1
  -GOLD-   2262022153D 1   1.00000     0.00000
 Structure written by MMmdl.
 42 43  0  0  0  0  0  0  0  0  2 V2000
  153.2804  140.6267  159.2439 C   0  0  0  0  0  0  0  0  0  0  0  0
  152.4246  141.7881  159.7919 C   0  0  1  0  0  0  0  0  0  0  0  0
  153.3033  142.6407  160.7346 C   0  0  0  0  0  0  0  0  0  0  0  0
  152.5303  143.8162  161.3359 C   0  0  0  0  0  0  0  0  0  0  0  0
  151.9319  144.6561  160.2083 C   0  0  0  0  0  0  0  0  0  0  0  0
  151.0579  143.7880  159.2924 C   0  0  0  0  0  0  0  0  0  0  0  0
  151.8159  142.6389  158.7155 N   0  3  2  0  0  0  0  0  0  0  0  0
  150.9956  141.8762  157.7295 C   0  0  0  0  0  0  0  0  0  0  0  0
  149.4831  141.9093  158.0335 C   0  0  0  0  0  0  0  0  0  0  0  0
  148.6083  141.4833  156.8386 C   0  0  0  0  0  0  0  0  0  0  0  0
  149.1493  140.3328  156.1211 N   0  0  0  0  0  0  0  0  0  0  0  0
  149.5469  140.3375  154.8386 C   0  0  0  0  0  0  0  0  0  0  0  0
  149.4690  141.3253  154.1093 O   0  0  0  0  0  0  0  0  0  0  0  0
  150.1119  139.0263  154.2903 C   0  0  0  0  0  0  0  0  0  0  0  0
  151.5626  139.0440  154.2731 N   0  0  0  0  0  0  0  0  0  0  0  0
  152.4461  138.1322  153.8614 C   0  0  0  0  0  0  0  0  0  0  0  0
  153.6922  138.5465  154.0319 N   0  0  0  0  0  0  0  0  0  0  0  0
  153.5318  139.8048  154.5883 N   0  0  0  0  0  0  0  0  0  0  0  0
  152.2705  140.1056  154.7333 N   0  0  0  0  0  0  0  0  0  0  0  0
  153.8445  140.1478  160.0450 H   0  0  0  0  0  0  0  0  0  0  0  0
  153.9991  140.9759  158.5018 H   0  0  0  0  0  0  0  0  0  0  0  0
  152.6765  139.8392  158.7947 H   0  0  0  0  0  0  0  0  0  0  0  0
  151.6114  141.3594  160.3802 H   0  0  0  0  0  0  0  0  0  0  0  0
  153.6961  142.0224  161.5426 H   0  0  0  0  0  0  0  0  0  0  0  0
  154.1699  143.0184  160.1892 H   0  0  0  0  0  0  0  0  0  0  0  0
  151.7384  143.4477  161.9893 H   0  0  0  0  0  0  0  0  0  0  0  0
  153.1897  144.4266  161.9537 H   0  0  0  0  0  0  0  0  0  0  0  0
  151.3392  145.4703  160.6266 H   0  0  0  0  0  0  0  0  0  0  0  0
  152.7298  145.1201  159.6267 H   0  0  0  0  0  0  0  0  0  0  0  0
  150.1953  143.4130  159.8455 H   0  0  0  0  0  0  0  0  0  0  0  0
  150.6688  144.4319  158.5061 H   0  0  0  0  0  0  0  0  0  0  0  0
  151.1066  142.2982  156.7340 H   0  0  0  0  0  0  0  0  0  0  0  0
  151.3590  140.8492  157.6715 H   0  0  0  0  0  0  0  0  0  0  0  0
  149.2425  141.2697  158.8812 H   0  0  0  0  0  0  0  0  0  0  0  0
  149.1986  142.9204  158.3274 H   0  0  0  0  0  0  0  0  0  0  0  0
  147.5952  141.2594  157.1764 H   0  0  0  0  0  0  0  0  0  0  0  0
  148.5184  142.3093  156.1328 H   0  0  0  0  0  0  0  0  0  0  0  0
  149.2535  139.4768  156.6466 H   0  0  0  0  0  0  0  0  0  0  0  0
  149.7743  138.1900  154.9040 H   0  0  0  0  0  0  0  0  0  0  0  0
  149.7450  138.8513  153.2775 H   0  0  0  0  0  0  0  0  0  0  0  0
  152.1787  137.1728  153.4437 H   0  0  0  0  0  0  0  0  0  0  0  0
  152.5902  143.0315  158.1991 H   0  0  0  0  0  0  0  0  0  0  0  0
  1  2  1  0  0  0  0
  1 20  1  0  0  0  0
  1 21  1  0  0  0  0
  1 22  1  0  0  0  0
  2  7  1  0  0  0  0
  2  3  1  0  0  0  0
  2 23  1  0  0  0  0
  3  4  1  0  0  0  0
  3 24  1  0  0  0  0
  3 25  1  0  0  0  0
  4  5  1  0  0  0  0
  4 26  1  0  0  0  0
  4 27  1  0  0  0  0
  5  6  1  0  0  0  0
  5 28  1  0  0  0  0
  5 29  1  0  0  0  0
  6  7  1  0  0  0  0
  6 30  1  0  0  0  0
  6 31  1  0  0  0  0
  7  8  1  0  0  0  0
  7 42  1  0  0  0  0
  8  9  1  0  0  0  0
  8 32  1  0  0  0  0
  8 33  1  0  0  0  0
  9 10  1  0  0  0  0
  9 34  1  0  0  0  0
  9 35  1  0  0  0  0
 10 11  1  0  0  0  0
 10 36  1  0  0  0  0
 10 37  1  0  0  0  0
 11 12  1  0  0  0  0
 11 38  1  0  0  0  0
 12 13  2  0  0  0  0
 12 14  1  0  0  0  0
 14 15  1  0  0  0  0
 14 39  1  0  0  0  0
 14 40  1  0  0  0  0
 15 19  1  0  0  0  0
 15 16  1  0  0  0  0
 16 17  2  0  0  0  0
 16 41  1  0  0  0  0
 17 18  1  0  0  0  0
 18 19  2  0  0  0  0
M  CHG  1   7   1
M  END
> <s_m_source_file>
AV-unprocessed.smi

> <i_m_source_file_index>
299

> <i_lp_mmshare_version>
43012

> <i_f3d_flags>
0

> <s_epik_input>
W0NIM11bQ0BASF0xW0NIMl1bQ0gyXVtDSDJdW0NIMl1OMVtDSDJdW0NIMl1bQ0gyXVtOSF1DKD1PKVtDSDJdbjJbY0hdbm5uMg==

> <s_epik_cmdline>
J2VwaWtfcHl0aG9uJywgJy1waCcsICc3LjAnLCAnLXRuJywgJzgnLCAnLW1hJywgJzIwMCcsICctbWV0YWxfYmluZGluZycsICctaW1hZScsICc8aW5maWxlLm1hZT4nLCAnLW9tYWUnLCAnPG91dGZpbGUubWFlPic=

> <r_lp_tautomer_probability>
1

> <r_epik_Ionization_Penalty>
0.000544863

> <r_epik_Ionization_Penalty_Charging>
0.000543475

> <r_epik_Ionization_Penalty_Neutral>
1.38784e-06

> <r_epik_State_Penalty>
0.000340025

> <r_epik_Charging_Adjusted_Penalty>
0.0008835

> <i_epik_Tot_Q>
1

> <i_epik_Tot_abs_Q>
1

> <r_epik_Metal_State_Penalty>
-0

> <b_epik_Metal_Only>
0

> <s_lp_Force_Field>
OPLS_2005

> <r_lp_Energy>
25.9803

> <b_lp_Chiralities_Consistent>
1

> <s_lp_Variant>
AV-unprocessed.smi:299-4

> <Gold.Version>
5.8.1

> <Gold.Id.Protein>
6NUR|6NUR_protein|mol2

> <Gold.PLP.Fitness>
48.8575

> <Gold.PLP.PLP>
-41.0128

> <Gold.PLP.part.hbond>
-5.4690

> <Gold.PLP.part.metal>
0.0000

> <Gold.PLP.part.buried>
-5.1696

> <Gold.PLP.part.nonpolar>
-29.5091

> <Gold.PLP.part.repulsive>
0.3567

> <Gold.PLP.ligand.clash>
0.0000

> <Gold.PLP.ligand.torsion>
0.8772

> <Gold.PLP.Chemscore.Hbond>
2.1331

> <Gold.PLP.Chemscore.CHOScore>
1.0000

> <Gold.PLP.Chemscore.Metal>
0.0000

> <Gold.Chemscore.Hbonds>
donor molecule, donor type, donor heavy atom, donor atom, acceptor molecule, acceptor atom, score
      P1  H  7989  7998       L1    19  0.16
      P1  H  7997  8010       L1    18  1.00
      P1  H  8011  8017       L1    13  0.58
      L1  C    16    41       P1  7949  1.00

> <Gold.PLP.Chemscore.Internal.Correction>
0.1999

> <Gold.Rescore>
     Score         DG    S(hbond)    S(metal)    S(lipo)     H(rot)  DE(clash)    DE(int)     intcor
     10.20     -13.18       1.60        0.00      85.04       2.97       0.93       2.04       ----

> <Gold.Chemscore.Fitness>
10.2013

> <Gold.Chemscore.DG>
-13.1802

> <Gold.Chemscore.ZeroCoef>
-5.4800

> <Gold.Chemscore.Hbond>
1.6012

> <Gold.Chemscore.Metal>
0.0000

> <Gold.Chemscore.Lipo>
85.0446

> <Gold.Chemscore.Internal_Hbond>
0.0000

> <Gold.Chemscore.DEClash>
0.9350

> <Gold.Chemscore.DEInternal>
2.0438

> <Gold.Chemscore.Rot>
2.9680

> <Gold.Chemscore.Internal.Correction>
   9.000000E+99

> <Gold.Chemscore.Hbonds>
donor molecule, donor type, donor heavy atom, donor atom, acceptor molecule, acceptor atom, score
      P1  H  7997  8010       L1    18  0.89
      P1  H  8011  8017       L1    13  0.58

> <Gold.Chemscore.Hbond.Weighted>
-5.3479

> <Gold.Chemscore.Metal.Weighted>
-0.0000

> <Gold.Chemscore.Lipo.Weighted>
-9.9502

> <Gold.Chemscore.Internal_Hbond.Weighted>
0.0000

> <Gold.Chemscore.DEClash.Weighted>
0.9350

> <Gold.Chemscore.DEInternal.Weighted>
2.0438

> <Gold.Chemscore.Rot.Weighted>
7.5980

> <Gold.Chemscore.Internal.Correction.Weighted>
   9.000000E+99

> <Gold.Protein.RotatedTorsions>
[ 6907 6896 6895 6894 ] final   90.34 input  -60.11 | X-H torsion
[ 7974 7965 7964 7962 ] final  133.67 input  175.53 | X-H torsion
[ 8008 7997 7996 7995 ] final  128.83 input   59.86 | X-H torsion
[ 10167 10162 10161 10158 ] final   -0.81 input  -65.29 | X-H torsion
[ 10718 10713 10712 10709 ] final -108.37 input   66.30 | X-H torsion
[ 10763 10752 10751 10750 ] final -111.24 input  -60.55 | X-H torsion
[ 11005 11000 10999 10996 ] final  107.83 input  -57.11 | X-H torsion

> <Gold.Protein.ActiveResidues>
 VAL166  LYS551  ARG553  GLY616  TRP617  ASP618  TYR619  PRO620  LYS621  CYS622 
 ASP623  PHE694  ASN695  SER759  ASP760  ASP761  ALA762  ILE779  LEU786  VAL792 
 PHE793  MET794  SER795  GLU796  ALA797  LYS798  CYS799  TRP800  GLU811  SER814 

> <Gold.Protein.RotatedAtoms>
  152.5444  134.1827  159.8641 H   0  0  0  0  0  0  0  0  0  0  0  0  # atno 6907 bound_to 6896
  151.1828  133.4707  159.2601 H   0  0  0  0  0  0  0  0  0  0  0  0  # atno 6908 bound_to 6896
  151.1161  135.0065  159.8572 H   0  0  0  0  0  0  0  0  0  0  0  0  # atno 6909 bound_to 6896
  144.9841  139.4474  143.5372 H   0  0  0  0  0  0  0  0  0  0  0  0  # atno 7974 bound_to 7965
  156.2923  140.2635  156.2500 H   0  0  0  0  0  0  0  0  0  0  0  0  # atno 8008 bound_to 7997
  154.9892  140.0389  157.2330 H   0  0  0  0  0  0  0  0  0  0  0  0  # atno 8009 bound_to 7997
  154.7702  140.2776  155.6149 H   0  0  0  0  0  0  0  0  0  0  0  0  # atno 8010 bound_to 7997
  140.6784  143.6849  150.8075 H   0  0  0  0  0  0  0  0  0  0  0  0  # atno 10167 bound_to 10162
  156.0482  130.5709  150.7951 H   0  0  0  0  0  0  0  0  0  0  0  0  # atno 10718 bound_to 10713
  154.8290  135.4535  154.1008 H   0  0  0  0  0  0  0  0  0  0  0  0  # atno 10763 bound_to 10752
  153.2298  135.6904  153.7910 H   0  0  0  0  0  0  0  0  0  0  0  0  # atno 10764 bound_to 10752
  153.7297  135.3329  155.3259 H   0  0  0  0  0  0  0  0  0  0  0  0  # atno 10765 bound_to 10752
  139.8834  134.9412  156.5880 H   0  0  0  0  0  0  0  0  0  0  0  0  # atno 11005 bound_to 11000
  146.3415  139.9132  142.8777 LP  0  0  0  0  0  0  0  0  0  0  0  0  # atno 17320 bound_to 7965
  145.2379  140.9998  143.3953 LP  0  0  0  0  0  0  0  0  0  0  0  0  # atno 17321 bound_to 7965
  140.0546  143.5215  152.2657 LP  0  0  0  0  0  0  0  0  0  0  0  0  # atno 17342 bound_to 10162
  139.6090  144.7604  151.2996 LP  0  0  0  0  0  0  0  0  0  0  0  0  # atno 17343 bound_to 10162
  157.5381  131.0939  150.9865 LP  0  0  0  0  0  0  0  0  0  0  0  0  # atno 17370 bound_to 10713
  157.0155  130.5653  149.5325 LP  0  0  0  0  0  0  0  0  0  0  0  0  # atno 17371 bound_to 10713
  140.7977  133.8530  155.8700 LP  0  0  0  0  0  0  0  0  0  0  0  0  # atno 17394 bound_to 11000
  140.9620  134.1643  157.4646 LP  0  0  0  0  0  0  0  0  0  0  0  0  # atno 17395 bound_to 11000

$$$$
