AV-unprocessed.smi:2331|AV-procd|sdf|9317|dock8
  -GOLD-   2272012533D 1   1.00000     0.00000
 Structure written by MMmdl.
 50 51  0  0  0  0  0  0  0  0  2 V2000
  152.6808  138.3193  155.3097 C   0  0  0  0  0  0  0  0  0  0  0  0
  151.1916  138.1459  155.6752 C   0  0  0  0  0  0  0  0  0  0  0  0
  150.6265  137.0254  154.7686 C   0  0  0  0  0  0  0  0  0  0  0  0
  151.0850  137.6759  157.1492 C   0  0  0  0  0  0  0  0  0  0  0  0
  151.8853  138.5080  158.0431 N   0  0  0  0  0  0  0  0  0  0  0  0
  152.1964  138.2200  159.3169 C   0  0  0  0  0  0  0  0  0  0  0  0
  151.8539  137.1718  159.8641 O   0  0  0  0  0  0  0  0  0  0  0  0
  152.9805  139.1531  159.9086 N   0  0  0  0  0  0  0  0  0  0  0  0
  153.9279  138.8459  160.9902 C   0  0  0  0  0  0  0  0  0  0  0  0
  154.8673  140.0437  161.1113 C   0  0  0  0  0  0  0  0  0  0  0  0
  154.7252  140.7715  159.7824 C   0  0  0  0  0  0  0  0  0  0  0  0
  153.2907  140.4658  159.3141 C   0  0  2  0  0  0  0  0  0  0  0  0
  152.2403  141.5853  159.6365 C   0  0  0  0  0  0  0  0  0  0  0  0
  152.3245  141.9912  161.1214 C   0  0  0  0  0  0  0  0  0  0  0  0
  152.3649  142.8541  158.7696 C   0  0  0  0  0  0  0  0  0  0  0  0
  150.9296  141.0904  159.4366 O   0  0  0  0  0  0  0  0  0  0  0  0
  150.4555  139.4882  155.4876 C   0  0  0  0  0  0  0  0  0  0  0  0
  149.3073  139.6234  154.6642 C   0  0  0  0  0  0  0  0  0  0  0  0
  148.6706  140.8758  154.5502 C   0  0  0  0  0  0  0  0  0  0  0  0
  149.1526  141.9415  155.2229 N   0  3  0  0  0  0  0  0  0  0  0  0
  150.2398  141.8685  156.0182 C   0  0  0  0  0  0  0  0  0  0  0  0
  150.9165  140.6418  156.1699 C   0  0  0  0  0  0  0  0  0  0  0  0
  153.2255  137.3796  155.4092 H   0  0  0  0  0  0  0  0  0  0  0  0
  153.1802  139.0457  155.9507 H   0  0  0  0  0  0  0  0  0  0  0  0
  152.7979  138.6568  154.2792 H   0  0  0  0  0  0  0  0  0  0  0  0
  151.1683  136.0902  154.9152 H   0  0  0  0  0  0  0  0  0  0  0  0
  150.7148  137.2794  153.7115 H   0  0  0  0  0  0  0  0  0  0  0  0
  149.5764  136.8174  154.9776 H   0  0  0  0  0  0  0  0  0  0  0  0
  150.0392  137.6683  157.4624 H   0  0  0  0  0  0  0  0  0  0  0  0
  151.4382  136.6495  157.2524 H   0  0  0  0  0  0  0  0  0  0  0  0
  152.2308  139.3781  157.6658 H   0  0  0  0  0  0  0  0  0  0  0  0
  153.4097  138.6571  161.9315 H   0  0  0  0  0  0  0  0  0  0  0  0
  154.5027  137.9536  160.7357 H   0  0  0  0  0  0  0  0  0  0  0  0
  154.5391  140.6892  161.9264 H   0  0  0  0  0  0  0  0  0  0  0  0
  155.8966  139.7510  161.3202 H   0  0  0  0  0  0  0  0  0  0  0  0
  154.9557  141.8329  159.8661 H   0  0  0  0  0  0  0  0  0  0  0  0
  155.4323  140.3462  159.0688 H   0  0  0  0  0  0  0  0  0  0  0  0
  153.3221  140.3541  158.2285 H   0  0  0  0  0  0  0  0  0  0  0  0
  153.3068  142.4002  161.3600 H   0  0  0  0  0  0  0  0  0  0  0  0
  152.1499  141.1502  161.7917 H   0  0  0  0  0  0  0  0  0  0  0  0
  151.5861  142.7552  161.3686 H   0  0  0  0  0  0  0  0  0  0  0  0
  153.3525  143.3047  158.8692 H   0  0  0  0  0  0  0  0  0  0  0  0
  151.6357  143.6092  159.0658 H   0  0  0  0  0  0  0  0  0  0  0  0
  152.1922  142.6478  157.7133 H   0  0  0  0  0  0  0  0  0  0  0  0
  150.9865  140.1759  159.2050 H   0  0  0  0  0  0  0  0  0  0  0  0
  148.8942  138.7906  154.1164 H   0  0  0  0  0  0  0  0  0  0  0  0
  147.7935  141.0547  153.9453 H   0  0  0  0  0  0  0  0  0  0  0  0
  150.5330  142.7861  156.5074 H   0  0  0  0  0  0  0  0  0  0  0  0
  151.7822  140.5932  156.8136 H   0  0  0  0  0  0  0  0  0  0  0  0
  148.6752  142.8381  155.1267 H   0  0  0  0  0  0  0  0  0  0  0  0
  1  2  1  0  0  0  0
  1 23  1  0  0  0  0
  1 24  1  0  0  0  0
  1 25  1  0  0  0  0
  2  3  1  0  0  0  0
  2  4  1  0  0  0  0
  2 17  1  0  0  0  0
  3 26  1  0  0  0  0
  3 27  1  0  0  0  0
  3 28  1  0  0  0  0
  4  5  1  0  0  0  0
  4 29  1  0  0  0  0
  4 30  1  0  0  0  0
  5  6  1  0  0  0  0
  5 31  1  0  0  0  0
  6  7  2  0  0  0  0
  6  8  1  0  0  0  0
  8 12  1  0  0  0  0
  8  9  1  0  0  0  0
  9 10  1  0  0  0  0
  9 32  1  0  0  0  0
  9 33  1  0  0  0  0
 10 11  1  0  0  0  0
 10 34  1  0  0  0  0
 10 35  1  0  0  0  0
 11 12  1  0  0  0  0
 11 36  1  0  0  0  0
 11 37  1  0  0  0  0
 12 13  1  0  0  0  0
 12 38  1  0  0  0  0
 13 14  1  0  0  0  0
 13 15  1  0  0  0  0
 13 16  1  0  0  0  0
 14 39  1  0  0  0  0
 14 40  1  0  0  0  0
 14 41  1  0  0  0  0
 15 42  1  0  0  0  0
 15 43  1  0  0  0  0
 15 44  1  0  0  0  0
 16 45  1  0  0  0  0
 17 22  1  0  0  0  0
 17 18  2  0  0  0  0
 18 19  1  0  0  0  0
 18 46  1  0  0  0  0
 19 20  2  0  0  0  0
 19 47  1  0  0  0  0
 20 21  1  0  0  0  0
 20 50  1  0  0  0  0
 21 22  2  0  0  0  0
 21 48  1  0  0  0  0
 22 49  1  0  0  0  0
M  CHG  1  20   1
M  END
> <s_m_source_file>
AV-unprocessed.smi

> <i_m_source_file_index>
2331

> <i_lp_mmshare_version>
43012

> <i_f3d_flags>
0

> <s_epik_input>
W2NIXTFbY0hdbltjSF1bY0hdYzFDKFtDSDNdKShbQ0gzXSlbQ0gyXVtOSF1DKD1PKU4yW0NIMl1bQ0gyXVtDSDJdW0NASF0yQyhbQ0gzXSkoW0NIM10pW09IXQ==

> <s_epik_cmdline>
J2VwaWtfcHl0aG9uJywgJy1waCcsICc3LjAnLCAnLXRuJywgJzgnLCAnLW1hJywgJzIwMCcsICctbWV0YWxfYmluZGluZycsICctaW1hZScsICc8aW5maWxlLm1hZT4nLCAnLW9tYWUnLCAnPG91dGZpbGUubWFlPic=

> <r_epik_Ionization_Penalty>
1.40501

> <r_epik_Ionization_Penalty_Charging>
1.40494

> <r_epik_Ionization_Penalty_Neutral>
7.00889e-05

> <r_epik_State_Penalty>
1.48741

> <r_epik_Charging_Adjusted_Penalty>
2.89235

> <i_epik_Tot_Q>
1

> <i_epik_Tot_abs_Q>
1

> <r_epik_Metal_State_Penalty>
1.54092

> <b_epik_Metal_Only>
0

> <s_lp_Force_Field>
OPLS_2005

> <r_lp_Energy>
57.0606

> <b_lp_Chiralities_Consistent>
1

> <s_lp_Variant>
AV-unprocessed.smi:2331-4

> <Gold.Version>
5.8.1

> <Gold.Id.Protein>
6NUR|6NUR_protein|mol2

> <Gold.PLP.Fitness>
50.0665

> <Gold.PLP.PLP>
-43.3018

> <Gold.PLP.part.hbond>
-2.4071

> <Gold.PLP.part.metal>
0.0000

> <Gold.PLP.part.buried>
-5.2080

> <Gold.PLP.part.nonpolar>
-36.4986

> <Gold.PLP.part.repulsive>
0.2657

> <Gold.PLP.ligand.clash>
0.9203

> <Gold.PLP.ligand.torsion>
0.6294

> <Gold.PLP.Chemscore.Hbond>
2.8938

> <Gold.PLP.Chemscore.CHOScore>
0.0000

> <Gold.PLP.Chemscore.Metal>
0.0000

> <Gold.Chemscore.Hbonds>
donor molecule, donor type, donor heavy atom, donor atom, acceptor molecule, acceptor atom, score
      L1  H    20    50       P1  8028  1.63
      P1  H  6896  6908       L1     7  0.96

> <Gold.PLP.Chemscore.Internal.Correction>
0.2624

> <Gold.Rescore>
     Score         DG    S(hbond)    S(metal)    S(lipo)     H(rot)  DE(clash)    DE(int)     intcor
     19.58     -21.43       1.94        0.00     125.09       2.02       0.06       1.79       ----

> <Gold.Chemscore.Fitness>
19.5756

> <Gold.Chemscore.DG>
-21.4286

> <Gold.Chemscore.ZeroCoef>
-5.4800

> <Gold.Chemscore.Hbond>
1.9408

> <Gold.Chemscore.Metal>
0.0000

> <Gold.Chemscore.Lipo>
125.0910

> <Gold.Chemscore.Internal_Hbond>
0.0000

> <Gold.Chemscore.DEClash>
0.0617

> <Gold.Chemscore.DEInternal>
1.7913

> <Gold.Chemscore.Rot>
2.0192

> <Gold.Chemscore.Internal.Correction>
   9.000000E+99

> <Gold.Chemscore.Hbonds>
donor molecule, donor type, donor heavy atom, donor atom, acceptor molecule, acceptor atom, score
      L1  H    20    50       P1  8028  0.81
      P1  H  6896  6908       L1     7  0.91

> <Gold.Chemscore.Hbond.Weighted>
-6.4821

> <Gold.Chemscore.Metal.Weighted>
-0.0000

> <Gold.Chemscore.Lipo.Weighted>
-14.6356

> <Gold.Chemscore.Internal_Hbond.Weighted>
0.0000

> <Gold.Chemscore.DEClash.Weighted>
0.0617

> <Gold.Chemscore.DEInternal.Weighted>
1.7913

> <Gold.Chemscore.Rot.Weighted>
5.1691

> <Gold.Chemscore.Internal.Correction.Weighted>
   9.000000E+99

> <Gold.Protein.RotatedTorsions>
[ 6907 6896 6895 6894 ] final -104.28 input  -60.11 | X-H torsion
[ 7974 7965 7964 7962 ] final  -19.31 input  175.53 | X-H torsion
[ 8008 7997 7996 7995 ] final  117.26 input   59.86 | X-H torsion
[ 10167 10162 10161 10158 ] final   42.44 input  -65.29 | X-H torsion
[ 10718 10713 10712 10709 ] final -175.56 input   66.30 | X-H torsion
[ 10763 10752 10751 10750 ] final   45.95 input  -60.55 | X-H torsion
[ 11005 11000 10999 10996 ] final   23.50 input  -57.11 | X-H torsion

> <Gold.Protein.ActiveResidues>
 VAL166  LYS551  ARG553  GLY616  TRP617  ASP618  TYR619  PRO620  LYS621  CYS622 
 ASP623  PHE694  ASN695  SER759  ASP760  ASP761  ALA762  ILE779  LEU786  VAL792 
 PHE793  MET794  SER795  GLU796  ALA797  LYS798  CYS799  TRP800  GLU811  SER814 

> <Gold.Protein.RotatedAtoms>
  150.7280  134.0301  159.3730 H   0  0  0  0  0  0  0  0  0  0  0  0  # atno 6907 bound_to 6896
  151.8270  135.0631  160.0441 H   0  0  0  0  0  0  0  0  0  0  0  0  # atno 6908 bound_to 6896
  152.2962  133.5573  159.5625 H   0  0  0  0  0  0  0  0  0  0  0  0  # atno 6909 bound_to 6896
  146.1847  140.4045  142.8481 H   0  0  0  0  0  0  0  0  0  0  0  0  # atno 7974 bound_to 7965
  156.2485  140.2900  156.0651 H   0  0  0  0  0  0  0  0  0  0  0  0  # atno 8008 bound_to 7997
  155.1732  140.0402  157.2884 H   0  0  0  0  0  0  0  0  0  0  0  0  # atno 8009 bound_to 7997
  154.6311  140.2499  155.7440 H   0  0  0  0  0  0  0  0  0  0  0  0  # atno 8010 bound_to 7997
  140.3544  144.2309  150.6143 H   0  0  0  0  0  0  0  0  0  0  0  0  # atno 10167 bound_to 10162
  156.8016  130.9554  151.3118 H   0  0  0  0  0  0  0  0  0  0  0  0  # atno 10718 bound_to 10713
  152.9817  135.6023  154.3521 H   0  0  0  0  0  0  0  0  0  0  0  0  # atno 10763 bound_to 10752
  154.3209  135.2769  155.2521 H   0  0  0  0  0  0  0  0  0  0  0  0  # atno 10764 bound_to 10752
  154.4688  135.5947  153.6363 H   0  0  0  0  0  0  0  0  0  0  0  0  # atno 10765 bound_to 10752
  140.3690  134.2043  155.7668 H   0  0  0  0  0  0  0  0  0  0  0  0  # atno 11005 bound_to 11000
  144.8377  140.6808  143.6250 LP  0  0  0  0  0  0  0  0  0  0  0  0  # atno 17320 bound_to 7965
  145.3972  139.1604  143.4197 LP  0  0  0  0  0  0  0  0  0  0  0  0  # atno 17321 bound_to 7965
  140.5188  143.2271  151.8421 LP  0  0  0  0  0  0  0  0  0  0  0  0  # atno 17342 bound_to 10162
  139.4822  144.4862  151.9244 LP  0  0  0  0  0  0  0  0  0  0  0  0  # atno 17343 bound_to 10162
  157.6551  130.8917  149.9711 LP  0  0  0  0  0  0  0  0  0  0  0  0  # atno 17370 bound_to 10713
  156.1097  130.3650  150.0070 LP  0  0  0  0  0  0  0  0  0  0  0  0  # atno 17371 bound_to 10713
  141.1960  133.8091  157.0688 LP  0  0  0  0  0  0  0  0  0  0  0  0  # atno 17394 bound_to 11000
  140.0567  134.9777  157.1233 LP  0  0  0  0  0  0  0  0  0  0  0  0  # atno 17395 bound_to 11000

$$$$
