AV-unprocessed.smi:3071|AV-procd|sdf|11715|dock8
  -GOLD-   2272017113D 1   1.00000     0.00000
 Structure written by MMmdl.
 29 30  0  0  0  0  0  0  0  0  3 V2000
  153.6682  141.2287  159.6557 C   0  0  0  0  0  0  0  0  0  0  0  0
  153.0848  142.4087  160.3642 C   0  0  0  0  0  0  0  0  0  0  0  0
  153.1075  142.6095  161.6869 N   0  3  0  0  0  0  0  0  0  0  0  0
  152.4784  143.7828  162.0024 C   0  0  0  0  0  0  0  0  0  0  0  0
  152.0524  144.3238  160.8178 C   0  0  0  0  0  0  0  0  0  0  0  0
  152.4420  143.4594  159.8256 N   0  0  0  0  0  0  0  0  0  0  0  0
  152.2044  143.6225  158.3840 C   0  0  0  0  0  0  0  0  0  0  0  0
  150.9737  142.8404  157.8866 C   0  0  2  0  0  0  0  0  0  0  0  0
  151.0103  141.3325  158.1547 C   0  0  0  0  0  0  0  0  0  0  0  0
  150.0528  140.7811  157.1054 C   0  0  0  0  0  0  0  0  0  0  0  0
  150.2908  141.6884  155.8957 C   0  0  0  0  0  0  0  0  0  0  0  0
  150.7850  142.9750  156.4278 N   0  3  0  0  0  0  0  0  0  0  0  0
  154.1638  140.5861  160.3842 H   0  0  0  0  0  0  0  0  0  0  0  0
  154.3914  141.5792  158.9201 H   0  0  0  0  0  0  0  0  0  0  0  0
  152.8632  140.6810  159.1652 H   0  0  0  0  0  0  0  0  0  0  0  0
  152.3828  144.1346  163.0194 H   0  0  0  0  0  0  0  0  0  0  0  0
  151.5156  145.2393  160.6140 H   0  0  0  0  0  0  0  0  0  0  0  0
  152.1038  144.6865  158.1664 H   0  0  0  0  0  0  0  0  0  0  0  0
  153.1024  143.2836  157.8652 H   0  0  0  0  0  0  0  0  0  0  0  0
  150.0744  143.2434  158.3541 H   0  0  0  0  0  0  0  0  0  0  0  0
  152.0125  140.9376  157.9813 H   0  0  0  0  0  0  0  0  0  0  0  0
  150.7165  141.0740  159.1726 H   0  0  0  0  0  0  0  0  0  0  0  0
  150.2242  139.7270  156.8847 H   0  0  0  0  0  0  0  0  0  0  0  0
  149.0241  140.8880  157.4530 H   0  0  0  0  0  0  0  0  0  0  0  0
  151.0608  141.2655  155.2494 H   0  0  0  0  0  0  0  0  0  0  0  0
  149.3885  141.8250  155.2990 H   0  0  0  0  0  0  0  0  0  0  0  0
  150.1284  143.7172  156.2305 H   0  0  0  0  0  0  0  0  0  0  0  0
  151.6711  143.1825  155.9888 H   0  0  0  0  0  0  0  0  0  0  0  0
  153.5290  141.9790  162.3579 H   0  0  0  0  0  0  0  0  0  0  0  0
  1  2  1  0  0  0  0
  1 13  1  0  0  0  0
  1 14  1  0  0  0  0
  1 15  1  0  0  0  0
  2  6  1  0  0  0  0
  2  3  2  0  0  0  0
  3  4  1  0  0  0  0
  3 29  1  0  0  0  0
  4  5  2  0  0  0  0
  4 16  1  0  0  0  0
  5  6  1  0  0  0  0
  5 17  1  0  0  0  0
  6  7  1  0  0  0  0
  7  8  1  0  0  0  0
  7 18  1  0  0  0  0
  7 19  1  0  0  0  0
  8 12  1  0  0  0  0
  8  9  1  0  0  0  0
  8 20  1  0  0  0  0
  9 10  1  0  0  0  0
  9 21  1  0  0  0  0
  9 22  1  0  0  0  0
 10 11  1  0  0  0  0
 10 23  1  0  0  0  0
 10 24  1  0  0  0  0
 11 12  1  0  0  0  0
 11 25  1  0  0  0  0
 11 26  1  0  0  0  0
 12 27  1  0  0  0  0
 12 28  1  0  0  0  0
M  CHG  1   3   1
M  CHG  1  12   1
M  END
> <s_m_source_file>
AV-unprocessed.smi

> <i_m_source_file_index>
3071

> <i_lp_mmshare_version>
43012

> <i_f3d_flags>
0

> <s_epik_input>
W0NIM11jMW5bY0hdW2NIXW4xW0NIMl1bQ0BASF0yW0NIMl1bQ0gyXVtDSDJdW05IXTI=

> <s_epik_cmdline>
J2VwaWtfcHl0aG9uJywgJy1waCcsICc3LjAnLCAnLXRuJywgJzgnLCAnLW1hJywgJzIwMCcsICctbWV0YWxfYmluZGluZycsICctaW1hZScsICc8aW5maWxlLm1hZT4nLCAnLW9tYWUnLCAnPG91dGZpbGUubWFlPic=

> <r_lp_tautomer_probability>
1

> <r_epik_Ionization_Penalty>
0.770167

> <r_epik_Ionization_Penalty_Charging>
0.000985251

> <r_epik_Ionization_Penalty_Neutral>
0.769181

> <r_epik_State_Penalty>
0.493256

> <r_epik_Charging_Adjusted_Penalty>
0.494241

> <i_epik_Tot_Q>
2

> <i_epik_Tot_abs_Q>
2

> <r_epik_Metal_State_Penalty>
4.24699

> <b_epik_Metal_Only>
0

> <s_lp_Force_Field>
OPLS_2005

> <r_lp_Energy>
34.2939

> <b_lp_Chiralities_Consistent>
1

> <s_lp_Variant>
AV-unprocessed.smi:3071-3

> <Gold.Version>
5.8.1

> <Gold.Id.Protein>
6NUR|6NUR_protein|mol2

> <Gold.PLP.Fitness>
38.8357

> <Gold.PLP.PLP>
-33.4801

> <Gold.PLP.part.hbond>
-1.0000

> <Gold.PLP.part.metal>
0.0000

> <Gold.PLP.part.buried>
-5.1546

> <Gold.PLP.part.nonpolar>
-27.5956

> <Gold.PLP.part.repulsive>
0.1294

> <Gold.PLP.ligand.clash>
0.0000

> <Gold.PLP.ligand.torsion>
0.3225

> <Gold.PLP.Chemscore.Hbond>
2.0000

> <Gold.PLP.Chemscore.CHOScore>
0.0000

> <Gold.PLP.Chemscore.Metal>
0.0000

> <Gold.Chemscore.Hbonds>
donor molecule, donor type, donor heavy atom, donor atom, acceptor molecule, acceptor atom, score
      L1  H    12    27       P1  8028  2.00

> <Gold.PLP.Chemscore.Internal.Correction>
0.0005

> <Gold.Rescore>
     Score         DG    S(hbond)    S(metal)    S(lipo)     H(rot)  DE(clash)    DE(int)     intcor
     14.12     -14.47       1.00        0.00      75.58       1.25       0.00       0.34       ----

> <Gold.Chemscore.Fitness>
14.1212

> <Gold.Chemscore.DG>
-14.4653

> <Gold.Chemscore.ZeroCoef>
-5.4800

> <Gold.Chemscore.Hbond>
0.9989

> <Gold.Chemscore.Metal>
0.0000

> <Gold.Chemscore.Lipo>
75.5811

> <Gold.Chemscore.Internal_Hbond>
0.0000

> <Gold.Chemscore.DEClash>
0.0029

> <Gold.Chemscore.DEInternal>
0.3412

> <Gold.Chemscore.Rot>
1.2477

> <Gold.Chemscore.Internal.Correction>
   9.000000E+99

> <Gold.Chemscore.Hbonds>
donor molecule, donor type, donor heavy atom, donor atom, acceptor molecule, acceptor atom, score
      L1  H    12    27       P1  8028  1.00

> <Gold.Chemscore.Hbond.Weighted>
-3.3364

> <Gold.Chemscore.Metal.Weighted>
-0.0000

> <Gold.Chemscore.Lipo.Weighted>
-8.8430

> <Gold.Chemscore.Internal_Hbond.Weighted>
0.0000

> <Gold.Chemscore.DEClash.Weighted>
0.0029

> <Gold.Chemscore.DEInternal.Weighted>
0.3412

> <Gold.Chemscore.Rot.Weighted>
3.1941

> <Gold.Chemscore.Internal.Correction.Weighted>
   9.000000E+99

> <Gold.Protein.RotatedTorsions>
[ 6907 6896 6895 6894 ] final  -96.28 input  -60.11 | X-H torsion
[ 7974 7965 7964 7962 ] final  -66.75 input  175.53 | X-H torsion
[ 8008 7997 7996 7995 ] final -118.91 input   59.86 | X-H torsion
[ 10167 10162 10161 10158 ] final -164.26 input  -65.29 | X-H torsion
[ 10718 10713 10712 10709 ] final  174.05 input   66.30 | X-H torsion
[ 10763 10752 10751 10750 ] final   94.65 input  -60.55 | X-H torsion
[ 11005 11000 10999 10996 ] final   85.65 input  -57.11 | X-H torsion

> <Gold.Protein.ActiveResidues>
 VAL166  LYS551  ARG553  GLY616  TRP617  ASP618  TYR619  PRO620  LYS621  CYS622 
 ASP623  PHE694  ASN695  SER759  ASP760  ASP761  ALA762  ILE779  LEU786  VAL792 
 PHE793  MET794  SER795  GLU796  ALA797  LYS798  CYS799  TRP800  GLU811  SER814 

> <Gold.Protein.RotatedAtoms>
  150.6984  134.1527  159.4146 H   0  0  0  0  0  0  0  0  0  0  0  0  # atno 6907 bound_to 6896
  151.9510  135.0167  160.0551 H   0  0  0  0  0  0  0  0  0  0  0  0  # atno 6908 bound_to 6896
  152.2011  133.4806  159.5096 H   0  0  0  0  0  0  0  0  0  0  0  0  # atno 6909 bound_to 6896
  145.7378  140.8967  143.0546 H   0  0  0  0  0  0  0  0  0  0  0  0  # atno 7974 bound_to 7965
  155.1073  140.0397  157.2714 H   0  0  0  0  0  0  0  0  0  0  0  0  # atno 8008 bound_to 7997
  154.6712  140.2612  155.6979 H   0  0  0  0  0  0  0  0  0  0  0  0  # atno 8009 bound_to 7997
  156.2659  140.2797  156.1222 H   0  0  0  0  0  0  0  0  0  0  0  0  # atno 8010 bound_to 7997
  139.6263  144.0527  152.1977 H   0  0  0  0  0  0  0  0  0  0  0  0  # atno 10167 bound_to 10162
  156.9552  131.0043  151.2940 H   0  0  0  0  0  0  0  0  0  0  0  0  # atno 10718 bound_to 10713
  153.2440  135.4282  155.0728 H   0  0  0  0  0  0  0  0  0  0  0  0  # atno 10763 bound_to 10752
  154.8353  135.3409  154.6608 H   0  0  0  0  0  0  0  0  0  0  0  0  # atno 10764 bound_to 10752
  153.7031  135.7027  153.5114 H   0  0  0  0  0  0  0  0  0  0  0  0  # atno 10765 bound_to 10752
  139.8966  134.8301  156.2611 H   0  0  0  0  0  0  0  0  0  0  0  0  # atno 11005 bound_to 11000
  144.6877  139.9419  143.7475 LP  0  0  0  0  0  0  0  0  0  0  0  0  # atno 17320 bound_to 7965
  146.0477  139.3481  143.0659 LP  0  0  0  0  0  0  0  0  0  0  0  0  # atno 17321 bound_to 7965
  140.0181  144.6174  150.7590 LP  0  0  0  0  0  0  0  0  0  0  0  0  # atno 17342 bound_to 10162
  140.7412  143.2815  151.3584 LP  0  0  0  0  0  0  0  0  0  0  0  0  # atno 17343 bound_to 10162
  157.5695  130.8300  149.8372 LP  0  0  0  0  0  0  0  0  0  0  0  0  # atno 17370 bound_to 10713
  156.0345  130.3755  150.1596 LP  0  0  0  0  0  0  0  0  0  0  0  0  # atno 17371 bound_to 10713
  141.0162  133.7067  156.1192 LP  0  0  0  0  0  0  0  0  0  0  0  0  # atno 17394 bound_to 11000
  140.7298  134.4266  157.5567 LP  0  0  0  0  0  0  0  0  0  0  0  0  # atno 17395 bound_to 11000

$$$$
