AV-unprocessed.smi:1406|AV-procd|sdf|5724|dock4
  -GOLD-   22720 5353D 1   1.00000     0.00000
 Structure written by MMmdl.
 41 43  0  0  0  0  0  0  0  0  2 V2000
  153.7903  137.2103  157.6596 C   0  0  0  0  0  0  0  0  0  0  0  0
  152.3327  137.6657  157.4447 C   0  0  1  0  0  0  0  0  0  0  0  0
  151.8922  138.7266  158.4647 C   0  0  0  0  0  0  0  0  0  0  0  0
  150.8285  138.6086  159.0738 O   0  0  0  0  0  0  0  0  0  0  0  0
  152.7249  139.7651  158.6390 N   0  0  0  0  0  0  0  0  0  0  0  0
  152.5007  140.8820  159.5518 C   0  0  1  0  0  0  0  0  0  0  0  0
  153.4831  140.9074  160.7164 C   0  0  0  0  0  0  0  0  0  0  0  0
  153.3765  142.3558  161.1961 C   0  0  0  0  0  0  0  0  0  0  0  0
  153.1306  143.1685  159.9829 N   0  3  2  0  0  0  0  0  0  0  0  0
  152.2508  144.3439  160.1948 C   0  0  0  0  0  0  0  0  0  0  0  0
  152.0700  145.1305  158.8836 C   0  0  0  0  0  0  0  0  0  0  0  0
  151.6567  144.2373  157.6950 C   0  0  0  0  0  0  0  0  0  0  0  0
  151.4923  142.7633  158.0970 C   0  0  0  0  0  0  0  0  0  0  0  0
  152.7209  142.2499  158.8825 C   0  0  2  0  0  0  0  0  0  0  0  0
  152.0944  138.1424  156.0879 N   0  0  0  0  0  0  0  0  0  0  0  0
  151.7644  139.3606  155.6534 C   0  0  0  0  0  0  0  0  0  0  0  0
  151.6735  139.4565  154.3345 N   0  0  0  0  0  0  0  0  0  0  0  0
  151.9910  138.1733  153.9904 C   0  0  0  0  0  0  0  0  0  0  0  0
  152.2637  137.3484  155.0011 N   0  0  0  0  0  0  0  0  0  0  0  0
  153.9338  136.8172  158.6666 H   0  0  0  0  0  0  0  0  0  0  0  0
  154.5015  138.0256  157.5201 H   0  0  0  0  0  0  0  0  0  0  0  0
  154.0560  136.4177  156.9597 H   0  0  0  0  0  0  0  0  0  0  0  0
  151.6999  136.7883  157.5894 H   0  0  0  0  0  0  0  0  0  0  0  0
  153.5786  139.7804  158.0999 H   0  0  0  0  0  0  0  0  0  0  0  0
  151.4928  140.8326  159.9699 H   0  0  0  0  0  0  0  0  0  0  0  0
  153.2390  140.1847  161.4957 H   0  0  0  0  0  0  0  0  0  0  0  0
  154.4970  140.7031  160.3677 H   0  0  0  0  0  0  0  0  0  0  0  0
  152.5319  142.4456  161.8815 H   0  0  0  0  0  0  0  0  0  0  0  0
  154.2701  142.6884  161.7246 H   0  0  0  0  0  0  0  0  0  0  0  0
  151.2811  144.0153  160.5726 H   0  0  0  0  0  0  0  0  0  0  0  0
  152.6831  144.9888  160.9606 H   0  0  0  0  0  0  0  0  0  0  0  0
  151.3302  145.9180  159.0314 H   0  0  0  0  0  0  0  0  0  0  0  0
  153.0031  145.6395  158.6383 H   0  0  0  0  0  0  0  0  0  0  0  0
  150.7295  144.6046  157.2538 H   0  0  0  0  0  0  0  0  0  0  0  0
  152.4128  144.3117  156.9123 H   0  0  0  0  0  0  0  0  0  0  0  0
  150.5901  142.6543  158.7006 H   0  0  0  0  0  0  0  0  0  0  0  0
  151.3325  142.1546  157.2068 H   0  0  0  0  0  0  0  0  0  0  0  0
  153.5758  142.1903  158.2068 H   0  0  0  0  0  0  0  0  0  0  0  0
  151.5913  140.1964  156.3152 H   0  0  0  0  0  0  0  0  0  0  0  0
  152.0303  137.8389  152.9642 H   0  0  0  0  0  0  0  0  0  0  0  0
  154.0276  143.5377  159.7010 H   0  0  0  0  0  0  0  0  0  0  0  0
  1  2  1  0  0  0  0
  1 20  1  0  0  0  0
  1 21  1  0  0  0  0
  1 22  1  0  0  0  0
  2  3  1  0  0  0  0
  2 15  1  0  0  0  0
  2 23  1  0  0  0  0
  3  4  2  0  0  0  0
  3  5  1  0  0  0  0
  5  6  1  0  0  0  0
  5 24  1  0  0  0  0
  6 14  1  0  0  0  0
  6  7  1  0  0  0  0
  6 25  1  0  0  0  0
  7  8  1  0  0  0  0
  7 26  1  0  0  0  0
  7 27  1  0  0  0  0
  8  9  1  0  0  0  0
  8 28  1  0  0  0  0
  8 29  1  0  0  0  0
  9 14  1  0  0  0  0
  9 10  1  0  0  0  0
  9 41  1  0  0  0  0
 10 11  1  0  0  0  0
 10 30  1  0  0  0  0
 10 31  1  0  0  0  0
 11 12  1  0  0  0  0
 11 32  1  0  0  0  0
 11 33  1  0  0  0  0
 12 13  1  0  0  0  0
 12 34  1  0  0  0  0
 12 35  1  0  0  0  0
 13 14  1  0  0  0  0
 13 36  1  0  0  0  0
 13 37  1  0  0  0  0
 14 38  1  0  0  0  0
 15 19  1  0  0  0  0
 15 16  1  0  0  0  0
 16 17  2  0  0  0  0
 16 39  1  0  0  0  0
 17 18  1  0  0  0  0
 18 19  2  0  0  0  0
 18 40  1  0  0  0  0
M  CHG  1   9   1
M  END
> <s_m_source_file>
AV-unprocessed.smi

> <i_m_source_file_index>
1406

> <i_lp_mmshare_version>
43012

> <i_f3d_flags>
0

> <s_epik_input>
bjFbY0hdbltjSF1uMVtDQEhdKFtDSDNdKUMoPU8pW05IXVtDQEhdKFtDSDJdW0NIMl0yKVtDQEBIXShOMjMpW0NIMl1bQ0gyXVtDSDJdW0NIMl0z

> <s_epik_cmdline>
J2VwaWtfcHl0aG9uJywgJy1waCcsICc3LjAnLCAnLXRuJywgJzgnLCAnLW1hJywgJzIwMCcsICctbWV0YWxfYmluZGluZycsICctaW1hZScsICc8aW5maWxlLm1hZT4nLCAnLW9tYWUnLCAnPG91dGZpbGUubWFlPic=

> <r_lp_tautomer_probability>
1

> <r_epik_Ionization_Penalty>
0.00197066

> <r_epik_Ionization_Penalty_Charging>
0.00196223

> <r_epik_Ionization_Penalty_Neutral>
8.43107e-06

> <r_epik_State_Penalty>
0.00133866

> <r_epik_Charging_Adjusted_Penalty>
0.00330089

> <i_epik_Tot_Q>
1

> <i_epik_Tot_abs_Q>
1

> <r_epik_Metal_State_Penalty>
-0

> <b_epik_Metal_Only>
0

> <s_lp_Force_Field>
OPLS_2005

> <r_lp_Energy>
45.3415

> <b_lp_Chiralities_Consistent>
1

> <s_lp_Variant>
AV-unprocessed.smi:1406-16

> <Gold.Version>
5.8.1

> <Gold.Id.Protein>
6NUR|6NUR_protein|mol2

> <Gold.PLP.Fitness>
47.0968

> <Gold.PLP.PLP>
-39.4482

> <Gold.PLP.part.hbond>
-2.7818

> <Gold.PLP.part.metal>
0.0000

> <Gold.PLP.part.buried>
-6.3714

> <Gold.PLP.part.nonpolar>
-30.7374

> <Gold.PLP.part.repulsive>
0.3082

> <Gold.PLP.ligand.clash>
0.0000

> <Gold.PLP.ligand.torsion>
0.5230

> <Gold.PLP.Chemscore.Hbond>
1.8640

> <Gold.PLP.Chemscore.CHOScore>
1.0000

> <Gold.PLP.Chemscore.Metal>
0.0000

> <Gold.Chemscore.Hbonds>
donor molecule, donor type, donor heavy atom, donor atom, acceptor molecule, acceptor atom, score
      P1  H  7989  7998       L1    17  1.00
      P1  H 10752 10763       L1    19  0.72
      L1  C    18    40       P1  7949  1.00

> <Gold.PLP.Chemscore.Internal.Correction>
0.1026

> <Gold.Rescore>
     Score         DG    S(hbond)    S(metal)    S(lipo)     H(rot)  DE(clash)    DE(int)     intcor
     17.54     -18.07       1.82        0.00      96.81       1.89       0.01       0.52       ----

> <Gold.Chemscore.Fitness>
17.5354

> <Gold.Chemscore.DG>
-18.0700

> <Gold.Chemscore.ZeroCoef>
-5.4800

> <Gold.Chemscore.Hbond>
1.8241

> <Gold.Chemscore.Metal>
0.0000

> <Gold.Chemscore.Lipo>
96.8122

> <Gold.Chemscore.Internal_Hbond>
0.0000

> <Gold.Chemscore.DEClash>
0.0133

> <Gold.Chemscore.DEInternal>
0.5213

> <Gold.Chemscore.Rot>
1.8865

> <Gold.Chemscore.Internal.Correction>
   9.000000E+99

> <Gold.Chemscore.Hbonds>
donor molecule, donor type, donor heavy atom, donor atom, acceptor molecule, acceptor atom, score
      P1  H  7989  7998       L1    17  0.96
      P1  H 10752 10763       L1    19  0.70

> <Gold.Chemscore.Hbond.Weighted>
-6.0925

> <Gold.Chemscore.Metal.Weighted>
-0.0000

> <Gold.Chemscore.Lipo.Weighted>
-11.3270

> <Gold.Chemscore.Internal_Hbond.Weighted>
0.0000

> <Gold.Chemscore.DEClash.Weighted>
0.0133

> <Gold.Chemscore.DEInternal.Weighted>
0.5213

> <Gold.Chemscore.Rot.Weighted>
4.8295

> <Gold.Chemscore.Internal.Correction.Weighted>
   9.000000E+99

> <Gold.Protein.RotatedTorsions>
[ 6907 6896 6895 6894 ] final   11.07 input  -60.11 | X-H torsion
[ 7974 7965 7964 7962 ] final  161.64 input  175.53 | X-H torsion
[ 8008 7997 7996 7995 ] final  -25.16 input   59.86 | X-H torsion
[ 10167 10162 10161 10158 ] final   35.72 input  -65.29 | X-H torsion
[ 10718 10713 10712 10709 ] final  111.13 input   66.30 | X-H torsion
[ 10763 10752 10751 10750 ] final   63.20 input  -60.55 | X-H torsion
[ 11005 11000 10999 10996 ] final   12.91 input  -57.11 | X-H torsion

> <Gold.Protein.ActiveResidues>
 VAL166  LYS551  ARG553  GLY616  TRP617  ASP618  TYR619  PRO620  LYS621  CYS622 
 ASP623  PHE694  ASN695  SER759  ASP760  ASP761  ALA762  ILE779  LEU786  VAL792 
 PHE793  MET794  SER795  GLU796  ALA797  LYS798  CYS799  TRP800  GLU811  SER814 

> <Gold.Protein.RotatedAtoms>
  151.7485  135.0838  160.0326 H   0  0  0  0  0  0  0  0  0  0  0  0  # atno 6907 bound_to 6896
  152.3433  133.6088  159.5900 H   0  0  0  0  0  0  0  0  0  0  0  0  # atno 6908 bound_to 6896
  150.7493  133.9605  159.3556 H   0  0  0  0  0  0  0  0  0  0  0  0  # atno 6909 bound_to 6896
  144.7675  139.7927  143.6309 H   0  0  0  0  0  0  0  0  0  0  0  0  # atno 7974 bound_to 7965
  154.4490  140.1934  156.0577 H   0  0  0  0  0  0  0  0  0  0  0  0  # atno 8008 bound_to 7997
  156.0607  140.3297  155.7431 H   0  0  0  0  0  0  0  0  0  0  0  0  # atno 8009 bound_to 7997
  155.5417  140.0587  157.2859 H   0  0  0  0  0  0  0  0  0  0  0  0  # atno 8010 bound_to 7997
  140.4195  144.1479  150.6146 H   0  0  0  0  0  0  0  0  0  0  0  0  # atno 10167 bound_to 10162
  157.6460  131.0945  150.6703 H   0  0  0  0  0  0  0  0  0  0  0  0  # atno 10718 bound_to 10713
  153.0009  135.5437  154.6314 H   0  0  0  0  0  0  0  0  0  0  0  0  # atno 10763 bound_to 10752
  154.5591  135.2832  155.0938 H   0  0  0  0  0  0  0  0  0  0  0  0  # atno 10764 bound_to 10752
  154.2148  135.6461  153.5179 H   0  0  0  0  0  0  0  0  0  0  0  0  # atno 10765 bound_to 10752
  140.4866  134.0882  155.7762 H   0  0  0  0  0  0  0  0  0  0  0  0  # atno 11005 bound_to 11000
  146.1796  139.4982  142.9875 LP  0  0  0  0  0  0  0  0  0  0  0  0  # atno 17320 bound_to 7965
  145.6423  141.0281  143.1805 LP  0  0  0  0  0  0  0  0  0  0  0  0  # atno 17321 bound_to 7965
  140.4549  143.2472  151.9298 LP  0  0  0  0  0  0  0  0  0  0  0  0  # atno 17342 bound_to 10162
  139.4782  144.5525  151.8363 LP  0  0  0  0  0  0  0  0  0  0  0  0  # atno 17343 bound_to 10162
  156.7021  130.4626  149.5570 LP  0  0  0  0  0  0  0  0  0  0  0  0  # atno 17370 bound_to 10713
  156.1788  130.6485  151.0927 LP  0  0  0  0  0  0  0  0  0  0  0  0  # atno 17371 bound_to 10713
  141.1505  133.8978  157.2110 LP  0  0  0  0  0  0  0  0  0  0  0  0  # atno 17394 bound_to 11000
  139.9794  135.0103  156.9712 LP  0  0  0  0  0  0  0  0  0  0  0  0  # atno 17395 bound_to 11000

$$$$
