AV-unprocessed.smi:110|AV-procd|sdf|1065|dock4
  -GOLD-   2262018143D 1   1.00000     0.00000
 Structure written by MMmdl.
 46 50  0  0  0  0  0  0  0  0  1 V2000
  143.3198  138.1363  153.6457 O   0  0  0  0  0  0  0  0  0  0  0  0
  144.1327  137.8756  154.7699 C   0  0  0  0  0  0  0  0  0  0  0  0
  145.4941  138.5694  154.6102 C   0  0  1  0  0  0  0  0  0  0  0  0
  146.3592  138.1878  155.6803 O   0  0  0  0  0  0  0  0  0  0  0  0
  147.6896  138.1611  155.2521 C   0  0  2  0  0  0  0  0  0  0  0  0
  148.5003  139.1280  156.0636 N   0  0  0  0  0  0  0  0  0  0  0  0
  148.0458  139.9447  157.0737 C   0  0  0  0  0  0  0  0  0  0  0  0
  148.9491  140.7049  157.6290 N   0  0  0  0  0  0  0  0  0  0  0  0
  150.1247  140.3860  156.9599 C   0  0  0  0  0  0  0  0  0  0  0  0
  151.4756  140.8306  157.0473 C   0  0  0  0  0  0  0  0  0  0  0  0
  151.9247  141.7683  157.9146 N   0  0  0  0  0  0  0  0  0  0  0  0
  151.3893  143.1346  157.8285 C   0  0  0  0  0  0  0  0  0  0  0  0
  151.6617  143.8277  159.1772 C   0  0  0  0  0  0  0  0  0  0  0  0
  152.4578  142.7773  159.8817 C   0  0  0  0  0  0  0  0  0  0  0  0
  153.0557  142.8697  161.1504 C   0  0  0  0  0  0  0  0  0  0  0  0
  153.7890  141.7602  161.6223 C   0  0  0  0  0  0  0  0  0  0  0  0
  153.9189  140.5985  160.8262 C   0  0  0  0  0  0  0  0  0  0  0  0
  153.3108  140.5290  159.5534 C   0  0  0  0  0  0  0  0  0  0  0  0
  152.5611  141.6328  159.0973 C   0  0  0  0  0  0  0  0  0  0  0  0
  152.3660  140.3143  156.1628 N   0  0  0  0  0  0  0  0  0  0  0  0
  151.9756  139.3942  155.2772 C   0  0  0  0  0  0  0  0  0  0  0  0
  150.7614  138.8728  155.0987 N   0  0  0  0  0  0  0  0  0  0  0  0
  149.8503  139.4064  155.9624 C   0  0  0  0  0  0  0  0  0  0  0  0
  147.7041  138.4660  153.7419 C   0  0  2  0  0  0  0  0  0  0  0  0
  148.0419  139.8098  153.4340 O   0  0  0  0  0  0  0  0  0  0  0  0
  146.2693  138.1189  153.3705 C   0  0  2  0  0  0  0  0  0  0  0  0
  145.8335  138.7434  152.1772 O   0  0  0  0  0  0  0  0  0  0  0  0
  145.3823  139.6548  154.5934 H   0  0  0  0  0  0  0  0  0  0  0  0
  148.1115  137.1833  155.4878 H   0  0  0  0  0  0  0  0  0  0  0  0
  148.4209  137.8114  153.2452 H   0  0  0  0  0  0  0  0  0  0  0  0
  146.1814  137.0374  153.2563 H   0  0  0  0  0  0  0  0  0  0  0  0
  143.5900  138.9569  153.2628 H   0  0  0  0  0  0  0  0  0  0  0  0
  143.6302  138.1916  155.6844 H   0  0  0  0  0  0  0  0  0  0  0  0
  144.2674  136.7953  154.8306 H   0  0  0  0  0  0  0  0  0  0  0  0
  147.0124  139.9606  157.3883 H   0  0  0  0  0  0  0  0  0  0  0  0
  151.8919  143.6653  157.0189 H   0  0  0  0  0  0  0  0  0  0  0  0
  150.3215  143.1210  157.6057 H   0  0  0  0  0  0  0  0  0  0  0  0
  152.2331  144.7493  159.0623 H   0  0  0  0  0  0  0  0  0  0  0  0
  150.7411  144.0364  159.7228 H   0  0  0  0  0  0  0  0  0  0  0  0
  152.9605  143.7660  161.7453 H   0  0  0  0  0  0  0  0  0  0  0  0
  154.2604  141.8017  162.5931 H   0  0  0  0  0  0  0  0  0  0  0  0
  154.4915  139.7590  161.1920 H   0  0  0  0  0  0  0  0  0  0  0  0
  153.4268  139.6446  158.9450 H   0  0  0  0  0  0  0  0  0  0  0  0
  152.7449  139.0236  154.6162 H   0  0  0  0  0  0  0  0  0  0  0  0
  148.6725  139.8066  152.7301 H   0  0  0  0  0  0  0  0  0  0  0  0
  145.0195  139.1905  152.3515 H   0  0  0  0  0  0  0  0  0  0  0  0
  1  2  1  0  0  0  0
  1 32  1  0  0  0  0
  2  3  1  0  0  0  0
  2 33  1  0  0  0  0
  2 34  1  0  0  0  0
  3 28  1  0  0  0  0
  3 26  1  0  0  0  0
  3  4  1  0  0  0  0
  4  5  1  0  0  0  0
  5 29  1  0  0  0  0
  5  6  1  0  0  0  0
  5 24  1  0  0  0  0
  6 23  1  0  0  0  0
  6  7  1  0  0  0  0
  7  8  2  0  0  0  0
  7 35  1  0  0  0  0
  8  9  1  0  0  0  0
  9 23  2  0  0  0  0
  9 10  1  0  0  0  0
 10 11  1  0  0  0  0
 10 20  2  0  0  0  0
 11 19  1  0  0  0  0
 11 12  1  0  0  0  0
 12 13  1  0  0  0  0
 12 36  1  0  0  0  0
 12 37  1  0  0  0  0
 13 14  1  0  0  0  0
 13 38  1  0  0  0  0
 13 39  1  0  0  0  0
 14 19  2  0  0  0  0
 14 15  1  0  0  0  0
 15 16  2  0  0  0  0
 15 40  1  0  0  0  0
 16 17  1  0  0  0  0
 16 41  1  0  0  0  0
 17 18  2  0  0  0  0
 17 42  1  0  0  0  0
 18 19  1  0  0  0  0
 18 43  1  0  0  0  0
 20 21  1  0  0  0  0
 21 22  2  0  0  0  0
 21 44  1  0  0  0  0
 22 23  1  0  0  0  0
 24 30  1  0  0  0  0
 24 25  1  0  0  0  0
 24 26  1  0  0  0  0
 25 45  1  0  0  0  0
 26 31  1  0  0  0  0
 26 27  1  0  0  0  0
 27 46  1  0  0  0  0
M  END
> <s_m_source_file>
AV-unprocessed.smi

> <i_m_source_file_index>
110

> <i_lp_mmshare_version>
43012

> <i_f3d_flags>
0

> <s_epik_input>
W09IXVtDSDJdW0NASF0xT1tDQEhdKFtDQEhdKFtPSF0pW0NAQEhdMVtPSF0pbihbY0hdbjIpYyhjMjMpbltjSF1uYzNOKFtDSDJdW0NIMl00KWMoYzQ1KVtjSF1bY0hdW2NIXVtjSF01

> <s_epik_cmdline>
J2VwaWtfcHl0aG9uJywgJy1waCcsICc3LjAnLCAnLXRuJywgJzgnLCAnLW1hJywgJzIwMCcsICctbWV0YWxfYmluZGluZycsICctaW1hZScsICc8aW5maWxlLm1hZT4nLCAnLW9tYWUnLCAnPG91dGZpbGUubWFlPic=

> <r_lp_tautomer_probability>
1

> <r_epik_Ionization_Penalty>
0.00068475

> <r_epik_Ionization_Penalty_Charging>
0

> <r_epik_Ionization_Penalty_Neutral>
0.00068475

> <r_epik_State_Penalty>
0.000417442

> <r_epik_Charging_Adjusted_Penalty>
0.000417442

> <i_epik_Tot_Q>
0

> <i_epik_Tot_abs_Q>
0

> <r_epik_Metal_State_Penalty>
-0

> <b_epik_Metal_Only>
0

> <s_epik_Chemistry_Notes>
This compound contains an acetal/aminal-like group ( X-CH(R)-Y where X, Y are N, S, or O) that may be acid/base labile, releasing an aldehyde.

> <s_lp_Force_Field>
OPLS_2005

> <r_lp_Energy>
69.6213

> <b_lp_Chiralities_Consistent>
1

> <s_lp_Variant>
AV-unprocessed.smi:110-3

> <Gold.Version>
5.8.1

> <Gold.Id.Protein>
6NUR|6NUR_protein|mol2

> <Gold.PLP.Fitness>
50.8116

> <Gold.PLP.PLP>
-41.4101

> <Gold.PLP.part.hbond>
-4.6746

> <Gold.PLP.part.metal>
0.0000

> <Gold.PLP.part.buried>
-5.6445

> <Gold.PLP.part.nonpolar>
-31.9646

> <Gold.PLP.part.repulsive>
0.1119

> <Gold.PLP.ligand.clash>
0.0000

> <Gold.PLP.ligand.torsion>
1.3466

> <Gold.PLP.Chemscore.Hbond>
4.0000

> <Gold.PLP.Chemscore.CHOScore>
0.0000

> <Gold.PLP.Chemscore.Metal>
0.0000

> <Gold.Chemscore.Hbonds>
donor molecule, donor type, donor heavy atom, donor atom, acceptor molecule, acceptor atom, score
      L1  H     1    32       P1 10175  1.00
      L1  H    25    45       P1  7957  1.00
      L1  H    27    46       P1 10175  1.00
      P1  H  7997  8008       L1    20  1.00

> <Gold.PLP.Chemscore.Internal.Correction>
0.0946

> <Gold.Rescore>
     Score         DG    S(hbond)    S(metal)    S(lipo)     H(rot)  DE(clash)    DE(int)     intcor
     19.23     -20.87       3.92        0.00      93.71       3.38       0.33       1.31       ----

> <Gold.Chemscore.Fitness>
19.2270

> <Gold.Chemscore.DG>
-20.8732

> <Gold.Chemscore.ZeroCoef>
-5.4800

> <Gold.Chemscore.Hbond>
3.9197

> <Gold.Chemscore.Metal>
0.0000

> <Gold.Chemscore.Lipo>
93.7054

> <Gold.Chemscore.Internal_Hbond>
0.0000

> <Gold.Chemscore.DEClash>
0.3326

> <Gold.Chemscore.DEInternal>
1.3136

> <Gold.Chemscore.Rot>
3.3837

> <Gold.Chemscore.Internal.Correction>
   9.000000E+99

> <Gold.Chemscore.Hbonds>
donor molecule, donor type, donor heavy atom, donor atom, acceptor molecule, acceptor atom, score
      L1  H     1    32       P1 10175  1.00
      L1  H    25    45       P1  7957  1.00
      L1  H    27    46       P1 10175  1.00
      P1  H  7997  8008       L1    20  0.52

> <Gold.Chemscore.Hbond.Weighted>
-13.0918

> <Gold.Chemscore.Metal.Weighted>
-0.0000

> <Gold.Chemscore.Lipo.Weighted>
-10.9635

> <Gold.Chemscore.Internal_Hbond.Weighted>
0.0000

> <Gold.Chemscore.DEClash.Weighted>
0.3326

> <Gold.Chemscore.DEInternal.Weighted>
1.3136

> <Gold.Chemscore.Rot.Weighted>
8.6622

> <Gold.Chemscore.Internal.Correction.Weighted>
   9.000000E+99

> <Gold.Protein.RotatedTorsions>
[ 6907 6896 6895 6894 ] final   86.24 input  -60.11 | X-H torsion
[ 7974 7965 7964 7962 ] final  106.37 input  175.53 | X-H torsion
[ 8008 7997 7996 7995 ] final  -37.50 input   59.86 | X-H torsion
[ 10167 10162 10161 10158 ] final    0.70 input  -65.29 | X-H torsion
[ 10718 10713 10712 10709 ] final  -35.55 input   66.30 | X-H torsion
[ 10763 10752 10751 10750 ] final  -55.77 input  -60.55 | X-H torsion
[ 11005 11000 10999 10996 ] final  -14.37 input  -57.11 | X-H torsion

> <Gold.Protein.ActiveResidues>
 VAL166  LYS551  ARG553  GLY616  TRP617  ASP618  TYR619  PRO620  LYS621  CYS622 
 ASP623  PHE694  ASN695  SER759  ASP760  ASP761  ALA762  ILE779  LEU786  VAL792 
 PHE793  MET794  SER795  GLU796  ALA797  LYS798  CYS799  TRP800  GLU811  SER814 

> <Gold.Protein.RotatedAtoms>
  152.5390  134.2462  159.8881 H   0  0  0  0  0  0  0  0  0  0  0  0  # atno 6907 bound_to 6896
  151.2428  133.4384  159.2615 H   0  0  0  0  0  0  0  0  0  0  0  0  # atno 6908 bound_to 6896
  151.0611  134.9751  159.8317 H   0  0  0  0  0  0  0  0  0  0  0  0  # atno 6909 bound_to 6896
  145.3075  139.2550  143.3781 H   0  0  0  0  0  0  0  0  0  0  0  0  # atno 7974 bound_to 7965
  154.4052  140.1602  156.2547 H   0  0  0  0  0  0  0  0  0  0  0  0  # atno 8008 bound_to 7997
  155.9088  140.3428  155.6060 H   0  0  0  0  0  0  0  0  0  0  0  0  # atno 8009 bound_to 7997
  155.7360  140.0786  157.2258 H   0  0  0  0  0  0  0  0  0  0  0  0  # atno 8010 bound_to 7997
  140.6717  143.7031  150.7936 H   0  0  0  0  0  0  0  0  0  0  0  0  # atno 10167 bound_to 10162
  156.3373  130.4288  149.7818 H   0  0  0  0  0  0  0  0  0  0  0  0  # atno 10718 bound_to 10713
  154.1961  135.6419  153.5073 H   0  0  0  0  0  0  0  0  0  0  0  0  # atno 10763 bound_to 10752
  153.0023  135.5440  154.6365 H   0  0  0  0  0  0  0  0  0  0  0  0  # atno 10764 bound_to 10752
  154.5766  135.2921  155.0748 H   0  0  0  0  0  0  0  0  0  0  0  0  # atno 10765 bound_to 10752
  140.7857  133.8327  155.9333 H   0  0  0  0  0  0  0  0  0  0  0  0  # atno 11005 bound_to 11000
  146.3130  140.3603  142.8664 LP  0  0  0  0  0  0  0  0  0  0  0  0  # atno 17320 bound_to 7965
  144.9043  140.7681  143.5847 LP  0  0  0  0  0  0  0  0  0  0  0  0  # atno 17321 bound_to 7965
  140.0717  143.5054  152.2576 LP  0  0  0  0  0  0  0  0  0  0  0  0  # atno 17342 bound_to 10162
  139.5988  144.7576  151.3221 LP  0  0  0  0  0  0  0  0  0  0  0  0  # atno 17343 bound_to 10162
  156.5068  130.8154  151.3153 LP  0  0  0  0  0  0  0  0  0  0  0  0  # atno 17370 bound_to 10713
  157.7441  130.9927  150.2645 LP  0  0  0  0  0  0  0  0  0  0  0  0  # atno 17371 bound_to 10713
  140.9439  134.1866  157.4778 LP  0  0  0  0  0  0  0  0  0  0  0  0  # atno 17394 bound_to 11000
  139.8737  134.9882  156.5404 LP  0  0  0  0  0  0  0  0  0  0  0  0  # atno 17395 bound_to 11000

$$$$
