AV-unprocessed.smi:1269|AV-procd|sdf|5330|dock2
  -GOLD-   22720 4463D 1   1.00000     0.00000
 Structure written by MMmdl.
 44 45  0  0  0  0  0  0  0  0  2 V2000
  151.1360  140.7931  156.1458 C   0  0  0  0  0  0  0  0  0  0  0  0
  150.1173  141.5996  155.5647 O   0  0  0  0  0  0  0  0  0  0  0  0
  149.1204  140.9761  154.8427 C   0  0  0  0  0  0  0  0  0  0  0  0
  148.0275  141.7461  154.3983 C   0  0  0  0  0  0  0  0  0  0  0  0
  147.0036  141.1181  153.6639 C   0  0  0  0  0  0  0  0  0  0  0  0
  147.1075  139.7325  153.3900 C   0  0  0  0  0  0  0  0  0  0  0  0
  146.1443  138.9689  152.6733 N   0  0  0  0  0  0  0  0  0  0  0  0
  145.7583  137.6948  152.8577 C   0  0  0  0  0  0  0  0  0  0  0  0
  146.1659  136.9435  153.7422 O   0  0  0  0  0  0  0  0  0  0  0  0
  144.8565  137.3247  151.9361 N   0  0  0  0  0  0  0  0  0  0  0  0
  144.2092  136.0147  151.8421 C   0  0  1  0  0  0  0  0  0  0  0  0
  142.7910  136.1160  152.4202 C   0  0  0  0  0  0  0  0  0  0  0  0
  144.1839  135.5003  150.3839 C   0  0  0  0  0  0  0  0  0  0  0  0
  145.0172  134.2885  150.1784 N   0  3  0  0  0  0  0  0  0  0  0  0
  146.2448  134.2651  151.0099 C   0  0  0  0  0  0  0  0  0  0  0  0
  147.0889  133.0255  150.6713 C   0  0  0  0  0  0  0  0  0  0  0  0
  146.3105  131.8515  150.8714 O   0  0  0  0  0  0  0  0  0  0  0  0
  145.1644  131.8207  150.0295 C   0  0  0  0  0  0  0  0  0  0  0  0
  144.2598  133.0258  150.3393 C   0  0  0  0  0  0  0  0  0  0  0  0
  148.2405  139.0528  153.8846 C   0  0  0  0  0  0  0  0  0  0  0  0
  149.2243  139.6483  154.5905 N   0  0  0  0  0  0  0  0  0  0  0  0
  151.8414  141.4313  156.6779 H   0  0  0  0  0  0  0  0  0  0  0  0
  151.6944  140.2456  155.3852 H   0  0  0  0  0  0  0  0  0  0  0  0
  150.7224  140.0857  156.8660 H   0  0  0  0  0  0  0  0  0  0  0  0
  147.9738  142.8017  154.6203 H   0  0  0  0  0  0  0  0  0  0  0  0
  146.1656  141.7143  153.3414 H   0  0  0  0  0  0  0  0  0  0  0  0
  145.6761  139.4665  151.9298 H   0  0  0  0  0  0  0  0  0  0  0  0
  144.5785  138.0119  151.2505 H   0  0  0  0  0  0  0  0  0  0  0  0
  144.7519  135.3022  152.4648 H   0  0  0  0  0  0  0  0  0  0  0  0
  142.2892  135.1480  152.3994 H   0  0  0  0  0  0  0  0  0  0  0  0
  142.1787  136.8196  151.8549 H   0  0  0  0  0  0  0  0  0  0  0  0
  142.8118  136.4514  153.4577 H   0  0  0  0  0  0  0  0  0  0  0  0
  143.1611  135.2988  150.0619 H   0  0  0  0  0  0  0  0  0  0  0  0
  144.5518  136.2990  149.7379 H   0  0  0  0  0  0  0  0  0  0  0  0
  146.8368  135.1641  150.8412 H   0  0  0  0  0  0  0  0  0  0  0  0
  145.9738  134.2547  152.0667 H   0  0  0  0  0  0  0  0  0  0  0  0
  147.4492  133.0687  149.6420 H   0  0  0  0  0  0  0  0  0  0  0  0
  147.9675  132.9811  151.3150 H   0  0  0  0  0  0  0  0  0  0  0  0
  145.4692  131.8224  148.9816 H   0  0  0  0  0  0  0  0  0  0  0  0
  144.6235  130.8901  150.2024 H   0  0  0  0  0  0  0  0  0  0  0  0
  143.8740  132.9558  151.3576 H   0  0  0  0  0  0  0  0  0  0  0  0
  143.4008  133.0191  149.6674 H   0  0  0  0  0  0  0  0  0  0  0  0
  148.3636  137.9940  153.7094 H   0  0  0  0  0  0  0  0  0  0  0  0
  145.3189  134.3138  149.2145 H   0  0  0  0  0  0  0  0  0  0  0  0
  1  2  1  0  0  0  0
  1 22  1  0  0  0  0
  1 23  1  0  0  0  0
  1 24  1  0  0  0  0
  2  3  1  0  0  0  0
  3 21  1  0  0  0  0
  3  4  2  0  0  0  0
  4  5  1  0  0  0  0
  4 25  1  0  0  0  0
  5  6  2  0  0  0  0
  5 26  1  0  0  0  0
  6  7  1  0  0  0  0
  6 20  1  0  0  0  0
  7  8  1  0  0  0  0
  7 27  1  0  0  0  0
  8  9  2  0  0  0  0
  8 10  1  0  0  0  0
 10 11  1  0  0  0  0
 10 28  1  0  0  0  0
 11 12  1  0  0  0  0
 11 13  1  0  0  0  0
 11 29  1  0  0  0  0
 12 30  1  0  0  0  0
 12 31  1  0  0  0  0
 12 32  1  0  0  0  0
 13 14  1  0  0  0  0
 13 33  1  0  0  0  0
 13 34  1  0  0  0  0
 14 19  1  0  0  0  0
 14 15  1  0  0  0  0
 14 44  1  0  0  0  0
 15 16  1  0  0  0  0
 15 35  1  0  0  0  0
 15 36  1  0  0  0  0
 16 17  1  0  0  0  0
 16 37  1  0  0  0  0
 16 38  1  0  0  0  0
 17 18  1  0  0  0  0
 18 19  1  0  0  0  0
 18 39  1  0  0  0  0
 18 40  1  0  0  0  0
 19 41  1  0  0  0  0
 19 42  1  0  0  0  0
 20 21  2  0  0  0  0
 20 43  1  0  0  0  0
M  CHG  1  14   1
M  END
> <s_m_source_file>
AV-unprocessed.smi

> <i_m_source_file_index>
1269

> <i_lp_mmshare_version>
43012

> <i_f3d_flags>
0

> <s_epik_input>
W0NIM11PYzFbY0hdW2NIXWMoW2NIXW4xKVtOSF1DKD1PKVtOSF1bQ0BIXShbQ0gzXSlbQ0gyXU4yW0NIMl1bQ0gyXU9bQ0gyXVtDSDJdMg==

> <s_epik_cmdline>
J2VwaWtfcHl0aG9uJywgJy1waCcsICc3LjAnLCAnLXRuJywgJzgnLCAnLW1hJywgJzIwMCcsICctbWV0YWxfYmluZGluZycsICctaW1hZScsICc8aW5maWxlLm1hZT4nLCAnLW9tYWUnLCAnPG91dGZpbGUubWFlPic=

> <r_lp_tautomer_probability>
1

> <r_epik_Ionization_Penalty>
0.602604

> <r_epik_Ionization_Penalty_Charging>
0.602531

> <r_epik_Ionization_Penalty_Neutral>
7.37831e-05

> <r_epik_State_Penalty>
0.617039

> <r_epik_Charging_Adjusted_Penalty>
1.21957

> <i_epik_Tot_Q>
1

> <i_epik_Tot_abs_Q>
1

> <r_epik_Metal_State_Penalty>
0.617045

> <b_epik_Metal_Only>
0

> <s_lp_Force_Field>
OPLS_2005

> <r_lp_Energy>
25.4329

> <b_lp_Chiralities_Consistent>
1

> <s_lp_Variant>
AV-unprocessed.smi:1269-4

> <Gold.Version>
5.8.1

> <Gold.Id.Protein>
6NUR|6NUR_protein|mol2

> <Gold.PLP.Fitness>
42.9781

> <Gold.PLP.PLP>
-36.7577

> <Gold.PLP.part.hbond>
-3.9247

> <Gold.PLP.part.metal>
0.0000

> <Gold.PLP.part.buried>
-2.6607

> <Gold.PLP.part.nonpolar>
-29.9305

> <Gold.PLP.part.repulsive>
1.2556

> <Gold.PLP.ligand.clash>
0.0000

> <Gold.PLP.ligand.torsion>
1.6074

> <Gold.PLP.Chemscore.Hbond>
2.1186

> <Gold.PLP.Chemscore.CHOScore>
1.0000

> <Gold.PLP.Chemscore.Metal>
0.0000

> <Gold.Chemscore.Hbonds>
donor molecule, donor type, donor heavy atom, donor atom, acceptor molecule, acceptor atom, score
      L1  H     7    27       P1 10175  0.13
      L1  H    10    28       P1 10171  1.00
      L1  H    14    44       P1  7921  1.00
      L1  C    20    43       P1  7948  0.80

> <Gold.PLP.Chemscore.Internal.Correction>
0.0796

> <Gold.Rescore>
     Score         DG    S(hbond)    S(metal)    S(lipo)     H(rot)  DE(clash)    DE(int)     intcor
     13.63     -16.91       1.95        0.00      80.99       1.78       0.27       3.01       ----

> <Gold.Chemscore.Fitness>
13.6286

> <Gold.Chemscore.DG>
-16.9127

> <Gold.Chemscore.ZeroCoef>
-5.4800

> <Gold.Chemscore.Hbond>
1.9501

> <Gold.Chemscore.Metal>
0.0000

> <Gold.Chemscore.Lipo>
80.9943

> <Gold.Chemscore.Internal_Hbond>
0.0000

> <Gold.Chemscore.DEClash>
0.2718

> <Gold.Chemscore.DEInternal>
3.0123

> <Gold.Chemscore.Rot>
1.7801

> <Gold.Chemscore.Internal.Correction>
   9.000000E+99

> <Gold.Chemscore.Hbonds>
donor molecule, donor type, donor heavy atom, donor atom, acceptor molecule, acceptor atom, score
      L1  H     7    27       P1 10175  0.11
      L1  H    10    28       P1 10171  0.99
      L1  H    14    44       P1  7921  0.98

> <Gold.Chemscore.Hbond.Weighted>
-6.5133

> <Gold.Chemscore.Metal.Weighted>
-0.0000

> <Gold.Chemscore.Lipo.Weighted>
-9.4763

> <Gold.Chemscore.Internal_Hbond.Weighted>
0.0000

> <Gold.Chemscore.DEClash.Weighted>
0.2718

> <Gold.Chemscore.DEInternal.Weighted>
3.0123

> <Gold.Chemscore.Rot.Weighted>
4.5570

> <Gold.Chemscore.Internal.Correction.Weighted>
   9.000000E+99

> <Gold.Protein.RotatedTorsions>
[ 6907 6896 6895 6894 ] final   70.89 input  -60.11 | X-H torsion
[ 7974 7965 7964 7962 ] final  -25.60 input  175.53 | X-H torsion
[ 8008 7997 7996 7995 ] final   57.98 input   59.86 | X-H torsion
[ 10167 10162 10161 10158 ] final   32.19 input  -65.29 | X-H torsion
[ 10718 10713 10712 10709 ] final  122.23 input   66.30 | X-H torsion
[ 10763 10752 10751 10750 ] final -144.40 input  -60.55 | X-H torsion
[ 11005 11000 10999 10996 ] final  -77.68 input  -57.11 | X-H torsion

> <Gold.Protein.ActiveResidues>
 VAL166  LYS551  ARG553  GLY616  TRP617  ASP618  TYR619  PRO620  LYS621  CYS622 
 ASP623  PHE694  ASN695  SER759  ASP760  ASP761  ALA762  ILE779  LEU786  VAL792 
 PHE793  MET794  SER795  GLU796  ALA797  LYS798  CYS799  TRP800  GLU811  SER814 

> <Gold.Protein.RotatedAtoms>
  152.4777  134.4801  159.9662 H   0  0  0  0  0  0  0  0  0  0  0  0  # atno 6907 bound_to 6896
  151.4814  133.3540  159.2846 H   0  0  0  0  0  0  0  0  0  0  0  0  # atno 6908 bound_to 6896
  150.8827  134.8247  159.7298 H   0  0  0  0  0  0  0  0  0  0  0  0  # atno 6909 bound_to 6896
  146.1480  140.4908  142.8623 H   0  0  0  0  0  0  0  0  0  0  0  0  # atno 7974 bound_to 7965
  155.5426  140.3484  155.4450 H   0  0  0  0  0  0  0  0  0  0  0  0  # atno 8008 bound_to 7997
  156.0641  140.1347  156.9933 H   0  0  0  0  0  0  0  0  0  0  0  0  # atno 8009 bound_to 7997
  154.4494  140.0979  156.6545 H   0  0  0  0  0  0  0  0  0  0  0  0  # atno 8010 bound_to 7997
  140.4521  144.1033  150.6194 H   0  0  0  0  0  0  0  0  0  0  0  0  # atno 10167 bound_to 10162
  157.5758  131.1079  150.8282 H   0  0  0  0  0  0  0  0  0  0  0  0  # atno 10718 bound_to 10713
  154.8429  135.3441  154.6341 H   0  0  0  0  0  0  0  0  0  0  0  0  # atno 10763 bound_to 10752
  153.6951  135.6973  153.5083 H   0  0  0  0  0  0  0  0  0  0  0  0  # atno 10764 bound_to 10752
  153.2565  135.4336  155.0806 H   0  0  0  0  0  0  0  0  0  0  0  0  # atno 10765 bound_to 10752
  141.1661  133.7032  156.7858 H   0  0  0  0  0  0  0  0  0  0  0  0  # atno 11005 bound_to 11000
  144.7870  140.5955  143.6567 LP  0  0  0  0  0  0  0  0  0  0  0  0  # atno 17320 bound_to 7965
  145.4891  139.1490  143.3719 LP  0  0  0  0  0  0  0  0  0  0  0  0  # atno 17321 bound_to 7965
  140.4195  143.2618  151.9733 LP  0  0  0  0  0  0  0  0  0  0  0  0  # atno 17342 bound_to 10162
  139.4797  144.5843  151.7879 LP  0  0  0  0  0  0  0  0  0  0  0  0  # atno 17343 bound_to 10162
  156.8742  130.5156  149.5295 LP  0  0  0  0  0  0  0  0  0  0  0  0  # atno 17370 bound_to 10713
  156.0802  130.5815  150.9549 LP  0  0  0  0  0  0  0  0  0  0  0  0  # atno 17371 bound_to 10713
  140.2361  134.8649  157.3527 LP  0  0  0  0  0  0  0  0  0  0  0  0  # atno 17394 bound_to 11000
  140.1842  134.4452  155.7754 LP  0  0  0  0  0  0  0  0  0  0  0  0  # atno 17395 bound_to 11000

$$$$
