AV-unprocessed.smi:2063|AV-procd|sdf|8411|dock8
  -GOLD-   2272011103D 1   1.00000     0.00000
 Structure written by MMmdl.
 39 40  0  0  0  0  0  0  0  0  1 V2000
  150.9777  144.6578  160.3435 C   0  0  0  0  0  0  0  0  0  0  0  0
  152.1728  144.2792  159.4567 C   0  0  0  0  0  0  0  0  0  0  0  0
  151.8694  144.3924  157.9557 C   0  0  0  0  0  0  0  0  0  0  0  0
  152.7424  142.9429  159.8180 C   0  0  0  0  0  0  0  0  0  0  0  0
  152.8176  141.9231  158.9519 N   0  0  0  0  0  0  0  0  0  0  0  0
  153.3804  140.7888  159.5191 N   0  0  0  0  0  0  0  0  0  0  0  0
  153.7147  140.9852  160.8016 C   0  0  0  0  0  0  0  0  0  0  0  0
  154.3032  139.9899  161.6254 N   0  0  0  0  0  0  0  0  0  0  0  0
  155.2168  140.1468  162.5991 C   0  0  0  0  0  0  0  0  0  0  0  0
  155.6894  141.2230  162.9659 O   0  0  0  0  0  0  0  0  0  0  0  0
  155.5563  138.9661  163.1361 N   0  0  0  0  0  0  0  0  0  0  0  0
  156.5273  138.7694  164.2105 C   0  0  1  0  0  0  0  0  0  0  0  0
  157.8574  139.4405  163.8334 C   0  0  0  0  0  0  0  0  0  0  0  0
  155.9591  139.3189  165.5326 C   0  0  1  0  0  0  0  0  0  0  0  0
  156.9461  139.3183  166.7016 C   0  0  0  0  0  0  0  0  0  0  0  0
  156.4175  140.4126  167.6148 C   0  0  0  0  0  0  0  0  0  0  0  0
  155.4593  141.2108  166.7259 C   0  0  0  0  0  0  0  0  0  0  0  0
  155.6477  140.6980  165.4142 O   0  0  0  0  0  0  0  0  0  0  0  0
  153.3658  142.5878  161.4256 S   0  0  0  0  0  0  0  0  0  0  0  0
  151.2531  144.6462  161.3986 H   0  0  0  0  0  0  0  0  0  0  0  0
  150.1477  143.9640  160.2076 H   0  0  0  0  0  0  0  0  0  0  0  0
  150.6150  145.6586  160.1080 H   0  0  0  0  0  0  0  0  0  0  0  0
  152.9530  145.0121  159.6663 H   0  0  0  0  0  0  0  0  0  0  0  0
  152.7612  144.1966  157.3595 H   0  0  0  0  0  0  0  0  0  0  0  0
  151.5145  145.3913  157.7012 H   0  0  0  0  0  0  0  0  0  0  0  0
  151.1015  143.6804  157.6511 H   0  0  0  0  0  0  0  0  0  0  0  0
  153.9979  139.0450  161.4461 H   0  0  0  0  0  0  0  0  0  0  0  0
  155.1136  138.1354  162.7720 H   0  0  0  0  0  0  0  0  0  0  0  0
  156.7068  137.7009  164.3437 H   0  0  0  0  0  0  0  0  0  0  0  0
  158.6085  139.2887  164.6088 H   0  0  0  0  0  0  0  0  0  0  0  0
  157.7350  140.5155  163.6951 H   0  0  0  0  0  0  0  0  0  0  0  0
  158.2576  139.0285  162.9064 H   0  0  0  0  0  0  0  0  0  0  0  0
  155.0544  138.7761  165.8143 H   0  0  0  0  0  0  0  0  0  0  0  0
  157.0138  138.3494  167.1969 H   0  0  0  0  0  0  0  0  0  0  0  0
  157.9438  139.5869  166.3512 H   0  0  0  0  0  0  0  0  0  0  0  0
  155.8864  139.9936  168.4701 H   0  0  0  0  0  0  0  0  0  0  0  0
  157.2306  141.0321  167.9946 H   0  0  0  0  0  0  0  0  0  0  0  0
  154.4251  141.0449  167.0311 H   0  0  0  0  0  0  0  0  0  0  0  0
  155.6550  142.2829  166.7570 H   0  0  0  0  0  0  0  0  0  0  0  0
  1  2  1  0  0  0  0
  1 20  1  0  0  0  0
  1 21  1  0  0  0  0
  1 22  1  0  0  0  0
  2  3  1  0  0  0  0
  2  4  1  0  0  0  0
  2 23  1  0  0  0  0
  3 24  1  0  0  0  0
  3 25  1  0  0  0  0
  3 26  1  0  0  0  0
  4 19  1  0  0  0  0
  4  5  2  0  0  0  0
  5  6  1  0  0  0  0
  6  7  2  0  0  0  0
  7  8  1  0  0  0  0
  7 19  1  0  0  0  0
  8  9  1  0  0  0  0
  8 27  1  0  0  0  0
  9 10  2  0  0  0  0
  9 11  1  0  0  0  0
 11 12  1  0  0  0  0
 11 28  1  0  0  0  0
 12 13  1  0  0  0  0
 12 14  1  0  0  0  0
 12 29  1  0  0  0  0
 13 30  1  0  0  0  0
 13 31  1  0  0  0  0
 13 32  1  0  0  0  0
 14 18  1  0  0  0  0
 14 15  1  0  0  0  0
 14 33  1  0  0  0  0
 15 16  1  0  0  0  0
 15 34  1  0  0  0  0
 15 35  1  0  0  0  0
 16 17  1  0  0  0  0
 16 36  1  0  0  0  0
 16 37  1  0  0  0  0
 17 18  1  0  0  0  0
 17 38  1  0  0  0  0
 17 39  1  0  0  0  0
M  END
> <s_m_source_file>
AV-unprocessed.smi

> <i_m_source_file_index>
2063

> <i_lp_mmshare_version>
43012

> <i_f3d_flags>
0

> <s_epik_input>
W0NIM11bQ0hdKFtDSDNdKWMxbm5jKHMxKVtOSF1DKD1PKVtOSF1bQ0BIXShbQ0gzXSlbQ0BASF0yW0NIMl1bQ0gyXVtDSDJdTzI=

> <s_epik_cmdline>
J2VwaWtfcHl0aG9uJywgJy1waCcsICc3LjAnLCAnLXRuJywgJzgnLCAnLW1hJywgJzIwMCcsICctbWV0YWxfYmluZGluZycsICctaW1hZScsICc8aW5maWxlLm1hZT4nLCAnLW9tYWUnLCAnPG91dGZpbGUubWFlPic=

> <r_lp_tautomer_probability>
1

> <r_epik_Ionization_Penalty>
0.00050567

> <r_epik_Ionization_Penalty_Charging>
0

> <r_epik_Ionization_Penalty_Neutral>
0.00050567

> <r_epik_State_Penalty>
-0

> <r_epik_Charging_Adjusted_Penalty>
0

> <i_epik_Tot_Q>
0

> <i_epik_Tot_abs_Q>
0

> <r_epik_Metal_State_Penalty>
0.219912

> <b_epik_Metal_Only>
0

> <s_lp_Force_Field>
OPLS_2005

> <r_lp_Energy>
10.6247

> <b_lp_Chiralities_Consistent>
1

> <s_lp_Variant>
AV-unprocessed.smi:2063-4

> <Gold.Version>
5.8.1

> <Gold.Id.Protein>
6NUR|6NUR_protein|mol2

> <Gold.PLP.Fitness>
35.7305

> <Gold.PLP.PLP>
-36.4460

> <Gold.PLP.part.hbond>
-0.2036

> <Gold.PLP.part.metal>
0.0000

> <Gold.PLP.part.buried>
-6.5048

> <Gold.PLP.part.nonpolar>
-28.5040

> <Gold.PLP.part.repulsive>
0.0054

> <Gold.PLP.ligand.clash>
0.0000

> <Gold.PLP.ligand.torsion>
0.4067

> <Gold.PLP.Chemscore.Hbond>
0.0000

> <Gold.PLP.Chemscore.CHOScore>
0.0000

> <Gold.PLP.Chemscore.Metal>
0.0000

> <Gold.PLP.Chemscore.Internal.Correction>
0.0980

> <Gold.Rescore>
     Score         DG    S(hbond)    S(metal)    S(lipo)     H(rot)  DE(clash)    DE(int)     intcor
      5.47     -11.64       0.00        0.00      83.58       1.42       1.47       4.69       ----

> <Gold.Chemscore.Fitness>
5.4727

> <Gold.Chemscore.DG>
-11.6362

> <Gold.Chemscore.ZeroCoef>
-5.4800

> <Gold.Chemscore.Hbond>
0.0000

> <Gold.Chemscore.Metal>
0.0000

> <Gold.Chemscore.Lipo>
83.5827

> <Gold.Chemscore.Internal_Hbond>
0.0000

> <Gold.Chemscore.DEClash>
1.4716

> <Gold.Chemscore.DEInternal>
4.6919

> <Gold.Chemscore.Rot>
1.4152

> <Gold.Chemscore.Internal.Correction>
   9.000000E+99

> <Gold.Chemscore.Hbond.Weighted>
-0.0000

> <Gold.Chemscore.Metal.Weighted>
-0.0000

> <Gold.Chemscore.Lipo.Weighted>
-9.7792

> <Gold.Chemscore.Internal_Hbond.Weighted>
0.0000

> <Gold.Chemscore.DEClash.Weighted>
1.4716

> <Gold.Chemscore.DEInternal.Weighted>
4.6919

> <Gold.Chemscore.Rot.Weighted>
3.6229

> <Gold.Chemscore.Internal.Correction.Weighted>
   9.000000E+99

> <Gold.Protein.RotatedTorsions>
[ 6907 6896 6895 6894 ] final  100.49 input  -60.11 | X-H torsion
[ 7974 7965 7964 7962 ] final   -7.24 input  175.53 | X-H torsion
[ 8008 7997 7996 7995 ] final  176.14 input   59.86 | X-H torsion
[ 10167 10162 10161 10158 ] final   62.36 input  -65.29 | X-H torsion
[ 10718 10713 10712 10709 ] final   40.60 input   66.30 | X-H torsion
[ 10763 10752 10751 10750 ] final  -41.20 input  -60.55 | X-H torsion
[ 11005 11000 10999 10996 ] final  -57.91 input  -57.11 | X-H torsion

> <Gold.Protein.ActiveResidues>
 VAL166  LYS551  ARG553  GLY616  TRP617  ASP618  TYR619  PRO620  LYS621  CYS622 
 ASP623  PHE694  ASN695  SER759  ASP760  ASP761  ALA762  ILE779  LEU786  VAL792 
 PHE793  MET794  SER795  GLU796  ALA797  LYS798  CYS799  TRP800  GLU811  SER814 

> <Gold.Protein.RotatedAtoms>
  152.5371  134.0269  159.8006 H   0  0  0  0  0  0  0  0  0  0  0  0  # atno 6907 bound_to 6896
  151.0446  133.5669  159.2655 H   0  0  0  0  0  0  0  0  0  0  0  0  # atno 6908 bound_to 6896
  151.2626  135.0666  159.9157 H   0  0  0  0  0  0  0  0  0  0  0  0  # atno 6909 bound_to 6896
  146.2311  140.2290  142.8339 H   0  0  0  0  0  0  0  0  0  0  0  0  # atno 7974 bound_to 7965
  156.0796  140.1391  156.9729 H   0  0  0  0  0  0  0  0  0  0  0  0  # atno 8008 bound_to 7997
  154.4577  140.0955  156.6855 H   0  0  0  0  0  0  0  0  0  0  0  0  # atno 8009 bound_to 7997
  155.5097  140.3453  155.4388 H   0  0  0  0  0  0  0  0  0  0  0  0  # atno 8010 bound_to 7997
  140.1448  144.4519  150.6791 H   0  0  0  0  0  0  0  0  0  0  0  0  # atno 10167 bound_to 10162
  157.3840  130.7769  149.7215 H   0  0  0  0  0  0  0  0  0  0  0  0  # atno 10718 bound_to 10713
  153.9586  135.6742  153.4745 H   0  0  0  0  0  0  0  0  0  0  0  0  # atno 10763 bound_to 10752
  153.0849  135.4904  154.8574 H   0  0  0  0  0  0  0  0  0  0  0  0  # atno 10764 bound_to 10752
  154.7285  135.3133  154.8890 H   0  0  0  0  0  0  0  0  0  0  0  0  # atno 10765 bound_to 10752
  141.1185  133.6611  156.4840 H   0  0  0  0  0  0  0  0  0  0  0  0  # atno 11005 bound_to 11000
  144.9572  140.8239  143.5535 LP  0  0  0  0  0  0  0  0  0  0  0  0  # atno 17320 bound_to 7965
  145.2257  139.2138  143.5069 LP  0  0  0  0  0  0  0  0  0  0  0  0  # atno 17321 bound_to 7965
  140.6739  143.2297  151.5557 LP  0  0  0  0  0  0  0  0  0  0  0  0  # atno 17342 bound_to 10162
  139.5454  144.2534  152.1432 LP  0  0  0  0  0  0  0  0  0  0  0  0  # atno 17343 bound_to 10162
  155.9782  130.4054  150.3662 LP  0  0  0  0  0  0  0  0  0  0  0  0  # atno 17370 bound_to 10713
  157.1770  131.0383  151.2767 LP  0  0  0  0  0  0  0  0  0  0  0  0  # atno 17371 bound_to 10713
  140.4577  134.6870  157.5070 LP  0  0  0  0  0  0  0  0  0  0  0  0  # atno 17394 bound_to 11000
  140.0124  134.6671  155.9361 LP  0  0  0  0  0  0  0  0  0  0  0  0  # atno 17395 bound_to 11000

$$$$
