AV-unprocessed.smi:264|AV-procd|sdf|2008|dock1
  -GOLD-   2262021203D 1   1.00000     0.00000
 Structure written by MMmdl.
 52 56  0  0  0  0  0  0  0  0  1 V2000
  145.9875  140.3922  155.6731 C   0  0  0  0  0  0  0  0  0  0  0  0
  147.4480  139.9259  155.7865 C   0  0  1  0  0  0  0  0  0  0  0  0
  147.5094  138.5370  156.0767 O   0  0  0  0  0  0  0  0  0  0  0  0
  148.8269  138.1105  155.7820 C   0  0  0  0  0  0  0  0  0  0  0  0
  149.1109  138.7908  154.4483 C   0  0  0  0  0  0  0  0  0  0  0  0
  148.3509  140.1180  154.5390 C   0  0  1  0  0  0  0  0  0  0  0  0
  147.5858  140.2692  153.3544 O   0  0  0  0  0  0  0  0  0  0  0  0
  149.3075  141.3304  154.6567 C   0  0  0  0  0  0  0  0  0  0  0  0
  150.1237  141.3133  155.8618 N   0  0  0  0  0  0  0  0  0  0  0  0
  150.0522  142.1931  156.9184 C   0  0  0  0  0  0  0  0  0  0  0  0
  150.8894  141.9635  157.8924 N   0  0  0  0  0  0  0  0  0  0  0  0
  151.6045  140.8488  157.4709 C   0  0  0  0  0  0  0  0  0  0  0  0
  152.6546  140.0722  158.0379 C   0  0  0  0  0  0  0  0  0  0  0  0
  153.2070  140.3563  159.2446 N   0  0  0  0  0  0  0  0  0  0  0  0
  152.8932  141.6794  159.7694 C   0  0  0  0  0  0  0  0  0  0  0  0
  153.2562  141.7487  161.2590 C   0  0  0  0  0  0  0  0  0  0  0  0
  154.6230  141.3858  161.4509 O   0  0  0  0  0  0  0  0  0  0  0  0
  154.9623  140.0810  160.9711 C   0  0  1  0  0  0  0  0  0  0  0  0
  156.4593  139.8806  161.1862 C   0  0  0  0  0  0  0  0  0  0  0  0
  156.5670  138.4054  161.5406 C   0  0  0  0  0  0  0  0  0  0  0  0
  155.4417  138.2143  162.3772 O   0  0  0  0  0  0  0  0  0  0  0  0
  154.3521  138.9461  161.8277 C   0  0  0  0  0  0  0  0  0  0  0  0
  154.5973  139.9721  159.4718 C   0  0  0  0  0  0  0  0  0  0  0  0
  153.1010  139.0072  157.3190 N   0  0  0  0  0  0  0  0  0  0  0  0
  152.5702  138.7269  156.1255 C   0  0  0  0  0  0  0  0  0  0  0  0
  151.5971  139.3662  155.4745 N   0  0  0  0  0  0  0  0  0  0  0  0
  151.1347  140.4281  156.1944 C   0  0  0  0  0  0  0  0  0  0  0  0
  145.9307  141.4529  155.4279 H   0  0  0  0  0  0  0  0  0  0  0  0
  145.4620  140.2432  156.6163 H   0  0  0  0  0  0  0  0  0  0  0  0
  145.4477  139.8375  154.9053 H   0  0  0  0  0  0  0  0  0  0  0  0
  147.9038  140.4268  156.6410 H   0  0  0  0  0  0  0  0  0  0  0  0
  149.5116  138.4622  156.5556 H   0  0  0  0  0  0  0  0  0  0  0  0
  148.8965  137.0241  155.7253 H   0  0  0  0  0  0  0  0  0  0  0  0
  150.1796  138.9122  154.2680 H   0  0  0  0  0  0  0  0  0  0  0  0
  148.7152  138.1658  153.6456 H   0  0  0  0  0  0  0  0  0  0  0  0
  148.1780  140.3366  152.6213 H   0  0  0  0  0  0  0  0  0  0  0  0
  149.9730  141.3660  153.7931 H   0  0  0  0  0  0  0  0  0  0  0  0
  148.7426  142.2636  154.6413 H   0  0  0  0  0  0  0  0  0  0  0  0
  149.3480  143.0119  156.9485 H   0  0  0  0  0  0  0  0  0  0  0  0
  153.4619  142.4249  159.2121 H   0  0  0  0  0  0  0  0  0  0  0  0
  151.8398  141.9249  159.6407 H   0  0  0  0  0  0  0  0  0  0  0  0
  153.1081  142.7623  161.6313 H   0  0  0  0  0  0  0  0  0  0  0  0
  152.5979  141.1045  161.8421 H   0  0  0  0  0  0  0  0  0  0  0  0
  157.0687  140.1576  160.3254 H   0  0  0  0  0  0  0  0  0  0  0  0
  156.8002  140.4740  162.0362 H   0  0  0  0  0  0  0  0  0  0  0  0
  156.4811  137.7777  160.6522 H   0  0  0  0  0  0  0  0  0  0  0  0
  157.4973  138.1596  162.0530 H   0  0  0  0  0  0  0  0  0  0  0  0
  153.7316  139.3140  162.6444 H   0  0  0  0  0  0  0  0  0  0  0  0
  153.7394  138.2758  161.2238 H   0  0  0  0  0  0  0  0  0  0  0  0
  154.7729  138.9554  159.1167 H   0  0  0  0  0  0  0  0  0  0  0  0
  155.2394  140.6316  158.8856 H   0  0  0  0  0  0  0  0  0  0  0  0
  152.9849  137.8673  155.6199 H   0  0  0  0  0  0  0  0  0  0  0  0
  1  2  1  0  0  0  0
  1 28  1  0  0  0  0
  1 29  1  0  0  0  0
  1 30  1  0  0  0  0
  2  6  1  0  0  0  0
  2  3  1  0  0  0  0
  2 31  1  0  0  0  0
  3  4  1  0  0  0  0
  4  5  1  0  0  0  0
  4 32  1  0  0  0  0
  4 33  1  0  0  0  0
  5  6  1  0  0  0  0
  5 34  1  0  0  0  0
  5 35  1  0  0  0  0
  6  7  1  0  0  0  0
  6  8  1  0  0  0  0
  7 36  1  0  0  0  0
  8  9  1  0  0  0  0
  8 37  1  0  0  0  0
  8 38  1  0  0  0  0
  9 27  1  0  0  0  0
  9 10  1  0  0  0  0
 10 11  2  0  0  0  0
 10 39  1  0  0  0  0
 11 12  1  0  0  0  0
 12 27  2  0  0  0  0
 12 13  1  0  0  0  0
 13 14  1  0  0  0  0
 13 24  2  0  0  0  0
 14 23  1  0  0  0  0
 14 15  1  0  0  0  0
 15 16  1  0  0  0  0
 15 40  1  0  0  0  0
 15 41  1  0  0  0  0
 16 17  1  0  0  0  0
 16 42  1  0  0  0  0
 16 43  1  0  0  0  0
 17 18  1  0  0  0  0
 18 22  1  0  0  0  0
 18 19  1  0  0  0  0
 18 23  1  0  0  0  0
 19 20  1  0  0  0  0
 19 44  1  0  0  0  0
 19 45  1  0  0  0  0
 20 21  1  0  0  0  0
 20 46  1  0  0  0  0
 20 47  1  0  0  0  0
 21 22  1  0  0  0  0
 22 48  1  0  0  0  0
 22 49  1  0  0  0  0
 23 50  1  0  0  0  0
 23 51  1  0  0  0  0
 24 25  1  0  0  0  0
 25 26  2  0  0  0  0
 25 52  1  0  0  0  0
 26 27  1  0  0  0  0
M  END
> <s_m_source_file>
AV-unprocessed.smi

> <i_m_source_file_index>
264

> <i_lp_mmshare_version>
43012

> <i_f3d_flags>
0

> <s_epik_input>
W0NIMl0xW0NIMl1PW0NAQEhdKFtDSDNdKVtDQEBdMShbT0hdKVtDSDJdbihbY0hdbjIpYyhjMjMpbltjSF1uYzNOKFtDSDJdNClbQ0gyXVtDSDJdT1tDQF00NVtDSDJdW0NIMl1PW0NIMl01

> <s_epik_cmdline>
J2VwaWtfcHl0aG9uJywgJy1waCcsICc3LjAnLCAnLXRuJywgJzgnLCAnLW1hJywgJzIwMCcsICctbWV0YWxfYmluZGluZycsICctaW1hZScsICc8aW5maWxlLm1hZT4nLCAnLW9tYWUnLCAnPG91dGZpbGUubWFlPic=

> <r_lp_tautomer_probability>
1

> <r_epik_Ionization_Penalty>
0.00539389

> <r_epik_Ionization_Penalty_Charging>
0

> <r_epik_Ionization_Penalty_Neutral>
0.00539389

> <r_epik_State_Penalty>
0.00375441

> <r_epik_Charging_Adjusted_Penalty>
0.00375441

> <i_epik_Tot_Q>
0

> <i_epik_Tot_abs_Q>
0

> <r_epik_Metal_State_Penalty>
-0

> <b_epik_Metal_Only>
0

> <s_lp_Force_Field>
OPLS_2005

> <r_lp_Energy>
54.8303

> <b_lp_Chiralities_Consistent>
1

> <s_lp_Variant>
AV-unprocessed.smi:264-2

> <Gold.Version>
5.8.1

> <Gold.Id.Protein>
6NUR|6NUR_protein|mol2

> <Gold.PLP.Fitness>
41.9514

> <Gold.PLP.PLP>
-36.3728

> <Gold.PLP.part.hbond>
-3.0000

> <Gold.PLP.part.metal>
0.0000

> <Gold.PLP.part.buried>
0.6560

> <Gold.PLP.part.nonpolar>
-31.7664

> <Gold.PLP.part.repulsive>
0.0563

> <Gold.PLP.ligand.clash>
0.0000

> <Gold.PLP.ligand.torsion>
0.6128

> <Gold.PLP.Chemscore.Hbond>
1.1536

> <Gold.PLP.Chemscore.CHOScore>
1.0000

> <Gold.PLP.Chemscore.Metal>
0.0000

> <Gold.Chemscore.Hbonds>
donor molecule, donor type, donor heavy atom, donor atom, acceptor molecule, acceptor atom, score
      L1  H     7    36       P1  7957  0.94
      P1  H  7997  8009       L1    24  0.13
      L1  C    10    39       P1  8028  1.00

> <Gold.PLP.Chemscore.Internal.Correction>
0.3434

> <Gold.Rescore>
     Score         DG    S(hbond)    S(metal)    S(lipo)     H(rot)  DE(clash)    DE(int)     intcor
     10.20     -12.63       1.00        0.00      78.79       2.11       0.14       2.29       ----

> <Gold.Chemscore.Fitness>
10.1960

> <Gold.Chemscore.DG>
-12.6308

> <Gold.Chemscore.ZeroCoef>
-5.4800

> <Gold.Chemscore.Hbond>
0.9954

> <Gold.Chemscore.Metal>
0.0000

> <Gold.Chemscore.Lipo>
78.7890

> <Gold.Chemscore.Internal_Hbond>
0.0000

> <Gold.Chemscore.DEClash>
0.1400

> <Gold.Chemscore.DEInternal>
2.2948

> <Gold.Chemscore.Rot>
2.1063

> <Gold.Chemscore.Internal.Correction>
   9.000000E+99

> <Gold.Chemscore.Hbonds>
donor molecule, donor type, donor heavy atom, donor atom, acceptor molecule, acceptor atom, score
      L1  H     7    36       P1  7957  0.90

> <Gold.Chemscore.Hbond.Weighted>
-3.3246

> <Gold.Chemscore.Metal.Weighted>
-0.0000

> <Gold.Chemscore.Lipo.Weighted>
-9.2183

> <Gold.Chemscore.Internal_Hbond.Weighted>
0.0000

> <Gold.Chemscore.DEClash.Weighted>
0.1400

> <Gold.Chemscore.DEInternal.Weighted>
2.2948

> <Gold.Chemscore.Rot.Weighted>
5.3921

> <Gold.Chemscore.Internal.Correction.Weighted>
   9.000000E+99

> <Gold.Protein.RotatedTorsions>
[ 6907 6896 6895 6894 ] final -163.20 input  -60.11 | X-H torsion
[ 7974 7965 7964 7962 ] final  154.63 input  175.53 | X-H torsion
[ 8008 7997 7996 7995 ] final  129.12 input   59.86 | X-H torsion
[ 10167 10162 10161 10158 ] final  -16.10 input  -65.29 | X-H torsion
[ 10718 10713 10712 10709 ] final   95.38 input   66.30 | X-H torsion
[ 10763 10752 10751 10750 ] final  110.29 input  -60.55 | X-H torsion
[ 11005 11000 10999 10996 ] final -169.77 input  -57.11 | X-H torsion

> <Gold.Protein.ActiveResidues>
 VAL166  LYS551  ARG553  GLY616  TRP617  ASP618  TYR619  PRO620  LYS621  CYS622 
 ASP623  PHE694  ASN695  SER759  ASP760  ASP761  ALA762  ILE779  LEU786  VAL792 
 PHE793  MET794  SER795  GLU796  ALA797  LYS798  CYS799  TRP800  GLU811  SER814 

> <Gold.Protein.RotatedAtoms>
  151.3924  133.3784  159.2722 H   0  0  0  0  0  0  0  0  0  0  0  0  # atno 6907 bound_to 6896
  150.9495  134.8898  159.7674 H   0  0  0  0  0  0  0  0  0  0  0  0  # atno 6908 bound_to 6896
  152.5106  134.3878  159.9426 H   0  0  0  0  0  0  0  0  0  0  0  0  # atno 6909 bound_to 6896
  144.8076  139.6959  143.6155 H   0  0  0  0  0  0  0  0  0  0  0  0  # atno 7974 bound_to 7965
  156.2929  140.2628  156.2547 H   0  0  0  0  0  0  0  0  0  0  0  0  # atno 8008 bound_to 7997
  154.9847  140.0389  157.2312 H   0  0  0  0  0  0  0  0  0  0  0  0  # atno 8009 bound_to 7997
  154.7739  140.2783  155.6120 H   0  0  0  0  0  0  0  0  0  0  0  0  # atno 8010 bound_to 7997
  140.7229  143.5150  150.9702 H   0  0  0  0  0  0  0  0  0  0  0  0  # atno 10167 bound_to 10162
  157.6939  131.0544  150.4331 H   0  0  0  0  0  0  0  0  0  0  0  0  # atno 10718 bound_to 10713
  153.4468  135.3753  155.2260 H   0  0  0  0  0  0  0  0  0  0  0  0  # atno 10763 bound_to 10752
  154.8755  135.3876  154.4086 H   0  0  0  0  0  0  0  0  0  0  0  0  # atno 10764 bound_to 10752
  153.4640  135.7087  153.6097 H   0  0  0  0  0  0  0  0  0  0  0  0  # atno 10765 bound_to 10752
  140.5270  134.5654  157.5064 H   0  0  0  0  0  0  0  0  0  0  0  0  # atno 11005 bound_to 11000
  146.2370  139.5925  142.9517 LP  0  0  0  0  0  0  0  0  0  0  0  0  # atno 17320 bound_to 7965
  145.5400  141.0421  143.2336 LP  0  0  0  0  0  0  0  0  0  0  0  0  # atno 17321 bound_to 7965
  139.8866  143.7006  152.3150 LP  0  0  0  0  0  0  0  0  0  0  0  0  # atno 17342 bound_to 10162
  139.7307  144.7583  151.0807 LP  0  0  0  0  0  0  0  0  0  0  0  0  # atno 17343 bound_to 10162
  156.4696  130.4049  149.6526 LP  0  0  0  0  0  0  0  0  0  0  0  0  # atno 17370 bound_to 10713
  156.3612  130.7482  151.2454 LP  0  0  0  0  0  0  0  0  0  0  0  0  # atno 17371 bound_to 10713
  139.9575  134.7510  156.0310 LP  0  0  0  0  0  0  0  0  0  0  0  0  # atno 17394 bound_to 11000
  141.1303  133.6588  156.3445 LP  0  0  0  0  0  0  0  0  0  0  0  0  # atno 17395 bound_to 11000

$$$$
