AV-unprocessed.smi:2028|AV-procd|sdf|8221|dock2
  -GOLD-   2272010493D 1   1.00000     0.00000
 Structure written by MMmdl.
 38 39  0  0  0  0  0  0  0  0  1 V2000
  147.3974  141.8223  153.5933 C   0  0  0  0  0  0  0  0  0  0  0  0
  147.7489  140.3902  154.0328 C   0  0  0  0  0  0  0  0  0  0  0  0
  146.9291  140.0349  155.2907 C   0  0  0  0  0  0  0  0  0  0  0  0
  147.4251  139.4178  152.8787 C   0  0  0  0  0  0  0  0  0  0  0  0
  149.1838  140.3809  154.3386 N   0  0  0  0  0  0  0  0  0  0  0  0
  149.9263  139.3813  154.8482 C   0  0  0  0  0  0  0  0  0  0  0  0
  149.4896  138.2618  155.1137 O   0  0  0  0  0  0  0  0  0  0  0  0
  151.3967  139.7055  155.1149 C   0  0  0  0  0  0  0  0  0  0  0  0
  151.5032  140.7353  156.2015 C   0  0  0  0  0  0  0  0  0  0  0  0
  150.8973  141.9677  156.2280 C   0  0  0  0  0  0  0  0  0  0  0  0
  151.2959  142.8611  157.6697 S   0  0  0  0  0  0  0  0  0  0  0  0
  152.2886  141.4995  158.1985 C   0  0  0  0  0  0  0  0  0  0  0  0
  153.0541  141.4265  159.4000 N   0  0  0  0  0  0  0  0  0  0  0  0
  152.9109  142.4169  160.4628 C   0  0  0  0  0  0  0  0  0  0  0  0
  153.7098  141.8753  161.6533 C   0  0  0  0  0  0  0  0  0  0  0  0
  154.5851  140.7621  161.0806 C   0  0  0  0  0  0  0  0  0  0  0  0
  153.9832  140.5048  159.7091 C   0  0  0  0  0  0  0  0  0  0  0  0
  154.3500  139.5587  159.0139 O   0  0  0  0  0  0  0  0  0  0  0  0
  152.2854  140.4798  157.3337 N   0  0  0  0  0  0  0  0  0  0  0  0
  146.3385  141.9149  153.3490 H   0  0  0  0  0  0  0  0  0  0  0  0
  147.9640  142.1176  152.7090 H   0  0  0  0  0  0  0  0  0  0  0  0
  147.6162  142.5454  154.3801 H   0  0  0  0  0  0  0  0  0  0  0  0
  147.1712  140.6980  156.1223 H   0  0  0  0  0  0  0  0  0  0  0  0
  147.1102  139.0124  155.6223 H   0  0  0  0  0  0  0  0  0  0  0  0
  145.8591  140.1253  155.1009 H   0  0  0  0  0  0  0  0  0  0  0  0
  146.3785  139.4966  152.5829 H   0  0  0  0  0  0  0  0  0  0  0  0
  147.5987  138.3779  153.1552 H   0  0  0  0  0  0  0  0  0  0  0  0
  148.0310  139.6309  151.9973 H   0  0  0  0  0  0  0  0  0  0  0  0
  149.6659  141.2515  154.1676 H   0  0  0  0  0  0  0  0  0  0  0  0
  151.9174  138.7900  155.3983 H   0  0  0  0  0  0  0  0  0  0  0  0
  151.8721  140.0578  154.1981 H   0  0  0  0  0  0  0  0  0  0  0  0
  150.2477  142.4053  155.4846 H   0  0  0  0  0  0  0  0  0  0  0  0
  153.3205  143.3696  160.1236 H   0  0  0  0  0  0  0  0  0  0  0  0
  151.8639  142.5721  160.7281 H   0  0  0  0  0  0  0  0  0  0  0  0
  154.3004  142.6564  162.1334 H   0  0  0  0  0  0  0  0  0  0  0  0
  153.0333  141.4654  162.4046 H   0  0  0  0  0  0  0  0  0  0  0  0
  155.6192  141.0885  160.9655 H   0  0  0  0  0  0  0  0  0  0  0  0
  154.5676  139.8643  161.6994 H   0  0  0  0  0  0  0  0  0  0  0  0
  1  2  1  0  0  0  0
  1 20  1  0  0  0  0
  1 21  1  0  0  0  0
  1 22  1  0  0  0  0
  2  3  1  0  0  0  0
  2  4  1  0  0  0  0
  2  5  1  0  0  0  0
  3 23  1  0  0  0  0
  3 24  1  0  0  0  0
  3 25  1  0  0  0  0
  4 26  1  0  0  0  0
  4 27  1  0  0  0  0
  4 28  1  0  0  0  0
  5  6  1  0  0  0  0
  5 29  1  0  0  0  0
  6  7  2  0  0  0  0
  6  8  1  0  0  0  0
  8  9  1  0  0  0  0
  8 30  1  0  0  0  0
  8 31  1  0  0  0  0
  9 19  1  0  0  0  0
  9 10  2  0  0  0  0
 10 11  1  0  0  0  0
 10 32  1  0  0  0  0
 11 12  1  0  0  0  0
 12 13  1  0  0  0  0
 12 19  2  0  0  0  0
 13 17  1  0  0  0  0
 13 14  1  0  0  0  0
 14 15  1  0  0  0  0
 14 33  1  0  0  0  0
 14 34  1  0  0  0  0
 15 16  1  0  0  0  0
 15 35  1  0  0  0  0
 15 36  1  0  0  0  0
 16 17  1  0  0  0  0
 16 37  1  0  0  0  0
 16 38  1  0  0  0  0
 17 18  2  0  0  0  0
M  END
> <s_m_source_file>
AV-unprocessed.smi

> <i_m_source_file_index>
2028

> <i_lp_mmshare_version>
43012

> <i_f3d_flags>
0

> <s_epik_input>
W0NIM11DKFtDSDNdKShbQ0gzXSlbTkhdQyg9TylbQ0gyXWMxW2NIXXNjKG4xKU4yW0NIMl1bQ0gyXVtDSDJdQzI9Tw==

> <s_epik_cmdline>
J2VwaWtfcHl0aG9uJywgJy1waCcsICc3LjAnLCAnLXRuJywgJzgnLCAnLW1hJywgJzIwMCcsICctbWV0YWxfYmluZGluZycsICctaW1hZScsICc8aW5maWxlLm1hZT4nLCAnLW9tYWUnLCAnPG91dGZpbGUubWFlPic=

> <r_lp_tautomer_probability>
1

> <r_epik_Ionization_Penalty>
2.98188e-05

> <r_epik_Ionization_Penalty_Charging>
0

> <r_epik_Ionization_Penalty_Neutral>
2.98188e-05

> <r_epik_State_Penalty>
-0

> <r_epik_Charging_Adjusted_Penalty>
0

> <i_epik_Tot_Q>
0

> <i_epik_Tot_abs_Q>
0

> <r_epik_Metal_State_Penalty>
-0

> <b_epik_Metal_Only>
0

> <s_lp_Force_Field>
OPLS_2005

> <r_lp_Energy>
17.4642

> <b_lp_Chiralities_Consistent>
1

> <s_lp_Variant>
AV-unprocessed.smi:2028-1

> <Gold.Version>
5.8.1

> <Gold.Id.Protein>
6NUR|6NUR_protein|mol2

> <Gold.PLP.Fitness>
44.5485

> <Gold.PLP.PLP>
-38.8534

> <Gold.PLP.part.hbond>
-1.1662

> <Gold.PLP.part.metal>
0.0000

> <Gold.PLP.part.buried>
-3.4568

> <Gold.PLP.part.nonpolar>
-34.0795

> <Gold.PLP.part.repulsive>
0.2157

> <Gold.PLP.ligand.clash>
0.0000

> <Gold.PLP.ligand.torsion>
0.1613

> <Gold.PLP.Chemscore.Hbond>
1.0000

> <Gold.PLP.Chemscore.CHOScore>
0.9958

> <Gold.PLP.Chemscore.Metal>
0.0000

> <Gold.Chemscore.Hbonds>
donor molecule, donor type, donor heavy atom, donor atom, acceptor molecule, acceptor atom, score
      P1  H  7997  8008       L1    18  1.00
      L1  C    10    32       P1  8028  0.58

> <Gold.PLP.Chemscore.Internal.Correction>
0.0303

> <Gold.Rescore>
     Score         DG    S(hbond)    S(metal)    S(lipo)     H(rot)  DE(clash)    DE(int)     intcor
     13.21     -14.84       0.99        0.00      83.27       1.44       0.00       1.63       ----

> <Gold.Chemscore.Fitness>
13.2073

> <Gold.Chemscore.DG>
-14.8399

> <Gold.Chemscore.ZeroCoef>
-5.4800

> <Gold.Chemscore.Hbond>
0.9869

> <Gold.Chemscore.Metal>
0.0000

> <Gold.Chemscore.Lipo>
83.2707

> <Gold.Chemscore.Internal_Hbond>
0.0000

> <Gold.Chemscore.DEClash>
0.0048

> <Gold.Chemscore.DEInternal>
1.6278

> <Gold.Chemscore.Rot>
1.4371

> <Gold.Chemscore.Internal.Correction>
   9.000000E+99

> <Gold.Chemscore.Hbonds>
donor molecule, donor type, donor heavy atom, donor atom, acceptor molecule, acceptor atom, score
      P1  H  7997  8008       L1    18  0.91

> <Gold.Chemscore.Hbond.Weighted>
-3.2961

> <Gold.Chemscore.Metal.Weighted>
-0.0000

> <Gold.Chemscore.Lipo.Weighted>
-9.7427

> <Gold.Chemscore.Internal_Hbond.Weighted>
0.0000

> <Gold.Chemscore.DEClash.Weighted>
0.0048

> <Gold.Chemscore.DEInternal.Weighted>
1.6278

> <Gold.Chemscore.Rot.Weighted>
3.6789

> <Gold.Chemscore.Internal.Correction.Weighted>
   9.000000E+99

> <Gold.Protein.RotatedTorsions>
[ 6907 6896 6895 6894 ] final -178.65 input  -60.11 | X-H torsion
[ 7974 7965 7964 7962 ] final  -52.42 input  175.53 | X-H torsion
[ 8008 7997 7996 7995 ] final -111.58 input   59.86 | X-H torsion
[ 10167 10162 10161 10158 ] final  136.61 input  -65.29 | X-H torsion
[ 10718 10713 10712 10709 ] final  145.98 input   66.30 | X-H torsion
[ 10763 10752 10751 10750 ] final  -69.48 input  -60.55 | X-H torsion
[ 11005 11000 10999 10996 ] final  119.20 input  -57.11 | X-H torsion

> <Gold.Protein.ActiveResidues>
 VAL166  LYS551  ARG553  GLY616  TRP617  ASP618  TYR619  PRO620  LYS621  CYS622 
 ASP623  PHE694  ASN695  SER759  ASP760  ASP761  ALA762  ILE779  LEU786  VAL792 
 PHE793  MET794  SER795  GLU796  ALA797  LYS798  CYS799  TRP800  GLU811  SER814 

> <Gold.Protein.RotatedAtoms>
  151.6407  133.3326  159.3129 H   0  0  0  0  0  0  0  0  0  0  0  0  # atno 6907 bound_to 6896
  150.8009  134.7106  159.6611 H   0  0  0  0  0  0  0  0  0  0  0  0  # atno 6908 bound_to 6896
  152.4101  134.6143  160.0085 H   0  0  0  0  0  0  0  0  0  0  0  0  # atno 6909 bound_to 6896
  145.9082  140.7938  142.9709 H   0  0  0  0  0  0  0  0  0  0  0  0  # atno 7974 bound_to 7965
  154.9920  140.0395  157.2323 H   0  0  0  0  0  0  0  0  0  0  0  0  # atno 8008 bound_to 7997
  154.7620  140.2786  155.6184 H   0  0  0  0  0  0  0  0  0  0  0  0  # atno 8009 bound_to 7997
  156.2905  140.2626  156.2401 H   0  0  0  0  0  0  0  0  0  0  0  0  # atno 8010 bound_to 7997
  139.5174  144.6455  151.5451 H   0  0  0  0  0  0  0  0  0  0  0  0  # atno 10167 bound_to 10162
  157.3387  131.0932  151.1101 H   0  0  0  0  0  0  0  0  0  0  0  0  # atno 10718 bound_to 10713
  154.4040  135.6024  153.5914 H   0  0  0  0  0  0  0  0  0  0  0  0  # atno 10763 bound_to 10752
  152.9789  135.5913  154.4149 H   0  0  0  0  0  0  0  0  0  0  0  0  # atno 10764 bound_to 10752
  154.3952  135.2842  155.2108 H   0  0  0  0  0  0  0  0  0  0  0  0  # atno 10765 bound_to 10752
  139.9137  134.9626  156.7619 H   0  0  0  0  0  0  0  0  0  0  0  0  # atno 11005 bound_to 11000
  144.6741  140.1783  143.7408 LP  0  0  0  0  0  0  0  0  0  0  0  0  # atno 17320 bound_to 7965
  145.8705  139.2269  143.1663 LP  0  0  0  0  0  0  0  0  0  0  0  0  # atno 17321 bound_to 7965
  140.6239  143.9207  150.6548 LP  0  0  0  0  0  0  0  0  0  0  0  0  # atno 17342 bound_to 10162
  140.2489  143.3608  152.1423 LP  0  0  0  0  0  0  0  0  0  0  0  0  # atno 17343 bound_to 10162
  157.2322  130.6530  149.5854 LP  0  0  0  0  0  0  0  0  0  0  0  0  # atno 17370 bound_to 10713
  155.9705  130.4595  150.6039 LP  0  0  0  0  0  0  0  0  0  0  0  0  # atno 17371 bound_to 10713
  140.6691  133.9576  155.7846 LP  0  0  0  0  0  0  0  0  0  0  0  0  # atno 17394 bound_to 11000
  141.0590  134.0374  157.3684 LP  0  0  0  0  0  0  0  0  0  0  0  0  # atno 17395 bound_to 11000

$$$$
