AV-unprocessed.smi:3017|AV-procd|sdf|11476|dock9
  -GOLD-   2272016413D 1   1.00000     0.00000
 Structure written by MMmdl.
 37 38  0  0  0  0  0  0  0  0  1 V2000
  154.8743  138.5463  160.0113 C   0  0  0  0  0  0  0  0  0  0  0  0
  153.9213  139.7193  160.2810 C   0  0  1  0  0  0  0  0  0  0  0  0
  154.6928  141.0365  160.4894 C   0  0  0  0  0  0  0  0  0  0  0  0
  153.7381  142.2099  160.7605 C   0  0  0  0  0  0  0  0  0  0  0  0
  152.7019  142.3571  159.6356 C   0  0  0  0  0  0  0  0  0  0  0  0
  151.9194  141.0458  159.4196 C   0  0  1  0  0  0  0  0  0  0  0  0
  151.0614  141.1603  158.2918 O   0  0  0  0  0  0  0  0  0  0  0  0
  151.7386  141.3995  157.0634 C   0  0  0  0  0  0  0  0  0  0  0  0
  150.9614  140.7696  155.9046 C   0  0  0  0  0  0  0  0  0  0  0  0
  151.5267  139.9412  155.1913 O   0  0  0  0  0  0  0  0  0  0  0  0
  149.6912  141.1828  155.7312 N   0  0  0  0  0  0  0  0  0  0  0  0
  148.7537  140.7511  154.7563 C   0  0  0  0  0  0  0  0  0  0  0  0
  147.7315  141.6749  154.4340 C   0  0  0  0  0  0  0  0  0  0  0  0
  146.7638  141.4062  153.5292 N   0  0  0  0  0  0  0  0  0  0  0  0
  146.8136  140.1958  152.9333 C   0  0  0  0  0  0  0  0  0  0  0  0
  147.8249  139.2636  153.2403 C   0  0  0  0  0  0  0  0  0  0  0  0
  148.7890  139.5389  154.1455 N   0  0  0  0  0  0  0  0  0  0  0  0
  152.8849  139.8776  159.1509 C   0  0  0  0  0  0  0  0  0  0  0  0
  155.4441  138.6996  159.0942 H   0  0  0  0  0  0  0  0  0  0  0  0
  154.3248  137.6100  159.9096 H   0  0  0  0  0  0  0  0  0  0  0  0
  155.5857  138.4229  160.8285 H   0  0  0  0  0  0  0  0  0  0  0  0
  153.3820  139.4964  161.2028 H   0  0  0  0  0  0  0  0  0  0  0  0
  155.3903  140.9343  161.3215 H   0  0  0  0  0  0  0  0  0  0  0  0
  155.2958  141.2554  159.6068 H   0  0  0  0  0  0  0  0  0  0  0  0
  153.2263  142.0527  161.7109 H   0  0  0  0  0  0  0  0  0  0  0  0
  154.3066  143.1344  160.8650 H   0  0  0  0  0  0  0  0  0  0  0  0
  152.0246  143.1761  159.8761 H   0  0  0  0  0  0  0  0  0  0  0  0
  153.2079  142.6366  158.7106 H   0  0  0  0  0  0  0  0  0  0  0  0
  151.3364  140.8097  160.3120 H   0  0  0  0  0  0  0  0  0  0  0  0
  151.8309  142.4717  156.8859 H   0  0  0  0  0  0  0  0  0  0  0  0
  152.7436  140.9773  157.0824 H   0  0  0  0  0  0  0  0  0  0  0  0
  149.3547  141.8720  156.3880 H   0  0  0  0  0  0  0  0  0  0  0  0
  147.6854  142.6439  154.9095 H   0  0  0  0  0  0  0  0  0  0  0  0
  146.0442  139.9692  152.2101 H   0  0  0  0  0  0  0  0  0  0  0  0
  147.8599  138.2965  152.7610 H   0  0  0  0  0  0  0  0  0  0  0  0
  153.3990  140.0388  158.2020 H   0  0  0  0  0  0  0  0  0  0  0  0
  152.3148  138.9546  159.0393 H   0  0  0  0  0  0  0  0  0  0  0  0
  1  2  1  0  0  0  0
  1 19  1  0  0  0  0
  1 20  1  0  0  0  0
  1 21  1  0  0  0  0
  2 18  1  0  0  0  0
  2  3  1  0  0  0  0
  2 22  1  0  0  0  0
  3  4  1  0  0  0  0
  3 23  1  0  0  0  0
  3 24  1  0  0  0  0
  4  5  1  0  0  0  0
  4 25  1  0  0  0  0
  4 26  1  0  0  0  0
  5  6  1  0  0  0  0
  5 27  1  0  0  0  0
  5 28  1  0  0  0  0
  6  7  1  0  0  0  0
  6 18  1  0  0  0  0
  6 29  1  0  0  0  0
  7  8  1  0  0  0  0
  8  9  1  0  0  0  0
  8 30  1  0  0  0  0
  8 31  1  0  0  0  0
  9 10  2  0  0  0  0
  9 11  1  0  0  0  0
 11 12  1  0  0  0  0
 11 32  1  0  0  0  0
 12 17  1  0  0  0  0
 12 13  2  0  0  0  0
 13 14  1  0  0  0  0
 13 33  1  0  0  0  0
 14 15  2  0  0  0  0
 15 16  1  0  0  0  0
 15 34  1  0  0  0  0
 16 17  2  0  0  0  0
 16 35  1  0  0  0  0
 18 36  1  0  0  0  0
 18 37  1  0  0  0  0
M  END
> <s_m_source_file>
AV-unprocessed.smi

> <i_m_source_file_index>
3017

> <i_lp_mmshare_version>
43012

> <i_f3d_flags>
0

> <s_epik_input>
W0NIM11bQ0BASF0xW0NIMl1bQ0gyXVtDSDJdW0NASF0oW0NIMl0xKU9bQ0gyXUMoPU8pW05IXWMyW2NIXW5bY0hdW2NIXW4y

> <s_epik_cmdline>
J2VwaWtfcHl0aG9uJywgJy1waCcsICc3LjAnLCAnLXRuJywgJzgnLCAnLW1hJywgJzIwMCcsICctbWV0YWxfYmluZGluZycsICctaW1hZScsICc8aW5maWxlLm1hZT4nLCAnLW9tYWUnLCAnPG91dGZpbGUubWFlPic=

> <r_lp_tautomer_probability>
1

> <r_epik_Ionization_Penalty>
2.89243e-06

> <r_epik_Ionization_Penalty_Charging>
0

> <r_epik_Ionization_Penalty_Neutral>
2.89243e-06

> <r_epik_State_Penalty>
-0

> <r_epik_Charging_Adjusted_Penalty>
0

> <i_epik_Tot_Q>
0

> <i_epik_Tot_abs_Q>
0

> <r_epik_Metal_State_Penalty>
-0

> <b_epik_Metal_Only>
0

> <s_lp_Force_Field>
OPLS_2005

> <r_lp_Energy>
20.2083

> <b_lp_Chiralities_Consistent>
1

> <s_lp_Variant>
AV-unprocessed.smi:3017-2

> <Gold.Version>
5.8.1

> <Gold.Id.Protein>
6NUR|6NUR_protein|mol2

> <Gold.PLP.Fitness>
41.8941

> <Gold.PLP.PLP>
-30.8910

> <Gold.PLP.part.hbond>
-1.0000

> <Gold.PLP.part.metal>
0.0000

> <Gold.PLP.part.buried>
-2.0028

> <Gold.PLP.part.nonpolar>
-27.9900

> <Gold.PLP.part.repulsive>
0.4806

> <Gold.PLP.ligand.clash>
0.0000

> <Gold.PLP.ligand.torsion>
0.3381

> <Gold.PLP.Chemscore.Hbond>
1.0000

> <Gold.PLP.Chemscore.CHOScore>
2.8885

> <Gold.PLP.Chemscore.Metal>
0.0000

> <Gold.Chemscore.Hbonds>
donor molecule, donor type, donor heavy atom, donor atom, acceptor molecule, acceptor atom, score
      P1  H  7989  7998       L1    10  1.00
      L1  C    13    33       P1  8028  1.00
      L1  C    15    34       P1 10175  0.92
      L1  C    16    35       P1  7948  1.00

> <Gold.PLP.Chemscore.Internal.Correction>
0.0139

> <Gold.Rescore>
     Score         DG    S(hbond)    S(metal)    S(lipo)     H(rot)  DE(clash)    DE(int)     intcor
     12.58     -14.21       0.95        0.00      80.57       1.51       0.15       1.48       ----

> <Gold.Chemscore.Fitness>
12.5843

> <Gold.Chemscore.DG>
-14.2147

> <Gold.Chemscore.ZeroCoef>
-5.4800

> <Gold.Chemscore.Hbond>
0.9516

> <Gold.Chemscore.Metal>
0.0000

> <Gold.Chemscore.Lipo>
80.5713

> <Gold.Chemscore.Internal_Hbond>
0.0000

> <Gold.Chemscore.DEClash>
0.1477

> <Gold.Chemscore.DEInternal>
1.4827

> <Gold.Chemscore.Rot>
1.5119

> <Gold.Chemscore.Internal.Correction>
   9.000000E+99

> <Gold.Chemscore.Hbonds>
donor molecule, donor type, donor heavy atom, donor atom, acceptor molecule, acceptor atom, score
      P1  H  7989  7998       L1    10  0.34

> <Gold.Chemscore.Hbond.Weighted>
-3.1784

> <Gold.Chemscore.Metal.Weighted>
-0.0000

> <Gold.Chemscore.Lipo.Weighted>
-9.4268

> <Gold.Chemscore.Internal_Hbond.Weighted>
0.0000

> <Gold.Chemscore.DEClash.Weighted>
0.1477

> <Gold.Chemscore.DEInternal.Weighted>
1.4827

> <Gold.Chemscore.Rot.Weighted>
3.8706

> <Gold.Chemscore.Internal.Correction.Weighted>
   9.000000E+99

> <Gold.Protein.RotatedTorsions>
[ 6907 6896 6895 6894 ] final   76.94 input  -60.11 | X-H torsion
[ 7974 7965 7964 7962 ] final -151.14 input  175.53 | X-H torsion
[ 8008 7997 7996 7995 ] final   94.33 input   59.86 | X-H torsion
[ 10167 10162 10161 10158 ] final  -12.73 input  -65.29 | X-H torsion
[ 10718 10713 10712 10709 ] final  -63.79 input   66.30 | X-H torsion
[ 10763 10752 10751 10750 ] final  104.04 input  -60.55 | X-H torsion
[ 11005 11000 10999 10996 ] final   27.18 input  -57.11 | X-H torsion

> <Gold.Protein.ActiveResidues>
 VAL166  LYS551  ARG553  GLY616  TRP617  ASP618  TYR619  PRO620  LYS621  CYS622 
 ASP623  PHE694  ASN695  SER759  ASP760  ASP761  ALA762  ILE779  LEU786  VAL792 
 PHE793  MET794  SER795  GLU796  ALA797  LYS798  CYS799  TRP800  GLU811  SER814 

> <Gold.Protein.RotatedAtoms>
  152.5096  134.3892  159.9377 H   0  0  0  0  0  0  0  0  0  0  0  0  # atno 6907 bound_to 6896
  151.3851  133.3801  159.2722 H   0  0  0  0  0  0  0  0  0  0  0  0  # atno 6908 bound_to 6896
  150.9475  134.8898  159.7710 H   0  0  0  0  0  0  0  0  0  0  0  0  # atno 6909 bound_to 6896
  144.7867  140.4837  143.5801 H   0  0  0  0  0  0  0  0  0  0  0  0  # atno 7974 bound_to 7965
  156.0567  140.3301  155.7413 H   0  0  0  0  0  0  0  0  0  0  0  0  # atno 8008 bound_to 7997
  155.5518  140.0611  157.2866 H   0  0  0  0  0  0  0  0  0  0  0  0  # atno 8009 bound_to 7997
  154.4461  140.1893  156.0682 H   0  0  0  0  0  0  0  0  0  0  0  0  # atno 8010 bound_to 7997
  140.7167  143.5501  150.9310 H   0  0  0  0  0  0  0  0  0  0  0  0  # atno 10167 bound_to 10162
  156.0769  130.4225  150.1328 H   0  0  0  0  0  0  0  0  0  0  0  0  # atno 10718 bound_to 10713
  153.3606  135.3956  155.1716 H   0  0  0  0  0  0  0  0  0  0  0  0  # atno 10763 bound_to 10752
  154.8678  135.3678  154.5104 H   0  0  0  0  0  0  0  0  0  0  0  0  # atno 10764 bound_to 10752
  153.5563  135.7082  153.5628 H   0  0  0  0  0  0  0  0  0  0  0  0  # atno 10765 bound_to 10752
  140.3290  134.2458  155.7705 H   0  0  0  0  0  0  0  0  0  0  0  0  # atno 11005 bound_to 11000
  145.5904  139.1495  143.3185 LP  0  0  0  0  0  0  0  0  0  0  0  0  # atno 17320 bound_to 7965
  146.2101  140.6030  142.9063 LP  0  0  0  0  0  0  0  0  0  0  0  0  # atno 17321 bound_to 7965
  139.9225  143.6588  152.3093 LP  0  0  0  0  0  0  0  0  0  0  0  0  # atno 17342 bound_to 10162
  139.7011  144.7635  151.1272 LP  0  0  0  0  0  0  0  0  0  0  0  0  # atno 17343 bound_to 10162
  156.9367  130.9731  151.3523 LP  0  0  0  0  0  0  0  0  0  0  0  0  # atno 17370 bound_to 10713
  157.5868  130.8415  149.8601 LP  0  0  0  0  0  0  0  0  0  0  0  0  # atno 17371 bound_to 10713
  141.2068  133.7823  157.0156 LP  0  0  0  0  0  0  0  0  0  0  0  0  # atno 17394 bound_to 11000
  140.0876  134.9611  157.1725 LP  0  0  0  0  0  0  0  0  0  0  0  0  # atno 17395 bound_to 11000

$$$$
