AV-unprocessed.smi:2153|AV-procd|sdf|8767|dock3
  -GOLD-   2272011543D 1   1.00000     0.00000
 Structure written by MMmdl.
 48 49  0  0  0  0  0  0  0  0  1 V2000
  151.3391  145.0813  158.9574 C   0  0  0  0  0  0  0  0  0  0  0  0
  152.2612  144.0632  159.6469 C   0  0  1  0  0  0  0  0  0  0  0  0
  151.9682  143.9590  161.1587 C   0  0  0  0  0  0  0  0  0  0  0  0
  152.9190  142.9686  161.8507 C   0  0  0  0  0  0  0  0  0  0  0  0
  152.8812  141.5881  161.1777 C   0  0  0  0  0  0  0  0  0  0  0  0
  153.1726  141.6969  159.6733 C   0  0  0  0  0  0  0  0  0  0  0  0
  152.1985  142.6723  158.9760 C   0  0  1  0  0  0  0  0  0  0  0  0
  150.8484  142.2300  159.0524 O   0  0  0  0  0  0  0  0  0  0  0  0
  150.0052  142.5805  157.9663 C   0  0  0  0  0  0  0  0  0  0  0  0
  148.5539  142.2395  158.3371 C   0  0  0  0  0  0  0  0  0  0  0  0
  147.7838  143.4376  158.6586 N   0  0  0  0  0  0  0  0  0  0  0  0
  147.1470  143.6526  159.8208 C   0  0  0  0  0  0  0  0  0  0  0  0
  147.1804  142.8621  160.7652 O   0  0  0  0  0  0  0  0  0  0  0  0
  146.3714  144.9705  159.9409 C   0  0  0  0  0  0  0  0  0  0  0  0
  144.9508  144.7547  160.2450 N   0  0  0  0  0  0  0  0  0  0  0  0
  144.5949  144.0006  161.3484 C   0  0  0  0  0  0  0  0  0  0  0  0
  143.3152  143.7201  161.6779 C   0  0  0  0  0  0  0  0  0  0  0  0
  142.2102  144.2136  160.8660 C   0  0  0  0  0  0  0  0  0  0  0  0
  141.0280  143.9699  161.1124 O   0  0  0  0  0  0  0  0  0  0  0  0
  142.5994  144.9950  159.7538 N   0  0  0  0  0  0  0  0  0  0  0  0
  141.5384  145.4956  158.9047 C   0  0  0  0  0  0  0  0  0  0  0  0
  143.9414  145.2755  159.4066 C   0  0  0  0  0  0  0  0  0  0  0  0
  144.2399  145.9396  158.4118 O   0  0  0  0  0  0  0  0  0  0  0  0
  150.2904  144.7972  159.0496 H   0  0  0  0  0  0  0  0  0  0  0  0
  151.5696  145.1635  157.8951 H   0  0  0  0  0  0  0  0  0  0  0  0
  151.4521  146.0721  159.3973 H   0  0  0  0  0  0  0  0  0  0  0  0
  153.2813  144.4344  159.5356 H   0  0  0  0  0  0  0  0  0  0  0  0
  152.0625  144.9395  161.6264 H   0  0  0  0  0  0  0  0  0  0  0  0
  150.9357  143.6439  161.3163 H   0  0  0  0  0  0  0  0  0  0  0  0
  153.9362  143.3604  161.8208 H   0  0  0  0  0  0  0  0  0  0  0  0
  152.6572  142.8741  162.9041 H   0  0  0  0  0  0  0  0  0  0  0  0
  153.6051  140.9247  161.6510 H   0  0  0  0  0  0  0  0  0  0  0  0
  151.9023  141.1313  161.3247 H   0  0  0  0  0  0  0  0  0  0  0  0
  154.1938  142.0543  159.5345 H   0  0  0  0  0  0  0  0  0  0  0  0
  153.1437  140.7108  159.2113 H   0  0  0  0  0  0  0  0  0  0  0  0
  152.4777  142.7723  157.9258 H   0  0  0  0  0  0  0  0  0  0  0  0
  150.0876  143.6476  157.7564 H   0  0  0  0  0  0  0  0  0  0  0  0
  150.2921  142.0418  157.0633 H   0  0  0  0  0  0  0  0  0  0  0  0
  148.0775  141.6769  157.5324 H   0  0  0  0  0  0  0  0  0  0  0  0
  148.5451  141.5892  159.2118 H   0  0  0  0  0  0  0  0  0  0  0  0
  147.7091  144.1410  157.9382 H   0  0  0  0  0  0  0  0  0  0  0  0
  146.8325  145.5649  160.7307 H   0  0  0  0  0  0  0  0  0  0  0  0
  146.4825  145.5582  159.0276 H   0  0  0  0  0  0  0  0  0  0  0  0
  145.3801  143.6055  161.9767 H   0  0  0  0  0  0  0  0  0  0  0  0
  143.1068  143.1188  162.5506 H   0  0  0  0  0  0  0  0  0  0  0  0
  141.9013  146.2987  158.2632 H   0  0  0  0  0  0  0  0  0  0  0  0
  140.7497  145.8968  159.5436 H   0  0  0  0  0  0  0  0  0  0  0  0
  141.1822  144.6514  158.3122 H   0  0  0  0  0  0  0  0  0  0  0  0
  1  2  1  0  0  0  0
  1 24  1  0  0  0  0
  1 25  1  0  0  0  0
  1 26  1  0  0  0  0
  2  7  1  0  0  0  0
  2  3  1  0  0  0  0
  2 27  1  0  0  0  0
  3  4  1  0  0  0  0
  3 28  1  0  0  0  0
  3 29  1  0  0  0  0
  4  5  1  0  0  0  0
  4 30  1  0  0  0  0
  4 31  1  0  0  0  0
  5  6  1  0  0  0  0
  5 32  1  0  0  0  0
  5 33  1  0  0  0  0
  6  7  1  0  0  0  0
  6 34  1  0  0  0  0
  6 35  1  0  0  0  0
  7  8  1  0  0  0  0
  7 36  1  0  0  0  0
  8  9  1  0  0  0  0
  9 10  1  0  0  0  0
  9 37  1  0  0  0  0
  9 38  1  0  0  0  0
 10 11  1  0  0  0  0
 10 39  1  0  0  0  0
 10 40  1  0  0  0  0
 11 12  1  0  0  0  0
 11 41  1  0  0  0  0
 12 13  2  0  0  0  0
 12 14  1  0  0  0  0
 14 15  1  0  0  0  0
 14 42  1  0  0  0  0
 14 43  1  0  0  0  0
 15 22  1  0  0  0  0
 15 16  1  0  0  0  0
 16 17  2  0  0  0  0
 16 44  1  0  0  0  0
 17 18  1  0  0  0  0
 17 45  1  0  0  0  0
 18 19  2  0  0  0  0
 18 20  1  0  0  0  0
 20 21  1  0  0  0  0
 20 22  1  0  0  0  0
 21 46  1  0  0  0  0
 21 47  1  0  0  0  0
 21 48  1  0  0  0  0
 22 23  2  0  0  0  0
M  END
> <s_m_source_file>
AV-unprocessed.smi

> <i_m_source_file_index>
2153

> <i_lp_mmshare_version>
43012

> <i_f3d_flags>
0

> <s_epik_input>
W0NIM11bQ0BASF0xW0NIMl1bQ0gyXVtDSDJdW0NIMl1bQ0BIXTFPW0NIMl1bQ0gyXVtOSF1DKD1PKVtDSDJdbjJbY0hdW2NIXWMoPU8pbihbQ0gzXSljMj1P

> <s_epik_cmdline>
J2VwaWtfcHl0aG9uJywgJy1waCcsICc3LjAnLCAnLXRuJywgJzgnLCAnLW1hJywgJzIwMCcsICctbWV0YWxfYmluZGluZycsICctaW1hZScsICc8aW5maWxlLm1hZT4nLCAnLW9tYWUnLCAnPG91dGZpbGUubWFlPic=

> <r_lp_tautomer_probability>
1

> <r_epik_Ionization_Penalty>
4.02205e-08

> <r_epik_Ionization_Penalty_Charging>
1.23606e-08

> <r_epik_Ionization_Penalty_Neutral>
2.78599e-08

> <r_epik_State_Penalty>
-0

> <r_epik_Charging_Adjusted_Penalty>
1.23606e-08

> <i_epik_Tot_Q>
0

> <i_epik_Tot_abs_Q>
0

> <r_epik_Metal_State_Penalty>
-0

> <b_epik_Metal_Only>
0

> <s_lp_Force_Field>
OPLS_2005

> <r_lp_Energy>
16.8304

> <b_lp_Chiralities_Consistent>
1

> <s_lp_Variant>
AV-unprocessed.smi:2153-2

> <Gold.Version>
5.8.1

> <Gold.Id.Protein>
6NUR|6NUR_protein|mol2

> <Gold.PLP.Fitness>
51.1025

> <Gold.PLP.PLP>
-44.8821

> <Gold.PLP.part.hbond>
-4.4428

> <Gold.PLP.part.metal>
0.0000

> <Gold.PLP.part.buried>
-6.0694

> <Gold.PLP.part.nonpolar>
-35.7681

> <Gold.PLP.part.repulsive>
0.2617

> <Gold.PLP.ligand.clash>
0.0000

> <Gold.PLP.ligand.torsion>
0.7644

> <Gold.PLP.Chemscore.Hbond>
2.5223

> <Gold.PLP.Chemscore.CHOScore>
0.0000

> <Gold.PLP.Chemscore.Metal>
0.0000

> <Gold.Chemscore.Hbonds>
donor molecule, donor type, donor heavy atom, donor atom, acceptor molecule, acceptor atom, score
      L1  H    11    41       P1  8029  0.85
      P1  H  6933  6944       L1    13  0.99
      P1  H  6934  6946       L1    13  0.67

> <Gold.PLP.Chemscore.Internal.Correction>
0.1821

> <Gold.Rescore>
     Score         DG    S(hbond)    S(metal)    S(lipo)     H(rot)  DE(clash)    DE(int)     intcor
     17.88     -21.01       2.49        0.00     109.80       2.20       0.05       3.08       ----

> <Gold.Chemscore.Fitness>
17.8813

> <Gold.Chemscore.DG>
-21.0138

> <Gold.Chemscore.ZeroCoef>
-5.4800

> <Gold.Chemscore.Hbond>
2.4884

> <Gold.Chemscore.Metal>
0.0000

> <Gold.Chemscore.Lipo>
109.7979

> <Gold.Chemscore.Internal_Hbond>
0.0000

> <Gold.Chemscore.DEClash>
0.0525

> <Gold.Chemscore.DEInternal>
3.0800

> <Gold.Chemscore.Rot>
2.1968

> <Gold.Chemscore.Internal.Correction>
   9.000000E+99

> <Gold.Chemscore.Hbonds>
donor molecule, donor type, donor heavy atom, donor atom, acceptor molecule, acceptor atom, score
      L1  H    11    41       P1  8029  0.14
      P1  H  6933  6944       L1    13  0.90
      P1  H  6934  6946       L1    13  0.63

> <Gold.Chemscore.Hbond.Weighted>
-8.3112

> <Gold.Chemscore.Metal.Weighted>
-0.0000

> <Gold.Chemscore.Lipo.Weighted>
-12.8463

> <Gold.Chemscore.Internal_Hbond.Weighted>
0.0000

> <Gold.Chemscore.DEClash.Weighted>
0.0525

> <Gold.Chemscore.DEInternal.Weighted>
3.0800

> <Gold.Chemscore.Rot.Weighted>
5.6238

> <Gold.Chemscore.Internal.Correction.Weighted>
   9.000000E+99

> <Gold.Protein.RotatedTorsions>
[ 6907 6896 6895 6894 ] final -114.35 input  -60.11 | X-H torsion
[ 7974 7965 7964 7962 ] final  151.78 input  175.53 | X-H torsion
[ 8008 7997 7996 7995 ] final -106.15 input   59.86 | X-H torsion
[ 10167 10162 10161 10158 ] final   63.42 input  -65.29 | X-H torsion
[ 10718 10713 10712 10709 ] final  115.12 input   66.30 | X-H torsion
[ 10763 10752 10751 10750 ] final   67.50 input  -60.55 | X-H torsion
[ 11005 11000 10999 10996 ] final  -20.72 input  -57.11 | X-H torsion

> <Gold.Protein.ActiveResidues>
 VAL166  LYS551  ARG553  GLY616  TRP617  ASP618  TYR619  PRO620  LYS621  CYS622 
 ASP623  PHE694  ASN695  SER759  ASP760  ASP761  ALA762  ILE779  LEU786  VAL792 
 PHE793  MET794  SER795  GLU796  ALA797  LYS798  CYS799  TRP800  GLU811  SER814 

> <Gold.Protein.RotatedAtoms>
  150.7896  133.8814  159.3286 H   0  0  0  0  0  0  0  0  0  0  0  0  # atno 6907 bound_to 6896
  151.6655  135.0981  160.0197 H   0  0  0  0  0  0  0  0  0  0  0  0  # atno 6908 bound_to 6896
  152.3967  133.6718  159.6317 H   0  0  0  0  0  0  0  0  0  0  0  0  # atno 6909 bound_to 6896
  144.8268  139.6582  143.6076 H   0  0  0  0  0  0  0  0  0  0  0  0  # atno 7974 bound_to 7965
  154.9104  140.0410  157.1943 H   0  0  0  0  0  0  0  0  0  0  0  0  # atno 8008 bound_to 7997
  154.8354  140.2906  155.5673 H   0  0  0  0  0  0  0  0  0  0  0  0  # atno 8009 bound_to 7997
  156.2989  140.2493  156.3287 H   0  0  0  0  0  0  0  0  0  0  0  0  # atno 8010 bound_to 7997
  140.1332  144.4623  150.6853 H   0  0  0  0  0  0  0  0  0  0  0  0  # atno 10167 bound_to 10162
  157.6241  131.1008  150.7284 H   0  0  0  0  0  0  0  0  0  0  0  0  # atno 10718 bound_to 10713
  153.0189  135.5282  154.6989 H   0  0  0  0  0  0  0  0  0  0  0  0  # atno 10763 bound_to 10752
  154.6103  135.2877  155.0442 H   0  0  0  0  0  0  0  0  0  0  0  0  # atno 10764 bound_to 10752
  154.1466  135.6569  153.5006 H   0  0  0  0  0  0  0  0  0  0  0  0  # atno 10765 bound_to 10752
  140.8491  133.7869  155.9946 H   0  0  0  0  0  0  0  0  0  0  0  0  # atno 11005 bound_to 11000
  146.2573  139.6331  142.9386 LP  0  0  0  0  0  0  0  0  0  0  0  0  # atno 17320 bound_to 7965
  145.4982  141.0438  143.2555 LP  0  0  0  0  0  0  0  0  0  0  0  0  # atno 17321 bound_to 7965
  140.6804  143.2324  151.5398 LP  0  0  0  0  0  0  0  0  0  0  0  0  # atno 17342 bound_to 10162
  139.5509  144.2398  152.1528 LP  0  0  0  0  0  0  0  0  0  0  0  0  # atno 17343 bound_to 10162
  156.7636  130.4806  149.5432 LP  0  0  0  0  0  0  0  0  0  0  0  0  # atno 17370 bound_to 10713
  156.1403  130.6239  151.0457 LP  0  0  0  0  0  0  0  0  0  0  0  0  # atno 17371 bound_to 10713
  140.8810  134.2612  157.5144 LP  0  0  0  0  0  0  0  0  0  0  0  0  # atno 17394 bound_to 11000
  139.8704  134.9615  156.4397 LP  0  0  0  0  0  0  0  0  0  0  0  0  # atno 17395 bound_to 11000

$$$$
