AV-unprocessed.smi:1947|AV-procd|sdf|7870|dock9
  -GOLD-   2272010 23D 1   1.00000     0.00000
 Structure written by MMmdl.
 38 39  0  0  0  0  0  0  0  0  2 V2000
  146.4012  138.7355  152.3699 C   0  0  0  0  0  0  0  0  0  0  0  0
  147.5754  139.5142  152.9819 C   0  0  1  0  0  0  0  0  0  0  0  0
  147.1279  140.8946  153.5038 C   0  0  0  0  0  0  0  0  0  0  0  0
  148.3138  141.7002  154.0570 C   0  0  0  0  0  0  0  0  0  0  0  0
  149.0620  140.9157  155.1451 C   0  0  0  0  0  0  0  0  0  0  0  0
  149.5099  139.5359  154.6326 C   0  0  0  0  0  0  0  0  0  0  0  0
  148.3284  138.7188  154.0776 C   0  0  1  0  0  0  0  0  0  0  0  0
  147.4624  138.4361  155.1692 O   0  0  0  0  0  0  0  0  0  0  0  0
  147.9247  137.4373  156.0655 C   0  0  0  0  0  0  0  0  0  0  0  0
  148.6954  138.1097  157.2119 C   0  0  0  0  0  0  0  0  0  0  0  0
  148.0565  137.8469  158.4982 N   0  0  0  0  0  0  0  0  0  0  0  0
  148.5240  137.0313  159.4546 C   0  0  0  0  0  0  0  0  0  0  0  0
  149.5285  136.3470  159.2455 O   0  0  0  0  0  0  0  0  0  0  0  0
  147.8113  137.0731  160.6031 N   0  5  0  0  0  0  0  0  0  0  0  0
  147.3083  135.9379  161.1156 C   0  0  0  0  0  0  0  0  0  0  0  0
  146.7606  134.9853  160.3433 N   0  0  0  0  0  0  0  0  0  0  0  0
  146.2951  133.8961  161.0672 N   0  0  0  0  0  0  0  0  0  0  0  0
  146.5141  134.0519  162.3727 C   0  0  0  0  0  0  0  0  0  0  0  0
  147.3111  135.5409  162.8356 S   0  0  0  0  0  0  0  0  0  0  0  0
  145.6107  138.5653  153.1008 H   0  0  0  0  0  0  0  0  0  0  0  0
  146.7253  137.7656  151.9919 H   0  0  0  0  0  0  0  0  0  0  0  0
  145.9613  139.2835  151.5366 H   0  0  0  0  0  0  0  0  0  0  0  0
  148.2847  139.6900  152.1718 H   0  0  0  0  0  0  0  0  0  0  0  0
  146.6458  141.4585  152.7046 H   0  0  0  0  0  0  0  0  0  0  0  0
  146.3758  140.7712  154.2836 H   0  0  0  0  0  0  0  0  0  0  0  0
  148.9996  141.9447  153.2449 H   0  0  0  0  0  0  0  0  0  0  0  0
  147.9604  142.6495  154.4601 H   0  0  0  0  0  0  0  0  0  0  0  0
  149.9273  141.4850  155.4849 H   0  0  0  0  0  0  0  0  0  0  0  0
  148.4147  140.7921  156.0145 H   0  0  0  0  0  0  0  0  0  0  0  0
  150.2578  139.6679  153.8499 H   0  0  0  0  0  0  0  0  0  0  0  0
  150.0000  138.9830  155.4346 H   0  0  0  0  0  0  0  0  0  0  0  0
  148.7270  137.7952  153.6533 H   0  0  0  0  0  0  0  0  0  0  0  0
  147.0982  136.8506  156.4681 H   0  0  0  0  0  0  0  0  0  0  0  0
  148.5760  136.7497  155.5246 H   0  0  0  0  0  0  0  0  0  0  0  0
  149.7059  137.7036  157.2564 H   0  0  0  0  0  0  0  0  0  0  0  0
  148.8000  139.1810  157.0340 H   0  0  0  0  0  0  0  0  0  0  0  0
  147.2259  138.3791  158.7113 H   0  0  0  0  0  0  0  0  0  0  0  0
  146.2068  133.2844  163.0669 H   0  0  0  0  0  0  0  0  0  0  0  0
  1  2  1  0  0  0  0
  1 20  1  0  0  0  0
  1 21  1  0  0  0  0
  1 22  1  0  0  0  0
  2  7  1  0  0  0  0
  2  3  1  0  0  0  0
  2 23  1  0  0  0  0
  3  4  1  0  0  0  0
  3 24  1  0  0  0  0
  3 25  1  0  0  0  0
  4  5  1  0  0  0  0
  4 26  1  0  0  0  0
  4 27  1  0  0  0  0
  5  6  1  0  0  0  0
  5 28  1  0  0  0  0
  5 29  1  0  0  0  0
  6  7  1  0  0  0  0
  6 30  1  0  0  0  0
  6 31  1  0  0  0  0
  7  8  1  0  0  0  0
  7 32  1  0  0  0  0
  8  9  1  0  0  0  0
  9 10  1  0  0  0  0
  9 33  1  0  0  0  0
  9 34  1  0  0  0  0
 10 11  1  0  0  0  0
 10 35  1  0  0  0  0
 10 36  1  0  0  0  0
 11 12  1  0  0  0  0
 11 37  1  0  0  0  0
 12 13  2  0  0  0  0
 12 14  1  0  0  0  0
 14 15  1  0  0  0  0
 15 19  1  0  0  0  0
 15 16  2  0  0  0  0
 16 17  1  0  0  0  0
 17 18  2  0  0  0  0
 18 19  1  0  0  0  0
 18 38  1  0  0  0  0
M  CHG  1  14  -1
M  END
> <s_m_source_file>
AV-unprocessed.smi

> <i_m_source_file_index>
1947

> <i_lp_mmshare_version>
43012

> <i_f3d_flags>
0

> <s_epik_input>
W0NIM11bQ0BASF0xW0NIMl1bQ0gyXVtDSDJdW0NIMl1bQ0BIXTFPW0NIMl1bQ0gyXVtOSF1DKD1PKVtOSF1jMm5uW2NIXXMy

> <s_epik_cmdline>
J2VwaWtfcHl0aG9uJywgJy1waCcsICc3LjAnLCAnLXRuJywgJzgnLCAnLW1hJywgJzIwMCcsICctbWV0YWxfYmluZGluZycsICctaW1hZScsICc8aW5maWxlLm1hZT4nLCAnLW9tYWUnLCAnPG91dGZpbGUubWFlPic=

> <r_lp_tautomer_probability>
1

> <r_epik_Ionization_Penalty>
3.35961

> <r_epik_Ionization_Penalty_Charging>
3.31977

> <r_epik_Ionization_Penalty_Neutral>
0.0398394

> <r_epik_State_Penalty>
3.31759

> <r_epik_Charging_Adjusted_Penalty>
6.63736

> <i_epik_Tot_Q>
-1

> <i_epik_Tot_abs_Q>
1

> <r_epik_Metal_State_Penalty>
0.484557

> <b_epik_Metal_Only>
1

> <s_lp_Force_Field>
OPLS_2005

> <r_lp_Energy>
8.55413

> <b_lp_Chiralities_Consistent>
1

> <s_lp_Variant>
AV-unprocessed.smi:1947-6

> <Gold.Version>
5.8.1

> <Gold.Id.Protein>
6NUR|6NUR_protein|mol2

> <Gold.PLP.Fitness>
42.2293

> <Gold.PLP.PLP>
-32.3938

> <Gold.PLP.part.hbond>
-2.9581

> <Gold.PLP.part.metal>
0.0000

> <Gold.PLP.part.buried>
-1.1338

> <Gold.PLP.part.nonpolar>
-29.8222

> <Gold.PLP.part.repulsive>
0.1959

> <Gold.PLP.ligand.clash>
0.0000

> <Gold.PLP.ligand.torsion>
1.5954

> <Gold.PLP.Chemscore.Hbond>
4.3193

> <Gold.PLP.Chemscore.CHOScore>
0.0000

> <Gold.PLP.Chemscore.Metal>
0.0000

> <Gold.Chemscore.Hbonds>
donor molecule, donor type, donor heavy atom, donor atom, acceptor molecule, acceptor atom, score
      P1  H  6896  6909       L1    13  0.99
      P1  H  6931  6943       L1    14  1.24
      P1  H  6934  6947       L1    14  1.57

> <Gold.PLP.Chemscore.Internal.Correction>
0.0685

> <Gold.Rescore>
     Score         DG    S(hbond)    S(metal)    S(lipo)     H(rot)  DE(clash)    DE(int)     intcor
     13.99     -15.85       2.14        0.00      68.97       1.90       0.23       1.63       ----

> <Gold.Chemscore.Fitness>
13.9885

> <Gold.Chemscore.DG>
-15.8500

> <Gold.Chemscore.ZeroCoef>
-5.4800

> <Gold.Chemscore.Hbond>
2.1437

> <Gold.Chemscore.Metal>
0.0000

> <Gold.Chemscore.Lipo>
68.9717

> <Gold.Chemscore.Internal_Hbond>
0.0000

> <Gold.Chemscore.DEClash>
0.2347

> <Gold.Chemscore.DEInternal>
1.6268

> <Gold.Chemscore.Rot>
1.8984

> <Gold.Chemscore.Internal.Correction>
   9.000000E+99

> <Gold.Chemscore.Hbonds>
donor molecule, donor type, donor heavy atom, donor atom, acceptor molecule, acceptor atom, score
      P1  H  6896  6909       L1    13  0.92
      P1  H  6931  6943       L1    14  0.23
      P1  H  6934  6947       L1    14  0.49

> <Gold.Chemscore.Hbond.Weighted>
-7.1601

> <Gold.Chemscore.Metal.Weighted>
-0.0000

> <Gold.Chemscore.Lipo.Weighted>
-8.0697

> <Gold.Chemscore.Internal_Hbond.Weighted>
0.0000

> <Gold.Chemscore.DEClash.Weighted>
0.2347

> <Gold.Chemscore.DEInternal.Weighted>
1.6268

> <Gold.Chemscore.Rot.Weighted>
4.8598

> <Gold.Chemscore.Internal.Correction.Weighted>
   9.000000E+99

> <Gold.Protein.RotatedTorsions>
[ 6907 6896 6895 6894 ] final   77.68 input  -60.11 | X-H torsion
[ 7974 7965 7964 7962 ] final -122.49 input  175.53 | X-H torsion
[ 8008 7997 7996 7995 ] final  -11.75 input   59.86 | X-H torsion
[ 10167 10162 10161 10158 ] final   88.01 input  -65.29 | X-H torsion
[ 10718 10713 10712 10709 ] final  -85.48 input   66.30 | X-H torsion
[ 10763 10752 10751 10750 ] final   14.14 input  -60.55 | X-H torsion
[ 11005 11000 10999 10996 ] final -146.31 input  -57.11 | X-H torsion

> <Gold.Protein.ActiveResidues>
 VAL166  LYS551  ARG553  GLY616  TRP617  ASP618  TYR619  PRO620  LYS621  CYS622 
 ASP623  PHE694  ASN695  SER759  ASP760  ASP761  ALA762  ILE779  LEU786  VAL792 
 PHE793  MET794  SER795  GLU796  ALA797  LYS798  CYS799  TRP800  GLU811  SER814 

> <Gold.Protein.RotatedAtoms>
  152.5128  134.3780  159.9340 H   0  0  0  0  0  0  0  0  0  0  0  0  # atno 6907 bound_to 6896
  151.3736  133.3840  159.2710 H   0  0  0  0  0  0  0  0  0  0  0  0  # atno 6908 bound_to 6896
  150.9559  134.8973  159.7759 H   0  0  0  0  0  0  0  0  0  0  0  0  # atno 6909 bound_to 6896
  145.0289  140.8051  143.4336 H   0  0  0  0  0  0  0  0  0  0  0  0  # atno 7974 bound_to 7965
  154.5437  140.2294  155.8598 H   0  0  0  0  0  0  0  0  0  0  0  0  # atno 8008 bound_to 7997
  156.1883  140.3083  155.9243 H   0  0  0  0  0  0  0  0  0  0  0  0  # atno 8009 bound_to 7997
  155.3206  140.0440  157.3029 H   0  0  0  0  0  0  0  0  0  0  0  0  # atno 8010 bound_to 7997
  139.8716  144.6490  150.8943 H   0  0  0  0  0  0  0  0  0  0  0  0  # atno 10167 bound_to 10162
  155.9996  130.4732  150.4569 H   0  0  0  0  0  0  0  0  0  0  0  0  # atno 10718 bound_to 10713
  153.1652  135.6803  153.8686 H   0  0  0  0  0  0  0  0  0  0  0  0  # atno 10763 bound_to 10752
  153.8068  135.3148  155.3397 H   0  0  0  0  0  0  0  0  0  0  0  0  # atno 10764 bound_to 10752
  154.7960  135.4806  154.0253 H   0  0  0  0  0  0  0  0  0  0  0  0  # atno 10765 bound_to 10752
  140.7833  134.3054  157.5038 H   0  0  0  0  0  0  0  0  0  0  0  0  # atno 11005 bound_to 11000
  145.1797  139.2358  143.5299 LP  0  0  0  0  0  0  0  0  0  0  0  0  # atno 17320 bound_to 7965
  146.3496  140.1568  142.8591 LP  0  0  0  0  0  0  0  0  0  0  0  0  # atno 17321 bound_to 7965
  140.7760  143.3659  151.1740 LP  0  0  0  0  0  0  0  0  0  0  0  0  # atno 17342 bound_to 10162
  139.7279  143.9120  152.3009 LP  0  0  0  0  0  0  0  0  0  0  0  0  # atno 17343 bound_to 10162
  157.2597  131.0564  151.2328 LP  0  0  0  0  0  0  0  0  0  0  0  0  # atno 17370 bound_to 10713
  157.3447  130.7051  149.6403 LP  0  0  0  0  0  0  0  0  0  0  0  0  # atno 17371 bound_to 10713
  139.8740  134.9331  156.3572 LP  0  0  0  0  0  0  0  0  0  0  0  0  # atno 17394 bound_to 11000
  140.9461  133.7482  156.0210 LP  0  0  0  0  0  0  0  0  0  0  0  0  # atno 17395 bound_to 11000

$$$$
