AV-unprocessed.smi:1738|AV-procd|sdf|6998|dock1
  -GOLD-   22720 8213D 1   1.00000     0.00000
 Structure written by MMmdl.
 46 48  0  0  0  0  0  0  0  0  2 V2000
  152.6163  138.9233  159.0272 C   0  0  0  0  0  0  0  0  0  0  0  0
  153.1858  137.4258  158.1238 S   0  0  0  0  0  0  0  0  0  0  0  0
  154.2673  137.8221  157.2085 O   0  0  0  0  0  0  0  0  0  0  0  0
  153.4253  136.3651  159.1150 O   0  0  0  0  0  0  0  0  0  0  0  0
  151.7696  136.9613  157.1341 C   0  0  0  0  0  0  0  0  0  0  0  0
  150.5107  136.7659  157.7371 C   0  0  0  0  0  0  0  0  0  0  0  0
  149.4216  136.4367  156.9079 C   0  0  0  0  0  0  0  0  0  0  0  0
  149.6338  136.3195  155.5122 C   0  0  0  0  0  0  0  0  0  0  0  0
  148.6142  136.0100  154.5720 N   0  0  0  0  0  0  0  0  0  0  0  0
  147.4045  135.4699  154.7980 C   0  0  0  0  0  0  0  0  0  0  0  0
  146.9708  135.1232  155.8963 O   0  0  0  0  0  0  0  0  0  0  0  0
  146.7160  135.3231  153.6572 N   0  0  0  0  0  0  0  0  0  0  0  0
  145.3683  134.7666  153.5666 C   0  0  1  0  0  0  0  0  0  0  0  0
  144.4098  135.6300  152.7567 C   0  0  0  0  0  0  0  0  0  0  0  0
  143.2750  134.6589  152.4146 C   0  0  0  0  0  0  0  0  0  0  0  0
  143.8617  133.2959  152.4113 N   0  3  1  0  0  0  0  0  0  0  0  0
  143.6504  132.5489  151.1422 C   0  0  0  0  0  0  0  0  0  0  0  0
  144.5957  131.3422  151.0509 C   0  0  0  0  0  0  0  0  0  0  0  0
  146.0722  131.7815  151.0499 C   0  0  0  0  0  0  0  0  0  0  0  0
  146.2792  133.1572  151.7129 C   0  0  0  0  0  0  0  0  0  0  0  0
  145.2771  133.3950  152.8694 C   0  0  1  0  0  0  0  0  0  0  0  0
  150.9330  136.5682  155.0194 C   0  0  0  0  0  0  0  0  0  0  0  0
  151.9846  136.8842  155.8038 N   0  0  0  0  0  0  0  0  0  0  0  0
  153.4170  139.2842  159.6721 H   0  0  0  0  0  0  0  0  0  0  0  0
  151.7453  138.6736  159.6325 H   0  0  0  0  0  0  0  0  0  0  0  0
  152.3497  139.7003  158.3110 H   0  0  0  0  0  0  0  0  0  0  0  0
  150.3762  136.8668  158.8038 H   0  0  0  0  0  0  0  0  0  0  0  0
  148.4496  136.2982  157.3551 H   0  0  0  0  0  0  0  0  0  0  0  0
  148.8585  136.1652  153.6045 H   0  0  0  0  0  0  0  0  0  0  0  0
  147.1476  135.6249  152.7957 H   0  0  0  0  0  0  0  0  0  0  0  0
  144.9588  134.6747  154.5752 H   0  0  0  0  0  0  0  0  0  0  0  0
  144.0623  136.5072  153.3034 H   0  0  0  0  0  0  0  0  0  0  0  0
  144.8917  135.9737  151.8400 H   0  0  0  0  0  0  0  0  0  0  0  0
  142.5092  134.6900  153.1903 H   0  0  0  0  0  0  0  0  0  0  0  0
  142.7924  134.9224  151.4724 H   0  0  0  0  0  0  0  0  0  0  0  0
  142.6098  132.2273  151.0887 H   0  0  0  0  0  0  0  0  0  0  0  0
  143.8232  133.2032  150.2860 H   0  0  0  0  0  0  0  0  0  0  0  0
  144.4113  130.6828  151.9003 H   0  0  0  0  0  0  0  0  0  0  0  0
  144.3819  130.7540  150.1578 H   0  0  0  0  0  0  0  0  0  0  0  0
  146.6668  131.0251  151.5636 H   0  0  0  0  0  0  0  0  0  0  0  0
  146.4507  131.8216  150.0280 H   0  0  0  0  0  0  0  0  0  0  0  0
  147.3098  133.2294  152.0611 H   0  0  0  0  0  0  0  0  0  0  0  0
  146.1576  133.9407  150.9637 H   0  0  0  0  0  0  0  0  0  0  0  0
  145.4446  132.6134  153.6121 H   0  0  0  0  0  0  0  0  0  0  0  0
  151.1373  136.5094  153.9603 H   0  0  0  0  0  0  0  0  0  0  0  0
  143.3776  132.7796  153.1320 H   0  0  0  0  0  0  0  0  0  0  0  0
  1  2  1  0  0  0  0
  1 24  1  0  0  0  0
  1 25  1  0  0  0  0
  1 26  1  0  0  0  0
  2  3  2  0  0  0  0
  2  4  2  0  0  0  0
  2  5  1  0  0  0  0
  5 23  1  0  0  0  0
  5  6  2  0  0  0  0
  6  7  1  0  0  0  0
  6 27  1  0  0  0  0
  7  8  2  0  0  0  0
  7 28  1  0  0  0  0
  8  9  1  0  0  0  0
  8 22  1  0  0  0  0
  9 10  1  0  0  0  0
  9 29  1  0  0  0  0
 10 11  2  0  0  0  0
 10 12  1  0  0  0  0
 12 13  1  0  0  0  0
 12 30  1  0  0  0  0
 13 21  1  0  0  0  0
 13 14  1  0  0  0  0
 13 31  1  0  0  0  0
 14 15  1  0  0  0  0
 14 32  1  0  0  0  0
 14 33  1  0  0  0  0
 15 16  1  0  0  0  0
 15 34  1  0  0  0  0
 15 35  1  0  0  0  0
 16 21  1  0  0  0  0
 16 17  1  0  0  0  0
 16 46  1  0  0  0  0
 17 18  1  0  0  0  0
 17 36  1  0  0  0  0
 17 37  1  0  0  0  0
 18 19  1  0  0  0  0
 18 38  1  0  0  0  0
 18 39  1  0  0  0  0
 19 20  1  0  0  0  0
 19 40  1  0  0  0  0
 19 41  1  0  0  0  0
 20 21  1  0  0  0  0
 20 42  1  0  0  0  0
 20 43  1  0  0  0  0
 21 44  1  0  0  0  0
 22 23  2  0  0  0  0
 22 45  1  0  0  0  0
M  CHG  1  16   1
M  END
> <s_m_source_file>
AV-unprocessed.smi

> <i_m_source_file_index>
1738

> <i_lp_mmshare_version>
43012

> <i_f3d_flags>
0

> <s_epik_input>
W0NIM11TKD1PKSg9TyljMVtjSF1bY0hdYyhbY0hdbjEpW05IXUMoPU8pW05IXVtDQEhdKFtDSDJdW0NIMl0yKVtDQEBIXShOMjMpW0NIMl1bQ0gyXVtDSDJdW0NIMl0z

> <s_epik_cmdline>
J2VwaWtfcHl0aG9uJywgJy1waCcsICc3LjAnLCAnLXRuJywgJzgnLCAnLW1hJywgJzIwMCcsICctbWV0YWxfYmluZGluZycsICctaW1hZScsICc8aW5maWxlLm1hZT4nLCAnLW9tYWUnLCAnPG91dGZpbGUubWFlPic=

> <r_epik_Ionization_Penalty>
0.00100042

> <r_epik_Ionization_Penalty_Charging>
0.000974069

> <r_epik_Ionization_Penalty_Neutral>
2.63543e-05

> <r_epik_State_Penalty>
0.000633842

> <r_epik_Charging_Adjusted_Penalty>
0.00160791

> <i_epik_Tot_Q>
1

> <i_epik_Tot_abs_Q>
1

> <r_epik_Metal_State_Penalty>
-0

> <b_epik_Metal_Only>
0

> <s_lp_Force_Field>
OPLS_2005

> <r_lp_Energy>
43.9485

> <b_lp_Chiralities_Consistent>
1

> <s_lp_Variant>
AV-unprocessed.smi:1738-2

> <Gold.Version>
5.8.1

> <Gold.Id.Protein>
6NUR|6NUR_protein|mol2

> <Gold.PLP.Fitness>
46.8802

> <Gold.PLP.PLP>
-27.4761

> <Gold.PLP.part.hbond>
-5.9260

> <Gold.PLP.part.metal>
0.0000

> <Gold.PLP.part.buried>
-5.1039

> <Gold.PLP.part.nonpolar>
-17.6259

> <Gold.PLP.part.repulsive>
0.0424

> <Gold.PLP.ligand.clash>
0.0000

> <Gold.PLP.ligand.torsion>
1.2243

> <Gold.PLP.Chemscore.Hbond>
5.6087

> <Gold.PLP.Chemscore.CHOScore>
1.0000

> <Gold.PLP.Chemscore.Metal>
0.0000

> <Gold.Chemscore.Hbonds>
donor molecule, donor type, donor heavy atom, donor atom, acceptor molecule, acceptor atom, score
      L1  H     9    29       P1  7948  1.00
      L1  H    12    30       P1  7948  0.75
      L1  H    16    46       P1 10957  1.89
      P1  H  6896  6908       L1     4  0.85
      P1  H  7997  8008       L1     3  0.32
      P1  H 10752 10763       L1    23  0.76
      L1  C    22    45       P1  7949  1.00

> <Gold.PLP.Chemscore.Internal.Correction>
2.0267

> <Gold.Rescore>
     Score         DG    S(hbond)    S(metal)    S(lipo)     H(rot)  DE(clash)    DE(int)     intcor
     20.87     -23.41       3.98        0.00      61.58       1.00       0.02       2.52       ----

> <Gold.Chemscore.Fitness>
20.8685

> <Gold.Chemscore.DG>
-23.4131

> <Gold.Chemscore.ZeroCoef>
-5.4800

> <Gold.Chemscore.Hbond>
3.9786

> <Gold.Chemscore.Metal>
0.0000

> <Gold.Chemscore.Lipo>
61.5761

> <Gold.Chemscore.Internal_Hbond>
0.0000

> <Gold.Chemscore.DEClash>
0.0234

> <Gold.Chemscore.DEInternal>
2.5211

> <Gold.Chemscore.Rot>
1.0000

> <Gold.Chemscore.Internal.Correction>
   9.000000E+99

> <Gold.Chemscore.Hbonds>
donor molecule, donor type, donor heavy atom, donor atom, acceptor molecule, acceptor atom, score
      L1  H     9    29       P1  7948  1.00
      L1  H    12    30       P1  7948  0.72
      L1  H    16    46       P1 10957  0.36
      P1  H  6896  6908       L1     4  0.78
      P1  H  7997  8008       L1     3  0.29
      P1  H 10752 10763       L1    23  0.10

> <Gold.Chemscore.Hbond.Weighted>
-13.2887

> <Gold.Chemscore.Metal.Weighted>
-0.0000

> <Gold.Chemscore.Lipo.Weighted>
-7.2044

> <Gold.Chemscore.Internal_Hbond.Weighted>
0.0000

> <Gold.Chemscore.DEClash.Weighted>
0.0234

> <Gold.Chemscore.DEInternal.Weighted>
2.5211

> <Gold.Chemscore.Rot.Weighted>
2.5600

> <Gold.Chemscore.Internal.Correction.Weighted>
   9.000000E+99

> <Gold.Protein.RotatedTorsions>
[ 6907 6896 6895 6894 ] final  -78.41 input  -60.11 | X-H torsion
[ 7974 7965 7964 7962 ] final  -91.54 input  175.53 | X-H torsion
[ 8008 7997 7996 7995 ] final  -85.77 input   59.86 | X-H torsion
[ 10167 10162 10161 10158 ] final -120.93 input  -65.29 | X-H torsion
[ 10718 10713 10712 10709 ] final -173.49 input   66.30 | X-H torsion
[ 10763 10752 10751 10750 ] final   93.78 input  -60.55 | X-H torsion
[ 11005 11000 10999 10996 ] final  -21.25 input  -57.11 | X-H torsion

> <Gold.Protein.ActiveResidues>
 VAL166  LYS551  ARG553  GLY616  TRP617  ASP618  TYR619  PRO620  LYS621  CYS622 
 ASP623  PHE694  ASN695  SER759  ASP760  ASP761  ALA762  ILE779  LEU786  VAL792 
 PHE793  MET794  SER795  GLU796  ALA797  LYS798  CYS799  TRP800  GLU811  SER814 

> <Gold.Protein.RotatedAtoms>
  150.6973  134.4276  159.5233 H   0  0  0  0  0  0  0  0  0  0  0  0  # atno 6907 bound_to 6896
  152.2008  134.8587  160.0517 H   0  0  0  0  0  0  0  0  0  0  0  0  # atno 6908 bound_to 6896
  151.9507  133.3630  159.4036 H   0  0  0  0  0  0  0  0  0  0  0  0  # atno 6909 bound_to 6896
  145.4117  140.9545  143.2230 H   0  0  0  0  0  0  0  0  0  0  0  0  # atno 7974 bound_to 7965
  154.6444  140.0587  156.9883 H   0  0  0  0  0  0  0  0  0  0  0  0  # atno 8008 bound_to 7997
  155.1467  140.3270  155.4421 H   0  0  0  0  0  0  0  0  0  0  0  0  # atno 8009 bound_to 7997
  156.2546  140.1954  156.6581 H   0  0  0  0  0  0  0  0  0  0  0  0  # atno 8010 bound_to 7997
  140.0305  143.5253  152.2179 H   0  0  0  0  0  0  0  0  0  0  0  0  # atno 10167 bound_to 10162
  156.7711  130.9449  151.3120 H   0  0  0  0  0  0  0  0  0  0  0  0  # atno 10718 bound_to 10713
  153.2341  135.4313  155.0628 H   0  0  0  0  0  0  0  0  0  0  0  0  # atno 10763 bound_to 10752
  154.8311  135.3387  154.6744 H   0  0  0  0  0  0  0  0  0  0  0  0  # atno 10764 bound_to 10752
  153.7170  135.7019  153.5079 H   0  0  0  0  0  0  0  0  0  0  0  0  # atno 10765 bound_to 10752
  140.8543  133.7834  156.0002 H   0  0  0  0  0  0  0  0  0  0  0  0  # atno 11005 bound_to 11000
  144.8304  139.5638  143.6946 LP  0  0  0  0  0  0  0  0  0  0  0  0  # atno 17320 bound_to 7965
  146.2701  139.6615  142.9302 LP  0  0  0  0  0  0  0  0  0  0  0  0  # atno 17321 bound_to 7965
  139.6079  144.7601  151.3019 LP  0  0  0  0  0  0  0  0  0  0  0  0  # atno 17342 bound_to 10162
  140.7304  143.6881  150.7945 LP  0  0  0  0  0  0  0  0  0  0  0  0  # atno 17343 bound_to 10162
  157.6691  130.9034  149.9998 LP  0  0  0  0  0  0  0  0  0  0  0  0  # atno 17370 bound_to 10713
  156.1278  130.3644  149.9782 LP  0  0  0  0  0  0  0  0  0  0  0  0  # atno 17371 bound_to 10713
  140.8755  134.2675  157.5170 LP  0  0  0  0  0  0  0  0  0  0  0  0  # atno 17394 bound_to 11000
  139.8705  134.9589  156.4314 LP  0  0  0  0  0  0  0  0  0  0  0  0  # atno 17395 bound_to 11000

$$$$
