AV-unprocessed.smi:785|AV-procd|sdf|3720|dock5
  -GOLD-   22720 1143D 1   1.00000     0.00000
 Structure written by MMmdl.
 35 36  0  0  0  0  0  0  0  0  1 V2000
  154.3589  141.0708  161.2076 C   0  0  0  0  0  0  0  0  0  0  0  0
  153.3856  142.1148  160.7787 C   0  0  0  0  0  0  0  0  0  0  0  0
  153.0020  142.2922  159.5118 N   0  0  0  0  0  0  0  0  0  0  0  0
  152.0832  143.3374  159.3670 C   0  0  0  0  0  0  0  0  0  0  0  0
  151.5386  143.6764  158.0094 C   0  0  0  0  0  0  0  0  0  0  0  0
  151.2614  142.4011  157.2116 C   0  0  0  0  0  0  0  0  0  0  0  0
  151.8224  141.3490  157.5171 O   0  0  0  0  0  0  0  0  0  0  0  0
  150.3876  142.5047  156.1976 N   0  0  0  0  0  0  0  0  0  0  0  0
  149.9841  141.4091  155.3252 C   0  0  0  0  0  0  0  0  0  0  0  0
  148.4743  141.1311  155.4333 C   0  0  0  0  0  0  0  0  0  0  0  0
  147.6889  142.3250  155.1447 N   0  0  0  0  0  0  0  0  0  0  0  0
  146.3672  142.3431  154.9152 C   0  0  0  0  0  0  0  0  0  0  0  0
  145.6701  141.3272  154.9269 O   0  0  0  0  0  0  0  0  0  0  0  0
  145.8177  143.7056  154.6447 C   0  0  0  0  0  0  0  0  0  0  0  0
  144.3243  143.8303  154.4209 C   0  0  0  0  0  0  0  0  0  0  0  0
  145.2725  143.9818  153.2582 C   0  0  0  0  0  0  0  0  0  0  0  0
  151.7700  143.9480  160.5567 C   0  0  0  0  0  0  0  0  0  0  0  0
  152.6275  143.2404  161.8978 S   0  0  0  0  0  0  0  0  0  0  0  0
  154.5654  140.3788  160.3905 H   0  0  0  0  0  0  0  0  0  0  0  0
  153.9545  140.5066  162.0480 H   0  0  0  0  0  0  0  0  0  0  0  0
  155.2940  141.5381  161.5161 H   0  0  0  0  0  0  0  0  0  0  0  0
  150.6165  144.2535  158.0946 H   0  0  0  0  0  0  0  0  0  0  0  0
  152.2408  144.3030  157.4580 H   0  0  0  0  0  0  0  0  0  0  0  0
  149.9732  143.4077  156.0173 H   0  0  0  0  0  0  0  0  0  0  0  0
  150.2447  141.6845  154.3028 H   0  0  0  0  0  0  0  0  0  0  0  0
  150.5576  140.5108  155.5600 H   0  0  0  0  0  0  0  0  0  0  0  0
  148.1815  140.3597  154.7207 H   0  0  0  0  0  0  0  0  0  0  0  0
  148.2243  140.7484  156.4243 H   0  0  0  0  0  0  0  0  0  0  0  0
  148.1873  143.2028  155.1172 H   0  0  0  0  0  0  0  0  0  0  0  0
  146.3065  144.5367  155.1513 H   0  0  0  0  0  0  0  0  0  0  0  0
  143.7147  142.9287  154.4545 H   0  0  0  0  0  0  0  0  0  0  0  0
  143.8411  144.7256  154.8065 H   0  0  0  0  0  0  0  0  0  0  0  0
  145.4318  144.9799  152.8554 H   0  0  0  0  0  0  0  0  0  0  0  0
  145.2923  143.1807  152.5213 H   0  0  0  0  0  0  0  0  0  0  0  0
  151.0909  144.7707  160.7242 H   0  0  0  0  0  0  0  0  0  0  0  0
  1  2  1  0  0  0  0
  1 19  1  0  0  0  0
  1 20  1  0  0  0  0
  1 21  1  0  0  0  0
  2 18  1  0  0  0  0
  2  3  2  0  0  0  0
  3  4  1  0  0  0  0
  4  5  1  0  0  0  0
  4 17  2  0  0  0  0
  5  6  1  0  0  0  0
  5 22  1  0  0  0  0
  5 23  1  0  0  0  0
  6  7  2  0  0  0  0
  6  8  1  0  0  0  0
  8  9  1  0  0  0  0
  8 24  1  0  0  0  0
  9 10  1  0  0  0  0
  9 25  1  0  0  0  0
  9 26  1  0  0  0  0
 10 11  1  0  0  0  0
 10 27  1  0  0  0  0
 10 28  1  0  0  0  0
 11 12  1  0  0  0  0
 11 29  1  0  0  0  0
 12 13  2  0  0  0  0
 12 14  1  0  0  0  0
 14 16  1  0  0  0  0
 14 15  1  0  0  0  0
 14 30  1  0  0  0  0
 15 16  1  0  0  0  0
 15 31  1  0  0  0  0
 15 32  1  0  0  0  0
 16 33  1  0  0  0  0
 16 34  1  0  0  0  0
 17 18  1  0  0  0  0
 17 35  1  0  0  0  0
M  END
> <s_m_source_file>
AV-unprocessed.smi

> <i_m_source_file_index>
785

> <i_lp_mmshare_version>
43012

> <i_f3d_flags>
0

> <s_epik_input>
W0NIM11jMW5jKFtjSF1zMSlbQ0gyXUMoPU8pW05IXVtDSDJdW0NIMl1bTkhdQyg9TylbQ0hdMltDSDJdW0NIMl0y

> <s_epik_cmdline>
J2VwaWtfcHl0aG9uJywgJy1waCcsICc3LjAnLCAnLXRuJywgJzgnLCAnLW1hJywgJzIwMCcsICctbWV0YWxfYmluZGluZycsICctaW1hZScsICc8aW5maWxlLm1hZT4nLCAnLW9tYWUnLCAnPG91dGZpbGUubWFlPic=

> <r_lp_tautomer_probability>
1

> <r_epik_Ionization_Penalty>
4.93122e-05

> <r_epik_Ionization_Penalty_Charging>
0

> <r_epik_Ionization_Penalty_Neutral>
4.93122e-05

> <r_epik_State_Penalty>
-0

> <r_epik_Charging_Adjusted_Penalty>
0

> <i_epik_Tot_Q>
0

> <i_epik_Tot_abs_Q>
0

> <r_epik_Metal_State_Penalty>
-0

> <b_epik_Metal_Only>
0

> <s_lp_Force_Field>
OPLS_2005

> <r_lp_Energy>
2.28636

> <b_lp_Chiralities_Consistent>
1

> <s_lp_Variant>
AV-unprocessed.smi:785-1

> <Gold.Version>
5.8.1

> <Gold.Id.Protein>
6NUR|6NUR_protein|mol2

> <Gold.PLP.Fitness>
43.4738

> <Gold.PLP.PLP>
-38.7848

> <Gold.PLP.part.hbond>
-2.0000

> <Gold.PLP.part.metal>
0.0000

> <Gold.PLP.part.buried>
-5.3423

> <Gold.PLP.part.nonpolar>
-32.2953

> <Gold.PLP.part.repulsive>
0.3722

> <Gold.PLP.ligand.clash>
0.0000

> <Gold.PLP.ligand.torsion>
0.7069

> <Gold.PLP.Chemscore.Hbond>
2.0000

> <Gold.PLP.Chemscore.CHOScore>
0.0000

> <Gold.PLP.Chemscore.Metal>
0.0000

> <Gold.Chemscore.Hbonds>
donor molecule, donor type, donor heavy atom, donor atom, acceptor molecule, acceptor atom, score
      L1  H     8    24       P1  8028  1.00
      L1  H    11    29       P1  8028  1.00

> <Gold.PLP.Chemscore.Internal.Correction>
0.1029

> <Gold.Rescore>
     Score         DG    S(hbond)    S(metal)    S(lipo)     H(rot)  DE(clash)    DE(int)     intcor
     15.53     -18.21       1.96        0.00     100.01       2.16       0.33       2.35       ----

> <Gold.Chemscore.Fitness>
15.5324

> <Gold.Chemscore.DG>
-18.2092

> <Gold.Chemscore.ZeroCoef>
-5.4800

> <Gold.Chemscore.Hbond>
1.9614

> <Gold.Chemscore.Metal>
0.0000

> <Gold.Chemscore.Lipo>
100.0079

> <Gold.Chemscore.Internal_Hbond>
0.0000

> <Gold.Chemscore.DEClash>
0.3271

> <Gold.Chemscore.DEInternal>
2.3497

> <Gold.Chemscore.Rot>
2.1573

> <Gold.Chemscore.Internal.Correction>
   9.000000E+99

> <Gold.Chemscore.Hbonds>
donor molecule, donor type, donor heavy atom, donor atom, acceptor molecule, acceptor atom, score
      L1  H     8    24       P1  8028  1.00
      L1  H    11    29       P1  8028  0.95

> <Gold.Chemscore.Hbond.Weighted>
-6.5511

> <Gold.Chemscore.Metal.Weighted>
-0.0000

> <Gold.Chemscore.Lipo.Weighted>
-11.7009

> <Gold.Chemscore.Internal_Hbond.Weighted>
0.0000

> <Gold.Chemscore.DEClash.Weighted>
0.3271

> <Gold.Chemscore.DEInternal.Weighted>
2.3497

> <Gold.Chemscore.Rot.Weighted>
5.5228

> <Gold.Chemscore.Internal.Correction.Weighted>
   9.000000E+99

> <Gold.Protein.RotatedTorsions>
[ 6907 6896 6895 6894 ] final  106.24 input  -60.11 | X-H torsion
[ 7974 7965 7964 7962 ] final  130.78 input  175.53 | X-H torsion
[ 8008 7997 7996 7995 ] final -119.58 input   59.86 | X-H torsion
[ 10167 10162 10161 10158 ] final  -56.43 input  -65.29 | X-H torsion
[ 10718 10713 10712 10709 ] final  -60.37 input   66.30 | X-H torsion
[ 10763 10752 10751 10750 ] final  127.46 input  -60.55 | X-H torsion
[ 11005 11000 10999 10996 ] final   93.01 input  -57.11 | X-H torsion

> <Gold.Protein.ActiveResidues>
 VAL166  LYS551  ARG553  GLY616  TRP617  ASP618  TYR619  PRO620  LYS621  CYS622 
 ASP623  PHE694  ASN695  SER759  ASP760  ASP761  ALA762  ILE779  LEU786  VAL792 
 PHE793  MET794  SER795  GLU796  ALA797  LYS798  CYS799  TRP800  GLU811  SER814 

> <Gold.Protein.RotatedAtoms>
  152.5201  133.9409  159.7625 H   0  0  0  0  0  0  0  0  0  0  0  0  # atno 6907 bound_to 6896
  150.9739  133.6306  159.2740 H   0  0  0  0  0  0  0  0  0  0  0  0  # atno 6908 bound_to 6896
  151.3508  135.0889  159.9455 H   0  0  0  0  0  0  0  0  0  0  0  0  # atno 6909 bound_to 6896
  145.0142  139.4191  143.5229 H   0  0  0  0  0  0  0  0  0  0  0  0  # atno 7974 bound_to 7965
  155.1180  140.0398  157.2742 H   0  0  0  0  0  0  0  0  0  0  0  0  # atno 8008 bound_to 7997
  154.6635  140.2596  155.7058 H   0  0  0  0  0  0  0  0  0  0  0  0  # atno 8009 bound_to 7997
  156.2629  140.2812  156.1116 H   0  0  0  0  0  0  0  0  0  0  0  0  # atno 8010 bound_to 7997
  140.6318  143.2463  151.5222 H   0  0  0  0  0  0  0  0  0  0  0  0  # atno 10167 bound_to 10162
  156.0995  130.4188  150.0845 H   0  0  0  0  0  0  0  0  0  0  0  0  # atno 10718 bound_to 10713
  153.7098  135.3270  155.3243 H   0  0  0  0  0  0  0  0  0  0  0  0  # atno 10763 bound_to 10752
  154.8388  135.4474  154.1326 H   0  0  0  0  0  0  0  0  0  0  0  0  # atno 10764 bound_to 10752
  153.2416  135.6971  153.7856 H   0  0  0  0  0  0  0  0  0  0  0  0  # atno 10765 bound_to 10752
  139.8815  134.8765  156.3655 H   0  0  0  0  0  0  0  0  0  0  0  0  # atno 11005 bound_to 11000
  146.3475  139.9604  142.8718 LP  0  0  0  0  0  0  0  0  0  0  0  0  # atno 17320 bound_to 7965
  145.1982  140.9842  143.4171 LP  0  0  0  0  0  0  0  0  0  0  0  0  # atno 17321 bound_to 7965
  139.5531  144.2344  152.1565 LP  0  0  0  0  0  0  0  0  0  0  0  0  # atno 17342 bound_to 10162
  140.1590  144.5044  150.6643 LP  0  0  0  0  0  0  0  0  0  0  0  0  # atno 17343 bound_to 10162
  156.8836  130.9565  151.3596 LP  0  0  0  0  0  0  0  0  0  0  0  0  # atno 17370 bound_to 10713
  157.6163  130.8621  149.9033 LP  0  0  0  0  0  0  0  0  0  0  0  0  # atno 17371 bound_to 10713
  140.9500  133.7457  156.0259 LP  0  0  0  0  0  0  0  0  0  0  0  0  # atno 17394 bound_to 11000
  140.8117  134.3391  157.5409 LP  0  0  0  0  0  0  0  0  0  0  0  0  # atno 17395 bound_to 11000

$$$$
