AV-unprocessed.smi:2068|AV-procd|sdf|8430|dock9
  -GOLD-   2272011123D 1   1.00000     0.00000
 Structure written by MMmdl.
 32 33  0  0  0  0  0  0  0  0  2 V2000
  147.3903  137.1270  154.0534 N   0  0  0  0  0  0  0  0  0  0  0  0
  147.3188  138.3706  154.5381 C   0  0  0  0  0  0  0  0  0  0  0  0
  146.4724  138.7040  155.3653 O   0  0  0  0  0  0  0  0  0  0  0  0
  148.3290  139.3926  154.0085 C   0  0  0  0  0  0  0  0  0  0  0  0
  149.6992  139.1265  154.5628 C   0  0  0  0  0  0  0  0  0  0  0  0
  150.6011  138.1912  154.1248 C   0  0  0  0  0  0  0  0  0  0  0  0
  152.0750  138.2357  155.0494 S   0  0  0  0  0  0  0  0  0  0  0  0
  151.4113  139.5487  156.0232 C   0  0  0  0  0  0  0  0  0  0  0  0
  152.0494  140.1551  157.0359 N   0  5  0  0  0  0  0  0  0  0  0  0
  151.3987  141.0903  157.7692 C   0  0  0  0  0  0  0  0  0  0  0  0
  150.4010  141.7486  157.4711 O   0  0  0  0  0  0  0  0  0  0  0  0
  152.0391  141.2932  159.1497 C   0  0  0  0  0  0  0  0  0  0  0  0
  152.6793  142.6884  159.3198 C   0  0  1  0  0  0  0  0  0  0  0  0
  152.2711  143.6834  158.2601 C   0  0  0  0  0  0  0  0  0  0  0  0
  151.8099  144.8212  158.7739 C   0  0  0  0  0  0  0  0  0  0  0  0
  151.8151  144.8175  160.2773 C   0  0  0  0  0  0  0  0  0  0  0  0
  152.2782  143.3895  160.6429 C   0  0  0  0  0  0  0  0  0  0  0  0
  150.1703  139.8743  155.6459 N   0  0  0  0  0  0  0  0  0  0  0  0
  146.7577  136.4168  154.3917 H   0  0  0  0  0  0  0  0  0  0  0  0
  148.0934  136.8972  153.3649 H   0  0  0  0  0  0  0  0  0  0  0  0
  148.3340  139.3519  152.9183 H   0  0  0  0  0  0  0  0  0  0  0  0
  147.9999  140.3974  154.2766 H   0  0  0  0  0  0  0  0  0  0  0  0
  150.4914  137.4863  153.3145 H   0  0  0  0  0  0  0  0  0  0  0  0
  151.3113  141.1190  159.9452 H   0  0  0  0  0  0  0  0  0  0  0  0
  152.8055  140.5276  159.2755 H   0  0  0  0  0  0  0  0  0  0  0  0
  153.7658  142.5981  159.2753 H   0  0  0  0  0  0  0  0  0  0  0  0
  152.3668  143.4748  157.2042 H   0  0  0  0  0  0  0  0  0  0  0  0
  151.4742  145.6725  158.2002 H   0  0  0  0  0  0  0  0  0  0  0  0
  152.5082  145.5740  160.6467 H   0  0  0  0  0  0  0  0  0  0  0  0
  150.8200  145.0340  160.6669 H   0  0  0  0  0  0  0  0  0  0  0  0
  151.4608  142.8562  161.1303 H   0  0  0  0  0  0  0  0  0  0  0  0
  153.1097  143.4094  161.3481 H   0  0  0  0  0  0  0  0  0  0  0  0
  1  2  1  0  0  0  0
  1 19  1  0  0  0  0
  1 20  1  0  0  0  0
  2  3  2  0  0  0  0
  2  4  1  0  0  0  0
  4  5  1  0  0  0  0
  4 21  1  0  0  0  0
  4 22  1  0  0  0  0
  5 18  1  0  0  0  0
  5  6  2  0  0  0  0
  6  7  1  0  0  0  0
  6 23  1  0  0  0  0
  7  8  1  0  0  0  0
  8  9  1  0  0  0  0
  8 18  2  0  0  0  0
  9 10  1  0  0  0  0
 10 11  2  0  0  0  0
 10 12  1  0  0  0  0
 12 13  1  0  0  0  0
 12 24  1  0  0  0  0
 12 25  1  0  0  0  0
 13 17  1  0  0  0  0
 13 14  1  0  0  0  0
 13 26  1  0  0  0  0
 14 15  2  0  0  0  0
 14 27  1  0  0  0  0
 15 16  1  0  0  0  0
 15 28  1  0  0  0  0
 16 17  1  0  0  0  0
 16 29  1  0  0  0  0
 16 30  1  0  0  0  0
 17 31  1  0  0  0  0
 17 32  1  0  0  0  0
M  CHG  1   9  -1
M  END
> <s_m_source_file>
AV-unprocessed.smi

> <i_m_source_file_index>
2068

> <i_lp_mmshare_version>
43012

> <i_f3d_flags>
0

> <s_epik_input>
W05IMl1DKD1PKVtDSDJdYzFbY0hdc2MobjEpW05IXUMoPU8pW0NIMl1bQ0BASF0yW0NIXT1bQ0hdW0NIMl1bQ0gyXTI=

> <s_epik_cmdline>
J2VwaWtfcHl0aG9uJywgJy1waCcsICc3LjAnLCAnLXRuJywgJzgnLCAnLW1hJywgJzIwMCcsICctbWV0YWxfYmluZGluZycsICctaW1hZScsICc8aW5maWxlLm1hZT4nLCAnLW9tYWUnLCAnPG91dGZpbGUubWFlPic=

> <r_lp_tautomer_probability>
1

> <r_epik_Ionization_Penalty>
4.99584

> <r_epik_Ionization_Penalty_Charging>
4.63763

> <r_epik_Ionization_Penalty_Neutral>
0.358213

> <r_epik_State_Penalty>
4.63739

> <r_epik_Charging_Adjusted_Penalty>
9.27502

> <i_epik_Tot_Q>
-1

> <i_epik_Tot_abs_Q>
1

> <r_epik_Metal_State_Penalty>
0.891949

> <b_epik_Metal_Only>
1

> <s_lp_Force_Field>
OPLS_2005

> <r_lp_Energy>
14.2455

> <b_lp_Chiralities_Consistent>
1

> <s_lp_Variant>
AV-unprocessed.smi:2068-4

> <Gold.Version>
5.8.1

> <Gold.Id.Protein>
6NUR|6NUR_protein|mol2

> <Gold.PLP.Fitness>
51.1974

> <Gold.PLP.PLP>
-41.2026

> <Gold.PLP.part.hbond>
-2.0000

> <Gold.PLP.part.metal>
0.0000

> <Gold.PLP.part.buried>
-4.1063

> <Gold.PLP.part.nonpolar>
-34.7200

> <Gold.PLP.part.repulsive>
0.0859

> <Gold.PLP.ligand.clash>
0.0000

> <Gold.PLP.ligand.torsion>
1.2433

> <Gold.PLP.Chemscore.Hbond>
2.9920

> <Gold.PLP.Chemscore.CHOScore>
1.1262

> <Gold.PLP.Chemscore.Metal>
0.0000

> <Gold.Chemscore.Hbonds>
donor molecule, donor type, donor heavy atom, donor atom, acceptor molecule, acceptor atom, score
      L1  H     1    20       P1  7948  1.00
      P1  H  7997  8010       L1     9  0.39
      L1  C     6    23       P1  7948  0.60
      L1  C     6    23       P1  7949  0.49

> <Gold.PLP.Chemscore.Internal.Correction>
0.1268

> <Gold.Rescore>
     Score         DG    S(hbond)    S(metal)    S(lipo)     H(rot)  DE(clash)    DE(int)     intcor
     13.96     -18.46       1.91        0.00     103.89       2.17       0.14       4.37       ----

> <Gold.Chemscore.Fitness>
13.9607

> <Gold.Chemscore.DG>
-18.4647

> <Gold.Chemscore.ZeroCoef>
-5.4800

> <Gold.Chemscore.Hbond>
1.9079

> <Gold.Chemscore.Metal>
0.0000

> <Gold.Chemscore.Lipo>
103.8883

> <Gold.Chemscore.Internal_Hbond>
0.0000

> <Gold.Chemscore.DEClash>
0.1385

> <Gold.Chemscore.DEInternal>
4.3655

> <Gold.Chemscore.Rot>
2.1650

> <Gold.Chemscore.Internal.Correction>
   9.000000E+99

> <Gold.Chemscore.Hbonds>
donor molecule, donor type, donor heavy atom, donor atom, acceptor molecule, acceptor atom, score
      L1  H     1    20       P1  7948  1.00
      P1  H  7997  8010       L1     9  0.12

> <Gold.Chemscore.Hbond.Weighted>
-6.3723

> <Gold.Chemscore.Metal.Weighted>
-0.0000

> <Gold.Chemscore.Lipo.Weighted>
-12.1549

> <Gold.Chemscore.Internal_Hbond.Weighted>
0.0000

> <Gold.Chemscore.DEClash.Weighted>
0.1385

> <Gold.Chemscore.DEInternal.Weighted>
4.3655

> <Gold.Chemscore.Rot.Weighted>
5.5425

> <Gold.Chemscore.Internal.Correction.Weighted>
   9.000000E+99

> <Gold.Protein.RotatedTorsions>
[ 6907 6896 6895 6894 ] final -123.35 input  -60.11 | X-H torsion
[ 7974 7965 7964 7962 ] final   97.72 input  175.53 | X-H torsion
[ 8008 7997 7996 7995 ] final   67.19 input   59.86 | X-H torsion
[ 10167 10162 10161 10158 ] final  -15.41 input  -65.29 | X-H torsion
[ 10718 10713 10712 10709 ] final  -94.31 input   66.30 | X-H torsion
[ 10763 10752 10751 10750 ] final   49.95 input  -60.55 | X-H torsion
[ 11005 11000 10999 10996 ] final  -34.37 input  -57.11 | X-H torsion

> <Gold.Protein.ActiveResidues>
 VAL166  LYS551  ARG553  GLY616  TRP617  ASP618  TYR619  PRO620  LYS621  CYS622 
 ASP623  PHE694  ASN695  SER759  ASP760  ASP761  ALA762  ILE779  LEU786  VAL792 
 PHE793  MET794  SER795  GLU796  ALA797  LYS798  CYS799  TRP800  GLU811  SER814 

> <Gold.Protein.RotatedAtoms>
  150.8662  133.7571  159.2975 H   0  0  0  0  0  0  0  0  0  0  0  0  # atno 6907 bound_to 6896
  151.5197  135.1065  159.9885 H   0  0  0  0  0  0  0  0  0  0  0  0  # atno 6908 bound_to 6896
  152.4663  133.7885  159.6945 H   0  0  0  0  0  0  0  0  0  0  0  0  # atno 6909 bound_to 6896
  145.4217  139.2320  143.3192 H   0  0  0  0  0  0  0  0  0  0  0  0  # atno 7974 bound_to 7965
  155.6891  140.3496  155.4886 H   0  0  0  0  0  0  0  0  0  0  0  0  # atno 8008 bound_to 7997
  155.9540  140.1124  157.0975 H   0  0  0  0  0  0  0  0  0  0  0  0  # atno 8009 bound_to 7997
  154.4128  140.1188  156.5076 H   0  0  0  0  0  0  0  0  0  0  0  0  # atno 8010 bound_to 7997
  140.7218  143.5221  150.9621 H   0  0  0  0  0  0  0  0  0  0  0  0  # atno 10167 bound_to 10162
  156.0025  130.5062  150.5907 H   0  0  0  0  0  0  0  0  0  0  0  0  # atno 10718 bound_to 10713
  152.9785  135.5895  154.4173 H   0  0  0  0  0  0  0  0  0  0  0  0  # atno 10763 bound_to 10752
  154.3801  135.2767  155.2218 H   0  0  0  0  0  0  0  0  0  0  0  0  # atno 10764 bound_to 10752
  154.4135  135.6076  153.6021 H   0  0  0  0  0  0  0  0  0  0  0  0  # atno 10765 bound_to 10752
  140.9710  133.7109  156.1524 H   0  0  0  0  0  0  0  0  0  0  0  0  # atno 11005 bound_to 11000
  146.2653  140.4943  142.8837 LP  0  0  0  0  0  0  0  0  0  0  0  0  # atno 17320 bound_to 7965
  144.8241  140.6598  143.6334 LP  0  0  0  0  0  0  0  0  0  0  0  0  # atno 17321 bound_to 7965
  139.8939  143.6919  152.3141 LP  0  0  0  0  0  0  0  0  0  0  0  0  # atno 17342 bound_to 10162
  139.7245  144.7596  151.0902 LP  0  0  0  0  0  0  0  0  0  0  0  0  # atno 17343 bound_to 10162
  157.3772  131.0775  151.1508 LP  0  0  0  0  0  0  0  0  0  0  0  0  # atno 17370 bound_to 10713
  157.2242  130.6495  149.5823 LP  0  0  0  0  0  0  0  0  0  0  0  0  # atno 17371 bound_to 10713
  140.7328  134.4235  157.5564 LP  0  0  0  0  0  0  0  0  0  0  0  0  # atno 17394 bound_to 11000
  139.8912  134.8785  156.2330 LP  0  0  0  0  0  0  0  0  0  0  0  0  # atno 17395 bound_to 11000

$$$$
