AV-unprocessed.smi:2238|AV-procd|sdf|9055|dock6
  -GOLD-   2272012263D 1   1.00000     0.00000
 Structure written by MMmdl.
 38 39  0  0  0  0  0  0  0  0  1 V2000
  152.0921  144.2950  160.5014 C   0  0  0  0  0  0  0  0  0  0  0  0
  152.5973  142.8837  160.2821 C   0  0  0  0  0  0  0  0  0  0  0  0
  153.3217  142.2221  161.2929 C   0  0  0  0  0  0  0  0  0  0  0  0
  153.7894  140.9130  161.0788 C   0  0  0  0  0  0  0  0  0  0  0  0
  153.5357  140.2615  159.8561 C   0  0  0  0  0  0  0  0  0  0  0  0
  154.1219  138.6535  159.6199 Cl  0  0  0  0  0  0  0  0  0  0  0  0
  152.8107  140.9107  158.8320 C   0  0  0  0  0  0  0  0  0  0  0  0
  152.6002  140.2105  157.6621 O   0  0  0  0  0  0  0  0  0  0  0  0
  151.4247  140.4834  156.9116 C   0  0  0  0  0  0  0  0  0  0  0  0
  151.2252  139.3584  155.8808 C   0  0  1  0  0  0  0  0  0  0  0  0
  152.1991  139.5110  154.8690 O   0  0  0  0  0  0  0  0  0  0  0  0
  151.3988  137.9375  156.4664 C   0  0  0  0  0  0  0  0  0  0  0  0
  150.3420  137.5711  157.4265 N   0  0  0  0  0  0  0  0  0  0  0  0
  149.0110  137.8039  157.0249 C   0  0  0  0  0  0  0  0  0  0  0  0
  148.0064  137.5201  157.7916 N   0  0  0  0  0  0  0  0  0  0  0  0
  148.2363  136.9703  159.0564 C   0  0  0  0  0  0  0  0  0  0  0  0
  147.0264  136.6482  159.9088 C   0  0  0  0  0  0  0  0  0  0  0  0
  149.4948  136.7355  159.4937 C   0  0  0  0  0  0  0  0  0  0  0  0
  150.6488  137.0531  158.6521 C   0  0  0  0  0  0  0  0  0  0  0  0
  151.8084  136.8672  159.0215 O   0  0  0  0  0  0  0  0  0  0  0  0
  152.3441  142.2311  159.0582 C   0  0  0  0  0  0  0  0  0  0  0  0
  152.2095  144.6021  161.5411 H   0  0  0  0  0  0  0  0  0  0  0  0
  151.0345  144.3651  160.2449 H   0  0  0  0  0  0  0  0  0  0  0  0
  152.6450  144.9944  159.8739 H   0  0  0  0  0  0  0  0  0  0  0  0
  153.5215  142.7140  162.2337 H   0  0  0  0  0  0  0  0  0  0  0  0
  154.3445  140.4078  161.8556 H   0  0  0  0  0  0  0  0  0  0  0  0
  150.5474  140.5798  157.5536 H   0  0  0  0  0  0  0  0  0  0  0  0
  151.5708  141.4340  156.3987 H   0  0  0  0  0  0  0  0  0  0  0  0
  150.2404  139.4495  155.4215 H   0  0  0  0  0  0  0  0  0  0  0  0
  152.2129  138.7226  154.3473 H   0  0  0  0  0  0  0  0  0  0  0  0
  151.3927  137.2075  155.6545 H   0  0  0  0  0  0  0  0  0  0  0  0
  152.3930  137.8456  156.9087 H   0  0  0  0  0  0  0  0  0  0  0  0
  148.8880  138.2312  156.0283 H   0  0  0  0  0  0  0  0  0  0  0  0
  147.1600  137.0299  160.9214 H   0  0  0  0  0  0  0  0  0  0  0  0
  146.8817  135.5690  159.9641 H   0  0  0  0  0  0  0  0  0  0  0  0
  146.1210  137.0943  159.4955 H   0  0  0  0  0  0  0  0  0  0  0  0
  149.6552  136.3087  160.4733 H   0  0  0  0  0  0  0  0  0  0  0  0
  151.7877  142.7670  158.3041 H   0  0  0  0  0  0  0  0  0  0  0  0
  1  2  1  0  0  0  0
  1 22  1  0  0  0  0
  1 23  1  0  0  0  0
  1 24  1  0  0  0  0
  2 21  1  0  0  0  0
  2  3  2  0  0  0  0
  3  4  1  0  0  0  0
  3 25  1  0  0  0  0
  4  5  2  0  0  0  0
  4 26  1  0  0  0  0
  5  6  1  0  0  0  0
  5  7  1  0  0  0  0
  7  8  1  0  0  0  0
  7 21  2  0  0  0  0
  8  9  1  0  0  0  0
  9 10  1  0  0  0  0
  9 27  1  0  0  0  0
  9 28  1  0  0  0  0
 10 11  1  0  0  0  0
 10 12  1  0  0  0  0
 10 29  1  0  0  0  0
 11 30  1  0  0  0  0
 12 13  1  0  0  0  0
 12 31  1  0  0  0  0
 12 32  1  0  0  0  0
 13 19  1  0  0  0  0
 13 14  1  0  0  0  0
 14 15  2  0  0  0  0
 14 33  1  0  0  0  0
 15 16  1  0  0  0  0
 16 17  1  0  0  0  0
 16 18  2  0  0  0  0
 17 34  1  0  0  0  0
 17 35  1  0  0  0  0
 17 36  1  0  0  0  0
 18 19  1  0  0  0  0
 18 37  1  0  0  0  0
 19 20  2  0  0  0  0
 21 38  1  0  0  0  0
M  END
> <s_m_source_file>
AV-unprocessed.smi

> <i_m_source_file_index>
2238

> <i_lp_mmshare_version>
43012

> <i_f3d_flags>
0

> <s_epik_input>
W0NIM11jMVtjSF1bY0hdYyhDbCljKFtjSF0xKU9bQ0gyXVtDQEhdKFtPSF0pW0NIMl1uMltjSF1uYyhbQ0gzXSlbY0hdYzI9Tw==

> <s_epik_cmdline>
J2VwaWtfcHl0aG9uJywgJy1waCcsICc3LjAnLCAnLXRuJywgJzgnLCAnLW1hJywgJzIwMCcsICctbWV0YWxfYmluZGluZycsICctaW1hZScsICc8aW5maWxlLm1hZT4nLCAnLW9tYWUnLCAnPG91dGZpbGUubWFlPic=

> <r_lp_tautomer_probability>
1

> <r_epik_Ionization_Penalty>
1.78029e-05

> <r_epik_Ionization_Penalty_Charging>
3.78421e-08

> <r_epik_Ionization_Penalty_Neutral>
1.7765e-05

> <r_epik_State_Penalty>
-0

> <r_epik_Charging_Adjusted_Penalty>
3.78421e-08

> <i_epik_Tot_Q>
0

> <i_epik_Tot_abs_Q>
0

> <r_epik_Metal_State_Penalty>
-0

> <b_epik_Metal_Only>
0

> <s_lp_Force_Field>
OPLS_2005

> <r_lp_Energy>
22.1977

> <b_lp_Chiralities_Consistent>
1

> <s_lp_Variant>
AV-unprocessed.smi:2238-2

> <Gold.Version>
5.8.1

> <Gold.Id.Protein>
6NUR|6NUR_protein|mol2

> <Gold.PLP.Fitness>
43.7584

> <Gold.PLP.PLP>
-36.4435

> <Gold.PLP.part.hbond>
-3.0000

> <Gold.PLP.part.metal>
0.0000

> <Gold.PLP.part.buried>
-5.2275

> <Gold.PLP.part.nonpolar>
-28.5043

> <Gold.PLP.part.repulsive>
0.0000

> <Gold.PLP.ligand.clash>
0.0000

> <Gold.PLP.ligand.torsion>
0.6480

> <Gold.PLP.Chemscore.Hbond>
2.8473

> <Gold.PLP.Chemscore.CHOScore>
0.0000

> <Gold.PLP.Chemscore.Metal>
0.0000

> <Gold.Chemscore.Hbonds>
donor molecule, donor type, donor heavy atom, donor atom, acceptor molecule, acceptor atom, score
      P1  H  6896  6907       L1    20  0.88
      P1  H  7989  7998       L1    11  0.82
      P1  H  7997  8008       L1     8  1.00

> <Gold.PLP.Chemscore.Internal.Correction>
0.0690

> <Gold.Rescore>
     Score         DG    S(hbond)    S(metal)    S(lipo)     H(rot)  DE(clash)    DE(int)     intcor
     15.76     -16.28       1.64        0.00      99.50       2.47       0.00       0.52       ----

> <Gold.Chemscore.Fitness>
15.7572

> <Gold.Chemscore.DG>
-16.2783

> <Gold.Chemscore.ZeroCoef>
-5.4800

> <Gold.Chemscore.Hbond>
1.6423

> <Gold.Chemscore.Metal>
0.0000

> <Gold.Chemscore.Lipo>
99.4952

> <Gold.Chemscore.Internal_Hbond>
0.0000

> <Gold.Chemscore.DEClash>
0.0000

> <Gold.Chemscore.DEInternal>
0.5211

> <Gold.Chemscore.Rot>
2.4718

> <Gold.Chemscore.Internal.Correction>
   9.000000E+99

> <Gold.Chemscore.Hbonds>
donor molecule, donor type, donor heavy atom, donor atom, acceptor molecule, acceptor atom, score
      P1  H  6896  6907       L1    20  0.16
      P1  H  7989  7998       L1    11  0.20
      P1  H  7997  8008       L1     8  0.48

> <Gold.Chemscore.Hbond.Weighted>
-5.4852

> <Gold.Chemscore.Metal.Weighted>
-0.0000

> <Gold.Chemscore.Lipo.Weighted>
-11.6409

> <Gold.Chemscore.Internal_Hbond.Weighted>
0.0000

> <Gold.Chemscore.DEClash.Weighted>
0.0000

> <Gold.Chemscore.DEInternal.Weighted>
0.5211

> <Gold.Chemscore.Rot.Weighted>
6.3279

> <Gold.Chemscore.Internal.Correction.Weighted>
   9.000000E+99

> <Gold.Protein.RotatedTorsions>
[ 6907 6896 6895 6894 ] final   -3.42 input  -60.11 | X-H torsion
[ 7974 7965 7964 7962 ] final   73.85 input  175.53 | X-H torsion
[ 8008 7997 7996 7995 ] final  -66.39 input   59.86 | X-H torsion
[ 10167 10162 10161 10158 ] final -112.71 input  -65.29 | X-H torsion
[ 10718 10713 10712 10709 ] final   25.41 input   66.30 | X-H torsion
[ 10763 10752 10751 10750 ] final -129.50 input  -60.55 | X-H torsion
[ 11005 11000 10999 10996 ] final  133.64 input  -57.11 | X-H torsion

> <Gold.Protein.ActiveResidues>
 VAL166  LYS551  ARG553  GLY616  TRP617  ASP618  TYR619  PRO620  LYS621  CYS622 
 ASP623  PHE694  ASN695  SER759  ASP760  ASP761  ALA762  ILE779  LEU786  VAL792 
 PHE793  MET794  SER795  GLU796  ALA797  LYS798  CYS799  TRP800  GLU811  SER814 

> <Gold.Protein.RotatedAtoms>
  151.5141  135.1065  159.9861 H   0  0  0  0  0  0  0  0  0  0  0  0  # atno 6907 bound_to 6896
  152.4649  133.7897  159.6906 H   0  0  0  0  0  0  0  0  0  0  0  0  # atno 6908 bound_to 6896
  150.8628  133.7555  159.3012 H   0  0  0  0  0  0  0  0  0  0  0  0  # atno 6909 bound_to 6896
  145.7356  139.2701  143.1516 H   0  0  0  0  0  0  0  0  0  0  0  0  # atno 7974 bound_to 7965
  154.4732  140.0913  156.7196 H   0  0  0  0  0  0  0  0  0  0  0  0  # atno 8008 bound_to 7997
  155.4668  140.3463  155.4302 H   0  0  0  0  0  0  0  0  0  0  0  0  # atno 8009 bound_to 7997
  156.1073  140.1438  156.9375 H   0  0  0  0  0  0  0  0  0  0  0  0  # atno 8010 bound_to 7997
  140.1198  143.4453  152.1698 H   0  0  0  0  0  0  0  0  0  0  0  0  # atno 10167 bound_to 10162
  157.1929  130.6854  149.6157 H   0  0  0  0  0  0  0  0  0  0  0  0  # atno 10718 bound_to 10713
  154.8757  135.3893  154.3930 H   0  0  0  0  0  0  0  0  0  0  0  0  # atno 10763 bound_to 10752
  153.4663  135.7029  153.6025 H   0  0  0  0  0  0  0  0  0  0  0  0  # atno 10764 bound_to 10752
  153.4502  135.3836  155.2247 H   0  0  0  0  0  0  0  0  0  0  0  0  # atno 10765 bound_to 10752
  139.9864  134.9530  156.9753 H   0  0  0  0  0  0  0  0  0  0  0  0  # atno 11005 bound_to 11000
  146.0496  140.8083  142.9788 LP  0  0  0  0  0  0  0  0  0  0  0  0  # atno 17320 bound_to 7965
  144.6882  140.3033  143.7260 LP  0  0  0  0  0  0  0  0  0  0  0  0  # atno 17321 bound_to 7965
  139.5575  144.7383  151.4252 LP  0  0  0  0  0  0  0  0  0  0  0  0  # atno 17342 bound_to 10162
  140.6878  143.7932  150.7212 LP  0  0  0  0  0  0  0  0  0  0  0  0  # atno 17343 bound_to 10162
  155.9709  130.4608  150.6087 LP  0  0  0  0  0  0  0  0  0  0  0  0  # atno 17370 bound_to 10713
  157.3842  131.0785  151.1450 LP  0  0  0  0  0  0  0  0  0  0  0  0  # atno 17371 bound_to 10713
  140.4994  134.1113  155.7247 LP  0  0  0  0  0  0  0  0  0  0  0  0  # atno 17394 bound_to 11000
  141.1528  133.8937  157.2054 LP  0  0  0  0  0  0  0  0  0  0  0  0  # atno 17395 bound_to 11000

$$$$
