AV-unprocessed.smi:2253|AV-procd|sdf|9122|dock10
  -GOLD-   2272012323D 1   1.00000     0.00000
 Structure written by MMmdl.
 51 53  0  0  0  0  0  0  0  0  2 V2000
  148.9980  132.9343  157.7230 C   0  0  0  0  0  0  0  0  0  0  0  0
  149.1104  133.9414  156.6771 N   0  0  0  0  0  0  0  0  0  0  0  0
  150.5106  134.3257  156.5255 C   0  0  0  0  0  0  0  0  0  0  0  0
  150.6598  135.3334  155.3734 C   0  0  0  0  0  0  0  0  0  0  0  0
  149.8132  136.6099  155.5980 C   0  0  0  0  0  0  0  0  0  0  0  0
  149.8468  137.5467  154.4244 N   0  3  2  0  0  0  0  0  0  0  0  0
  151.1885  138.0858  154.0599 C   0  0  0  0  0  0  0  0  0  0  0  0
  151.6862  139.1186  155.0881 C   0  0  0  0  0  0  0  0  0  0  0  0
  150.6896  140.2836  155.2148 C   0  0  2  0  0  0  0  0  0  0  0  0
  151.1311  141.2057  156.2576 N   0  0  0  0  0  0  0  0  0  0  0  0
  151.6156  140.8395  157.4536 C   0  0  0  0  0  0  0  0  0  0  0  0
  151.7692  139.6648  157.7847 O   0  0  0  0  0  0  0  0  0  0  0  0
  151.8997  141.9142  158.2101 N   0  0  0  0  0  0  0  0  0  0  0  0
  152.3949  141.9867  159.5432 C   0  0  0  0  0  0  0  0  0  0  0  0
  153.2162  141.0096  160.1586 C   0  0  0  0  0  0  0  0  0  0  0  0
  153.6277  141.2144  161.4911 C   0  0  0  0  0  0  0  0  0  0  0  0
  153.2816  142.2960  162.2201 N   0  0  0  0  0  0  0  0  0  0  0  0
  152.4991  143.2248  161.6322 C   0  0  0  0  0  0  0  0  0  0  0  0
  152.0328  143.1172  160.3067 C   0  0  0  0  0  0  0  0  0  0  0  0
  151.2475  144.0876  159.7792 F   0  0  0  0  0  0  0  0  0  0  0  0
  149.2755  139.7452  155.5104 C   0  0  0  0  0  0  0  0  0  0  0  0
  148.8637  138.6669  154.4879 C   0  0  0  0  0  0  0  0  0  0  0  0
  148.3687  136.1600  155.9231 C   0  0  0  0  0  0  0  0  0  0  0  0
  148.3233  135.1133  157.0492 C   0  0  0  0  0  0  0  0  0  0  0  0
  149.5762  132.0468  157.4636 H   0  0  0  0  0  0  0  0  0  0  0  0
  147.9593  132.6268  157.8479 H   0  0  0  0  0  0  0  0  0  0  0  0
  149.3607  133.3107  158.6807 H   0  0  0  0  0  0  0  0  0  0  0  0
  150.8908  134.7513  157.4559 H   0  0  0  0  0  0  0  0  0  0  0  0
  151.1096  133.4396  156.3109 H   0  0  0  0  0  0  0  0  0  0  0  0
  151.7186  135.5789  155.2988 H   0  0  0  0  0  0  0  0  0  0  0  0
  150.3772  134.8563  154.4337 H   0  0  0  0  0  0  0  0  0  0  0  0
  150.2181  137.1209  156.4716 H   0  0  0  0  0  0  0  0  0  0  0  0
  151.9223  137.2971  153.9052 H   0  0  0  0  0  0  0  0  0  0  0  0
  151.1032  138.5718  153.0865 H   0  0  0  0  0  0  0  0  0  0  0  0
  151.8353  138.6394  156.0565 H   0  0  0  0  0  0  0  0  0  0  0  0
  152.6618  139.4987  154.7821 H   0  0  0  0  0  0  0  0  0  0  0  0
  150.6706  140.8133  154.2600 H   0  0  0  0  0  0  0  0  0  0  0  0
  151.0412  142.1923  156.0631 H   0  0  0  0  0  0  0  0  0  0  0  0
  151.7256  142.8104  157.7789 H   0  0  0  0  0  0  0  0  0  0  0  0
  153.5398  140.1140  159.6535 H   0  0  0  0  0  0  0  0  0  0  0  0
  154.2534  140.4864  161.9859 H   0  0  0  0  0  0  0  0  0  0  0  0
  152.2352  144.0795  162.2373 H   0  0  0  0  0  0  0  0  0  0  0  0
  149.2306  139.3397  156.5215 H   0  0  0  0  0  0  0  0  0  0  0  0
  148.5532  140.5621  155.4826 H   0  0  0  0  0  0  0  0  0  0  0  0
  148.8102  139.1236  153.4986 H   0  0  0  0  0  0  0  0  0  0  0  0
  147.8535  138.3165  154.6871 H   0  0  0  0  0  0  0  0  0  0  0  0
  147.7561  137.0014  156.2416 H   0  0  0  0  0  0  0  0  0  0  0  0
  147.8963  135.7513  155.0284 H   0  0  0  0  0  0  0  0  0  0  0  0
  147.2887  134.8152  157.2241 H   0  0  0  0  0  0  0  0  0  0  0  0
  148.6952  135.5408  157.9821 H   0  0  0  0  0  0  0  0  0  0  0  0
  149.5662  136.9787  153.6374 H   0  0  0  0  0  0  0  0  0  0  0  0
  1  2  1  0  0  0  0
  1 25  1  0  0  0  0
  1 26  1  0  0  0  0
  1 27  1  0  0  0  0
  2 24  1  0  0  0  0
  2  3  1  0  0  0  0
  3  4  1  0  0  0  0
  3 28  1  0  0  0  0
  3 29  1  0  0  0  0
  4  5  1  0  0  0  0
  4 30  1  0  0  0  0
  4 31  1  0  0  0  0
  5  6  1  0  0  0  0
  5 23  1  0  0  0  0
  5 32  1  0  0  0  0
  6 22  1  0  0  0  0
  6  7  1  0  0  0  0
  6 51  1  0  0  0  0
  7  8  1  0  0  0  0
  7 33  1  0  0  0  0
  7 34  1  0  0  0  0
  8  9  1  0  0  0  0
  8 35  1  0  0  0  0
  8 36  1  0  0  0  0
  9 10  1  0  0  0  0
  9 21  1  0  0  0  0
  9 37  1  0  0  0  0
 10 11  1  0  0  0  0
 10 38  1  0  0  0  0
 11 12  2  0  0  0  0
 11 13  1  0  0  0  0
 13 14  1  0  0  0  0
 13 39  1  0  0  0  0
 14 19  1  0  0  0  0
 14 15  2  0  0  0  0
 15 16  1  0  0  0  0
 15 40  1  0  0  0  0
 16 17  2  0  0  0  0
 16 41  1  0  0  0  0
 17 18  1  0  0  0  0
 18 19  2  0  0  0  0
 18 42  1  0  0  0  0
 19 20  1  0  0  0  0
 21 22  1  0  0  0  0
 21 43  1  0  0  0  0
 21 44  1  0  0  0  0
 22 45  1  0  0  0  0
 22 46  1  0  0  0  0
 23 24  1  0  0  0  0
 23 47  1  0  0  0  0
 23 48  1  0  0  0  0
 24 49  1  0  0  0  0
 24 50  1  0  0  0  0
M  CHG  1   6   1
M  END
> <s_m_source_file>
AV-unprocessed.smi

> <i_m_source_file_index>
2253

> <i_lp_mmshare_version>
43012

> <i_f3d_flags>
0

> <s_epik_input>
W0NIM11OMVtDSDJdW0NIMl1bQ0hdKFtDSDJdW0NIMl0xKU4yW0NIMl1bQ0gyXVtDSF0oW0NIMl1bQ0gyXTIpW05IXUMoPU8pW05IXWMzW2NIXVtjSF1uW2NIXWMzRg==

> <s_epik_cmdline>
J2VwaWtfcHl0aG9uJywgJy1waCcsICc3LjAnLCAnLXRuJywgJzgnLCAnLW1hJywgJzIwMCcsICctbWV0YWxfYmluZGluZycsICctaW1hZScsICc8aW5maWxlLm1hZT4nLCAnLW9tYWUnLCAnPG91dGZpbGUubWFlPic=

> <r_epik_Ionization_Penalty>
1.37522

> <r_epik_Ionization_Penalty_Charging>
0.00081195

> <r_epik_Ionization_Penalty_Neutral>
1.3744

> <r_epik_State_Penalty>
1.55149

> <r_epik_Charging_Adjusted_Penalty>
1.5523

> <i_epik_Tot_Q>
1

> <i_epik_Tot_abs_Q>
1

> <r_epik_Metal_State_Penalty>
1.55158

> <b_epik_Metal_Only>
0

> <s_lp_Force_Field>
OPLS_2005

> <r_lp_Energy>
38.6229

> <b_lp_Chiralities_Consistent>
1

> <s_lp_Variant>
AV-unprocessed.smi:2253-8

> <Gold.Version>
5.8.1

> <Gold.Id.Protein>
6NUR|6NUR_protein|mol2

> <Gold.PLP.Fitness>
45.3445

> <Gold.PLP.PLP>
-40.2594

> <Gold.PLP.part.hbond>
-1.0000

> <Gold.PLP.part.metal>
0.0000

> <Gold.PLP.part.buried>
-5.1906

> <Gold.PLP.part.nonpolar>
-34.4978

> <Gold.PLP.part.repulsive>
0.2719

> <Gold.PLP.ligand.clash>
0.0000

> <Gold.PLP.ligand.torsion>
0.4820

> <Gold.PLP.Chemscore.Hbond>
2.0000

> <Gold.PLP.Chemscore.CHOScore>
0.0000

> <Gold.PLP.Chemscore.Metal>
0.0000

> <Gold.Chemscore.Hbonds>
donor molecule, donor type, donor heavy atom, donor atom, acceptor molecule, acceptor atom, score
      L1  H     6    51       P1  7948  2.00

> <Gold.PLP.Chemscore.Internal.Correction>
0.0490

> <Gold.Rescore>
     Score         DG    S(hbond)    S(metal)    S(lipo)     H(rot)  DE(clash)    DE(int)     intcor
     15.65     -17.67       0.96        0.00     103.77       1.24       0.35       1.67       ----

> <Gold.Chemscore.Fitness>
15.6532

> <Gold.Chemscore.DG>
-17.6701

> <Gold.Chemscore.ZeroCoef>
-5.4800

> <Gold.Chemscore.Hbond>
0.9633

> <Gold.Chemscore.Metal>
0.0000

> <Gold.Chemscore.Lipo>
103.7721

> <Gold.Chemscore.Internal_Hbond>
0.0000

> <Gold.Chemscore.DEClash>
0.3512

> <Gold.Chemscore.DEInternal>
1.6657

> <Gold.Chemscore.Rot>
1.2377

> <Gold.Chemscore.Internal.Correction>
   9.000000E+99

> <Gold.Chemscore.Hbonds>
donor molecule, donor type, donor heavy atom, donor atom, acceptor molecule, acceptor atom, score
      L1  H     6    51       P1  7948  0.79

> <Gold.Chemscore.Hbond.Weighted>
-3.2173

> <Gold.Chemscore.Metal.Weighted>
-0.0000

> <Gold.Chemscore.Lipo.Weighted>
-12.1413

> <Gold.Chemscore.Internal_Hbond.Weighted>
0.0000

> <Gold.Chemscore.DEClash.Weighted>
0.3512

> <Gold.Chemscore.DEInternal.Weighted>
1.6657

> <Gold.Chemscore.Rot.Weighted>
3.1685

> <Gold.Chemscore.Internal.Correction.Weighted>
   9.000000E+99

> <Gold.Protein.RotatedTorsions>
[ 6907 6896 6895 6894 ] final -130.81 input  -60.11 | X-H torsion
[ 7974 7965 7964 7962 ] final   88.69 input  175.53 | X-H torsion
[ 8008 7997 7996 7995 ] final -173.38 input   59.86 | X-H torsion
[ 10167 10162 10161 10158 ] final -115.67 input  -65.29 | X-H torsion
[ 10718 10713 10712 10709 ] final    5.05 input   66.30 | X-H torsion
[ 10763 10752 10751 10750 ] final   -6.54 input  -60.55 | X-H torsion
[ 11005 11000 10999 10996 ] final   78.05 input  -57.11 | X-H torsion

> <Gold.Protein.ActiveResidues>
 VAL166  LYS551  ARG553  GLY616  TRP617  ASP618  TYR619  PRO620  LYS621  CYS622 
 ASP623  PHE694  ASN695  SER759  ASP760  ASP761  ALA762  ILE779  LEU786  VAL792 
 PHE793  MET794  SER795  GLU796  ALA797  LYS798  CYS799  TRP800  GLU811  SER814 

> <Gold.Protein.RotatedAtoms>
  150.9439  133.6625  159.2785 H   0  0  0  0  0  0  0  0  0  0  0  0  # atno 6907 bound_to 6896
  151.4005  135.0969  159.9564 H   0  0  0  0  0  0  0  0  0  0  0  0  # atno 6908 bound_to 6896
  152.5081  133.8934  159.7460 H   0  0  0  0  0  0  0  0  0  0  0  0  # atno 6909 bound_to 6896
  145.5423  139.2289  143.2559 H   0  0  0  0  0  0  0  0  0  0  0  0  # atno 7974 bound_to 7965
  155.9567  140.1136  157.0930 H   0  0  0  0  0  0  0  0  0  0  0  0  # atno 8008 bound_to 7997
  154.4122  140.1190  156.5191 H   0  0  0  0  0  0  0  0  0  0  0  0  # atno 8009 bound_to 7997
  155.6773  140.3473  155.4843 H   0  0  0  0  0  0  0  0  0  0  0  0  # atno 8010 bound_to 7997
  140.0875  143.4730  152.1889 H   0  0  0  0  0  0  0  0  0  0  0  0  # atno 10167 bound_to 10162
  156.9016  130.5724  149.5648 H   0  0  0  0  0  0  0  0  0  0  0  0  # atno 10718 bound_to 10713
  153.4138  135.7008  153.6341 H   0  0  0  0  0  0  0  0  0  0  0  0  # atno 10763 bound_to 10752
  153.4824  135.3691  155.2449 H   0  0  0  0  0  0  0  0  0  0  0  0  # atno 10764 bound_to 10752
  154.8718  135.4069  154.3494 H   0  0  0  0  0  0  0  0  0  0  0  0  # atno 10765 bound_to 10752
  139.9228  134.7732  156.1600 H   0  0  0  0  0  0  0  0  0  0  0  0  # atno 11005 bound_to 11000
  146.1973  140.6243  142.9118 LP  0  0  0  0  0  0  0  0  0  0  0  0  # atno 17320 bound_to 7965
  144.7571  140.5333  143.6761 LP  0  0  0  0  0  0  0  0  0  0  0  0  # atno 17321 bound_to 7965
  139.5744  144.7479  151.3805 LP  0  0  0  0  0  0  0  0  0  0  0  0  # atno 17342 bound_to 10162
  140.7046  143.7547  150.7460 LP  0  0  0  0  0  0  0  0  0  0  0  0  # atno 17343 bound_to 10162
  156.0579  130.5637  150.9130 LP  0  0  0  0  0  0  0  0  0  0  0  0  # atno 17370 bound_to 10713
  157.6022  131.0940  150.8940 LP  0  0  0  0  0  0  0  0  0  0  0  0  # atno 17371 bound_to 10713
  141.0763  133.6774  156.2244 LP  0  0  0  0  0  0  0  0  0  0  0  0  # atno 17394 bound_to 11000
  140.6422  134.5154  157.5570 LP  0  0  0  0  0  0  0  0  0  0  0  0  # atno 17395 bound_to 11000

$$$$
