AV-unprocessed.smi:2187|AV-procd|sdf|8879|dock7
  -GOLD-   2272012 83D 1   1.00000     0.00000
 Structure written by MMmdl.
 42 43  0  0  0  0  0  0  0  0  1 V2000
  149.7013  145.1574  159.8784 C   0  0  0  0  0  0  0  0  0  0  0  0
  150.8206  144.1961  160.1603 C   0  0  0  0  0  0  0  0  0  0  0  0
  151.1605  143.9501  161.4146 N   0  0  0  0  0  0  0  0  0  0  0  0
  152.1660  143.0561  161.3298 N   0  0  0  0  0  0  0  0  0  0  0  0
  152.7801  142.5604  162.5462 C   0  0  0  0  0  0  0  0  0  0  0  0
  152.4591  142.7333  160.0192 C   0  0  0  0  0  0  0  0  0  0  0  0
  153.5298  141.7542  159.6593 C   0  0  0  0  0  0  0  0  0  0  0  0
  151.6077  143.4572  159.2278 C   0  0  0  0  0  0  0  0  0  0  0  0
  151.5062  143.4709  157.7236 C   0  0  0  0  0  0  0  0  0  0  0  0
  150.8684  142.1668  157.2471 C   0  0  0  0  0  0  0  0  0  0  0  0
  151.1002  141.1139  157.8409 O   0  0  0  0  0  0  0  0  0  0  0  0
  150.0566  142.2548  156.1811 N   0  0  0  0  0  0  0  0  0  0  0  0
  149.3154  141.1450  155.5789 C   0  0  1  0  0  0  0  0  0  0  0  0
  148.5179  141.7166  154.3840 C   0  0  0  0  0  0  0  0  0  0  0  0
  147.3028  140.8632  153.9817 C   0  0  0  0  0  0  0  0  0  0  0  0
  147.6415  139.4641  153.4452 C   0  0  0  0  0  0  0  0  0  0  0  0
  148.3493  138.5631  154.4716 C   0  0  0  0  0  0  0  0  0  0  0  0
  149.7614  138.8949  154.6103 N   0  0  0  0  0  0  0  0  0  0  0  0
  150.2769  140.0449  155.0708 C   0  0  0  0  0  0  0  0  0  0  0  0
  151.4955  140.2192  155.0827 O   0  0  0  0  0  0  0  0  0  0  0  0
  148.7752  144.6227  159.6662 H   0  0  0  0  0  0  0  0  0  0  0  0
  149.9284  145.7832  159.0155 H   0  0  0  0  0  0  0  0  0  0  0  0
  149.5160  145.8197  160.7248 H   0  0  0  0  0  0  0  0  0  0  0  0
  153.8653  142.6215  162.4622 H   0  0  0  0  0  0  0  0  0  0  0  0
  152.4922  141.5207  162.7027 H   0  0  0  0  0  0  0  0  0  0  0  0
  152.4613  143.1502  163.4068 H   0  0  0  0  0  0  0  0  0  0  0  0
  153.4720  141.4737  158.6078 H   0  0  0  0  0  0  0  0  0  0  0  0
  153.4382  140.8421  160.2490 H   0  0  0  0  0  0  0  0  0  0  0  0
  154.5171  142.1786  159.8409 H   0  0  0  0  0  0  0  0  0  0  0  0
  150.9159  144.3175  157.3711 H   0  0  0  0  0  0  0  0  0  0  0  0
  152.4854  143.5766  157.2557 H   0  0  0  0  0  0  0  0  0  0  0  0
  149.9350  143.1623  155.7562 H   0  0  0  0  0  0  0  0  0  0  0  0
  148.6332  140.7320  156.3242 H   0  0  0  0  0  0  0  0  0  0  0  0
  148.1373  142.7041  154.6502 H   0  0  0  0  0  0  0  0  0  0  0  0
  149.1677  141.8786  153.5222 H   0  0  0  0  0  0  0  0  0  0  0  0
  146.6279  140.7714  154.8335 H   0  0  0  0  0  0  0  0  0  0  0  0
  146.7412  141.3996  153.2163 H   0  0  0  0  0  0  0  0  0  0  0  0
  146.7098  138.9823  153.1474 H   0  0  0  0  0  0  0  0  0  0  0  0
  148.2400  139.5430  152.5365 H   0  0  0  0  0  0  0  0  0  0  0  0
  147.8497  138.5985  155.4407 H   0  0  0  0  0  0  0  0  0  0  0  0
  148.2945  137.5272  154.1366 H   0  0  0  0  0  0  0  0  0  0  0  0
  150.4160  138.1921  154.2979 H   0  0  0  0  0  0  0  0  0  0  0  0
  1  2  1  0  0  0  0
  1 21  1  0  0  0  0
  1 22  1  0  0  0  0
  1 23  1  0  0  0  0
  2  8  1  0  0  0  0
  2  3  2  0  0  0  0
  3  4  1  0  0  0  0
  4  5  1  0  0  0  0
  4  6  1  0  0  0  0
  5 24  1  0  0  0  0
  5 25  1  0  0  0  0
  5 26  1  0  0  0  0
  6  7  1  0  0  0  0
  6  8  2  0  0  0  0
  7 27  1  0  0  0  0
  7 28  1  0  0  0  0
  7 29  1  0  0  0  0
  8  9  1  0  0  0  0
  9 10  1  0  0  0  0
  9 30  1  0  0  0  0
  9 31  1  0  0  0  0
 10 11  2  0  0  0  0
 10 12  1  0  0  0  0
 12 13  1  0  0  0  0
 12 32  1  0  0  0  0
 13 19  1  0  0  0  0
 13 14  1  0  0  0  0
 13 33  1  0  0  0  0
 14 15  1  0  0  0  0
 14 34  1  0  0  0  0
 14 35  1  0  0  0  0
 15 16  1  0  0  0  0
 15 36  1  0  0  0  0
 15 37  1  0  0  0  0
 16 17  1  0  0  0  0
 16 38  1  0  0  0  0
 16 39  1  0  0  0  0
 17 18  1  0  0  0  0
 17 40  1  0  0  0  0
 17 41  1  0  0  0  0
 18 19  1  0  0  0  0
 18 42  1  0  0  0  0
 19 20  2  0  0  0  0
M  END
> <s_m_source_file>
AV-unprocessed.smi

> <i_m_source_file_index>
2187

> <i_lp_mmshare_version>
43012

> <i_f3d_flags>
0

> <s_epik_input>
W0NIM11jMW5uKFtDSDNdKWMoW0NIM10pYzFbQ0gyXUMoPU8pW05IXVtDQEBIXTJbQ0gyXVtDSDJdW0NIMl1bQ0gyXVtOSF1DMj1P

> <s_epik_cmdline>
J2VwaWtfcHl0aG9uJywgJy1waCcsICc3LjAnLCAnLXRuJywgJzgnLCAnLW1hJywgJzIwMCcsICctbWV0YWxfYmluZGluZycsICctaW1hZScsICc8aW5maWxlLm1hZT4nLCAnLW9tYWUnLCAnPG91dGZpbGUubWFlPic=

> <r_lp_tautomer_probability>
1

> <r_epik_Ionization_Penalty>
0.00280384

> <r_epik_Ionization_Penalty_Charging>
0

> <r_epik_Ionization_Penalty_Neutral>
0.00280384

> <r_epik_State_Penalty>
0.00195959

> <r_epik_Charging_Adjusted_Penalty>
0.00195959

> <i_epik_Tot_Q>
0

> <i_epik_Tot_abs_Q>
0

> <r_epik_Metal_State_Penalty>
-0

> <b_epik_Metal_Only>
0

> <s_lp_Force_Field>
OPLS_2005

> <r_lp_Energy>
5.77256

> <b_lp_Chiralities_Consistent>
1

> <s_lp_Variant>
AV-unprocessed.smi:2187-2

> <Gold.Version>
5.8.1

> <Gold.Id.Protein>
6NUR|6NUR_protein|mol2

> <Gold.PLP.Fitness>
50.4576

> <Gold.PLP.PLP>
-45.7148

> <Gold.PLP.part.hbond>
-2.0474

> <Gold.PLP.part.metal>
0.0000

> <Gold.PLP.part.buried>
-5.0190

> <Gold.PLP.part.nonpolar>
-37.4569

> <Gold.PLP.part.repulsive>
0.3972

> <Gold.PLP.ligand.clash>
0.0000

> <Gold.PLP.ligand.torsion>
0.4979

> <Gold.PLP.Chemscore.Hbond>
1.9120

> <Gold.PLP.Chemscore.CHOScore>
0.0000

> <Gold.PLP.Chemscore.Metal>
0.0000

> <Gold.Chemscore.Hbonds>
donor molecule, donor type, donor heavy atom, donor atom, acceptor molecule, acceptor atom, score
      L1  H    12    32       P1  8028  0.94
      P1  H  7989  7998       L1    20  0.90

> <Gold.PLP.Chemscore.Internal.Correction>
0.0026

> <Gold.Rescore>
     Score         DG    S(hbond)    S(metal)    S(lipo)     H(rot)  DE(clash)    DE(int)     intcor
     18.15     -19.49       1.97        0.00      95.45       1.46       0.00       1.33       ----

> <Gold.Chemscore.Fitness>
18.1528

> <Gold.Chemscore.DG>
-19.4854

> <Gold.Chemscore.ZeroCoef>
-5.4800

> <Gold.Chemscore.Hbond>
1.9669

> <Gold.Chemscore.Metal>
0.0000

> <Gold.Chemscore.Lipo>
95.4541

> <Gold.Chemscore.Internal_Hbond>
0.0000

> <Gold.Chemscore.DEClash>
0.0029

> <Gold.Chemscore.DEInternal>
1.3297

> <Gold.Chemscore.Rot>
1.4578

> <Gold.Chemscore.Internal.Correction>
   9.000000E+99

> <Gold.Chemscore.Hbonds>
donor molecule, donor type, donor heavy atom, donor atom, acceptor molecule, acceptor atom, score
      L1  H    12    32       P1  8028  0.91
      P1  H  7989  7998       L1    20  0.17

> <Gold.Chemscore.Hbond.Weighted>
-6.5694

> <Gold.Chemscore.Metal.Weighted>
-0.0000

> <Gold.Chemscore.Lipo.Weighted>
-11.1681

> <Gold.Chemscore.Internal_Hbond.Weighted>
0.0000

> <Gold.Chemscore.DEClash.Weighted>
0.0029

> <Gold.Chemscore.DEInternal.Weighted>
1.3297

> <Gold.Chemscore.Rot.Weighted>
3.7321

> <Gold.Chemscore.Internal.Correction.Weighted>
   9.000000E+99

> <Gold.Protein.RotatedTorsions>
[ 6907 6896 6895 6894 ] final  -55.62 input  -60.11 | X-H torsion
[ 7974 7965 7964 7962 ] final   64.25 input  175.53 | X-H torsion
[ 8008 7997 7996 7995 ] final -149.68 input   59.86 | X-H torsion
[ 10167 10162 10161 10158 ] final -116.93 input  -65.29 | X-H torsion
[ 10718 10713 10712 10709 ] final   72.89 input   66.30 | X-H torsion
[ 10763 10752 10751 10750 ] final -123.61 input  -60.55 | X-H torsion
[ 11005 11000 10999 10996 ] final -128.11 input  -57.11 | X-H torsion

> <Gold.Protein.ActiveResidues>
 VAL166  LYS551  ARG553  GLY616  TRP617  ASP618  TYR619  PRO620  LYS621  CYS622 
 ASP623  PHE694  ASN695  SER759  ASP760  ASP761  ALA762  ILE779  LEU786  VAL792 
 PHE793  MET794  SER795  GLU796  ALA797  LYS798  CYS799  TRP800  GLU811  SER814 

> <Gold.Protein.RotatedAtoms>
  150.8236  134.7456  159.6793 H   0  0  0  0  0  0  0  0  0  0  0  0  # atno 6907 bound_to 6896
  152.4349  134.5702  159.9929 H   0  0  0  0  0  0  0  0  0  0  0  0  # atno 6908 bound_to 6896
  151.5880  133.3332  159.3058 H   0  0  0  0  0  0  0  0  0  0  0  0  # atno 6909 bound_to 6896
  145.8523  139.3262  143.0868 H   0  0  0  0  0  0  0  0  0  0  0  0  # atno 7974 bound_to 7965
  155.6115  140.0672  157.2704 H   0  0  0  0  0  0  0  0  0  0  0  0  # atno 8008 bound_to 7997
  154.4252  140.1800  156.1325 H   0  0  0  0  0  0  0  0  0  0  0  0  # atno 8009 bound_to 7997
  156.0081  140.3329  155.6916 H   0  0  0  0  0  0  0  0  0  0  0  0  # atno 8010 bound_to 7997
  140.0739  143.4851  152.1964 H   0  0  0  0  0  0  0  0  0  0  0  0  # atno 10167 bound_to 10162
  157.6522  130.9601  150.0993 H   0  0  0  0  0  0  0  0  0  0  0  0  # atno 10718 bound_to 10713
  154.8710  135.4092  154.2971 H   0  0  0  0  0  0  0  0  0  0  0  0  # atno 10763 bound_to 10752
  153.3837  135.7012  153.6552 H   0  0  0  0  0  0  0  0  0  0  0  0  # atno 10764 bound_to 10752
  153.5363  135.3657  155.2670 H   0  0  0  0  0  0  0  0  0  0  0  0  # atno 10765 bound_to 10752
  140.9544  134.1022  157.4031 H   0  0  0  0  0  0  0  0  0  0  0  0  # atno 11005 bound_to 11000
  145.9343  140.9026  143.0340 LP  0  0  0  0  0  0  0  0  0  0  0  0  # atno 17320 bound_to 7965
  144.6729  140.1461  143.7433 LP  0  0  0  0  0  0  0  0  0  0  0  0  # atno 17321 bound_to 7965
  139.5819  144.7514  151.3617 LP  0  0  0  0  0  0  0  0  0  0  0  0  # atno 17342 bound_to 10162
  140.7112  143.7386  150.7570 LP  0  0  0  0  0  0  0  0  0  0  0  0  # atno 17343 bound_to 10162
  156.1920  130.3655  149.8898 LP  0  0  0  0  0  0  0  0  0  0  0  0  # atno 17370 bound_to 10713
  156.6824  130.8863  151.3577 LP  0  0  0  0  0  0  0  0  0  0  0  0  # atno 17371 bound_to 10713
  139.8857  135.0075  156.6454 LP  0  0  0  0  0  0  0  0  0  0  0  0  # atno 17394 bound_to 11000
  140.7557  133.8859  155.8380 LP  0  0  0  0  0  0  0  0  0  0  0  0  # atno 17395 bound_to 11000

$$$$
