AV-unprocessed.smi:1451|AV-procd|sdf|5899|dock1
  -GOLD-   22720 5583D 1   1.00000     0.00000
 Structure written by MMmdl.
 47 48  0  0  0  0  0  0  0  0  2 V2000
  143.8235  135.2764  151.8749 C   0  0  0  0  0  0  0  0  0  0  0  0
  145.2836  134.8161  151.9927 C   0  0  2  0  0  0  0  0  0  0  0  0
  145.4554  133.3643  151.5157 C   0  0  0  0  0  0  0  0  0  0  0  0
  146.9170  132.9249  151.6680 C   0  0  0  0  0  0  0  0  0  0  0  0
  147.4041  133.1263  153.1117 C   0  0  0  0  0  0  0  0  0  0  0  0
  147.2291  134.5368  153.5457 N   0  3  2  0  0  0  0  0  0  0  0  0
  147.8138  134.7845  154.8879 C   0  0  0  0  0  0  0  0  0  0  0  0
  149.3406  134.5738  154.9148 C   0  0  0  0  0  0  0  0  0  0  0  0
  150.0508  135.7790  154.5041 N   0  0  0  0  0  0  0  0  0  0  0  0
  151.1017  136.3084  155.1485 C   0  0  0  0  0  0  0  0  0  0  0  0
  151.5936  135.8045  156.1592 O   0  0  0  0  0  0  0  0  0  0  0  0
  151.6861  137.5944  154.5467 C   0  0  0  0  0  0  0  0  0  0  0  0
  150.8413  138.7785  154.7779 N   0  0  0  0  0  0  0  0  0  0  0  0
  149.5639  138.7840  154.1833 C   0  0  0  0  0  0  0  0  0  0  0  0
  148.7031  139.8126  154.3057 C   0  0  0  0  0  0  0  0  0  0  0  0
  147.3115  139.7659  153.6943 C   0  0  0  0  0  0  0  0  0  0  0  0
  147.3663  139.4735  152.3946 F   0  0  0  0  0  0  0  0  0  0  0  0
  146.5814  138.8306  154.3004 F   0  0  0  0  0  0  0  0  0  0  0  0
  146.6862  140.9355  153.8343 F   0  0  0  0  0  0  0  0  0  0  0  0
  149.1416  140.9276  155.1221 C   0  0  0  0  0  0  0  0  0  0  0  0
  150.3572  140.9357  155.7031 C   0  0  0  0  0  0  0  0  0  0  0  0
  151.2919  139.8199  155.5402 C   0  0  0  0  0  0  0  0  0  0  0  0
  152.4106  139.8204  156.0554 O   0  0  0  0  0  0  0  0  0  0  0  0
  145.8100  134.9702  153.4341 C   0  0  0  0  0  0  0  0  0  0  0  0
  143.1653  134.6763  152.5041 H   0  0  0  0  0  0  0  0  0  0  0  0
  143.4675  135.1939  150.8473 H   0  0  0  0  0  0  0  0  0  0  0  0
  143.7145  136.3184  152.1772 H   0  0  0  0  0  0  0  0  0  0  0  0
  145.8824  135.4583  151.3447 H   0  0  0  0  0  0  0  0  0  0  0  0
  144.8112  132.7023  152.0963 H   0  0  0  0  0  0  0  0  0  0  0  0
  145.1456  133.2675  150.4746 H   0  0  0  0  0  0  0  0  0  0  0  0
  147.0225  131.8779  151.3818 H   0  0  0  0  0  0  0  0  0  0  0  0
  147.5460  133.4975  150.9850 H   0  0  0  0  0  0  0  0  0  0  0  0
  146.8610  132.4656  153.7894 H   0  0  0  0  0  0  0  0  0  0  0  0
  148.4570  132.8480  153.1728 H   0  0  0  0  0  0  0  0  0  0  0  0
  147.5540  135.7890  155.2261 H   0  0  0  0  0  0  0  0  0  0  0  0
  147.3611  134.0954  155.6022 H   0  0  0  0  0  0  0  0  0  0  0  0
  149.6680  134.2685  155.9101 H   0  0  0  0  0  0  0  0  0  0  0  0
  149.6367  133.7777  154.2330 H   0  0  0  0  0  0  0  0  0  0  0  0
  149.7153  136.2500  153.6760 H   0  0  0  0  0  0  0  0  0  0  0  0
  152.6825  137.7421  154.9652 H   0  0  0  0  0  0  0  0  0  0  0  0
  151.8447  137.4570  153.4751 H   0  0  0  0  0  0  0  0  0  0  0  0
  149.3273  137.8964  153.6146 H   0  0  0  0  0  0  0  0  0  0  0  0
  148.4868  141.7741  155.2670 H   0  0  0  0  0  0  0  0  0  0  0  0
  150.6518  141.7848  156.3024 H   0  0  0  0  0  0  0  0  0  0  0  0
  145.7134  136.0130  153.7341 H   0  0  0  0  0  0  0  0  0  0  0  0
  145.1978  134.3871  154.1241 H   0  0  0  0  0  0  0  0  0  0  0  0
  147.7616  135.0967  152.8952 H   0  0  0  0  0  0  0  0  0  0  0  0
  1  2  1  0  0  0  0
  1 25  1  0  0  0  0
  1 26  1  0  0  0  0
  1 27  1  0  0  0  0
  2 24  1  0  0  0  0
  2  3  1  0  0  0  0
  2 28  1  0  0  0  0
  3  4  1  0  0  0  0
  3 29  1  0  0  0  0
  3 30  1  0  0  0  0
  4  5  1  0  0  0  0
  4 31  1  0  0  0  0
  4 32  1  0  0  0  0
  5  6  1  0  0  0  0
  5 33  1  0  0  0  0
  5 34  1  0  0  0  0
  6  7  1  0  0  0  0
  6 24  1  0  0  0  0
  6 47  1  0  0  0  0
  7  8  1  0  0  0  0
  7 35  1  0  0  0  0
  7 36  1  0  0  0  0
  8  9  1  0  0  0  0
  8 37  1  0  0  0  0
  8 38  1  0  0  0  0
  9 10  1  0  0  0  0
  9 39  1  0  0  0  0
 10 11  2  0  0  0  0
 10 12  1  0  0  0  0
 12 13  1  0  0  0  0
 12 40  1  0  0  0  0
 12 41  1  0  0  0  0
 13 22  1  0  0  0  0
 13 14  1  0  0  0  0
 14 15  2  0  0  0  0
 14 42  1  0  0  0  0
 15 16  1  0  0  0  0
 15 20  1  0  0  0  0
 16 17  1  0  0  0  0
 16 18  1  0  0  0  0
 16 19  1  0  0  0  0
 20 21  2  0  0  0  0
 20 43  1  0  0  0  0
 21 22  1  0  0  0  0
 21 44  1  0  0  0  0
 22 23  2  0  0  0  0
 24 45  1  0  0  0  0
 24 46  1  0  0  0  0
M  CHG  1   6   1
M  END
> <s_m_source_file>
AV-unprocessed.smi

> <i_m_source_file_index>
1451

> <i_lp_mmshare_version>
43012

> <i_f3d_flags>
0

> <s_epik_input>
W0NIM11bQ0BASF0xW0NIMl1bQ0gyXVtDSDJdTihbQ0gyXTEpW0NIMl1bQ0gyXVtOSF1DKD1PKVtDSDJdbjJbY0hdYyhDKEYpKEYpRilbY0hdW2NIXWMyPU8=

> <s_epik_cmdline>
J2VwaWtfcHl0aG9uJywgJy1waCcsICc3LjAnLCAnLXRuJywgJzgnLCAnLW1hJywgJzIwMCcsICctbWV0YWxfYmluZGluZycsICctaW1hZScsICc8aW5maWxlLm1hZT4nLCAnLW9tYWUnLCAnPG91dGZpbGUubWFlPic=

> <r_lp_tautomer_probability>
1

> <r_epik_Ionization_Penalty>
0.00192452

> <r_epik_Ionization_Penalty_Charging>
0.00192444

> <r_epik_Ionization_Penalty_Neutral>
8.16761e-08

> <r_epik_State_Penalty>
0.00131115

> <r_epik_Charging_Adjusted_Penalty>
0.00323559

> <i_epik_Tot_Q>
1

> <i_epik_Tot_abs_Q>
1

> <r_epik_Metal_State_Penalty>
-0

> <b_epik_Metal_Only>
0

> <s_lp_Force_Field>
OPLS_2005

> <r_lp_Energy>
28.0939

> <b_lp_Chiralities_Consistent>
1

> <s_lp_Variant>
AV-unprocessed.smi:1451-1

> <Gold.Version>
5.8.1

> <Gold.Id.Protein>
6NUR|6NUR_protein|mol2

> <Gold.PLP.Fitness>
57.4948

> <Gold.PLP.PLP>
-41.2774

> <Gold.PLP.part.hbond>
-5.0000

> <Gold.PLP.part.metal>
0.0000

> <Gold.PLP.part.buried>
5.5262

> <Gold.PLP.part.nonpolar>
-41.2152

> <Gold.PLP.part.repulsive>
0.0931

> <Gold.PLP.ligand.clash>
0.0000

> <Gold.PLP.ligand.torsion>
0.6276

> <Gold.PLP.Chemscore.Hbond>
4.7500

> <Gold.PLP.Chemscore.CHOScore>
0.9990

> <Gold.PLP.Chemscore.Metal>
0.0000

> <Gold.Chemscore.Hbonds>
donor molecule, donor type, donor heavy atom, donor atom, acceptor molecule, acceptor atom, score
      L1  H     6    47       P1  7948  2.00
      L1  H     9    39       P1  7948  1.00
      P1  H  7997  8008       L1    23  1.00
      P1  H 10752 10764       L1    11  0.55
      L1  C    14    42       P1  7948  1.00

> <Gold.PLP.Chemscore.Internal.Correction>
0.2256

> <Gold.Rescore>
     Score         DG    S(hbond)    S(metal)    S(lipo)     H(rot)  DE(clash)    DE(int)     intcor
     16.08     -17.77       2.62        0.00      75.79       2.08       1.11       0.58       ----

> <Gold.Chemscore.Fitness>
16.0796

> <Gold.Chemscore.DG>
-17.7699

> <Gold.Chemscore.ZeroCoef>
-5.4800

> <Gold.Chemscore.Hbond>
2.6159

> <Gold.Chemscore.Metal>
0.0000

> <Gold.Chemscore.Lipo>
75.7920

> <Gold.Chemscore.Internal_Hbond>
0.0000

> <Gold.Chemscore.DEClash>
1.1054

> <Gold.Chemscore.DEInternal>
0.5849

> <Gold.Chemscore.Rot>
2.0762

> <Gold.Chemscore.Internal.Correction>
   9.000000E+99

> <Gold.Chemscore.Hbonds>
donor molecule, donor type, donor heavy atom, donor atom, acceptor molecule, acceptor atom, score
      L1  H     6    47       P1  7948  0.99
      L1  H     9    39       P1  7948  0.33
      P1  H  7997  8008       L1    23  0.97
      P1  H 10752 10764       L1    11  0.03

> <Gold.Chemscore.Hbond.Weighted>
-8.7373

> <Gold.Chemscore.Metal.Weighted>
-0.0000

> <Gold.Chemscore.Lipo.Weighted>
-8.8677

> <Gold.Chemscore.Internal_Hbond.Weighted>
0.0000

> <Gold.Chemscore.DEClash.Weighted>
1.1054

> <Gold.Chemscore.DEInternal.Weighted>
0.5849

> <Gold.Chemscore.Rot.Weighted>
5.3150

> <Gold.Chemscore.Internal.Correction.Weighted>
   9.000000E+99

> <Gold.Protein.RotatedTorsions>
[ 6907 6896 6895 6894 ] final   82.73 input  -60.11 | X-H torsion
[ 7974 7965 7964 7962 ] final  -86.10 input  175.53 | X-H torsion
[ 8008 7997 7996 7995 ] final  -28.81 input   59.86 | X-H torsion
[ 10167 10162 10161 10158 ] final  108.96 input  -65.29 | X-H torsion
[ 10718 10713 10712 10709 ] final -136.86 input   66.30 | X-H torsion
[ 10763 10752 10751 10750 ] final  -17.74 input  -60.55 | X-H torsion
[ 11005 11000 10999 10996 ] final -146.15 input  -57.11 | X-H torsion

> <Gold.Protein.ActiveResidues>
 VAL166  LYS551  ARG553  GLY616  TRP617  ASP618  TYR619  PRO620  LYS621  CYS622 
 ASP623  PHE694  ASN695  SER759  ASP760  ASP761  ALA762  ILE779  LEU786  VAL792 
 PHE793  MET794  SER795  GLU796  ALA797  LYS798  CYS799  TRP800  GLU811  SER814 

> <Gold.Protein.RotatedAtoms>
  152.5307  134.3004  159.9075 H   0  0  0  0  0  0  0  0  0  0  0  0  # atno 6907 bound_to 6896
  151.2955  133.4139  159.2643 H   0  0  0  0  0  0  0  0  0  0  0  0  # atno 6908 bound_to 6896
  151.0164  134.9452  159.8092 H   0  0  0  0  0  0  0  0  0  0  0  0  # atno 6909 bound_to 6896
  145.4844  140.9555  143.1847 H   0  0  0  0  0  0  0  0  0  0  0  0  # atno 7974 bound_to 7965
  154.4316  140.1835  156.1148 H   0  0  0  0  0  0  0  0  0  0  0  0  # atno 8008 bound_to 7997
  156.0189  140.3343  155.6993 H   0  0  0  0  0  0  0  0  0  0  0  0  # atno 8009 bound_to 7997
  155.6004  140.0640  157.2725 H   0  0  0  0  0  0  0  0  0  0  0  0  # atno 8010 bound_to 7997
  139.6804  144.7118  151.1526 H   0  0  0  0  0  0  0  0  0  0  0  0  # atno 10167 bound_to 10162
  156.2817  130.7324  151.1324 H   0  0  0  0  0  0  0  0  0  0  0  0  # atno 10718 bound_to 10713
  153.5785  135.7005  153.5474 H   0  0  0  0  0  0  0  0  0  0  0  0  # atno 10763 bound_to 10752
  153.3282  135.4055  155.1473 H   0  0  0  0  0  0  0  0  0  0  0  0  # atno 10764 bound_to 10752
  154.8621  135.3712  154.5311 H   0  0  0  0  0  0  0  0  0  0  0  0  # atno 10765 bound_to 10752
  140.7850  134.3035  157.5033 H   0  0  0  0  0  0  0  0  0  0  0  0  # atno 11005 bound_to 11000
  144.7870  139.6406  143.7130 LP  0  0  0  0  0  0  0  0  0  0  0  0  # atno 17320 bound_to 7965
  146.2322  139.5835  142.9548 LP  0  0  0  0  0  0  0  0  0  0  0  0  # atno 17321 bound_to 7965
  140.7650  143.5708  150.8998 LP  0  0  0  0  0  0  0  0  0  0  0  0  # atno 17342 bound_to 10162
  139.9379  143.6416  152.3061 LP  0  0  0  0  0  0  0  0  0  0  0  0  # atno 17343 bound_to 10162
  157.7316  131.0606  150.5668 LP  0  0  0  0  0  0  0  0  0  0  0  0  # atno 17370 bound_to 10713
  156.5775  130.4295  149.5992 LP  0  0  0  0  0  0  0  0  0  0  0  0  # atno 17371 bound_to 10713
  139.8738  134.9341  156.3597 LP  0  0  0  0  0  0  0  0  0  0  0  0  # atno 17394 bound_to 11000
  140.9446  133.7492  156.0191 LP  0  0  0  0  0  0  0  0  0  0  0  0  # atno 17395 bound_to 11000

$$$$
