AV-unprocessed.smi:2822|AV-procd|sdf|10882|dock2
  -GOLD-   2272015323D 1   1.00000     0.00000
 Structure written by MMmdl.
 39 41  0  0  0  0  0  0  0  0  1 V2000
  153.3093  141.7863  160.9368 Cl  0  0  0  0  0  0  0  0  0  0  0  0
  152.1025  142.6978  160.0981 C   0  0  0  0  0  0  0  0  0  0  0  0
  151.7960  144.0071  160.5221 C   0  0  0  0  0  0  0  0  0  0  0  0
  150.8683  144.7849  159.9253 N   0  0  0  0  0  0  0  0  0  0  0  0
  150.2064  144.2723  158.8673 C   0  0  0  0  0  0  0  0  0  0  0  0
  150.4358  142.9773  158.3612 C   0  0  0  0  0  0  0  0  0  0  0  0
  151.4070  142.1623  158.9894 C   0  0  0  0  0  0  0  0  0  0  0  0
  151.6980  140.8613  158.5517 N   0  0  0  0  0  0  0  0  0  0  0  0
  150.9196  140.2357  157.4939 C   0  0  0  0  0  0  0  0  0  0  0  0
  151.1831  140.9035  156.1310 C   0  0  2  0  0  0  0  0  0  0  0  0
  149.9829  141.7251  155.6227 C   0  0  0  0  0  0  0  0  0  0  0  0
  148.8709  140.8900  155.1836 N   0  0  0  0  0  0  0  0  0  0  0  0
  147.7650  141.7077  154.6865 C   0  0  0  0  0  0  0  0  0  0  0  0
  146.5609  140.8631  154.2413 C   0  0  0  0  0  0  0  0  0  0  0  0
  146.9899  139.8438  153.1765 C   0  0  0  0  0  0  0  0  0  0  0  0
  148.1835  139.0220  153.6860 C   0  0  0  0  0  0  0  0  0  0  0  0
  149.3266  139.9425  154.1624 C   0  0  2  0  0  0  0  0  0  0  0  0
  150.5134  139.1037  154.6764 C   0  0  0  0  0  0  0  0  0  0  0  0
  151.5627  139.9532  155.1333 O   0  0  0  0  0  0  0  0  0  0  0  0
  152.3105  144.4431  161.3657 H   0  0  0  0  0  0  0  0  0  0  0  0
  149.4693  144.9143  158.4078 H   0  0  0  0  0  0  0  0  0  0  0  0
  149.8691  142.6360  157.5081 H   0  0  0  0  0  0  0  0  0  0  0  0
  152.2973  140.2757  159.1161 H   0  0  0  0  0  0  0  0  0  0  0  0
  151.1347  139.1681  157.4528 H   0  0  0  0  0  0  0  0  0  0  0  0
  149.8627  140.3344  157.7436 H   0  0  0  0  0  0  0  0  0  0  0  0
  152.0234  141.5879  156.2538 H   0  0  0  0  0  0  0  0  0  0  0  0
  149.6492  142.4082  156.4047 H   0  0  0  0  0  0  0  0  0  0  0  0
  150.3145  142.3500  154.7919 H   0  0  0  0  0  0  0  0  0  0  0  0
  147.4436  142.4004  155.4650 H   0  0  0  0  0  0  0  0  0  0  0  0
  148.1047  142.3210  153.8503 H   0  0  0  0  0  0  0  0  0  0  0  0
  146.1394  140.3427  155.1022 H   0  0  0  0  0  0  0  0  0  0  0  0
  145.7737  141.5075  153.8489 H   0  0  0  0  0  0  0  0  0  0  0  0
  146.1574  139.1873  152.9219 H   0  0  0  0  0  0  0  0  0  0  0  0
  147.2696  140.3660  152.2606 H   0  0  0  0  0  0  0  0  0  0  0  0
  147.8587  138.3820  154.5077 H   0  0  0  0  0  0  0  0  0  0  0  0
  148.5372  138.3578  152.8967 H   0  0  0  0  0  0  0  0  0  0  0  0
  149.6776  140.5098  153.2984 H   0  0  0  0  0  0  0  0  0  0  0  0
  150.2008  138.4293  155.4740 H   0  0  0  0  0  0  0  0  0  0  0  0
  150.9049  138.4751  153.8762 H   0  0  0  0  0  0  0  0  0  0  0  0
  1  2  1  0  0  0  0
  2  7  1  0  0  0  0
  2  3  2  0  0  0  0
  3  4  1  0  0  0  0
  3 20  1  0  0  0  0
  4  5  2  0  0  0  0
  5  6  1  0  0  0  0
  5 21  1  0  0  0  0
  6  7  2  0  0  0  0
  6 22  1  0  0  0  0
  7  8  1  0  0  0  0
  8  9  1  0  0  0  0
  8 23  1  0  0  0  0
  9 10  1  0  0  0  0
  9 24  1  0  0  0  0
  9 25  1  0  0  0  0
 10 19  1  0  0  0  0
 10 11  1  0  0  0  0
 10 26  1  0  0  0  0
 11 12  1  0  0  0  0
 11 27  1  0  0  0  0
 11 28  1  0  0  0  0
 12 17  1  0  0  0  0
 12 13  1  0  0  0  0
 13 14  1  0  0  0  0
 13 29  1  0  0  0  0
 13 30  1  0  0  0  0
 14 15  1  0  0  0  0
 14 31  1  0  0  0  0
 14 32  1  0  0  0  0
 15 16  1  0  0  0  0
 15 33  1  0  0  0  0
 15 34  1  0  0  0  0
 16 17  1  0  0  0  0
 16 35  1  0  0  0  0
 16 36  1  0  0  0  0
 17 18  1  0  0  0  0
 17 37  1  0  0  0  0
 18 19  1  0  0  0  0
 18 38  1  0  0  0  0
 18 39  1  0  0  0  0
M  END
> <s_m_source_file>
AV-unprocessed.smi

> <i_m_source_file_index>
2822

> <i_lp_mmshare_version>
43012

> <i_f3d_flags>
0

> <s_epik_input>
Q2xjMVtjSF1uW2NIXVtjSF1jMVtOSF1bQ0gyXVtDQEhdKFtDSDJdMilPW0NIMl1bQ0BASF0oTjIzKVtDSDJdW0NIMl1bQ0gyXVtDSDJdMw==

> <s_epik_cmdline>
J2VwaWtfcHl0aG9uJywgJy1waCcsICc3LjAnLCAnLXRuJywgJzgnLCAnLW1hJywgJzIwMCcsICctbWV0YWxfYmluZGluZycsICctaW1hZScsICc8aW5maWxlLm1hZT4nLCAnLW9tYWUnLCAnPG91dGZpbGUubWFlPic=

> <r_lp_tautomer_probability>
0.999999

> <r_epik_Ionization_Penalty>
2.10064

> <r_epik_Ionization_Penalty_Charging>
0

> <r_epik_Ionization_Penalty_Neutral>
2.10064

> <r_epik_State_Penalty>
2.1757

> <r_epik_Charging_Adjusted_Penalty>
2.1757

> <i_epik_Tot_Q>
0

> <i_epik_Tot_abs_Q>
0

> <r_epik_Metal_State_Penalty>
1.25425

> <b_epik_Metal_Only>
0

> <s_lp_Force_Field>
OPLS_2005

> <r_lp_Energy>
40.8538

> <b_lp_Chiralities_Consistent>
1

> <s_lp_Variant>
AV-unprocessed.smi:2822-23

> <Gold.Version>
5.8.1

> <Gold.Id.Protein>
6NUR|6NUR_protein|mol2

> <Gold.PLP.Fitness>
44.2042

> <Gold.PLP.PLP>
-40.0689

> <Gold.PLP.part.hbond>
-1.0000

> <Gold.PLP.part.metal>
0.0000

> <Gold.PLP.part.buried>
-4.5994

> <Gold.PLP.part.nonpolar>
-35.0891

> <Gold.PLP.part.repulsive>
0.3374

> <Gold.PLP.ligand.clash>
0.0000

> <Gold.PLP.ligand.torsion>
0.7619

> <Gold.PLP.Chemscore.Hbond>
0.8550

> <Gold.PLP.Chemscore.CHOScore>
1.0291

> <Gold.PLP.Chemscore.Metal>
0.0000

> <Gold.Chemscore.Hbonds>
donor molecule, donor type, donor heavy atom, donor atom, acceptor molecule, acceptor atom, score
      P1  H  7989  7998       L1    19  0.65
      L1  C     5    21       P1  8029  1.00

> <Gold.PLP.Chemscore.Internal.Correction>
0.0066

> <Gold.Rescore>
     Score         DG    S(hbond)    S(metal)    S(lipo)     H(rot)  DE(clash)    DE(int)     intcor
     15.62     -16.50       0.01        0.00     119.17       1.15       0.10       0.79       ----

> <Gold.Chemscore.Fitness>
15.6151

> <Gold.Chemscore.DG>
-16.5006

> <Gold.Chemscore.ZeroCoef>
-5.4800

> <Gold.Chemscore.Hbond>
0.0078

> <Gold.Chemscore.Metal>
0.0000

> <Gold.Chemscore.Lipo>
119.1737

> <Gold.Chemscore.Internal_Hbond>
0.0000

> <Gold.Chemscore.DEClash>
0.0996

> <Gold.Chemscore.DEInternal>
0.7859

> <Gold.Chemscore.Rot>
1.1519

> <Gold.Chemscore.Internal.Correction>
   9.000000E+99

> <Gold.Chemscore.Hbonds>
donor molecule, donor type, donor heavy atom, donor atom, acceptor molecule, acceptor atom, score
      P1  H  7989  7998       L1    19  0.03

> <Gold.Chemscore.Hbond.Weighted>
-0.0260

> <Gold.Chemscore.Metal.Weighted>
-0.0000

> <Gold.Chemscore.Lipo.Weighted>
-13.9433

> <Gold.Chemscore.Internal_Hbond.Weighted>
0.0000

> <Gold.Chemscore.DEClash.Weighted>
0.0996

> <Gold.Chemscore.DEInternal.Weighted>
0.7859

> <Gold.Chemscore.Rot.Weighted>
2.9487

> <Gold.Chemscore.Internal.Correction.Weighted>
   9.000000E+99

> <Gold.Protein.RotatedTorsions>
[ 6907 6896 6895 6894 ] final  -76.57 input  -60.11 | X-H torsion
[ 7974 7965 7964 7962 ] final -150.95 input  175.53 | X-H torsion
[ 8008 7997 7996 7995 ] final  -20.24 input   59.86 | X-H torsion
[ 10167 10162 10161 10158 ] final   60.34 input  -65.29 | X-H torsion
[ 10718 10713 10712 10709 ] final  -28.59 input   66.30 | X-H torsion
[ 10763 10752 10751 10750 ] final  -72.29 input  -60.55 | X-H torsion
[ 11005 11000 10999 10996 ] final   42.45 input  -57.11 | X-H torsion

> <Gold.Protein.ActiveResidues>
 VAL166  LYS551  ARG553  GLY616  TRP617  ASP618  TYR619  PRO620  LYS621  CYS622 
 ASP623  PHE694  ASN695  SER759  ASP760  ASP761  ALA762  ILE779  LEU786  VAL792 
 PHE793  MET794  SER795  GLU796  ALA797  LYS798  CYS799  TRP800  GLU811  SER814 

> <Gold.Protein.RotatedAtoms>
  150.7023  134.4552  159.5354 H   0  0  0  0  0  0  0  0  0  0  0  0  # atno 6907 bound_to 6896
  152.2237  134.8386  160.0492 H   0  0  0  0  0  0  0  0  0  0  0  0  # atno 6908 bound_to 6896
  151.9227  133.3555  159.3939 H   0  0  0  0  0  0  0  0  0  0  0  0  # atno 6909 bound_to 6896
  144.7878  140.4863  143.5794 H   0  0  0  0  0  0  0  0  0  0  0  0  # atno 7974 bound_to 7965
  154.4783  140.2067  155.9825 H   0  0  0  0  0  0  0  0  0  0  0  0  # atno 8008 bound_to 7997
  156.1124  140.3227  155.8061 H   0  0  0  0  0  0  0  0  0  0  0  0  # atno 8009 bound_to 7997
  155.4611  140.0524  157.2981 H   0  0  0  0  0  0  0  0  0  0  0  0  # atno 8010 bound_to 7997
  140.1667  144.4317  150.6682 H   0  0  0  0  0  0  0  0  0  0  0  0  # atno 10167 bound_to 10162
  156.4232  130.4430  149.7169 H   0  0  0  0  0  0  0  0  0  0  0  0  # atno 10718 bound_to 10713
  154.4436  135.5934  153.6145 H   0  0  0  0  0  0  0  0  0  0  0  0  # atno 10763 bound_to 10752
  152.9807  135.6004  154.3691 H   0  0  0  0  0  0  0  0  0  0  0  0  # atno 10764 bound_to 10752
  154.3544  135.2841  155.2333 H   0  0  0  0  0  0  0  0  0  0  0  0  # atno 10765 bound_to 10752
  140.1738  134.4189  155.8241 H   0  0  0  0  0  0  0  0  0  0  0  0  # atno 11005 bound_to 11000
  145.5876  139.1493  143.3200 LP  0  0  0  0  0  0  0  0  0  0  0  0  # atno 17320 bound_to 7965
  146.2117  140.6003  142.9056 LP  0  0  0  0  0  0  0  0  0  0  0  0  # atno 17321 bound_to 7965
  140.6609  143.2252  151.5859 LP  0  0  0  0  0  0  0  0  0  0  0  0  # atno 17342 bound_to 10162
  139.5356  144.2789  152.1245 LP  0  0  0  0  0  0  0  0  0  0  0  0  # atno 17343 bound_to 10162
  156.4101  130.7718  151.2730 LP  0  0  0  0  0  0  0  0  0  0  0  0  # atno 17370 bound_to 10713
  157.7508  131.0214  150.3748 LP  0  0  0  0  0  0  0  0  0  0  0  0  # atno 17371 bound_to 10713
  141.2219  133.6968  156.7810 LP  0  0  0  0  0  0  0  0  0  0  0  0  # atno 17394 bound_to 11000
  140.2347  134.8659  157.3512 LP  0  0  0  0  0  0  0  0  0  0  0  0  # atno 17395 bound_to 11000

$$$$
