AV-unprocessed.smi:234|AV-procd|sdf|1798|dock4
  -GOLD-   2262020363D 1   1.00000     0.00000
 Structure written by MMmdl.
 59 62  0  0  0  0  0  0  0  0  1 V2000
  149.6632  132.6550  155.0971 C   0  0  0  0  0  0  0  0  0  0  0  0
  148.7871  132.9574  153.8745 C   0  0  0  0  0  0  0  0  0  0  0  0
  147.5091  133.4658  154.2330 O   0  0  0  0  0  0  0  0  0  0  0  0
  147.5303  134.5480  155.1553 C   0  0  1  0  0  0  0  0  0  0  0  0
  148.6666  135.5519  154.9571 C   0  0  0  0  0  0  0  0  0  0  0  0
  147.6319  136.6311  155.3041 C   0  0  1  0  0  0  0  0  0  0  0  0
  147.7848  137.8753  154.5414 N   0  0  0  0  0  0  0  0  0  0  0  0
  146.6321  138.7647  154.4441 C   0  0  0  0  0  0  0  0  0  0  0  0
  148.9455  138.5642  154.6756 C   0  0  0  0  0  0  0  0  0  0  0  0
  150.1114  138.0385  154.2131 N   0  0  0  0  0  0  0  0  0  0  0  0
  151.2566  138.7115  154.3585 C   0  0  0  0  0  0  0  0  0  0  0  0
  151.4584  139.9025  154.9256 N   0  0  0  0  0  0  0  0  0  0  0  0
  150.2920  140.4323  155.3939 C   0  0  0  0  0  0  0  0  0  0  0  0
  149.0042  139.8316  155.3174 C   0  0  0  0  0  0  0  0  0  0  0  0
  148.0568  140.6617  155.9037 N   0  0  0  0  0  0  0  0  0  0  0  0
  148.7454  141.6967  156.3014 C   0  0  0  0  0  0  0  0  0  0  0  0
  150.0940  141.6468  156.0273 N   0  0  0  0  0  0  0  0  0  0  0  0
  151.0862  142.6619  156.3481 C   0  0  0  0  0  0  0  0  0  0  0  0
  151.1223  143.0325  157.8543 C   0  0  2  0  0  0  0  0  0  0  0  0
  149.9309  143.7415  158.1538 O   0  0  0  0  0  0  0  0  0  0  0  0
  152.3030  143.9164  158.2432 C   0  0  0  0  0  0  0  0  0  0  0  0
  152.5023  143.5874  159.7146 C   0  0  0  0  0  0  0  0  0  0  0  0
  152.2871  142.1872  159.7500 O   0  0  0  0  0  0  0  0  0  0  0  0
  151.2273  141.8491  158.8573 C   0  0  2  0  0  0  0  0  0  0  0  0
  151.5563  140.4707  158.2630 C   0  0  0  0  0  0  0  0  0  0  0  0
  146.5290  135.6691  154.7777 C   0  0  0  0  0  0  0  0  0  0  0  0
  146.1660  135.7586  153.2840 C   0  0  0  0  0  0  0  0  0  0  0  0
  145.2149  135.6467  155.5595 C   0  0  0  0  0  0  0  0  0  0  0  0
  150.6760  132.3950  154.7890 H   0  0  0  0  0  0  0  0  0  0  0  0
  149.2769  131.8169  155.6751 H   0  0  0  0  0  0  0  0  0  0  0  0
  149.7278  133.5211  155.7560 H   0  0  0  0  0  0  0  0  0  0  0  0
  149.2805  133.7237  153.2763 H   0  0  0  0  0  0  0  0  0  0  0  0
  148.6927  132.0810  153.2321 H   0  0  0  0  0  0  0  0  0  0  0  0
  147.4172  134.2362  156.1965 H   0  0  0  0  0  0  0  0  0  0  0  0
  149.4832  135.4644  155.6738 H   0  0  0  0  0  0  0  0  0  0  0  0
  149.0308  135.5958  153.9292 H   0  0  0  0  0  0  0  0  0  0  0  0
  147.5588  136.7859  156.3825 H   0  0  0  0  0  0  0  0  0  0  0  0
  146.8005  139.7051  154.9716 H   0  0  0  0  0  0  0  0  0  0  0  0
  145.7415  138.3071  154.8725 H   0  0  0  0  0  0  0  0  0  0  0  0
  146.4222  138.9929  153.3989 H   0  0  0  0  0  0  0  0  0  0  0  0
  152.1371  138.2259  153.9644 H   0  0  0  0  0  0  0  0  0  0  0  0
  148.2843  142.5358  156.8021 H   0  0  0  0  0  0  0  0  0  0  0  0
  152.0617  142.2979  156.0228 H   0  0  0  0  0  0  0  0  0  0  0  0
  150.8661  143.5402  155.7413 H   0  0  0  0  0  0  0  0  0  0  0  0
  149.5907  144.1063  157.3512 H   0  0  0  0  0  0  0  0  0  0  0  0
  153.1952  143.6134  157.6942 H   0  0  0  0  0  0  0  0  0  0  0  0
  152.1416  144.9791  158.0563 H   0  0  0  0  0  0  0  0  0  0  0  0
  153.4959  143.8515  160.0765 H   0  0  0  0  0  0  0  0  0  0  0  0
  151.7604  144.0914  160.3358 H   0  0  0  0  0  0  0  0  0  0  0  0
  150.3100  141.7607  159.4425 H   0  0  0  0  0  0  0  0  0  0  0  0
  150.7783  140.1361  157.5765 H   0  0  0  0  0  0  0  0  0  0  0  0
  151.6379  139.7222  159.0513 H   0  0  0  0  0  0  0  0  0  0  0  0
  152.5052  140.4832  157.7261 H   0  0  0  0  0  0  0  0  0  0  0  0
  145.5753  136.6479  153.0642 H   0  0  0  0  0  0  0  0  0  0  0  0
  145.5788  134.8970  152.9653 H   0  0  0  0  0  0  0  0  0  0  0  0
  147.0498  135.7955  152.6467 H   0  0  0  0  0  0  0  0  0  0  0  0
  144.5845  136.5033  155.3212 H   0  0  0  0  0  0  0  0  0  0  0  0
  145.3890  135.6629  156.6357 H   0  0  0  0  0  0  0  0  0  0  0  0
  144.6399  134.7467  155.3398 H   0  0  0  0  0  0  0  0  0  0  0  0
  1  2  1  0  0  0  0
  1 29  1  0  0  0  0
  1 30  1  0  0  0  0
  1 31  1  0  0  0  0
  2  3  1  0  0  0  0
  2 32  1  0  0  0  0
  2 33  1  0  0  0  0
  3  4  1  0  0  0  0
  4 26  1  0  0  0  0
  4  5  1  0  0  0  0
  4 34  1  0  0  0  0
  5  6  1  0  0  0  0
  5 35  1  0  0  0  0
  5 36  1  0  0  0  0
  6  7  1  0  0  0  0
  6 26  1  0  0  0  0
  6 37  1  0  0  0  0
  7  8  1  0  0  0  0
  7  9  1  0  0  0  0
  8 38  1  0  0  0  0
  8 39  1  0  0  0  0
  8 40  1  0  0  0  0
  9 14  1  0  0  0  0
  9 10  2  0  0  0  0
 10 11  1  0  0  0  0
 11 12  2  0  0  0  0
 11 41  1  0  0  0  0
 12 13  1  0  0  0  0
 13 17  1  0  0  0  0
 13 14  2  0  0  0  0
 14 15  1  0  0  0  0
 15 16  2  0  0  0  0
 16 17  1  0  0  0  0
 16 42  1  0  0  0  0
 17 18  1  0  0  0  0
 18 19  1  0  0  0  0
 18 43  1  0  0  0  0
 18 44  1  0  0  0  0
 19 24  1  0  0  0  0
 19 20  1  0  0  0  0
 19 21  1  0  0  0  0
 20 45  1  0  0  0  0
 21 22  1  0  0  0  0
 21 46  1  0  0  0  0
 21 47  1  0  0  0  0
 22 23  1  0  0  0  0
 22 48  1  0  0  0  0
 22 49  1  0  0  0  0
 23 24  1  0  0  0  0
 24 25  1  0  0  0  0
 24 50  1  0  0  0  0
 25 51  1  0  0  0  0
 25 52  1  0  0  0  0
 25 53  1  0  0  0  0
 26 27  1  0  0  0  0
 26 28  1  0  0  0  0
 27 54  1  0  0  0  0
 27 55  1  0  0  0  0
 27 56  1  0  0  0  0
 28 57  1  0  0  0  0
 28 58  1  0  0  0  0
 28 59  1  0  0  0  0
M  END
> <s_m_source_file>
AV-unprocessed.smi

> <i_m_source_file_index>
234

> <i_lp_mmshare_version>
43012

> <i_f3d_flags>
0

> <s_epik_input>
W0NIM11bQ0gyXU9bQ0BASF0oQzEoW0NIM10pW0NIM10pW0NIMl1bQ0BIXTFOKFtDSDNdKWMobltjSF1uMiljKGMyMyluW2NIXW4zW0NIMl1bQ0BAXTQoW09IXSlbQ0gyXVtDSDJdT1tDQEhdNFtDSDNd

> <s_epik_cmdline>
J2VwaWtfcHl0aG9uJywgJy1waCcsICc3LjAnLCAnLXRuJywgJzgnLCAnLW1hJywgJzIwMCcsICctbWV0YWxfYmluZGluZycsICctaW1hZScsICc8aW5maWxlLm1hZT4nLCAnLW9tYWUnLCAnPG91dGZpbGUubWFlPic=

> <r_lp_tautomer_probability>
1

> <r_epik_Ionization_Penalty>
0.00349132

> <r_epik_Ionization_Penalty_Charging>
0

> <r_epik_Ionization_Penalty_Neutral>
0.00349132

> <r_epik_State_Penalty>
0.00242418

> <r_epik_Charging_Adjusted_Penalty>
0.00242418

> <i_epik_Tot_Q>
0

> <i_epik_Tot_abs_Q>
0

> <r_epik_Metal_State_Penalty>
-0

> <b_epik_Metal_Only>
0

> <s_lp_Force_Field>
OPLS_2005

> <r_lp_Energy>
48.9285

> <b_lp_Chiralities_Consistent>
1

> <s_lp_Variant>
AV-unprocessed.smi:234-14

> <Gold.Version>
5.8.1

> <Gold.Id.Protein>
6NUR|6NUR_protein|mol2

> <Gold.PLP.Fitness>
43.3554

> <Gold.PLP.PLP>
-36.9245

> <Gold.PLP.part.hbond>
-2.8210

> <Gold.PLP.part.metal>
0.0000

> <Gold.PLP.part.buried>
-3.0461

> <Gold.PLP.part.nonpolar>
-30.8530

> <Gold.PLP.part.repulsive>
0.5094

> <Gold.PLP.ligand.clash>
0.2285

> <Gold.PLP.ligand.torsion>
1.1454

> <Gold.PLP.Chemscore.Hbond>
2.0000

> <Gold.PLP.Chemscore.CHOScore>
0.6360

> <Gold.PLP.Chemscore.Metal>
0.0000

> <Gold.Chemscore.Hbonds>
donor molecule, donor type, donor heavy atom, donor atom, acceptor molecule, acceptor atom, score
      L1  H    20    45       P1  8028  1.00
      P1  H  7989  7998       L1    12  0.90
      L1  C    16    42       P1  8028  0.64

> <Gold.PLP.Chemscore.Internal.Correction>
1.0420

> <Gold.Rescore>
     Score         DG    S(hbond)    S(metal)    S(lipo)     H(rot)  DE(clash)    DE(int)     intcor
      4.11     -10.22       0.47        0.00      84.35       2.62       0.32       5.79       ----

> <Gold.Chemscore.Fitness>
4.1091

> <Gold.Chemscore.DG>
-10.2161

> <Gold.Chemscore.ZeroCoef>
-5.4800

> <Gold.Chemscore.Hbond>
0.4727

> <Gold.Chemscore.Metal>
0.0000

> <Gold.Chemscore.Lipo>
84.3541

> <Gold.Chemscore.Internal_Hbond>
0.0000

> <Gold.Chemscore.DEClash>
0.3205

> <Gold.Chemscore.DEInternal>
5.7865

> <Gold.Chemscore.Rot>
2.6219

> <Gold.Chemscore.Internal.Correction>
   9.000000E+99

> <Gold.Chemscore.Hbonds>
donor molecule, donor type, donor heavy atom, donor atom, acceptor molecule, acceptor atom, score
      L1  H    20    45       P1  8028  0.35
      P1  H  7989  7998       L1    12  0.05

> <Gold.Chemscore.Hbond.Weighted>
-1.5788

> <Gold.Chemscore.Metal.Weighted>
-0.0000

> <Gold.Chemscore.Lipo.Weighted>
-9.8694

> <Gold.Chemscore.Internal_Hbond.Weighted>
0.0000

> <Gold.Chemscore.DEClash.Weighted>
0.3205

> <Gold.Chemscore.DEInternal.Weighted>
5.7865

> <Gold.Chemscore.Rot.Weighted>
6.7121

> <Gold.Chemscore.Internal.Correction.Weighted>
   9.000000E+99

> <Gold.Protein.RotatedTorsions>
[ 6907 6896 6895 6894 ] final  -54.83 input  -60.11 | X-H torsion
[ 7974 7965 7964 7962 ] final  167.52 input  175.53 | X-H torsion
[ 8008 7997 7996 7995 ] final   23.13 input   59.86 | X-H torsion
[ 10167 10162 10161 10158 ] final  106.43 input  -65.29 | X-H torsion
[ 10718 10713 10712 10709 ] final   27.87 input   66.30 | X-H torsion
[ 10763 10752 10751 10750 ] final   49.04 input  -60.55 | X-H torsion
[ 11005 11000 10999 10996 ] final  156.69 input  -57.11 | X-H torsion

> <Gold.Protein.ActiveResidues>
 VAL166  LYS551  ARG553  GLY616  TRP617  ASP618  TYR619  PRO620  LYS621  CYS622 
 ASP623  PHE694  ASN695  SER759  ASP760  ASP761  ALA762  ILE779  LEU786  VAL792 
 PHE793  MET794  SER795  GLU796  ALA797  LYS798  CYS799  TRP800  GLU811  SER814 

> <Gold.Protein.RotatedAtoms>
  150.8304  134.7554  159.6848 H   0  0  0  0  0  0  0  0  0  0  0  0  # atno 6907 bound_to 6896
  152.4409  134.5589  159.9898 H   0  0  0  0  0  0  0  0  0  0  0  0  # atno 6908 bound_to 6896
  151.5751  133.3347  159.3033 H   0  0  0  0  0  0  0  0  0  0  0  0  # atno 6909 bound_to 6896
  144.7421  139.8773  143.6393 H   0  0  0  0  0  0  0  0  0  0  0  0  # atno 7974 bound_to 7965
  154.9762  140.3096  155.4966 H   0  0  0  0  0  0  0  0  0  0  0  0  # atno 8008 bound_to 7997
  156.2959  140.2275  156.4798 H   0  0  0  0  0  0  0  0  0  0  0  0  # atno 8009 bound_to 7997
  154.7831  140.0444  157.1131 H   0  0  0  0  0  0  0  0  0  0  0  0  # atno 8010 bound_to 7997
  139.7010  144.7094  151.1186 H   0  0  0  0  0  0  0  0  0  0  0  0  # atno 10167 bound_to 10162
  157.2260  130.7001  149.6291 H   0  0  0  0  0  0  0  0  0  0  0  0  # atno 10718 bound_to 10713
  152.9788  135.5925  154.4024 H   0  0  0  0  0  0  0  0  0  0  0  0  # atno 10763 bound_to 10752
  154.3668  135.2767  155.2291 H   0  0  0  0  0  0  0  0  0  0  0  0  # atno 10764 bound_to 10752
  154.4264  135.6047  153.6096 H   0  0  0  0  0  0  0  0  0  0  0  0  # atno 10765 bound_to 10752
  140.1698  134.8551  157.2677 H   0  0  0  0  0  0  0  0  0  0  0  0  # atno 11005 bound_to 11000
  146.1237  139.4259  143.0212 LP  0  0  0  0  0  0  0  0  0  0  0  0  # atno 17320 bound_to 7965
  145.7267  141.0056  143.1374 LP  0  0  0  0  0  0  0  0  0  0  0  0  # atno 17321 bound_to 7965
  140.7709  143.5425  150.9297 LP  0  0  0  0  0  0  0  0  0  0  0  0  # atno 17342 bound_to 10162
  139.9106  143.6725  152.3116 LP  0  0  0  0  0  0  0  0  0  0  0  0  # atno 17343 bound_to 10162
  155.9679  130.4504  150.5697 LP  0  0  0  0  0  0  0  0  0  0  0  0  # atno 17370 bound_to 10713
  157.3527  131.0736  151.1700 LP  0  0  0  0  0  0  0  0  0  0  0  0  # atno 17371 bound_to 10713
  140.2390  134.3818  155.7488 LP  0  0  0  0  0  0  0  0  0  0  0  0  # atno 17394 bound_to 11000
  141.2216  133.7255  156.8760 LP  0  0  0  0  0  0  0  0  0  0  0  0  # atno 17395 bound_to 11000

$$$$
