AV-unprocessed.smi:1166|AV-procd|sdf|4935|dock3
  -GOLD-   22720 3523D 1   1.00000     0.00000
 Structure written by MMmdl.
 47 48  0  0  0  0  0  0  0  0  2 V2000
  145.5467  131.5839  152.7881 C   0  0  0  0  0  0  0  0  0  0  0  0
  145.0881  132.3748  151.6535 N   0  0  0  0  0  0  0  0  0  0  0  0
  145.0526  131.7923  150.3165 C   0  0  0  0  0  0  0  0  0  0  0  0
  144.6014  133.6834  151.8613 C   0  0  0  0  0  0  0  0  0  0  0  0
  145.0334  134.8009  151.1063 C   0  0  0  0  0  0  0  0  0  0  0  0
  144.5037  136.0807  151.3719 C   0  0  0  0  0  0  0  0  0  0  0  0
  143.5391  136.2403  152.3982 C   0  0  0  0  0  0  0  0  0  0  0  0
  142.9337  137.4749  152.7650 N   0  0  0  0  0  0  0  0  0  0  0  0
  141.7109  137.7153  153.2702 C   0  0  0  0  0  0  0  0  0  0  0  0
  140.8680  136.8625  153.5449 O   0  0  0  0  0  0  0  0  0  0  0  0
  141.5136  139.0296  153.4451 N   0  0  0  0  0  0  0  0  0  0  0  0
  140.2924  139.6383  153.9645 C   0  0  1  0  0  0  0  0  0  0  0  0
  140.4246  141.1691  154.0087 C   0  0  0  0  0  0  0  0  0  0  0  0
  139.1124  141.7874  154.5045 C   0  0  0  0  0  0  0  0  0  0  0  0
  137.9208  141.3431  153.6378 C   0  0  0  0  0  0  0  0  0  0  0  0
  137.8449  139.8720  153.5270 N   0  0  0  0  0  0  0  0  0  0  0  0
  136.6931  138.9854  154.4845 S   0  0  0  0  0  0  0  0  0  0  0  0
  137.2591  137.2385  154.3703 C   0  0  0  0  0  0  0  0  0  0  0  0
  136.8387  139.4239  155.8811 O   0  0  0  0  0  0  0  0  0  0  0  0
  135.3841  139.0875  153.8213 O   0  0  0  0  0  0  0  0  0  0  0  0
  139.0955  139.2215  153.0878 C   0  0  0  0  0  0  0  0  0  0  0  0
  143.1419  135.0944  153.1167 C   0  0  0  0  0  0  0  0  0  0  0  0
  143.6749  133.8878  152.8288 N   0  3  0  0  0  0  0  0  0  0  0  0
  146.4031  132.0608  153.2657 H   0  0  0  0  0  0  0  0  0  0  0  0
  145.8524  130.5846  152.4774 H   0  0  0  0  0  0  0  0  0  0  0  0
  144.7514  131.4738  153.5259 H   0  0  0  0  0  0  0  0  0  0  0  0
  144.0275  131.7437  149.9474 H   0  0  0  0  0  0  0  0  0  0  0  0
  145.4574  130.7800  150.3134 H   0  0  0  0  0  0  0  0  0  0  0  0
  145.6446  132.3893  149.6220 H   0  0  0  0  0  0  0  0  0  0  0  0
  145.7678  134.6998  150.3215 H   0  0  0  0  0  0  0  0  0  0  0  0
  144.8569  136.9053  150.7749 H   0  0  0  0  0  0  0  0  0  0  0  0
  143.5035  138.2924  152.6024 H   0  0  0  0  0  0  0  0  0  0  0  0
  142.2612  139.6604  153.1953 H   0  0  0  0  0  0  0  0  0  0  0  0
  140.1215  139.2733  154.9772 H   0  0  0  0  0  0  0  0  0  0  0  0
  141.2444  141.4641  154.6648 H   0  0  0  0  0  0  0  0  0  0  0  0
  140.6616  141.5548  153.0161 H   0  0  0  0  0  0  0  0  0  0  0  0
  138.9462  141.5058  155.5435 H   0  0  0  0  0  0  0  0  0  0  0  0
  139.1891  142.8748  154.4938 H   0  0  0  0  0  0  0  0  0  0  0  0
  136.9900  141.7431  154.0387 H   0  0  0  0  0  0  0  0  0  0  0  0
  138.0261  141.7577  152.6348 H   0  0  0  0  0  0  0  0  0  0  0  0
  136.5914  136.6099  154.9590 H   0  0  0  0  0  0  0  0  0  0  0  0
  138.2690  137.1477  154.7664 H   0  0  0  0  0  0  0  0  0  0  0  0
  137.2322  136.9051  153.3345 H   0  0  0  0  0  0  0  0  0  0  0  0
  139.2799  139.5038  152.0502 H   0  0  0  0  0  0  0  0  0  0  0  0
  138.9780  138.1379  153.0938 H   0  0  0  0  0  0  0  0  0  0  0  0
  142.4142  135.1042  153.9155 H   0  0  0  0  0  0  0  0  0  0  0  0
  143.3620  133.0834  153.3727 H   0  0  0  0  0  0  0  0  0  0  0  0
  1  2  1  0  0  0  0
  1 24  1  0  0  0  0
  1 25  1  0  0  0  0
  1 26  1  0  0  0  0
  2  3  1  0  0  0  0
  2  4  1  0  0  0  0
  3 27  1  0  0  0  0
  3 28  1  0  0  0  0
  3 29  1  0  0  0  0
  4 23  1  0  0  0  0
  4  5  2  0  0  0  0
  5  6  1  0  0  0  0
  5 30  1  0  0  0  0
  6  7  2  0  0  0  0
  6 31  1  0  0  0  0
  7  8  1  0  0  0  0
  7 22  1  0  0  0  0
  8  9  1  0  0  0  0
  8 32  1  0  0  0  0
  9 10  2  0  0  0  0
  9 11  1  0  0  0  0
 11 12  1  0  0  0  0
 11 33  1  0  0  0  0
 12 21  1  0  0  0  0
 12 13  1  0  0  0  0
 12 34  1  0  0  0  0
 13 14  1  0  0  0  0
 13 35  1  0  0  0  0
 13 36  1  0  0  0  0
 14 15  1  0  0  0  0
 14 37  1  0  0  0  0
 14 38  1  0  0  0  0
 15 16  1  0  0  0  0
 15 39  1  0  0  0  0
 15 40  1  0  0  0  0
 16 17  1  0  0  0  0
 16 21  1  0  0  0  0
 17 18  1  0  0  0  0
 17 19  2  0  0  0  0
 17 20  2  0  0  0  0
 18 41  1  0  0  0  0
 18 42  1  0  0  0  0
 18 43  1  0  0  0  0
 21 44  1  0  0  0  0
 21 45  1  0  0  0  0
 22 23  2  0  0  0  0
 22 46  1  0  0  0  0
 23 47  1  0  0  0  0
M  CHG  1  23   1
M  END
> <s_m_source_file>
AV-unprocessed.smi

> <i_m_source_file_index>
1166

> <i_lp_mmshare_version>
43012

> <i_f3d_flags>
0

> <s_epik_input>
W0NIM11OKFtDSDNdKWMxW2NIXVtjSF1jKFtjSF1uMSlbTkhdQyg9TylbTkhdW0NAQEhdMltDSDJdW0NIMl1bQ0gyXU4oW0NIMl0yKVMoPU8pKD1PKVtDSDNd

> <s_epik_cmdline>
J2VwaWtfcHl0aG9uJywgJy1waCcsICc3LjAnLCAnLXRuJywgJzgnLCAnLW1hJywgJzIwMCcsICctbWV0YWxfYmluZGluZycsICctaW1hZScsICc8aW5maWxlLm1hZT4nLCAnLW9tYWUnLCAnPG91dGZpbGUubWFlPic=

> <r_lp_tautomer_probability>
0.999994

> <r_epik_Ionization_Penalty>
0.276583

> <r_epik_Ionization_Penalty_Charging>
0.276565

> <r_epik_Ionization_Penalty_Neutral>
1.87575e-05

> <r_epik_State_Penalty>
0.268949

> <r_epik_Charging_Adjusted_Penalty>
0.545513

> <i_epik_Tot_Q>
1

> <i_epik_Tot_abs_Q>
1

> <r_epik_Metal_State_Penalty>
0.551815

> <b_epik_Metal_Only>
0

> <s_lp_Force_Field>
OPLS_2005

> <r_lp_Energy>
8.45094

> <b_lp_Chiralities_Consistent>
1

> <s_lp_Variant>
AV-unprocessed.smi:1166-2

> <Gold.Version>
5.8.1

> <Gold.Id.Protein>
6NUR|6NUR_protein|mol2

> <Gold.PLP.Fitness>
45.3888

> <Gold.PLP.PLP>
-36.9582

> <Gold.PLP.part.hbond>
-3.3477

> <Gold.PLP.part.metal>
0.0000

> <Gold.PLP.part.buried>
-3.6009

> <Gold.PLP.part.nonpolar>
-30.6309

> <Gold.PLP.part.repulsive>
0.1574

> <Gold.PLP.ligand.clash>
0.0000

> <Gold.PLP.ligand.torsion>
2.3212

> <Gold.PLP.Chemscore.Hbond>
3.6689

> <Gold.PLP.Chemscore.CHOScore>
0.0000

> <Gold.PLP.Chemscore.Metal>
0.0000

> <Gold.Chemscore.Hbonds>
donor molecule, donor type, donor heavy atom, donor atom, acceptor molecule, acceptor atom, score
      L1  H     8    32       P1 10175  0.67
      L1  H    11    33       P1 10175  1.00
      L1  H    23    47       P1 10957  1.92

> <Gold.PLP.Chemscore.Internal.Correction>
2.0663

> <Gold.Rescore>
     Score         DG    S(hbond)    S(metal)    S(lipo)     H(rot)  DE(clash)    DE(int)     intcor
     14.57     -19.11       2.71        0.00      61.02       1.00       0.01       4.53       ----

> <Gold.Chemscore.Fitness>
14.5705

> <Gold.Chemscore.DG>
-19.1111

> <Gold.Chemscore.ZeroCoef>
-5.4800

> <Gold.Chemscore.Hbond>
2.7101

> <Gold.Chemscore.Metal>
0.0000

> <Gold.Chemscore.Lipo>
61.0192

> <Gold.Chemscore.Internal_Hbond>
0.0000

> <Gold.Chemscore.DEClash>
0.0135

> <Gold.Chemscore.DEInternal>
4.5271

> <Gold.Chemscore.Rot>
1.0000

> <Gold.Chemscore.Internal.Correction>
   9.000000E+99

> <Gold.Chemscore.Hbonds>
donor molecule, donor type, donor heavy atom, donor atom, acceptor molecule, acceptor atom, score
      L1  H     8    32       P1 10175  0.65
      L1  H    11    33       P1 10175  0.93
      L1  H    23    47       P1 10957  0.78

> <Gold.Chemscore.Hbond.Weighted>
-9.0519

> <Gold.Chemscore.Metal.Weighted>
-0.0000

> <Gold.Chemscore.Lipo.Weighted>
-7.1392

> <Gold.Chemscore.Internal_Hbond.Weighted>
0.0000

> <Gold.Chemscore.DEClash.Weighted>
0.0135

> <Gold.Chemscore.DEInternal.Weighted>
4.5271

> <Gold.Chemscore.Rot.Weighted>
2.5600

> <Gold.Chemscore.Internal.Correction.Weighted>
   9.000000E+99

> <Gold.Protein.RotatedTorsions>
[ 6907 6896 6895 6894 ] final -128.09 input  -60.11 | X-H torsion
[ 7974 7965 7964 7962 ] final  156.39 input  175.53 | X-H torsion
[ 8008 7997 7996 7995 ] final    0.94 input   59.86 | X-H torsion
[ 10167 10162 10161 10158 ] final -177.43 input  -65.29 | X-H torsion
[ 10718 10713 10712 10709 ] final -132.16 input   66.30 | X-H torsion
[ 10763 10752 10751 10750 ] final -126.91 input  -60.55 | X-H torsion
[ 11005 11000 10999 10996 ] final   -3.68 input  -57.11 | X-H torsion

> <Gold.Protein.ActiveResidues>
 VAL166  LYS551  ARG553  GLY616  TRP617  ASP618  TYR619  PRO620  LYS621  CYS622 
 ASP623  PHE694  ASN695  SER759  ASP760  ASP761  ALA762  ILE779  LEU786  VAL792 
 PHE793  MET794  SER795  GLU796  ALA797  LYS798  CYS799  TRP800  GLU811  SER814 

> <Gold.Protein.RotatedAtoms>
  150.9142  133.6960  159.2847 H   0  0  0  0  0  0  0  0  0  0  0  0  # atno 6907 bound_to 6896
  151.4437  135.1021  159.9687 H   0  0  0  0  0  0  0  0  0  0  0  0  # atno 6908 bound_to 6896
  152.4946  133.8544  159.7273 H   0  0  0  0  0  0  0  0  0  0  0  0  # atno 6909 bound_to 6896
  144.7966  139.7198  143.6199 H   0  0  0  0  0  0  0  0  0  0  0  0  # atno 7974 bound_to 7965
  154.6740  140.2618  155.6978 H   0  0  0  0  0  0  0  0  0  0  0  0  # atno 8008 bound_to 7997
  156.2670  140.2823  156.1181 H   0  0  0  0  0  0  0  0  0  0  0  0  # atno 8009 bound_to 7997
  155.1128  140.0376  157.2719 H   0  0  0  0  0  0  0  0  0  0  0  0  # atno 8010 bound_to 7997
  139.5481  144.2182  152.1025 H   0  0  0  0  0  0  0  0  0  0  0  0  # atno 10167 bound_to 10162
  156.2317  130.7042  151.0865 H   0  0  0  0  0  0  0  0  0  0  0  0  # atno 10718 bound_to 10713
  154.8749  135.3979  154.3507 H   0  0  0  0  0  0  0  0  0  0  0  0  # atno 10763 bound_to 10752
  153.4293  135.7025  153.6246 H   0  0  0  0  0  0  0  0  0  0  0  0  # atno 10764 bound_to 10752
  153.4875  135.3755  155.2444 H   0  0  0  0  0  0  0  0  0  0  0  0  # atno 10765 bound_to 10752
  140.6720  133.9228  155.8500 H   0  0  0  0  0  0  0  0  0  0  0  0  # atno 11005 bound_to 11000
  146.2236  139.5680  142.9602 LP  0  0  0  0  0  0  0  0  0  0  0  0  # atno 17320 bound_to 7965
  145.5658  141.0399  143.2201 LP  0  0  0  0  0  0  0  0  0  0  0  0  # atno 17321 bound_to 7965
  140.1673  144.4969  150.6599 LP  0  0  0  0  0  0  0  0  0  0  0  0  # atno 17342 bound_to 10162
  140.6735  143.2295  151.5566 LP  0  0  0  0  0  0  0  0  0  0  0  0  # atno 17343 bound_to 10162
  157.7136  131.0721  150.6410 LP  0  0  0  0  0  0  0  0  0  0  0  0  # atno 17370 bound_to 10713
  156.6478  130.4476  149.5730 LP  0  0  0  0  0  0  0  0  0  0  0  0  # atno 17371 bound_to 10713
  141.0385  134.0656  157.3931 LP  0  0  0  0  0  0  0  0  0  0  0  0  # atno 17394 bound_to 11000
  139.8978  135.0152  156.7120 LP  0  0  0  0  0  0  0  0  0  0  0  0  # atno 17395 bound_to 11000

$$$$
