AV-unprocessed.smi:1047|AV-procd|sdf|4602|dock3
  -GOLD-   22720 3 93D 1   1.00000     0.00000
 Structure written by MMmdl.
 57 59  0  0  0  0  0  0  0  0  3 V2000
  144.4395  135.0157  150.6005 C   0  0  0  0  0  0  0  0  0  0  0  0
  145.5616  135.8576  151.2237 C   0  0  0  0  0  0  0  0  0  0  0  0
  145.0701  137.1641  151.7363 N   0  3  1  0  0  0  0  0  0  0  0  0
  143.9077  137.0722  152.6562 C   0  0  0  0  0  0  0  0  0  0  0  0
  144.3411  136.6473  154.0721 C   0  0  0  0  0  0  0  0  0  0  0  0
  145.3435  137.5344  154.5526 O   0  0  0  0  0  0  0  0  0  0  0  0
  146.5173  137.5198  153.7458 C   0  0  2  0  0  0  0  0  0  0  0  0
  147.5560  138.4403  154.4026 C   0  0  0  0  0  0  0  0  0  0  0  0
  148.6716  138.7003  153.4988 N   0  0  0  0  0  0  0  0  0  0  0  0
  149.7654  139.4376  154.1236 C   0  0  0  0  0  0  0  0  0  0  0  0
  150.2634  138.7307  155.3958 C   0  0  1  0  0  0  0  0  0  0  0  0
  150.6430  137.4107  155.0596 O   0  0  0  0  0  0  0  0  0  0  0  0
  151.4683  139.4640  156.0160 C   0  0  0  0  0  0  0  0  0  0  0  0
  151.1276  140.8065  156.5092 N   0  0  0  0  0  0  0  0  0  0  0  0
  150.3720  141.7759  155.9254 C   0  0  0  0  0  0  0  0  0  0  0  0
  150.3535  142.8459  156.7669 N   0  3  0  0  0  0  0  0  0  0  0  0
  151.1065  142.5555  157.9062 C   0  0  0  0  0  0  0  0  0  0  0  0
  151.3820  143.3212  159.0327 C   0  0  0  0  0  0  0  0  0  0  0  0
  152.1874  142.7312  160.0326 C   0  0  0  0  0  0  0  0  0  0  0  0
  152.5091  143.5424  161.2763 C   0  0  0  0  0  0  0  0  0  0  0  0
  152.6859  141.4111  159.8833 C   0  0  0  0  0  0  0  0  0  0  0  0
  153.5447  140.7836  160.9681 C   0  0  0  0  0  0  0  0  0  0  0  0
  152.3964  140.6494  158.7284 C   0  0  0  0  0  0  0  0  0  0  0  0
  151.6040  141.2467  157.7504 C   0  0  0  0  0  0  0  0  0  0  0  0
  146.1362  138.0073  152.3319 C   0  0  0  0  0  0  0  0  0  0  0  0
  144.8459  134.1087  150.1520 H   0  0  0  0  0  0  0  0  0  0  0  0
  143.9228  135.5682  149.8152 H   0  0  0  0  0  0  0  0  0  0  0  0
  143.6997  134.7068  151.3382 H   0  0  0  0  0  0  0  0  0  0  0  0
  146.0678  135.2957  152.0086 H   0  0  0  0  0  0  0  0  0  0  0  0
  146.3067  136.0373  150.4477 H   0  0  0  0  0  0  0  0  0  0  0  0
  143.4402  138.0562  152.7083 H   0  0  0  0  0  0  0  0  0  0  0  0
  143.1468  136.3965  152.2680 H   0  0  0  0  0  0  0  0  0  0  0  0
  143.4878  136.6856  154.7493 H   0  0  0  0  0  0  0  0  0  0  0  0
  144.7071  135.6202  154.0882 H   0  0  0  0  0  0  0  0  0  0  0  0
  146.9210  136.5069  153.6912 H   0  0  0  0  0  0  0  0  0  0  0  0
  147.0842  139.3862  154.6713 H   0  0  0  0  0  0  0  0  0  0  0  0
  147.9116  137.9934  155.3320 H   0  0  0  0  0  0  0  0  0  0  0  0
  149.0201  137.8237  153.1236 H   0  0  0  0  0  0  0  0  0  0  0  0
  150.5854  139.5895  153.4201 H   0  0  0  0  0  0  0  0  0  0  0  0
  149.4057  140.4314  154.3933 H   0  0  0  0  0  0  0  0  0  0  0  0
  149.4633  138.6861  156.1364 H   0  0  0  0  0  0  0  0  0  0  0  0
  151.5099  137.2511  155.3998 H   0  0  0  0  0  0  0  0  0  0  0  0
  151.9186  138.8823  156.8204 H   0  0  0  0  0  0  0  0  0  0  0  0
  152.2470  139.5934  155.2633 H   0  0  0  0  0  0  0  0  0  0  0  0
  149.8779  141.7088  154.9668 H   0  0  0  0  0  0  0  0  0  0  0  0
  150.9969  144.3247  159.1404 H   0  0  0  0  0  0  0  0  0  0  0  0
  153.5872  143.6606  161.3891 H   0  0  0  0  0  0  0  0  0  0  0  0
  152.1192  143.0488  162.1670 H   0  0  0  0  0  0  0  0  0  0  0  0
  152.0685  144.5388  161.2275 H   0  0  0  0  0  0  0  0  0  0  0  0
  153.8398  139.7671  160.7056 H   0  0  0  0  0  0  0  0  0  0  0  0
  152.9978  140.7384  161.9101 H   0  0  0  0  0  0  0  0  0  0  0  0
  154.4538  141.3654  161.1220 H   0  0  0  0  0  0  0  0  0  0  0  0
  152.7746  139.6442  158.6189 H   0  0  0  0  0  0  0  0  0  0  0  0
  147.0097  138.0331  151.6792 H   0  0  0  0  0  0  0  0  0  0  0  0
  145.7683  139.0330  152.3879 H   0  0  0  0  0  0  0  0  0  0  0  0
  144.7511  137.6628  150.9178 H   0  0  0  0  0  0  0  0  0  0  0  0
  149.8614  143.7093  156.5755 H   0  0  0  0  0  0  0  0  0  0  0  0
  1  2  1  0  0  0  0
  1 26  1  0  0  0  0
  1 27  1  0  0  0  0
  1 28  1  0  0  0  0
  2  3  1  0  0  0  0
  2 29  1  0  0  0  0
  2 30  1  0  0  0  0
  3 25  1  0  0  0  0
  3  4  1  0  0  0  0
  3 56  1  0  0  0  0
  4  5  1  0  0  0  0
  4 31  1  0  0  0  0
  4 32  1  0  0  0  0
  5  6  1  0  0  0  0
  5 33  1  0  0  0  0
  5 34  1  0  0  0  0
  6  7  1  0  0  0  0
  7  8  1  0  0  0  0
  7 25  1  0  0  0  0
  7 35  1  0  0  0  0
  8  9  1  0  0  0  0
  8 36  1  0  0  0  0
  8 37  1  0  0  0  0
  9 10  1  0  0  0  0
  9 38  1  0  0  0  0
 10 11  1  0  0  0  0
 10 39  1  0  0  0  0
 10 40  1  0  0  0  0
 11 12  1  0  0  0  0
 11 13  1  0  0  0  0
 11 41  1  0  0  0  0
 12 42  1  0  0  0  0
 13 14  1  0  0  0  0
 13 43  1  0  0  0  0
 13 44  1  0  0  0  0
 14 24  1  0  0  0  0
 14 15  1  0  0  0  0
 15 16  2  0  0  0  0
 15 45  1  0  0  0  0
 16 17  1  0  0  0  0
 16 57  1  0  0  0  0
 17 24  2  0  0  0  0
 17 18  1  0  0  0  0
 18 19  2  0  0  0  0
 18 46  1  0  0  0  0
 19 20  1  0  0  0  0
 19 21  1  0  0  0  0
 20 47  1  0  0  0  0
 20 48  1  0  0  0  0
 20 49  1  0  0  0  0
 21 22  1  0  0  0  0
 21 23  2  0  0  0  0
 22 50  1  0  0  0  0
 22 51  1  0  0  0  0
 22 52  1  0  0  0  0
 23 24  1  0  0  0  0
 23 53  1  0  0  0  0
 25 54  1  0  0  0  0
 25 55  1  0  0  0  0
M  CHG  1   3   1
M  CHG  1  16   1
M  END
> <s_m_source_file>
AV-unprocessed.smi

> <i_m_source_file_index>
1047

> <i_lp_mmshare_version>
43012

> <i_f3d_flags>
0

> <s_epik_input>
W0NIM11bQ0gyXU4xW0NIMl1bQ0gyXU9bQ0BIXShbQ0gyXTEpW0NIMl1bTkhdW0NIMl1bQ0BIXShbT0hdKVtDSDJdbihbY0hdbjIpYyhjMjMpW2NIXWMoW0NIM10pYyhbY0hdMylbQ0gzXQ==

> <s_epik_cmdline>
J2VwaWtfcHl0aG9uJywgJy1waCcsICc3LjAnLCAnLXRuJywgJzgnLCAnLW1hJywgJzIwMCcsICctbWV0YWxfYmluZGluZycsICctaW1hZScsICc8aW5maWxlLm1hZT4nLCAnLW9tYWUnLCAnPG91dGZpbGUubWFlPic=

> <r_epik_Ionization_Penalty>
2.03028

> <r_epik_Ionization_Penalty_Charging>
1.21256

> <r_epik_Ionization_Penalty_Neutral>
0.817715

> <r_epik_State_Penalty>
2.54959

> <r_epik_Charging_Adjusted_Penalty>
3.76215

> <i_epik_Tot_Q>
2

> <i_epik_Tot_abs_Q>
2

> <r_epik_Metal_State_Penalty>
6.52811

> <b_epik_Metal_Only>
0

> <s_lp_Force_Field>
OPLS_2005

> <r_lp_Energy>
36.7228

> <b_lp_Chiralities_Consistent>
1

> <s_lp_Variant>
AV-unprocessed.smi:1047-43

> <Gold.Version>
5.8.1

> <Gold.Id.Protein>
6NUR|6NUR_protein|mol2

> <Gold.PLP.Fitness>
61.3121

> <Gold.PLP.PLP>
-49.8211

> <Gold.PLP.part.hbond>
-4.0000

> <Gold.PLP.part.metal>
0.0000

> <Gold.PLP.part.buried>
-4.6052

> <Gold.PLP.part.nonpolar>
-41.6056

> <Gold.PLP.part.repulsive>
0.1571

> <Gold.PLP.ligand.clash>
0.0000

> <Gold.PLP.ligand.torsion>
0.3336

> <Gold.PLP.Chemscore.Hbond>
4.0000

> <Gold.PLP.Chemscore.CHOScore>
0.0000

> <Gold.PLP.Chemscore.Metal>
0.0000

> <Gold.Chemscore.Hbonds>
donor molecule, donor type, donor heavy atom, donor atom, acceptor molecule, acceptor atom, score
      L1  H     3    56       P1 10171  1.00
      L1  H     9    38       P1  7948  1.00
      L1  H    16    57       P1  8028  2.00

> <Gold.PLP.Chemscore.Internal.Correction>
0.1582

> <Gold.Rescore>
     Score         DG    S(hbond)    S(metal)    S(lipo)     H(rot)  DE(clash)    DE(int)     intcor
     21.51     -23.05       2.90        0.00     126.61       2.71       0.13       1.41       ----

> <Gold.Chemscore.Fitness>
21.5128

> <Gold.Chemscore.DG>
-23.0495

> <Gold.Chemscore.ZeroCoef>
-5.4800

> <Gold.Chemscore.Hbond>
2.9016

> <Gold.Chemscore.Metal>
0.0000

> <Gold.Chemscore.Lipo>
126.6061

> <Gold.Chemscore.Internal_Hbond>
0.0000

> <Gold.Chemscore.DEClash>
0.1292

> <Gold.Chemscore.DEInternal>
1.4075

> <Gold.Chemscore.Rot>
2.7088

> <Gold.Chemscore.Internal.Correction>
   9.000000E+99

> <Gold.Chemscore.Hbonds>
donor molecule, donor type, donor heavy atom, donor atom, acceptor molecule, acceptor atom, score
      L1  H     3    56       P1 10171  1.00
      L1  H     9    38       P1  7948  0.93
      L1  H    16    57       P1  8028  0.98

> <Gold.Chemscore.Hbond.Weighted>
-9.6912

> <Gold.Chemscore.Metal.Weighted>
-0.0000

> <Gold.Chemscore.Lipo.Weighted>
-14.8129

> <Gold.Chemscore.Internal_Hbond.Weighted>
0.0000

> <Gold.Chemscore.DEClash.Weighted>
0.1292

> <Gold.Chemscore.DEInternal.Weighted>
1.4075

> <Gold.Chemscore.Rot.Weighted>
6.9346

> <Gold.Chemscore.Internal.Correction.Weighted>
   9.000000E+99

> <Gold.Protein.RotatedTorsions>
[ 6907 6896 6895 6894 ] final -100.84 input  -60.11 | X-H torsion
[ 7974 7965 7964 7962 ] final  140.14 input  175.53 | X-H torsion
[ 8008 7997 7996 7995 ] final -163.72 input   59.86 | X-H torsion
[ 10167 10162 10161 10158 ] final  -99.01 input  -65.29 | X-H torsion
[ 10718 10713 10712 10709 ] final  163.80 input   66.30 | X-H torsion
[ 10763 10752 10751 10750 ] final  -24.73 input  -60.55 | X-H torsion
[ 11005 11000 10999 10996 ] final -113.11 input  -57.11 | X-H torsion

> <Gold.Protein.ActiveResidues>
 VAL166  LYS551  ARG553  GLY616  TRP617  ASP618  TYR619  PRO620  LYS621  CYS622 
 ASP623  PHE694  ASN695  SER759  ASP760  ASP761  ALA762  ILE779  LEU786  VAL792 
 PHE793  MET794  SER795  GLU796  ALA797  LYS798  CYS799  TRP800  GLU811  SER814 

> <Gold.Protein.RotatedAtoms>
  150.7131  134.0826  159.3903 H   0  0  0  0  0  0  0  0  0  0  0  0  # atno 6907 bound_to 6896
  151.8810  135.0451  160.0498 H   0  0  0  0  0  0  0  0  0  0  0  0  # atno 6908 bound_to 6896
  152.2567  133.5226  159.5394 H   0  0  0  0  0  0  0  0  0  0  0  0  # atno 6909 bound_to 6896
  144.9214  139.5163  143.5661 H   0  0  0  0  0  0  0  0  0  0  0  0  # atno 7974 bound_to 7965
  155.8253  140.0925  157.1825 H   0  0  0  0  0  0  0  0  0  0  0  0  # atno 8008 bound_to 7997
  154.3979  140.1429  156.3609 H   0  0  0  0  0  0  0  0  0  0  0  0  # atno 8009 bound_to 7997
  155.8223  140.3446  155.5524 H   0  0  0  0  0  0  0  0  0  0  0  0  # atno 8010 bound_to 7997
  140.2669  143.3370  152.0572 H   0  0  0  0  0  0  0  0  0  0  0  0  # atno 10167 bound_to 10162
  157.1034  131.0449  151.2488 H   0  0  0  0  0  0  0  0  0  0  0  0  # atno 10718 bound_to 10713
  153.6885  135.6963  153.5097 H   0  0  0  0  0  0  0  0  0  0  0  0  # atno 10763 bound_to 10752
  153.2431  135.4299  155.0718 H   0  0  0  0  0  0  0  0  0  0  0  0  # atno 10764 bound_to 10752
  154.8379  135.3512  154.6427 H   0  0  0  0  0  0  0  0  0  0  0  0  # atno 10765 bound_to 10752
  141.0634  133.9498  157.2624 H   0  0  0  0  0  0  0  0  0  0  0  0  # atno 11005 bound_to 11000
  146.3206  139.8097  142.8948 LP  0  0  0  0  0  0  0  0  0  0  0  0  # atno 17320 bound_to 7965
  145.3290  141.0262  143.3457 LP  0  0  0  0  0  0  0  0  0  0  0  0  # atno 17321 bound_to 7965
  139.5000  144.6682  151.6306 LP  0  0  0  0  0  0  0  0  0  0  0  0  # atno 17342 bound_to 10162
  140.5921  143.9761  150.6331 LP  0  0  0  0  0  0  0  0  0  0  0  0  # atno 17343 bound_to 10162
  157.4621  130.7659  149.7246 LP  0  0  0  0  0  0  0  0  0  0  0  0  # atno 17370 bound_to 10713
  155.9868  130.3972  150.3196 LP  0  0  0  0  0  0  0  0  0  0  0  0  # atno 17371 bound_to 10713
  139.9453  135.0185  156.8835 LP  0  0  0  0  0  0  0  0  0  0  0  0  # atno 17394 bound_to 11000
  140.5823  134.0341  155.7468 LP  0  0  0  0  0  0  0  0  0  0  0  0  # atno 17395 bound_to 11000

$$$$
