AV-unprocessed.smi:2405|AV-procd|sdf|9515|dock4
  -GOLD-   2272013143D 1   1.00000     0.00000
 Structure written by MMmdl.
 36 37  0  0  0  0  0  0  0  0  2 V2000
  150.4909  144.9382  159.2322 C   0  0  0  0  0  0  0  0  0  0  0  0
  152.0102  144.7414  159.2002 C   0  0  0  0  0  0  0  0  0  0  0  0
  152.4800  143.7621  160.2229 C   0  0  0  0  0  0  0  0  0  0  0  0
  153.2396  142.7024  159.9334 N   0  0  0  0  0  0  0  0  0  0  0  0
  153.5908  141.9641  161.0691 C   0  0  0  0  0  0  0  0  0  0  0  0
  154.4488  140.7404  160.9341 C   0  0  0  0  0  0  0  0  0  0  0  0
  153.8598  139.8037  159.8789 C   0  0  0  0  0  0  0  0  0  0  0  0
  154.4468  139.6329  158.8105 O   0  0  0  0  0  0  0  0  0  0  0  0
  152.6972  139.2107  160.1910 N   0  0  0  0  0  0  0  0  0  0  0  0
  151.9495  138.3112  159.3182 C   0  0  1  0  0  0  0  0  0  0  0  0
  151.5039  139.0462  158.0401 C   0  0  0  0  0  0  0  0  0  0  0  0
  152.3124  138.4307  156.8933 C   0  0  0  0  0  0  0  0  0  0  0  0
  152.5896  136.9875  157.3329 C   0  0  2  0  0  0  0  0  0  0  0  0
  151.4002  136.0739  156.9715 C   0  0  0  0  0  0  0  0  0  0  0  0
  150.7463  135.5380  157.8943 O   0  0  0  0  0  0  0  0  0  0  0  0
  151.1596  135.9338  155.7522 O   0  5  0  0  0  0  0  0  0  0  0  0
  152.8208  137.1266  158.8493 C   0  0  0  0  0  0  0  0  0  0  0  0
  153.0778  142.4850  162.2315 C   0  0  0  0  0  0  0  0  0  0  0  0
  152.1504  143.9309  161.9430 S   0  0  0  0  0  0  0  0  0  0  0  0
  150.1755  145.6569  158.4756 H   0  0  0  0  0  0  0  0  0  0  0  0
  150.1627  145.3103  160.2034 H   0  0  0  0  0  0  0  0  0  0  0  0
  149.9691  144.0003  159.0395 H   0  0  0  0  0  0  0  0  0  0  0  0
  152.3194  144.3924  158.2146 H   0  0  0  0  0  0  0  0  0  0  0  0
  152.5136  145.6947  159.3661 H   0  0  0  0  0  0  0  0  0  0  0  0
  155.4642  141.0135  160.6444 H   0  0  0  0  0  0  0  0  0  0  0  0
  154.5319  140.2134  161.8858 H   0  0  0  0  0  0  0  0  0  0  0  0
  152.2859  139.4176  161.0898 H   0  0  0  0  0  0  0  0  0  0  0  0
  151.0622  137.9420  159.8362 H   0  0  0  0  0  0  0  0  0  0  0  0
  150.4416  138.8623  157.8725 H   0  0  0  0  0  0  0  0  0  0  0  0
  151.6345  140.1278  158.0933 H   0  0  0  0  0  0  0  0  0  0  0  0
  151.7902  138.5045  155.9381 H   0  0  0  0  0  0  0  0  0  0  0  0
  153.2585  138.9620  156.7841 H   0  0  0  0  0  0  0  0  0  0  0  0
  153.4784  136.5911  156.8405 H   0  0  0  0  0  0  0  0  0  0  0  0
  153.8773  137.3447  159.0145 H   0  0  0  0  0  0  0  0  0  0  0  0
  152.6110  136.2156  159.4115 H   0  0  0  0  0  0  0  0  0  0  0  0
  153.1990  142.1118  163.2377 H   0  0  0  0  0  0  0  0  0  0  0  0
  1  2  1  0  0  0  0
  1 20  1  0  0  0  0
  1 21  1  0  0  0  0
  1 22  1  0  0  0  0
  2  3  1  0  0  0  0
  2 23  1  0  0  0  0
  2 24  1  0  0  0  0
  3 19  1  0  0  0  0
  3  4  2  0  0  0  0
  4  5  1  0  0  0  0
  5  6  1  0  0  0  0
  5 18  2  0  0  0  0
  6  7  1  0  0  0  0
  6 25  1  0  0  0  0
  6 26  1  0  0  0  0
  7  8  2  0  0  0  0
  7  9  1  0  0  0  0
  9 10  1  0  0  0  0
  9 27  1  0  0  0  0
 10 17  1  0  0  0  0
 10 11  1  0  0  0  0
 10 28  1  0  0  0  0
 11 12  1  0  0  0  0
 11 29  1  0  0  0  0
 11 30  1  0  0  0  0
 12 13  1  0  0  0  0
 12 31  1  0  0  0  0
 12 32  1  0  0  0  0
 13 14  1  0  0  0  0
 13 17  1  0  0  0  0
 13 33  1  0  0  0  0
 14 15  2  0  0  0  0
 14 16  1  0  0  0  0
 17 34  1  0  0  0  0
 17 35  1  0  0  0  0
 18 19  1  0  0  0  0
 18 36  1  0  0  0  0
M  CHG  1  16  -1
M  END
> <s_m_source_file>
AV-unprocessed.smi

> <i_m_source_file_index>
2405

> <i_lp_mmshare_version>
43012

> <i_f3d_flags>
0

> <s_epik_input>
W0NIM11bQ0gyXWMxbmMoW2NIXXMxKVtDSDJdQyg9TylbTkhdW0NAQEhdMltDSDJdW0NIMl1bQ0BIXShbQ0gyXTIpQyg9TylbT0hd

> <s_epik_cmdline>
J2VwaWtfcHl0aG9uJywgJy1waCcsICc3LjAnLCAnLXRuJywgJzgnLCAnLW1hJywgJzIwMCcsICctbWV0YWxfYmluZGluZycsICctaW1hZScsICc8aW5maWxlLm1hZT4nLCAnLW9tYWUnLCAnPG91dGZpbGUubWFlPic=

> <r_epik_Ionization_Penalty>
0.000544611

> <r_epik_Ionization_Penalty_Charging>
0.000481685

> <r_epik_Ionization_Penalty_Neutral>
6.29266e-05

> <r_epik_State_Penalty>
0.00029893

> <r_epik_Charging_Adjusted_Penalty>
0.000780614

> <i_epik_Tot_Q>
-1

> <i_epik_Tot_abs_Q>
1

> <r_epik_Metal_State_Penalty>
-0

> <b_epik_Metal_Only>
0

> <s_lp_Force_Field>
OPLS_2005

> <r_lp_Energy>
7.82971

> <b_lp_Chiralities_Consistent>
1

> <s_lp_Variant>
AV-unprocessed.smi:2405-4

> <Gold.Version>
5.8.1

> <Gold.Id.Protein>
6NUR|6NUR_protein|mol2

> <Gold.PLP.Fitness>
49.0072

> <Gold.PLP.PLP>
-37.7216

> <Gold.PLP.part.hbond>
-3.0000

> <Gold.PLP.part.metal>
0.0000

> <Gold.PLP.part.buried>
-4.3863

> <Gold.PLP.part.nonpolar>
-31.4236

> <Gold.PLP.part.repulsive>
0.1787

> <Gold.PLP.ligand.clash>
0.0000

> <Gold.PLP.ligand.torsion>
0.2030

> <Gold.PLP.Chemscore.Hbond>
3.8736

> <Gold.PLP.Chemscore.CHOScore>
0.0000

> <Gold.PLP.Chemscore.Metal>
0.0000

> <Gold.Chemscore.Hbonds>
donor molecule, donor type, donor heavy atom, donor atom, acceptor molecule, acceptor atom, score
      P1  H  6896  6908       L1    15  0.93
      P1  H  7997  8008       L1     8  1.00
      P1  H 10752 10764       L1    16  1.62

> <Gold.PLP.Chemscore.Internal.Correction>
0.0707

> <Gold.Rescore>
     Score         DG    S(hbond)    S(metal)    S(lipo)     H(rot)  DE(clash)    DE(int)     intcor
     18.62     -21.07       2.49        0.00     107.14       2.06       0.09       2.36       ----

> <Gold.Chemscore.Fitness>
18.6158

> <Gold.Chemscore.DG>
-21.0654

> <Gold.Chemscore.ZeroCoef>
-5.4800

> <Gold.Chemscore.Hbond>
2.4946

> <Gold.Chemscore.Metal>
0.0000

> <Gold.Chemscore.Lipo>
107.1431

> <Gold.Chemscore.Internal_Hbond>
0.0000

> <Gold.Chemscore.DEClash>
0.0939

> <Gold.Chemscore.DEInternal>
2.3557

> <Gold.Chemscore.Rot>
2.0635

> <Gold.Chemscore.Internal.Correction>
   9.000000E+99

> <Gold.Chemscore.Hbonds>
donor molecule, donor type, donor heavy atom, donor atom, acceptor molecule, acceptor atom, score
      P1  H  6896  6908       L1    15  0.48
      P1  H  7997  8008       L1     8  1.00
      P1  H 10752 10764       L1    16  0.56

> <Gold.Chemscore.Hbond.Weighted>
-8.3321

> <Gold.Chemscore.Metal.Weighted>
-0.0000

> <Gold.Chemscore.Lipo.Weighted>
-12.5357

> <Gold.Chemscore.Internal_Hbond.Weighted>
0.0000

> <Gold.Chemscore.DEClash.Weighted>
0.0939

> <Gold.Chemscore.DEInternal.Weighted>
2.3557

> <Gold.Chemscore.Rot.Weighted>
5.2825

> <Gold.Chemscore.Internal.Correction.Weighted>
   9.000000E+99

> <Gold.Protein.RotatedTorsions>
[ 6907 6896 6895 6894 ] final  172.35 input  -60.11 | X-H torsion
[ 7974 7965 7964 7962 ] final  134.18 input  175.53 | X-H torsion
[ 8008 7997 7996 7995 ] final -114.91 input   59.86 | X-H torsion
[ 10167 10162 10161 10158 ] final   -8.40 input  -65.29 | X-H torsion
[ 10718 10713 10712 10709 ] final   92.46 input   66.30 | X-H torsion
[ 10763 10752 10751 10750 ] final  -51.74 input  -60.55 | X-H torsion
[ 11005 11000 10999 10996 ] final -178.88 input  -57.11 | X-H torsion

> <Gold.Protein.ActiveResidues>
 VAL166  LYS551  ARG553  GLY616  TRP617  ASP618  TYR619  PRO620  LYS621  CYS622 
 ASP623  PHE694  ASN695  SER759  ASP760  ASP761  ALA762  ILE779  LEU786  VAL792 
 PHE793  MET794  SER795  GLU796  ALA797  LYS798  CYS799  TRP800  GLU811  SER814 

> <Gold.Protein.RotatedAtoms>
  151.7857  133.3354  159.3484 H   0  0  0  0  0  0  0  0  0  0  0  0  # atno 6907 bound_to 6896
  150.7410  134.5889  159.5986 H   0  0  0  0  0  0  0  0  0  0  0  0  # atno 6908 bound_to 6896
  152.3245  134.7340  160.0357 H   0  0  0  0  0  0  0  0  0  0  0  0  # atno 6909 bound_to 6896
  144.9789  139.4525  143.5396 H   0  0  0  0  0  0  0  0  0  0  0  0  # atno 7974 bound_to 7965
  155.0437  140.0392  157.2519 H   0  0  0  0  0  0  0  0  0  0  0  0  # atno 8008 bound_to 7997
  154.7195  140.2709  155.6530 H   0  0  0  0  0  0  0  0  0  0  0  0  # atno 8009 bound_to 7997
  156.2812  140.2705  156.1862 H   0  0  0  0  0  0  0  0  0  0  0  0  # atno 8010 bound_to 7997
  140.7058  143.5973  150.8833 H   0  0  0  0  0  0  0  0  0  0  0  0  # atno 10167 bound_to 10162
  157.6958  131.0444  150.3885 H   0  0  0  0  0  0  0  0  0  0  0  0  # atno 10718 bound_to 10713
  154.1315  135.6519  153.4923 H   0  0  0  0  0  0  0  0  0  0  0  0  # atno 10763 bound_to 10752
  153.0194  135.5294  154.6997 H   0  0  0  0  0  0  0  0  0  0  0  0  # atno 10764 bound_to 10752
  154.6232  135.2967  155.0272 H   0  0  0  0  0  0  0  0  0  0  0  0  # atno 10765 bound_to 10752
  140.4248  134.6573  157.4682 H   0  0  0  0  0  0  0  0  0  0  0  0  # atno 11005 bound_to 11000
  146.3403  139.9050  142.8789 LP  0  0  0  0  0  0  0  0  0  0  0  0  # atno 17320 bound_to 7965
  145.2449  141.0023  143.3914 LP  0  0  0  0  0  0  0  0  0  0  0  0  # atno 17321 bound_to 7965
  139.9698  143.6070  152.2977 LP  0  0  0  0  0  0  0  0  0  0  0  0  # atno 17342 bound_to 10162
  139.6652  144.7662  151.1886 LP  0  0  0  0  0  0  0  0  0  0  0  0  # atno 17343 bound_to 10162
  156.4291  130.3968  149.6772 LP  0  0  0  0  0  0  0  0  0  0  0  0  # atno 17370 bound_to 10713
  156.3996  130.7668  151.2675 LP  0  0  0  0  0  0  0  0  0  0  0  0  # atno 17371 bound_to 10713
  140.0175  134.6597  155.9288 LP  0  0  0  0  0  0  0  0  0  0  0  0  # atno 17394 bound_to 11000
  141.1769  133.6541  156.4866 LP  0  0  0  0  0  0  0  0  0  0  0  0  # atno 17395 bound_to 11000

$$$$
