AV-unprocessed.smi:2924|AV-procd|sdf|11221|dock7
  -GOLD-   2272016113D 1   1.00000     0.00000
 Structure written by MMmdl.
 29 31  0  0  0  0  0  0  0  0  1 V2000
  154.4716  141.0957  161.4289 N   0  0  0  0  0  0  0  0  0  0  0  0
  153.7926  141.6787  160.6956 C   0  0  0  0  0  0  0  0  0  0  0  0
  152.9374  142.4137  159.7717 C   0  0  0  0  0  0  0  0  0  0  0  0
  152.6436  143.7667  160.0429 C   0  0  0  0  0  0  0  0  0  0  0  0
  151.8209  144.4817  159.1539 C   0  0  0  0  0  0  0  0  0  0  0  0
  151.3213  143.8106  158.0232 C   0  0  0  0  0  0  0  0  0  0  0  0
  151.5941  142.5176  157.7519 N   0  0  0  0  0  0  0  0  0  0  0  0
  152.3881  141.8217  158.6024 C   0  0  0  0  0  0  0  0  0  0  0  0
  152.6530  140.4748  158.2932 N   0  0  0  0  0  0  0  0  0  0  0  0
  151.8490  139.7422  157.3202 C   0  0  1  0  0  0  0  0  0  0  0  0
  151.7868  140.4306  155.9504 C   0  0  0  0  0  0  0  0  0  0  0  0
  152.3010  139.3276  155.0172 C   0  0  2  0  0  0  0  0  0  0  0  0
  151.3125  138.1599  154.8962 C   0  0  0  0  0  0  0  0  0  0  0  0
  151.4691  137.4764  156.2542 C   0  0  0  0  0  0  0  0  0  0  0  0
  152.4846  138.3905  156.9533 C   0  0  1  0  0  0  0  0  0  0  0  0
  153.2940  138.7479  155.8444 O   0  0  0  0  0  0  0  0  0  0  0  0
  153.0420  144.2558  160.9203 H   0  0  0  0  0  0  0  0  0  0  0  0
  151.5787  145.5186  159.3341 H   0  0  0  0  0  0  0  0  0  0  0  0
  150.6858  144.3248  157.3176 H   0  0  0  0  0  0  0  0  0  0  0  0
  153.5287  140.0665  158.5876 H   0  0  0  0  0  0  0  0  0  0  0  0
  150.8518  139.5778  157.7306 H   0  0  0  0  0  0  0  0  0  0  0  0
  150.7801  140.7599  155.6917 H   0  0  0  0  0  0  0  0  0  0  0  0
  152.4470  141.2981  155.9047 H   0  0  0  0  0  0  0  0  0  0  0  0
  152.6718  139.6959  154.0606 H   0  0  0  0  0  0  0  0  0  0  0  0
  150.2938  138.4997  154.7070 H   0  0  0  0  0  0  0  0  0  0  0  0
  151.6034  137.4832  154.0919 H   0  0  0  0  0  0  0  0  0  0  0  0
  150.5292  137.3989  156.8015 H   0  0  0  0  0  0  0  0  0  0  0  0
  151.8758  136.4721  156.1310 H   0  0  0  0  0  0  0  0  0  0  0  0
  153.0189  137.9031  157.7697 H   0  0  0  0  0  0  0  0  0  0  0  0
  1  2  3  0  0  0  0
  2  3  1  0  0  0  0
  3  8  1  0  0  0  0
  3  4  2  0  0  0  0
  4  5  1  0  0  0  0
  4 17  1  0  0  0  0
  5  6  2  0  0  0  0
  5 18  1  0  0  0  0
  6  7  1  0  0  0  0
  6 19  1  0  0  0  0
  7  8  2  0  0  0  0
  8  9  1  0  0  0  0
  9 10  1  0  0  0  0
  9 20  1  0  0  0  0
 10 15  1  0  0  0  0
 10 11  1  0  0  0  0
 10 21  1  0  0  0  0
 11 12  1  0  0  0  0
 11 22  1  0  0  0  0
 11 23  1  0  0  0  0
 12 16  1  0  0  0  0
 12 13  1  0  0  0  0
 12 24  1  0  0  0  0
 13 14  1  0  0  0  0
 13 25  1  0  0  0  0
 13 26  1  0  0  0  0
 14 15  1  0  0  0  0
 14 27  1  0  0  0  0
 14 28  1  0  0  0  0
 15 16  1  0  0  0  0
 15 29  1  0  0  0  0
M  END
> <s_m_source_file>
AV-unprocessed.smi

> <i_m_source_file_index>
2924

> <i_lp_mmshare_version>
43012

> <i_f3d_flags>
0

> <s_epik_input>
TiNDYzFbY0hdW2NIXVtjSF1uYzFbTkhdW0NASF0oW0NIMl1bQ0BASF0yMylbQ0BASF0oTzMpW0NIMl1bQ0gyXTI=

> <s_epik_cmdline>
J2VwaWtfcHl0aG9uJywgJy1waCcsICc3LjAnLCAnLXRuJywgJzgnLCAnLW1hJywgJzIwMCcsICctbWV0YWxfYmluZGluZycsICctaW1hZScsICc8aW5maWxlLm1hZT4nLCAnLW9tYWUnLCAnPG91dGZpbGUubWFlPic=

> <r_lp_tautomer_probability>
1

> <r_epik_Ionization_Penalty>
2.11559e-05

> <r_epik_Ionization_Penalty_Charging>
0

> <r_epik_Ionization_Penalty_Neutral>
2.11559e-05

> <r_epik_State_Penalty>
-0

> <r_epik_Charging_Adjusted_Penalty>
0

> <i_epik_Tot_Q>
0

> <i_epik_Tot_abs_Q>
0

> <r_epik_Metal_State_Penalty>
-0

> <b_epik_Metal_Only>
0

> <s_lp_Force_Field>
OPLS_2005

> <r_lp_Energy>
42.1946

> <b_lp_Chiralities_Consistent>
1

> <s_lp_Variant>
AV-unprocessed.smi:2924-4

> <Gold.Version>
5.8.1

> <Gold.Id.Protein>
6NUR|6NUR_protein|mol2

> <Gold.PLP.Fitness>
40.8296

> <Gold.PLP.PLP>
-35.0567

> <Gold.PLP.part.hbond>
-1.9822

> <Gold.PLP.part.metal>
0.0000

> <Gold.PLP.part.buried>
-3.8200

> <Gold.PLP.part.nonpolar>
-29.2307

> <Gold.PLP.part.repulsive>
0.1447

> <Gold.PLP.ligand.clash>
0.0000

> <Gold.PLP.ligand.torsion>
0.1234

> <Gold.PLP.Chemscore.Hbond>
1.0000

> <Gold.PLP.Chemscore.CHOScore>
1.0000

> <Gold.PLP.Chemscore.Metal>
0.0000

> <Gold.Chemscore.Hbonds>
donor molecule, donor type, donor heavy atom, donor atom, acceptor molecule, acceptor atom, score
      P1  H  7997  8010       L1    16  0.98
      L1  C     6    19       P1  8028  1.00

> <Gold.PLP.Chemscore.Internal.Correction>
0.0197

> <Gold.Rescore>
     Score         DG    S(hbond)    S(metal)    S(lipo)     H(rot)  DE(clash)    DE(int)     intcor
     12.98     -14.80       0.60        0.00      84.29       1.00       0.03       1.79       ----

> <Gold.Chemscore.Fitness>
12.9821

> <Gold.Chemscore.DG>
-14.7980

> <Gold.Chemscore.ZeroCoef>
-5.4800

> <Gold.Chemscore.Hbond>
0.6036

> <Gold.Chemscore.Metal>
0.0000

> <Gold.Chemscore.Lipo>
84.2912

> <Gold.Chemscore.Internal_Hbond>
0.0000

> <Gold.Chemscore.DEClash>
0.0291

> <Gold.Chemscore.DEInternal>
1.7868

> <Gold.Chemscore.Rot>
1.0000

> <Gold.Chemscore.Internal.Correction>
   9.000000E+99

> <Gold.Chemscore.Hbonds>
donor molecule, donor type, donor heavy atom, donor atom, acceptor molecule, acceptor atom, score
      P1  H  7997  8010       L1    16  0.33

> <Gold.Chemscore.Hbond.Weighted>
-2.0159

> <Gold.Chemscore.Metal.Weighted>
-0.0000

> <Gold.Chemscore.Lipo.Weighted>
-9.8621

> <Gold.Chemscore.Internal_Hbond.Weighted>
0.0000

> <Gold.Chemscore.DEClash.Weighted>
0.0291

> <Gold.Chemscore.DEInternal.Weighted>
1.7868

> <Gold.Chemscore.Rot.Weighted>
2.5600

> <Gold.Chemscore.Internal.Correction.Weighted>
   9.000000E+99

> <Gold.Protein.RotatedTorsions>
[ 6907 6896 6895 6894 ] final  147.61 input  -60.11 | X-H torsion
[ 7974 7965 7964 7962 ] final -142.74 input  175.53 | X-H torsion
[ 8008 7997 7996 7995 ] final   77.51 input   59.86 | X-H torsion
[ 10167 10162 10161 10158 ] final  -21.79 input  -65.29 | X-H torsion
[ 10718 10713 10712 10709 ] final   -6.28 input   66.30 | X-H torsion
[ 10763 10752 10751 10750 ] final   41.06 input  -60.55 | X-H torsion
[ 11005 11000 10999 10996 ] final -145.62 input  -57.11 | X-H torsion

> <Gold.Protein.ActiveResidues>
 VAL166  LYS551  ARG553  GLY616  TRP617  ASP618  TYR619  PRO620  LYS621  CYS622 
 ASP623  PHE694  ASN695  SER759  ASP760  ASP761  ALA762  ILE779  LEU786  VAL792 
 PHE793  MET794  SER795  GLU796  ALA797  LYS798  CYS799  TRP800  GLU811  SER814 

> <Gold.Protein.RotatedAtoms>
  152.1525  133.4530  159.4820 H   0  0  0  0  0  0  0  0  0  0  0  0  # atno 6907 bound_to 6896
  150.6897  134.2172  159.4391 H   0  0  0  0  0  0  0  0  0  0  0  0  # atno 6908 bound_to 6896
  152.0069  134.9897  160.0617 H   0  0  0  0  0  0  0  0  0  0  0  0  # atno 6909 bound_to 6896
  144.8421  140.5920  143.5446 H   0  0  0  0  0  0  0  0  0  0  0  0  # atno 7974 bound_to 7965
  155.8426  140.3461  155.5642 H   0  0  0  0  0  0  0  0  0  0  0  0  # atno 8008 bound_to 7997
  155.8124  140.0901  157.1916 H   0  0  0  0  0  0  0  0  0  0  0  0  # atno 8009 bound_to 7997
  154.4005  140.1445  156.3390 H   0  0  0  0  0  0  0  0  0  0  0  0  # atno 8010 bound_to 7997
  140.7283  143.4594  151.0401 H   0  0  0  0  0  0  0  0  0  0  0  0  # atno 10167 bound_to 10162
  156.7342  130.5189  149.5838 H   0  0  0  0  0  0  0  0  0  0  0  0  # atno 10718 bound_to 10713
  152.9918  135.6173  154.2727 H   0  0  0  0  0  0  0  0  0  0  0  0  # atno 10763 bound_to 10752
  154.2459  135.2787  155.2837 H   0  0  0  0  0  0  0  0  0  0  0  0  # atno 10764 bound_to 10752
  154.5329  135.5783  153.6832 H   0  0  0  0  0  0  0  0  0  0  0  0  # atno 10765 bound_to 10752
  140.7904  134.2975  157.5015 H   0  0  0  0  0  0  0  0  0  0  0  0  # atno 11005 bound_to 11000
  145.4673  139.1507  143.3833 LP  0  0  0  0  0  0  0  0  0  0  0  0  # atno 17320 bound_to 7965
  146.2711  140.4805  142.8814 LP  0  0  0  0  0  0  0  0  0  0  0  0  # atno 17321 bound_to 7965
  139.8278  143.7733  152.3179 LP  0  0  0  0  0  0  0  0  0  0  0  0  # atno 17342 bound_to 10162
  139.7837  144.7435  151.0051 LP  0  0  0  0  0  0  0  0  0  0  0  0  # atno 17343 bound_to 10162
  156.1508  130.6309  151.0593 LP  0  0  0  0  0  0  0  0  0  0  0  0  # atno 17370 bound_to 10713
  157.6846  131.0828  150.7278 LP  0  0  0  0  0  0  0  0  0  0  0  0  # atno 17371 bound_to 10713
  139.8732  134.9371  156.3678 LP  0  0  0  0  0  0  0  0  0  0  0  0  # atno 17394 bound_to 11000
  140.9395  133.7524  156.0128 LP  0  0  0  0  0  0  0  0  0  0  0  0  # atno 17395 bound_to 11000

$$$$
