AV-unprocessed.smi:1830|AV-procd|sdf|7436|dock5
  -GOLD-   22720 9123D 1   1.00000     0.00000
 Structure written by MMmdl.
 53 56  0  0  0  0  0  0  0  0  2 V2000
  149.5880  136.2357  159.3035 O   0  0  0  0  0  0  0  0  0  0  0  0
  149.3154  137.2789  158.7098 C   0  0  0  0  0  0  0  0  0  0  0  0
  148.1040  137.5485  158.2036 N   0  0  0  0  0  0  0  0  0  0  0  0
  146.9531  136.6535  158.2610 C   0  0  0  0  0  0  0  0  0  0  0  0
  146.8696  135.9209  159.6120 C   0  0  2  0  0  0  0  0  0  0  0  0
  145.6993  134.9242  159.6496 C   0  0  0  0  0  0  0  0  0  0  0  0
  145.5973  134.2512  160.9697 N   0  3  2  0  0  0  0  0  0  0  0  0
  144.3204  133.5215  161.1295 C   0  0  0  0  0  0  0  0  0  0  0  0
  143.3702  134.4600  161.8958 C   0  0  0  0  0  0  0  0  0  0  0  0
  144.2150  135.6781  162.2870 C   0  0  0  0  0  0  0  0  0  0  0  0
  145.6542  135.1942  162.1079 C   0  0  2  0  0  0  0  0  0  0  0  0
  146.7197  136.2949  161.9336 C   0  0  0  0  0  0  0  0  0  0  0  0
  146.6441  136.8761  160.6410 O   0  0  0  0  0  0  0  0  0  0  0  0
  150.1782  138.2774  158.4601 N   0  0  0  0  0  0  0  0  0  0  0  0
  151.5656  138.3392  158.7735 C   0  0  0  0  0  0  0  0  0  0  0  0
  152.1395  137.5147  159.7721 C   0  0  0  0  0  0  0  0  0  0  0  0
  153.5184  137.6009  160.0292 C   0  0  0  0  0  0  0  0  0  0  0  0
  154.2783  138.5138  159.2795 C   0  0  0  0  0  0  0  0  0  0  0  0
  153.7442  139.3196  158.3403 N   0  0  0  0  0  0  0  0  0  0  0  0
  152.4127  139.2594  158.0917 C   0  0  0  0  0  0  0  0  0  0  0  0
  151.9045  140.1432  157.1122 N   0  0  0  0  0  0  0  0  0  0  0  0
  150.8209  141.0647  157.4372 C   0  0  0  0  0  0  0  0  0  0  0  0
  150.2866  141.5376  156.0883 C   0  0  0  0  0  0  0  0  0  0  0  0
  150.4329  140.2883  155.2256 C   0  0  0  0  0  0  0  0  0  0  0  0
  151.7064  139.6262  155.7615 C   0  0  0  0  0  0  0  0  0  0  0  0
  147.9715  138.4320  157.7334 H   0  0  0  0  0  0  0  0  0  0  0  0
  146.0281  137.1951  158.0559 H   0  0  0  0  0  0  0  0  0  0  0  0
  147.0670  135.9263  157.4566 H   0  0  0  0  0  0  0  0  0  0  0  0
  147.8099  135.3942  159.7876 H   0  0  0  0  0  0  0  0  0  0  0  0
  144.7690  135.4519  159.4311 H   0  0  0  0  0  0  0  0  0  0  0  0
  145.8213  134.1663  158.8749 H   0  0  0  0  0  0  0  0  0  0  0  0
  143.9045  133.1892  160.1770 H   0  0  0  0  0  0  0  0  0  0  0  0
  144.5110  132.6289  161.7265 H   0  0  0  0  0  0  0  0  0  0  0  0
  142.5203  134.7598  161.2819 H   0  0  0  0  0  0  0  0  0  0  0  0
  142.9755  133.9586  162.7803 H   0  0  0  0  0  0  0  0  0  0  0  0
  144.0070  136.5054  161.6069 H   0  0  0  0  0  0  0  0  0  0  0  0
  144.0122  136.0229  163.3013 H   0  0  0  0  0  0  0  0  0  0  0  0
  145.9127  134.6110  162.9934 H   0  0  0  0  0  0  0  0  0  0  0  0
  146.5870  137.0732  162.6854 H   0  0  0  0  0  0  0  0  0  0  0  0
  147.7188  135.8835  162.0858 H   0  0  0  0  0  0  0  0  0  0  0  0
  149.8343  139.0275  157.8789 H   0  0  0  0  0  0  0  0  0  0  0  0
  151.5437  136.8238  160.3488 H   0  0  0  0  0  0  0  0  0  0  0  0
  153.9818  136.9807  160.7822 H   0  0  0  0  0  0  0  0  0  0  0  0
  155.3417  138.6060  159.4426 H   0  0  0  0  0  0  0  0  0  0  0  0
  150.0256  140.5537  157.9816 H   0  0  0  0  0  0  0  0  0  0  0  0
  151.1755  141.8960  158.0473 H   0  0  0  0  0  0  0  0  0  0  0  0
  149.2614  141.9041  156.1411 H   0  0  0  0  0  0  0  0  0  0  0  0
  150.9157  142.3379  155.6960 H   0  0  0  0  0  0  0  0  0  0  0  0
  149.5792  139.6293  155.3904 H   0  0  0  0  0  0  0  0  0  0  0  0
  150.4863  140.5091  154.1593 H   0  0  0  0  0  0  0  0  0  0  0  0
  152.5596  139.9154  155.1475 H   0  0  0  0  0  0  0  0  0  0  0  0
  151.6276  138.5383  155.7435 H   0  0  0  0  0  0  0  0  0  0  0  0
  146.3693  133.6038  161.0410 H   0  0  0  0  0  0  0  0  0  0  0  0
  1  2  2  0  0  0  0
  2  3  1  0  0  0  0
  2 14  1  0  0  0  0
  3  4  1  0  0  0  0
  3 26  1  0  0  0  0
  4  5  1  0  0  0  0
  4 27  1  0  0  0  0
  4 28  1  0  0  0  0
  5 13  1  0  0  0  0
  5  6  1  0  0  0  0
  5 29  1  0  0  0  0
  6  7  1  0  0  0  0
  6 30  1  0  0  0  0
  6 31  1  0  0  0  0
  7 11  1  0  0  0  0
  7  8  1  0  0  0  0
  7 53  1  0  0  0  0
  8  9  1  0  0  0  0
  8 32  1  0  0  0  0
  8 33  1  0  0  0  0
  9 10  1  0  0  0  0
  9 34  1  0  0  0  0
  9 35  1  0  0  0  0
 10 11  1  0  0  0  0
 10 36  1  0  0  0  0
 10 37  1  0  0  0  0
 11 12  1  0  0  0  0
 11 38  1  0  0  0  0
 12 13  1  0  0  0  0
 12 39  1  0  0  0  0
 12 40  1  0  0  0  0
 14 15  1  0  0  0  0
 14 41  1  0  0  0  0
 15 20  1  0  0  0  0
 15 16  2  0  0  0  0
 16 17  1  0  0  0  0
 16 42  1  0  0  0  0
 17 18  2  0  0  0  0
 17 43  1  0  0  0  0
 18 19  1  0  0  0  0
 18 44  1  0  0  0  0
 19 20  2  0  0  0  0
 20 21  1  0  0  0  0
 21 25  1  0  0  0  0
 21 22  1  0  0  0  0
 22 23  1  0  0  0  0
 22 45  1  0  0  0  0
 22 46  1  0  0  0  0
 23 24  1  0  0  0  0
 23 47  1  0  0  0  0
 23 48  1  0  0  0  0
 24 25  1  0  0  0  0
 24 49  1  0  0  0  0
 24 50  1  0  0  0  0
 25 51  1  0  0  0  0
 25 52  1  0  0  0  0
M  CHG  1   7   1
M  END
> <s_m_source_file>
AV-unprocessed.smi

> <i_m_source_file_index>
1830

> <i_lp_mmshare_version>
43012

> <i_f3d_flags>
0

> <s_epik_input>
W0NIMl0xW0NIMl1bQ0gyXVtDQEhdKE4xMilbQ0gyXU9bQ0BASF0oW0NIMl0yKVtDSDJdW05IXUMoPU8pW05IXWMzW2NIXVtjSF1bY0hdbmMzTjRbQ0gyXVtDSDJdW0NIMl1bQ0gyXTQ=

> <s_epik_cmdline>
J2VwaWtfcHl0aG9uJywgJy1waCcsICc3LjAnLCAnLXRuJywgJzgnLCAnLW1hJywgJzIwMCcsICctbWV0YWxfYmluZGluZycsICctaW1hZScsICc8aW5maWxlLm1hZT4nLCAnLW9tYWUnLCAnPG91dGZpbGUubWFlPic=

> <r_lp_tautomer_probability>
1

> <r_epik_Ionization_Penalty>
0.193547

> <r_epik_Ionization_Penalty_Charging>
0.10673

> <r_epik_Ionization_Penalty_Neutral>
0.0868166

> <r_epik_State_Penalty>
0.173595

> <r_epik_Charging_Adjusted_Penalty>
0.280326

> <i_epik_Tot_Q>
1

> <i_epik_Tot_abs_Q>
1

> <r_epik_Metal_State_Penalty>
0.164683

> <b_epik_Metal_Only>
0

> <s_lp_Force_Field>
OPLS_2005

> <r_lp_Energy>
65.0875

> <b_lp_Chiralities_Consistent>
1

> <s_lp_Variant>
AV-unprocessed.smi:1830-5

> <Gold.Version>
5.8.1

> <Gold.Id.Protein>
6NUR|6NUR_protein|mol2

> <Gold.PLP.Fitness>
43.1595

> <Gold.PLP.PLP>
-34.9708

> <Gold.PLP.part.hbond>
-2.9723

> <Gold.PLP.part.metal>
0.0000

> <Gold.PLP.part.buried>
-4.9239

> <Gold.PLP.part.nonpolar>
-26.9881

> <Gold.PLP.part.repulsive>
0.3167

> <Gold.PLP.ligand.clash>
0.0000

> <Gold.PLP.ligand.torsion>
0.5702

> <Gold.PLP.Chemscore.Hbond>
3.0000

> <Gold.PLP.Chemscore.CHOScore>
0.0000

> <Gold.PLP.Chemscore.Metal>
0.0000

> <Gold.Chemscore.Hbonds>
donor molecule, donor type, donor heavy atom, donor atom, acceptor molecule, acceptor atom, score
      P1  H  6896  6909       L1     1  1.00
      P1  H  6934  6947       L1    13  0.50
      P1  H  7997  8010       L1    19  1.00

> <Gold.PLP.Chemscore.Internal.Correction>
0.3291

> <Gold.Rescore>
     Score         DG    S(hbond)    S(metal)    S(lipo)     H(rot)  DE(clash)    DE(int)     intcor
     18.65     -21.70       2.78        0.00      89.94       1.41       0.00       3.05       ----

> <Gold.Chemscore.Fitness>
18.6451

> <Gold.Chemscore.DG>
-21.7013

> <Gold.Chemscore.ZeroCoef>
-5.4800

> <Gold.Chemscore.Hbond>
2.7842

> <Gold.Chemscore.Metal>
0.0000

> <Gold.Chemscore.Lipo>
89.9410

> <Gold.Chemscore.Internal_Hbond>
0.0000

> <Gold.Chemscore.DEClash>
0.0033

> <Gold.Chemscore.DEInternal>
3.0529

> <Gold.Chemscore.Rot>
1.4067

> <Gold.Chemscore.Internal.Correction>
   9.000000E+99

> <Gold.Chemscore.Hbonds>
donor molecule, donor type, donor heavy atom, donor atom, acceptor molecule, acceptor atom, score
      P1  H  6896  6909       L1     1  1.00
      P1  H  6934  6947       L1    13  0.25
      P1  H  7997  8010       L1    19  0.93

> <Gold.Chemscore.Hbond.Weighted>
-9.2993

> <Gold.Chemscore.Metal.Weighted>
-0.0000

> <Gold.Chemscore.Lipo.Weighted>
-10.5231

> <Gold.Chemscore.Internal_Hbond.Weighted>
0.0000

> <Gold.Chemscore.DEClash.Weighted>
0.0033

> <Gold.Chemscore.DEInternal.Weighted>
3.0529

> <Gold.Chemscore.Rot.Weighted>
3.6011

> <Gold.Chemscore.Internal.Correction.Weighted>
   9.000000E+99

> <Gold.Protein.RotatedTorsions>
[ 6907 6896 6895 6894 ] final   64.95 input  -60.11 | X-H torsion
[ 7974 7965 7964 7962 ] final  137.42 input  175.53 | X-H torsion
[ 8008 7997 7996 7995 ] final   18.28 input   59.86 | X-H torsion
[ 10167 10162 10161 10158 ] final -110.45 input  -65.29 | X-H torsion
[ 10718 10713 10712 10709 ] final   19.54 input   66.30 | X-H torsion
[ 10763 10752 10751 10750 ] final  159.37 input  -60.55 | X-H torsion
[ 11005 11000 10999 10996 ] final -139.24 input  -57.11 | X-H torsion

> <Gold.Protein.ActiveResidues>
 VAL166  LYS551  ARG553  GLY616  TRP617  ASP618  TYR619  PRO620  LYS621  CYS622 
 ASP623  PHE694  ASN695  SER759  ASP760  ASP761  ALA762  ILE779  LEU786  VAL792 
 PHE793  MET794  SER795  GLU796  ALA797  LYS798  CYS799  TRP800  GLU811  SER814 

> <Gold.Protein.RotatedAtoms>
  152.4371  134.5665  159.9908 H   0  0  0  0  0  0  0  0  0  0  0  0  # atno 6907 bound_to 6896
  151.5773  133.3376  159.3009 H   0  0  0  0  0  0  0  0  0  0  0  0  # atno 6908 bound_to 6896
  150.8271  134.7541  159.6886 H   0  0  0  0  0  0  0  0  0  0  0  0  # atno 6909 bound_to 6896
  144.9470  139.4863  143.5544 H   0  0  0  0  0  0  0  0  0  0  0  0  # atno 7974 bound_to 7965
  154.9038  140.3004  155.5303 H   0  0  0  0  0  0  0  0  0  0  0  0  # atno 8008 bound_to 7997
  156.3017  140.2402  156.4004 H   0  0  0  0  0  0  0  0  0  0  0  0  # atno 8009 bound_to 7997
  154.8494  140.0410  157.1583 H   0  0  0  0  0  0  0  0  0  0  0  0  # atno 8010 bound_to 7997
  140.1443  143.4252  152.1540 H   0  0  0  0  0  0  0  0  0  0  0  0  # atno 10167 bound_to 10162
  157.1118  130.6512  149.5899 H   0  0  0  0  0  0  0  0  0  0  0  0  # atno 10718 bound_to 10713
  154.2307  135.2778  155.2891 H   0  0  0  0  0  0  0  0  0  0  0  0  # atno 10763 bound_to 10752
  154.5626  135.5642  153.7024 H   0  0  0  0  0  0  0  0  0  0  0  0  # atno 10764 bound_to 10752
  153.0021  135.6301  154.2449 H   0  0  0  0  0  0  0  0  0  0  0  0  # atno 10765 bound_to 10752
  140.8539  134.2252  157.4745 H   0  0  0  0  0  0  0  0  0  0  0  0  # atno 11005 bound_to 11000
  146.3307  139.8529  142.8870 LP  0  0  0  0  0  0  0  0  0  0  0  0  # atno 17320 bound_to 7965
  145.2903  141.0165  143.3667 LP  0  0  0  0  0  0  0  0  0  0  0  0  # atno 17321 bound_to 7965
  139.5456  144.7296  151.4593 LP  0  0  0  0  0  0  0  0  0  0  0  0  # atno 17342 bound_to 10162
  140.6741  143.8228  150.7036 LP  0  0  0  0  0  0  0  0  0  0  0  0  # atno 17343 bound_to 10162
  155.9848  130.4875  150.7003 LP  0  0  0  0  0  0  0  0  0  0  0  0  # atno 17370 bound_to 10713
  157.4552  131.0877  151.0804 LP  0  0  0  0  0  0  0  0  0  0  0  0  # atno 17371 bound_to 10713
  139.8705  134.9696  156.4674 LP  0  0  0  0  0  0  0  0  0  0  0  0  # atno 17394 bound_to 11000
  140.8759  133.7953  155.9414 LP  0  0  0  0  0  0  0  0  0  0  0  0  # atno 17395 bound_to 11000

$$$$
