AV-unprocessed.smi:1116|AV-procd|sdf|4812|dock2
  -GOLD-   22720 3363D 1   1.00000     0.00000
 Structure written by MMmdl.
 35 36  0  0  0  0  0  0  0  0  2 V2000
  152.3413  144.2766  161.9397 C   0  0  0  0  0  0  0  0  0  0  0  0
  151.8777  144.0330  160.5445 C   0  0  0  0  0  0  0  0  0  0  0  0
  151.3673  142.8713  160.1276 N   0  0  0  0  0  0  0  0  0  0  0  0
  151.0116  142.8939  158.7752 C   0  0  0  0  0  0  0  0  0  0  0  0
  150.4306  141.6710  158.1329 C   0  0  0  0  0  0  0  0  0  0  0  0
  149.9322  141.9482  156.7047 C   0  0  0  0  0  0  0  0  0  0  0  0
  149.2918  140.7757  156.1194 N   0  0  0  0  0  0  0  0  0  0  0  0
  149.1731  140.5398  154.8037 C   0  0  0  0  0  0  0  0  0  0  0  0
  149.5905  141.3124  153.9406 O   0  0  0  0  0  0  0  0  0  0  0  0
  148.4683  139.2397  154.4063 C   0  0  0  0  0  0  0  0  0  0  0  0
  148.8806  138.0450  155.2876 C   0  0  0  0  0  0  0  0  0  0  0  0
  150.1555  137.3393  154.7852 C   0  0  1  0  0  0  0  0  0  0  0  0
  151.2765  138.2536  154.7449 N   0  0  0  0  0  0  0  0  0  0  0  0
  152.2816  137.8235  155.5050 C   0  0  0  0  0  0  0  0  0  0  0  0
  153.3363  138.4478  155.5951 O   0  0  0  0  0  0  0  0  0  0  0  0
  151.9449  136.6680  156.1102 N   0  5  0  0  0  0  0  0  0  0  0  0
  150.6965  136.2916  155.7583 C   0  0  0  0  0  0  0  0  0  0  0  0
  150.0378  135.3085  156.0936 O   0  0  0  0  0  0  0  0  0  0  0  0
  151.2581  144.1017  158.1711 C   0  0  0  0  0  0  0  0  0  0  0  0
  151.9491  145.2542  159.2799 S   0  0  0  0  0  0  0  0  0  0  0  0
  152.3973  143.3399  162.4951 H   0  0  0  0  0  0  0  0  0  0  0  0
  151.6491  144.9463  162.4502 H   0  0  0  0  0  0  0  0  0  0  0  0
  153.3303  144.7349  161.9295 H   0  0  0  0  0  0  0  0  0  0  0  0
  151.1761  140.8749  158.1109 H   0  0  0  0  0  0  0  0  0  0  0  0
  149.6083  141.2925  158.7414 H   0  0  0  0  0  0  0  0  0  0  0  0
  149.2424  142.7939  156.6987 H   0  0  0  0  0  0  0  0  0  0  0  0
  150.7705  142.2288  156.0663 H   0  0  0  0  0  0  0  0  0  0  0  0
  148.9183  140.0909  156.7604 H   0  0  0  0  0  0  0  0  0  0  0  0
  147.3874  139.3784  154.4634 H   0  0  0  0  0  0  0  0  0  0  0  0
  148.7018  139.0347  153.3610 H   0  0  0  0  0  0  0  0  0  0  0  0
  149.0223  138.3687  156.3205 H   0  0  0  0  0  0  0  0  0  0  0  0
  148.0613  137.3242  155.3062 H   0  0  0  0  0  0  0  0  0  0  0  0
  150.0021  136.8859  153.8049 H   0  0  0  0  0  0  0  0  0  0  0  0
  151.2897  139.0976  154.1919 H   0  0  0  0  0  0  0  0  0  0  0  0
  151.0775  144.3817  157.1436 H   0  0  0  0  0  0  0  0  0  0  0  0
  1  2  1  0  0  0  0
  1 21  1  0  0  0  0
  1 22  1  0  0  0  0
  1 23  1  0  0  0  0
  2 20  1  0  0  0  0
  2  3  2  0  0  0  0
  3  4  1  0  0  0  0
  4  5  1  0  0  0  0
  4 19  2  0  0  0  0
  5  6  1  0  0  0  0
  5 24  1  0  0  0  0
  5 25  1  0  0  0  0
  6  7  1  0  0  0  0
  6 26  1  0  0  0  0
  6 27  1  0  0  0  0
  7  8  1  0  0  0  0
  7 28  1  0  0  0  0
  8  9  2  0  0  0  0
  8 10  1  0  0  0  0
 10 11  1  0  0  0  0
 10 29  1  0  0  0  0
 10 30  1  0  0  0  0
 11 12  1  0  0  0  0
 11 31  1  0  0  0  0
 11 32  1  0  0  0  0
 12 17  1  0  0  0  0
 12 13  1  0  0  0  0
 12 33  1  0  0  0  0
 13 14  1  0  0  0  0
 13 34  1  0  0  0  0
 14 15  2  0  0  0  0
 14 16  1  0  0  0  0
 16 17  1  0  0  0  0
 17 18  2  0  0  0  0
 19 20  1  0  0  0  0
 19 35  1  0  0  0  0
M  CHG  1  16  -1
M  END
> <s_m_source_file>
AV-unprocessed.smi

> <i_m_source_file_index>
1116

> <i_lp_mmshare_version>
43012

> <i_f3d_flags>
0

> <s_epik_input>
W0NIM11jMW5jKFtjSF1zMSlbQ0gyXVtDSDJdW05IXUMoPU8pW0NIMl1bQ0gyXVtDQEBIXTJbTkhdQyg9TylbTkhdQzI9Tw==

> <s_epik_cmdline>
J2VwaWtfcHl0aG9uJywgJy1waCcsICc3LjAnLCAnLXRuJywgJzgnLCAnLW1hJywgJzIwMCcsICctbWV0YWxfYmluZGluZycsICctaW1hZScsICc8aW5maWxlLm1hZT4nLCAnLW9tYWUnLCAnPG91dGZpbGUubWFlPic=

> <r_lp_tautomer_probability>
1

> <r_epik_Ionization_Penalty>
2.5713

> <r_epik_Ionization_Penalty_Charging>
2.57023

> <r_epik_Ionization_Penalty_Neutral>
0.00106405

> <r_epik_State_Penalty>
2.56828

> <r_epik_Charging_Adjusted_Penalty>
5.13851

> <i_epik_Tot_Q>
-1

> <i_epik_Tot_abs_Q>
1

> <r_epik_Metal_State_Penalty>
0.44525

> <b_epik_Metal_Only>
1

> <s_lp_Force_Field>
OPLS_2005

> <r_lp_Energy>
2.19092

> <b_lp_Chiralities_Consistent>
1

> <s_lp_Variant>
AV-unprocessed.smi:1116-6

> <Gold.Version>
5.8.1

> <Gold.Id.Protein>
6NUR|6NUR_protein|mol2

> <Gold.PLP.Fitness>
47.6340

> <Gold.PLP.PLP>
-34.6626

> <Gold.PLP.part.hbond>
-4.6384

> <Gold.PLP.part.metal>
0.0000

> <Gold.PLP.part.buried>
-4.5428

> <Gold.PLP.part.nonpolar>
-26.4044

> <Gold.PLP.part.repulsive>
0.7607

> <Gold.PLP.ligand.clash>
0.0000

> <Gold.PLP.ligand.torsion>
0.6607

> <Gold.PLP.Chemscore.Hbond>
3.8090

> <Gold.PLP.Chemscore.CHOScore>
0.9296

> <Gold.PLP.Chemscore.Metal>
0.0000

> <Gold.Chemscore.Hbonds>
donor molecule, donor type, donor heavy atom, donor atom, acceptor molecule, acceptor atom, score
      P1  H  7989  7998       L1     9  0.24
      P1  H  7997  8009       L1    15  0.76
      P1  H  8011  8017       L1     9  0.77
      P1  H 10752 10765       L1    16  1.70
      L1  C    19    35       P1  8028  0.74

> <Gold.PLP.Chemscore.Internal.Correction>
0.0770

> <Gold.Rescore>
     Score         DG    S(hbond)    S(metal)    S(lipo)     H(rot)  DE(clash)    DE(int)     intcor
     14.33     -15.39       2.13        0.00      84.43       2.77       0.35       0.71       ----

> <Gold.Chemscore.Fitness>
14.3337

> <Gold.Chemscore.DG>
-15.3935

> <Gold.Chemscore.ZeroCoef>
-5.4800

> <Gold.Chemscore.Hbond>
2.1330

> <Gold.Chemscore.Metal>
0.0000

> <Gold.Chemscore.Lipo>
84.4291

> <Gold.Chemscore.Internal_Hbond>
0.0000

> <Gold.Chemscore.DEClash>
0.3493

> <Gold.Chemscore.DEInternal>
0.7106

> <Gold.Chemscore.Rot>
2.7691

> <Gold.Chemscore.Internal.Correction>
   9.000000E+99

> <Gold.Chemscore.Hbonds>
donor molecule, donor type, donor heavy atom, donor atom, acceptor molecule, acceptor atom, score
      P1  H  7989  7998       L1     9  0.18
      P1  H  7997  8009       L1    15  0.72
      P1  H  8011  8017       L1     9  0.77
      P1  H 10752 10765       L1    16  0.07

> <Gold.Chemscore.Hbond.Weighted>
-7.1242

> <Gold.Chemscore.Metal.Weighted>
-0.0000

> <Gold.Chemscore.Lipo.Weighted>
-9.8782

> <Gold.Chemscore.Internal_Hbond.Weighted>
0.0000

> <Gold.Chemscore.DEClash.Weighted>
0.3493

> <Gold.Chemscore.DEInternal.Weighted>
0.7106

> <Gold.Chemscore.Rot.Weighted>
7.0889

> <Gold.Chemscore.Internal.Correction.Weighted>
   9.000000E+99

> <Gold.Protein.RotatedTorsions>
[ 6907 6896 6895 6894 ] final  -17.84 input  -60.11 | X-H torsion
[ 7974 7965 7964 7962 ] final -164.41 input  175.53 | X-H torsion
[ 8008 7997 7996 7995 ] final -138.63 input   59.86 | X-H torsion
[ 10167 10162 10161 10158 ] final   40.59 input  -65.29 | X-H torsion
[ 10718 10713 10712 10709 ] final   57.69 input   66.30 | X-H torsion
[ 10763 10752 10751 10750 ] final -149.99 input  -60.55 | X-H torsion
[ 11005 11000 10999 10996 ] final   17.19 input  -57.11 | X-H torsion

> <Gold.Protein.ActiveResidues>
 VAL166  LYS551  ARG553  GLY616  TRP617  ASP618  TYR619  PRO620  LYS621  CYS622 
 ASP623  PHE694  ASN695  SER759  ASP760  ASP761  ALA762  ILE779  LEU786  VAL792 
 PHE793  MET794  SER795  GLU796  ALA797  LYS798  CYS799  TRP800  GLU811  SER814 

> <Gold.Protein.RotatedAtoms>
  151.2873  135.0731  159.9190 H   0  0  0  0  0  0  0  0  0  0  0  0  # atno 6907 bound_to 6896
  152.5323  133.9968  159.7887 H   0  0  0  0  0  0  0  0  0  0  0  0  # atno 6908 bound_to 6896
  151.0232  133.5806  159.2699 H   0  0  0  0  0  0  0  0  0  0  0  0  # atno 6909 bound_to 6896
  144.7298  140.2965  143.6212 H   0  0  0  0  0  0  0  0  0  0  0  0  # atno 7974 bound_to 7965
  155.4316  140.0525  157.3018 H   0  0  0  0  0  0  0  0  0  0  0  0  # atno 8008 bound_to 7997
  154.4857  140.2100  155.9618 H   0  0  0  0  0  0  0  0  0  0  0  0  # atno 8009 bound_to 7997
  156.1272  140.3178  155.8299 H   0  0  0  0  0  0  0  0  0  0  0  0  # atno 8010 bound_to 7997
  140.3726  144.2084  150.6132 H   0  0  0  0  0  0  0  0  0  0  0  0  # atno 10167 bound_to 10162
  157.5536  130.8783  149.9000 H   0  0  0  0  0  0  0  0  0  0  0  0  # atno 10718 bound_to 10713
  154.8145  135.3295  154.7214 H   0  0  0  0  0  0  0  0  0  0  0  0  # atno 10763 bound_to 10752
  153.7857  135.6915  153.4885 H   0  0  0  0  0  0  0  0  0  0  0  0  # atno 10764 bound_to 10752
  153.1950  135.4537  155.0143 H   0  0  0  0  0  0  0  0  0  0  0  0  # atno 10765 bound_to 10752
  140.4387  134.1344  155.7688 H   0  0  0  0  0  0  0  0  0  0  0  0  # atno 11005 bound_to 11000
  145.7803  139.1889  143.2161 LP  0  0  0  0  0  0  0  0  0  0  0  0  # atno 17320 bound_to 7965
  146.0839  140.7732  142.9628 LP  0  0  0  0  0  0  0  0  0  0  0  0  # atno 17321 bound_to 7965
  140.5017  143.2316  151.8668 LP  0  0  0  0  0  0  0  0  0  0  0  0  # atno 17342 bound_to 10162
  139.4802  144.5051  151.9008 LP  0  0  0  0  0  0  0  0  0  0  0  0  # atno 17343 bound_to 10162
  156.0598  130.3702  150.1008 LP  0  0  0  0  0  0  0  0  0  0  0  0  # atno 17370 bound_to 10713
  156.9179  130.9673  151.3553 LP  0  0  0  0  0  0  0  0  0  0  0  0  # atno 17371 bound_to 10713
  141.1715  133.8600  157.1556 LP  0  0  0  0  0  0  0  0  0  0  0  0  # atno 17394 bound_to 11000
  140.0084  134.9998  157.0343 LP  0  0  0  0  0  0  0  0  0  0  0  0  # atno 17395 bound_to 11000

$$$$
