AV-unprocessed.smi:2153|AV-procd|sdf|8768|dock3
  -GOLD-   2272011543D 1   1.00000     0.00000
 Structure written by MMmdl.
 48 49  0  0  0  0  0  0  0  0  1 V2000
  147.8716  132.6352  161.7719 C   0  0  0  0  0  0  0  0  0  0  0  0
  147.0894  133.8344  162.3295 C   0  0  2  0  0  0  0  0  0  0  0  0
  145.5646  133.6268  162.2135 C   0  0  0  0  0  0  0  0  0  0  0  0
  144.7861  134.8114  162.8064 C   0  0  0  0  0  0  0  0  0  0  0  0
  145.2209  136.1384  162.1684 C   0  0  0  0  0  0  0  0  0  0  0  0
  146.7385  136.3462  162.2889 C   0  0  0  0  0  0  0  0  0  0  0  0
  147.5212  135.1658  161.6734 C   0  0  2  0  0  0  0  0  0  0  0  0
  147.2700  135.0624  160.2773 O   0  0  0  0  0  0  0  0  0  0  0  0
  148.1638  135.7723  159.4334 C   0  0  0  0  0  0  0  0  0  0  0  0
  147.7175  137.2414  159.3617 C   0  0  0  0  0  0  0  0  0  0  0  0
  148.6891  138.0663  158.6492 N   0  0  0  0  0  0  0  0  0  0  0  0
  150.0220  137.9281  158.7255 C   0  0  0  0  0  0  0  0  0  0  0  0
  150.5740  137.1102  159.4613 O   0  0  0  0  0  0  0  0  0  0  0  0
  150.8619  138.8690  157.8532 C   0  0  0  0  0  0  0  0  0  0  0  0
  151.7578  139.7069  158.6609 N   0  0  0  0  0  0  0  0  0  0  0  0
  152.7895  139.1086  159.3618 C   0  0  0  0  0  0  0  0  0  0  0  0
  153.6483  139.7886  160.1522 C   0  0  0  0  0  0  0  0  0  0  0  0
  153.5246  141.2305  160.3226 C   0  0  0  0  0  0  0  0  0  0  0  0
  154.2873  141.8942  161.0258 O   0  0  0  0  0  0  0  0  0  0  0  0
  152.4566  141.8176  159.6047 N   0  0  0  0  0  0  0  0  0  0  0  0
  152.2786  143.2499  159.7254 C   0  0  0  0  0  0  0  0  0  0  0  0
  151.5813  141.1056  158.7528 C   0  0  0  0  0  0  0  0  0  0  0  0
  150.6950  141.6688  158.1066 O   0  0  0  0  0  0  0  0  0  0  0  0
  147.6660  132.4817  160.7120 H   0  0  0  0  0  0  0  0  0  0  0  0
  147.6059  131.7170  162.2962 H   0  0  0  0  0  0  0  0  0  0  0  0
  148.9461  132.7804  161.8858 H   0  0  0  0  0  0  0  0  0  0  0  0
  147.3296  133.9016  163.3915 H   0  0  0  0  0  0  0  0  0  0  0  0
  145.2844  133.4956  161.1674 H   0  0  0  0  0  0  0  0  0  0  0  0
  145.2732  132.7090  162.7251 H   0  0  0  0  0  0  0  0  0  0  0  0
  143.7161  134.6617  162.6619 H   0  0  0  0  0  0  0  0  0  0  0  0
  144.9497  134.8537  163.8837 H   0  0  0  0  0  0  0  0  0  0  0  0
  144.9396  136.1435  161.1159 H   0  0  0  0  0  0  0  0  0  0  0  0
  144.6906  136.9679  162.6364 H   0  0  0  0  0  0  0  0  0  0  0  0
  147.0227  137.2912  161.8277 H   0  0  0  0  0  0  0  0  0  0  0  0
  147.0035  136.4403  163.3427 H   0  0  0  0  0  0  0  0  0  0  0  0
  148.5903  135.3089  161.8404 H   0  0  0  0  0  0  0  0  0  0  0  0
  149.1902  135.7133  159.7946 H   0  0  0  0  0  0  0  0  0  0  0  0
  148.1430  135.3323  158.4356 H   0  0  0  0  0  0  0  0  0  0  0  0
  146.7727  137.3058  158.8222 H   0  0  0  0  0  0  0  0  0  0  0  0
  147.5298  137.6369  160.3615 H   0  0  0  0  0  0  0  0  0  0  0  0
  148.3199  138.7738  158.0310 H   0  0  0  0  0  0  0  0  0  0  0  0
  151.4410  138.2906  157.1312 H   0  0  0  0  0  0  0  0  0  0  0  0
  150.1921  139.4905  157.2564 H   0  0  0  0  0  0  0  0  0  0  0  0
  152.9160  138.0389  159.2780 H   0  0  0  0  0  0  0  0  0  0  0  0
  154.4327  139.2579  160.6714 H   0  0  0  0  0  0  0  0  0  0  0  0
  151.2366  143.5133  159.5403 H   0  0  0  0  0  0  0  0  0  0  0  0
  152.9428  143.7145  158.9956 H   0  0  0  0  0  0  0  0  0  0  0  0
  152.5244  143.5563  160.7435 H   0  0  0  0  0  0  0  0  0  0  0  0
  1  2  1  0  0  0  0
  1 24  1  0  0  0  0
  1 25  1  0  0  0  0
  1 26  1  0  0  0  0
  2  7  1  0  0  0  0
  2  3  1  0  0  0  0
  2 27  1  0  0  0  0
  3  4  1  0  0  0  0
  3 28  1  0  0  0  0
  3 29  1  0  0  0  0
  4  5  1  0  0  0  0
  4 30  1  0  0  0  0
  4 31  1  0  0  0  0
  5  6  1  0  0  0  0
  5 32  1  0  0  0  0
  5 33  1  0  0  0  0
  6  7  1  0  0  0  0
  6 34  1  0  0  0  0
  6 35  1  0  0  0  0
  7  8  1  0  0  0  0
  7 36  1  0  0  0  0
  8  9  1  0  0  0  0
  9 10  1  0  0  0  0
  9 37  1  0  0  0  0
  9 38  1  0  0  0  0
 10 11  1  0  0  0  0
 10 39  1  0  0  0  0
 10 40  1  0  0  0  0
 11 12  1  0  0  0  0
 11 41  1  0  0  0  0
 12 13  2  0  0  0  0
 12 14  1  0  0  0  0
 14 15  1  0  0  0  0
 14 42  1  0  0  0  0
 14 43  1  0  0  0  0
 15 22  1  0  0  0  0
 15 16  1  0  0  0  0
 16 17  2  0  0  0  0
 16 44  1  0  0  0  0
 17 18  1  0  0  0  0
 17 45  1  0  0  0  0
 18 19  2  0  0  0  0
 18 20  1  0  0  0  0
 20 21  1  0  0  0  0
 20 22  1  0  0  0  0
 21 46  1  0  0  0  0
 21 47  1  0  0  0  0
 21 48  1  0  0  0  0
 22 23  2  0  0  0  0
M  END
> <s_m_source_file>
AV-unprocessed.smi

> <i_m_source_file_index>
2153

> <i_lp_mmshare_version>
43012

> <i_f3d_flags>
0

> <s_epik_input>
W0NIM11bQ0BASF0xW0NIMl1bQ0gyXVtDSDJdW0NIMl1bQ0BIXTFPW0NIMl1bQ0gyXVtOSF1DKD1PKVtDSDJdbjJbY0hdW2NIXWMoPU8pbihbQ0gzXSljMj1P

> <s_epik_cmdline>
J2VwaWtfcHl0aG9uJywgJy1waCcsICc3LjAnLCAnLXRuJywgJzgnLCAnLW1hJywgJzIwMCcsICctbWV0YWxfYmluZGluZycsICctaW1hZScsICc8aW5maWxlLm1hZT4nLCAnLW9tYWUnLCAnPG91dGZpbGUubWFlPic=

> <r_lp_tautomer_probability>
1

> <r_epik_Ionization_Penalty>
4.02205e-08

> <r_epik_Ionization_Penalty_Charging>
1.23606e-08

> <r_epik_Ionization_Penalty_Neutral>
2.78599e-08

> <r_epik_State_Penalty>
-0

> <r_epik_Charging_Adjusted_Penalty>
1.23606e-08

> <i_epik_Tot_Q>
0

> <i_epik_Tot_abs_Q>
0

> <r_epik_Metal_State_Penalty>
-0

> <b_epik_Metal_Only>
0

> <s_lp_Force_Field>
OPLS_2005

> <r_lp_Energy>
17.534

> <b_lp_Chiralities_Consistent>
1

> <s_lp_Variant>
AV-unprocessed.smi:2153-3

> <Gold.Version>
5.8.1

> <Gold.Id.Protein>
6NUR|6NUR_protein|mol2

> <Gold.PLP.Fitness>
46.2081

> <Gold.PLP.PLP>
-44.6077

> <Gold.PLP.part.hbond>
-2.0000

> <Gold.PLP.part.metal>
0.0000

> <Gold.PLP.part.buried>
-4.6424

> <Gold.PLP.part.nonpolar>
-37.7710

> <Gold.PLP.part.repulsive>
0.2129

> <Gold.PLP.ligand.clash>
0.0000

> <Gold.PLP.ligand.torsion>
0.7397

> <Gold.PLP.Chemscore.Hbond>
1.0000

> <Gold.PLP.Chemscore.CHOScore>
0.0000

> <Gold.PLP.Chemscore.Metal>
0.0000

> <Gold.Chemscore.Hbonds>
donor molecule, donor type, donor heavy atom, donor atom, acceptor molecule, acceptor atom, score
      P1  H  6896  6907       L1    13  0.73

> <Gold.PLP.Chemscore.Internal.Correction>
0.0798

> <Gold.Rescore>
     Score         DG    S(hbond)    S(metal)    S(lipo)     H(rot)  DE(clash)    DE(int)     intcor
     11.42     -13.73       1.00        0.00      90.06       2.20       0.05       2.25       ----

> <Gold.Chemscore.Fitness>
11.4246

> <Gold.Chemscore.DG>
-13.7297

> <Gold.Chemscore.ZeroCoef>
-5.4800

> <Gold.Chemscore.Hbond>
0.9989

> <Gold.Chemscore.Metal>
0.0000

> <Gold.Chemscore.Lipo>
90.0602

> <Gold.Chemscore.Internal_Hbond>
0.0000

> <Gold.Chemscore.DEClash>
0.0510

> <Gold.Chemscore.DEInternal>
2.2541

> <Gold.Chemscore.Rot>
2.1968

> <Gold.Chemscore.Internal.Correction>
   9.000000E+99

> <Gold.Chemscore.Hbonds>
donor molecule, donor type, donor heavy atom, donor atom, acceptor molecule, acceptor atom, score
      P1  H  6896  6907       L1    13  0.73

> <Gold.Chemscore.Hbond.Weighted>
-3.3364

> <Gold.Chemscore.Metal.Weighted>
-0.0000

> <Gold.Chemscore.Lipo.Weighted>
-10.5370

> <Gold.Chemscore.Internal_Hbond.Weighted>
0.0000

> <Gold.Chemscore.DEClash.Weighted>
0.0510

> <Gold.Chemscore.DEInternal.Weighted>
2.2541

> <Gold.Chemscore.Rot.Weighted>
5.6238

> <Gold.Chemscore.Internal.Correction.Weighted>
   9.000000E+99

> <Gold.Protein.RotatedTorsions>
[ 6907 6896 6895 6894 ] final  -29.59 input  -60.11 | X-H torsion
[ 7974 7965 7964 7962 ] final   64.83 input  175.53 | X-H torsion
[ 8008 7997 7996 7995 ] final   74.21 input   59.86 | X-H torsion
[ 10167 10162 10161 10158 ] final  153.27 input  -65.29 | X-H torsion
[ 10718 10713 10712 10709 ] final  -94.08 input   66.30 | X-H torsion
[ 10763 10752 10751 10750 ] final  146.93 input  -60.55 | X-H torsion
[ 11005 11000 10999 10996 ] final  -42.55 input  -57.11 | X-H torsion

> <Gold.Protein.ActiveResidues>
 VAL166  LYS551  ARG553  GLY616  TRP617  ASP618  TYR619  PRO620  LYS621  CYS622 
 ASP623  PHE694  ASN695  SER759  ASP760  ASP761  ALA762  ILE779  LEU786  VAL792 
 PHE793  MET794  SER795  GLU796  ALA797  LYS798  CYS799  TRP800  GLU811  SER814 

> <Gold.Protein.RotatedAtoms>
  151.1171  135.0059  159.8521 H   0  0  0  0  0  0  0  0  0  0  0  0  # atno 6907 bound_to 6896
  152.5446  134.1766  159.8628 H   0  0  0  0  0  0  0  0  0  0  0  0  # atno 6908 bound_to 6896
  151.1821  133.4674  159.2627 H   0  0  0  0  0  0  0  0  0  0  0  0  # atno 6909 bound_to 6896
  145.8456  139.3222  143.0905 H   0  0  0  0  0  0  0  0  0  0  0  0  # atno 7974 bound_to 7965
  155.7951  140.3478  155.5371 H   0  0  0  0  0  0  0  0  0  0  0  0  # atno 8008 bound_to 7997
  155.8595  140.0969  157.1643 H   0  0  0  0  0  0  0  0  0  0  0  0  # atno 8009 bound_to 7997
  154.4011  140.1361  156.3930 H   0  0  0  0  0  0  0  0  0  0  0  0  # atno 8010 bound_to 7997
  139.4828  144.5288  151.7758 H   0  0  0  0  0  0  0  0  0  0  0  0  # atno 10167 bound_to 10162
  156.0022  130.5053  150.5872 H   0  0  0  0  0  0  0  0  0  0  0  0  # atno 10718 bound_to 10713
  154.0299  135.2898  155.3370 H   0  0  0  0  0  0  0  0  0  0  0  0  # atno 10763 bound_to 10752
  154.6994  135.5194  153.8508 H   0  0  0  0  0  0  0  0  0  0  0  0  # atno 10764 bound_to 10752
  153.0644  135.6625  154.0513 H   0  0  0  0  0  0  0  0  0  0  0  0  # atno 10765 bound_to 10752
  141.0324  133.6814  156.2611 H   0  0  0  0  0  0  0  0  0  0  0  0  # atno 11005 bound_to 11000
  145.9416  140.8975  143.0305 LP  0  0  0  0  0  0  0  0  0  0  0  0  # atno 17320 bound_to 7965
  144.6731  140.1556  143.7426 LP  0  0  0  0  0  0  0  0  0  0  0  0  # atno 17321 bound_to 7965
  140.4811  144.1448  150.5933 LP  0  0  0  0  0  0  0  0  0  0  0  0  # atno 17342 bound_to 10162
  140.4277  143.2582  151.9636 LP  0  0  0  0  0  0  0  0  0  0  0  0  # atno 17343 bound_to 10162
  157.3743  131.0770  151.1531 LP  0  0  0  0  0  0  0  0  0  0  0  0  # atno 17370 bound_to 10713
  157.2274  130.6509  149.5836 LP  0  0  0  0  0  0  0  0  0  0  0  0  # atno 17371 bound_to 10713
  140.6384  134.5192  157.5567 LP  0  0  0  0  0  0  0  0  0  0  0  0  # atno 17394 bound_to 11000
  139.9217  134.8136  156.1192 LP  0  0  0  0  0  0  0  0  0  0  0  0  # atno 17395 bound_to 11000

$$$$
