AV-unprocessed.smi:37|AV-procd|sdf|320|dock8
  -GOLD-   2262016143D 1   1.00000     0.00000
 Structure written by MMmdl.
 43 44  0  0  0  0  0  0  0  0  2 V2000
  145.2048  144.4512  162.0444 C   0  0  0  0  0  0  0  0  0  0  0  0
  146.4107  144.7279  161.1343 C   0  0  0  0  0  0  0  0  0  0  0  0
  146.6511  143.6385  160.0871 C   0  0  0  0  0  0  0  0  0  0  0  0
  145.8608  142.7111  159.9022 O   0  0  0  0  0  0  0  0  0  0  0  0
  147.8004  143.8293  159.4265 O   0  0  0  0  0  0  0  0  0  0  0  0
  148.2877  142.8309  158.5447 C   0  0  0  0  0  0  0  0  0  0  0  0
  149.7662  143.0807  158.1991 C   0  0  1  0  0  0  0  0  0  0  0  0
  150.5825  142.8642  159.3476 O   0  0  0  0  0  0  0  0  0  0  0  0
  151.8470  142.5063  158.8879 C   0  0  1  0  0  0  0  0  0  0  0  0
  152.7024  142.0058  160.0402 N   0  0  0  0  0  0  0  0  0  0  0  0
  153.4838  140.8665  159.9209 C   0  0  0  0  0  0  0  0  0  0  0  0
  154.2803  140.4478  160.9253 C   0  0  0  0  0  0  0  0  0  0  0  0
  155.0202  139.3358  160.7737 F   0  0  0  0  0  0  0  0  0  0  0  0
  154.3459  141.2183  162.1639 C   0  0  0  0  0  0  0  0  0  0  0  0
  155.0458  140.8137  163.0911 O   0  0  0  0  0  0  0  0  0  0  0  0
  153.6250  142.3739  162.2308 N   0  5  0  0  0  0  0  0  0  0  0  0
  152.8345  142.8122  161.2072 C   0  0  0  0  0  0  0  0  0  0  0  0
  152.2375  143.8881  161.2433 O   0  0  0  0  0  0  0  0  0  0  0  0
  151.5118  141.4746  157.8010 C   0  0  1  0  0  0  0  0  0  0  0  0
  150.7850  139.7739  158.5769 Br  0  0  0  0  0  0  0  0  0  0  0  0
  150.3932  142.2230  157.0768 C   0  0  1  0  0  0  0  0  0  0  0  0
  149.4727  141.3650  156.4093 O   0  0  0  0  0  0  0  0  0  0  0  0
  149.8893  140.5581  155.4186 C   0  0  0  0  0  0  0  0  0  0  0  0
  151.0145  140.0656  155.3187 O   0  0  0  0  0  0  0  0  0  0  0  0
  148.7835  140.2948  154.3949 C   0  0  0  0  0  0  0  0  0  0  0  0
  148.0977  141.5729  153.8886 C   0  0  0  0  0  0  0  0  0  0  0  0
  145.0723  145.2610  162.7616 H   0  0  0  0  0  0  0  0  0  0  0  0
  145.3364  143.5282  162.6103 H   0  0  0  0  0  0  0  0  0  0  0  0
  144.2825  144.3676  161.4681 H   0  0  0  0  0  0  0  0  0  0  0  0
  146.2691  145.6772  160.6169 H   0  0  0  0  0  0  0  0  0  0  0  0
  147.3122  144.8314  161.7387 H   0  0  0  0  0  0  0  0  0  0  0  0
  148.1806  141.8459  159.0014 H   0  0  0  0  0  0  0  0  0  0  0  0
  147.6875  142.8320  157.6341 H   0  0  0  0  0  0  0  0  0  0  0  0
  149.8729  144.1290  157.9175 H   0  0  0  0  0  0  0  0  0  0  0  0
  152.3822  143.3761  158.5008 H   0  0  0  0  0  0  0  0  0  0  0  0
  153.4792  140.2934  159.0073 H   0  0  0  0  0  0  0  0  0  0  0  0
  152.3695  141.2478  157.1675 H   0  0  0  0  0  0  0  0  0  0  0  0
  150.8384  142.9131  156.3578 H   0  0  0  0  0  0  0  0  0  0  0  0
  149.2157  139.7523  153.5535 H   0  0  0  0  0  0  0  0  0  0  0  0
  148.0431  139.6356  154.8483 H   0  0  0  0  0  0  0  0  0  0  0  0
  147.3311  141.3316  153.1523 H   0  0  0  0  0  0  0  0  0  0  0  0
  148.8116  142.2455  153.4113 H   0  0  0  0  0  0  0  0  0  0  0  0
  147.6138  142.1139  154.7025 H   0  0  0  0  0  0  0  0  0  0  0  0
  1  2  1  0  0  0  0
  1 27  1  0  0  0  0
  1 28  1  0  0  0  0
  1 29  1  0  0  0  0
  2  3  1  0  0  0  0
  2 30  1  0  0  0  0
  2 31  1  0  0  0  0
  3  4  2  0  0  0  0
  3  5  1  0  0  0  0
  5  6  1  0  0  0  0
  6  7  1  0  0  0  0
  6 32  1  0  0  0  0
  6 33  1  0  0  0  0
  7 21  1  0  0  0  0
  7  8  1  0  0  0  0
  7 34  1  0  0  0  0
  8  9  1  0  0  0  0
  9 10  1  0  0  0  0
  9 19  1  0  0  0  0
  9 35  1  0  0  0  0
 10 17  1  0  0  0  0
 10 11  1  0  0  0  0
 11 12  2  0  0  0  0
 11 36  1  0  0  0  0
 12 13  1  0  0  0  0
 12 14  1  0  0  0  0
 14 15  2  0  0  0  0
 14 16  1  0  0  0  0
 16 17  1  0  0  0  0
 17 18  2  0  0  0  0
 19 20  1  0  0  0  0
 19 21  1  0  0  0  0
 19 37  1  0  0  0  0
 21 22  1  0  0  0  0
 21 38  1  0  0  0  0
 22 23  1  0  0  0  0
 23 24  2  0  0  0  0
 23 25  1  0  0  0  0
 25 26  1  0  0  0  0
 25 39  1  0  0  0  0
 25 40  1  0  0  0  0
 26 41  1  0  0  0  0
 26 42  1  0  0  0  0
 26 43  1  0  0  0  0
M  CHG  1  16  -1
M  END
> <s_m_source_file>
AV-unprocessed.smi

> <i_m_source_file_index>
37

> <i_lp_mmshare_version>
43012

> <i_f3d_flags>
0

> <s_epik_input>
W0NIM11bQ0gyXUMoPU8pT1tDSDJdW0NAQEhdMU9bQ0BASF0objJbY0hdYyhGKWMoPU8pW25IXWMyPU8pW0NAQEhdKEJyKVtDQEhdMU9DKD1PKVtDSDJdW0NIM10=

> <s_epik_cmdline>
J2VwaWtfcHl0aG9uJywgJy1waCcsICc3LjAnLCAnLXRuJywgJzgnLCAnLW1hJywgJzIwMCcsICctbWV0YWxfYmluZGluZycsICctaW1hZScsICc8aW5maWxlLm1hZT4nLCAnLW9tYWUnLCAnPG91dGZpbGUubWFlPic=

> <r_epik_Ionization_Penalty>
1.08158

> <r_epik_Ionization_Penalty_Charging>
9.05154e-09

> <r_epik_Ionization_Penalty_Neutral>
1.08158

> <r_epik_State_Penalty>
1.13706

> <r_epik_Charging_Adjusted_Penalty>
1.13706

> <i_epik_Tot_Q>
-1

> <i_epik_Tot_abs_Q>
1

> <r_epik_Metal_State_Penalty>
0.00343535

> <b_epik_Metal_Only>
0

> <s_epik_Chemistry_Notes>
This compound has an ester and may undergo hydrolysis at high or low pH. This compound contains an acetal/aminal-like group ( X-CH(R)-Y where X, Y are N, S, or O) that may be acid/base labile, releasing an aldehyde.

> <s_lp_Force_Field>
OPLS_2005

> <r_lp_Energy>
41.8028

> <b_lp_Chiralities_Consistent>
1

> <s_lp_Variant>
AV-unprocessed.smi:37-18

> <Gold.Version>
5.8.1

> <Gold.Id.Protein>
6NUR|6NUR_protein|mol2

> <Gold.PLP.Fitness>
53.6748

> <Gold.PLP.PLP>
-49.5301

> <Gold.PLP.part.hbond>
-4.4599

> <Gold.PLP.part.metal>
0.0000

> <Gold.PLP.part.buried>
-5.0378

> <Gold.PLP.part.nonpolar>
-40.6332

> <Gold.PLP.part.repulsive>
0.4661

> <Gold.PLP.ligand.clash>
0.0000

> <Gold.PLP.ligand.torsion>
1.0349

> <Gold.PLP.Chemscore.Hbond>
2.0000

> <Gold.PLP.Chemscore.CHOScore>
0.0000

> <Gold.PLP.Chemscore.Metal>
0.0000

> <Gold.Chemscore.Hbonds>
donor molecule, donor type, donor heavy atom, donor atom, acceptor molecule, acceptor atom, score
      P1  H  6934  6946       L1     4  0.39
      P1  H  7989  7998       L1    24  0.88

> <Gold.PLP.Chemscore.Internal.Correction>
0.2145

> <Gold.Rescore>
     Score         DG    S(hbond)    S(metal)    S(lipo)     H(rot)  DE(clash)    DE(int)     intcor
      6.34      -9.22       1.46        0.00      61.76       3.27       0.60       2.29       ----

> <Gold.Chemscore.Fitness>
6.3358

> <Gold.Chemscore.DG>
-9.2239

> <Gold.Chemscore.ZeroCoef>
-5.4800

> <Gold.Chemscore.Hbond>
1.4614

> <Gold.Chemscore.Metal>
0.0000

> <Gold.Chemscore.Lipo>
61.7634

> <Gold.Chemscore.Internal_Hbond>
0.0000

> <Gold.Chemscore.DEClash>
0.5999

> <Gold.Chemscore.DEInternal>
2.2883

> <Gold.Chemscore.Rot>
3.2669

> <Gold.Chemscore.Internal.Correction>
   9.000000E+99

> <Gold.Chemscore.Hbonds>
donor molecule, donor type, donor heavy atom, donor atom, acceptor molecule, acceptor atom, score
      P1  H  6934  6946       L1     4  0.20
      P1  H  7989  7998       L1    24  0.25

> <Gold.Chemscore.Hbond.Weighted>
-4.8809

> <Gold.Chemscore.Metal.Weighted>
-0.0000

> <Gold.Chemscore.Lipo.Weighted>
-7.2263

> <Gold.Chemscore.Internal_Hbond.Weighted>
0.0000

> <Gold.Chemscore.DEClash.Weighted>
0.5999

> <Gold.Chemscore.DEInternal.Weighted>
2.2883

> <Gold.Chemscore.Rot.Weighted>
8.3634

> <Gold.Chemscore.Internal.Correction.Weighted>
   9.000000E+99

> <Gold.Protein.RotatedTorsions>
[ 6907 6896 6895 6894 ] final   60.95 input  -60.11 | X-H torsion
[ 7974 7965 7964 7962 ] final   14.94 input  175.53 | X-H torsion
[ 8008 7997 7996 7995 ] final  169.40 input   59.86 | X-H torsion
[ 10167 10162 10161 10158 ] final  -80.06 input  -65.29 | X-H torsion
[ 10718 10713 10712 10709 ] final  167.32 input   66.30 | X-H torsion
[ 10763 10752 10751 10750 ] final  -69.40 input  -60.55 | X-H torsion
[ 11005 11000 10999 10996 ] final  149.32 input  -57.11 | X-H torsion

> <Gold.Protein.ActiveResidues>
 VAL166  LYS551  ARG553  GLY616  TRP617  ASP618  TYR619  PRO620  LYS621  CYS622 
 ASP623  PHE694  ASN695  SER759  ASP760  ASP761  ALA762  ILE779  LEU786  VAL792 
 PHE793  MET794  SER795  GLU796  ALA797  LYS798  CYS799  TRP800  GLU811  SER814 

> <Gold.Protein.RotatedAtoms>
  152.4047  134.6228  160.0054 H   0  0  0  0  0  0  0  0  0  0  0  0  # atno 6907 bound_to 6896
  151.6423  133.3320  159.3141 H   0  0  0  0  0  0  0  0  0  0  0  0  # atno 6908 bound_to 6896
  150.7943  134.7032  159.6607 H   0  0  0  0  0  0  0  0  0  0  0  0  # atno 6909 bound_to 6896
  146.2292  139.8967  142.8546 H   0  0  0  0  0  0  0  0  0  0  0  0  # atno 7974 bound_to 7965
  156.1460  140.1565  156.8845 H   0  0  0  0  0  0  0  0  0  0  0  0  # atno 8008 bound_to 7997
  154.5029  140.0820  156.7872 H   0  0  0  0  0  0  0  0  0  0  0  0  # atno 8009 bound_to 7997
  155.3987  140.3413  155.4258 H   0  0  0  0  0  0  0  0  0  0  0  0  # atno 8010 bound_to 7997
  140.4537  143.2475  151.8451 H   0  0  0  0  0  0  0  0  0  0  0  0  # atno 10167 bound_to 10162
  157.0532  131.0319  151.2673 H   0  0  0  0  0  0  0  0  0  0  0  0  # atno 10718 bound_to 10713
  154.4029  135.6027  153.5907 H   0  0  0  0  0  0  0  0  0  0  0  0  # atno 10763 bound_to 10752
  152.9788  135.5911  154.4163 H   0  0  0  0  0  0  0  0  0  0  0  0  # atno 10764 bound_to 10752
  154.3964  135.2842  155.2102 H   0  0  0  0  0  0  0  0  0  0  0  0  # atno 10765 bound_to 10752
  140.1034  134.8969  157.1830 H   0  0  0  0  0  0  0  0  0  0  0  0  # atno 11005 bound_to 11000
  145.2364  140.9993  143.3961 LP  0  0  0  0  0  0  0  0  0  0  0  0  # atno 17320 bound_to 7965
  144.9488  139.4106  143.6413 LP  0  0  0  0  0  0  0  0  0  0  0  0  # atno 17321 bound_to 7965
  139.4799  144.5090  151.8958 LP  0  0  0  0  0  0  0  0  0  0  0  0  # atno 17342 bound_to 10162
  140.4177  144.2285  150.5887 LP  0  0  0  0  0  0  0  0  0  0  0  0  # atno 17343 bound_to 10162
  157.5014  130.7882  149.7608 LP  0  0  0  0  0  0  0  0  0  0  0  0  # atno 17370 bound_to 10713
  156.0001  130.3885  150.2639 LP  0  0  0  0  0  0  0  0  0  0  0  0  # atno 17371 bound_to 10713
  140.3188  134.2940  155.7250 LP  0  0  0  0  0  0  0  0  0  0  0  0  # atno 17394 bound_to 11000
  141.2112  133.7697  156.9882 LP  0  0  0  0  0  0  0  0  0  0  0  0  # atno 17395 bound_to 11000

$$$$
