AV-unprocessed.smi:3335|AV-procd|sdf|12844|dock2
  -GOLD-   2272019233D 1   1.00000     0.00000
 Structure written by MMmdl.
 47 48  0  0  0  0  0  0  0  0  2 V2000
  147.6045  133.7174  162.4939 C   0  0  0  0  0  0  0  0  0  0  0  0
  147.7945  134.9038  161.5932 C   0  0  0  0  0  0  0  0  0  0  0  0
  147.4982  136.2680  161.8716 C   0  0  0  0  0  0  0  0  0  0  0  0
  147.7850  137.0724  160.8616 N   0  0  0  0  0  0  0  0  0  0  0  0
  148.2748  136.2544  159.9034 N   0  0  0  0  0  0  0  0  0  0  0  0
  148.7024  136.7998  158.6214 C   0  0  1  0  0  0  0  0  0  0  0  0
  147.4852  137.3466  157.8505 C   0  0  0  0  0  0  0  0  0  0  0  0
  149.8291  137.8554  158.7789 C   0  0  1  0  0  0  0  0  0  0  0  0
  151.1138  137.2705  159.4021 C   0  0  0  0  0  0  0  0  0  0  0  0
  150.1376  138.4586  157.4595 N   0  3  0  0  0  0  0  0  0  0  0  0
  151.3782  139.2674  157.3847 C   0  0  1  0  0  0  0  0  0  0  0  0
  151.8975  139.2668  155.9383 C   0  0  0  0  0  0  0  0  0  0  0  0
  151.1343  140.7164  157.8539 C   0  0  0  0  0  0  0  0  0  0  0  0
  150.2506  141.3768  157.3053 O   0  0  0  0  0  0  0  0  0  0  0  0
  151.9001  141.2309  158.8402 N   0  0  0  0  0  0  0  0  0  0  0  0
  152.9815  140.5445  159.5474 C   0  0  0  0  0  0  0  0  0  0  0  0
  153.6925  141.6224  160.3655 C   0  0  0  0  0  0  0  0  0  0  0  0
  152.6237  142.6816  160.5925 C   0  0  0  0  0  0  0  0  0  0  0  0
  151.7418  142.5935  159.3468 C   0  0  0  0  0  0  0  0  0  0  0  0
  148.2883  134.9394  160.3199 C   0  0  0  0  0  0  0  0  0  0  0  0
  146.8119  133.8865  163.2231 H   0  0  0  0  0  0  0  0  0  0  0  0
  148.5120  133.4884  163.0528 H   0  0  0  0  0  0  0  0  0  0  0  0
  147.3373  132.8220  161.9325 H   0  0  0  0  0  0  0  0  0  0  0  0
  147.0854  136.6950  162.7738 H   0  0  0  0  0  0  0  0  0  0  0  0
  149.1046  135.9630  158.0478 H   0  0  0  0  0  0  0  0  0  0  0  0
  147.7491  137.6329  156.8325 H   0  0  0  0  0  0  0  0  0  0  0  0
  147.0618  138.2241  158.3406 H   0  0  0  0  0  0  0  0  0  0  0  0
  146.6982  136.5950  157.7797 H   0  0  0  0  0  0  0  0  0  0  0  0
  149.4581  138.6376  159.4433 H   0  0  0  0  0  0  0  0  0  0  0  0
  150.9384  136.8858  160.4068 H   0  0  0  0  0  0  0  0  0  0  0  0
  151.8992  138.0207  159.4905 H   0  0  0  0  0  0  0  0  0  0  0  0
  151.5063  136.4518  158.7982 H   0  0  0  0  0  0  0  0  0  0  0  0
  150.1891  137.7133  156.7804 H   0  0  0  0  0  0  0  0  0  0  0  0
  152.1269  138.7871  158.0125 H   0  0  0  0  0  0  0  0  0  0  0  0
  152.8199  139.8403  155.8418 H   0  0  0  0  0  0  0  0  0  0  0  0
  151.1681  139.6967  155.2503 H   0  0  0  0  0  0  0  0  0  0  0  0
  152.1106  138.2519  155.6012 H   0  0  0  0  0  0  0  0  0  0  0  0
  152.5516  139.7905  160.2081 H   0  0  0  0  0  0  0  0  0  0  0  0
  153.6780  140.0491  158.8702 H   0  0  0  0  0  0  0  0  0  0  0  0
  154.1140  141.2396  161.2955 H   0  0  0  0  0  0  0  0  0  0  0  0
  154.5084  142.0477  159.7794 H   0  0  0  0  0  0  0  0  0  0  0  0
  152.0372  142.4244  161.4756 H   0  0  0  0  0  0  0  0  0  0  0  0
  153.0401  143.6775  160.7467 H   0  0  0  0  0  0  0  0  0  0  0  0
  152.0838  143.2967  158.5860 H   0  0  0  0  0  0  0  0  0  0  0  0
  150.7022  142.8272  159.5816 H   0  0  0  0  0  0  0  0  0  0  0  0
  148.6464  134.1438  159.6830 H   0  0  0  0  0  0  0  0  0  0  0  0
  149.3736  139.0696  157.2065 H   0  0  0  0  0  0  0  0  0  0  0  0
  1  2  1  0  0  0  0
  1 21  1  0  0  0  0
  1 22  1  0  0  0  0
  1 23  1  0  0  0  0
  2 20  2  0  0  0  0
  2  3  1  0  0  0  0
  3  4  2  0  0  0  0
  3 24  1  0  0  0  0
  4  5  1  0  0  0  0
  5  6  1  0  0  0  0
  5 20  1  0  0  0  0
  6  7  1  0  0  0  0
  6  8  1  0  0  0  0
  6 25  1  0  0  0  0
  7 26  1  0  0  0  0
  7 27  1  0  0  0  0
  7 28  1  0  0  0  0
  8  9  1  0  0  0  0
  8 10  1  0  0  0  0
  8 29  1  0  0  0  0
  9 30  1  0  0  0  0
  9 31  1  0  0  0  0
  9 32  1  0  0  0  0
 10 11  1  0  0  0  0
 10 33  1  0  0  0  0
 10 47  1  0  0  0  0
 11 12  1  0  0  0  0
 11 13  1  0  0  0  0
 11 34  1  0  0  0  0
 12 35  1  0  0  0  0
 12 36  1  0  0  0  0
 12 37  1  0  0  0  0
 13 14  2  0  0  0  0
 13 15  1  0  0  0  0
 15 19  1  0  0  0  0
 15 16  1  0  0  0  0
 16 17  1  0  0  0  0
 16 38  1  0  0  0  0
 16 39  1  0  0  0  0
 17 18  1  0  0  0  0
 17 40  1  0  0  0  0
 17 41  1  0  0  0  0
 18 19  1  0  0  0  0
 18 42  1  0  0  0  0
 18 43  1  0  0  0  0
 19 44  1  0  0  0  0
 19 45  1  0  0  0  0
 20 46  1  0  0  0  0
M  CHG  1  10   1
M  END
> <s_m_source_file>
AV-unprocessed.smi

> <i_m_source_file_index>
3335

> <i_lp_mmshare_version>
43012

> <i_f3d_flags>
0

> <s_epik_input>
W0NIM11jMVtjSF1ubihbY0hdMSlbQ0BIXShbQ0gzXSlbQ0BIXShbQ0gzXSlbTkhdW0NASF0oW0NIM10pQyg9TylOMltDSDJdW0NIMl1bQ0gyXVtDSDJdMg==

> <s_epik_cmdline>
J2VwaWtfcHl0aG9uJywgJy1waCcsICc3LjAnLCAnLXRuJywgJzgnLCAnLW1hJywgJzIwMCcsICctbWV0YWxfYmluZGluZycsICctaW1hZScsICc8aW5maWxlLm1hZT4nLCAnLW9tYWUnLCAnPG91dGZpbGUubWFlPic=

> <r_lp_tautomer_probability>
1

> <r_epik_Ionization_Penalty>
0.14175

> <r_epik_Ionization_Penalty_Charging>
0.141731

> <r_epik_Ionization_Penalty_Neutral>
1.91261e-05

> <r_epik_State_Penalty>
0.131043

> <r_epik_Charging_Adjusted_Penalty>
0.272773

> <i_epik_Tot_Q>
1

> <i_epik_Tot_abs_Q>
1

> <r_epik_Metal_State_Penalty>
0.131408

> <b_epik_Metal_Only>
0

> <s_lp_Force_Field>
OPLS_2005

> <r_lp_Energy>
36.0865

> <b_lp_Chiralities_Consistent>
1

> <s_lp_Variant>
AV-unprocessed.smi:3335-8

> <Gold.Version>
5.8.1

> <Gold.Id.Protein>
6NUR|6NUR_protein|mol2

> <Gold.PLP.Fitness>
43.6284

> <Gold.PLP.PLP>
-39.2614

> <Gold.PLP.part.hbond>
-2.0000

> <Gold.PLP.part.metal>
0.0000

> <Gold.PLP.part.buried>
-4.2552

> <Gold.PLP.part.nonpolar>
-34.3202

> <Gold.PLP.part.repulsive>
0.1072

> <Gold.PLP.ligand.clash>
0.0000

> <Gold.PLP.ligand.torsion>
0.5395

> <Gold.PLP.Chemscore.Hbond>
1.7920

> <Gold.PLP.Chemscore.CHOScore>
0.0000

> <Gold.PLP.Chemscore.Metal>
0.0000

> <Gold.Chemscore.Hbonds>
donor molecule, donor type, donor heavy atom, donor atom, acceptor molecule, acceptor atom, score
      P1  H  6931  6943       L1     4  0.73
      P1  H  6934  6947       L1     4  0.86

> <Gold.PLP.Chemscore.Internal.Correction>
0.0700

> <Gold.Rescore>
     Score         DG    S(hbond)    S(metal)    S(lipo)     H(rot)  DE(clash)    DE(int)     intcor
     16.09     -16.79       1.44        0.00      92.26       1.68       0.06       0.64       ----

> <Gold.Chemscore.Fitness>
16.0895

> <Gold.Chemscore.DG>
-16.7864

> <Gold.Chemscore.ZeroCoef>
-5.4800

> <Gold.Chemscore.Hbond>
1.4393

> <Gold.Chemscore.Metal>
0.0000

> <Gold.Chemscore.Lipo>
92.2594

> <Gold.Chemscore.Internal_Hbond>
0.0000

> <Gold.Chemscore.DEClash>
0.0572

> <Gold.Chemscore.DEInternal>
0.6396

> <Gold.Chemscore.Rot>
1.6778

> <Gold.Chemscore.Internal.Correction>
   9.000000E+99

> <Gold.Chemscore.Hbonds>
donor molecule, donor type, donor heavy atom, donor atom, acceptor molecule, acceptor atom, score
      P1  H  6931  6943       L1     4  0.10
      P1  H  6934  6947       L1     4  0.78

> <Gold.Chemscore.Hbond.Weighted>
-4.8072

> <Gold.Chemscore.Metal.Weighted>
-0.0000

> <Gold.Chemscore.Lipo.Weighted>
-10.7943

> <Gold.Chemscore.Internal_Hbond.Weighted>
0.0000

> <Gold.Chemscore.DEClash.Weighted>
0.0572

> <Gold.Chemscore.DEInternal.Weighted>
0.6396

> <Gold.Chemscore.Rot.Weighted>
4.2952

> <Gold.Chemscore.Internal.Correction.Weighted>
   9.000000E+99

> <Gold.Protein.RotatedTorsions>
[ 6907 6896 6895 6894 ] final  146.55 input  -60.11 | X-H torsion
[ 7974 7965 7964 7962 ] final  122.86 input  175.53 | X-H torsion
[ 8008 7997 7996 7995 ] final  -95.53 input   59.86 | X-H torsion
[ 10167 10162 10161 10158 ] final   80.18 input  -65.29 | X-H torsion
[ 10718 10713 10712 10709 ] final  111.90 input   66.30 | X-H torsion
[ 10763 10752 10751 10750 ] final  -92.05 input  -60.55 | X-H torsion
[ 11005 11000 10999 10996 ] final  -93.59 input  -57.11 | X-H torsion

> <Gold.Protein.ActiveResidues>
 VAL166  LYS551  ARG553  GLY616  TRP617  ASP618  TYR619  PRO620  LYS621  CYS622 
 ASP623  PHE694  ASN695  SER759  ASP760  ASP761  ALA762  ILE779  LEU786  VAL792 
 PHE793  MET794  SER795  GLU796  ALA797  LYS798  CYS799  TRP800  GLU811  SER814 

> <Gold.Protein.RotatedAtoms>
  152.1664  133.4615  159.4886 H   0  0  0  0  0  0  0  0  0  0  0  0  # atno 6907 bound_to 6896
  150.6913  134.2007  159.4330 H   0  0  0  0  0  0  0  0  0  0  0  0  # atno 6908 bound_to 6896
  151.9912  134.9978  160.0612 H   0  0  0  0  0  0  0  0  0  0  0  0  # atno 6909 bound_to 6896
  145.1026  139.3508  143.4804 H   0  0  0  0  0  0  0  0  0  0  0  0  # atno 7974 bound_to 7965
  154.7625  140.0479  157.0985 H   0  0  0  0  0  0  0  0  0  0  0  0  # atno 8008 bound_to 7997
  154.9920  140.3114  155.4883 H   0  0  0  0  0  0  0  0  0  0  0  0  # atno 8009 bound_to 7997
  156.2907  140.2217  156.5025 H   0  0  0  0  0  0  0  0  0  0  0  0  # atno 8010 bound_to 7997
  139.9525  144.6016  150.8147 H   0  0  0  0  0  0  0  0  0  0  0  0  # atno 10167 bound_to 10162
  157.6421  131.0958  150.6816 H   0  0  0  0  0  0  0  0  0  0  0  0  # atno 10718 bound_to 10713
  154.6822  135.5245  153.8278 H   0  0  0  0  0  0  0  0  0  0  0  0  # atno 10763 bound_to 10752
  153.0572  135.6555  154.0558 H   0  0  0  0  0  0  0  0  0  0  0  0  # atno 10764 bound_to 10752
  154.0443  135.2974  155.3330 H   0  0  0  0  0  0  0  0  0  0  0  0  # atno 10765 bound_to 10752
  141.1493  133.7898  157.0181 H   0  0  0  0  0  0  0  0  0  0  0  0  # atno 11005 bound_to 11000
  146.3529  140.0910  142.8612 LP  0  0  0  0  0  0  0  0  0  0  0  0  # atno 17320 bound_to 7965
  145.0938  140.9301  143.4753 LP  0  0  0  0  0  0  0  0  0  0  0  0  # atno 17321 bound_to 7965
  140.7578  143.3094  151.2881 LP  0  0  0  0  0  0  0  0  0  0  0  0  # atno 17342 bound_to 10162
  139.6617  144.0177  152.2696 LP  0  0  0  0  0  0  0  0  0  0  0  0  # atno 17343 bound_to 10162
  156.7139  130.4660  149.5540 LP  0  0  0  0  0  0  0  0  0  0  0  0  # atno 17370 bound_to 10713
  156.1711  130.6438  151.0839 LP  0  0  0  0  0  0  0  0  0  0  0  0  # atno 17371 bound_to 10713
  140.0834  134.9635  157.1661 LP  0  0  0  0  0  0  0  0  0  0  0  0  # atno 17394 bound_to 11000
  140.3545  134.2562  155.7194 LP  0  0  0  0  0  0  0  0  0  0  0  0  # atno 17395 bound_to 11000

$$$$
