AV-unprocessed.smi:2675|AV-procd|sdf|10362|dock8
  -GOLD-   2272014393D 1   1.00000     0.00000
 Structure written by MMmdl.
 36 37  0  0  0  0  0  0  0  0  1 V2000
  152.4901  143.7993  162.2393 C   0  0  0  0  0  0  0  0  0  0  0  0
  151.9332  144.0794  160.8781 C   0  0  0  0  0  0  0  0  0  0  0  0
  150.8514  144.9388  160.7015 N   0  0  0  0  0  0  0  0  0  0  0  0
  150.6508  144.9295  159.3914 C   0  0  0  0  0  0  0  0  0  0  0  0
  151.4919  144.1439  158.7042 N   0  0  0  0  0  0  0  0  0  0  0  0
  151.4891  143.9214  157.2665 C   0  0  0  0  0  0  0  0  0  0  0  0
  151.0224  142.5040  156.9315 C   0  0  0  0  0  0  0  0  0  0  0  0
  151.6658  141.5378  157.3380 O   0  0  0  0  0  0  0  0  0  0  0  0
  149.8888  142.4076  156.2144 N   0  0  0  0  0  0  0  0  0  0  0  0
  149.1362  141.2034  155.8439 C   0  0  1  0  0  0  0  0  0  0  0  0
  147.9218  141.6934  155.0378 C   0  0  0  0  0  0  0  0  0  0  0  0
  149.9217  140.3065  154.9732 C   0  0  0  0  0  0  0  0  0  0  0  0
  150.5405  139.6055  154.2908 N   0  0  0  0  0  0  0  0  0  0  0  0
  148.6306  140.3760  157.0284 C   0  0  0  0  0  0  0  0  0  0  0  0
  149.5074  139.3724  157.7460 C   0  0  0  0  0  0  0  0  0  0  0  0
  148.3085  138.8992  156.9546 C   0  0  0  0  0  0  0  0  0  0  0  0
  152.3403  143.5832  159.6578 C   0  0  0  0  0  0  0  0  0  0  0  0
  153.4442  142.6322  159.3228 C   0  0  0  0  0  0  0  0  0  0  0  0
  153.5698  143.9473  162.2607 H   0  0  0  0  0  0  0  0  0  0  0  0
  152.2904  142.7705  162.5392 H   0  0  0  0  0  0  0  0  0  0  0  0
  152.0543  144.4542  162.9945 H   0  0  0  0  0  0  0  0  0  0  0  0
  149.8643  145.5009  158.9205 H   0  0  0  0  0  0  0  0  0  0  0  0
  150.8300  144.6481  156.7901 H   0  0  0  0  0  0  0  0  0  0  0  0
  152.4930  144.0940  156.8766 H   0  0  0  0  0  0  0  0  0  0  0  0
  149.4631  143.2798  155.9363 H   0  0  0  0  0  0  0  0  0  0  0  0
  147.3127  140.8577  154.6911 H   0  0  0  0  0  0  0  0  0  0  0  0
  148.2312  142.2573  154.1569 H   0  0  0  0  0  0  0  0  0  0  0  0
  147.2805  142.3409  155.6376 H   0  0  0  0  0  0  0  0  0  0  0  0
  147.9586  140.9438  157.6700 H   0  0  0  0  0  0  0  0  0  0  0  0
  150.4917  139.1543  157.3363 H   0  0  0  0  0  0  0  0  0  0  0  0
  149.4397  139.3345  158.8313 H   0  0  0  0  0  0  0  0  0  0  0  0
  147.4459  138.5482  157.5170 H   0  0  0  0  0  0  0  0  0  0  0  0
  148.5045  138.3588  156.0330 H   0  0  0  0  0  0  0  0  0  0  0  0
  154.0003  142.3445  160.2151 H   0  0  0  0  0  0  0  0  0  0  0  0
  154.1474  143.0838  158.6229 H   0  0  0  0  0  0  0  0  0  0  0  0
  153.0507  141.7229  158.8688 H   0  0  0  0  0  0  0  0  0  0  0  0
  1  2  1  0  0  0  0
  1 19  1  0  0  0  0
  1 20  1  0  0  0  0
  1 21  1  0  0  0  0
  2 17  2  0  0  0  0
  2  3  1  0  0  0  0
  3  4  2  0  0  0  0
  4  5  1  0  0  0  0
  4 22  1  0  0  0  0
  5  6  1  0  0  0  0
  5 17  1  0  0  0  0
  6  7  1  0  0  0  0
  6 23  1  0  0  0  0
  6 24  1  0  0  0  0
  7  8  2  0  0  0  0
  7  9  1  0  0  0  0
  9 10  1  0  0  0  0
  9 25  1  0  0  0  0
 10 11  1  0  0  0  0
 10 12  1  0  0  0  0
 10 14  1  0  0  0  0
 11 26  1  0  0  0  0
 11 27  1  0  0  0  0
 11 28  1  0  0  0  0
 12 13  3  0  0  0  0
 14 16  1  0  0  0  0
 14 15  1  0  0  0  0
 14 29  1  0  0  0  0
 15 16  1  0  0  0  0
 15 30  1  0  0  0  0
 15 31  1  0  0  0  0
 16 32  1  0  0  0  0
 16 33  1  0  0  0  0
 17 18  1  0  0  0  0
 18 34  1  0  0  0  0
 18 35  1  0  0  0  0
 18 36  1  0  0  0  0
M  END
> <s_m_source_file>
AV-unprocessed.smi

> <i_m_source_file_index>
2675

> <i_lp_mmshare_version>
43012

> <i_f3d_flags>
0

> <s_epik_input>
W0NIM11jMW5bY0hdbihjMVtDSDNdKVtDSDJdQyg9TylbTkhdW0NAQF0oW0NIM10pKEMjTilbQ0hdMltDSDJdW0NIMl0y

> <s_epik_cmdline>
J2VwaWtfcHl0aG9uJywgJy1waCcsICc3LjAnLCAnLXRuJywgJzgnLCAnLW1hJywgJzIwMCcsICctbWV0YWxfYmluZGluZycsICctaW1hZScsICc8aW5maWxlLm1hZT4nLCAnLW9tYWUnLCAnPG91dGZpbGUubWFlPic=

> <r_lp_tautomer_probability>
1

> <r_epik_Ionization_Penalty>
0.876174

> <r_epik_Ionization_Penalty_Charging>
0.876172

> <r_epik_Ionization_Penalty_Neutral>
2.64295e-06

> <r_epik_State_Penalty>
0.913958

> <r_epik_Charging_Adjusted_Penalty>
1.79013

> <i_epik_Tot_Q>
0

> <i_epik_Tot_abs_Q>
0

> <r_epik_Metal_State_Penalty>
0.359336

> <b_epik_Metal_Only>
0

> <s_lp_Force_Field>
OPLS_2005

> <r_lp_Energy>
14.5701

> <b_lp_Chiralities_Consistent>
1

> <s_lp_Variant>
AV-unprocessed.smi:2675-3

> <Gold.Version>
5.8.1

> <Gold.Id.Protein>
6NUR|6NUR_protein|mol2

> <Gold.PLP.Fitness>
44.9974

> <Gold.PLP.PLP>
-36.4793

> <Gold.PLP.part.hbond>
-2.0000

> <Gold.PLP.part.metal>
0.0000

> <Gold.PLP.part.buried>
-3.0144

> <Gold.PLP.part.nonpolar>
-33.2026

> <Gold.PLP.part.repulsive>
1.0340

> <Gold.PLP.ligand.clash>
0.0000

> <Gold.PLP.ligand.torsion>
0.8550

> <Gold.PLP.Chemscore.Hbond>
2.0000

> <Gold.PLP.Chemscore.CHOScore>
0.9049

> <Gold.PLP.Chemscore.Metal>
0.0000

> <Gold.Chemscore.Hbonds>
donor molecule, donor type, donor heavy atom, donor atom, acceptor molecule, acceptor atom, score
      L1  H     9    25       P1  8028  1.00
      P1  H  7989  7998       L1    13  0.95
      L1  C     4    22       P1  8029  0.85

> <Gold.PLP.Chemscore.Internal.Correction>
1.5135

> <Gold.Rescore>
     Score         DG    S(hbond)    S(metal)    S(lipo)     H(rot)  DE(clash)    DE(int)     intcor
     11.60     -13.81       1.14        0.00      76.86       1.74       0.11       2.10       ----

> <Gold.Chemscore.Fitness>
11.5973

> <Gold.Chemscore.DG>
-13.8119

> <Gold.Chemscore.ZeroCoef>
-5.4800

> <Gold.Chemscore.Hbond>
1.1379

> <Gold.Chemscore.Metal>
0.0000

> <Gold.Chemscore.Lipo>
76.8620

> <Gold.Chemscore.Internal_Hbond>
0.0000

> <Gold.Chemscore.DEClash>
0.1125

> <Gold.Chemscore.DEInternal>
2.1021

> <Gold.Chemscore.Rot>
1.7429

> <Gold.Chemscore.Internal.Correction>
   9.000000E+99

> <Gold.Chemscore.Hbonds>
donor molecule, donor type, donor heavy atom, donor atom, acceptor molecule, acceptor atom, score
      L1  H     9    25       P1  8028  0.97
      P1  H  7989  7998       L1    13  0.22

> <Gold.Chemscore.Hbond.Weighted>
-3.8007

> <Gold.Chemscore.Metal.Weighted>
-0.0000

> <Gold.Chemscore.Lipo.Weighted>
-8.9929

> <Gold.Chemscore.Internal_Hbond.Weighted>
0.0000

> <Gold.Chemscore.DEClash.Weighted>
0.1125

> <Gold.Chemscore.DEInternal.Weighted>
2.1021

> <Gold.Chemscore.Rot.Weighted>
4.4617

> <Gold.Chemscore.Internal.Correction.Weighted>
   9.000000E+99

> <Gold.Protein.RotatedTorsions>
[ 6907 6896 6895 6894 ] final   55.94 input  -60.11 | X-H torsion
[ 7974 7965 7964 7962 ] final -133.88 input  175.53 | X-H torsion
[ 8008 7997 7996 7995 ] final   85.38 input   59.86 | X-H torsion
[ 10167 10162 10161 10158 ] final  -23.60 input  -65.29 | X-H torsion
[ 10718 10713 10712 10709 ] final -117.04 input   66.30 | X-H torsion
[ 10763 10752 10751 10750 ] final -108.08 input  -60.55 | X-H torsion
[ 11005 11000 10999 10996 ] final  -38.60 input  -57.11 | X-H torsion

> <Gold.Protein.ActiveResidues>
 VAL166  LYS551  ARG553  GLY616  TRP617  ASP618  TYR619  PRO620  LYS621  CYS622 
 ASP623  PHE694  ASN695  SER759  ASP760  ASP761  ALA762  ILE779  LEU786  VAL792 
 PHE793  MET794  SER795  GLU796  ALA797  LYS798  CYS799  TRP800  GLU811  SER814 

> <Gold.Protein.RotatedAtoms>
  152.3587  134.6903  160.0213 H   0  0  0  0  0  0  0  0  0  0  0  0  # atno 6907 bound_to 6896
  151.7233  133.3310  159.3329 H   0  0  0  0  0  0  0  0  0  0  0  0  # atno 6908 bound_to 6896
  150.7590  134.6363  159.6257 H   0  0  0  0  0  0  0  0  0  0  0  0  # atno 6909 bound_to 6896
  144.9153  140.6947  143.4999 H   0  0  0  0  0  0  0  0  0  0  0  0  # atno 7974 bound_to 7965
  155.9493  140.3402  155.6394 H   0  0  0  0  0  0  0  0  0  0  0  0  # atno 8008 bound_to 7997
  155.6940  140.0752  157.2455 H   0  0  0  0  0  0  0  0  0  0  0  0  # atno 8009 bound_to 7997
  154.4118  140.1652  156.2105 H   0  0  0  0  0  0  0  0  0  0  0  0  # atno 8010 bound_to 7997
  140.7288  143.4428  151.0631 H   0  0  0  0  0  0  0  0  0  0  0  0  # atno 10167 bound_to 10162
  156.1006  130.6168  150.9113 H   0  0  0  0  0  0  0  0  0  0  0  0  # atno 10718 bound_to 10713
  154.8114  135.4651  154.0527 H   0  0  0  0  0  0  0  0  0  0  0  0  # atno 10763 bound_to 10752
  153.1955  135.6861  153.8305 H   0  0  0  0  0  0  0  0  0  0  0  0  # atno 10764 bound_to 10752
  153.7808  135.3257  155.3342 H   0  0  0  0  0  0  0  0  0  0  0  0  # atno 10765 bound_to 10752
  141.0039  133.6941  156.2074 H   0  0  0  0  0  0  0  0  0  0  0  0  # atno 11005 bound_to 11000
  145.3386  139.1739  143.4498 LP  0  0  0  0  0  0  0  0  0  0  0  0  # atno 17320 bound_to 7965
  146.3179  140.3424  142.8649 LP  0  0  0  0  0  0  0  0  0  0  0  0  # atno 17321 bound_to 7965
  139.8097  143.7968  152.3170 LP  0  0  0  0  0  0  0  0  0  0  0  0  # atno 17342 bound_to 10162
  139.8013  144.7373  150.9820 LP  0  0  0  0  0  0  0  0  0  0  0  0  # atno 17343 bound_to 10162
  157.6175  131.0932  150.8684 LP  0  0  0  0  0  0  0  0  0  0  0  0  # atno 17370 bound_to 10713
  156.8813  130.5180  149.5291 LP  0  0  0  0  0  0  0  0  0  0  0  0  # atno 17371 bound_to 10713
  140.6844  134.4733  157.5589 LP  0  0  0  0  0  0  0  0  0  0  0  0  # atno 17394 bound_to 11000
  139.9053  134.8463  156.1730 LP  0  0  0  0  0  0  0  0  0  0  0  0  # atno 17395 bound_to 11000

$$$$
