AV-unprocessed.smi:13|AV-procd|sdf|71|dock6
  -GOLD-   2262015193D 1   1.00000     0.00000
 Structure written by MMmdl.
 54 58  0  0  0  0  0  0  0  0  1 V2000
  148.4164  141.4866  154.0311 C   0  0  0  0  0  0  0  0  0  0  0  0
  148.6374  140.4571  155.1390 C   0  0  0  0  0  0  0  0  0  0  0  0
  149.5378  141.1256  156.1873 C   0  0  0  0  0  0  0  0  0  0  0  0
  147.3679  139.8014  155.7039 C   0  0  0  0  0  0  0  0  0  0  0  0
  148.0993  138.5469  155.6965 N   0  0  0  0  0  0  0  0  0  0  0  0
  147.2905  137.4093  155.4092 C   0  0  0  0  0  0  0  0  0  0  0  0
  147.1533  136.4041  156.3149 N   0  0  0  0  0  0  0  0  0  0  0  0
  146.3884  135.3401  156.0560 C   0  0  0  0  0  0  0  0  0  0  0  0
  145.6721  135.0754  154.9631 N   0  0  0  0  0  0  0  0  0  0  0  0
  145.7921  136.0769  154.0468 C   0  0  0  0  0  0  0  0  0  0  0  0
  146.5663  137.2634  154.1918 C   0  0  0  0  0  0  0  0  0  0  0  0
  146.4337  138.0538  153.0564 N   0  0  0  0  0  0  0  0  0  0  0  0
  145.6348  137.3713  152.2828 C   0  0  0  0  0  0  0  0  0  0  0  0
  145.2083  136.1672  152.7953 N   0  0  0  0  0  0  0  0  0  0  0  0
  144.3260  135.2100  152.1457 C   0  0  0  0  0  0  0  0  0  0  0  0
  144.9498  134.5590  150.8895 C   0  0  1  0  0  0  0  0  0  0  0  0
  145.1336  135.5550  149.8979 O   0  0  0  0  0  0  0  0  0  0  0  0
  146.2895  133.8734  151.1418 C   0  0  0  0  0  0  0  0  0  0  0  0
  146.2788  132.7278  150.1399 C   0  0  0  0  0  0  0  0  0  0  0  0
  144.9323  132.2884  150.1895 O   0  0  0  0  0  0  0  0  0  0  0  0
  144.0869  133.4300  150.2912 C   0  0  0  0  0  0  0  0  0  0  0  0
  149.0111  139.0316  154.6658 C   0  0  2  0  0  0  0  0  0  0  0  0
  150.4314  138.4779  154.8236 C   0  0  2  0  0  0  0  0  0  0  0  0
  150.8488  138.2516  156.2775 C   0  0  0  0  0  0  0  0  0  0  0  0
  152.3636  138.3917  156.2514 C   0  0  0  0  0  0  0  0  0  0  0  0
  152.6592  138.9960  154.8773 C   0  0  0  0  0  0  0  0  0  0  0  0
  151.3964  139.4236  154.3911 O   0  0  0  0  0  0  0  0  0  0  0  0
  147.9423  142.3913  154.4128 H   0  0  0  0  0  0  0  0  0  0  0  0
  147.7726  141.0935  153.2438 H   0  0  0  0  0  0  0  0  0  0  0  0
  149.3571  141.7774  153.5623 H   0  0  0  0  0  0  0  0  0  0  0  0
  149.7898  140.4427  156.9991 H   0  0  0  0  0  0  0  0  0  0  0  0
  149.0455  141.9872  156.6395 H   0  0  0  0  0  0  0  0  0  0  0  0
  150.4743  141.4777  155.7560 H   0  0  0  0  0  0  0  0  0  0  0  0
  147.0833  140.1403  156.7005 H   0  0  0  0  0  0  0  0  0  0  0  0
  146.5267  139.8084  155.0078 H   0  0  0  0  0  0  0  0  0  0  0  0
  146.3443  134.5956  156.8373 H   0  0  0  0  0  0  0  0  0  0  0  0
  145.3374  137.7264  151.3068 H   0  0  0  0  0  0  0  0  0  0  0  0
  144.0598  134.4422  152.8734 H   0  0  0  0  0  0  0  0  0  0  0  0
  143.3969  135.7196  151.8870 H   0  0  0  0  0  0  0  0  0  0  0  0
  145.4384  135.1370  149.1069 H   0  0  0  0  0  0  0  0  0  0  0  0
  147.1514  134.5335  151.0357 H   0  0  0  0  0  0  0  0  0  0  0  0
  146.3149  133.4533  152.1476 H   0  0  0  0  0  0  0  0  0  0  0  0
  146.5167  133.0808  149.1354 H   0  0  0  0  0  0  0  0  0  0  0  0
  146.9736  131.9295  150.4017 H   0  0  0  0  0  0  0  0  0  0  0  0
  143.2313  133.1833  150.9207 H   0  0  0  0  0  0  0  0  0  0  0  0
  143.7002  133.6868  149.3035 H   0  0  0  0  0  0  0  0  0  0  0  0
  148.6037  138.8611  153.6672 H   0  0  0  0  0  0  0  0  0  0  0  0
  150.5644  137.5551  154.2558 H   0  0  0  0  0  0  0  0  0  0  0  0
  150.4225  139.0271  156.9155 H   0  0  0  0  0  0  0  0  0  0  0  0
  150.5264  137.2860  156.6655 H   0  0  0  0  0  0  0  0  0  0  0  0
  152.7040  139.0438  157.0563 H   0  0  0  0  0  0  0  0  0  0  0  0
  152.8614  137.4283  156.3653 H   0  0  0  0  0  0  0  0  0  0  0  0
  153.3655  139.8251  154.9253 H   0  0  0  0  0  0  0  0  0  0  0  0
  153.0652  138.2400  154.2039 H   0  0  0  0  0  0  0  0  0  0  0  0
  1  2  1  0  0  0  0
  1 28  1  0  0  0  0
  1 29  1  0  0  0  0
  1 30  1  0  0  0  0
  2 22  1  0  0  0  0
  2  3  1  0  0  0  0
  2  4  1  0  0  0  0
  3 31  1  0  0  0  0
  3 32  1  0  0  0  0
  3 33  1  0  0  0  0
  4  5  1  0  0  0  0
  4 34  1  0  0  0  0
  4 35  1  0  0  0  0
  5  6  1  0  0  0  0
  5 22  1  0  0  0  0
  6 11  1  0  0  0  0
  6  7  2  0  0  0  0
  7  8  1  0  0  0  0
  8  9  2  0  0  0  0
  8 36  1  0  0  0  0
  9 10  1  0  0  0  0
 10 14  1  0  0  0  0
 10 11  2  0  0  0  0
 11 12  1  0  0  0  0
 12 13  2  0  0  0  0
 13 14  1  0  0  0  0
 13 37  1  0  0  0  0
 14 15  1  0  0  0  0
 15 16  1  0  0  0  0
 15 38  1  0  0  0  0
 15 39  1  0  0  0  0
 16 21  1  0  0  0  0
 16 17  1  0  0  0  0
 16 18  1  0  0  0  0
 17 40  1  0  0  0  0
 18 19  1  0  0  0  0
 18 41  1  0  0  0  0
 18 42  1  0  0  0  0
 19 20  1  0  0  0  0
 19 43  1  0  0  0  0
 19 44  1  0  0  0  0
 20 21  1  0  0  0  0
 21 45  1  0  0  0  0
 21 46  1  0  0  0  0
 22 23  1  0  0  0  0
 22 47  1  0  0  0  0
 23 27  1  0  0  0  0
 23 24  1  0  0  0  0
 23 48  1  0  0  0  0
 24 25  1  0  0  0  0
 24 49  1  0  0  0  0
 24 50  1  0  0  0  0
 25 26  1  0  0  0  0
 25 51  1  0  0  0  0
 25 52  1  0  0  0  0
 26 27  1  0  0  0  0
 26 53  1  0  0  0  0
 26 54  1  0  0  0  0
M  END
> <s_m_source_file>
AV-unprocessed.smi

> <i_m_source_file_index>
13

> <i_lp_mmshare_version>
43012

> <i_f3d_flags>
0

> <s_epik_input>
TzFbQ0gyXVtDSDJdW0NIMl1bQ0BIXTFbQ0BASF0yTihbQ0gyXUMyKFtDSDNdKVtDSDNdKWMobltjSF1uMyljKGMzNCluW2NIXW40W0NIMl1bQ0BAXTUoW09IXSlbQ0gyXVtDSDJdT1tDSDJdNQ==

> <s_epik_cmdline>
J2VwaWtfcHl0aG9uJywgJy1waCcsICc3LjAnLCAnLXRuJywgJzgnLCAnLW1hJywgJzIwMCcsICctbWV0YWxfYmluZGluZycsICctaW1hZScsICc8aW5maWxlLm1hZT4nLCAnLW9tYWUnLCAnPG91dGZpbGUubWFlPic=

> <r_lp_tautomer_probability>
1

> <r_epik_Ionization_Penalty>
0.00202764

> <r_epik_Ionization_Penalty_Charging>
0

> <r_epik_Ionization_Penalty_Neutral>
0.00202764

> <r_epik_State_Penalty>
0.00134017

> <r_epik_Charging_Adjusted_Penalty>
0.00134017

> <i_epik_Tot_Q>
0

> <i_epik_Tot_abs_Q>
0

> <r_epik_Metal_State_Penalty>
-0

> <b_epik_Metal_Only>
0

> <s_lp_Force_Field>
OPLS_2005

> <r_lp_Energy>
61.7559

> <b_lp_Chiralities_Consistent>
1

> <s_lp_Variant>
AV-unprocessed.smi:13-3

> <Gold.Version>
5.8.1

> <Gold.Id.Protein>
6NUR|6NUR_protein|mol2

> <Gold.PLP.Fitness>
40.7286

> <Gold.PLP.PLP>
-32.6635

> <Gold.PLP.part.hbond>
-2.1134

> <Gold.PLP.part.metal>
0.0000

> <Gold.PLP.part.buried>
-5.1037

> <Gold.PLP.part.nonpolar>
-26.9687

> <Gold.PLP.part.repulsive>
0.5724

> <Gold.PLP.ligand.clash>
0.0000

> <Gold.PLP.ligand.torsion>
0.6695

> <Gold.PLP.Chemscore.Hbond>
2.0000

> <Gold.PLP.Chemscore.CHOScore>
1.0000

> <Gold.PLP.Chemscore.Metal>
0.0000

> <Gold.Chemscore.Hbonds>
donor molecule, donor type, donor heavy atom, donor atom, acceptor molecule, acceptor atom, score
      L1  H    17    40       P1  7921  1.00
      P1  H  7989  7998       L1    27  1.00
      L1  C    13    37       P1 10171  1.00

> <Gold.PLP.Chemscore.Internal.Correction>
0.4040

> <Gold.Rescore>
     Score         DG    S(hbond)    S(metal)    S(lipo)     H(rot)  DE(clash)    DE(int)     intcor
     15.23     -16.05       1.95        0.00      85.15       2.30       0.17       0.65       ----

> <Gold.Chemscore.Fitness>
15.2258

> <Gold.Chemscore.DG>
-16.0538

> <Gold.Chemscore.ZeroCoef>
-5.4800

> <Gold.Chemscore.Hbond>
1.9454

> <Gold.Chemscore.Metal>
0.0000

> <Gold.Chemscore.Lipo>
85.1533

> <Gold.Chemscore.Internal_Hbond>
0.0000

> <Gold.Chemscore.DEClash>
0.1739

> <Gold.Chemscore.DEInternal>
0.6541

> <Gold.Chemscore.Rot>
2.2996

> <Gold.Chemscore.Internal.Correction>
   9.000000E+99

> <Gold.Chemscore.Hbonds>
donor molecule, donor type, donor heavy atom, donor atom, acceptor molecule, acceptor atom, score
      L1  H    17    40       P1  7921  1.00
      P1  H  7989  7998       L1    27  0.60

> <Gold.Chemscore.Hbond.Weighted>
-6.4978

> <Gold.Chemscore.Metal.Weighted>
-0.0000

> <Gold.Chemscore.Lipo.Weighted>
-9.9629

> <Gold.Chemscore.Internal_Hbond.Weighted>
0.0000

> <Gold.Chemscore.DEClash.Weighted>
0.1739

> <Gold.Chemscore.DEInternal.Weighted>
0.6541

> <Gold.Chemscore.Rot.Weighted>
5.8869

> <Gold.Chemscore.Internal.Correction.Weighted>
   9.000000E+99

> <Gold.Protein.RotatedTorsions>
[ 6907 6896 6895 6894 ] final -103.77 input  -60.11 | X-H torsion
[ 7974 7965 7964 7962 ] final   -5.16 input  175.53 | X-H torsion
[ 8008 7997 7996 7995 ] final -165.19 input   59.86 | X-H torsion
[ 10167 10162 10161 10158 ] final -140.18 input  -65.29 | X-H torsion
[ 10718 10713 10712 10709 ] final -178.75 input   66.30 | X-H torsion
[ 10763 10752 10751 10750 ] final   50.29 input  -60.55 | X-H torsion
[ 11005 11000 10999 10996 ] final   83.35 input  -57.11 | X-H torsion

> <Gold.Protein.ActiveResidues>
 VAL166  LYS551  ARG553  GLY616  TRP617  ASP618  TYR619  PRO620  LYS621  CYS622 
 ASP623  PHE694  ASN695  SER759  ASP760  ASP761  ALA762  ILE779  LEU786  VAL792 
 PHE793  MET794  SER795  GLU796  ALA797  LYS798  CYS799  TRP800  GLU811  SER814 

> <Gold.Protein.RotatedAtoms>
  150.7255  134.0379  159.3755 H   0  0  0  0  0  0  0  0  0  0  0  0  # atno 6907 bound_to 6896
  151.8351  135.0606  160.0451 H   0  0  0  0  0  0  0  0  0  0  0  0  # atno 6908 bound_to 6896
  152.2904  133.5520  159.5590 H   0  0  0  0  0  0  0  0  0  0  0  0  # atno 6909 bound_to 6896
  146.2358  140.1980  142.8333 H   0  0  0  0  0  0  0  0  0  0  0  0  # atno 7974 bound_to 7965
  155.8463  140.0956  157.1703 H   0  0  0  0  0  0  0  0  0  0  0  0  # atno 8008 bound_to 7997
  154.3983  140.1391  156.3852 H   0  0  0  0  0  0  0  0  0  0  0  0  # atno 8009 bound_to 7997
  155.8009  140.3453  155.5405 H   0  0  0  0  0  0  0  0  0  0  0  0  # atno 8010 bound_to 7997
  139.8307  143.7451  152.2666 H   0  0  0  0  0  0  0  0  0  0  0  0  # atno 10167 bound_to 10162
  156.8489  130.9712  151.3094 H   0  0  0  0  0  0  0  0  0  0  0  0  # atno 10718 bound_to 10713
  152.9785  135.5884  154.4228 H   0  0  0  0  0  0  0  0  0  0  0  0  # atno 10763 bound_to 10752
  154.3851  135.2767  155.2190 H   0  0  0  0  0  0  0  0  0  0  0  0  # atno 10764 bound_to 10752
  154.4087  135.6086  153.5994 H   0  0  0  0  0  0  0  0  0  0  0  0  # atno 10765 bound_to 10752
  139.9034  134.8138  156.2297 H   0  0  0  0  0  0  0  0  0  0  0  0  # atno 11005 bound_to 11000
  144.9805  140.8454  143.5400 LP  0  0  0  0  0  0  0  0  0  0  0  0  # atno 17320 bound_to 7965
  145.1972  139.2270  143.5211 LP  0  0  0  0  0  0  0  0  0  0  0  0  # atno 17321 bound_to 7965
  139.7658  144.7492  151.0297 LP  0  0  0  0  0  0  0  0  0  0  0  0  # atno 17342 bound_to 10162
  140.7807  143.4700  151.0159 LP  0  0  0  0  0  0  0  0  0  0  0  0  # atno 17343 bound_to 10162
  157.6314  130.8732  149.9281 LP  0  0  0  0  0  0  0  0  0  0  0  0  # atno 17370 bound_to 10713
  156.0839  130.3670  150.0526 LP  0  0  0  0  0  0  0  0  0  0  0  0  # atno 17371 bound_to 10713
  141.0353  133.6967  156.1501 LP  0  0  0  0  0  0  0  0  0  0  0  0  # atno 17394 bound_to 11000
  140.7036  134.4537  157.5585 LP  0  0  0  0  0  0  0  0  0  0  0  0  # atno 17395 bound_to 11000

$$$$
