AV-unprocessed.smi:2116|AV-procd|sdf|8625|dock3
  -GOLD-   2272011373D 1   1.00000     0.00000
 Structure written by MMmdl.
 44 45  0  0  0  0  0  0  0  0  1 V2000
  145.8786  137.4086  151.1979 C   0  0  0  0  0  0  0  0  0  0  0  0
  146.7350  138.4920  150.8820 O   0  0  0  0  0  0  0  0  0  0  0  0
  146.5680  139.5917  151.7616 C   0  0  0  0  0  0  0  0  0  0  0  0
  146.7167  139.1048  153.2061 C   0  0  0  0  0  0  0  0  0  0  0  0
  148.0899  138.8181  153.4547 O   0  0  0  0  0  0  0  0  0  0  0  0
  148.8042  139.6714  154.2703 C   0  0  0  0  0  0  0  0  0  0  0  0
  150.1502  139.3647  154.5514 C   0  0  0  0  0  0  0  0  0  0  0  0
  150.8836  140.2318  155.3828 C   0  0  0  0  0  0  0  0  0  0  0  0
  150.2567  141.3830  155.9001 C   0  0  0  0  0  0  0  0  0  0  0  0
  151.0169  142.2277  156.7532 N   0  0  0  0  0  0  0  0  0  0  0  0
  151.8990  141.8859  157.7144 C   0  0  0  0  0  0  0  0  0  0  0  0
  152.2090  140.7190  157.9586 O   0  0  0  0  0  0  0  0  0  0  0  0
  152.4570  142.9423  158.3663 N   0  0  0  0  0  0  0  0  0  0  0  0
  152.1017  144.3578  158.1216 C   0  0  0  0  0  0  0  0  0  0  0  0
  152.0777  145.2531  159.3795 C   0  0  0  0  0  0  0  0  0  0  0  0
  151.3970  144.6222  160.6084 C   0  0  0  0  0  0  0  0  0  0  0  0
  152.3557  143.7690  161.4565 C   0  0  0  0  0  0  0  0  0  0  0  0
  152.8387  142.4767  160.7789 C   0  0  0  0  0  0  0  0  0  0  0  0
  153.4793  142.7048  159.3976 C   0  0  0  0  0  0  0  0  0  0  0  0
  148.8962  141.5969  155.5704 C   0  0  0  0  0  0  0  0  0  0  0  0
  148.1869  140.7683  154.7746 N   0  0  0  0  0  0  0  0  0  0  0  0
  146.0472  136.5922  150.4958 H   0  0  0  0  0  0  0  0  0  0  0  0
  144.8303  137.7021  151.1277 H   0  0  0  0  0  0  0  0  0  0  0  0
  146.0714  137.0330  152.2037 H   0  0  0  0  0  0  0  0  0  0  0  0
  147.2921  140.3794  151.5476 H   0  0  0  0  0  0  0  0  0  0  0  0
  145.5722  140.0143  151.6210 H   0  0  0  0  0  0  0  0  0  0  0  0
  146.3835  139.8915  153.8851 H   0  0  0  0  0  0  0  0  0  0  0  0
  146.0887  138.2280  153.3731 H   0  0  0  0  0  0  0  0  0  0  0  0
  150.6110  138.4795  154.1382 H   0  0  0  0  0  0  0  0  0  0  0  0
  151.9161  140.0152  155.6157 H   0  0  0  0  0  0  0  0  0  0  0  0
  150.8070  143.2127  156.6845 H   0  0  0  0  0  0  0  0  0  0  0  0
  152.7918  144.7724  157.3859 H   0  0  0  0  0  0  0  0  0  0  0  0
  151.1064  144.4429  157.6840 H   0  0  0  0  0  0  0  0  0  0  0  0
  153.0880  145.5716  159.6392 H   0  0  0  0  0  0  0  0  0  0  0  0
  151.5508  146.1725  159.1219 H   0  0  0  0  0  0  0  0  0  0  0  0
  151.0229  145.4277  161.2411 H   0  0  0  0  0  0  0  0  0  0  0  0
  150.5210  144.0444  160.3109 H   0  0  0  0  0  0  0  0  0  0  0  0
  153.2192  144.3724  161.7392 H   0  0  0  0  0  0  0  0  0  0  0  0
  151.8608  143.5055  162.3919 H   0  0  0  0  0  0  0  0  0  0  0  0
  153.5719  142.0032  161.4322 H   0  0  0  0  0  0  0  0  0  0  0  0
  152.0133  141.7682  160.6994 H   0  0  0  0  0  0  0  0  0  0  0  0
  154.0841  141.8354  159.1333 H   0  0  0  0  0  0  0  0  0  0  0  0
  154.1932  143.5283  159.4343 H   0  0  0  0  0  0  0  0  0  0  0  0
  148.3366  142.4323  155.9609 H   0  0  0  0  0  0  0  0  0  0  0  0
  1  2  1  0  0  0  0
  1 22  1  0  0  0  0
  1 23  1  0  0  0  0
  1 24  1  0  0  0  0
  2  3  1  0  0  0  0
  3  4  1  0  0  0  0
  3 25  1  0  0  0  0
  3 26  1  0  0  0  0
  4  5  1  0  0  0  0
  4 27  1  0  0  0  0
  4 28  1  0  0  0  0
  5  6  1  0  0  0  0
  6 21  1  0  0  0  0
  6  7  2  0  0  0  0
  7  8  1  0  0  0  0
  7 29  1  0  0  0  0
  8  9  2  0  0  0  0
  8 30  1  0  0  0  0
  9 10  1  0  0  0  0
  9 20  1  0  0  0  0
 10 11  1  0  0  0  0
 10 31  1  0  0  0  0
 11 12  2  0  0  0  0
 11 13  1  0  0  0  0
 13 19  1  0  0  0  0
 13 14  1  0  0  0  0
 14 15  1  0  0  0  0
 14 32  1  0  0  0  0
 14 33  1  0  0  0  0
 15 16  1  0  0  0  0
 15 34  1  0  0  0  0
 15 35  1  0  0  0  0
 16 17  1  0  0  0  0
 16 36  1  0  0  0  0
 16 37  1  0  0  0  0
 17 18  1  0  0  0  0
 17 38  1  0  0  0  0
 17 39  1  0  0  0  0
 18 19  1  0  0  0  0
 18 40  1  0  0  0  0
 18 41  1  0  0  0  0
 19 42  1  0  0  0  0
 19 43  1  0  0  0  0
 20 21  2  0  0  0  0
 20 44  1  0  0  0  0
M  END
> <s_m_source_file>
AV-unprocessed.smi

> <i_m_source_file_index>
2116

> <i_lp_mmshare_version>
43012

> <i_f3d_flags>
0

> <s_epik_input>
W0NIM11PW0NIMl1bQ0gyXU9jMVtjSF1bY0hdYyhbY0hdbjEpW05IXUMoPU8pTjJbQ0gyXVtDSDJdW0NIMl1bQ0gyXVtDSDJdW0NIMl0y

> <s_epik_cmdline>
J2VwaWtfcHl0aG9uJywgJy1waCcsICc3LjAnLCAnLXRuJywgJzgnLCAnLW1hJywgJzIwMCcsICctbWV0YWxfYmluZGluZycsICctaW1hZScsICc8aW5maWxlLm1hZT4nLCAnLW9tYWUnLCAnPG91dGZpbGUubWFlPic=

> <r_lp_tautomer_probability>
1

> <r_epik_Ionization_Penalty>
7.94695e-05

> <r_epik_Ionization_Penalty_Charging>
0

> <r_epik_Ionization_Penalty_Neutral>
7.94695e-05

> <r_epik_State_Penalty>
-0

> <r_epik_Charging_Adjusted_Penalty>
0

> <i_epik_Tot_Q>
0

> <i_epik_Tot_abs_Q>
0

> <r_epik_Metal_State_Penalty>
-0

> <b_epik_Metal_Only>
0

> <s_lp_Force_Field>
OPLS_2005

> <r_lp_Energy>
37.7732

> <b_lp_Chiralities_Consistent>
1

> <s_lp_Variant>
AV-unprocessed.smi:2116-1

> <Gold.Version>
5.8.1

> <Gold.Id.Protein>
6NUR|6NUR_protein|mol2

> <Gold.PLP.Fitness>
51.9045

> <Gold.PLP.PLP>
-47.2818

> <Gold.PLP.part.hbond>
-1.0000

> <Gold.PLP.part.metal>
0.0000

> <Gold.PLP.part.buried>
-0.7488

> <Gold.PLP.part.nonpolar>
-48.0772

> <Gold.PLP.part.repulsive>
1.4169

> <Gold.PLP.ligand.clash>
0.0000

> <Gold.PLP.ligand.torsion>
0.7169

> <Gold.PLP.Chemscore.Hbond>
1.0000

> <Gold.PLP.Chemscore.CHOScore>
1.0000

> <Gold.PLP.Chemscore.Metal>
0.0000

> <Gold.Chemscore.Hbonds>
donor molecule, donor type, donor heavy atom, donor atom, acceptor molecule, acceptor atom, score
      P1  H  7954  7966       L1     2  0.99
      L1  C    20    44       P1  8028  0.92

> <Gold.PLP.Chemscore.Internal.Correction>
0.0564

> <Gold.Rescore>
     Score         DG    S(hbond)    S(metal)    S(lipo)     H(rot)  DE(clash)    DE(int)     intcor
     15.80     -19.30       1.04        0.00     122.31       1.55       1.64       1.86       ----

> <Gold.Chemscore.Fitness>
15.8005

> <Gold.Chemscore.DG>
-19.2969

> <Gold.Chemscore.ZeroCoef>
-5.4800

> <Gold.Chemscore.Hbond>
1.0415

> <Gold.Chemscore.Metal>
0.0000

> <Gold.Chemscore.Lipo>
122.3116

> <Gold.Chemscore.Internal_Hbond>
0.0000

> <Gold.Chemscore.DEClash>
1.6414

> <Gold.Chemscore.DEInternal>
1.8550

> <Gold.Chemscore.Rot>
1.5517

> <Gold.Chemscore.Internal.Correction>
   9.000000E+99

> <Gold.Chemscore.Hbonds>
donor molecule, donor type, donor heavy atom, donor atom, acceptor molecule, acceptor atom, score
      P1  H  7954  7966       L1     2  0.70

> <Gold.Chemscore.Hbond.Weighted>
-3.4787

> <Gold.Chemscore.Metal.Weighted>
-0.0000

> <Gold.Chemscore.Lipo.Weighted>
-14.3105

> <Gold.Chemscore.Internal_Hbond.Weighted>
0.0000

> <Gold.Chemscore.DEClash.Weighted>
1.6414

> <Gold.Chemscore.DEInternal.Weighted>
1.8550

> <Gold.Chemscore.Rot.Weighted>
3.9723

> <Gold.Chemscore.Internal.Correction.Weighted>
   9.000000E+99

> <Gold.Protein.RotatedTorsions>
[ 6907 6896 6895 6894 ] final  145.21 input  -60.11 | X-H torsion
[ 7974 7965 7964 7962 ] final   22.15 input  175.53 | X-H torsion
[ 8008 7997 7996 7995 ] final   51.41 input   59.86 | X-H torsion
[ 10167 10162 10161 10158 ] final   76.70 input  -65.29 | X-H torsion
[ 10718 10713 10712 10709 ] final  -52.55 input   66.30 | X-H torsion
[ 10763 10752 10751 10750 ] final  -61.18 input  -60.55 | X-H torsion
[ 11005 11000 10999 10996 ] final  -58.46 input  -57.11 | X-H torsion

> <Gold.Protein.ActiveResidues>
 VAL166  LYS551  ARG553  GLY616  TRP617  ASP618  TYR619  PRO620  LYS621  CYS622 
 ASP623  PHE694  ASN695  SER759  ASP760  ASP761  ALA762  ILE779  LEU786  VAL792 
 PHE793  MET794  SER795  GLU796  ALA797  LYS798  CYS799  TRP800  GLU811  SER814 

> <Gold.Protein.RotatedAtoms>
  152.1838  133.4726  159.4971 H   0  0  0  0  0  0  0  0  0  0  0  0  # atno 6907 bound_to 6896
  150.6939  134.1799  159.4253 H   0  0  0  0  0  0  0  0  0  0  0  0  # atno 6908 bound_to 6896
  151.9711  135.0076  160.0603 H   0  0  0  0  0  0  0  0  0  0  0  0  # atno 6909 bound_to 6896
  146.2041  139.7927  142.8739 H   0  0  0  0  0  0  0  0  0  0  0  0  # atno 7974 bound_to 7965
  155.4348  140.3452  155.4284 H   0  0  0  0  0  0  0  0  0  0  0  0  # atno 8008 bound_to 7997
  156.1315  140.1515  156.9089 H   0  0  0  0  0  0  0  0  0  0  0  0  # atno 8009 bound_to 7997
  154.4898  140.0844  156.7549 H   0  0  0  0  0  0  0  0  0  0  0  0  # atno 8010 bound_to 7997
  139.9894  144.5768  150.7831 H   0  0  0  0  0  0  0  0  0  0  0  0  # atno 10167 bound_to 10162
  156.1611  130.4149  149.9791 H   0  0  0  0  0  0  0  0  0  0  0  0  # atno 10718 bound_to 10713
  154.2807  135.6272  153.5346 H   0  0  0  0  0  0  0  0  0  0  0  0  # atno 10763 bound_to 10752
  152.9866  135.5632  154.5498 H   0  0  0  0  0  0  0  0  0  0  0  0  # atno 10764 bound_to 10752
  154.5088  135.2876  155.1335 H   0  0  0  0  0  0  0  0  0  0  0  0  # atno 10765 bound_to 10752
  141.1208  133.6612  156.4924 H   0  0  0  0  0  0  0  0  0  0  0  0  # atno 11005 bound_to 11000
  145.3381  141.0281  143.3408 LP  0  0  0  0  0  0  0  0  0  0  0  0  # atno 17320 bound_to 7965
  144.8751  139.4982  143.6749 LP  0  0  0  0  0  0  0  0  0  0  0  0  # atno 17321 bound_to 7965
  140.7460  143.2884  151.3398 LP  0  0  0  0  0  0  0  0  0  0  0  0  # atno 17342 bound_to 10162
  139.6351  144.0646  152.2509 LP  0  0  0  0  0  0  0  0  0  0  0  0  # atno 17343 bound_to 10162
  156.7620  130.9154  151.3641 LP  0  0  0  0  0  0  0  0  0  0  0  0  # atno 17370 bound_to 10713
  157.6733  130.9071  150.0091 LP  0  0  0  0  0  0  0  0  0  0  0  0  # atno 17371 bound_to 10713
  140.4512  134.6927  157.5040 LP  0  0  0  0  0  0  0  0  0  0  0  0  # atno 17394 bound_to 11000
  140.0164  134.6612  155.9303 LP  0  0  0  0  0  0  0  0  0  0  0  0  # atno 17395 bound_to 11000

$$$$
