AV-unprocessed.smi:248|AV-procd|sdf|1896|dock7
  -GOLD-   2262020563D 1   1.00000     0.00000
 Structure written by MMmdl.
 62 65  0  0  0  0  0  0  0  0  1 V2000
  152.2294  144.9369  159.1396 C   0  0  0  0  0  0  0  0  0  0  0  0
  151.7704  143.4959  159.4086 C   0  0  0  0  0  0  0  0  0  0  0  0
  152.5257  142.9126  160.6152 C   0  0  0  0  0  0  0  0  0  0  0  0
  151.8955  142.6408  158.1248 C   0  0  0  0  0  0  0  0  0  0  0  0
  150.8623  141.6001  158.0144 N   0  0  0  0  0  0  0  0  0  0  0  0
  149.6762  142.0044  157.2500 C   0  0  0  0  0  0  0  0  0  0  0  0
  148.4448  141.1576  157.5831 C   0  0  0  0  0  0  0  0  0  0  0  0
  148.7934  139.7481  157.4957 N   0  0  0  0  0  0  0  0  0  0  0  0
  147.7012  138.9505  157.4854 C   0  0  0  0  0  0  0  0  0  0  0  0
  146.9724  138.7811  158.6195 N   0  0  0  0  0  0  0  0  0  0  0  0
  145.8870  138.0018  158.6017 C   0  0  0  0  0  0  0  0  0  0  0  0
  145.3684  137.3156  157.5806 N   0  0  0  0  0  0  0  0  0  0  0  0
  146.1034  137.4813  156.4434 C   0  0  0  0  0  0  0  0  0  0  0  0
  147.2719  138.2815  156.3101 C   0  0  0  0  0  0  0  0  0  0  0  0
  147.7456  138.2248  155.0067 N   0  0  0  0  0  0  0  0  0  0  0  0
  146.9010  137.4359  154.4003 C   0  0  0  0  0  0  0  0  0  0  0  0
  145.8923  136.9287  155.1908 N   0  0  0  0  0  0  0  0  0  0  0  0
  144.8193  136.0374  154.7680 C   0  0  0  0  0  0  0  0  0  0  0  0
  143.8794  136.6022  153.6552 C   0  0  0  0  0  0  0  0  0  0  0  0
  143.0925  137.8133  154.2311 C   0  0  0  0  0  0  0  0  0  0  0  0
  142.2529  138.4438  153.2837 O   0  0  0  0  0  0  0  0  0  0  0  0
  144.6748  137.0427  152.3989 C   0  0  0  0  0  0  0  0  0  0  0  0
  145.2686  135.8494  151.6270 C   0  0  0  0  0  0  0  0  0  0  0  0
  144.2357  134.9402  151.2682 O   0  0  0  0  0  0  0  0  0  0  0  0
  143.5786  134.3769  152.3965 C   0  0  0  0  0  0  0  0  0  0  0  0
  142.8942  135.4872  153.2153 C   0  0  0  0  0  0  0  0  0  0  0  0
  149.9031  139.3006  158.3486 C   0  0  1  0  0  0  0  0  0  0  0  0
  150.4470  137.9425  157.8505 C   0  0  0  0  0  0  0  0  0  0  0  0
  151.0401  140.3425  158.4934 C   0  0  0  0  0  0  0  0  0  0  0  0
  152.0711  140.0040  159.0768 O   0  0  0  0  0  0  0  0  0  0  0  0
  153.2837  144.9713  158.8639 H   0  0  0  0  0  0  0  0  0  0  0  0
  152.0955  145.5648  160.0209 H   0  0  0  0  0  0  0  0  0  0  0  0
  151.6581  145.3873  158.3275 H   0  0  0  0  0  0  0  0  0  0  0  0
  150.7149  143.5428  159.6792 H   0  0  0  0  0  0  0  0  0  0  0  0
  153.5851  142.7808  160.3930 H   0  0  0  0  0  0  0  0  0  0  0  0
  152.1215  141.9452  160.9126 H   0  0  0  0  0  0  0  0  0  0  0  0
  152.4476  143.5699  161.4814 H   0  0  0  0  0  0  0  0  0  0  0  0
  151.8260  143.2908  157.2510 H   0  0  0  0  0  0  0  0  0  0  0  0
  152.8942  142.2045  158.0668 H   0  0  0  0  0  0  0  0  0  0  0  0
  149.4489  143.0565  157.4252 H   0  0  0  0  0  0  0  0  0  0  0  0
  149.9100  141.9083  156.1888 H   0  0  0  0  0  0  0  0  0  0  0  0
  148.0945  141.3884  158.5909 H   0  0  0  0  0  0  0  0  0  0  0  0
  147.6324  141.4006  156.8958 H   0  0  0  0  0  0  0  0  0  0  0  0
  145.3571  137.9161  159.5391 H   0  0  0  0  0  0  0  0  0  0  0  0
  146.9955  137.1948  153.3515 H   0  0  0  0  0  0  0  0  0  0  0  0
  145.2765  135.0966  154.4650 H   0  0  0  0  0  0  0  0  0  0  0  0
  144.2295  135.7968  155.6537 H   0  0  0  0  0  0  0  0  0  0  0  0
  142.4739  137.4985  155.0723 H   0  0  0  0  0  0  0  0  0  0  0  0
  143.7748  138.5758  154.6066 H   0  0  0  0  0  0  0  0  0  0  0  0
  142.7754  139.0366  152.7656 H   0  0  0  0  0  0  0  0  0  0  0  0
  144.0161  137.5772  151.7135 H   0  0  0  0  0  0  0  0  0  0  0  0
  145.4590  137.7524  152.6601 H   0  0  0  0  0  0  0  0  0  0  0  0
  145.7518  136.2021  150.7160 H   0  0  0  0  0  0  0  0  0  0  0  0
  146.0354  135.3336  152.2046 H   0  0  0  0  0  0  0  0  0  0  0  0
  142.8310  133.6672  152.0421 H   0  0  0  0  0  0  0  0  0  0  0  0
  144.2850  133.8050  152.9986 H   0  0  0  0  0  0  0  0  0  0  0  0
  142.3936  135.0560  154.0828 H   0  0  0  0  0  0  0  0  0  0  0  0
  142.1035  135.9045  152.5917 H   0  0  0  0  0  0  0  0  0  0  0  0
  149.5193  139.1579  159.3601 H   0  0  0  0  0  0  0  0  0  0  0  0
  151.2802  137.5910  158.4599 H   0  0  0  0  0  0  0  0  0  0  0  0
  150.7963  138.0124  156.8196 H   0  0  0  0  0  0  0  0  0  0  0  0
  149.6852  137.1635  157.8895 H   0  0  0  0  0  0  0  0  0  0  0  0
  1  2  1  0  0  0  0
  1 31  1  0  0  0  0
  1 32  1  0  0  0  0
  1 33  1  0  0  0  0
  2  3  1  0  0  0  0
  2  4  1  0  0  0  0
  2 34  1  0  0  0  0
  3 35  1  0  0  0  0
  3 36  1  0  0  0  0
  3 37  1  0  0  0  0
  4  5  1  0  0  0  0
  4 38  1  0  0  0  0
  4 39  1  0  0  0  0
  5 29  1  0  0  0  0
  5  6  1  0  0  0  0
  6  7  1  0  0  0  0
  6 40  1  0  0  0  0
  6 41  1  0  0  0  0
  7  8  1  0  0  0  0
  7 42  1  0  0  0  0
  7 43  1  0  0  0  0
  8  9  1  0  0  0  0
  8 27  1  0  0  0  0
  9 14  1  0  0  0  0
  9 10  2  0  0  0  0
 10 11  1  0  0  0  0
 11 12  2  0  0  0  0
 11 44  1  0  0  0  0
 12 13  1  0  0  0  0
 13 17  1  0  0  0  0
 13 14  2  0  0  0  0
 14 15  1  0  0  0  0
 15 16  2  0  0  0  0
 16 17  1  0  0  0  0
 16 45  1  0  0  0  0
 17 18  1  0  0  0  0
 18 19  1  0  0  0  0
 18 46  1  0  0  0  0
 18 47  1  0  0  0  0
 19 26  1  0  0  0  0
 19 20  1  0  0  0  0
 19 22  1  0  0  0  0
 20 21  1  0  0  0  0
 20 48  1  0  0  0  0
 20 49  1  0  0  0  0
 21 50  1  0  0  0  0
 22 23  1  0  0  0  0
 22 51  1  0  0  0  0
 22 52  1  0  0  0  0
 23 24  1  0  0  0  0
 23 53  1  0  0  0  0
 23 54  1  0  0  0  0
 24 25  1  0  0  0  0
 25 26  1  0  0  0  0
 25 55  1  0  0  0  0
 25 56  1  0  0  0  0
 26 57  1  0  0  0  0
 26 58  1  0  0  0  0
 27 28  1  0  0  0  0
 27 29  1  0  0  0  0
 27 59  1  0  0  0  0
 28 60  1  0  0  0  0
 28 61  1  0  0  0  0
 28 62  1  0  0  0  0
 29 30  2  0  0  0  0
M  END
> <s_m_source_file>
AV-unprocessed.smi

> <i_m_source_file_index>
248

> <i_lp_mmshare_version>
43012

> <i_f3d_flags>
0

> <s_epik_input>
W0NIM11bQ0hdKFtDSDNdKVtDSDJdTjFbQ0gyXVtDSDJdTihbQ0BASF0oW0NIM10pQzE9TyljKG5bY0hdbjIpYyhjMjMpbltjSF1uM1tDSDJdQzQoW0NIMl1bT0hdKVtDSDJdW0NIMl1PW0NIMl1bQ0gyXTQ=

> <s_epik_cmdline>
J2VwaWtfcHl0aG9uJywgJy1waCcsICc3LjAnLCAnLXRuJywgJzgnLCAnLW1hJywgJzIwMCcsICctbWV0YWxfYmluZGluZycsICctaW1hZScsICc8aW5maWxlLm1hZT4nLCAnLW9tYWUnLCAnPG91dGZpbGUubWFlPic=

> <r_lp_tautomer_probability>
1

> <r_epik_Ionization_Penalty>
0.000593973

> <r_epik_Ionization_Penalty_Charging>
0

> <r_epik_Ionization_Penalty_Neutral>
0.000593973

> <r_epik_State_Penalty>
0.000283267

> <r_epik_Charging_Adjusted_Penalty>
0.000283267

> <i_epik_Tot_Q>
0

> <i_epik_Tot_abs_Q>
0

> <r_epik_Metal_State_Penalty>
-0

> <b_epik_Metal_Only>
0

> <s_lp_Force_Field>
OPLS_2005

> <r_lp_Energy>
46.1111

> <b_lp_Chiralities_Consistent>
1

> <s_lp_Variant>
AV-unprocessed.smi:248-1

> <Gold.Version>
5.8.1

> <Gold.Id.Protein>
6NUR|6NUR_protein|mol2

> <Gold.PLP.Fitness>
40.9855

> <Gold.PLP.PLP>
-36.3974

> <Gold.PLP.part.hbond>
-2.0000

> <Gold.PLP.part.metal>
0.0000

> <Gold.PLP.part.buried>
-5.9329

> <Gold.PLP.part.nonpolar>
-28.2903

> <Gold.PLP.part.repulsive>
0.2683

> <Gold.PLP.ligand.clash>
0.0000

> <Gold.PLP.ligand.torsion>
0.9504

> <Gold.PLP.Chemscore.Hbond>
1.0274

> <Gold.PLP.Chemscore.CHOScore>
1.0000

> <Gold.PLP.Chemscore.Metal>
0.0000

> <Gold.Chemscore.Hbonds>
donor molecule, donor type, donor heavy atom, donor atom, acceptor molecule, acceptor atom, score
      L1  H    21    50       P1 10175  1.00
      P1  H  6934  6947       L1    10  0.05
      L1  C    16    45       P1  7948  0.73

> <Gold.PLP.Chemscore.Internal.Correction>
0.4068

> <Gold.Rescore>
     Score         DG    S(hbond)    S(metal)    S(lipo)     H(rot)  DE(clash)    DE(int)     intcor
     10.84     -11.56       1.00        0.00      83.69       2.75       0.01       0.71       ----

> <Gold.Chemscore.Fitness>
10.8408

> <Gold.Chemscore.DG>
-11.5595

> <Gold.Chemscore.ZeroCoef>
-5.4800

> <Gold.Chemscore.Hbond>
0.9980

> <Gold.Chemscore.Metal>
0.0000

> <Gold.Chemscore.Lipo>
83.6929

> <Gold.Chemscore.Internal_Hbond>
0.0000

> <Gold.Chemscore.DEClash>
0.0067

> <Gold.Chemscore.DEInternal>
0.7119

> <Gold.Chemscore.Rot>
2.7523

> <Gold.Chemscore.Internal.Correction>
   9.000000E+99

> <Gold.Chemscore.Hbonds>
donor molecule, donor type, donor heavy atom, donor atom, acceptor molecule, acceptor atom, score
      L1  H    21    50       P1 10175  0.98
      P1  H  6934  6947       L1    10  0.01

> <Gold.Chemscore.Hbond.Weighted>
-3.3333

> <Gold.Chemscore.Metal.Weighted>
-0.0000

> <Gold.Chemscore.Lipo.Weighted>
-9.7921

> <Gold.Chemscore.Internal_Hbond.Weighted>
0.0000

> <Gold.Chemscore.DEClash.Weighted>
0.0067

> <Gold.Chemscore.DEInternal.Weighted>
0.7119

> <Gold.Chemscore.Rot.Weighted>
7.0459

> <Gold.Chemscore.Internal.Correction.Weighted>
   9.000000E+99

> <Gold.Protein.RotatedTorsions>
[ 6907 6896 6895 6894 ] final  144.64 input  -60.11 | X-H torsion
[ 7974 7965 7964 7962 ] final -125.68 input  175.53 | X-H torsion
[ 8008 7997 7996 7995 ] final  161.81 input   59.86 | X-H torsion
[ 10167 10162 10161 10158 ] final  -86.54 input  -65.29 | X-H torsion
[ 10718 10713 10712 10709 ] final  166.33 input   66.30 | X-H torsion
[ 10763 10752 10751 10750 ] final  -33.74 input  -60.55 | X-H torsion
[ 11005 11000 10999 10996 ] final   49.69 input  -57.11 | X-H torsion

> <Gold.Protein.ActiveResidues>
 VAL166  LYS551  ARG553  GLY616  TRP617  ASP618  TYR619  PRO620  LYS621  CYS622 
 ASP623  PHE694  ASN695  SER759  ASP760  ASP761  ALA762  ILE779  LEU786  VAL792 
 PHE793  MET794  SER795  GLU796  ALA797  LYS798  CYS799  TRP800  GLU811  SER814 

> <Gold.Protein.RotatedAtoms>
  152.1911  133.4774  159.5008 H   0  0  0  0  0  0  0  0  0  0  0  0  # atno 6907 bound_to 6896
  150.6951  134.1711  159.4221 H   0  0  0  0  0  0  0  0  0  0  0  0  # atno 6908 bound_to 6896
  151.9626  135.0116  160.0599 H   0  0  0  0  0  0  0  0  0  0  0  0  # atno 6909 bound_to 6896
  144.9951  140.7768  143.4530 H   0  0  0  0  0  0  0  0  0  0  0  0  # atno 7974 bound_to 7965
  156.2076  140.1767  156.7765 H   0  0  0  0  0  0  0  0  0  0  0  0  # atno 8008 bound_to 7997
  154.5677  140.0688  156.8947 H   0  0  0  0  0  0  0  0  0  0  0  0  # atno 8009 bound_to 7997
  155.2730  140.3344  155.4266 H   0  0  0  0  0  0  0  0  0  0  0  0  # atno 8010 bound_to 7997
  140.3931  143.2696  151.9239 H   0  0  0  0  0  0  0  0  0  0  0  0  # atno 10167 bound_to 10162
  157.0674  131.0357  151.2624 H   0  0  0  0  0  0  0  0  0  0  0  0  # atno 10718 bound_to 10713
  153.8352  135.6862  153.4809 H   0  0  0  0  0  0  0  0  0  0  0  0  # atno 10763 bound_to 10752
  153.1486  135.4627  154.9602 H   0  0  0  0  0  0  0  0  0  0  0  0  # atno 10764 bound_to 10752
  154.7869  135.3288  154.7811 H   0  0  0  0  0  0  0  0  0  0  0  0  # atno 10765 bound_to 10752
  140.1081  134.4991  155.8701 H   0  0  0  0  0  0  0  0  0  0  0  0  # atno 11005 bound_to 11000
  145.2231  139.2150  143.5082 LP  0  0  0  0  0  0  0  0  0  0  0  0  # atno 17320 bound_to 7965
  146.3440  140.2093  142.8590 LP  0  0  0  0  0  0  0  0  0  0  0  0  # atno 17321 bound_to 7965
  139.4788  144.5708  151.8092 LP  0  0  0  0  0  0  0  0  0  0  0  0  # atno 17342 bound_to 10162
  140.4819  144.1438  150.5934 LP  0  0  0  0  0  0  0  0  0  0  0  0  # atno 17343 bound_to 10162
  157.4905  130.7819  149.7503 LP  0  0  0  0  0  0  0  0  0  0  0  0  # atno 17370 bound_to 10713
  155.9960  130.3908  150.2795 LP  0  0  0  0  0  0  0  0  0  0  0  0  # atno 17371 bound_to 10713
  141.2123  133.6718  156.6652 LP  0  0  0  0  0  0  0  0  0  0  0  0  # atno 17394 bound_to 11000
  140.3128  134.8072  157.4190 LP  0  0  0  0  0  0  0  0  0  0  0  0  # atno 17395 bound_to 11000

$$$$
