AV-unprocessed.smi:3265|AV-procd|sdf|12499|dock8
  -GOLD-   2272018403D 1   1.00000     0.00000
 Structure written by MMmdl.
 41 42  0  0  0  0  0  0  0  0  2 V2000
  145.9988  132.2253  150.1994 C   0  0  0  0  0  0  0  0  0  0  0  0
  146.2210  133.6118  150.8206 C   0  0  1  0  0  0  0  0  0  0  0  0
  145.0277  134.5448  150.5549 C   0  0  0  0  0  0  0  0  0  0  0  0
  145.2662  135.9115  151.2083 C   0  0  0  0  0  0  0  0  0  0  0  0
  145.5641  135.7590  152.7082 C   0  0  0  0  0  0  0  0  0  0  0  0
  146.7226  134.8566  152.9365 N   0  3  1  0  0  0  0  0  0  0  0  0
  147.1123  134.7991  154.3680 C   0  0  0  0  0  0  0  0  0  0  0  0
  146.9990  136.1689  155.0644 C   0  0  0  0  0  0  0  0  0  0  0  0
  147.8132  137.1775  154.3976 N   0  0  0  0  0  0  0  0  0  0  0  0
  148.2276  138.3260  154.9552 C   0  0  0  0  0  0  0  0  0  0  0  0
  147.9750  138.6436  156.1170 O   0  0  0  0  0  0  0  0  0  0  0  0
  149.0581  139.2563  154.0696 C   0  0  0  0  0  0  0  0  0  0  0  0
  150.4705  139.1695  154.3954 N   0  0  0  0  0  0  0  0  0  0  0  0
  151.3188  138.0913  154.2496 C   0  0  0  0  0  0  0  0  0  0  0  0
  152.5495  138.4792  154.6961 C   0  0  0  0  0  0  0  0  0  0  0  0
  152.3529  139.8295  155.0997 C   0  0  0  0  0  0  0  0  0  0  0  0
  151.1075  140.2397  154.9198 N   0  0  0  0  0  0  0  0  0  0  0  0
  146.4962  133.5144  152.3349 C   0  0  0  0  0  0  0  0  0  0  0  0
  145.1310  131.7286  150.6347 H   0  0  0  0  0  0  0  0  0  0  0  0
  146.8641  131.5805  150.3561 H   0  0  0  0  0  0  0  0  0  0  0  0
  145.8348  132.2991  149.1239 H   0  0  0  0  0  0  0  0  0  0  0  0
  147.1020  134.0463  150.3456 H   0  0  0  0  0  0  0  0  0  0  0  0
  144.8741  134.6684  149.4824 H   0  0  0  0  0  0  0  0  0  0  0  0
  144.1126  134.1032  150.9523 H   0  0  0  0  0  0  0  0  0  0  0  0
  146.1009  136.4134  150.7169 H   0  0  0  0  0  0  0  0  0  0  0  0
  144.3939  136.5499  151.0647 H   0  0  0  0  0  0  0  0  0  0  0  0
  145.7719  136.7428  153.1306 H   0  0  0  0  0  0  0  0  0  0  0  0
  144.6885  135.3680  153.2291 H   0  0  0  0  0  0  0  0  0  0  0  0
  146.4551  134.0982  154.8844 H   0  0  0  0  0  0  0  0  0  0  0  0
  148.1224  134.3971  154.4618 H   0  0  0  0  0  0  0  0  0  0  0  0
  145.9708  136.5284  155.0534 H   0  0  0  0  0  0  0  0  0  0  0  0
  147.2894  136.0904  156.1136 H   0  0  0  0  0  0  0  0  0  0  0  0
  148.0650  137.0021  153.4349 H   0  0  0  0  0  0  0  0  0  0  0  0
  148.9242  138.9911  153.0201 H   0  0  0  0  0  0  0  0  0  0  0  0
  148.7178  140.2866  154.1861 H   0  0  0  0  0  0  0  0  0  0  0  0
  150.9788  137.1487  153.8464 H   0  0  0  0  0  0  0  0  0  0  0  0
  153.4529  137.8886  154.7295 H   0  0  0  0  0  0  0  0  0  0  0  0
  153.0730  140.5184  155.5156 H   0  0  0  0  0  0  0  0  0  0  0  0
  145.6600  133.0274  152.8397 H   0  0  0  0  0  0  0  0  0  0  0  0
  147.3689  132.8821  152.4927 H   0  0  0  0  0  0  0  0  0  0  0  0
  147.5013  135.2729  152.4458 H   0  0  0  0  0  0  0  0  0  0  0  0
  1  2  1  0  0  0  0
  1 19  1  0  0  0  0
  1 20  1  0  0  0  0
  1 21  1  0  0  0  0
  2 18  1  0  0  0  0
  2  3  1  0  0  0  0
  2 22  1  0  0  0  0
  3  4  1  0  0  0  0
  3 23  1  0  0  0  0
  3 24  1  0  0  0  0
  4  5  1  0  0  0  0
  4 25  1  0  0  0  0
  4 26  1  0  0  0  0
  5  6  1  0  0  0  0
  5 27  1  0  0  0  0
  5 28  1  0  0  0  0
  6  7  1  0  0  0  0
  6 18  1  0  0  0  0
  6 41  1  0  0  0  0
  7  8  1  0  0  0  0
  7 29  1  0  0  0  0
  7 30  1  0  0  0  0
  8  9  1  0  0  0  0
  8 31  1  0  0  0  0
  8 32  1  0  0  0  0
  9 10  1  0  0  0  0
  9 33  1  0  0  0  0
 10 11  2  0  0  0  0
 10 12  1  0  0  0  0
 12 13  1  0  0  0  0
 12 34  1  0  0  0  0
 12 35  1  0  0  0  0
 13 17  1  0  0  0  0
 13 14  1  0  0  0  0
 14 15  2  0  0  0  0
 14 36  1  0  0  0  0
 15 16  1  0  0  0  0
 15 37  1  0  0  0  0
 16 17  2  0  0  0  0
 16 38  1  0  0  0  0
 18 39  1  0  0  0  0
 18 40  1  0  0  0  0
M  CHG  1   6   1
M  END
> <s_m_source_file>
AV-unprocessed.smi

> <i_m_source_file_index>
3265

> <i_lp_mmshare_version>
43012

> <i_f3d_flags>
0

> <s_epik_input>
W0NIM11bQ0BASF0xW0NIMl1bQ0gyXVtDSDJdTihbQ0gyXTEpW0NIMl1bQ0gyXVtOSF1DKD1PKVtDSDJdbjJbY0hdW2NIXVtjSF1uMg==

> <s_epik_cmdline>
J2VwaWtfcHl0aG9uJywgJy1waCcsICc3LjAnLCAnLXRuJywgJzgnLCAnLW1hJywgJzIwMCcsICctbWV0YWxfYmluZGluZycsICctaW1hZScsICc8aW5maWxlLm1hZT4nLCAnLW9tYWUnLCAnPG91dGZpbGUubWFlPic=

> <r_lp_tautomer_probability>
1

> <r_epik_Ionization_Penalty>
0.00231455

> <r_epik_Ionization_Penalty_Charging>
0.00230623

> <r_epik_Ionization_Penalty_Neutral>
8.31727e-06

> <r_epik_State_Penalty>
0.00159065

> <r_epik_Charging_Adjusted_Penalty>
0.00389688

> <i_epik_Tot_Q>
1

> <i_epik_Tot_abs_Q>
1

> <r_epik_Metal_State_Penalty>
-0

> <b_epik_Metal_Only>
0

> <s_lp_Force_Field>
OPLS_2005

> <r_lp_Energy>
15.6905

> <b_lp_Chiralities_Consistent>
1

> <s_lp_Variant>
AV-unprocessed.smi:3265-4

> <Gold.Version>
5.8.1

> <Gold.Id.Protein>
6NUR|6NUR_protein|mol2

> <Gold.PLP.Fitness>
45.3360

> <Gold.PLP.PLP>
-31.8414

> <Gold.PLP.part.hbond>
-3.0000

> <Gold.PLP.part.metal>
0.0000

> <Gold.PLP.part.buried>
0.0053

> <Gold.PLP.part.nonpolar>
-28.9044

> <Gold.PLP.part.repulsive>
0.0511

> <Gold.PLP.ligand.clash>
0.0000

> <Gold.PLP.ligand.torsion>
0.5655

> <Gold.PLP.Chemscore.Hbond>
3.8500

> <Gold.PLP.Chemscore.CHOScore>
1.0176

> <Gold.PLP.Chemscore.Metal>
0.0000

> <Gold.Chemscore.Hbonds>
donor molecule, donor type, donor heavy atom, donor atom, acceptor molecule, acceptor atom, score
      L1  H     6    41       P1  7948  2.00
      L1  H     9    33       P1  7948  1.00
      P1  H  7989  7998       L1    17  0.26
      L1  C    14    36       P1  7948  0.01
      L1  C    14    36       P1  7949  0.75

> <Gold.PLP.Chemscore.Internal.Correction>
0.0229

> <Gold.Rescore>
     Score         DG    S(hbond)    S(metal)    S(lipo)     H(rot)  DE(clash)    DE(int)     intcor
     17.56     -18.30       2.72        0.00      72.13       1.84       0.45       0.28       ----

> <Gold.Chemscore.Fitness>
17.5613

> <Gold.Chemscore.DG>
-18.2951

> <Gold.Chemscore.ZeroCoef>
-5.4800

> <Gold.Chemscore.Hbond>
2.7194

> <Gold.Chemscore.Metal>
0.0000

> <Gold.Chemscore.Lipo>
72.1282

> <Gold.Chemscore.Internal_Hbond>
0.0000

> <Gold.Chemscore.DEClash>
0.4502

> <Gold.Chemscore.DEInternal>
0.2835

> <Gold.Chemscore.Rot>
1.8386

> <Gold.Chemscore.Internal.Correction>
   9.000000E+99

> <Gold.Chemscore.Hbonds>
donor molecule, donor type, donor heavy atom, donor atom, acceptor molecule, acceptor atom, score
      L1  H     6    41       P1  7948  1.00
      L1  H     9    33       P1  7948  0.98

> <Gold.Chemscore.Hbond.Weighted>
-9.0830

> <Gold.Chemscore.Metal.Weighted>
-0.0000

> <Gold.Chemscore.Lipo.Weighted>
-8.4390

> <Gold.Chemscore.Internal_Hbond.Weighted>
0.0000

> <Gold.Chemscore.DEClash.Weighted>
0.4502

> <Gold.Chemscore.DEInternal.Weighted>
0.2835

> <Gold.Chemscore.Rot.Weighted>
4.7069

> <Gold.Chemscore.Internal.Correction.Weighted>
   9.000000E+99

> <Gold.Protein.RotatedTorsions>
[ 6907 6896 6895 6894 ] final  101.43 input  -60.11 | X-H torsion
[ 7974 7965 7964 7962 ] final  169.05 input  175.53 | X-H torsion
[ 8008 7997 7996 7995 ] final  -17.93 input   59.86 | X-H torsion
[ 10167 10162 10161 10158 ] final   22.15 input  -65.29 | X-H torsion
[ 10718 10713 10712 10709 ] final  124.90 input   66.30 | X-H torsion
[ 10763 10752 10751 10750 ] final   58.98 input  -60.55 | X-H torsion
[ 11005 11000 10999 10996 ] final  -55.12 input  -57.11 | X-H torsion

> <Gold.Protein.ActiveResidues>
 VAL166  LYS551  ARG553  GLY616  TRP617  ASP618  TYR619  PRO620  LYS621  CYS622 
 ASP623  PHE694  ASN695  SER759  ASP760  ASP761  ALA762  ILE779  LEU786  VAL792 
 PHE793  MET794  SER795  GLU796  ALA797  LYS798  CYS799  TRP800  GLU811  SER814 

> <Gold.Protein.RotatedAtoms>
  152.5349  134.0126  159.7945 H   0  0  0  0  0  0  0  0  0  0  0  0  # atno 6907 bound_to 6896
  151.0326  133.5769  159.2666 H   0  0  0  0  0  0  0  0  0  0  0  0  # atno 6908 bound_to 6896
  151.2768  135.0709  159.9208 H   0  0  0  0  0  0  0  0  0  0  0  0  # atno 6909 bound_to 6896
  144.7368  139.8998  143.6408 H   0  0  0  0  0  0  0  0  0  0  0  0  # atno 7974 bound_to 7965
  154.4942  140.2129  155.9482 H   0  0  0  0  0  0  0  0  0  0  0  0  # atno 8008 bound_to 7997
  156.1348  140.3190  155.8372 H   0  0  0  0  0  0  0  0  0  0  0  0  # atno 8009 bound_to 7997
  155.4230  140.0498  157.3015 H   0  0  0  0  0  0  0  0  0  0  0  0  # atno 8010 bound_to 7997
  140.5371  143.9741  150.6498 H   0  0  0  0  0  0  0  0  0  0  0  0  # atno 10167 bound_to 10162
  157.5548  131.1092  150.8641 H   0  0  0  0  0  0  0  0  0  0  0  0  # atno 10718 bound_to 10713
  152.9883  135.5587  154.5640 H   0  0  0  0  0  0  0  0  0  0  0  0  # atno 10763 bound_to 10752
  154.5053  135.2799  155.1389 H   0  0  0  0  0  0  0  0  0  0  0  0  # atno 10764 bound_to 10752
  154.2803  135.6346  153.5397 H   0  0  0  0  0  0  0  0  0  0  0  0  # atno 10765 bound_to 10752
  141.1059  133.6613  156.4422 H   0  0  0  0  0  0  0  0  0  0  0  0  # atno 11005 bound_to 11000
  146.1080  139.4082  143.0305 LP  0  0  0  0  0  0  0  0  0  0  0  0  # atno 17320 bound_to 7965
  145.7484  140.9982  143.1264 LP  0  0  0  0  0  0  0  0  0  0  0  0  # atno 17321 bound_to 7965
  140.3132  143.3185  152.0858 LP  0  0  0  0  0  0  0  0  0  0  0  0  # atno 17342 bound_to 10162
  139.4975  144.6623  151.6437 LP  0  0  0  0  0  0  0  0  0  0  0  0  # atno 17343 bound_to 10162
  156.9156  130.5296  149.5279 LP  0  0  0  0  0  0  0  0  0  0  0  0  # atno 17370 bound_to 10713
  156.0608  130.5661  150.9189 LP  0  0  0  0  0  0  0  0  0  0  0  0  # atno 17371 bound_to 10713
  140.4904  134.6581  157.5208 LP  0  0  0  0  0  0  0  0  0  0  0  0  # atno 17394 bound_to 11000
  139.9929  134.6957  155.9659 LP  0  0  0  0  0  0  0  0  0  0  0  0  # atno 17395 bound_to 11000

$$$$
