AV-unprocessed.smi:23|AV-procd|sdf|174|dock3
  -GOLD-   2262015433D 1   1.00000     0.00000
 Structure written by MMmdl.
 53 56  0  0  0  0  0  0  0  0  1 V2000
  149.4535  141.2291  157.1505 C   0  0  0  0  0  0  0  0  0  0  0  0
  148.2597  140.9146  157.8580 O   0  0  0  0  0  0  0  0  0  0  0  0
  147.0397  140.7705  157.1229 C   0  0  2  0  0  0  0  0  0  0  0  0
  146.9017  142.1417  156.4308 C   0  0  0  0  0  0  0  0  0  0  0  0
  145.8483  140.5017  158.0785 C   0  0  0  0  0  0  0  0  0  0  0  0
  144.5393  140.2681  157.3035 C   0  0  0  0  0  0  0  0  0  0  0  0
  144.7119  139.1729  156.2377 C   0  0  0  0  0  0  0  0  0  0  0  0
  145.8532  139.4666  155.3704 N   0  0  0  0  0  0  0  0  0  0  0  0
  145.9332  138.8228  154.1793 C   0  0  0  0  0  0  0  0  0  0  0  0
  146.7444  139.3050  153.2000 N   0  0  0  0  0  0  0  0  0  0  0  0
  146.8178  138.6842  152.0191 C   0  0  0  0  0  0  0  0  0  0  0  0
  146.1825  137.5830  151.6139 N   0  0  0  0  0  0  0  0  0  0  0  0
  145.3764  137.0866  152.5958 C   0  0  0  0  0  0  0  0  0  0  0  0
  145.1907  137.6424  153.8933 C   0  0  0  0  0  0  0  0  0  0  0  0
  144.2916  136.8666  154.6158 N   0  0  0  0  0  0  0  0  0  0  0  0
  143.9524  135.9174  153.7868 C   0  0  0  0  0  0  0  0  0  0  0  0
  144.5794  135.9552  152.5615 N   0  0  0  0  0  0  0  0  0  0  0  0
  144.3638  135.0633  151.4594 C   0  0  0  0  0  0  0  0  0  0  0  0
  143.8253  133.6464  151.6813 C   0  0  0  0  0  0  0  0  0  0  0  0
  144.7239  133.1129  150.5436 C   0  0  0  0  0  0  0  0  0  0  0  0
  145.4991  131.8276  150.8720 C   0  0  0  0  0  0  0  0  0  0  0  0
  146.4404  131.5205  149.8635 O   0  0  0  0  0  0  0  0  0  0  0  0
  144.0638  132.9042  149.1621 C   0  0  0  0  0  0  0  0  0  0  0  0
  142.8798  132.1344  149.2151 O   0  0  0  0  0  0  0  0  0  0  0  0
  145.5400  134.4125  150.7246 C   0  0  0  0  0  0  0  0  0  0  0  0
  147.1302  139.6454  156.0623 C   0  0  0  0  0  0  0  0  0  0  0  0
  150.2814  141.2524  157.8590 H   0  0  0  0  0  0  0  0  0  0  0  0
  149.4079  142.2129  156.6850 H   0  0  0  0  0  0  0  0  0  0  0  0
  149.7025  140.4875  156.3932 H   0  0  0  0  0  0  0  0  0  0  0  0
  146.0184  142.1998  155.7955 H   0  0  0  0  0  0  0  0  0  0  0  0
  147.7647  142.3469  155.7966 H   0  0  0  0  0  0  0  0  0  0  0  0
  146.8336  142.9477  157.1622 H   0  0  0  0  0  0  0  0  0  0  0  0
  146.0336  139.6124  158.6790 H   0  0  0  0  0  0  0  0  0  0  0  0
  145.7286  141.3264  158.7819 H   0  0  0  0  0  0  0  0  0  0  0  0
  143.7430  139.9896  157.9942 H   0  0  0  0  0  0  0  0  0  0  0  0
  144.2150  141.1940  156.8285 H   0  0  0  0  0  0  0  0  0  0  0  0
  144.8670  138.2057  156.7180 H   0  0  0  0  0  0  0  0  0  0  0  0
  143.7984  139.0966  155.6463 H   0  0  0  0  0  0  0  0  0  0  0  0
  147.4815  139.1337  151.2951 H   0  0  0  0  0  0  0  0  0  0  0  0
  143.2354  135.1542  154.0529 H   0  0  0  0  0  0  0  0  0  0  0  0
  143.7293  135.6090  150.7602 H   0  0  0  0  0  0  0  0  0  0  0  0
  144.1012  133.2438  152.6575 H   0  0  0  0  0  0  0  0  0  0  0  0
  142.7543  133.5396  151.5061 H   0  0  0  0  0  0  0  0  0  0  0  0
  146.0182  131.9121  151.8274 H   0  0  0  0  0  0  0  0  0  0  0  0
  144.8224  130.9776  150.9639 H   0  0  0  0  0  0  0  0  0  0  0  0
  147.2491  131.2582  150.2765 H   0  0  0  0  0  0  0  0  0  0  0  0
  143.8140  133.8626  148.7059 H   0  0  0  0  0  0  0  0  0  0  0  0
  144.7456  132.4010  148.4759 H   0  0  0  0  0  0  0  0  0  0  0  0
  142.1484  132.7175  149.3504 H   0  0  0  0  0  0  0  0  0  0  0  0
  145.8208  134.9122  149.7968 H   0  0  0  0  0  0  0  0  0  0  0  0
  146.4092  134.2840  151.3719 H   0  0  0  0  0  0  0  0  0  0  0  0
  147.9430  139.8565  155.3679 H   0  0  0  0  0  0  0  0  0  0  0  0
  147.3655  138.6910  156.5327 H   0  0  0  0  0  0  0  0  0  0  0  0
  1  2  1  0  0  0  0
  1 27  1  0  0  0  0
  1 28  1  0  0  0  0
  1 29  1  0  0  0  0
  2  3  1  0  0  0  0
  3 26  1  0  0  0  0
  3  4  1  0  0  0  0
  3  5  1  0  0  0  0
  4 30  1  0  0  0  0
  4 31  1  0  0  0  0
  4 32  1  0  0  0  0
  5  6  1  0  0  0  0
  5 33  1  0  0  0  0
  5 34  1  0  0  0  0
  6  7  1  0  0  0  0
  6 35  1  0  0  0  0
  6 36  1  0  0  0  0
  7  8  1  0  0  0  0
  7 37  1  0  0  0  0
  7 38  1  0  0  0  0
  8  9  1  0  0  0  0
  8 26  1  0  0  0  0
  9 14  1  0  0  0  0
  9 10  2  0  0  0  0
 10 11  1  0  0  0  0
 11 12  2  0  0  0  0
 11 39  1  0  0  0  0
 12 13  1  0  0  0  0
 13 17  1  0  0  0  0
 13 14  2  0  0  0  0
 14 15  1  0  0  0  0
 15 16  2  0  0  0  0
 16 17  1  0  0  0  0
 16 40  1  0  0  0  0
 17 18  1  0  0  0  0
 18 25  1  0  0  0  0
 18 19  1  0  0  0  0
 18 41  1  0  0  0  0
 19 20  1  0  0  0  0
 19 42  1  0  0  0  0
 19 43  1  0  0  0  0
 20 21  1  0  0  0  0
 20 23  1  0  0  0  0
 20 25  1  0  0  0  0
 21 22  1  0  0  0  0
 21 44  1  0  0  0  0
 21 45  1  0  0  0  0
 22 46  1  0  0  0  0
 23 24  1  0  0  0  0
 23 47  1  0  0  0  0
 23 48  1  0  0  0  0
 24 49  1  0  0  0  0
 25 50  1  0  0  0  0
 25 51  1  0  0  0  0
 26 52  1  0  0  0  0
 26 53  1  0  0  0  0
M  END
> <s_m_source_file>
AV-unprocessed.smi

> <i_m_source_file_index>
23

> <i_lp_mmshare_version>
43012

> <i_f3d_flags>
0

> <s_epik_input>
W0NIM11PW0NAQF0xKFtDSDNdKVtDSDJdW0NIMl1bQ0gyXU4oW0NIMl0xKWMobltjSF1uMiljKGMyMyluW2NIXW4zW0NIXShbQ0gyXTQpW0NIMl1DNChbQ0gyXVtPSF0pW0NIMl1bT0hd

> <s_epik_cmdline>
J2VwaWtfcHl0aG9uJywgJy1waCcsICc3LjAnLCAnLXRuJywgJzgnLCAnLW1hJywgJzIwMCcsICctbWV0YWxfYmluZGluZycsICctaW1hZScsICc8aW5maWxlLm1hZT4nLCAnLW9tYWUnLCAnPG91dGZpbGUubWFlPic=

> <r_lp_tautomer_probability>
1

> <r_epik_Ionization_Penalty>
0.00233978

> <r_epik_Ionization_Penalty_Charging>
0

> <r_epik_Ionization_Penalty_Neutral>
0.00233978

> <r_epik_State_Penalty>
0.00146422

> <r_epik_Charging_Adjusted_Penalty>
0.00146422

> <i_epik_Tot_Q>
0

> <i_epik_Tot_abs_Q>
0

> <r_epik_Metal_State_Penalty>
-0

> <b_epik_Metal_Only>
0

> <s_lp_Force_Field>
OPLS_2005

> <r_lp_Energy>
49.2291

> <b_lp_Chiralities_Consistent>
1

> <s_lp_Variant>
AV-unprocessed.smi:23-2

> <Gold.Version>
5.8.1

> <Gold.Id.Protein>
6NUR|6NUR_protein|mol2

> <Gold.PLP.Fitness>
44.2397

> <Gold.PLP.PLP>
-33.7607

> <Gold.PLP.part.hbond>
-4.0000

> <Gold.PLP.part.metal>
0.0000

> <Gold.PLP.part.buried>
-6.4274

> <Gold.PLP.part.nonpolar>
-23.8494

> <Gold.PLP.part.repulsive>
1.3376

> <Gold.PLP.ligand.clash>
0.0000

> <Gold.PLP.ligand.torsion>
0.9986

> <Gold.PLP.Chemscore.Hbond>
2.8608

> <Gold.PLP.Chemscore.CHOScore>
1.0000

> <Gold.PLP.Chemscore.Metal>
0.0000

> <Gold.Chemscore.Hbonds>
donor molecule, donor type, donor heavy atom, donor atom, acceptor molecule, acceptor atom, score
      L1  H    22    46       P1 10747  1.00
      L1  H    24    49       P1 10186  0.96
      P1  H 10785 10796       L1    24  0.89
      L1  C    11    39       P1  7957  1.00

> <Gold.PLP.Chemscore.Internal.Correction>
0.8939

> <Gold.Rescore>
     Score         DG    S(hbond)    S(metal)    S(lipo)     H(rot)  DE(clash)    DE(int)     intcor
      9.46     -12.36       2.65        0.00      57.13       3.38       0.54       2.36       ----

> <Gold.Chemscore.Fitness>
9.4583

> <Gold.Chemscore.DG>
-12.3562

> <Gold.Chemscore.ZeroCoef>
-5.4800

> <Gold.Chemscore.Hbond>
2.6511

> <Gold.Chemscore.Metal>
0.0000

> <Gold.Chemscore.Lipo>
57.1273

> <Gold.Chemscore.Internal_Hbond>
0.0000

> <Gold.Chemscore.DEClash>
0.5378

> <Gold.Chemscore.DEInternal>
2.3601

> <Gold.Chemscore.Rot>
3.3837

> <Gold.Chemscore.Internal.Correction>
   9.000000E+99

> <Gold.Chemscore.Hbonds>
donor molecule, donor type, donor heavy atom, donor atom, acceptor molecule, acceptor atom, score
      L1  H    22    46       P1 10747  0.97
      L1  H    24    49       P1 10186  0.90
      P1  H 10785 10796       L1    24  0.74

> <Gold.Chemscore.Hbond.Weighted>
-8.8546

> <Gold.Chemscore.Metal.Weighted>
-0.0000

> <Gold.Chemscore.Lipo.Weighted>
-6.6839

> <Gold.Chemscore.Internal_Hbond.Weighted>
0.0000

> <Gold.Chemscore.DEClash.Weighted>
0.5378

> <Gold.Chemscore.DEInternal.Weighted>
2.3601

> <Gold.Chemscore.Rot.Weighted>
8.6622

> <Gold.Chemscore.Internal.Correction.Weighted>
   9.000000E+99

> <Gold.Protein.RotatedTorsions>
[ 6907 6896 6895 6894 ] final -120.66 input  -60.11 | X-H torsion
[ 7974 7965 7964 7962 ] final  146.41 input  175.53 | X-H torsion
[ 8008 7997 7996 7995 ] final   89.02 input   59.86 | X-H torsion
[ 10167 10162 10161 10158 ] final   31.60 input  -65.29 | X-H torsion
[ 10718 10713 10712 10709 ] final  -70.67 input   66.30 | X-H torsion
[ 10763 10752 10751 10750 ] final  -32.98 input  -60.55 | X-H torsion
[ 11005 11000 10999 10996 ] final  165.72 input  -57.11 | X-H torsion

> <Gold.Protein.ActiveResidues>
 VAL166  LYS551  ARG553  GLY616  TRP617  ASP618  TYR619  PRO620  LYS621  CYS622 
 ASP623  PHE694  ASN695  SER759  ASP760  ASP761  ALA762  ILE779  LEU786  VAL792 
 PHE793  MET794  SER795  GLU796  ALA797  LYS798  CYS799  TRP800  GLU811  SER814 

> <Gold.Protein.RotatedAtoms>
  150.8413  133.7931  159.3059 H   0  0  0  0  0  0  0  0  0  0  0  0  # atno 6907 bound_to 6896
  151.5631  135.1063  159.9987 H   0  0  0  0  0  0  0  0  0  0  0  0  # atno 6908 bound_to 6896
  152.4476  133.7525  159.6758 H   0  0  0  0  0  0  0  0  0  0  0  0  # atno 6909 bound_to 6896
  144.8673  139.5902  143.5903 H   0  0  0  0  0  0  0  0  0  0  0  0  # atno 7974 bound_to 7965
  155.9949  140.3365  155.6789 H   0  0  0  0  0  0  0  0  0  0  0  0  # atno 8008 bound_to 7997
  155.6370  140.0691  157.2649 H   0  0  0  0  0  0  0  0  0  0  0  0  # atno 8009 bound_to 7997
  154.4231  140.1749  156.1520 H   0  0  0  0  0  0  0  0  0  0  0  0  # atno 8010 bound_to 7997
  140.4574  144.0958  150.6205 H   0  0  0  0  0  0  0  0  0  0  0  0  # atno 10167 bound_to 10162
  156.0397  130.4336  150.2330 H   0  0  0  0  0  0  0  0  0  0  0  0  # atno 10718 bound_to 10713
  153.8226  135.6873  153.4825 H   0  0  0  0  0  0  0  0  0  0  0  0  # atno 10763 bound_to 10752
  153.1559  135.4599  154.9702 H   0  0  0  0  0  0  0  0  0  0  0  0  # atno 10764 bound_to 10752
  154.7921  135.3305  154.7697 H   0  0  0  0  0  0  0  0  0  0  0  0  # atno 10765 bound_to 10752
  140.2590  134.7917  157.3573 H   0  0  0  0  0  0  0  0  0  0  0  0  # atno 11005 bound_to 11000
  146.2905  139.7125  142.9164 LP  0  0  0  0  0  0  0  0  0  0  0  0  # atno 17320 bound_to 7965
  145.4197  141.0405  143.2970 LP  0  0  0  0  0  0  0  0  0  0  0  0  # atno 17321 bound_to 7965
  140.4135  143.2645  151.9804 LP  0  0  0  0  0  0  0  0  0  0  0  0  # atno 17342 bound_to 10162
  139.4802  144.5895  151.7797 LP  0  0  0  0  0  0  0  0  0  0  0  0  # atno 17343 bound_to 10162
  157.0426  131.0039  151.3279 LP  0  0  0  0  0  0  0  0  0  0  0  0  # atno 17370 bound_to 10713
  157.5198  130.7991  149.7797 LP  0  0  0  0  0  0  0  0  0  0  0  0  # atno 17371 bound_to 10713
  140.1483  134.4883  155.7980 LP  0  0  0  0  0  0  0  0  0  0  0  0  # atno 17394 bound_to 11000
  141.2192  133.6852  156.7333 LP  0  0  0  0  0  0  0  0  0  0  0  0  # atno 17395 bound_to 11000

$$$$
