AV-unprocessed.smi:2923|AV-procd|sdf|11209|dock4
  -GOLD-   2272016103D 1   1.00000     0.00000
 Structure written by MMmdl.
 47 49  0  0  0  0  0  0  0  0  2 V2000
  147.8727  128.4246  154.9104 C   0  0  0  0  0  0  0  0  0  0  0  0
  148.9780  128.9868  154.1489 N   0  0  0  0  0  0  0  0  0  0  0  0
  150.2899  128.4124  154.4074 C   0  0  0  0  0  0  0  0  0  0  0  0
  148.9836  130.3882  154.1526 C   0  0  0  0  0  0  0  0  0  0  0  0
  149.4031  131.1158  155.2855 C   0  0  0  0  0  0  0  0  0  0  0  0
  149.3984  132.5250  155.2429 C   0  0  0  0  0  0  0  0  0  0  0  0
  148.9671  133.1900  154.0746 C   0  0  0  0  0  0  0  0  0  0  0  0
  148.9973  134.6107  154.0724 N   0  0  0  0  0  0  0  0  0  0  0  0
  149.1275  135.4462  155.1171 C   0  0  0  0  0  0  0  0  0  0  0  0
  149.2818  135.1034  156.2889 O   0  0  0  0  0  0  0  0  0  0  0  0
  149.0834  136.7250  154.7217 N   0  0  0  0  0  0  0  0  0  0  0  0
  149.2231  137.8797  155.6151 C   0  0  1  0  0  0  0  0  0  0  0  0
  150.6815  138.3112  155.7899 C   0  0  1  0  0  0  0  0  0  0  0  0
  152.0111  137.6911  155.5537 C   0  0  0  0  0  0  0  0  0  0  0  0
  152.7017  138.9406  154.9428 C   0  0  0  0  0  0  0  0  0  0  0  0
  151.6459  139.9092  154.7143 O   0  0  0  0  0  0  0  0  0  0  0  0
  150.4924  139.1155  154.5198 C   0  0  2  0  0  0  0  0  0  0  0  0
  149.0174  139.2959  154.9428 C   0  0  0  0  0  0  0  0  0  0  0  0
  148.0094  139.3862  153.7915 C   0  0  0  0  0  0  0  0  0  0  0  0
  148.6945  140.4786  155.8740 C   0  0  0  0  0  0  0  0  0  0  0  0
  148.5657  132.4076  152.9639 C   0  0  0  0  0  0  0  0  0  0  0  0
  148.5869  131.0595  153.0455 N   0  3  0  0  0  0  0  0  0  0  0  0
  146.9288  128.8946  154.6309 H   0  0  0  0  0  0  0  0  0  0  0  0
  148.0240  128.5649  155.9814 H   0  0  0  0  0  0  0  0  0  0  0  0
  147.7863  127.3555  154.7156 H   0  0  0  0  0  0  0  0  0  0  0  0
  151.0505  128.8849  153.7848 H   0  0  0  0  0  0  0  0  0  0  0  0
  150.2848  127.3462  154.1803 H   0  0  0  0  0  0  0  0  0  0  0  0
  150.5732  128.5374  155.4533 H   0  0  0  0  0  0  0  0  0  0  0  0
  149.7275  130.6013  156.1784 H   0  0  0  0  0  0  0  0  0  0  0  0
  149.7209  133.0885  156.1063 H   0  0  0  0  0  0  0  0  0  0  0  0
  148.9581  135.0444  153.1617 H   0  0  0  0  0  0  0  0  0  0  0  0
  148.9559  136.9205  153.7396 H   0  0  0  0  0  0  0  0  0  0  0  0
  148.6975  137.7702  156.5652 H   0  0  0  0  0  0  0  0  0  0  0  0
  150.7473  138.9384  156.6821 H   0  0  0  0  0  0  0  0  0  0  0  0
  152.4916  137.3519  156.4717 H   0  0  0  0  0  0  0  0  0  0  0  0
  151.9619  136.8625  154.8457 H   0  0  0  0  0  0  0  0  0  0  0  0
  153.4476  139.3642  155.6160 H   0  0  0  0  0  0  0  0  0  0  0  0
  153.1968  138.6894  154.0039 H   0  0  0  0  0  0  0  0  0  0  0  0
  150.5864  138.5283  153.6003 H   0  0  0  0  0  0  0  0  0  0  0  0
  148.0204  140.3718  153.3248 H   0  0  0  0  0  0  0  0  0  0  0  0
  146.9927  139.1968  154.1372 H   0  0  0  0  0  0  0  0  0  0  0  0
  148.2222  138.6645  153.0028 H   0  0  0  0  0  0  0  0  0  0  0  0
  148.8758  141.4319  155.3766 H   0  0  0  0  0  0  0  0  0  0  0  0
  149.2836  140.4866  156.7893 H   0  0  0  0  0  0  0  0  0  0  0  0
  147.6483  140.4660  156.1815 H   0  0  0  0  0  0  0  0  0  0  0  0
  148.2422  132.7983  152.0110 H   0  0  0  0  0  0  0  0  0  0  0  0
  148.2929  130.5216  152.2299 H   0  0  0  0  0  0  0  0  0  0  0  0
  1  2  1  0  0  0  0
  1 23  1  0  0  0  0
  1 24  1  0  0  0  0
  1 25  1  0  0  0  0
  2  3  1  0  0  0  0
  2  4  1  0  0  0  0
  3 26  1  0  0  0  0
  3 27  1  0  0  0  0
  3 28  1  0  0  0  0
  4 22  1  0  0  0  0
  4  5  2  0  0  0  0
  5  6  1  0  0  0  0
  5 29  1  0  0  0  0
  6  7  2  0  0  0  0
  6 30  1  0  0  0  0
  7  8  1  0  0  0  0
  7 21  1  0  0  0  0
  8  9  1  0  0  0  0
  8 31  1  0  0  0  0
  9 10  2  0  0  0  0
  9 11  1  0  0  0  0
 11 12  1  0  0  0  0
 11 32  1  0  0  0  0
 12 18  1  0  0  0  0
 12 13  1  0  0  0  0
 12 33  1  0  0  0  0
 13 17  1  0  0  0  0
 13 14  1  0  0  0  0
 13 34  1  0  0  0  0
 14 15  1  0  0  0  0
 14 35  1  0  0  0  0
 14 36  1  0  0  0  0
 15 16  1  0  0  0  0
 15 37  1  0  0  0  0
 15 38  1  0  0  0  0
 16 17  1  0  0  0  0
 17 18  1  0  0  0  0
 17 39  1  0  0  0  0
 18 19  1  0  0  0  0
 18 20  1  0  0  0  0
 19 40  1  0  0  0  0
 19 41  1  0  0  0  0
 19 42  1  0  0  0  0
 20 43  1  0  0  0  0
 20 44  1  0  0  0  0
 20 45  1  0  0  0  0
 21 22  2  0  0  0  0
 21 46  1  0  0  0  0
 22 47  1  0  0  0  0
M  CHG  1  22   1
M  END
> <s_m_source_file>
AV-unprocessed.smi

> <i_m_source_file_index>
2923

> <i_lp_mmshare_version>
43012

> <i_f3d_flags>
0

> <s_epik_input>
W0NIM11OKFtDSDNdKWMxW2NIXVtjSF1jKFtjSF1uMSlbTkhdQyg9TylbTkhdW0NASF0yQyhbQ0gzXSkoW0NIM10pW0NAQEhdKFtDQEhdMjMpT1tDSDJdW0NIMl0z

> <s_epik_cmdline>
J2VwaWtfcHl0aG9uJywgJy1waCcsICc3LjAnLCAnLXRuJywgJzgnLCAnLW1hJywgJzIwMCcsICctbWV0YWxfYmluZGluZycsICctaW1hZScsICc8aW5maWxlLm1hZT4nLCAnLW9tYWUnLCAnPG91dGZpbGUubWFlPic=

> <r_lp_tautomer_probability>
0.999994

> <r_epik_Ionization_Penalty>
0.252205

> <r_epik_Ionization_Penalty_Charging>
0.252185

> <r_epik_Ionization_Penalty_Neutral>
1.99479e-05

> <r_epik_State_Penalty>
0.243573

> <r_epik_Charging_Adjusted_Penalty>
0.495758

> <i_epik_Tot_Q>
1

> <i_epik_Tot_abs_Q>
1

> <r_epik_Metal_State_Penalty>
0.534372

> <b_epik_Metal_Only>
0

> <s_lp_Force_Field>
OPLS_2005

> <r_lp_Energy>
76.1275

> <b_lp_Chiralities_Consistent>
1

> <s_lp_Variant>
AV-unprocessed.smi:2923-8

> <Gold.Version>
5.8.1

> <Gold.Id.Protein>
6NUR|6NUR_protein|mol2

> <Gold.PLP.Fitness>
39.9127

> <Gold.PLP.PLP>
-30.0949

> <Gold.PLP.part.hbond>
-3.8568

> <Gold.PLP.part.metal>
0.0000

> <Gold.PLP.part.buried>
-2.0721

> <Gold.PLP.part.nonpolar>
-24.7722

> <Gold.PLP.part.repulsive>
0.2061

> <Gold.PLP.ligand.clash>
0.0000

> <Gold.PLP.ligand.torsion>
0.4374

> <Gold.PLP.Chemscore.Hbond>
3.4114

> <Gold.PLP.Chemscore.CHOScore>
0.0000

> <Gold.PLP.Chemscore.Metal>
0.0000

> <Gold.Chemscore.Hbonds>
donor molecule, donor type, donor heavy atom, donor atom, acceptor molecule, acceptor atom, score
      L1  H     8    31       P1  7948  1.00
      L1  H    11    32       P1  7948  0.96
      L1  H    22    47       P1 10747  0.44
      P1  H  7989  7998       L1    16  1.00

> <Gold.PLP.Chemscore.Internal.Correction>
0.4585

> <Gold.Rescore>
     Score         DG    S(hbond)    S(metal)    S(lipo)     H(rot)  DE(clash)    DE(int)     intcor
     17.12     -18.93       2.50        0.00      69.93       1.20       0.07       1.75       ----

> <Gold.Chemscore.Fitness>
17.1200

> <Gold.Chemscore.DG>
-18.9345

> <Gold.Chemscore.ZeroCoef>
-5.4800

> <Gold.Chemscore.Hbond>
2.5021

> <Gold.Chemscore.Metal>
0.0000

> <Gold.Chemscore.Lipo>
69.9324

> <Gold.Chemscore.Internal_Hbond>
0.0000

> <Gold.Chemscore.DEClash>
0.0688

> <Gold.Chemscore.DEInternal>
1.7456

> <Gold.Chemscore.Rot>
1.2049

> <Gold.Chemscore.Internal.Correction>
   9.000000E+99

> <Gold.Chemscore.Hbonds>
donor molecule, donor type, donor heavy atom, donor atom, acceptor molecule, acceptor atom, score
      L1  H     8    31       P1  7948  0.26
      L1  H    11    32       P1  7948  0.90
      L1  H    22    47       P1 10747  0.39
      P1  H  7989  7998       L1    16  0.41

> <Gold.Chemscore.Hbond.Weighted>
-8.3570

> <Gold.Chemscore.Metal.Weighted>
-0.0000

> <Gold.Chemscore.Lipo.Weighted>
-8.1821

> <Gold.Chemscore.Internal_Hbond.Weighted>
0.0000

> <Gold.Chemscore.DEClash.Weighted>
0.0688

> <Gold.Chemscore.DEInternal.Weighted>
1.7456

> <Gold.Chemscore.Rot.Weighted>
3.0846

> <Gold.Chemscore.Internal.Correction.Weighted>
   9.000000E+99

> <Gold.Protein.RotatedTorsions>
[ 6907 6896 6895 6894 ] final -106.68 input  -60.11 | X-H torsion
[ 7974 7965 7964 7962 ] final  135.77 input  175.53 | X-H torsion
[ 8008 7997 7996 7995 ] final  128.07 input   59.86 | X-H torsion
[ 10167 10162 10161 10158 ] final   32.90 input  -65.29 | X-H torsion
[ 10718 10713 10712 10709 ] final  -40.93 input   66.30 | X-H torsion
[ 10763 10752 10751 10750 ] final   -5.19 input  -60.55 | X-H torsion
[ 11005 11000 10999 10996 ] final -171.76 input  -57.11 | X-H torsion

> <Gold.Protein.ActiveResidues>
 VAL166  LYS551  ARG553  GLY616  TRP617  ASP618  TYR619  PRO620  LYS621  CYS622 
 ASP623  PHE694  ASN695  SER759  ASP760  ASP761  ALA762  ILE779  LEU786  VAL792 
 PHE793  MET794  SER795  GLU796  ALA797  LYS798  CYS799  TRP800  GLU811  SER814 

> <Gold.Protein.RotatedAtoms>
  150.7402  133.9940  159.3616 H   0  0  0  0  0  0  0  0  0  0  0  0  # atno 6907 bound_to 6896
  151.7889  135.0739  160.0394 H   0  0  0  0  0  0  0  0  0  0  0  0  # atno 6908 bound_to 6896
  152.3221  133.5829  159.5788 H   0  0  0  0  0  0  0  0  0  0  0  0  # atno 6909 bound_to 6896
  144.9630  139.4689  143.5470 H   0  0  0  0  0  0  0  0  0  0  0  0  # atno 7974 bound_to 7965
  156.2906  140.2653  156.2377 H   0  0  0  0  0  0  0  0  0  0  0  0  # atno 8008 bound_to 7997
  155.0009  140.0388  157.2378 H   0  0  0  0  0  0  0  0  0  0  0  0  # atno 8009 bound_to 7997
  154.7602  140.2759  155.6225 H   0  0  0  0  0  0  0  0  0  0  0  0  # atno 8010 bound_to 7997
  140.4456  144.1123  150.6182 H   0  0  0  0  0  0  0  0  0  0  0  0  # atno 10167 bound_to 10162
  156.2759  130.4212  149.8388 H   0  0  0  0  0  0  0  0  0  0  0  0  # atno 10718 bound_to 10713
  153.3951  135.7003  153.6467 H   0  0  0  0  0  0  0  0  0  0  0  0  # atno 10763 bound_to 10752
  153.5023  135.3649  155.2546 H   0  0  0  0  0  0  0  0  0  0  0  0  # atno 10764 bound_to 10752
  154.8706  135.4115  154.3275 H   0  0  0  0  0  0  0  0  0  0  0  0  # atno 10765 bound_to 10752
  140.5046  134.5861  157.4999 H   0  0  0  0  0  0  0  0  0  0  0  0  # atno 11005 bound_to 11000
  146.3359  139.8793  142.8827 LP  0  0  0  0  0  0  0  0  0  0  0  0  # atno 17320 bound_to 7965
  145.2671  141.0096  143.3793 LP  0  0  0  0  0  0  0  0  0  0  0  0  # atno 17321 bound_to 7965
  140.4267  143.2586  151.9647 LP  0  0  0  0  0  0  0  0  0  0  0  0  # atno 17342 bound_to 10162
  139.4792  144.5781  151.7978 LP  0  0  0  0  0  0  0  0  0  0  0  0  # atno 17343 bound_to 10162
  156.5852  130.8483  151.3393 LP  0  0  0  0  0  0  0  0  0  0  0  0  # atno 17370 bound_to 10713
  157.7299  130.9678  150.1809 LP  0  0  0  0  0  0  0  0  0  0  0  0  # atno 17371 bound_to 10713
  139.9694  134.7319  156.0072 LP  0  0  0  0  0  0  0  0  0  0  0  0  # atno 17394 bound_to 11000
  141.1418  133.6563  156.3751 LP  0  0  0  0  0  0  0  0  0  0  0  0  # atno 17395 bound_to 11000

$$$$
