AV-unprocessed.smi:1570|AV-procd|sdf|6320|dock4
  -GOLD-   22720 6523D 1   1.00000     0.00000
 Structure written by MMmdl.
 52 54  0  0  0  0  0  0  0  0  2 V2000
  155.1384  140.4458  160.7011 C   0  0  0  0  0  0  0  0  0  0  0  0
  153.8075  139.8137  160.2731 C   0  0  0  0  0  0  0  0  0  0  0  0
  152.9356  140.7991  159.6390 N   0  0  0  0  0  0  0  0  0  0  0  0
  152.4080  140.7246  158.3945 C   0  0  0  0  0  0  0  0  0  0  0  0
  152.5677  139.8030  157.5945 O   0  0  0  0  0  0  0  0  0  0  0  0
  151.7057  141.8599  158.1659 N   0  0  0  0  0  0  0  0  0  0  0  0
  151.0084  142.2236  156.9329 C   0  0  0  0  0  0  0  0  0  0  0  0
  150.3037  141.0137  156.2860 C   0  0  2  0  0  0  0  0  0  0  0  0
  151.1990  140.4385  155.3562 O   0  0  0  0  0  0  0  0  0  0  0  0
  149.0006  141.3900  155.5477 C   0  0  0  0  0  0  0  0  0  0  0  0
  148.2536  140.2015  155.0660 N   0  3  1  0  0  0  0  0  0  0  0  0
  147.0966  139.8418  155.9228 C   0  0  0  0  0  0  0  0  0  0  0  0
  146.3975  138.5701  155.4041 C   0  0  2  0  0  0  0  0  0  0  0  0
  147.1923  137.2800  155.6734 C   0  0  0  0  0  0  0  0  0  0  0  0
  146.0590  138.7207  154.0252 O   0  0  0  0  0  0  0  0  0  0  0  0
  147.1549  139.0380  153.1707 C   0  0  1  0  0  0  0  0  0  0  0  0
  146.6172  139.1673  151.7412 C   0  0  0  0  0  0  0  0  0  0  0  0
  147.8236  140.3364  153.6555 C   0  0  0  0  0  0  0  0  0  0  0  0
  151.7989  142.6899  159.2921 C   0  0  0  0  0  0  0  0  0  0  0  0
  151.2667  143.9660  159.5456 C   0  0  0  0  0  0  0  0  0  0  0  0
  151.5605  144.5515  160.7993 C   0  0  0  0  0  0  0  0  0  0  0  0
  152.3612  143.8680  161.7510 C   0  0  0  0  0  0  0  0  0  0  0  0
  152.8842  142.5839  161.4698 C   0  0  0  0  0  0  0  0  0  0  0  0
  152.5747  142.0242  160.2178 C   0  0  0  0  0  0  0  0  0  0  0  0
  155.7849  139.7062  161.1737 H   0  0  0  0  0  0  0  0  0  0  0  0
  154.9798  141.2537  161.4161 H   0  0  0  0  0  0  0  0  0  0  0  0
  155.6742  140.8557  159.8442 H   0  0  0  0  0  0  0  0  0  0  0  0
  153.9943  138.9872  159.5855 H   0  0  0  0  0  0  0  0  0  0  0  0
  153.3042  139.3794  161.1371 H   0  0  0  0  0  0  0  0  0  0  0  0
  150.2910  143.0236  157.1243 H   0  0  0  0  0  0  0  0  0  0  0  0
  151.7419  142.6417  156.2421 H   0  0  0  0  0  0  0  0  0  0  0  0
  150.1092  140.2697  157.0578 H   0  0  0  0  0  0  0  0  0  0  0  0
  151.7948  139.8708  155.8218 H   0  0  0  0  0  0  0  0  0  0  0  0
  148.3399  141.9751  156.1875 H   0  0  0  0  0  0  0  0  0  0  0  0
  149.2551  142.0352  154.7052 H   0  0  0  0  0  0  0  0  0  0  0  0
  147.4068  139.6929  156.9565 H   0  0  0  0  0  0  0  0  0  0  0  0
  146.3864  140.6703  155.9275 H   0  0  0  0  0  0  0  0  0  0  0  0
  145.4511  138.4724  155.9370 H   0  0  0  0  0  0  0  0  0  0  0  0
  147.3211  137.1231  156.7445 H   0  0  0  0  0  0  0  0  0  0  0  0
  148.1872  137.3045  155.2294 H   0  0  0  0  0  0  0  0  0  0  0  0
  146.6689  136.4108  155.2747 H   0  0  0  0  0  0  0  0  0  0  0  0
  147.8808  138.2249  153.1849 H   0  0  0  0  0  0  0  0  0  0  0  0
  147.4185  139.4035  151.0401 H   0  0  0  0  0  0  0  0  0  0  0  0
  145.8671  139.9557  151.6702 H   0  0  0  0  0  0  0  0  0  0  0  0
  146.1538  138.2364  151.4136 H   0  0  0  0  0  0  0  0  0  0  0  0
  147.1355  141.1785  153.5633 H   0  0  0  0  0  0  0  0  0  0  0  0
  148.6869  140.5571  153.0267 H   0  0  0  0  0  0  0  0  0  0  0  0
  150.6602  144.4822  158.8163 H   0  0  0  0  0  0  0  0  0  0  0  0
  151.1715  145.5312  161.0345 H   0  0  0  0  0  0  0  0  0  0  0  0
  152.5747  144.3343  162.7016 H   0  0  0  0  0  0  0  0  0  0  0  0
  153.4968  142.0608  162.1890 H   0  0  0  0  0  0  0  0  0  0  0  0
  148.9020  139.4273  155.0931 H   0  0  0  0  0  0  0  0  0  0  0  0
  1  2  1  0  0  0  0
  1 25  1  0  0  0  0
  1 26  1  0  0  0  0
  1 27  1  0  0  0  0
  2  3  1  0  0  0  0
  2 28  1  0  0  0  0
  2 29  1  0  0  0  0
  3 24  1  0  0  0  0
  3  4  1  0  0  0  0
  4  5  2  0  0  0  0
  4  6  1  0  0  0  0
  6  7  1  0  0  0  0
  6 19  1  0  0  0  0
  7  8  1  0  0  0  0
  7 30  1  0  0  0  0
  7 31  1  0  0  0  0
  8  9  1  0  0  0  0
  8 10  1  0  0  0  0
  8 32  1  0  0  0  0
  9 33  1  0  0  0  0
 10 11  1  0  0  0  0
 10 34  1  0  0  0  0
 10 35  1  0  0  0  0
 11 18  1  0  0  0  0
 11 12  1  0  0  0  0
 11 52  1  0  0  0  0
 12 13  1  0  0  0  0
 12 36  1  0  0  0  0
 12 37  1  0  0  0  0
 13 14  1  0  0  0  0
 13 15  1  0  0  0  0
 13 38  1  0  0  0  0
 14 39  1  0  0  0  0
 14 40  1  0  0  0  0
 14 41  1  0  0  0  0
 15 16  1  0  0  0  0
 16 17  1  0  0  0  0
 16 18  1  0  0  0  0
 16 42  1  0  0  0  0
 17 43  1  0  0  0  0
 17 44  1  0  0  0  0
 17 45  1  0  0  0  0
 18 46  1  0  0  0  0
 18 47  1  0  0  0  0
 19 24  2  0  0  0  0
 19 20  1  0  0  0  0
 20 21  2  0  0  0  0
 20 48  1  0  0  0  0
 21 22  1  0  0  0  0
 21 49  1  0  0  0  0
 22 23  2  0  0  0  0
 22 50  1  0  0  0  0
 23 24  1  0  0  0  0
 23 51  1  0  0  0  0
M  CHG  1  11   1
M  END
> <s_m_source_file>
AV-unprocessed.smi

> <i_m_source_file_index>
1570

> <i_lp_mmshare_version>
43012

> <i_f3d_flags>
0

> <s_epik_input>
W2NIXTFbY0hdW2NIXVtjSF1jKGMxMiluKFtDSDJdW0NIM10pYyg9TyluMltDSDJdW0NASF0oW09IXSlbQ0gyXU4zW0NIMl1bQ0BASF0oW0NIM10pT1tDQEBIXShbQ0gzXSlbQ0gyXTM=

> <s_epik_cmdline>
J2VwaWtfcHl0aG9uJywgJy1waCcsICc3LjAnLCAnLXRuJywgJzgnLCAnLW1hJywgJzIwMCcsICctbWV0YWxfYmluZGluZycsICctaW1hZScsICc8aW5maWxlLm1hZT4nLCAnLW9tYWUnLCAnPG91dGZpbGUubWFlPic=

> <r_epik_Ionization_Penalty>
0.706332

> <r_epik_Ionization_Penalty_Charging>
0.706318

> <r_epik_Ionization_Penalty_Neutral>
1.42224e-05

> <r_epik_State_Penalty>
0.729493

> <r_epik_Charging_Adjusted_Penalty>
1.43581

> <i_epik_Tot_Q>
1

> <i_epik_Tot_abs_Q>
1

> <r_epik_Metal_State_Penalty>
0.729493

> <b_epik_Metal_Only>
0

> <s_lp_Force_Field>
OPLS_2005

> <r_lp_Energy>
53.5828

> <b_lp_Chiralities_Consistent>
1

> <s_lp_Variant>
AV-unprocessed.smi:1570-9

> <Gold.Version>
5.8.1

> <Gold.Id.Protein>
6NUR|6NUR_protein|mol2

> <Gold.PLP.Fitness>
50.6276

> <Gold.PLP.PLP>
-47.4967

> <Gold.PLP.part.hbond>
-2.0000

> <Gold.PLP.part.metal>
0.0000

> <Gold.PLP.part.buried>
-2.9638

> <Gold.PLP.part.nonpolar>
-42.1940

> <Gold.PLP.part.repulsive>
0.1905

> <Gold.PLP.ligand.clash>
0.0000

> <Gold.PLP.ligand.torsion>
1.4127

> <Gold.PLP.Chemscore.Hbond>
1.9600

> <Gold.PLP.Chemscore.CHOScore>
0.0000

> <Gold.PLP.Chemscore.Metal>
0.0000

> <Gold.Chemscore.Hbonds>
donor molecule, donor type, donor heavy atom, donor atom, acceptor molecule, acceptor atom, score
      P1  H  7989  7998       L1     9  0.94
      P1  H  7997  8009       L1     5  0.88

> <Gold.PLP.Chemscore.Internal.Correction>
0.0764

> <Gold.Rescore>
     Score         DG    S(hbond)    S(metal)    S(lipo)     H(rot)  DE(clash)    DE(int)     intcor
     18.50     -20.91       1.84        0.00     126.09       2.13       0.03       2.38       ----

> <Gold.Chemscore.Fitness>
18.5036

> <Gold.Chemscore.DG>
-20.9087

> <Gold.Chemscore.ZeroCoef>
-5.4800

> <Gold.Chemscore.Hbond>
1.8351

> <Gold.Chemscore.Metal>
0.0000

> <Gold.Chemscore.Lipo>
126.0932

> <Gold.Chemscore.Internal_Hbond>
0.0000

> <Gold.Chemscore.DEClash>
0.0253

> <Gold.Chemscore.DEInternal>
2.3799

> <Gold.Chemscore.Rot>
2.1303

> <Gold.Chemscore.Internal.Correction>
   9.000000E+99

> <Gold.Chemscore.Hbonds>
donor molecule, donor type, donor heavy atom, donor atom, acceptor molecule, acceptor atom, score
      P1  H  7989  7998       L1     9  0.86
      P1  H  7997  8009       L1     5  0.59

> <Gold.Chemscore.Hbond.Weighted>
-6.1294

> <Gold.Chemscore.Metal.Weighted>
-0.0000

> <Gold.Chemscore.Lipo.Weighted>
-14.7529

> <Gold.Chemscore.Internal_Hbond.Weighted>
0.0000

> <Gold.Chemscore.DEClash.Weighted>
0.0253

> <Gold.Chemscore.DEInternal.Weighted>
2.3799

> <Gold.Chemscore.Rot.Weighted>
5.4535

> <Gold.Chemscore.Internal.Correction.Weighted>
   9.000000E+99

> <Gold.Protein.RotatedTorsions>
[ 6907 6896 6895 6894 ] final -140.11 input  -60.11 | X-H torsion
[ 7974 7965 7964 7962 ] final  -61.40 input  175.53 | X-H torsion
[ 8008 7997 7996 7995 ] final -175.48 input   59.86 | X-H torsion
[ 10167 10162 10161 10158 ] final   50.77 input  -65.29 | X-H torsion
[ 10718 10713 10712 10709 ] final  -20.72 input   66.30 | X-H torsion
[ 10763 10752 10751 10750 ] final   99.44 input  -60.55 | X-H torsion
[ 11005 11000 10999 10996 ] final   56.55 input  -57.11 | X-H torsion

> <Gold.Protein.ActiveResidues>
 VAL166  LYS551  ARG553  GLY616  TRP617  ASP618  TYR619  PRO620  LYS621  CYS622 
 ASP623  PHE694  ASN695  SER759  ASP760  ASP761  ALA762  ILE779  LEU786  VAL792 
 PHE793  MET794  SER795  GLU796  ALA797  LYS798  CYS799  TRP800  GLU811  SER814 

> <Gold.Protein.RotatedAtoms>
  151.0565  133.5580  159.2637 H   0  0  0  0  0  0  0  0  0  0  0  0  # atno 6907 bound_to 6896
  151.2571  135.0641  159.9094 H   0  0  0  0  0  0  0  0  0  0  0  0  # atno 6908 bound_to 6896
  152.5390  134.0316  159.8081 H   0  0  0  0  0  0  0  0  0  0  0  0  # atno 6909 bound_to 6896
  145.8040  140.8638  143.0216 H   0  0  0  0  0  0  0  0  0  0  0  0  # atno 7974 bound_to 7965
  155.9830  140.1185  157.0709 H   0  0  0  0  0  0  0  0  0  0  0  0  # atno 8008 bound_to 7997
  154.4188  140.1140  156.5529 H   0  0  0  0  0  0  0  0  0  0  0  0  # atno 8009 bound_to 7997
  155.6445  140.3473  155.4728 H   0  0  0  0  0  0  0  0  0  0  0  0  # atno 8010 bound_to 7997
  140.2689  144.3288  150.6296 H   0  0  0  0  0  0  0  0  0  0  0  0  # atno 10167 bound_to 10162
  156.5280  130.4648  149.6562 H   0  0  0  0  0  0  0  0  0  0  0  0  # atno 10718 bound_to 10713
  153.3014  135.4113  155.1256 H   0  0  0  0  0  0  0  0  0  0  0  0  # atno 10763 bound_to 10752
  154.8550  135.3542  154.5846 H   0  0  0  0  0  0  0  0  0  0  0  0  # atno 10764 bound_to 10752
  153.6271  135.7062  153.5347 H   0  0  0  0  0  0  0  0  0  0  0  0  # atno 10765 bound_to 10752
  140.0521  134.5722  155.9251 H   0  0  0  0  0  0  0  0  0  0  0  0  # atno 11005 bound_to 11000
  144.6765  140.0299  143.7482 LP  0  0  0  0  0  0  0  0  0  0  0  0  # atno 17320 bound_to 7965
  145.9848  139.2969  143.1020 LP  0  0  0  0  0  0  0  0  0  0  0  0  # atno 17321 bound_to 7965
  140.5906  143.2168  151.7260 LP  0  0  0  0  0  0  0  0  0  0  0  0  # atno 17342 bound_to 10162
  139.4995  144.3945  152.0245 LP  0  0  0  0  0  0  0  0  0  0  0  0  # atno 17343 bound_to 10162
  156.3087  130.7217  151.2105 LP  0  0  0  0  0  0  0  0  0  0  0  0  # atno 17370 bound_to 10713
  157.7426  131.0487  150.5009 LP  0  0  0  0  0  0  0  0  0  0  0  0  # atno 17371 bound_to 10713
  141.1935  133.6579  156.5551 LP  0  0  0  0  0  0  0  0  0  0  0  0  # atno 17394 bound_to 11000
  140.3902  134.7447  157.4716 LP  0  0  0  0  0  0  0  0  0  0  0  0  # atno 17395 bound_to 11000

$$$$
