AV-unprocessed.smi:919|AV-procd|sdf|4167|dock6
  -GOLD-   22720 2 73D 1   1.00000     0.00000
 Structure written by MMmdl.
 43 45  0  0  0  0  0  0  0  0  1 V2000
  150.3150  137.9455  154.6362 C   0  0  0  0  0  0  0  0  0  0  0  0
  149.6563  139.2779  154.4217 C   0  0  0  0  0  0  0  0  0  0  0  0
  150.4015  140.3585  154.2601 N   0  0  0  0  0  0  0  0  0  0  0  0
  149.5056  141.4186  154.0883 O   0  0  0  0  0  0  0  0  0  0  0  0
  148.2415  140.9282  154.1531 C   0  0  0  0  0  0  0  0  0  0  0  0
  147.1353  141.9156  153.9947 C   0  0  0  0  0  0  0  0  0  0  0  0
  148.2654  139.5764  154.3590 C   0  0  0  0  0  0  0  0  0  0  0  0
  147.1123  138.6201  154.4951 C   0  0  0  0  0  0  0  0  0  0  0  0
  146.2984  138.5356  153.1944 C   0  0  0  0  0  0  0  0  0  0  0  0
  146.5873  137.3085  152.4632 N   0  0  0  0  0  0  0  0  0  0  0  0
  145.6632  136.4367  152.0248 C   0  0  0  0  0  0  0  0  0  0  0  0
  144.4540  136.5928  152.1850 O   0  0  0  0  0  0  0  0  0  0  0  0
  146.1625  135.3616  151.3898 N   0  0  0  0  0  0  0  0  0  0  0  0
  145.4240  134.2422  150.8011 C   0  0  1  0  0  0  0  0  0  0  0  0
  146.3362  133.0578  150.4017 C   0  0  0  0  0  0  0  0  0  0  0  0
  145.7513  131.8858  151.2111 C   0  0  2  0  0  0  0  0  0  0  0  0
  144.3661  131.5111  150.6491 C   0  0  0  0  0  0  0  0  0  0  0  0
  143.4811  132.6873  151.1071 C   0  0  0  0  0  0  0  0  0  0  0  0
  144.4845  133.5955  151.8422 C   0  0  1  0  0  0  0  0  0  0  0  0
  145.3855  132.5683  152.5219 C   0  0  0  0  0  0  0  0  0  0  0  0
  149.7516  137.3395  155.3465 H   0  0  0  0  0  0  0  0  0  0  0  0
  151.3269  138.0551  155.0281 H   0  0  0  0  0  0  0  0  0  0  0  0
  150.3778  137.3881  153.7016 H   0  0  0  0  0  0  0  0  0  0  0  0
  146.1814  141.4886  154.3048 H   0  0  0  0  0  0  0  0  0  0  0  0
  147.0442  142.2286  152.9546 H   0  0  0  0  0  0  0  0  0  0  0  0
  147.3187  142.8028  154.6011 H   0  0  0  0  0  0  0  0  0  0  0  0
  147.4683  137.6248  154.7637 H   0  0  0  0  0  0  0  0  0  0  0  0
  146.4614  138.9280  155.3143 H   0  0  0  0  0  0  0  0  0  0  0  0
  145.2295  138.6016  153.4058 H   0  0  0  0  0  0  0  0  0  0  0  0
  146.5392  139.3808  152.5489 H   0  0  0  0  0  0  0  0  0  0  0  0
  147.5589  137.0999  152.2850 H   0  0  0  0  0  0  0  0  0  0  0  0
  147.1671  135.3216  151.2944 H   0  0  0  0  0  0  0  0  0  0  0  0
  144.8449  134.6038  149.9494 H   0  0  0  0  0  0  0  0  0  0  0  0
  146.3191  132.8671  149.3279 H   0  0  0  0  0  0  0  0  0  0  0  0
  147.3739  133.2345  150.6888 H   0  0  0  0  0  0  0  0  0  0  0  0
  146.4304  131.0380  151.3066 H   0  0  0  0  0  0  0  0  0  0  0  0
  144.3787  131.3967  149.5645 H   0  0  0  0  0  0  0  0  0  0  0  0
  144.0107  130.5743  151.0805 H   0  0  0  0  0  0  0  0  0  0  0  0
  142.9913  133.1916  150.2734 H   0  0  0  0  0  0  0  0  0  0  0  0
  142.7042  132.3384  151.7886 H   0  0  0  0  0  0  0  0  0  0  0  0
  144.0067  134.3085  152.5153 H   0  0  0  0  0  0  0  0  0  0  0  0
  144.8529  131.9162  153.2166 H   0  0  0  0  0  0  0  0  0  0  0  0
  146.2420  133.0116  153.0331 H   0  0  0  0  0  0  0  0  0  0  0  0
  1  2  1  0  0  0  0
  1 21  1  0  0  0  0
  1 22  1  0  0  0  0
  1 23  1  0  0  0  0
  2  7  1  0  0  0  0
  2  3  2  0  0  0  0
  3  4  1  0  0  0  0
  4  5  1  0  0  0  0
  5  6  1  0  0  0  0
  5  7  2  0  0  0  0
  6 24  1  0  0  0  0
  6 25  1  0  0  0  0
  6 26  1  0  0  0  0
  7  8  1  0  0  0  0
  8  9  1  0  0  0  0
  8 27  1  0  0  0  0
  8 28  1  0  0  0  0
  9 10  1  0  0  0  0
  9 29  1  0  0  0  0
  9 30  1  0  0  0  0
 10 11  1  0  0  0  0
 10 31  1  0  0  0  0
 11 12  2  0  0  0  0
 11 13  1  0  0  0  0
 13 14  1  0  0  0  0
 13 32  1  0  0  0  0
 14 19  1  0  0  0  0
 14 15  1  0  0  0  0
 14 33  1  0  0  0  0
 15 16  1  0  0  0  0
 15 34  1  0  0  0  0
 15 35  1  0  0  0  0
 16 20  1  0  0  0  0
 16 17  1  0  0  0  0
 16 36  1  0  0  0  0
 17 18  1  0  0  0  0
 17 37  1  0  0  0  0
 17 38  1  0  0  0  0
 18 19  1  0  0  0  0
 18 39  1  0  0  0  0
 18 40  1  0  0  0  0
 19 20  1  0  0  0  0
 19 41  1  0  0  0  0
 20 42  1  0  0  0  0
 20 43  1  0  0  0  0
M  END
> <s_m_source_file>
AV-unprocessed.smi

> <i_m_source_file_index>
919

> <i_lp_mmshare_version>
43012

> <i_f3d_flags>
0

> <s_epik_input>
W0NIM11jMW5vYyhbQ0gzXSljMVtDSDJdW0NIMl1bTkhdQyg9TylbTkhdW0NASF0oW0NIMl1bQ0BASF0yMylbQ0BASF0oW0NIMl0zKVtDSDJdW0NIMl0y

> <s_epik_cmdline>
J2VwaWtfcHl0aG9uJywgJy1waCcsICc3LjAnLCAnLXRuJywgJzgnLCAnLW1hJywgJzIwMCcsICctbWV0YWxfYmluZGluZycsICctaW1hZScsICc8aW5maWxlLm1hZT4nLCAnLW9tYWUnLCAnPG91dGZpbGUubWFlPic=

> <r_lp_tautomer_probability>
1

> <r_epik_Ionization_Penalty>
6.40771e-05

> <r_epik_Ionization_Penalty_Charging>
0

> <r_epik_Ionization_Penalty_Neutral>
6.40771e-05

> <r_epik_State_Penalty>
-0

> <r_epik_Charging_Adjusted_Penalty>
0

> <i_epik_Tot_Q>
0

> <i_epik_Tot_abs_Q>
0

> <r_epik_Metal_State_Penalty>
-0

> <b_epik_Metal_Only>
0

> <s_lp_Force_Field>
OPLS_2005

> <r_lp_Energy>
47.296

> <b_lp_Chiralities_Consistent>
1

> <s_lp_Variant>
AV-unprocessed.smi:919-4

> <Gold.Version>
5.8.1

> <Gold.Id.Protein>
6NUR|6NUR_protein|mol2

> <Gold.PLP.Fitness>
48.3136

> <Gold.PLP.PLP>
-38.4409

> <Gold.PLP.part.hbond>
-4.7617

> <Gold.PLP.part.metal>
0.0000

> <Gold.PLP.part.buried>
-6.4045

> <Gold.PLP.part.nonpolar>
-28.6207

> <Gold.PLP.part.repulsive>
0.6233

> <Gold.PLP.ligand.clash>
0.0000

> <Gold.PLP.ligand.torsion>
0.4327

> <Gold.PLP.Chemscore.Hbond>
3.5716

> <Gold.PLP.Chemscore.CHOScore>
0.0000

> <Gold.PLP.Chemscore.Metal>
0.0000

> <Gold.Chemscore.Hbonds>
donor molecule, donor type, donor heavy atom, donor atom, acceptor molecule, acceptor atom, score
      L1  H    10    31       P1  7948  1.00
      L1  H    13    32       P1  7948  0.91
      P1  H  7989  7998       L1     3  0.99
      P1  H  8011  8017       L1     4  0.68

> <Gold.PLP.Chemscore.Internal.Correction>
0.0232

> <Gold.Rescore>
     Score         DG    S(hbond)    S(metal)    S(lipo)     H(rot)  DE(clash)    DE(int)     intcor
     19.11     -20.81       2.58        0.00      90.40       1.52       0.16       1.54       ----

> <Gold.Chemscore.Fitness>
19.1123

> <Gold.Chemscore.DG>
-20.8090

> <Gold.Chemscore.ZeroCoef>
-5.4800

> <Gold.Chemscore.Hbond>
2.5849

> <Gold.Chemscore.Metal>
0.0000

> <Gold.Chemscore.Lipo>
90.3976

> <Gold.Chemscore.Internal_Hbond>
0.0000

> <Gold.Chemscore.DEClash>
0.1569

> <Gold.Chemscore.DEInternal>
1.5397

> <Gold.Chemscore.Rot>
1.5161

> <Gold.Chemscore.Internal.Correction>
   9.000000E+99

> <Gold.Chemscore.Hbonds>
donor molecule, donor type, donor heavy atom, donor atom, acceptor molecule, acceptor atom, score
      L1  H    10    31       P1  7948  1.00
      L1  H    13    32       P1  7948  0.71
      P1  H  7989  7998       L1     3  0.26
      P1  H  8011  8017       L1     4  0.42

> <Gold.Chemscore.Hbond.Weighted>
-8.6337

> <Gold.Chemscore.Metal.Weighted>
-0.0000

> <Gold.Chemscore.Lipo.Weighted>
-10.5765

> <Gold.Chemscore.Internal_Hbond.Weighted>
0.0000

> <Gold.Chemscore.DEClash.Weighted>
0.1569

> <Gold.Chemscore.DEInternal.Weighted>
1.5397

> <Gold.Chemscore.Rot.Weighted>
3.8813

> <Gold.Chemscore.Internal.Correction.Weighted>
   9.000000E+99

> <Gold.Protein.RotatedTorsions>
[ 6907 6896 6895 6894 ] final -163.93 input  -60.11 | X-H torsion
[ 7974 7965 7964 7962 ] final -127.86 input  175.53 | X-H torsion
[ 8008 7997 7996 7995 ] final -172.41 input   59.86 | X-H torsion
[ 10167 10162 10161 10158 ] final   99.76 input  -65.29 | X-H torsion
[ 10718 10713 10712 10709 ] final  -54.86 input   66.30 | X-H torsion
[ 10763 10752 10751 10750 ] final  143.29 input  -60.55 | X-H torsion
[ 11005 11000 10999 10996 ] final   -1.01 input  -57.11 | X-H torsion

> <Gold.Protein.ActiveResidues>
 VAL166  LYS551  ARG553  GLY616  TRP617  ASP618  TYR619  PRO620  LYS621  CYS622 
 ASP623  PHE694  ASN695  SER759  ASP760  ASP761  ALA762  ILE779  LEU786  VAL792 
 PHE793  MET794  SER795  GLU796  ALA797  LYS798  CYS799  TRP800  GLU811  SER814 

> <Gold.Protein.RotatedAtoms>
  151.4038  133.3749  159.2735 H   0  0  0  0  0  0  0  0  0  0  0  0  # atno 6907 bound_to 6896
  150.9413  134.8823  159.7625 H   0  0  0  0  0  0  0  0  0  0  0  0  # atno 6908 bound_to 6896
  152.5073  134.3989  159.9462 H   0  0  0  0  0  0  0  0  0  0  0  0  # atno 6909 bound_to 6896
  144.9728  140.7563  143.4660 H   0  0  0  0  0  0  0  0  0  0  0  0  # atno 7974 bound_to 7965
  155.9442  140.1114  157.1030 H   0  0  0  0  0  0  0  0  0  0  0  0  # atno 8008 bound_to 7997
  154.4096  140.1213  156.5034 H   0  0  0  0  0  0  0  0  0  0  0  0  # atno 8009 bound_to 7997
  155.6923  140.3472  155.4901 H   0  0  0  0  0  0  0  0  0  0  0  0  # atno 8010 bound_to 7997
  139.7588  144.6961  151.0322 H   0  0  0  0  0  0  0  0  0  0  0  0  # atno 10167 bound_to 10162
  156.1416  130.4154  150.0094 H   0  0  0  0  0  0  0  0  0  0  0  0  # atno 10718 bound_to 10713
  153.9700  135.2951  155.3428 H   0  0  0  0  0  0  0  0  0  0  0  0  # atno 10763 bound_to 10752
  154.7328  135.5060  153.8994 H   0  0  0  0  0  0  0  0  0  0  0  0  # atno 10764 bound_to 10752
  153.0905  135.6706  153.9976 H   0  0  0  0  0  0  0  0  0  0  0  0  # atno 10765 bound_to 10752
  140.6426  133.9476  155.8334 H   0  0  0  0  0  0  0  0  0  0  0  0  # atno 11005 bound_to 11000
  145.2533  139.2022  143.4930 LP  0  0  0  0  0  0  0  0  0  0  0  0  # atno 17320 bound_to 7965
  146.3387  140.2450  142.8597 LP  0  0  0  0  0  0  0  0  0  0  0  0  # atno 17321 bound_to 7965
  140.7805  143.4721  151.0132 LP  0  0  0  0  0  0  0  0  0  0  0  0  # atno 17342 bound_to 10162
  139.8407  143.7567  152.3180 LP  0  0  0  0  0  0  0  0  0  0  0  0  # atno 17343 bound_to 10162
  156.7977  130.9279  151.3646 LP  0  0  0  0  0  0  0  0  0  0  0  0  # atno 17370 bound_to 10713
  157.6580  130.8941  149.9770 LP  0  0  0  0  0  0  0  0  0  0  0  0  # atno 17371 bound_to 10713
  141.0596  134.0366  157.3677 LP  0  0  0  0  0  0  0  0  0  0  0  0  # atno 17394 bound_to 11000
  139.9075  135.0183  156.7548 LP  0  0  0  0  0  0  0  0  0  0  0  0  # atno 17395 bound_to 11000

$$$$
