AV-unprocessed.smi:3327|AV-procd|sdf|12789|dock10
  -GOLD-   2272019143D 1   1.00000     0.00000
 Structure written by MMmdl.
 40 41  0  0  0  0  0  0  0  0  1 V2000
  151.7504  145.4370  159.5161 C   0  0  0  0  0  0  0  0  0  0  0  0
  151.9264  144.0177  160.0742 C   0  0  2  0  0  0  0  0  0  0  0  0
  152.2114  144.0372  161.5914 C   0  0  0  0  0  0  0  0  0  0  0  0
  152.5106  142.6291  162.1389 C   0  0  0  0  0  0  0  0  0  0  0  0
  153.5911  141.9276  161.2973 C   0  0  0  0  0  0  0  0  0  0  0  0
  153.1486  141.8949  159.8963 N   0  0  0  0  0  0  0  0  0  0  0  0
  152.7488  140.7902  159.2191 C   0  0  0  0  0  0  0  0  0  0  0  0
  152.8388  139.6603  159.7037 O   0  0  0  0  0  0  0  0  0  0  0  0
  152.1922  140.9483  157.7890 C   0  0  0  0  0  0  0  0  0  0  0  0
  151.9588  139.6903  157.0599 N   0  0  0  0  0  0  0  0  0  0  0  0
  151.5391  139.8924  155.6762 C   0  0  0  0  0  0  0  0  0  0  0  0
  150.4801  141.0050  155.5959 C   0  0  0  0  0  0  0  0  0  0  0  0
  149.3767  140.6635  154.7158 N   0  0  0  0  0  0  0  0  0  0  0  0
  148.3060  141.4470  154.3394 C   0  0  0  0  0  0  0  0  0  0  0  0
  147.5308  140.6996  153.4999 C   0  0  0  0  0  0  0  0  0  0  0  0
  148.2185  139.4564  153.4221 C   0  0  0  0  0  0  0  0  0  0  0  0
  149.3244  139.4386  154.1487 N   0  0  0  0  0  0  0  0  0  0  0  0
  153.0415  143.2485  159.3345 C   0  0  0  0  0  0  0  0  0  0  0  0
  152.6611  146.0254  159.6328 H   0  0  0  0  0  0  0  0  0  0  0  0
  150.9453  145.9636  160.0293 H   0  0  0  0  0  0  0  0  0  0  0  0
  151.5035  145.4127  158.4545 H   0  0  0  0  0  0  0  0  0  0  0  0
  150.9884  143.4835  159.9149 H   0  0  0  0  0  0  0  0  0  0  0  0
  153.0689  144.6819  161.7891 H   0  0  0  0  0  0  0  0  0  0  0  0
  151.3687  144.4731  162.1288 H   0  0  0  0  0  0  0  0  0  0  0  0
  152.8281  142.6942  163.1801 H   0  0  0  0  0  0  0  0  0  0  0  0
  151.5981  142.0313  162.1300 H   0  0  0  0  0  0  0  0  0  0  0  0
  154.5310  142.4775  161.3635 H   0  0  0  0  0  0  0  0  0  0  0  0
  153.7982  140.9472  161.7216 H   0  0  0  0  0  0  0  0  0  0  0  0
  151.2571  141.5090  157.8140 H   0  0  0  0  0  0  0  0  0  0  0  0
  152.9047  141.5431  157.2170 H   0  0  0  0  0  0  0  0  0  0  0  0
  151.3001  139.0965  157.5436 H   0  0  0  0  0  0  0  0  0  0  0  0
  152.3909  140.1730  155.0575 H   0  0  0  0  0  0  0  0  0  0  0  0
  151.1409  138.9634  155.2654 H   0  0  0  0  0  0  0  0  0  0  0  0
  150.0854  141.2336  156.5869 H   0  0  0  0  0  0  0  0  0  0  0  0
  150.9375  141.9235  155.2256 H   0  0  0  0  0  0  0  0  0  0  0  0
  148.1861  142.4588  154.6974 H   0  0  0  0  0  0  0  0  0  0  0  0
  146.6122  140.9954  153.0155 H   0  0  0  0  0  0  0  0  0  0  0  0
  147.9498  138.5733  152.8615 H   0  0  0  0  0  0  0  0  0  0  0  0
  152.8437  143.2424  158.2615 H   0  0  0  0  0  0  0  0  0  0  0  0
  153.9970  143.7623  159.4522 H   0  0  0  0  0  0  0  0  0  0  0  0
  1  2  1  0  0  0  0
  1 19  1  0  0  0  0
  1 20  1  0  0  0  0
  1 21  1  0  0  0  0
  2 18  1  0  0  0  0
  2  3  1  0  0  0  0
  2 22  1  0  0  0  0
  3  4  1  0  0  0  0
  3 23  1  0  0  0  0
  3 24  1  0  0  0  0
  4  5  1  0  0  0  0
  4 25  1  0  0  0  0
  4 26  1  0  0  0  0
  5  6  1  0  0  0  0
  5 27  1  0  0  0  0
  5 28  1  0  0  0  0
  6  7  1  0  0  0  0
  6 18  1  0  0  0  0
  7  8  2  0  0  0  0
  7  9  1  0  0  0  0
  9 10  1  0  0  0  0
  9 29  1  0  0  0  0
  9 30  1  0  0  0  0
 10 11  1  0  0  0  0
 10 31  1  0  0  0  0
 11 12  1  0  0  0  0
 11 32  1  0  0  0  0
 11 33  1  0  0  0  0
 12 13  1  0  0  0  0
 12 34  1  0  0  0  0
 12 35  1  0  0  0  0
 13 17  1  0  0  0  0
 13 14  1  0  0  0  0
 14 15  2  0  0  0  0
 14 36  1  0  0  0  0
 15 16  1  0  0  0  0
 15 37  1  0  0  0  0
 16 17  2  0  0  0  0
 16 38  1  0  0  0  0
 18 39  1  0  0  0  0
 18 40  1  0  0  0  0
M  END
> <s_m_source_file>
AV-unprocessed.smi

> <i_m_source_file_index>
3327

> <i_lp_mmshare_version>
43012

> <i_f3d_flags>
0

> <s_epik_input>
W0NIM11bQ0BASF0xW0NIMl1bQ0gyXVtDSDJdTihbQ0gyXTEpQyg9TylbQ0gyXVtOSF1bQ0gyXVtDSDJdbjJbY0hdW2NIXVtjSF1uMg==

> <s_epik_cmdline>
J2VwaWtfcHl0aG9uJywgJy1waCcsICc3LjAnLCAnLXRuJywgJzgnLCAnLW1hJywgJzIwMCcsICctbWV0YWxfYmluZGluZycsICctaW1hZScsICc8aW5maWxlLm1hZT4nLCAnLW9tYWUnLCAnPG91dGZpbGUubWFlPic=

> <r_lp_tautomer_probability>
1

> <r_epik_Ionization_Penalty>
0.752964

> <r_epik_Ionization_Penalty_Charging>
0

> <r_epik_Ionization_Penalty_Neutral>
0.752964

> <r_epik_State_Penalty>
0.778238

> <r_epik_Charging_Adjusted_Penalty>
0.778238

> <i_epik_Tot_Q>
0

> <i_epik_Tot_abs_Q>
0

> <r_epik_Metal_State_Penalty>
0.776974

> <b_epik_Metal_Only>
0

> <s_lp_Force_Field>
OPLS_2005

> <r_lp_Energy>
27.1089

> <b_lp_Chiralities_Consistent>
1

> <s_lp_Variant>
AV-unprocessed.smi:3327-3

> <Gold.Version>
5.8.1

> <Gold.Id.Protein>
6NUR|6NUR_protein|mol2

> <Gold.PLP.Fitness>
50.5268

> <Gold.PLP.PLP>
-46.8176

> <Gold.PLP.part.hbond>
0.0000

> <Gold.PLP.part.metal>
0.0000

> <Gold.PLP.part.buried>
-1.4039

> <Gold.PLP.part.nonpolar>
-45.5370

> <Gold.PLP.part.repulsive>
0.6043

> <Gold.PLP.ligand.clash>
0.0000

> <Gold.PLP.ligand.torsion>
0.4640

> <Gold.PLP.Chemscore.Hbond>
0.0000

> <Gold.PLP.Chemscore.CHOScore>
1.5361

> <Gold.PLP.Chemscore.Metal>
0.0000

> <Gold.Chemscore.Hbonds>
donor molecule, donor type, donor heavy atom, donor atom, acceptor molecule, acceptor atom, score
      L1  C    14    36       P1  8028  1.00
      L1  C    16    38       P1  7948  0.54

> <Gold.PLP.Chemscore.Internal.Correction>
0.0288

> <Gold.Rescore>
     Score         DG    S(hbond)    S(metal)    S(lipo)     H(rot)  DE(clash)    DE(int)     intcor
     14.23     -14.78       0.00        0.00     117.34       1.73       0.05       0.50       ----

> <Gold.Chemscore.Fitness>
14.2275

> <Gold.Chemscore.DG>
-14.7815

> <Gold.Chemscore.ZeroCoef>
-5.4800

> <Gold.Chemscore.Hbond>
0.0000

> <Gold.Chemscore.Metal>
0.0000

> <Gold.Chemscore.Lipo>
117.3444

> <Gold.Chemscore.Internal_Hbond>
0.0000

> <Gold.Chemscore.DEClash>
0.0537

> <Gold.Chemscore.DEInternal>
0.5004

> <Gold.Chemscore.Rot>
1.7296

> <Gold.Chemscore.Internal.Correction>
   9.000000E+99

> <Gold.Chemscore.Hbond.Weighted>
-0.0000

> <Gold.Chemscore.Metal.Weighted>
-0.0000

> <Gold.Chemscore.Lipo.Weighted>
-13.7293

> <Gold.Chemscore.Internal_Hbond.Weighted>
0.0000

> <Gold.Chemscore.DEClash.Weighted>
0.0537

> <Gold.Chemscore.DEInternal.Weighted>
0.5004

> <Gold.Chemscore.Rot.Weighted>
4.4278

> <Gold.Chemscore.Internal.Correction.Weighted>
   9.000000E+99

> <Gold.Protein.RotatedTorsions>
[ 6907 6896 6895 6894 ] final  -16.53 input  -60.11 | X-H torsion
[ 7974 7965 7964 7962 ] final  142.66 input  175.53 | X-H torsion
[ 8008 7997 7996 7995 ] final   28.21 input   59.86 | X-H torsion
[ 10167 10162 10161 10158 ] final   73.38 input  -65.29 | X-H torsion
[ 10718 10713 10712 10709 ] final   21.62 input   66.30 | X-H torsion
[ 10763 10752 10751 10750 ] final   99.52 input  -60.55 | X-H torsion
[ 11005 11000 10999 10996 ] final  -11.78 input  -57.11 | X-H torsion

> <Gold.Protein.ActiveResidues>
 VAL166  LYS551  ARG553  GLY616  TRP617  ASP618  TYR619  PRO620  LYS621  CYS622 
 ASP623  PHE694  ASN695  SER759  ASP760  ASP761  ALA762  ILE779  LEU786  VAL792 
 PHE793  MET794  SER795  GLU796  ALA797  LYS798  CYS799  TRP800  GLU811  SER814 

> <Gold.Protein.RotatedAtoms>
  151.3072  135.0784  159.9259 H   0  0  0  0  0  0  0  0  0  0  0  0  # atno 6907 bound_to 6896
  152.5285  133.9773  159.7800 H   0  0  0  0  0  0  0  0  0  0  0  0  # atno 6908 bound_to 6896
  151.0070  133.5950  159.2718 H   0  0  0  0  0  0  0  0  0  0  0  0  # atno 6909 bound_to 6896
  144.8988  139.5452  143.5763 H   0  0  0  0  0  0  0  0  0  0  0  0  # atno 7974 bound_to 7965
  155.0550  140.3184  155.4679 H   0  0  0  0  0  0  0  0  0  0  0  0  # atno 8008 bound_to 7997
  156.2826  140.2139  156.5621 H   0  0  0  0  0  0  0  0  0  0  0  0  # atno 8009 bound_to 7997
  154.7179  140.0492  157.0599 H   0  0  0  0  0  0  0  0  0  0  0  0  # atno 8010 bound_to 7997
  140.0251  144.5510  150.7551 H   0  0  0  0  0  0  0  0  0  0  0  0  # atno 10167 bound_to 10162
  157.1410  130.6632  149.5981 H   0  0  0  0  0  0  0  0  0  0  0  0  # atno 10718 bound_to 10713
  153.3024  135.4111  155.1264 H   0  0  0  0  0  0  0  0  0  0  0  0  # atno 10763 bound_to 10752
  154.8553  135.3544  154.5834 H   0  0  0  0  0  0  0  0  0  0  0  0  # atno 10764 bound_to 10752
  153.6259  135.7062  153.5351 H   0  0  0  0  0  0  0  0  0  0  0  0  # atno 10765 bound_to 10752
  140.7589  133.8531  155.9107 H   0  0  0  0  0  0  0  0  0  0  0  0  # atno 11005 bound_to 11000
  146.3097  139.7702  142.9029 LP  0  0  0  0  0  0  0  0  0  0  0  0  # atno 17320 bound_to 7965
  145.3652  141.0333  143.3262 LP  0  0  0  0  0  0  0  0  0  0  0  0  # atno 17321 bound_to 7965
  140.7326  143.2707  151.3897 LP  0  0  0  0  0  0  0  0  0  0  0  0  # atno 17342 bound_to 10162
  139.6113  144.1092  152.2302 LP  0  0  0  0  0  0  0  0  0  0  0  0  # atno 17343 bound_to 10162
  155.9789  130.4778  150.6681 LP  0  0  0  0  0  0  0  0  0  0  0  0  # atno 17370 bound_to 10713
  157.4307  131.0849  151.1041 LP  0  0  0  0  0  0  0  0  0  0  0  0  # atno 17371 bound_to 10713
  140.9682  134.1566  157.4598 LP  0  0  0  0  0  0  0  0  0  0  0  0  # atno 17394 bound_to 11000
  139.8774  134.9969  156.5819 LP  0  0  0  0  0  0  0  0  0  0  0  0  # atno 17395 bound_to 11000

$$$$
