AV-unprocessed.smi:2986|AV-procd|sdf|11381|dock1
  -GOLD-   2272016303D 1   1.00000     0.00000
 Structure written by MMmdl.
 42 44  0  0  0  0  0  0  0  0  1 V2000
  153.0921  138.4852  155.0140 C   0  0  0  0  0  0  0  0  0  0  0  0
  152.6208  139.4889  155.8955 O   0  0  0  0  0  0  0  0  0  0  0  0
  151.2388  139.7529  155.7272 C   0  0  0  0  0  0  0  0  0  0  0  0
  150.6034  139.9479  157.1084 C   0  0  0  0  0  0  0  0  0  0  0  0
  151.5131  140.6107  158.0286 N   0  0  0  0  0  0  0  0  0  0  0  0
  152.2997  140.0451  158.9761 C   0  0  0  0  0  0  0  0  0  0  0  0
  152.3309  138.3014  159.2422 S   0  0  0  0  0  0  0  0  0  0  0  0
  153.6665  138.2406  160.4782 C   0  0  0  0  0  0  0  0  0  0  0  0
  153.9001  136.8465  161.0655 C   0  0  0  0  0  0  0  0  0  0  0  0
  153.8709  135.8680  160.3208 O   0  0  0  0  0  0  0  0  0  0  0  0
  154.1322  136.7969  162.3899 N   0  0  0  0  0  0  0  0  0  0  0  0
  154.3027  135.6572  163.2159 C   0  0  0  0  0  0  0  0  0  0  0  0
  153.8197  135.4985  164.5473 C   0  0  0  0  0  0  0  0  0  0  0  0
  154.2503  134.2457  164.8816 C   0  0  0  0  0  0  0  0  0  0  0  0
  154.1098  133.4200  166.1139 C   0  0  0  0  0  0  0  0  0  0  0  0
  154.9357  133.6884  163.8471 O   0  0  0  0  0  0  0  0  0  0  0  0
  154.9634  134.5988  162.7844 N   0  0  0  0  0  0  0  0  0  0  0  0
  153.0502  140.8887  159.6845 N   0  0  0  0  0  0  0  0  0  0  0  0
  152.7167  142.1170  159.1480 C   0  0  0  0  0  0  0  0  0  0  0  0
  153.1729  143.4153  159.4701 C   0  0  0  0  0  0  0  0  0  0  0  0
  152.6771  144.5386  158.7761 C   0  0  0  0  0  0  0  0  0  0  0  0
  151.7199  144.3804  157.7528 C   0  0  0  0  0  0  0  0  0  0  0  0
  151.2531  143.0956  157.4149 C   0  0  0  0  0  0  0  0  0  0  0  0
  151.7523  141.9780  158.1100 C   0  0  0  0  0  0  0  0  0  0  0  0
  154.1543  138.3141  155.1884 H   0  0  0  0  0  0  0  0  0  0  0  0
  152.9653  138.7845  153.9727 H   0  0  0  0  0  0  0  0  0  0  0  0
  152.5687  137.5417  155.1740 H   0  0  0  0  0  0  0  0  0  0  0  0
  151.0987  140.6486  155.1197 H   0  0  0  0  0  0  0  0  0  0  0  0
  150.7618  138.9212  155.2059 H   0  0  0  0  0  0  0  0  0  0  0  0
  149.6841  140.5276  157.0280 H   0  0  0  0  0  0  0  0  0  0  0  0
  150.3189  138.9839  157.5312 H   0  0  0  0  0  0  0  0  0  0  0  0
  154.5873  138.6071  160.0225 H   0  0  0  0  0  0  0  0  0  0  0  0
  153.4217  138.9275  161.2886 H   0  0  0  0  0  0  0  0  0  0  0  0
  154.1374  137.6837  162.8729 H   0  0  0  0  0  0  0  0  0  0  0  0
  153.2524  136.1759  165.1673 H   0  0  0  0  0  0  0  0  0  0  0  0
  153.4948  133.9296  166.8558 H   0  0  0  0  0  0  0  0  0  0  0  0
  155.0845  133.2231  166.5605 H   0  0  0  0  0  0  0  0  0  0  0  0
  153.6416  132.4621  165.8862 H   0  0  0  0  0  0  0  0  0  0  0  0
  153.9056  143.5473  160.2526 H   0  0  0  0  0  0  0  0  0  0  0  0
  153.0329  145.5262  159.0303 H   0  0  0  0  0  0  0  0  0  0  0  0
  151.3449  145.2461  157.2268 H   0  0  0  0  0  0  0  0  0  0  0  0
  150.5200  142.9713  156.6315 H   0  0  0  0  0  0  0  0  0  0  0  0
  1  2  1  0  0  0  0
  1 25  1  0  0  0  0
  1 26  1  0  0  0  0
  1 27  1  0  0  0  0
  2  3  1  0  0  0  0
  3  4  1  0  0  0  0
  3 28  1  0  0  0  0
  3 29  1  0  0  0  0
  4  5  1  0  0  0  0
  4 30  1  0  0  0  0
  4 31  1  0  0  0  0
  5 24  1  0  0  0  0
  5  6  1  0  0  0  0
  6  7  1  0  0  0  0
  6 18  2  0  0  0  0
  7  8  1  0  0  0  0
  8  9  1  0  0  0  0
  8 32  1  0  0  0  0
  8 33  1  0  0  0  0
  9 10  2  0  0  0  0
  9 11  1  0  0  0  0
 11 12  1  0  0  0  0
 11 34  1  0  0  0  0
 12 17  2  0  0  0  0
 12 13  1  0  0  0  0
 13 14  2  0  0  0  0
 13 35  1  0  0  0  0
 14 15  1  0  0  0  0
 14 16  1  0  0  0  0
 15 36  1  0  0  0  0
 15 37  1  0  0  0  0
 15 38  1  0  0  0  0
 16 17  1  0  0  0  0
 18 19  1  0  0  0  0
 19 24  2  0  0  0  0
 19 20  1  0  0  0  0
 20 21  2  0  0  0  0
 20 39  1  0  0  0  0
 21 22  1  0  0  0  0
 21 40  1  0  0  0  0
 22 23  2  0  0  0  0
 22 41  1  0  0  0  0
 23 24  1  0  0  0  0
 23 42  1  0  0  0  0
M  END
> <s_m_source_file>
AV-unprocessed.smi

> <i_m_source_file_index>
2986

> <i_lp_mmshare_version>
43012

> <i_f3d_flags>
0

> <s_epik_input>
W2NIXTFbY0hdW2NIXVtjSF1jKGMxMiluKFtDSDJdW0NIMl1PW0NIM10pYyhuMilTW0NIMl1DKD1PKVtOSF1jM1tjSF1jKFtDSDNdKW9uMw==

> <s_epik_cmdline>
J2VwaWtfcHl0aG9uJywgJy1waCcsICc3LjAnLCAnLXRuJywgJzgnLCAnLW1hJywgJzIwMCcsICctbWV0YWxfYmluZGluZycsICctaW1hZScsICc8aW5maWxlLm1hZT4nLCAnLW9tYWUnLCAnPG91dGZpbGUubWFlPic=

> <r_epik_Ionization_Penalty>
0.0256487

> <r_epik_Ionization_Penalty_Charging>
0

> <r_epik_Ionization_Penalty_Neutral>
0.0256487

> <r_epik_State_Penalty>
0.0204505

> <r_epik_Charging_Adjusted_Penalty>
0.0204505

> <i_epik_Tot_Q>
0

> <i_epik_Tot_abs_Q>
0

> <r_epik_Metal_State_Penalty>
0.237509

> <b_epik_Metal_Only>
0

> <s_lp_Force_Field>
OPLS_2005

> <r_lp_Energy>
8.97746

> <b_lp_Chiralities_Consistent>
1

> <s_lp_Variant>
AV-unprocessed.smi:2986-1

> <Gold.Version>
5.8.1

> <Gold.Id.Protein>
6NUR|6NUR_protein|mol2

> <Gold.PLP.Fitness>
53.2488

> <Gold.PLP.PLP>
-50.0361

> <Gold.PLP.part.hbond>
-2.0000

> <Gold.PLP.part.metal>
0.0000

> <Gold.PLP.part.buried>
-5.6704

> <Gold.PLP.part.nonpolar>
-43.5966

> <Gold.PLP.part.repulsive>
0.0423

> <Gold.PLP.ligand.clash>
0.0000

> <Gold.PLP.ligand.torsion>
1.3070

> <Gold.PLP.Chemscore.Hbond>
1.8816

> <Gold.PLP.Chemscore.CHOScore>
0.0000

> <Gold.PLP.Chemscore.Metal>
0.0000

> <Gold.Chemscore.Hbonds>
donor molecule, donor type, donor heavy atom, donor atom, acceptor molecule, acceptor atom, score
      P1  H  6896  6907       L1    10  1.00
      P1  H  7997  8008       L1     2  0.85

> <Gold.PLP.Chemscore.Internal.Correction>
0.1820

> <Gold.Rescore>
     Score         DG    S(hbond)    S(metal)    S(lipo)     H(rot)  DE(clash)    DE(int)     intcor
     18.90     -21.24       1.89        0.00     130.56       2.28       0.05       2.29       ----

> <Gold.Chemscore.Fitness>
18.9017

> <Gold.Chemscore.DG>
-21.2410

> <Gold.Chemscore.ZeroCoef>
-5.4800

> <Gold.Chemscore.Hbond>
1.8931

> <Gold.Chemscore.Metal>
0.0000

> <Gold.Chemscore.Lipo>
130.5632

> <Gold.Chemscore.Internal_Hbond>
0.0000

> <Gold.Chemscore.DEClash>
0.0476

> <Gold.Chemscore.DEInternal>
2.2917

> <Gold.Chemscore.Rot>
2.2804

> <Gold.Chemscore.Internal.Correction>
   9.000000E+99

> <Gold.Chemscore.Hbonds>
donor molecule, donor type, donor heavy atom, donor atom, acceptor molecule, acceptor atom, score
      P1  H  6896  6907       L1    10  0.97
      P1  H  7997  8008       L1     2  0.14

> <Gold.Chemscore.Hbond.Weighted>
-6.3230

> <Gold.Chemscore.Metal.Weighted>
-0.0000

> <Gold.Chemscore.Lipo.Weighted>
-15.2759

> <Gold.Chemscore.Internal_Hbond.Weighted>
0.0000

> <Gold.Chemscore.DEClash.Weighted>
0.0476

> <Gold.Chemscore.DEInternal.Weighted>
2.2917

> <Gold.Chemscore.Rot.Weighted>
5.8379

> <Gold.Chemscore.Internal.Correction.Weighted>
   9.000000E+99

> <Gold.Protein.RotatedTorsions>
[ 6907 6896 6895 6894 ] final   71.09 input  -60.11 | X-H torsion
[ 7974 7965 7964 7962 ] final -173.48 input  175.53 | X-H torsion
[ 8008 7997 7996 7995 ] final  -57.12 input   59.86 | X-H torsion
[ 10167 10162 10161 10158 ] final  -42.73 input  -65.29 | X-H torsion
[ 10718 10713 10712 10709 ] final -164.19 input   66.30 | X-H torsion
[ 10763 10752 10751 10750 ] final -150.41 input  -60.55 | X-H torsion
[ 11005 11000 10999 10996 ] final   21.16 input  -57.11 | X-H torsion

> <Gold.Protein.ActiveResidues>
 VAL166  LYS551  ARG553  GLY616  TRP617  ASP618  TYR619  PRO620  LYS621  CYS622 
 ASP623  PHE694  ASN695  SER759  ASP760  ASP761  ALA762  ILE779  LEU786  VAL792 
 PHE793  MET794  SER795  GLU796  ALA797  LYS798  CYS799  TRP800  GLU811  SER814 

> <Gold.Protein.RotatedAtoms>
  152.4789  134.4772  159.9653 H   0  0  0  0  0  0  0  0  0  0  0  0  # atno 6907 bound_to 6896
  151.4782  133.3546  159.2842 H   0  0  0  0  0  0  0  0  0  0  0  0  # atno 6908 bound_to 6896
  150.8847  134.8269  159.7311 H   0  0  0  0  0  0  0  0  0  0  0  0  # atno 6909 bound_to 6896
  144.7138  140.1615  143.6375 H   0  0  0  0  0  0  0  0  0  0  0  0  # atno 7974 bound_to 7965
  154.4256  140.1114  156.5746 H   0  0  0  0  0  0  0  0  0  0  0  0  # atno 8008 bound_to 7997
  155.6176  140.3495  155.4623 H   0  0  0  0  0  0  0  0  0  0  0  0  # atno 8009 bound_to 7997
  156.0050  140.1207  157.0500 H   0  0  0  0  0  0  0  0  0  0  0  0  # atno 8010 bound_to 7997
  140.6959  143.3021  151.3251 H   0  0  0  0  0  0  0  0  0  0  0  0  # atno 10167 bound_to 10162
  156.6355  130.8947  151.2986 H   0  0  0  0  0  0  0  0  0  0  0  0  # atno 10718 bound_to 10713
  154.8120  135.3285  154.7278 H   0  0  0  0  0  0  0  0  0  0  0  0  # atno 10763 bound_to 10752
  153.7925  135.6910  153.4873 H   0  0  0  0  0  0  0  0  0  0  0  0  # atno 10764 bound_to 10752
  153.1907  135.4552  155.0092 H   0  0  0  0  0  0  0  0  0  0  0  0  # atno 10765 bound_to 10752
  140.3946  134.1782  155.7663 H   0  0  0  0  0  0  0  0  0  0  0  0  # atno 11005 bound_to 11000
  145.9026  139.2439  143.1485 LP  0  0  0  0  0  0  0  0  0  0  0  0  # atno 17320 bound_to 7965
  145.9796  140.8694  143.0121 LP  0  0  0  0  0  0  0  0  0  0  0  0  # atno 17321 bound_to 7965
  139.6413  144.0533  152.2557 LP  0  0  0  0  0  0  0  0  0  0  0  0  # atno 17342 bound_to 10162
  140.0040  144.6273  150.7705 LP  0  0  0  0  0  0  0  0  0  0  0  0  # atno 17343 bound_to 10162
  157.7187  130.9530  150.1354 LP  0  0  0  0  0  0  0  0  0  0  0  0  # atno 17370 bound_to 10713
  156.2201  130.3673  149.8566 LP  0  0  0  0  0  0  0  0  0  0  0  0  # atno 17371 bound_to 10713
  141.1878  133.8272  157.1017 LP  0  0  0  0  0  0  0  0  0  0  0  0  # atno 17394 bound_to 11000
  140.0381  134.9868  157.0909 LP  0  0  0  0  0  0  0  0  0  0  0  0  # atno 17395 bound_to 11000

$$$$
