AV-unprocessed.smi:2527|AV-procd|sdf|9945|dock2
  -GOLD-   2272013583D 1   1.00000     0.00000
 Structure written by MMmdl.
 35 37  0  0  0  0  0  0  0  0  2 V2000
  154.8074  137.3191  157.4318 C   0  0  0  0  0  0  0  0  0  0  0  0
  153.8856  138.3913  157.5111 O   0  0  0  0  0  0  0  0  0  0  0  0
  153.5321  138.7091  158.8477 C   0  0  0  0  0  0  0  0  0  0  0  0
  154.7242  139.3718  159.5522 C   0  0  0  0  0  0  0  0  0  0  0  0
  154.3041  140.4337  160.4550 N   0  0  0  0  0  0  0  0  0  0  0  0
  154.5370  140.5351  161.7876 C   0  0  0  0  0  0  0  0  0  0  0  0
  155.4550  139.2959  162.6560 S   0  0  0  0  0  0  0  0  0  0  0  0
  154.1868  138.0048  162.8185 C   0  0  0  0  0  0  0  0  0  0  0  0
  154.2704  136.9260  161.7618 C   0  0  0  0  0  0  0  0  0  0  0  0
  155.2791  136.0116  161.8550 N   0  0  0  0  0  0  0  0  0  0  0  0
  155.1300  135.1802  160.8289 C   0  0  0  0  0  0  0  0  0  0  0  0
  155.8891  134.2342  160.6297 O   0  0  0  0  0  0  0  0  0  0  0  0
  154.0491  135.5666  160.1076 N   0  5  0  0  0  0  0  0  0  0  0  0
  153.5041  136.7238  160.7537 N   0  0  0  0  0  0  0  0  0  0  0  0
  154.0363  141.6254  162.3726 N   0  0  0  0  0  0  0  0  0  0  0  0
  153.4287  142.2890  161.3263 C   0  0  0  0  0  0  0  0  0  0  0  0
  152.7229  143.5128  161.3015 C   0  0  0  0  0  0  0  0  0  0  0  0
  152.1862  144.0027  160.0926 C   0  0  0  0  0  0  0  0  0  0  0  0
  151.3287  145.4997  160.0793 Cl  0  0  0  0  0  0  0  0  0  0  0  0
  152.3478  143.2759  158.8948 C   0  0  0  0  0  0  0  0  0  0  0  0
  153.0465  142.0535  158.8987 C   0  0  0  0  0  0  0  0  0  0  0  0
  153.5792  141.5695  160.1085 C   0  0  0  0  0  0  0  0  0  0  0  0
  155.9923  135.9825  162.5682 H   0  0  0  0  0  0  0  0  0  0  0  0
  155.0423  137.1155  156.3870 H   0  0  0  0  0  0  0  0  0  0  0  0
  154.3926  136.4090  157.8672 H   0  0  0  0  0  0  0  0  0  0  0  0
  155.7387  137.5611  157.9454 H   0  0  0  0  0  0  0  0  0  0  0  0
  152.6765  139.3860  158.8563 H   0  0  0  0  0  0  0  0  0  0  0  0
  153.2373  137.8043  159.3818 H   0  0  0  0  0  0  0  0  0  0  0  0
  155.2785  138.6273  160.1242 H   0  0  0  0  0  0  0  0  0  0  0  0
  155.4254  139.7746  158.8213 H   0  0  0  0  0  0  0  0  0  0  0  0
  154.2726  137.5514  163.8068 H   0  0  0  0  0  0  0  0  0  0  0  0
  153.1997  138.4648  162.7628 H   0  0  0  0  0  0  0  0  0  0  0  0
  152.5963  144.0755  162.2146 H   0  0  0  0  0  0  0  0  0  0  0  0
  151.9365  143.6570  157.9715 H   0  0  0  0  0  0  0  0  0  0  0  0
  153.1750  141.4973  157.9821 H   0  0  0  0  0  0  0  0  0  0  0  0
  1  2  1  0  0  0  0
  1 24  1  0  0  0  0
  1 25  1  0  0  0  0
  1 26  1  0  0  0  0
  2  3  1  0  0  0  0
  3  4  1  0  0  0  0
  3 27  1  0  0  0  0
  3 28  1  0  0  0  0
  4  5  1  0  0  0  0
  4 29  1  0  0  0  0
  4 30  1  0  0  0  0
  5 22  1  0  0  0  0
  5  6  1  0  0  0  0
  6  7  1  0  0  0  0
  6 15  2  0  0  0  0
  7  8  1  0  0  0  0
  8 31  1  0  0  0  0
  8 32  1  0  0  0  0
  8  9  1  0  0  0  0
  9 14  2  0  0  0  0
  9 10  1  0  0  0  0
 10 11  1  0  0  0  0
 10 23  1  0  0  0  0
 11 13  1  0  0  0  0
 11 12  2  0  0  0  0
 13 14  1  0  0  0  0
 15 16  1  0  0  0  0
 16 22  2  0  0  0  0
 16 17  1  0  0  0  0
 17 18  2  0  0  0  0
 17 33  1  0  0  0  0
 18 19  1  0  0  0  0
 18 20  1  0  0  0  0
 20 21  2  0  0  0  0
 20 34  1  0  0  0  0
 21 22  1  0  0  0  0
 21 35  1  0  0  0  0
M  CHG  1  13  -1
M  END
> <s_m_source_file>
AV-unprocessed.smi

> <i_m_source_file_index>
2527

> <i_lp_mmshare_version>
43012

> <i_f3d_flags>
0

> <s_epik_input>
W2NIXTFjKENsKVtjSF1bY0hdYyhjMTIpbihbQ0gyXVtDSDJdT1tDSDNdKWMobjIpU1tDSDJdYzNuYyg9TylbbkhdW25IXTM=

> <s_epik_cmdline>
J2VwaWtfcHl0aG9uJywgJy1waCcsICc3LjAnLCAnLXRuJywgJzgnLCAnLW1hJywgJzIwMCcsICctbWV0YWxfYmluZGluZycsICctaW1hZScsICc8aW5maWxlLm1hZT4nLCAnLW9tYWUnLCAnPG91dGZpbGUubWFlPic=

> <r_lp_tautomer_probability>
0.999897

> <r_epik_Ionization_Penalty>
2.94119

> <r_epik_Ionization_Penalty_Charging>
1.40065e-06

> <r_epik_Ionization_Penalty_Neutral>
2.94119

> <r_epik_State_Penalty>
4.57578

> <r_epik_Charging_Adjusted_Penalty>
4.57578

> <i_epik_Tot_Q>
-1

> <i_epik_Tot_abs_Q>
1

> <r_epik_Metal_State_Penalty>
2.1052

> <b_epik_Metal_Only>
1

> <s_lp_Force_Field>
OPLS_2005

> <r_lp_Energy>
14.3955

> <b_lp_Chiralities_Consistent>
1

> <s_lp_Variant>
AV-unprocessed.smi:2527-4

> <Gold.Version>
5.8.1

> <Gold.Id.Protein>
6NUR|6NUR_protein|mol2

> <Gold.PLP.Fitness>
49.5180

> <Gold.PLP.PLP>
-42.4250

> <Gold.PLP.part.hbond>
-2.8469

> <Gold.PLP.part.metal>
0.0000

> <Gold.PLP.part.buried>
-4.9433

> <Gold.PLP.part.nonpolar>
-33.8832

> <Gold.PLP.part.repulsive>
0.0318

> <Gold.PLP.ligand.clash>
0.0000

> <Gold.PLP.ligand.torsion>
0.9422

> <Gold.PLP.Chemscore.Hbond>
2.9600

> <Gold.PLP.Chemscore.CHOScore>
0.0000

> <Gold.PLP.Chemscore.Metal>
0.0000

> <Gold.Chemscore.Hbonds>
donor molecule, donor type, donor heavy atom, donor atom, acceptor molecule, acceptor atom, score
      P1  H  6896  6908       L1    13  2.00
      P1  H  7997  8010       L1     2  0.93

> <Gold.PLP.Chemscore.Internal.Correction>
0.0974

> <Gold.Rescore>
     Score         DG    S(hbond)    S(metal)    S(lipo)     H(rot)  DE(clash)    DE(int)     intcor
     13.60     -14.64       1.20        0.00     105.58       2.81       0.08       0.97       ----

> <Gold.Chemscore.Fitness>
13.5953

> <Gold.Chemscore.DG>
-14.6436

> <Gold.Chemscore.ZeroCoef>
-5.4800

> <Gold.Chemscore.Hbond>
1.1982

> <Gold.Chemscore.Metal>
0.0000

> <Gold.Chemscore.Lipo>
105.5840

> <Gold.Chemscore.Internal_Hbond>
0.0000

> <Gold.Chemscore.DEClash>
0.0828

> <Gold.Chemscore.DEInternal>
0.9655

> <Gold.Chemscore.Rot>
2.8092

> <Gold.Chemscore.Internal.Correction>
   9.000000E+99

> <Gold.Chemscore.Hbonds>
donor molecule, donor type, donor heavy atom, donor atom, acceptor molecule, acceptor atom, score
      P1  H  6896  6908       L1    13  0.25
      P1  H  7997  8010       L1     2  0.20

> <Gold.Chemscore.Hbond.Weighted>
-4.0019

> <Gold.Chemscore.Metal.Weighted>
-0.0000

> <Gold.Chemscore.Lipo.Weighted>
-12.3533

> <Gold.Chemscore.Internal_Hbond.Weighted>
0.0000

> <Gold.Chemscore.DEClash.Weighted>
0.0828

> <Gold.Chemscore.DEInternal.Weighted>
0.9655

> <Gold.Chemscore.Rot.Weighted>
7.1916

> <Gold.Chemscore.Internal.Correction.Weighted>
   9.000000E+99

> <Gold.Protein.RotatedTorsions>
[ 6907 6896 6895 6894 ] final  -49.17 input  -60.11 | X-H torsion
[ 7974 7965 7964 7962 ] final   35.42 input  175.53 | X-H torsion
[ 8008 7997 7996 7995 ] final   37.96 input   59.86 | X-H torsion
[ 10167 10162 10161 10158 ] final   -6.61 input  -65.29 | X-H torsion
[ 10718 10713 10712 10709 ] final   -9.83 input   66.30 | X-H torsion
[ 10763 10752 10751 10750 ] final  -81.16 input  -60.55 | X-H torsion
[ 11005 11000 10999 10996 ] final  -18.67 input  -57.11 | X-H torsion

> <Gold.Protein.ActiveResidues>
 VAL166  LYS551  ARG553  GLY616  TRP617  ASP618  TYR619  PRO620  LYS621  CYS622 
 ASP623  PHE694  ASN695  SER759  ASP760  ASP761  ALA762  ILE779  LEU786  VAL792 
 PHE793  MET794  SER795  GLU796  ALA797  LYS798  CYS799  TRP800  GLU811  SER814 

> <Gold.Protein.RotatedAtoms>
  150.8832  134.8226  159.7239 H   0  0  0  0  0  0  0  0  0  0  0  0  # atno 6907 bound_to 6896
  152.4791  134.4764  159.9661 H   0  0  0  0  0  0  0  0  0  0  0  0  # atno 6908 bound_to 6896
  151.4836  133.3502  159.2877 H   0  0  0  0  0  0  0  0  0  0  0  0  # atno 6909 bound_to 6896
  146.1284  139.6145  142.9243 H   0  0  0  0  0  0  0  0  0  0  0  0  # atno 7974 bound_to 7965
  155.2124  140.3324  155.4327 H   0  0  0  0  0  0  0  0  0  0  0  0  # atno 8008 bound_to 7997
  156.2365  140.1875  156.7153 H   0  0  0  0  0  0  0  0  0  0  0  0  # atno 8009 bound_to 7997
  154.6069  140.0614  156.9429 H   0  0  0  0  0  0  0  0  0  0  0  0  # atno 8010 bound_to 7997
  140.7002  143.6175  150.8645 H   0  0  0  0  0  0  0  0  0  0  0  0  # atno 10167 bound_to 10162
  156.6823  130.5040  149.5967 H   0  0  0  0  0  0  0  0  0  0  0  0  # atno 10718 bound_to 10713
  154.5602  135.5636  153.7000 H   0  0  0  0  0  0  0  0  0  0  0  0  # atno 10763 bound_to 10752
  153.0015  135.6272  154.2255 H   0  0  0  0  0  0  0  0  0  0  0  0  # atno 10764 bound_to 10752
  154.2193  135.2870  155.2910 H   0  0  0  0  0  0  0  0  0  0  0  0  # atno 10765 bound_to 10752
  140.8291  133.8010  155.9739 H   0  0  0  0  0  0  0  0  0  0  0  0  # atno 11005 bound_to 11000
  145.5314  141.0427  143.2381 LP  0  0  0  0  0  0  0  0  0  0  0  0  # atno 17320 bound_to 7965
  144.7666  139.6832  143.7212 LP  0  0  0  0  0  0  0  0  0  0  0  0  # atno 17321 bound_to 7965
  139.9896  143.5861  152.2915 LP  0  0  0  0  0  0  0  0  0  0  0  0  # atno 17342 bound_to 10162
  139.6512  144.7660  151.2145 LP  0  0  0  0  0  0  0  0  0  0  0  0  # atno 17343 bound_to 10162
  156.1858  130.6528  151.1005 LP  0  0  0  0  0  0  0  0  0  0  0  0  # atno 17370 bound_to 10713
  157.7039  131.0764  150.6731 LP  0  0  0  0  0  0  0  0  0  0  0  0  # atno 17371 bound_to 10713
  140.9018  134.2369  157.5037 LP  0  0  0  0  0  0  0  0  0  0  0  0  # atno 17394 bound_to 11000
  139.8705  134.9710  156.4720 LP  0  0  0  0  0  0  0  0  0  0  0  0  # atno 17395 bound_to 11000

$$$$
