AV-unprocessed.smi:958|AV-procd|sdf|4268|dock7
  -GOLD-   22720 2173D 1   1.00000     0.00000
 Structure written by MMmdl.
 31 33  0  0  0  0  0  0  0  0  2 V2000
  153.2155  142.6105  160.0013 C   0  0  0  0  0  0  0  0  0  0  0  0
  153.0050  141.3038  160.1477 N   0  0  0  0  0  0  0  0  0  0  0  0
  152.0303  141.0036  159.2190 N   0  0  0  0  0  0  0  0  0  0  0  0
  151.7403  142.1604  158.6090 C   0  0  0  0  0  0  0  0  0  0  0  0
  150.7052  142.2867  157.5262 C   0  0  1  0  0  0  0  0  0  0  0  0
  150.9083  141.2427  156.4115 C   0  0  0  0  0  0  0  0  0  0  0  0
  149.8324  141.3988  155.3260 C   0  0  0  0  0  0  0  0  0  0  0  0
  148.4225  141.3432  155.9377 C   0  0  0  0  0  0  0  0  0  0  0  0
  148.2723  142.3603  157.0012 N   0  3  0  0  0  0  0  0  0  0  0  0
  149.2692  142.2173  158.0854 C   0  0  0  0  0  0  0  0  0  0  0  0
  152.4813  143.2020  159.0454 N   0  0  0  0  0  0  0  0  0  0  0  0
  152.4525  144.6047  158.6654 C   0  0  0  0  0  0  0  0  0  0  0  0
  151.9978  145.5393  159.7632 C   0  0  0  0  0  0  0  0  0  0  0  0
  151.0730  145.2221  158.6093 C   0  0  0  0  0  0  0  0  0  0  0  0
  153.9284  143.1509  160.6070 H   0  0  0  0  0  0  0  0  0  0  0  0
  150.8122  143.2701  157.0686 H   0  0  0  0  0  0  0  0  0  0  0  0
  151.8997  141.3485  155.9699 H   0  0  0  0  0  0  0  0  0  0  0  0
  150.8596  140.2360  156.8290 H   0  0  0  0  0  0  0  0  0  0  0  0
  149.9708  142.3484  154.8073 H   0  0  0  0  0  0  0  0  0  0  0  0
  149.9448  140.6166  154.5744 H   0  0  0  0  0  0  0  0  0  0  0  0
  147.6695  141.5186  155.1689 H   0  0  0  0  0  0  0  0  0  0  0  0
  148.2284  140.3541  156.3550 H   0  0  0  0  0  0  0  0  0  0  0  0
  148.3785  143.2753  156.5870 H   0  0  0  0  0  0  0  0  0  0  0  0
  149.0996  141.2696  158.5986 H   0  0  0  0  0  0  0  0  0  0  0  0
  149.1083  143.0095  158.8172 H   0  0  0  0  0  0  0  0  0  0  0  0
  153.2323  144.8922  157.9630 H   0  0  0  0  0  0  0  0  0  0  0  0
  151.7509  145.1131  160.7339 H   0  0  0  0  0  0  0  0  0  0  0  0
  152.4414  146.5323  159.7913 H   0  0  0  0  0  0  0  0  0  0  0  0
  150.9051  146.0059  157.8735 H   0  0  0  0  0  0  0  0  0  0  0  0
  150.2093  144.5951  158.8239 H   0  0  0  0  0  0  0  0  0  0  0  0
  147.3455  142.2873  157.3965 H   0  0  0  0  0  0  0  0  0  0  0  0
  1 11  1  0  0  0  0
  1  2  2  0  0  0  0
  1 15  1  0  0  0  0
  2  3  1  0  0  0  0
  3  4  2  0  0  0  0
  4  5  1  0  0  0  0
  4 11  1  0  0  0  0
  5 10  1  0  0  0  0
  5  6  1  0  0  0  0
  5 16  1  0  0  0  0
  6  7  1  0  0  0  0
  6 17  1  0  0  0  0
  6 18  1  0  0  0  0
  7  8  1  0  0  0  0
  7 19  1  0  0  0  0
  7 20  1  0  0  0  0
  8  9  1  0  0  0  0
  8 21  1  0  0  0  0
  8 22  1  0  0  0  0
  9 10  1  0  0  0  0
  9 23  1  0  0  0  0
  9 31  1  0  0  0  0
 10 24  1  0  0  0  0
 10 25  1  0  0  0  0
 11 12  1  0  0  0  0
 12 14  1  0  0  0  0
 12 13  1  0  0  0  0
 12 26  1  0  0  0  0
 13 14  1  0  0  0  0
 13 27  1  0  0  0  0
 13 28  1  0  0  0  0
 14 29  1  0  0  0  0
 14 30  1  0  0  0  0
M  CHG  1   9   1
M  END
> <s_m_source_file>
AV-unprocessed.smi

> <i_m_source_file_index>
958

> <i_lp_mmshare_version>
43012

> <i_f3d_flags>
0

> <s_epik_input>
W0NIMl0xW0NIMl1bQ0hdMW4yW2NIXW5uYzJbQ0BASF0zW0NIMl1bQ0gyXVtDSDJdW05IXVtDSDJdMw==

> <s_epik_cmdline>
J2VwaWtfcHl0aG9uJywgJy1waCcsICc3LjAnLCAnLXRuJywgJzgnLCAnLW1hJywgJzIwMCcsICctbWV0YWxfYmluZGluZycsICctaW1hZScsICc8aW5maWxlLm1hZT4nLCAnLW9tYWUnLCAnPG91dGZpbGUubWFlPic=

> <r_lp_tautomer_probability>
1

> <r_epik_Ionization_Penalty>
0.000442722

> <r_epik_Ionization_Penalty_Charging>
0.000426856

> <r_epik_Ionization_Penalty_Neutral>
1.58656e-05

> <r_epik_State_Penalty>
-0

> <r_epik_Charging_Adjusted_Penalty>
0.000426856

> <i_epik_Tot_Q>
1

> <i_epik_Tot_abs_Q>
1

> <r_epik_Metal_State_Penalty>
-0

> <b_epik_Metal_Only>
0

> <s_lp_Force_Field>
OPLS_2005

> <r_lp_Energy>
27.2192

> <b_lp_Chiralities_Consistent>
1

> <s_lp_Variant>
AV-unprocessed.smi:958-2

> <Gold.Version>
5.8.1

> <Gold.Id.Protein>
6NUR|6NUR_protein|mol2

> <Gold.PLP.Fitness>
40.7736

> <Gold.PLP.PLP>
-35.4259

> <Gold.PLP.part.hbond>
-1.0000

> <Gold.PLP.part.metal>
0.0000

> <Gold.PLP.part.buried>
-4.6652

> <Gold.PLP.part.nonpolar>
-29.6614

> <Gold.PLP.part.repulsive>
0.0140

> <Gold.PLP.ligand.clash>
0.0000

> <Gold.PLP.ligand.torsion>
0.3733

> <Gold.PLP.Chemscore.Hbond>
2.0000

> <Gold.PLP.Chemscore.CHOScore>
0.0000

> <Gold.PLP.Chemscore.Metal>
0.0000

> <Gold.Chemscore.Hbonds>
donor molecule, donor type, donor heavy atom, donor atom, acceptor molecule, acceptor atom, score
      L1  H     9    23       P1  8028  2.00

> <Gold.PLP.Chemscore.Internal.Correction>
0.0943

> <Gold.Rescore>
     Score         DG    S(hbond)    S(metal)    S(lipo)     H(rot)  DE(clash)    DE(int)     intcor
     13.20     -13.38       0.93        0.00      68.41       1.25       0.04       0.14       ----

> <Gold.Chemscore.Fitness>
13.2031

> <Gold.Chemscore.DG>
-13.3809

> <Gold.Chemscore.ZeroCoef>
-5.4800

> <Gold.Chemscore.Hbond>
0.9267

> <Gold.Chemscore.Metal>
0.0000

> <Gold.Chemscore.Lipo>
68.4060

> <Gold.Chemscore.Internal_Hbond>
0.0000

> <Gold.Chemscore.DEClash>
0.0411

> <Gold.Chemscore.DEInternal>
0.1367

> <Gold.Chemscore.Rot>
1.2491

> <Gold.Chemscore.Internal.Correction>
   9.000000E+99

> <Gold.Chemscore.Hbonds>
donor molecule, donor type, donor heavy atom, donor atom, acceptor molecule, acceptor atom, score
      L1  H     9    23       P1  8028  0.45

> <Gold.Chemscore.Hbond.Weighted>
-3.0950

> <Gold.Chemscore.Metal.Weighted>
-0.0000

> <Gold.Chemscore.Lipo.Weighted>
-8.0035

> <Gold.Chemscore.Internal_Hbond.Weighted>
0.0000

> <Gold.Chemscore.DEClash.Weighted>
0.0411

> <Gold.Chemscore.DEInternal.Weighted>
0.1367

> <Gold.Chemscore.Rot.Weighted>
3.1977

> <Gold.Chemscore.Internal.Correction.Weighted>
   9.000000E+99

> <Gold.Protein.RotatedTorsions>
[ 6907 6896 6895 6894 ] final   34.31 input  -60.11 | X-H torsion
[ 7974 7965 7964 7962 ] final -103.36 input  175.53 | X-H torsion
[ 8008 7997 7996 7995 ] final   84.49 input   59.86 | X-H torsion
[ 10167 10162 10161 10158 ] final -137.49 input  -65.29 | X-H torsion
[ 10718 10713 10712 10709 ] final  175.27 input   66.30 | X-H torsion
[ 10763 10752 10751 10750 ] final   88.60 input  -60.55 | X-H torsion
[ 11005 11000 10999 10996 ] final -149.33 input  -57.11 | X-H torsion

> <Gold.Protein.ActiveResidues>
 VAL166  LYS551  ARG553  GLY616  TRP617  ASP618  TYR619  PRO620  LYS621  CYS622 
 ASP623  PHE694  ASN695  SER759  ASP760  ASP761  ALA762  ILE779  LEU786  VAL792 
 PHE793  MET794  SER795  GLU796  ALA797  LYS798  CYS799  TRP800  GLU811  SER814 

> <Gold.Protein.RotatedAtoms>
  152.1006  134.9344  160.0569 H   0  0  0  0  0  0  0  0  0  0  0  0  # atno 6907 bound_to 6896
  152.0560  133.4035  159.4405 H   0  0  0  0  0  0  0  0  0  0  0  0  # atno 6908 bound_to 6896
  150.6839  134.3174  159.4816 H   0  0  0  0  0  0  0  0  0  0  0  0  # atno 6909 bound_to 6896
  145.2569  140.9256  143.3063 H   0  0  0  0  0  0  0  0  0  0  0  0  # atno 7974 bound_to 7965
  155.9377  140.3410  155.6301 H   0  0  0  0  0  0  0  0  0  0  0  0  # atno 8008 bound_to 7997
  155.7078  140.0768  157.2402 H   0  0  0  0  0  0  0  0  0  0  0  0  # atno 8009 bound_to 7997
  154.4097  140.1628  156.2250 H   0  0  0  0  0  0  0  0  0  0  0  0  # atno 8010 bound_to 7997
  139.8572  143.7123  152.2653 H   0  0  0  0  0  0  0  0  0  0  0  0  # atno 10167 bound_to 10162
  156.9373  130.9990  151.2975 H   0  0  0  0  0  0  0  0  0  0  0  0  # atno 10718 bound_to 10713
  153.1785  135.4501  154.9997 H   0  0  0  0  0  0  0  0  0  0  0  0  # atno 10763 bound_to 10752
  154.8014  135.3257  154.7542 H   0  0  0  0  0  0  0  0  0  0  0  0  # atno 10764 bound_to 10752
  153.8009  135.6962  153.4911 H   0  0  0  0  0  0  0  0  0  0  0  0  # atno 10765 bound_to 10752
  140.7519  134.3397  157.5123 H   0  0  0  0  0  0  0  0  0  0  0  0  # atno 11005 bound_to 11000
  144.9453  139.4143  143.6429 LP  0  0  0  0  0  0  0  0  0  0  0  0  # atno 17320 bound_to 7965
  146.3286  139.8433  142.8886 LP  0  0  0  0  0  0  0  0  0  0  0  0  # atno 17321 bound_to 7965
  139.7408  144.7560  151.0656 LP  0  0  0  0  0  0  0  0  0  0  0  0  # atno 17342 bound_to 10162
  140.7780  143.4975  150.9814 LP  0  0  0  0  0  0  0  0  0  0  0  0  # atno 17343 bound_to 10162
  157.5808  130.8375  149.8520 LP  0  0  0  0  0  0  0  0  0  0  0  0  # atno 17370 bound_to 10713
  156.0420  130.3736  150.1411 LP  0  0  0  0  0  0  0  0  0  0  0  0  # atno 17371 bound_to 10713
  139.8786  134.9147  156.3114 LP  0  0  0  0  0  0  0  0  0  0  0  0  # atno 17394 bound_to 11000
  140.9743  133.7308  156.0579 LP  0  0  0  0  0  0  0  0  0  0  0  0  # atno 17395 bound_to 11000

$$$$
