AV-unprocessed.smi:1335|AV-procd|sdf|5494|dock1
  -GOLD-   22720 5 73D 1   1.00000     0.00000
 Structure written by MMmdl.
 47 49  0  0  0  0  0  0  0  0  1 V2000
  147.0310  136.2061  162.5831 C   0  0  0  0  0  0  0  0  0  0  0  0
  147.4144  136.2092  161.2154 O   0  0  0  0  0  0  0  0  0  0  0  0
  147.4170  135.0107  160.5304 C   0  0  0  0  0  0  0  0  0  0  0  0
  147.0644  133.7723  161.1265 C   0  0  0  0  0  0  0  0  0  0  0  0
  147.0745  132.5833  160.3732 C   0  0  0  0  0  0  0  0  0  0  0  0
  147.4305  132.6137  159.0142 C   0  0  0  0  0  0  0  0  0  0  0  0
  147.7822  133.8341  158.4114 C   0  0  0  0  0  0  0  0  0  0  0  0
  147.7902  135.0296  159.1631 C   0  0  0  0  0  0  0  0  0  0  0  0
  148.1655  136.3358  158.4783 C   0  0  0  0  0  0  0  0  0  0  0  0
  149.1368  137.0620  159.2138 O   0  0  0  0  0  0  0  0  0  0  0  0
  150.4232  137.0391  158.6176 C   0  0  0  0  0  0  0  0  0  0  0  0
  150.5482  138.2481  157.6784 C   0  0  2  0  0  0  0  0  0  0  0  0
  149.9285  137.9017  156.4567 O   0  0  0  0  0  0  0  0  0  0  0  0
  152.0182  138.6260  157.4010 C   0  0  0  0  0  0  0  0  0  0  0  0
  152.6344  139.2576  158.5647 N   0  0  0  0  0  0  0  0  0  0  0  0
  153.5946  138.7275  159.3582 C   0  0  0  0  0  0  0  0  0  0  0  0
  154.0954  137.6096  159.2375 O   0  0  0  0  0  0  0  0  0  0  0  0
  153.9125  139.6465  160.3004 N   0  0  0  0  0  0  0  0  0  0  0  0
  154.9055  139.5111  161.3590 C   0  0  0  0  0  0  0  0  0  0  0  0
  153.1471  140.8014  160.0936 C   0  0  0  0  0  0  0  0  0  0  0  0
  153.1162  142.0249  160.7843 C   0  0  0  0  0  0  0  0  0  0  0  0
  152.2195  143.0114  160.3103 C   0  0  0  0  0  0  0  0  0  0  0  0
  151.3942  142.7626  159.1826 C   0  0  0  0  0  0  0  0  0  0  0  0
  151.4470  141.5215  158.5057 C   0  0  0  0  0  0  0  0  0  0  0  0
  152.3438  140.5584  159.0001 C   0  0  0  0  0  0  0  0  0  0  0  0
  147.0913  137.2215  162.9750 H   0  0  0  0  0  0  0  0  0  0  0  0
  147.6952  135.5823  163.1828 H   0  0  0  0  0  0  0  0  0  0  0  0
  146.0023  135.8658  162.7085 H   0  0  0  0  0  0  0  0  0  0  0  0
  146.7779  133.7056  162.1648 H   0  0  0  0  0  0  0  0  0  0  0  0
  146.8031  131.6472  160.8388 H   0  0  0  0  0  0  0  0  0  0  0  0
  147.4316  131.7028  158.4338 H   0  0  0  0  0  0  0  0  0  0  0  0
  148.0457  133.8464  157.3641 H   0  0  0  0  0  0  0  0  0  0  0  0
  148.5471  136.1028  157.4830 H   0  0  0  0  0  0  0  0  0  0  0  0
  147.2827  136.9637  158.3518 H   0  0  0  0  0  0  0  0  0  0  0  0
  151.2013  137.0614  159.3826 H   0  0  0  0  0  0  0  0  0  0  0  0
  150.5417  136.1125  158.0531 H   0  0  0  0  0  0  0  0  0  0  0  0
  150.0055  139.0873  158.1159 H   0  0  0  0  0  0  0  0  0  0  0  0
  149.4327  138.6453  156.1494 H   0  0  0  0  0  0  0  0  0  0  0  0
  152.6000  137.7316  157.1758 H   0  0  0  0  0  0  0  0  0  0  0  0
  152.1067  139.2568  156.5145 H   0  0  0  0  0  0  0  0  0  0  0  0
  154.4699  139.7734  162.3234 H   0  0  0  0  0  0  0  0  0  0  0  0
  155.7469  140.1782  161.1707 H   0  0  0  0  0  0  0  0  0  0  0  0
  155.2900  138.4930  161.4316 H   0  0  0  0  0  0  0  0  0  0  0  0
  153.7499  142.2076  161.6395 H   0  0  0  0  0  0  0  0  0  0  0  0
  152.1638  143.9662  160.8118 H   0  0  0  0  0  0  0  0  0  0  0  0
  150.7179  143.5299  158.8359 H   0  0  0  0  0  0  0  0  0  0  0  0
  150.8250  141.3272  157.6450 H   0  0  0  0  0  0  0  0  0  0  0  0
  1  2  1  0  0  0  0
  1 26  1  0  0  0  0
  1 27  1  0  0  0  0
  1 28  1  0  0  0  0
  2  3  1  0  0  0  0
  3  8  1  0  0  0  0
  3  4  2  0  0  0  0
  4  5  1  0  0  0  0
  4 29  1  0  0  0  0
  5  6  2  0  0  0  0
  5 30  1  0  0  0  0
  6  7  1  0  0  0  0
  6 31  1  0  0  0  0
  7  8  2  0  0  0  0
  7 32  1  0  0  0  0
  8  9  1  0  0  0  0
  9 10  1  0  0  0  0
  9 33  1  0  0  0  0
  9 34  1  0  0  0  0
 10 11  1  0  0  0  0
 11 12  1  0  0  0  0
 11 35  1  0  0  0  0
 11 36  1  0  0  0  0
 12 13  1  0  0  0  0
 12 14  1  0  0  0  0
 12 37  1  0  0  0  0
 13 38  1  0  0  0  0
 14 15  1  0  0  0  0
 14 39  1  0  0  0  0
 14 40  1  0  0  0  0
 15 25  1  0  0  0  0
 15 16  1  0  0  0  0
 16 17  2  0  0  0  0
 16 18  1  0  0  0  0
 18 19  1  0  0  0  0
 18 20  1  0  0  0  0
 19 41  1  0  0  0  0
 19 42  1  0  0  0  0
 19 43  1  0  0  0  0
 20 25  2  0  0  0  0
 20 21  1  0  0  0  0
 21 22  2  0  0  0  0
 21 44  1  0  0  0  0
 22 23  1  0  0  0  0
 22 45  1  0  0  0  0
 23 24  2  0  0  0  0
 23 46  1  0  0  0  0
 24 25  1  0  0  0  0
 24 47  1  0  0  0  0
M  END
> <s_m_source_file>
AV-unprocessed.smi

> <i_m_source_file_index>
1335

> <i_lp_mmshare_version>
43012

> <i_f3d_flags>
0

> <s_epik_input>
W0NIM11PYzFbY0hdW2NIXVtjSF1bY0hdYzFbQ0gyXU9bQ0gyXVtDQEhdKFtPSF0pW0NIMl1uKGMoPU8pbjJbQ0gzXSljKGMyMylbY0hdW2NIXVtjSF1bY0hdMw==

> <s_epik_cmdline>
J2VwaWtfcHl0aG9uJywgJy1waCcsICc3LjAnLCAnLXRuJywgJzgnLCAnLW1hJywgJzIwMCcsICctbWV0YWxfYmluZGluZycsICctaW1hZScsICc8aW5maWxlLm1hZT4nLCAnLW9tYWUnLCAnPG91dGZpbGUubWFlPic=

> <r_lp_tautomer_probability>
1

> <r_epik_Ionization_Penalty>
1.07897e-06

> <r_epik_Ionization_Penalty_Charging>
2.2947e-09

> <r_epik_Ionization_Penalty_Neutral>
1.07667e-06

> <r_epik_State_Penalty>
-0

> <r_epik_Charging_Adjusted_Penalty>
2.2947e-09

> <i_epik_Tot_Q>
0

> <i_epik_Tot_abs_Q>
0

> <r_epik_Metal_State_Penalty>
-0

> <b_epik_Metal_Only>
0

> <s_lp_Force_Field>
OPLS_2005

> <r_lp_Energy>
50.1795

> <b_lp_Chiralities_Consistent>
1

> <s_lp_Variant>
AV-unprocessed.smi:1335-1

> <Gold.Version>
5.8.1

> <Gold.Id.Protein>
6NUR|6NUR_protein|mol2

> <Gold.PLP.Fitness>
53.5895

> <Gold.PLP.PLP>
-51.0110

> <Gold.PLP.part.hbond>
-3.1271

> <Gold.PLP.part.metal>
0.0000

> <Gold.PLP.part.buried>
-2.8681

> <Gold.PLP.part.nonpolar>
-44.7997

> <Gold.PLP.part.repulsive>
0.0000

> <Gold.PLP.ligand.clash>
0.0000

> <Gold.PLP.ligand.torsion>
1.0419

> <Gold.PLP.Chemscore.Hbond>
1.5032

> <Gold.PLP.Chemscore.CHOScore>
0.0000

> <Gold.PLP.Chemscore.Metal>
0.0000

> <Gold.PLP.Chemscore.Internal.Correction>
0.1527

> <Gold.Rescore>
     Score         DG    S(hbond)    S(metal)    S(lipo)     H(rot)  DE(clash)    DE(int)     intcor
     15.05     -17.88       0.65        0.00     142.19       2.50       0.45       2.37       ----

> <Gold.Chemscore.Fitness>
15.0516

> <Gold.Chemscore.DG>
-17.8758

> <Gold.Chemscore.ZeroCoef>
-5.4800

> <Gold.Chemscore.Hbond>
0.6495

> <Gold.Chemscore.Metal>
0.0000

> <Gold.Chemscore.Lipo>
142.1898

> <Gold.Chemscore.Internal_Hbond>
0.0000

> <Gold.Chemscore.DEClash>
0.4541

> <Gold.Chemscore.DEInternal>
2.3700

> <Gold.Chemscore.Rot>
2.5038

> <Gold.Chemscore.Internal.Correction>
   9.000000E+99

> <Gold.Chemscore.Hbond.Weighted>
-2.1694

> <Gold.Chemscore.Metal.Weighted>
-0.0000

> <Gold.Chemscore.Lipo.Weighted>
-16.6362

> <Gold.Chemscore.Internal_Hbond.Weighted>
0.0000

> <Gold.Chemscore.DEClash.Weighted>
0.4541

> <Gold.Chemscore.DEInternal.Weighted>
2.3700

> <Gold.Chemscore.Rot.Weighted>
6.4098

> <Gold.Chemscore.Internal.Correction.Weighted>
   9.000000E+99

> <Gold.Protein.RotatedTorsions>
[ 6907 6896 6895 6894 ] final   11.16 input  -60.11 | X-H torsion
[ 7974 7965 7964 7962 ] final -163.20 input  175.53 | X-H torsion
[ 8008 7997 7996 7995 ] final  -28.87 input   59.86 | X-H torsion
[ 10167 10162 10161 10158 ] final  -17.42 input  -65.29 | X-H torsion
[ 10718 10713 10712 10709 ] final -104.40 input   66.30 | X-H torsion
[ 10763 10752 10751 10750 ] final  151.32 input  -60.55 | X-H torsion
[ 11005 11000 10999 10996 ] final  161.10 input  -57.11 | X-H torsion

> <Gold.Protein.ActiveResidues>
 VAL166  LYS551  ARG553  GLY616  TRP617  ASP618  TYR619  PRO620  LYS621  CYS622 
 ASP623  PHE694  ASN695  SER759  ASP760  ASP761  ALA762  ILE779  LEU786  VAL792 
 PHE793  MET794  SER795  GLU796  ALA797  LYS798  CYS799  TRP800  GLU811  SER814 

> <Gold.Protein.RotatedAtoms>
  151.7498  135.0835  160.0328 H   0  0  0  0  0  0  0  0  0  0  0  0  # atno 6907 bound_to 6896
  152.3424  133.6078  159.5894 H   0  0  0  0  0  0  0  0  0  0  0  0  # atno 6908 bound_to 6896
  150.7487  133.9618  159.3559 H   0  0  0  0  0  0  0  0  0  0  0  0  # atno 6909 bound_to 6896
  144.7333  140.3141  143.6182 H   0  0  0  0  0  0  0  0  0  0  0  0  # atno 7974 bound_to 7965
  154.4314  140.1834  156.1157 H   0  0  0  0  0  0  0  0  0  0  0  0  # atno 8008 bound_to 7997
  156.0182  140.3343  155.6986 H   0  0  0  0  0  0  0  0  0  0  0  0  # atno 8009 bound_to 7997
  155.6013  140.0640  157.2723 H   0  0  0  0  0  0  0  0  0  0  0  0  # atno 8010 bound_to 7997
  140.7247  143.5017  150.9861 H   0  0  0  0  0  0  0  0  0  0  0  0  # atno 10167 bound_to 10162
  156.0303  130.5513  150.7390 H   0  0  0  0  0  0  0  0  0  0  0  0  # atno 10718 bound_to 10713
  154.1019  135.2845  155.3249 H   0  0  0  0  0  0  0  0  0  0  0  0  # atno 10763 bound_to 10752
  154.6549  135.5355  153.7950 H   0  0  0  0  0  0  0  0  0  0  0  0  # atno 10764 bound_to 10752
  153.0376  135.6519  154.1182 H   0  0  0  0  0  0  0  0  0  0  0  0  # atno 10765 bound_to 10752
  140.2125  134.8257  157.3136 H   0  0  0  0  0  0  0  0  0  0  0  0  # atno 11005 bound_to 11000
  145.7635  139.1833  143.2253 LP  0  0  0  0  0  0  0  0  0  0  0  0  # atno 17320 bound_to 7965
  146.0968  140.7592  142.9569 LP  0  0  0  0  0  0  0  0  0  0  0  0  # atno 17321 bound_to 7965
  139.8727  143.7172  152.3165 LP  0  0  0  0  0  0  0  0  0  0  0  0  # atno 17342 bound_to 10162
  139.7426  144.7555  151.0628 LP  0  0  0  0  0  0  0  0  0  0  0  0  # atno 17343 bound_to 10162
  157.4964  131.0915  151.0367 LP  0  0  0  0  0  0  0  0  0  0  0  0  # atno 17370 bound_to 10713
  157.0759  130.5883  149.5411 LP  0  0  0  0  0  0  0  0  0  0  0  0  # atno 17371 bound_to 10713
  140.1936  134.4342  155.7702 LP  0  0  0  0  0  0  0  0  0  0  0  0  # atno 17394 bound_to 11000
  141.2226  133.7038  156.8067 LP  0  0  0  0  0  0  0  0  0  0  0  0  # atno 17395 bound_to 11000

$$$$
