AV-unprocessed.smi:2471|AV-procd|sdf|9740|dock2
  -GOLD-   2272013383D 1   1.00000     0.00000
 Structure written by MMmdl.
 40 41  0  0  0  0  0  0  0  0  1 V2000
  150.6199  140.6632  155.5905 C   0  0  0  0  0  0  0  0  0  0  0  0
  149.3589  140.6406  154.7522 C   0  0  0  0  0  0  0  0  0  0  0  0
  148.5266  141.7736  154.6650 C   0  0  0  0  0  0  0  0  0  0  0  0
  147.3730  141.6881  153.8653 C   0  0  0  0  0  0  0  0  0  0  0  0
  147.1006  140.4819  153.1912 C   0  0  0  0  0  0  0  0  0  0  0  0
  147.9878  139.3910  153.3322 C   0  0  0  0  0  0  0  0  0  0  0  0
  147.6251  138.2213  152.6125 N   0  0  0  0  0  0  0  0  0  0  0  0
  146.3905  137.7814  152.3110 C   0  0  0  0  0  0  0  0  0  0  0  0
  145.3388  138.3469  152.6122 O   0  0  0  0  0  0  0  0  0  0  0  0
  146.4378  136.6296  151.6259 N   0  0  0  0  0  0  0  0  0  0  0  0
  145.2705  135.8980  151.1423 C   0  0  0  0  0  0  0  0  0  0  0  0
  145.5907  134.4230  150.8000 C   0  0  1  0  0  0  0  0  0  0  0  0
  146.1346  133.6662  152.0350 C   0  0  0  0  0  0  0  0  0  0  0  0
  146.4261  132.1889  151.7300 C   0  0  0  0  0  0  0  0  0  0  0  0
  145.1805  131.4813  151.1808 C   0  0  0  0  0  0  0  0  0  0  0  0
  144.6506  132.2036  149.9350 C   0  0  0  0  0  0  0  0  0  0  0  0
  144.3545  133.6871  150.2255 C   0  0  2  0  0  0  0  0  0  0  0  0
  143.9452  134.2866  149.0121 O   0  0  0  0  0  0  0  0  0  0  0  0
  149.0986  139.4844  154.1051 N   0  0  0  0  0  0  0  0  0  0  0  0
  150.6471  141.5395  156.2389 H   0  0  0  0  0  0  0  0  0  0  0  0
  151.4996  140.6867  154.9469 H   0  0  0  0  0  0  0  0  0  0  0  0
  150.6775  139.7744  156.2200 H   0  0  0  0  0  0  0  0  0  0  0  0
  148.7640  142.6847  155.1943 H   0  0  0  0  0  0  0  0  0  0  0  0
  146.7073  142.5331  153.7699 H   0  0  0  0  0  0  0  0  0  0  0  0
  146.2179  140.4001  152.5733 H   0  0  0  0  0  0  0  0  0  0  0  0
  148.3950  137.6522  152.2938 H   0  0  0  0  0  0  0  0  0  0  0  0
  147.3427  136.2319  151.4202 H   0  0  0  0  0  0  0  0  0  0  0  0
  144.5011  135.9417  151.9136 H   0  0  0  0  0  0  0  0  0  0  0  0
  144.8598  136.4193  150.2763 H   0  0  0  0  0  0  0  0  0  0  0  0
  146.3688  134.4101  150.0345 H   0  0  0  0  0  0  0  0  0  0  0  0
  147.0484  134.1373  152.3976 H   0  0  0  0  0  0  0  0  0  0  0  0
  145.4126  133.7295  152.8504 H   0  0  0  0  0  0  0  0  0  0  0  0
  147.2386  132.1180  151.0056 H   0  0  0  0  0  0  0  0  0  0  0  0
  146.7713  131.6845  152.6329 H   0  0  0  0  0  0  0  0  0  0  0  0
  145.4171  130.4449  150.9384 H   0  0  0  0  0  0  0  0  0  0  0  0
  144.4048  131.4521  151.9471 H   0  0  0  0  0  0  0  0  0  0  0  0
  145.3873  132.1233  149.1337 H   0  0  0  0  0  0  0  0  0  0  0  0
  143.7496  131.7047  149.5763 H   0  0  0  0  0  0  0  0  0  0  0  0
  143.5275  133.7562  150.9337 H   0  0  0  0  0  0  0  0  0  0  0  0
  144.7144  134.4989  148.5059 H   0  0  0  0  0  0  0  0  0  0  0  0
  1  2  1  0  0  0  0
  1 20  1  0  0  0  0
  1 21  1  0  0  0  0
  1 22  1  0  0  0  0
  2 19  1  0  0  0  0
  2  3  2  0  0  0  0
  3  4  1  0  0  0  0
  3 23  1  0  0  0  0
  4  5  2  0  0  0  0
  4 24  1  0  0  0  0
  5  6  1  0  0  0  0
  5 25  1  0  0  0  0
  6  7  1  0  0  0  0
  6 19  2  0  0  0  0
  7  8  1  0  0  0  0
  7 26  1  0  0  0  0
  8  9  2  0  0  0  0
  8 10  1  0  0  0  0
 10 11  1  0  0  0  0
 10 27  1  0  0  0  0
 11 12  1  0  0  0  0
 11 28  1  0  0  0  0
 11 29  1  0  0  0  0
 12 17  1  0  0  0  0
 12 13  1  0  0  0  0
 12 30  1  0  0  0  0
 13 14  1  0  0  0  0
 13 31  1  0  0  0  0
 13 32  1  0  0  0  0
 14 15  1  0  0  0  0
 14 33  1  0  0  0  0
 14 34  1  0  0  0  0
 15 16  1  0  0  0  0
 15 35  1  0  0  0  0
 15 36  1  0  0  0  0
 16 17  1  0  0  0  0
 16 37  1  0  0  0  0
 16 38  1  0  0  0  0
 17 18  1  0  0  0  0
 17 39  1  0  0  0  0
 18 40  1  0  0  0  0
M  END
> <s_m_source_file>
AV-unprocessed.smi

> <i_m_source_file_index>
2471

> <i_lp_mmshare_version>
43012

> <i_f3d_flags>
0

> <s_epik_input>
W0NIM11jMVtjSF1bY0hdW2NIXWMobjEpW05IXUMoPU8pW05IXVtDSDJdW0NAQEhdMltDSDJdW0NIMl1bQ0gyXVtDSDJdW0NASF0yW09IXQ==

> <s_epik_cmdline>
J2VwaWtfcHl0aG9uJywgJy1waCcsICc3LjAnLCAnLXRuJywgJzgnLCAnLW1hJywgJzIwMCcsICctbWV0YWxfYmluZGluZycsICctaW1hZScsICc8aW5maWxlLm1hZT4nLCAnLW9tYWUnLCAnPG91dGZpbGUubWFlPic=

> <r_lp_tautomer_probability>
1

> <r_epik_Ionization_Penalty>
8.52237e-05

> <r_epik_Ionization_Penalty_Charging>
0

> <r_epik_Ionization_Penalty_Neutral>
8.52237e-05

> <r_epik_State_Penalty>
-0

> <r_epik_Charging_Adjusted_Penalty>
0

> <i_epik_Tot_Q>
0

> <i_epik_Tot_abs_Q>
0

> <r_epik_Metal_State_Penalty>
-0

> <b_epik_Metal_Only>
0

> <s_lp_Force_Field>
OPLS_2005

> <r_lp_Energy>
14.0215

> <b_lp_Chiralities_Consistent>
1

> <s_lp_Variant>
AV-unprocessed.smi:2471-4

> <Gold.Version>
5.8.1

> <Gold.Id.Protein>
6NUR|6NUR_protein|mol2

> <Gold.PLP.Fitness>
45.7615

> <Gold.PLP.PLP>
-37.6339

> <Gold.PLP.part.hbond>
-4.8491

> <Gold.PLP.part.metal>
0.0000

> <Gold.PLP.part.buried>
-0.7677

> <Gold.PLP.part.nonpolar>
-34.7769

> <Gold.PLP.part.repulsive>
3.8576

> <Gold.PLP.ligand.clash>
0.0000

> <Gold.PLP.ligand.torsion>
0.3312

> <Gold.PLP.Chemscore.Hbond>
2.9280

> <Gold.PLP.Chemscore.CHOScore>
0.0000

> <Gold.PLP.Chemscore.Metal>
0.0000

> <Gold.Chemscore.Hbonds>
donor molecule, donor type, donor heavy atom, donor atom, acceptor molecule, acceptor atom, score
      L1  H     7    26       P1  7948  1.00
      L1  H    10    27       P1  7948  0.93
      L1  H    18    40       P1  7921  1.00

> <Gold.PLP.Chemscore.Internal.Correction>
0.0061

> <Gold.Rescore>
     Score         DG    S(hbond)    S(metal)    S(lipo)     H(rot)  DE(clash)    DE(int)     intcor
     17.50     -20.60       2.93        0.00      83.52       1.73       1.45       1.66       ----

> <Gold.Chemscore.Fitness>
17.4963

> <Gold.Chemscore.DG>
-20.6041

> <Gold.Chemscore.ZeroCoef>
-5.4800

> <Gold.Chemscore.Hbond>
2.9313

> <Gold.Chemscore.Metal>
0.0000

> <Gold.Chemscore.Lipo>
83.5233

> <Gold.Chemscore.Internal_Hbond>
0.0000

> <Gold.Chemscore.DEClash>
1.4478

> <Gold.Chemscore.DEInternal>
1.6599

> <Gold.Chemscore.Rot>
1.7339

> <Gold.Chemscore.Internal.Correction>
   9.000000E+99

> <Gold.Chemscore.Hbonds>
donor molecule, donor type, donor heavy atom, donor atom, acceptor molecule, acceptor atom, score
      L1  H     7    26       P1  7948  0.92
      L1  H    10    27       P1  7948  0.89
      L1  H    18    40       P1  7921  1.00

> <Gold.Chemscore.Hbond.Weighted>
-9.7905

> <Gold.Chemscore.Metal.Weighted>
-0.0000

> <Gold.Chemscore.Lipo.Weighted>
-9.7722

> <Gold.Chemscore.Internal_Hbond.Weighted>
0.0000

> <Gold.Chemscore.DEClash.Weighted>
1.4478

> <Gold.Chemscore.DEInternal.Weighted>
1.6599

> <Gold.Chemscore.Rot.Weighted>
4.4387

> <Gold.Chemscore.Internal.Correction.Weighted>
   9.000000E+99

> <Gold.Protein.RotatedTorsions>
[ 6907 6896 6895 6894 ] final  -82.97 input  -60.11 | X-H torsion
[ 7974 7965 7964 7962 ] final -147.71 input  175.53 | X-H torsion
[ 8008 7997 7996 7995 ] final   45.77 input   59.86 | X-H torsion
[ 10167 10162 10161 10158 ] final  115.85 input  -65.29 | X-H torsion
[ 10718 10713 10712 10709 ] final -173.67 input   66.30 | X-H torsion
[ 10763 10752 10751 10750 ] final   32.75 input  -60.55 | X-H torsion
[ 11005 11000 10999 10996 ] final  -54.77 input  -57.11 | X-H torsion

> <Gold.Protein.ActiveResidues>
 VAL166  LYS551  ARG553  GLY616  TRP617  ASP618  TYR619  PRO620  LYS621  CYS622 
 ASP623  PHE694  ASN695  SER759  ASP760  ASP761  ALA762  ILE779  LEU786  VAL792 
 PHE793  MET794  SER795  GLU796  ALA797  LYS798  CYS799  TRP800  GLU811  SER814 

> <Gold.Protein.RotatedAtoms>
  150.6891  134.3583  159.4938 H   0  0  0  0  0  0  0  0  0  0  0  0  # atno 6907 bound_to 6896
  152.1415  134.9056  160.0562 H   0  0  0  0  0  0  0  0  0  0  0  0  # atno 6908 bound_to 6896
  152.0188  133.3855  159.4286 H   0  0  0  0  0  0  0  0  0  0  0  0  # atno 6909 bound_to 6896
  144.8076  140.5292  143.5664 H   0  0  0  0  0  0  0  0  0  0  0  0  # atno 7974 bound_to 7965
  155.3413  140.3408  155.4239 H   0  0  0  0  0  0  0  0  0  0  0  0  # atno 8008 bound_to 7997
  156.1811  140.1664  156.8307 H   0  0  0  0  0  0  0  0  0  0  0  0  # atno 8009 bound_to 7997
  154.5335  140.0740  156.8370 H   0  0  0  0  0  0  0  0  0  0  0  0  # atno 8010 bound_to 7997
  139.6288  144.7112  151.2476 H   0  0  0  0  0  0  0  0  0  0  0  0  # atno 10167 bound_to 10162
  156.7738  130.9458  151.3120 H   0  0  0  0  0  0  0  0  0  0  0  0  # atno 10718 bound_to 10713
  153.0246  135.6405  154.1403 H   0  0  0  0  0  0  0  0  0  0  0  0  # atno 10763 bound_to 10752
  154.1134  135.2851  155.3227 H   0  0  0  0  0  0  0  0  0  0  0  0  # atno 10764 bound_to 10752
  154.6315  135.5491  153.7749 H   0  0  0  0  0  0  0  0  0  0  0  0  # atno 10765 bound_to 10752
  141.1042  133.6615  156.4370 H   0  0  0  0  0  0  0  0  0  0  0  0  # atno 11005 bound_to 11000
  145.5401  139.1475  143.3451 LP  0  0  0  0  0  0  0  0  0  0  0  0  # atno 17320 bound_to 7965
  146.2370  140.5541  142.8950 LP  0  0  0  0  0  0  0  0  0  0  0  0  # atno 17321 bound_to 7965
  140.7427  143.6518  150.8241 LP  0  0  0  0  0  0  0  0  0  0  0  0  # atno 17342 bound_to 10162
  140.0140  143.5612  152.2827 LP  0  0  0  0  0  0  0  0  0  0  0  0  # atno 17343 bound_to 10162
  157.6678  130.9024  149.9972 LP  0  0  0  0  0  0  0  0  0  0  0  0  # atno 17370 bound_to 10713
  156.1261  130.3644  149.9807 LP  0  0  0  0  0  0  0  0  0  0  0  0  # atno 17371 bound_to 10713
  140.4945  134.6544  157.5224 LP  0  0  0  0  0  0  0  0  0  0  0  0  # atno 17394 bound_to 11000
  139.9905  134.6993  155.9698 LP  0  0  0  0  0  0  0  0  0  0  0  0  # atno 17395 bound_to 11000

$$$$
