AV-unprocessed.smi:456|AV-procd|sdf|2617|dock1
  -GOLD-   2262023 13D 1   1.00000     0.00000
 Structure written by MMmdl.
 33 35  0  0  0  0  0  0  0  0  2 V2000
  150.7925  143.1937  155.9109 O   0  0  0  0  0  0  0  0  0  0  0  0
  150.5830  141.9814  156.6042 C   0  0  2  0  0  0  0  0  0  0  0  0
  151.6951  141.8360  157.6620 C   0  0  0  0  0  0  0  0  0  0  0  0
  151.5502  142.7908  158.7682 N   0  0  0  0  0  0  0  0  0  0  0  0
  150.7956  143.9199  158.8550 C   0  0  0  0  0  0  0  0  0  0  0  0
  151.0116  144.4640  160.0849 N   0  3  0  0  0  0  0  0  0  0  0  0
  151.9155  143.6695  160.7943 C   0  0  0  0  0  0  0  0  0  0  0  0
  152.4417  143.8062  162.0748 C   0  0  0  0  0  0  0  0  0  0  0  0
  153.3494  142.8130  162.4982 C   0  0  0  0  0  0  0  0  0  0  0  0
  153.8910  142.8977  163.7363 F   0  0  0  0  0  0  0  0  0  0  0  0
  153.7035  141.7358  161.6579 C   0  0  0  0  0  0  0  0  0  0  0  0
  154.5801  140.8047  162.1030 F   0  0  0  0  0  0  0  0  0  0  0  0
  153.1629  141.6076  160.3614 C   0  0  0  0  0  0  0  0  0  0  0  0
  152.2659  142.5932  159.9530 C   0  0  0  0  0  0  0  0  0  0  0  0
  150.5202  140.7841  155.6661 C   0  0  0  0  0  0  0  0  0  0  0  0
  151.5773  139.8484  155.6218 C   0  0  0  0  0  0  0  0  0  0  0  0
  151.5046  138.7355  154.7617 C   0  0  0  0  0  0  0  0  0  0  0  0
  150.3739  138.5499  153.9434 C   0  0  0  0  0  0  0  0  0  0  0  0
  149.3155  139.4775  153.9860 C   0  0  0  0  0  0  0  0  0  0  0  0
  149.3883  140.5911  154.8450 C   0  0  0  0  0  0  0  0  0  0  0  0
  149.9866  143.6876  155.9198 H   0  0  0  0  0  0  0  0  0  0  0  0
  149.6205  142.0793  157.1078 H   0  0  0  0  0  0  0  0  0  0  0  0
  151.6927  140.8315  158.0878 H   0  0  0  0  0  0  0  0  0  0  0  0
  152.6805  141.9799  157.2166 H   0  0  0  0  0  0  0  0  0  0  0  0
  150.1488  144.3157  158.0848 H   0  0  0  0  0  0  0  0  0  0  0  0
  152.1746  144.6294  162.7210 H   0  0  0  0  0  0  0  0  0  0  0  0
  153.4403  140.7799  159.7257 H   0  0  0  0  0  0  0  0  0  0  0  0
  152.4467  139.9797  156.2495 H   0  0  0  0  0  0  0  0  0  0  0  0
  152.3164  138.0237  154.7308 H   0  0  0  0  0  0  0  0  0  0  0  0
  150.3185  137.6964  153.2838 H   0  0  0  0  0  0  0  0  0  0  0  0
  148.4473  139.3346  153.3595 H   0  0  0  0  0  0  0  0  0  0  0  0
  148.5690  141.2945  154.8745 H   0  0  0  0  0  0  0  0  0  0  0  0
  150.5725  145.3151  160.4123 H   0  0  0  0  0  0  0  0  0  0  0  0
  1  2  1  0  0  0  0
  1 21  1  0  0  0  0
  2  3  1  0  0  0  0
  2 15  1  0  0  0  0
  2 22  1  0  0  0  0
  3  4  1  0  0  0  0
  3 23  1  0  0  0  0
  3 24  1  0  0  0  0
  4 14  1  0  0  0  0
  4  5  1  0  0  0  0
  5  6  2  0  0  0  0
  5 25  1  0  0  0  0
  6  7  1  0  0  0  0
  6 33  1  0  0  0  0
  7 14  2  0  0  0  0
  7  8  1  0  0  0  0
  8  9  2  0  0  0  0
  8 26  1  0  0  0  0
  9 10  1  0  0  0  0
  9 11  1  0  0  0  0
 11 12  1  0  0  0  0
 11 13  2  0  0  0  0
 13 14  1  0  0  0  0
 13 27  1  0  0  0  0
 15 20  1  0  0  0  0
 15 16  2  0  0  0  0
 16 17  1  0  0  0  0
 16 28  1  0  0  0  0
 17 18  2  0  0  0  0
 17 29  1  0  0  0  0
 18 19  1  0  0  0  0
 18 30  1  0  0  0  0
 19 20  2  0  0  0  0
 19 31  1  0  0  0  0
 20 32  1  0  0  0  0
M  CHG  1   6   1
M  END
> <s_m_source_file>
AV-unprocessed.smi

> <i_m_source_file_index>
456

> <i_lp_mmshare_version>
43012

> <i_f3d_flags>
0

> <s_epik_input>
W2NIXTFbY0hdW2NIXVtjSF1bY0hdYzFbQ0BIXShbT0hdKVtDSDJdbihbY0hdbjIpYyhjMjMpW2NIXWMoRiljKEYpW2NIXTM=

> <s_epik_cmdline>
J2VwaWtfcHl0aG9uJywgJy1waCcsICc3LjAnLCAnLXRuJywgJzgnLCAnLW1hJywgJzIwMCcsICctbWV0YWxfYmluZGluZycsICctaW1hZScsICc8aW5maWxlLm1hZT4nLCAnLW9tYWUnLCAnPG91dGZpbGUubWFlPic=

> <r_epik_Ionization_Penalty>
2.16139

> <r_epik_Ionization_Penalty_Charging>
2.16138

> <r_epik_Ionization_Penalty_Neutral>
1.34362e-06

> <r_epik_State_Penalty>
2.30198

> <r_epik_Charging_Adjusted_Penalty>
4.46337

> <i_epik_Tot_Q>
1

> <i_epik_Tot_abs_Q>
1

> <r_epik_Metal_State_Penalty>
6.38245

> <b_epik_Metal_Only>
0

> <s_lp_Force_Field>
OPLS_2005

> <r_lp_Energy>
16.094

> <b_lp_Chiralities_Consistent>
1

> <s_lp_Variant>
AV-unprocessed.smi:456-3

> <Gold.Version>
5.8.1

> <Gold.Id.Protein>
6NUR|6NUR_protein|mol2

> <Gold.PLP.Fitness>
55.5183

> <Gold.PLP.PLP>
-52.0713

> <Gold.PLP.part.hbond>
-0.7556

> <Gold.PLP.part.metal>
0.0000

> <Gold.PLP.part.buried>
0.3971

> <Gold.PLP.part.nonpolar>
-49.8486

> <Gold.PLP.part.repulsive>
0.1343

> <Gold.PLP.ligand.clash>
0.0000

> <Gold.PLP.ligand.torsion>
0.5880

> <Gold.PLP.Chemscore.Hbond>
1.0000

> <Gold.PLP.Chemscore.CHOScore>
0.5288

> <Gold.PLP.Chemscore.Metal>
0.0000

> <Gold.Chemscore.Hbonds>
donor molecule, donor type, donor heavy atom, donor atom, acceptor molecule, acceptor atom, score
      L1  H     1    21       P1  8028  0.99
      L1  C     5    25       P1  8028  0.46
      L1  C     5    25       P1  8029  0.07

> <Gold.PLP.Chemscore.Internal.Correction>
0.0367

> <Gold.Rescore>
     Score         DG    S(hbond)    S(metal)    S(lipo)     H(rot)  DE(clash)    DE(int)     intcor
     17.02     -18.02       1.00        0.00     122.97       2.03       0.55       0.45       ----

> <Gold.Chemscore.Fitness>
17.0239

> <Gold.Chemscore.DG>
-18.0158

> <Gold.Chemscore.ZeroCoef>
-5.4800

> <Gold.Chemscore.Hbond>
0.9983

> <Gold.Chemscore.Metal>
0.0000

> <Gold.Chemscore.Lipo>
122.9661

> <Gold.Chemscore.Internal_Hbond>
0.0000

> <Gold.Chemscore.DEClash>
0.5453

> <Gold.Chemscore.DEInternal>
0.4466

> <Gold.Chemscore.Rot>
2.0256

> <Gold.Chemscore.Internal.Correction>
   9.000000E+99

> <Gold.Chemscore.Hbonds>
donor molecule, donor type, donor heavy atom, donor atom, acceptor molecule, acceptor atom, score
      L1  H     1    21       P1  8028  0.92

> <Gold.Chemscore.Hbond.Weighted>
-3.3342

> <Gold.Chemscore.Metal.Weighted>
-0.0000

> <Gold.Chemscore.Lipo.Weighted>
-14.3870

> <Gold.Chemscore.Internal_Hbond.Weighted>
0.0000

> <Gold.Chemscore.DEClash.Weighted>
0.5453

> <Gold.Chemscore.DEInternal.Weighted>
0.4466

> <Gold.Chemscore.Rot.Weighted>
5.1855

> <Gold.Chemscore.Internal.Correction.Weighted>
   9.000000E+99

> <Gold.Protein.RotatedTorsions>
[ 6907 6896 6895 6894 ] final  -55.84 input  -60.11 | X-H torsion
[ 7974 7965 7964 7962 ] final  -57.42 input  175.53 | X-H torsion
[ 8008 7997 7996 7995 ] final -172.56 input   59.86 | X-H torsion
[ 10167 10162 10161 10158 ] final   51.64 input  -65.29 | X-H torsion
[ 10718 10713 10712 10709 ] final   54.61 input   66.30 | X-H torsion
[ 10763 10752 10751 10750 ] final -134.79 input  -60.55 | X-H torsion
[ 11005 11000 10999 10996 ] final  -74.87 input  -57.11 | X-H torsion

> <Gold.Protein.ActiveResidues>
 VAL166  LYS551  ARG553  GLY616  TRP617  ASP618  TYR619  PRO620  LYS621  CYS622 
 ASP623  PHE694  ASN695  SER759  ASP760  ASP761  ALA762  ILE779  LEU786  VAL792 
 PHE793  MET794  SER795  GLU796  ALA797  LYS798  CYS799  TRP800  GLU811  SER814 

> <Gold.Protein.RotatedAtoms>
  150.8218  134.7429  159.6778 H   0  0  0  0  0  0  0  0  0  0  0  0  # atno 6907 bound_to 6896
  152.4333  134.5733  159.9937 H   0  0  0  0  0  0  0  0  0  0  0  0  # atno 6908 bound_to 6896
  151.5915  133.3328  159.3064 H   0  0  0  0  0  0  0  0  0  0  0  0  # atno 6909 bound_to 6896
  145.8513  140.8350  142.9984 H   0  0  0  0  0  0  0  0  0  0  0  0  # atno 7974 bound_to 7965
  155.9462  140.1118  157.1015 H   0  0  0  0  0  0  0  0  0  0  0  0  # atno 8008 bound_to 7997
  154.4099  140.1209  156.5058 H   0  0  0  0  0  0  0  0  0  0  0  0  # atno 8009 bound_to 7997
  155.6900  140.3472  155.4892 H   0  0  0  0  0  0  0  0  0  0  0  0  # atno 8010 bound_to 7997
  140.2598  144.3385  150.6321 H   0  0  0  0  0  0  0  0  0  0  0  0  # atno 10167 bound_to 10162
  157.5272  130.8605  149.8638 H   0  0  0  0  0  0  0  0  0  0  0  0  # atno 10718 bound_to 10713
  154.8714  135.3724  154.4792 H   0  0  0  0  0  0  0  0  0  0  0  0  # atno 10763 bound_to 10752
  153.5447  135.7026  153.5625 H   0  0  0  0  0  0  0  0  0  0  0  0  # atno 10764 bound_to 10752
  153.3771  135.4006  155.1794 H   0  0  0  0  0  0  0  0  0  0  0  0  # atno 10765 bound_to 10752
  141.1640  133.6926  156.7430 H   0  0  0  0  0  0  0  0  0  0  0  0  # atno 11005 bound_to 11000
  144.6729  140.0957  143.7463 LP  0  0  0  0  0  0  0  0  0  0  0  0  # atno 17320 bound_to 7965
  145.9355  139.2634  143.1300 LP  0  0  0  0  0  0  0  0  0  0  0  0  # atno 17321 bound_to 7965
  140.5975  143.2167  151.7137 LP  0  0  0  0  0  0  0  0  0  0  0  0  # atno 17342 bound_to 10162
  139.5020  144.3845  152.0342 LP  0  0  0  0  0  0  0  0  0  0  0  0  # atno 17343 bound_to 10162
  156.0396  130.3742  150.1471 LP  0  0  0  0  0  0  0  0  0  0  0  0  # atno 17370 bound_to 10713
  156.9657  130.9819  151.3470 LP  0  0  0  0  0  0  0  0  0  0  0  0  # atno 17371 bound_to 10713
  140.2660  134.8429  157.3803 LP  0  0  0  0  0  0  0  0  0  0  0  0  # atno 17394 bound_to 11000
  140.1566  134.4782  155.7924 LP  0  0  0  0  0  0  0  0  0  0  0  0  # atno 17395 bound_to 11000

$$$$
