AV-unprocessed.smi:3062|AV-procd|sdf|11684|dock10
  -GOLD-   2272017 93D 1   1.00000     0.00000
 Structure written by MMmdl.
 39 40  0  0  0  0  0  0  0  0  1 V2000
  146.4557  136.9502  162.7532 C   0  0  0  0  0  0  0  0  0  0  0  0
  147.2066  136.2606  161.6460 C   0  0  0  0  0  0  0  0  0  0  0  0
  147.8976  137.0145  160.8557 N   0  0  0  0  0  0  0  0  0  0  0  0
  148.6259  136.4839  159.8097 N   0  0  0  0  0  0  0  0  0  0  0  0
  149.3461  137.4875  159.0171 C   0  0  0  0  0  0  0  0  0  0  0  0
  150.8344  137.5910  159.4180 C   0  0  1  0  0  0  0  0  0  0  0  0
  151.5817  136.5553  158.8126 O   0  0  0  0  0  0  0  0  0  0  0  0
  151.4741  138.9279  159.0089 C   0  0  0  0  0  0  0  0  0  0  0  0
  150.4668  139.8289  158.5786 O   0  0  0  0  0  0  0  0  0  0  0  0
  150.9278  140.7568  157.6107 C   0  0  0  0  0  0  0  0  0  0  0  0
  151.4208  141.9726  158.3321 C   0  0  0  0  0  0  0  0  0  0  0  0
  151.1020  143.2766  158.0497 C   0  0  0  0  0  0  0  0  0  0  0  0
  151.7392  144.2145  158.9145 C   0  0  0  0  0  0  0  0  0  0  0  0
  152.5421  143.6157  159.8481 C   0  0  0  0  0  0  0  0  0  0  0  0
  152.5336  141.8819  159.6801 S   0  0  0  0  0  0  0  0  0  0  0  0
  148.6965  135.1561  159.5071 C   0  0  0  0  0  0  0  0  0  0  0  0
  149.3596  134.7262  158.5618 O   0  0  0  0  0  0  0  0  0  0  0  0
  147.9111  134.3071  160.4059 C   0  0  0  0  0  0  0  0  0  0  0  0
  147.9590  132.9081  160.1266 C   0  0  0  0  0  0  0  0  0  0  0  0
  148.0138  131.7714  159.9131 N   0  0  0  0  0  0  0  0  0  0  0  0
  147.1882  134.8166  161.4345 C   0  0  0  0  0  0  0  0  0  0  0  0
  146.3578  133.9777  162.3964 C   0  0  0  0  0  0  0  0  0  0  0  0
  146.7234  136.5307  163.7229 H   0  0  0  0  0  0  0  0  0  0  0  0
  145.3800  136.8359  162.6192 H   0  0  0  0  0  0  0  0  0  0  0  0
  146.6726  138.0191  162.7881 H   0  0  0  0  0  0  0  0  0  0  0  0
  149.2534  137.2789  157.9492 H   0  0  0  0  0  0  0  0  0  0  0  0
  148.8618  138.4557  159.1557 H   0  0  0  0  0  0  0  0  0  0  0  0
  150.9451  137.4841  160.4976 H   0  0  0  0  0  0  0  0  0  0  0  0
  152.0042  136.9050  158.0428 H   0  0  0  0  0  0  0  0  0  0  0  0
  151.9873  139.3577  159.8705 H   0  0  0  0  0  0  0  0  0  0  0  0
  152.2240  138.7795  158.2299 H   0  0  0  0  0  0  0  0  0  0  0  0
  151.7351  140.3211  157.0207 H   0  0  0  0  0  0  0  0  0  0  0  0
  150.1199  141.0259  156.9286 H   0  0  0  0  0  0  0  0  0  0  0  0
  150.4367  143.5876  157.2577 H   0  0  0  0  0  0  0  0  0  0  0  0
  151.5886  145.2801  158.8230 H   0  0  0  0  0  0  0  0  0  0  0  0
  153.1360  144.0838  160.6193 H   0  0  0  0  0  0  0  0  0  0  0  0
  146.3213  132.9288  162.1032 H   0  0  0  0  0  0  0  0  0  0  0  0
  145.3295  134.3386  162.4360 H   0  0  0  0  0  0  0  0  0  0  0  0
  146.7786  134.0253  163.4013 H   0  0  0  0  0  0  0  0  0  0  0  0
  1  2  1  0  0  0  0
  1 23  1  0  0  0  0
  1 24  1  0  0  0  0
  1 25  1  0  0  0  0
  2 21  1  0  0  0  0
  2  3  2  0  0  0  0
  3  4  1  0  0  0  0
  4  5  1  0  0  0  0
  4 16  1  0  0  0  0
  5  6  1  0  0  0  0
  5 26  1  0  0  0  0
  5 27  1  0  0  0  0
  6  7  1  0  0  0  0
  6  8  1  0  0  0  0
  6 28  1  0  0  0  0
  7 29  1  0  0  0  0
  8  9  1  0  0  0  0
  8 30  1  0  0  0  0
  8 31  1  0  0  0  0
  9 10  1  0  0  0  0
 10 11  1  0  0  0  0
 10 32  1  0  0  0  0
 10 33  1  0  0  0  0
 11 15  1  0  0  0  0
 11 12  2  0  0  0  0
 12 13  1  0  0  0  0
 12 34  1  0  0  0  0
 13 14  2  0  0  0  0
 13 35  1  0  0  0  0
 14 15  1  0  0  0  0
 14 36  1  0  0  0  0
 16 17  2  0  0  0  0
 16 18  1  0  0  0  0
 18 19  1  0  0  0  0
 18 21  2  0  0  0  0
 19 20  3  0  0  0  0
 21 22  1  0  0  0  0
 22 37  1  0  0  0  0
 22 38  1  0  0  0  0
 22 39  1  0  0  0  0
M  END
> <s_m_source_file>
AV-unprocessed.smi

> <i_m_source_file_index>
3062

> <i_lp_mmshare_version>
43012

> <i_f3d_flags>
0

> <s_epik_input>
TiNDYyhjMVtDSDNdKWMoPU8pbihuYzFbQ0gzXSlbQ0gyXVtDQEhdKFtPSF0pW0NIMl1PW0NIMl1jMltjSF1bY0hdW2NIXXMy

> <s_epik_cmdline>
J2VwaWtfcHl0aG9uJywgJy1waCcsICc3LjAnLCAnLXRuJywgJzgnLCAnLW1hJywgJzIwMCcsICctbWV0YWxfYmluZGluZycsICctaW1hZScsICc8aW5maWxlLm1hZT4nLCAnLW9tYWUnLCAnPG91dGZpbGUubWFlPic=

> <r_lp_tautomer_probability>
1

> <r_epik_Ionization_Penalty>
6.86395e-08

> <r_epik_Ionization_Penalty_Charging>
2.24757e-10

> <r_epik_Ionization_Penalty_Neutral>
6.84147e-08

> <r_epik_State_Penalty>
-0

> <r_epik_Charging_Adjusted_Penalty>
2.24757e-10

> <i_epik_Tot_Q>
0

> <i_epik_Tot_abs_Q>
0

> <r_epik_Metal_State_Penalty>
-0

> <b_epik_Metal_Only>
0

> <s_lp_Force_Field>
OPLS_2005

> <r_lp_Energy>
25.5383

> <b_lp_Chiralities_Consistent>
1

> <s_lp_Variant>
AV-unprocessed.smi:3062-2

> <Gold.Version>
5.8.1

> <Gold.Id.Protein>
6NUR|6NUR_protein|mol2

> <Gold.PLP.Fitness>
50.5896

> <Gold.PLP.PLP>
-44.4920

> <Gold.PLP.part.hbond>
-4.0000

> <Gold.PLP.part.metal>
0.0000

> <Gold.PLP.part.buried>
-4.1191

> <Gold.PLP.part.nonpolar>
-37.1111

> <Gold.PLP.part.repulsive>
0.0000

> <Gold.PLP.ligand.clash>
0.0000

> <Gold.PLP.ligand.torsion>
1.6675

> <Gold.PLP.Chemscore.Hbond>
3.1200

> <Gold.PLP.Chemscore.CHOScore>
0.0000

> <Gold.PLP.Chemscore.Metal>
0.0000

> <Gold.Chemscore.Hbonds>
donor molecule, donor type, donor heavy atom, donor atom, acceptor molecule, acceptor atom, score
      P1  H  6896  6908       L1    17  0.98
      P1  H  6896  6909       L1     7  0.64
      P1  H  6931  6943       L1     3  0.96
      P1  H  6934  6947       L1     3  0.62

> <Gold.PLP.Chemscore.Internal.Correction>
0.0727

> <Gold.Rescore>
     Score         DG    S(hbond)    S(metal)    S(lipo)     H(rot)  DE(clash)    DE(int)     intcor
     16.61     -19.67       2.25        0.00     112.02       2.51       0.19       2.88       ----

> <Gold.Chemscore.Fitness>
16.6132

> <Gold.Chemscore.DG>
-19.6748

> <Gold.Chemscore.ZeroCoef>
-5.4800

> <Gold.Chemscore.Hbond>
2.2512

> <Gold.Chemscore.Metal>
0.0000

> <Gold.Chemscore.Lipo>
112.0196

> <Gold.Chemscore.Internal_Hbond>
0.0000

> <Gold.Chemscore.DEClash>
0.1860

> <Gold.Chemscore.DEInternal>
2.8756

> <Gold.Chemscore.Rot>
2.5119

> <Gold.Chemscore.Internal.Correction>
   9.000000E+99

> <Gold.Chemscore.Hbonds>
donor molecule, donor type, donor heavy atom, donor atom, acceptor molecule, acceptor atom, score
      P1  H  6896  6908       L1    17  0.37
      P1  H  6896  6909       L1     7  0.48
      P1  H  6931  6943       L1     3  0.53
      P1  H  6934  6947       L1     3  0.49

> <Gold.Chemscore.Hbond.Weighted>
-7.5190

> <Gold.Chemscore.Metal.Weighted>
-0.0000

> <Gold.Chemscore.Lipo.Weighted>
-13.1063

> <Gold.Chemscore.Internal_Hbond.Weighted>
0.0000

> <Gold.Chemscore.DEClash.Weighted>
0.1860

> <Gold.Chemscore.DEInternal.Weighted>
2.8756

> <Gold.Chemscore.Rot.Weighted>
6.4305

> <Gold.Chemscore.Internal.Correction.Weighted>
   9.000000E+99

> <Gold.Protein.RotatedTorsions>
[ 6907 6896 6895 6894 ] final  133.02 input  -60.11 | X-H torsion
[ 7974 7965 7964 7962 ] final -100.06 input  175.53 | X-H torsion
[ 8008 7997 7996 7995 ] final -178.68 input   59.86 | X-H torsion
[ 10167 10162 10161 10158 ] final -126.85 input  -65.29 | X-H torsion
[ 10718 10713 10712 10709 ] final  128.23 input   66.30 | X-H torsion
[ 10763 10752 10751 10750 ] final  -31.91 input  -60.55 | X-H torsion
[ 11005 11000 10999 10996 ] final   27.03 input  -57.11 | X-H torsion

> <Gold.Protein.ActiveResidues>
 VAL166  LYS551  ARG553  GLY616  TRP617  ASP618  TYR619  PRO620  LYS621  CYS622 
 ASP623  PHE694  ASN695  SER759  ASP760  ASP761  ALA762  ILE779  LEU786  VAL792 
 PHE793  MET794  SER795  GLU796  ALA797  LYS798  CYS799  TRP800  GLU811  SER814 

> <Gold.Protein.RotatedAtoms>
  152.3263  133.5909  159.5778 H   0  0  0  0  0  0  0  0  0  0  0  0  # atno 6907 bound_to 6896
  150.7398  133.9935  159.3623 H   0  0  0  0  0  0  0  0  0  0  0  0  # atno 6908 bound_to 6896
  151.7814  135.0761  160.0425 H   0  0  0  0  0  0  0  0  0  0  0  0  # atno 6909 bound_to 6896
  145.2994  140.9373  143.2832 H   0  0  0  0  0  0  0  0  0  0  0  0  # atno 7974 bound_to 7965
  156.0217  140.1262  157.0351 H   0  0  0  0  0  0  0  0  0  0  0  0  # atno 8008 bound_to 7997
  154.4314  140.1067  156.6043 H   0  0  0  0  0  0  0  0  0  0  0  0  # atno 8009 bound_to 7997
  155.5935  140.3469  155.4575 H   0  0  0  0  0  0  0  0  0  0  0  0  # atno 8010 bound_to 7997
  139.9670  143.5887  152.2426 H   0  0  0  0  0  0  0  0  0  0  0  0  # atno 10167 bound_to 10162
  157.5263  131.1098  150.9078 H   0  0  0  0  0  0  0  0  0  0  0  0  # atno 10718 bound_to 10713
  153.8050  135.6887  153.4849 H   0  0  0  0  0  0  0  0  0  0  0  0  # atno 10763 bound_to 10752
  153.1664  135.4559  154.9841 H   0  0  0  0  0  0  0  0  0  0  0  0  # atno 10764 bound_to 10752
  154.7991  135.3330  154.7536 H   0  0  0  0  0  0  0  0  0  0  0  0  # atno 10765 bound_to 10752
  140.3307  134.2441  155.7703 H   0  0  0  0  0  0  0  0  0  0  0  0  # atno 11005 bound_to 11000
  144.9106  139.4534  143.6589 LP  0  0  0  0  0  0  0  0  0  0  0  0  # atno 17320 bound_to 7965
  146.3157  139.7911  142.8985 LP  0  0  0  0  0  0  0  0  0  0  0  0  # atno 17321 bound_to 7965
  139.6510  144.7660  151.2149 LP  0  0  0  0  0  0  0  0  0  0  0  0  # atno 17342 bound_to 10162
  140.7534  143.6161  150.8558 LP  0  0  0  0  0  0  0  0  0  0  0  0  # atno 17343 bound_to 10162
  156.9673  130.5477  149.5288 LP  0  0  0  0  0  0  0  0  0  0  0  0  # atno 17370 bound_to 10713
  156.0389  130.5474  150.8723 LP  0  0  0  0  0  0  0  0  0  0  0  0  # atno 17371 bound_to 10713
  141.2064  133.7834  157.0179 LP  0  0  0  0  0  0  0  0  0  0  0  0  # atno 17394 bound_to 11000
  140.0863  134.9619  157.1705 LP  0  0  0  0  0  0  0  0  0  0  0  0  # atno 17395 bound_to 11000

$$$$
