AV-unprocessed.smi:3185|AV-procd|sdf|12168|dock5
  -GOLD-   2272018 03D 1   1.00000     0.00000
 Structure written by MMmdl.
 38 39  0  0  0  0  0  0  0  0  2 V2000
  149.1586  144.7372  160.0737 N   0  0  0  0  0  0  0  0  0  0  0  0
  150.2077  145.1432  159.8048 C   0  0  0  0  0  0  0  0  0  0  0  0
  151.5443  145.6575  159.4665 C   0  0  0  0  0  0  0  0  0  0  0  0
  152.4364  144.6132  158.7809 C   0  0  0  0  0  0  0  0  0  0  0  0
  152.0032  144.3101  157.3399 C   0  0  0  0  0  0  0  0  0  0  0  0
  150.9146  143.3109  157.3107 N   0  3  0  0  0  0  0  0  0  0  0  0
  151.3484  141.8934  157.2998 C   0  0  1  0  0  0  0  0  0  0  0  0
  152.1866  141.6249  158.5659 C   0  0  0  0  0  0  0  0  0  0  0  0
  152.6356  140.1596  158.6611 C   0  0  0  0  0  0  0  0  0  0  0  0
  151.4287  139.2133  158.6211 C   0  0  0  0  0  0  0  0  0  0  0  0
  150.5926  139.4494  157.3558 C   0  0  0  0  0  0  0  0  0  0  0  0
  150.1367  140.9209  157.2371 C   0  0  2  0  0  0  0  0  0  0  0  0
  149.3286  141.1103  156.0384 N   0  0  0  0  0  0  0  0  0  0  0  0
  148.0673  141.6613  155.9394 C   0  0  0  0  0  0  0  0  0  0  0  0
  147.7195  141.6525  154.6193 C   0  0  0  0  0  0  0  0  0  0  0  0
  148.8443  141.0656  153.9763 C   0  0  0  0  0  0  0  0  0  0  0  0
  149.8054  140.7437  154.8267 N   0  0  0  0  0  0  0  0  0  0  0  0
  151.4141  146.5280  158.8232 H   0  0  0  0  0  0  0  0  0  0  0  0
  152.0104  146.0056  160.3885 H   0  0  0  0  0  0  0  0  0  0  0  0
  153.4699  144.9615  158.7884 H   0  0  0  0  0  0  0  0  0  0  0  0
  152.4167  143.6937  159.3675 H   0  0  0  0  0  0  0  0  0  0  0  0
  151.6736  145.2277  156.8578 H   0  0  0  0  0  0  0  0  0  0  0  0
  152.8523  143.9360  156.7667 H   0  0  0  0  0  0  0  0  0  0  0  0
  150.3598  143.4537  158.1424 H   0  0  0  0  0  0  0  0  0  0  0  0
  151.9955  141.7247  156.4369 H   0  0  0  0  0  0  0  0  0  0  0  0
  153.0638  142.2733  158.5754 H   0  0  0  0  0  0  0  0  0  0  0  0
  151.6070  141.8798  159.4546 H   0  0  0  0  0  0  0  0  0  0  0  0
  153.3126  139.9275  157.8377 H   0  0  0  0  0  0  0  0  0  0  0  0
  153.2004  140.0023  159.5805 H   0  0  0  0  0  0  0  0  0  0  0  0
  151.7668  138.1771  158.6554 H   0  0  0  0  0  0  0  0  0  0  0  0
  150.8096  139.3669  159.5061 H   0  0  0  0  0  0  0  0  0  0  0  0
  151.1849  139.1664  156.4843 H   0  0  0  0  0  0  0  0  0  0  0  0
  149.7241  138.7896  157.3639 H   0  0  0  0  0  0  0  0  0  0  0  0
  149.4912  141.1328  158.0914 H   0  0  0  0  0  0  0  0  0  0  0  0
  147.5279  142.0136  156.8064 H   0  0  0  0  0  0  0  0  0  0  0  0
  146.8005  142.0101  154.1787 H   0  0  0  0  0  0  0  0  0  0  0  0
  148.9913  140.8681  152.9247 H   0  0  0  0  0  0  0  0  0  0  0  0
  150.3283  143.4756  156.5050 H   0  0  0  0  0  0  0  0  0  0  0  0
  1  2  3  0  0  0  0
  2  3  1  0  0  0  0
  3  4  1  0  0  0  0
  3 18  1  0  0  0  0
  3 19  1  0  0  0  0
  4  5  1  0  0  0  0
  4 20  1  0  0  0  0
  4 21  1  0  0  0  0
  5  6  1  0  0  0  0
  5 22  1  0  0  0  0
  5 23  1  0  0  0  0
  6  7  1  0  0  0  0
  6 24  1  0  0  0  0
  6 38  1  0  0  0  0
  7 12  1  0  0  0  0
  7  8  1  0  0  0  0
  7 25  1  0  0  0  0
  8  9  1  0  0  0  0
  8 26  1  0  0  0  0
  8 27  1  0  0  0  0
  9 10  1  0  0  0  0
  9 28  1  0  0  0  0
  9 29  1  0  0  0  0
 10 11  1  0  0  0  0
 10 30  1  0  0  0  0
 10 31  1  0  0  0  0
 11 12  1  0  0  0  0
 11 32  1  0  0  0  0
 11 33  1  0  0  0  0
 12 13  1  0  0  0  0
 12 34  1  0  0  0  0
 13 17  1  0  0  0  0
 13 14  1  0  0  0  0
 14 15  2  0  0  0  0
 14 35  1  0  0  0  0
 15 16  1  0  0  0  0
 15 36  1  0  0  0  0
 16 17  2  0  0  0  0
 16 37  1  0  0  0  0
M  CHG  1   6   1
M  END
> <s_m_source_file>
AV-unprocessed.smi

> <i_m_source_file_index>
3185

> <i_lp_mmshare_version>
43012

> <i_f3d_flags>
0

> <s_epik_input>
TiNDW0NIMl1bQ0gyXVtDSDJdW05IXVtDQEBIXTFbQ0gyXVtDSDJdW0NIMl1bQ0gyXVtDQEhdMW4yW2NIXVtjSF1bY0hdbjI=

> <s_epik_cmdline>
J2VwaWtfcHl0aG9uJywgJy1waCcsICc3LjAnLCAnLXRuJywgJzgnLCAnLW1hJywgJzIwMCcsICctbWV0YWxfYmluZGluZycsICctaW1hZScsICc8aW5maWxlLm1hZT4nLCAnLW9tYWUnLCAnPG91dGZpbGUubWFlPic=

> <r_lp_tautomer_probability>
1

> <r_epik_Ionization_Penalty>
0.0143465

> <r_epik_Ionization_Penalty_Charging>
0.0143338

> <r_epik_Ionization_Penalty_Neutral>
1.27047e-05

> <r_epik_State_Penalty>
0.0112058

> <r_epik_Charging_Adjusted_Penalty>
0.0255397

> <i_epik_Tot_Q>
1

> <i_epik_Tot_abs_Q>
1

> <r_epik_Metal_State_Penalty>
0.0112253

> <b_epik_Metal_Only>
0

> <s_lp_Force_Field>
OPLS_2005

> <r_lp_Energy>
15.0666

> <b_lp_Chiralities_Consistent>
1

> <s_lp_Variant>
AV-unprocessed.smi:3185-4

> <Gold.Version>
5.8.1

> <Gold.Id.Protein>
6NUR|6NUR_protein|mol2

> <Gold.PLP.Fitness>
46.8579

> <Gold.PLP.PLP>
-34.9109

> <Gold.PLP.part.hbond>
-3.0000

> <Gold.PLP.part.metal>
0.0000

> <Gold.PLP.part.buried>
-3.7976

> <Gold.PLP.part.nonpolar>
-29.1391

> <Gold.PLP.part.repulsive>
0.2869

> <Gold.PLP.ligand.clash>
0.0000

> <Gold.PLP.ligand.torsion>
0.4700

> <Gold.PLP.Chemscore.Hbond>
3.2536

> <Gold.PLP.Chemscore.CHOScore>
1.0000

> <Gold.PLP.Chemscore.Metal>
0.0000

> <Gold.Chemscore.Hbonds>
donor molecule, donor type, donor heavy atom, donor atom, acceptor molecule, acceptor atom, score
      L1  H     6    38       P1  8028  1.60
      P1  H  7989  7998       L1    17  0.35
      L1  C    16    37       P1  7957  1.00

> <Gold.PLP.Chemscore.Internal.Correction>
0.1262

> <Gold.Rescore>
     Score         DG    S(hbond)    S(metal)    S(lipo)     H(rot)  DE(clash)    DE(int)     intcor
     16.00     -17.89       2.02        0.00      89.50       1.88       0.23       1.67       ----

> <Gold.Chemscore.Fitness>
15.9966

> <Gold.Chemscore.DG>
-17.8913

> <Gold.Chemscore.ZeroCoef>
-5.4800

> <Gold.Chemscore.Hbond>
2.0195

> <Gold.Chemscore.Metal>
0.0000

> <Gold.Chemscore.Lipo>
89.4956

> <Gold.Chemscore.Internal_Hbond>
0.0000

> <Gold.Chemscore.DEClash>
0.2272

> <Gold.Chemscore.DEInternal>
1.6675

> <Gold.Chemscore.Rot>
1.8769

> <Gold.Chemscore.Internal.Correction>
   9.000000E+99

> <Gold.Chemscore.Hbonds>
donor molecule, donor type, donor heavy atom, donor atom, acceptor molecule, acceptor atom, score
      L1  H     6    38       P1  8028  0.75
      P1  H  7989  7998       L1    17  0.10

> <Gold.Chemscore.Hbond.Weighted>
-6.7453

> <Gold.Chemscore.Metal.Weighted>
-0.0000

> <Gold.Chemscore.Lipo.Weighted>
-10.4710

> <Gold.Chemscore.Internal_Hbond.Weighted>
0.0000

> <Gold.Chemscore.DEClash.Weighted>
0.2272

> <Gold.Chemscore.DEInternal.Weighted>
1.6675

> <Gold.Chemscore.Rot.Weighted>
4.8049

> <Gold.Chemscore.Internal.Correction.Weighted>
   9.000000E+99

> <Gold.Protein.RotatedTorsions>
[ 6907 6896 6895 6894 ] final -156.81 input  -60.11 | X-H torsion
[ 7974 7965 7964 7962 ] final   15.21 input  175.53 | X-H torsion
[ 8008 7997 7996 7995 ] final  141.49 input   59.86 | X-H torsion
[ 10167 10162 10161 10158 ] final   36.68 input  -65.29 | X-H torsion
[ 10718 10713 10712 10709 ] final  -98.23 input   66.30 | X-H torsion
[ 10763 10752 10751 10750 ] final   41.48 input  -60.55 | X-H torsion
[ 11005 11000 10999 10996 ] final  -38.98 input  -57.11 | X-H torsion

> <Gold.Protein.ActiveResidues>
 VAL166  LYS551  ARG553  GLY616  TRP617  ASP618  TYR619  PRO620  LYS621  CYS622 
 ASP623  PHE694  ASN695  SER759  ASP760  ASP761  ALA762  ILE779  LEU786  VAL792 
 PHE793  MET794  SER795  GLU796  ALA797  LYS798  CYS799  TRP800  GLU811  SER814 

> <Gold.Protein.RotatedAtoms>
  151.2932  133.4156  159.2634 H   0  0  0  0  0  0  0  0  0  0  0  0  # atno 6907 bound_to 6896
  151.0259  134.9504  159.8095 H   0  0  0  0  0  0  0  0  0  0  0  0  # atno 6908 bound_to 6896
  152.5335  134.2894  159.9090 H   0  0  0  0  0  0  0  0  0  0  0  0  # atno 6909 bound_to 6896
  146.2284  139.8928  142.8552 H   0  0  0  0  0  0  0  0  0  0  0  0  # atno 7974 bound_to 7965
  156.2965  140.2314  156.4573 H   0  0  0  0  0  0  0  0  0  0  0  0  # atno 8008 bound_to 7997
  154.8049  140.0446  157.1321 H   0  0  0  0  0  0  0  0  0  0  0  0  # atno 8009 bound_to 7997
  154.9491  140.3039  155.5087 H   0  0  0  0  0  0  0  0  0  0  0  0  # atno 8010 bound_to 7997
  140.4105  144.1600  150.6139 H   0  0  0  0  0  0  0  0  0  0  0  0  # atno 10167 bound_to 10162
  156.0102  130.5229  150.6492 H   0  0  0  0  0  0  0  0  0  0  0  0  # atno 10718 bound_to 10713
  152.9907  135.6160  154.2795 H   0  0  0  0  0  0  0  0  0  0  0  0  # atno 10763 bound_to 10752
  154.2525  135.2785  155.2813 H   0  0  0  0  0  0  0  0  0  0  0  0  # atno 10764 bound_to 10752
  154.5276  135.5797  153.6789 H   0  0  0  0  0  0  0  0  0  0  0  0  # atno 10765 bound_to 10752
  141.0068  133.6927  156.2126 H   0  0  0  0  0  0  0  0  0  0  0  0  # atno 11005 bound_to 11000
  145.2401  141.0006  143.3941 LP  0  0  0  0  0  0  0  0  0  0  0  0  # atno 17320 bound_to 7965
  144.9459  139.4136  143.6426 LP  0  0  0  0  0  0  0  0  0  0  0  0  # atno 17321 bound_to 7965
  140.4643  143.2437  151.9176 LP  0  0  0  0  0  0  0  0  0  0  0  0  # atno 17342 bound_to 10162
  139.4782  144.5435  151.8493 LP  0  0  0  0  0  0  0  0  0  0  0  0  # atno 17343 bound_to 10162
  157.4257  131.0842  151.1088 LP  0  0  0  0  0  0  0  0  0  0  0  0  # atno 17370 bound_to 10713
  157.1677  130.6253  149.5630 LP  0  0  0  0  0  0  0  0  0  0  0  0  # atno 17371 bound_to 10713
  140.6799  134.4778  157.5589 LP  0  0  0  0  0  0  0  0  0  0  0  0  # atno 17394 bound_to 11000
  139.9068  134.8432  156.1677 LP  0  0  0  0  0  0  0  0  0  0  0  0  # atno 17395 bound_to 11000

$$$$
