AV-unprocessed.smi:370|AV-procd|sdf|2437|dock1
  -GOLD-   2262022373D 1   1.00000     0.00000
 Structure written by MMmdl.
 43 44  0  0  0  0  0  0  0  0  2 V2000
  151.8035  140.4658  157.9812 C   0  0  0  0  0  0  0  0  0  0  0  0
  151.4239  139.9102  156.6518 C   0  0  0  0  0  0  0  0  0  0  0  0
  150.2317  139.5135  156.1146 C   0  0  0  0  0  0  0  0  0  0  0  0
  150.5950  139.0892  154.8090 C   0  0  0  0  0  0  0  0  0  0  0  0
  149.6187  138.5982  153.9049 N   0  0  0  0  0  0  0  0  0  0  0  0
  148.3046  138.8789  153.8890 C   0  0  0  0  0  0  0  0  0  0  0  0
  147.7343  139.6510  154.6600 O   0  0  0  0  0  0  0  0  0  0  0  0
  147.6727  138.2023  152.9182 N   0  0  0  0  0  0  0  0  0  0  0  0
  146.2418  138.2785  152.6206 C   0  0  0  0  0  0  0  0  0  0  0  0
  145.6993  137.0939  151.7614 C   0  0  0  0  0  0  0  0  0  0  0  0
  144.1549  137.0720  151.9127 C   0  0  0  0  0  0  0  0  0  0  0  0
  146.0224  137.3031  150.2612 C   0  0  0  0  0  0  0  0  0  0  0  0
  146.3149  135.8136  152.2740 N   0  3  0  0  0  0  0  0  0  0  0  0
  146.1570  135.5398  153.7318 C   0  0  0  0  0  0  0  0  0  0  0  0
  146.9516  134.2879  154.1450 C   0  0  0  0  0  0  0  0  0  0  0  0
  146.5498  133.1715  153.3655 O   0  0  0  0  0  0  0  0  0  0  0  0
  146.7963  133.3853  151.9837 C   0  0  0  0  0  0  0  0  0  0  0  0
  145.9667  134.5853  151.5021 C   0  0  0  0  0  0  0  0  0  0  0  0
  151.8912  139.2161  154.5702 N   0  0  0  0  0  0  0  0  0  0  0  0
  152.4292  139.7430  155.7503 O   0  0  0  0  0  0  0  0  0  0  0  0
  150.9407  140.5088  158.6461 H   0  0  0  0  0  0  0  0  0  0  0  0
  152.2024  141.4750  157.8783 H   0  0  0  0  0  0  0  0  0  0  0  0
  152.5655  139.8468  158.4550 H   0  0  0  0  0  0  0  0  0  0  0  0
  149.2588  139.5262  156.5833 H   0  0  0  0  0  0  0  0  0  0  0  0
  149.9565  137.9568  153.2028 H   0  0  0  0  0  0  0  0  0  0  0  0
  148.2239  137.5900  152.3343 H   0  0  0  0  0  0  0  0  0  0  0  0
  145.7003  138.3796  153.5598 H   0  0  0  0  0  0  0  0  0  0  0  0
  146.0758  139.2162  152.0890 H   0  0  0  0  0  0  0  0  0  0  0  0
  143.7026  138.0270  151.6459 H   0  0  0  0  0  0  0  0  0  0  0  0
  143.8563  136.8487  152.9377 H   0  0  0  0  0  0  0  0  0  0  0  0
  143.6873  136.3385  151.2553 H   0  0  0  0  0  0  0  0  0  0  0  0
  145.4701  138.1471  149.8473 H   0  0  0  0  0  0  0  0  0  0  0  0
  145.7544  136.4313  149.6645 H   0  0  0  0  0  0  0  0  0  0  0  0
  147.0799  137.5093  150.0942 H   0  0  0  0  0  0  0  0  0  0  0  0
  146.5324  136.3618  154.3385 H   0  0  0  0  0  0  0  0  0  0  0  0
  145.1019  135.4100  153.9753 H   0  0  0  0  0  0  0  0  0  0  0  0
  148.0242  134.4555  154.0327 H   0  0  0  0  0  0  0  0  0  0  0  0
  146.7751  134.0635  155.1971 H   0  0  0  0  0  0  0  0  0  0  0  0
  147.8609  133.5458  151.8055 H   0  0  0  0  0  0  0  0  0  0  0  0
  146.5127  132.4878  151.4339 H   0  0  0  0  0  0  0  0  0  0  0  0
  144.9088  134.3507  151.6254 H   0  0  0  0  0  0  0  0  0  0  0  0
  146.1398  134.7147  150.4362 H   0  0  0  0  0  0  0  0  0  0  0  0
  147.3086  135.9413  152.1454 H   0  0  0  0  0  0  0  0  0  0  0  0
  1  2  1  0  0  0  0
  1 21  1  0  0  0  0
  1 22  1  0  0  0  0
  1 23  1  0  0  0  0
  2 20  1  0  0  0  0
  2  3  2  0  0  0  0
  3  4  1  0  0  0  0
  3 24  1  0  0  0  0
  4  5  1  0  0  0  0
  4 19  2  0  0  0  0
  5  6  1  0  0  0  0
  5 25  1  0  0  0  0
  6  7  2  0  0  0  0
  6  8  1  0  0  0  0
  8  9  1  0  0  0  0
  8 26  1  0  0  0  0
  9 10  1  0  0  0  0
  9 27  1  0  0  0  0
  9 28  1  0  0  0  0
 10 11  1  0  0  0  0
 10 12  1  0  0  0  0
 10 13  1  0  0  0  0
 11 29  1  0  0  0  0
 11 30  1  0  0  0  0
 11 31  1  0  0  0  0
 12 32  1  0  0  0  0
 12 33  1  0  0  0  0
 12 34  1  0  0  0  0
 13 18  1  0  0  0  0
 13 14  1  0  0  0  0
 13 43  1  0  0  0  0
 14 15  1  0  0  0  0
 14 35  1  0  0  0  0
 14 36  1  0  0  0  0
 15 16  1  0  0  0  0
 15 37  1  0  0  0  0
 15 38  1  0  0  0  0
 16 17  1  0  0  0  0
 17 18  1  0  0  0  0
 17 39  1  0  0  0  0
 17 40  1  0  0  0  0
 18 41  1  0  0  0  0
 18 42  1  0  0  0  0
 19 20  1  0  0  0  0
M  CHG  1  13   1
M  END
> <s_m_source_file>
AV-unprocessed.smi

> <i_m_source_file_index>
370

> <i_lp_mmshare_version>
43012

> <i_f3d_flags>
0

> <s_epik_input>
W0NIM11jMVtjSF1jKG5vMSlbTkhdQyg9TylbTkhdW0NIMl1DKFtDSDNdKShbQ0gzXSlOMltDSDJdW0NIMl1PW0NIMl1bQ0gyXTI=

> <s_epik_cmdline>
J2VwaWtfcHl0aG9uJywgJy1waCcsICc3LjAnLCAnLXRuJywgJzgnLCAnLW1hJywgJzIwMCcsICctbWV0YWxfYmluZGluZycsICctaW1hZScsICc8aW5maWxlLm1hZT4nLCAnLW9tYWUnLCAnPG91dGZpbGUubWFlPic=

> <r_epik_Ionization_Penalty>
0.707076

> <r_epik_Ionization_Penalty_Charging>
0.707039

> <r_epik_Ionization_Penalty_Neutral>
3.67886e-05

> <r_epik_State_Penalty>
0.730276

> <r_epik_Charging_Adjusted_Penalty>
1.43732

> <i_epik_Tot_Q>
1

> <i_epik_Tot_abs_Q>
1

> <r_epik_Metal_State_Penalty>
0.743216

> <b_epik_Metal_Only>
0

> <s_lp_Force_Field>
OPLS_2005

> <r_lp_Energy>
23.7539

> <b_lp_Chiralities_Consistent>
1

> <s_lp_Variant>
AV-unprocessed.smi:370-2

> <Gold.Version>
5.8.1

> <Gold.Id.Protein>
6NUR|6NUR_protein|mol2

> <Gold.PLP.Fitness>
40.7686

> <Gold.PLP.PLP>
-26.4243

> <Gold.PLP.part.hbond>
-6.0040

> <Gold.PLP.part.metal>
0.0000

> <Gold.PLP.part.buried>
2.6339

> <Gold.PLP.part.nonpolar>
-24.6845

> <Gold.PLP.part.repulsive>
0.3998

> <Gold.PLP.ligand.clash>
0.0000

> <Gold.PLP.ligand.torsion>
0.5467

> <Gold.PLP.Chemscore.Hbond>
5.0893

> <Gold.PLP.Chemscore.CHOScore>
0.0000

> <Gold.PLP.Chemscore.Metal>
0.0000

> <Gold.Chemscore.Hbonds>
donor molecule, donor type, donor heavy atom, donor atom, acceptor molecule, acceptor atom, score
      L1  H     5    25       P1  7948  0.13
      L1  H     8    26       P1  7948  1.00
      L1  H    13    43       P1  7948  2.00
      P1  H  7989  7998       L1    19  0.67
      P1  H  7997  8009       L1    20  1.00

> <Gold.PLP.Chemscore.Internal.Correction>
0.1697

> <Gold.Rescore>
     Score         DG    S(hbond)    S(metal)    S(lipo)     H(rot)  DE(clash)    DE(int)     intcor
     14.72     -17.85       2.99        0.00      55.27       1.60       1.28       1.85       ----

> <Gold.Chemscore.Fitness>
14.7215

> <Gold.Chemscore.DG>
-17.8507

> <Gold.Chemscore.ZeroCoef>
-5.4800

> <Gold.Chemscore.Hbond>
2.9924

> <Gold.Chemscore.Metal>
0.0000

> <Gold.Chemscore.Lipo>
55.2709

> <Gold.Chemscore.Internal_Hbond>
0.0000

> <Gold.Chemscore.DEClash>
1.2825

> <Gold.Chemscore.DEInternal>
1.8467

> <Gold.Chemscore.Rot>
1.5979

> <Gold.Chemscore.Internal.Correction>
   9.000000E+99

> <Gold.Chemscore.Hbonds>
donor molecule, donor type, donor heavy atom, donor atom, acceptor molecule, acceptor atom, score
      L1  H     5    25       P1  7948  0.07
      L1  H     8    26       P1  7948  0.98
      L1  H    13    43       P1  7948  1.00
      P1  H  7989  7998       L1    19  0.02
      P1  H  7997  8009       L1    20  0.95

> <Gold.Chemscore.Hbond.Weighted>
-9.9947

> <Gold.Chemscore.Metal.Weighted>
-0.0000

> <Gold.Chemscore.Lipo.Weighted>
-6.4667

> <Gold.Chemscore.Internal_Hbond.Weighted>
0.0000

> <Gold.Chemscore.DEClash.Weighted>
1.2825

> <Gold.Chemscore.DEInternal.Weighted>
1.8467

> <Gold.Chemscore.Rot.Weighted>
4.0906

> <Gold.Chemscore.Internal.Correction.Weighted>
   9.000000E+99

> <Gold.Protein.RotatedTorsions>
[ 6907 6896 6895 6894 ] final   87.73 input  -60.11 | X-H torsion
[ 7974 7965 7964 7962 ] final -146.12 input  175.53 | X-H torsion
[ 8008 7997 7996 7995 ] final -148.42 input   59.86 | X-H torsion
[ 10167 10162 10161 10158 ] final -133.80 input  -65.29 | X-H torsion
[ 10718 10713 10712 10709 ] final  138.60 input   66.30 | X-H torsion
[ 10763 10752 10751 10750 ] final   49.77 input  -60.55 | X-H torsion
[ 11005 11000 10999 10996 ] final   62.08 input  -57.11 | X-H torsion

> <Gold.Protein.ActiveResidues>
 VAL166  LYS551  ARG553  GLY616  TRP617  ASP618  TYR619  PRO620  LYS621  CYS622 
 ASP623  PHE694  ASN695  SER759  ASP760  ASP761  ALA762  ILE779  LEU786  VAL792 
 PHE793  MET794  SER795  GLU796  ALA797  LYS798  CYS799  TRP800  GLU811  SER814 

> <Gold.Protein.RotatedAtoms>
  152.5415  134.2230  159.8794 H   0  0  0  0  0  0  0  0  0  0  0  0  # atno 6907 bound_to 6896
  151.2206  133.4497  159.2608 H   0  0  0  0  0  0  0  0  0  0  0  0  # atno 6908 bound_to 6896
  151.0809  134.9870  159.8411 H   0  0  0  0  0  0  0  0  0  0  0  0  # atno 6909 bound_to 6896
  144.8181  140.5497  143.5597 H   0  0  0  0  0  0  0  0  0  0  0  0  # atno 7974 bound_to 7965
  155.5914  140.0653  157.2757 H   0  0  0  0  0  0  0  0  0  0  0  0  # atno 8008 bound_to 7997
  154.4304  140.1834  156.1125 H   0  0  0  0  0  0  0  0  0  0  0  0  # atno 8009 bound_to 7997
  156.0230  140.3315  155.7062 H   0  0  0  0  0  0  0  0  0  0  0  0  # atno 8010 bound_to 7997
  139.8945  143.6682  152.2606 H   0  0  0  0  0  0  0  0  0  0  0  0  # atno 10167 bound_to 10162
  157.4235  131.1041  151.0328 H   0  0  0  0  0  0  0  0  0  0  0  0  # atno 10718 bound_to 10713
  152.9786  135.5901  154.4142 H   0  0  0  0  0  0  0  0  0  0  0  0  # atno 10763 bound_to 10752
  154.3774  135.2767  155.2233 H   0  0  0  0  0  0  0  0  0  0  0  0  # atno 10764 bound_to 10752
  154.4162  135.6070  153.6036 H   0  0  0  0  0  0  0  0  0  0  0  0  # atno 10765 bound_to 10752
  140.0117  134.6286  155.9771 H   0  0  0  0  0  0  0  0  0  0  0  0  # atno 11005 bound_to 11000
  145.5168  139.1477  143.3574 LP  0  0  0  0  0  0  0  0  0  0  0  0  # atno 17320 bound_to 7965
  146.2485  140.5309  142.8903 LP  0  0  0  0  0  0  0  0  0  0  0  0  # atno 17321 bound_to 7965
  139.7080  144.7625  151.1161 LP  0  0  0  0  0  0  0  0  0  0  0  0  # atno 17342 bound_to 10162
  140.7720  143.5369  150.9358 LP  0  0  0  0  0  0  0  0  0  0  0  0  # atno 17343 bound_to 10162
  157.1249  130.6078  149.5514 LP  0  0  0  0  0  0  0  0  0  0  0  0  # atno 17370 bound_to 10713
  155.9888  130.4934  150.7188 LP  0  0  0  0  0  0  0  0  0  0  0  0  # atno 17371 bound_to 10713
  141.1715  133.6537  156.4670 LP  0  0  0  0  0  0  0  0  0  0  0  0  # atno 17394 bound_to 11000
  140.4543  134.6900  157.5055 LP  0  0  0  0  0  0  0  0  0  0  0  0  # atno 17395 bound_to 11000

$$$$
