AV-unprocessed.smi:1570|AV-procd|sdf|6313|dock7
  -GOLD-   22720 6513D 1   1.00000     0.00000
 Structure written by MMmdl.
 51 53  0  0  0  0  0  0  0  0  1 V2000
  155.2204  140.9272  160.1601 C   0  0  0  0  0  0  0  0  0  0  0  0
  153.8039  141.1000  160.7223 C   0  0  0  0  0  0  0  0  0  0  0  0
  152.8797  141.5701  159.6932 N   0  0  0  0  0  0  0  0  0  0  0  0
  152.5524  140.9256  158.5489 C   0  0  0  0  0  0  0  0  0  0  0  0
  152.9850  139.8312  158.1874 O   0  0  0  0  0  0  0  0  0  0  0  0
  151.6612  141.6898  157.8736 N   0  0  0  0  0  0  0  0  0  0  0  0
  151.0601  141.3775  156.5748 C   0  0  0  0  0  0  0  0  0  0  0  0
  151.0273  139.8596  156.2816 C   0  0  1  0  0  0  0  0  0  0  0  0
  150.2877  139.1890  157.2809 O   0  0  0  0  0  0  0  0  0  0  0  0
  150.5230  139.4618  154.8737 C   0  0  0  0  0  0  0  0  0  0  0  0
  149.0925  139.6389  154.6154 N   0  0  0  0  0  0  0  0  0  0  0  0
  148.6359  138.9360  153.4202 C   0  0  0  0  0  0  0  0  0  0  0  0
  147.1296  139.1443  153.1698 C   0  0  2  0  0  0  0  0  0  0  0  0
  146.6636  138.4873  151.8664 C   0  0  0  0  0  0  0  0  0  0  0  0
  146.8543  140.5403  153.0917 O   0  0  0  0  0  0  0  0  0  0  0  0
  147.2417  141.2565  154.2608 C   0  0  2  0  0  0  0  0  0  0  0  0
  146.8817  142.7328  154.0656 C   0  0  0  0  0  0  0  0  0  0  0  0
  148.7495  141.0503  154.4959 C   0  0  0  0  0  0  0  0  0  0  0  0
  151.3847  142.8429  158.6271 C   0  0  0  0  0  0  0  0  0  0  0  0
  150.5239  143.9290  158.3851 C   0  0  0  0  0  0  0  0  0  0  0  0
  150.4832  144.9552  159.3573 C   0  0  0  0  0  0  0  0  0  0  0  0
  151.2791  144.8776  160.5287 C   0  0  0  0  0  0  0  0  0  0  0  0
  152.1324  143.7722  160.7523 C   0  0  0  0  0  0  0  0  0  0  0  0
  152.1570  142.7687  159.7678 C   0  0  0  0  0  0  0  0  0  0  0  0
  155.9016  140.5658  160.9306 H   0  0  0  0  0  0  0  0  0  0  0  0
  155.6145  141.8726  159.7856 H   0  0  0  0  0  0  0  0  0  0  0  0
  155.2351  140.2088  159.3399 H   0  0  0  0  0  0  0  0  0  0  0  0
  153.4465  140.1552  161.1330 H   0  0  0  0  0  0  0  0  0  0  0  0
  153.8196  141.8035  161.5560 H   0  0  0  0  0  0  0  0  0  0  0  0
  150.0445  141.7763  156.5600 H   0  0  0  0  0  0  0  0  0  0  0  0
  151.5911  141.8999  155.7796 H   0  0  0  0  0  0  0  0  0  0  0  0
  152.0411  139.4704  156.3776 H   0  0  0  0  0  0  0  0  0  0  0  0
  150.8246  139.1222  158.0559 H   0  0  0  0  0  0  0  0  0  0  0  0
  151.0680  140.0892  154.1669 H   0  0  0  0  0  0  0  0  0  0  0  0
  150.8258  138.4397  154.6408 H   0  0  0  0  0  0  0  0  0  0  0  0
  149.2023  139.2784  152.5527 H   0  0  0  0  0  0  0  0  0  0  0  0
  148.8252  137.8679  153.5169 H   0  0  0  0  0  0  0  0  0  0  0  0
  146.5602  138.7195  153.9980 H   0  0  0  0  0  0  0  0  0  0  0  0
  146.8438  137.4122  151.8829 H   0  0  0  0  0  0  0  0  0  0  0  0
  147.1891  138.9022  151.0057 H   0  0  0  0  0  0  0  0  0  0  0  0
  145.5958  138.6431  151.7119 H   0  0  0  0  0  0  0  0  0  0  0  0
  146.6822  140.8701  155.1145 H   0  0  0  0  0  0  0  0  0  0  0  0
  147.1494  143.3210  154.9436 H   0  0  0  0  0  0  0  0  0  0  0  0
  145.8110  142.8534  153.8985 H   0  0  0  0  0  0  0  0  0  0  0  0
  147.4030  143.1560  153.2065 H   0  0  0  0  0  0  0  0  0  0  0  0
  149.0453  141.5787  155.4031 H   0  0  0  0  0  0  0  0  0  0  0  0
  149.3124  141.4983  153.6754 H   0  0  0  0  0  0  0  0  0  0  0  0
  149.9203  143.9904  157.4924 H   0  0  0  0  0  0  0  0  0  0  0  0
  149.8386  145.8084  159.2045 H   0  0  0  0  0  0  0  0  0  0  0  0
  151.2323  145.6717  161.2593 H   0  0  0  0  0  0  0  0  0  0  0  0
  152.7379  143.7066  161.6440 H   0  0  0  0  0  0  0  0  0  0  0  0
  1  2  1  0  0  0  0
  1 25  1  0  0  0  0
  1 26  1  0  0  0  0
  1 27  1  0  0  0  0
  2  3  1  0  0  0  0
  2 28  1  0  0  0  0
  2 29  1  0  0  0  0
  3 24  1  0  0  0  0
  3  4  1  0  0  0  0
  4  5  2  0  0  0  0
  4  6  1  0  0  0  0
  6  7  1  0  0  0  0
  6 19  1  0  0  0  0
  7  8  1  0  0  0  0
  7 30  1  0  0  0  0
  7 31  1  0  0  0  0
  8  9  1  0  0  0  0
  8 10  1  0  0  0  0
  8 32  1  0  0  0  0
  9 33  1  0  0  0  0
 10 11  1  0  0  0  0
 10 34  1  0  0  0  0
 10 35  1  0  0  0  0
 11 18  1  0  0  0  0
 11 12  1  0  0  0  0
 12 13  1  0  0  0  0
 12 36  1  0  0  0  0
 12 37  1  0  0  0  0
 13 14  1  0  0  0  0
 13 15  1  0  0  0  0
 13 38  1  0  0  0  0
 14 39  1  0  0  0  0
 14 40  1  0  0  0  0
 14 41  1  0  0  0  0
 15 16  1  0  0  0  0
 16 17  1  0  0  0  0
 16 18  1  0  0  0  0
 16 42  1  0  0  0  0
 17 43  1  0  0  0  0
 17 44  1  0  0  0  0
 17 45  1  0  0  0  0
 18 46  1  0  0  0  0
 18 47  1  0  0  0  0
 19 24  2  0  0  0  0
 19 20  1  0  0  0  0
 20 21  2  0  0  0  0
 20 48  1  0  0  0  0
 21 22  1  0  0  0  0
 21 49  1  0  0  0  0
 22 23  2  0  0  0  0
 22 50  1  0  0  0  0
 23 24  1  0  0  0  0
 23 51  1  0  0  0  0
M  END
> <s_m_source_file>
AV-unprocessed.smi

> <i_m_source_file_index>
1570

> <i_lp_mmshare_version>
43012

> <i_f3d_flags>
0

> <s_epik_input>
W2NIXTFbY0hdW2NIXVtjSF1jKGMxMiluKFtDSDJdW0NIM10pYyg9TyluMltDSDJdW0NASF0oW09IXSlbQ0gyXU4zW0NIMl1bQ0BASF0oW0NIM10pT1tDQEBIXShbQ0gzXSlbQ0gyXTM=

> <s_epik_cmdline>
J2VwaWtfcHl0aG9uJywgJy1waCcsICc3LjAnLCAnLXRuJywgJzgnLCAnLW1hJywgJzIwMCcsICctbWV0YWxfYmluZGluZycsICctaW1hZScsICc8aW5maWxlLm1hZT4nLCAnLW9tYWUnLCAnPG91dGZpbGUubWFlPic=

> <r_epik_Ionization_Penalty>
0.214359

> <r_epik_Ionization_Penalty_Charging>
2.30976e-09

> <r_epik_Ionization_Penalty_Neutral>
0.214359

> <r_epik_State_Penalty>
0.204533

> <r_epik_Charging_Adjusted_Penalty>
0.204533

> <i_epik_Tot_Q>
0

> <i_epik_Tot_abs_Q>
0

> <r_epik_Metal_State_Penalty>
0.204533

> <b_epik_Metal_Only>
0

> <s_lp_Force_Field>
OPLS_2005

> <r_lp_Energy>
59.6928

> <b_lp_Chiralities_Consistent>
1

> <s_lp_Variant>
AV-unprocessed.smi:1570-2

> <Gold.Version>
5.8.1

> <Gold.Id.Protein>
6NUR|6NUR_protein|mol2

> <Gold.PLP.Fitness>
53.6006

> <Gold.PLP.PLP>
-52.1126

> <Gold.PLP.part.hbond>
-1.0000

> <Gold.PLP.part.metal>
0.0000

> <Gold.PLP.part.buried>
-1.8080

> <Gold.PLP.part.nonpolar>
-49.8197

> <Gold.PLP.part.repulsive>
0.2932

> <Gold.PLP.ligand.clash>
0.6394

> <Gold.PLP.ligand.torsion>
0.4906

> <Gold.PLP.Chemscore.Hbond>
1.0000

> <Gold.PLP.Chemscore.CHOScore>
0.0000

> <Gold.PLP.Chemscore.Metal>
0.0000

> <Gold.Chemscore.Hbonds>
donor molecule, donor type, donor heavy atom, donor atom, acceptor molecule, acceptor atom, score
      P1  H  7997  8010       L1     5  0.97

> <Gold.PLP.Chemscore.Internal.Correction>
0.1088

> <Gold.Rescore>
     Score         DG    S(hbond)    S(metal)    S(lipo)     H(rot)  DE(clash)    DE(int)     intcor
     17.07     -19.15       0.78        0.00     139.66       2.06       0.11       1.96       ----

> <Gold.Chemscore.Fitness>
17.0734

> <Gold.Chemscore.DG>
-19.1460

> <Gold.Chemscore.ZeroCoef>
-5.4800

> <Gold.Chemscore.Hbond>
0.7761

> <Gold.Chemscore.Metal>
0.0000

> <Gold.Chemscore.Lipo>
139.6645

> <Gold.Chemscore.Internal_Hbond>
0.0000

> <Gold.Chemscore.DEClash>
0.1129

> <Gold.Chemscore.DEInternal>
1.9596

> <Gold.Chemscore.Rot>
2.0574

> <Gold.Chemscore.Internal.Correction>
   9.000000E+99

> <Gold.Chemscore.Hbonds>
donor molecule, donor type, donor heavy atom, donor atom, acceptor molecule, acceptor atom, score
      P1  H  7997  8010       L1     5  0.68

> <Gold.Chemscore.Hbond.Weighted>
-2.5921

> <Gold.Chemscore.Metal.Weighted>
-0.0000

> <Gold.Chemscore.Lipo.Weighted>
-16.3407

> <Gold.Chemscore.Internal_Hbond.Weighted>
0.0000

> <Gold.Chemscore.DEClash.Weighted>
0.1129

> <Gold.Chemscore.DEInternal.Weighted>
1.9596

> <Gold.Chemscore.Rot.Weighted>
5.2669

> <Gold.Chemscore.Internal.Correction.Weighted>
   9.000000E+99

> <Gold.Protein.RotatedTorsions>
[ 6907 6896 6895 6894 ] final  -21.82 input  -60.11 | X-H torsion
[ 7974 7965 7964 7962 ] final  105.15 input  175.53 | X-H torsion
[ 8008 7997 7996 7995 ] final   22.63 input   59.86 | X-H torsion
[ 10167 10162 10161 10158 ] final  -79.67 input  -65.29 | X-H torsion
[ 10718 10713 10712 10709 ] final   61.61 input   66.30 | X-H torsion
[ 10763 10752 10751 10750 ] final   63.75 input  -60.55 | X-H torsion
[ 11005 11000 10999 10996 ] final   42.18 input  -57.11 | X-H torsion

> <Gold.Protein.ActiveResidues>
 VAL166  LYS551  ARG553  GLY616  TRP617  ASP618  TYR619  PRO620  LYS621  CYS622 
 ASP623  PHE694  ASN695  SER759  ASP760  ASP761  ALA762  ILE779  LEU786  VAL792 
 PHE793  MET794  SER795  GLU796  ALA797  LYS798  CYS799  TRP800  GLU811  SER814 

> <Gold.Protein.RotatedAtoms>
  151.2277  135.0543  159.8975 H   0  0  0  0  0  0  0  0  0  0  0  0  # atno 6907 bound_to 6896
  152.5408  134.0571  159.8146 H   0  0  0  0  0  0  0  0  0  0  0  0  # atno 6908 bound_to 6896
  151.0746  133.5390  159.2656 H   0  0  0  0  0  0  0  0  0  0  0  0  # atno 6909 bound_to 6896
  145.3234  139.2506  143.3700 H   0  0  0  0  0  0  0  0  0  0  0  0  # atno 7974 bound_to 7965
  154.9686  140.3087  155.4998 H   0  0  0  0  0  0  0  0  0  0  0  0  # atno 8008 bound_to 7997
  156.2968  140.2288  156.4716 H   0  0  0  0  0  0  0  0  0  0  0  0  # atno 8009 bound_to 7997
  154.7898  140.0440  157.1180 H   0  0  0  0  0  0  0  0  0  0  0  0  # atno 8010 bound_to 7997
  140.4573  143.2464  151.8401 H   0  0  0  0  0  0  0  0  0  0  0  0  # atno 10167 bound_to 10162
  157.5841  130.9004  149.9483 H   0  0  0  0  0  0  0  0  0  0  0  0  # atno 10718 bound_to 10713
  153.0029  135.5418  154.6402 H   0  0  0  0  0  0  0  0  0  0  0  0  # atno 10763 bound_to 10752
  154.5659  135.2837  155.0877 H   0  0  0  0  0  0  0  0  0  0  0  0  # atno 10764 bound_to 10752
  154.2061  135.6475  153.5154 H   0  0  0  0  0  0  0  0  0  0  0  0  # atno 10765 bound_to 10752
  140.1764  134.4158  155.8226 H   0  0  0  0  0  0  0  0  0  0  0  0  # atno 11005 bound_to 11000
  146.3073  140.3796  142.8682 LP  0  0  0  0  0  0  0  0  0  0  0  0  # atno 17320 bound_to 7965
  144.8921  140.7537  143.5920 LP  0  0  0  0  0  0  0  0  0  0  0  0  # atno 17321 bound_to 7965
  139.4802  144.5050  151.9010 LP  0  0  0  0  0  0  0  0  0  0  0  0  # atno 17342 bound_to 10162
  140.4136  144.2336  150.5888 LP  0  0  0  0  0  0  0  0  0  0  0  0  # atno 17343 bound_to 10162
  156.0888  130.3665  150.0434 LP  0  0  0  0  0  0  0  0  0  0  0  0  # atno 17370 bound_to 10713
  156.8569  130.9478  151.3621 LP  0  0  0  0  0  0  0  0  0  0  0  0  # atno 17371 bound_to 10713
  141.2220  133.6979  156.7853 LP  0  0  0  0  0  0  0  0  0  0  0  0  # atno 17394 bound_to 11000
  140.2318  134.8680  157.3484 LP  0  0  0  0  0  0  0  0  0  0  0  0  # atno 17395 bound_to 11000

$$$$
