AV-unprocessed.smi:1945|AV-procd|sdf|7858|dock6
  -GOLD-   2272010 03D 1   1.00000     0.00000
 Structure written by MMmdl.
 47 48  0  0  0  0  0  0  0  0  1 V2000
  150.9101  142.1199  156.4233 C   0  0  0  0  0  0  0  0  0  0  0  0
  150.6036  140.9764  155.5021 C   0  0  0  0  0  0  0  0  0  0  0  0
  149.5127  140.8498  154.5940 C   0  0  0  0  0  0  0  0  0  0  0  0
  149.7347  139.6249  154.0262 C   0  0  0  0  0  0  0  0  0  0  0  0
  148.9873  138.9698  153.0988 N   0  0  0  0  0  0  0  0  0  0  0  0
  147.6512  138.9765  152.9570 C   0  0  0  0  0  0  0  0  0  0  0  0
  146.8815  139.7507  153.5266 O   0  0  0  0  0  0  0  0  0  0  0  0
  147.2460  138.0149  152.1147 N   0  0  0  0  0  0  0  0  0  0  0  0
  145.8531  137.6492  151.8749 C   0  0  0  0  0  0  0  0  0  0  0  0
  145.4531  136.4227  152.7104 C   0  0  0  0  0  0  0  0  0  0  0  0
  146.1449  135.2888  152.2102 O   0  0  0  0  0  0  0  0  0  0  0  0
  145.6257  134.0254  152.6037 C   0  0  1  0  0  0  0  0  0  0  0  0
  144.1833  133.8418  152.0802 C   0  0  0  0  0  0  0  0  0  0  0  0
  144.1291  133.8218  150.5429 C   0  0  0  0  0  0  0  0  0  0  0  0
  145.0680  132.7538  149.9629 C   0  0  0  0  0  0  0  0  0  0  0  0
  146.5041  132.9271  150.4824 C   0  0  0  0  0  0  0  0  0  0  0  0
  146.5526  132.9331  152.0246 C   0  0  1  0  0  0  0  0  0  0  0  0
  147.9913  133.0597  152.5495 C   0  0  0  0  0  0  0  0  0  0  0  0
  150.8685  139.0751  154.5816 N   0  0  0  0  0  0  0  0  0  0  0  0
  151.4986  137.7963  154.3181 C   0  0  0  0  0  0  0  0  0  0  0  0
  151.4079  139.9191  155.4878 N   0  0  0  0  0  0  0  0  0  0  0  0
  150.1144  142.8647  156.4047 H   0  0  0  0  0  0  0  0  0  0  0  0
  151.8370  142.6169  156.1362 H   0  0  0  0  0  0  0  0  0  0  0  0
  151.0190  141.7778  157.4528 H   0  0  0  0  0  0  0  0  0  0  0  0
  148.7091  141.5473  154.4107 H   0  0  0  0  0  0  0  0  0  0  0  0
  149.4995  138.3449  152.4941 H   0  0  0  0  0  0  0  0  0  0  0  0
  147.9484  137.4378  151.6763 H   0  0  0  0  0  0  0  0  0  0  0  0
  145.1871  138.4896  152.0782 H   0  0  0  0  0  0  0  0  0  0  0  0
  145.7460  137.4184  150.8150 H   0  0  0  0  0  0  0  0  0  0  0  0
  145.7220  136.5754  153.7562 H   0  0  0  0  0  0  0  0  0  0  0  0
  144.3726  136.2862  152.6700 H   0  0  0  0  0  0  0  0  0  0  0  0
  145.6336  133.9518  153.6926 H   0  0  0  0  0  0  0  0  0  0  0  0
  143.7837  132.9016  152.4617 H   0  0  0  0  0  0  0  0  0  0  0  0
  143.5239  134.6197  152.4627 H   0  0  0  0  0  0  0  0  0  0  0  0
  143.1076  133.6374  150.2094 H   0  0  0  0  0  0  0  0  0  0  0  0
  144.4056  134.8006  150.1525 H   0  0  0  0  0  0  0  0  0  0  0  0
  144.7013  131.7623  150.2306 H   0  0  0  0  0  0  0  0  0  0  0  0
  145.0587  132.8042  148.8736 H   0  0  0  0  0  0  0  0  0  0  0  0
  147.1301  132.1239  150.0925 H   0  0  0  0  0  0  0  0  0  0  0  0
  146.9217  133.8565  150.0930 H   0  0  0  0  0  0  0  0  0  0  0  0
  146.1752  131.9685  152.3674 H   0  0  0  0  0  0  0  0  0  0  0  0
  148.4527  133.9942  152.2286 H   0  0  0  0  0  0  0  0  0  0  0  0
  148.6142  132.2419  152.1865 H   0  0  0  0  0  0  0  0  0  0  0  0
  148.0153  133.0337  153.6393 H   0  0  0  0  0  0  0  0  0  0  0  0
  150.7439  137.0098  154.2962 H   0  0  0  0  0  0  0  0  0  0  0  0
  152.2269  137.5611  155.0955 H   0  0  0  0  0  0  0  0  0  0  0  0
  152.0063  137.8318  153.3540 H   0  0  0  0  0  0  0  0  0  0  0  0
  1  2  1  0  0  0  0
  1 22  1  0  0  0  0
  1 23  1  0  0  0  0
  1 24  1  0  0  0  0
  2 21  2  0  0  0  0
  2  3  1  0  0  0  0
  3  4  2  0  0  0  0
  3 25  1  0  0  0  0
  4  5  1  0  0  0  0
  4 19  1  0  0  0  0
  5  6  1  0  0  0  0
  5 26  1  0  0  0  0
  6  7  2  0  0  0  0
  6  8  1  0  0  0  0
  8  9  1  0  0  0  0
  8 27  1  0  0  0  0
  9 10  1  0  0  0  0
  9 28  1  0  0  0  0
  9 29  1  0  0  0  0
 10 11  1  0  0  0  0
 10 30  1  0  0  0  0
 10 31  1  0  0  0  0
 11 12  1  0  0  0  0
 12 17  1  0  0  0  0
 12 13  1  0  0  0  0
 12 32  1  0  0  0  0
 13 14  1  0  0  0  0
 13 33  1  0  0  0  0
 13 34  1  0  0  0  0
 14 15  1  0  0  0  0
 14 35  1  0  0  0  0
 14 36  1  0  0  0  0
 15 16  1  0  0  0  0
 15 37  1  0  0  0  0
 15 38  1  0  0  0  0
 16 17  1  0  0  0  0
 16 39  1  0  0  0  0
 16 40  1  0  0  0  0
 17 18  1  0  0  0  0
 17 41  1  0  0  0  0
 18 42  1  0  0  0  0
 18 43  1  0  0  0  0
 18 44  1  0  0  0  0
 19 20  1  0  0  0  0
 19 21  1  0  0  0  0
 20 45  1  0  0  0  0
 20 46  1  0  0  0  0
 20 47  1  0  0  0  0
M  END
> <s_m_source_file>
AV-unprocessed.smi

> <i_m_source_file_index>
1945

> <i_lp_mmshare_version>
43012

> <i_f3d_flags>
0

> <s_epik_input>
W0NIM11jMVtjSF1jKG4objEpW0NIM10pW05IXUMoPU8pW05IXVtDSDJdW0NIMl1PW0NAQEhdMltDSDJdW0NIMl1bQ0gyXVtDSDJdW0NASF0yW0NIM10=

> <s_epik_cmdline>
J2VwaWtfcHl0aG9uJywgJy1waCcsICc3LjAnLCAnLXRuJywgJzgnLCAnLW1hJywgJzIwMCcsICctbWV0YWxfYmluZGluZycsICctaW1hZScsICc8aW5maWxlLm1hZT4nLCAnLW9tYWUnLCAnPG91dGZpbGUubWFlPic=

> <r_lp_tautomer_probability>
1

> <r_epik_Ionization_Penalty>
9.47735e-05

> <r_epik_Ionization_Penalty_Charging>
0

> <r_epik_Ionization_Penalty_Neutral>
9.47735e-05

> <r_epik_State_Penalty>
-0

> <r_epik_Charging_Adjusted_Penalty>
0

> <i_epik_Tot_Q>
0

> <i_epik_Tot_abs_Q>
0

> <r_epik_Metal_State_Penalty>
-0

> <b_epik_Metal_Only>
0

> <s_lp_Force_Field>
OPLS_2005

> <r_lp_Energy>
11.3834

> <b_lp_Chiralities_Consistent>
1

> <s_lp_Variant>
AV-unprocessed.smi:1945-2

> <Gold.Version>
5.8.1

> <Gold.Id.Protein>
6NUR|6NUR_protein|mol2

> <Gold.PLP.Fitness>
43.2077

> <Gold.PLP.PLP>
-40.1788

> <Gold.PLP.part.hbond>
-2.8899

> <Gold.PLP.part.metal>
0.0000

> <Gold.PLP.part.buried>
-0.6899

> <Gold.PLP.part.nonpolar>
-37.0902

> <Gold.PLP.part.repulsive>
1.2290

> <Gold.PLP.ligand.clash>
0.0000

> <Gold.PLP.ligand.torsion>
0.5023

> <Gold.PLP.Chemscore.Hbond>
1.3328

> <Gold.PLP.Chemscore.CHOScore>
0.0000

> <Gold.PLP.Chemscore.Metal>
0.0000

> <Gold.Chemscore.Hbonds>
donor molecule, donor type, donor heavy atom, donor atom, acceptor molecule, acceptor atom, score
      L1  H     5    26       P1  7948  0.31
      L1  H     8    27       P1  7948  0.96

> <Gold.PLP.Chemscore.Internal.Correction>
0.0352

> <Gold.Rescore>
     Score         DG    S(hbond)    S(metal)    S(lipo)     H(rot)  DE(clash)    DE(int)     intcor
     15.14     -16.45       1.62        0.00      83.19       1.63       0.02       1.30       ----

> <Gold.Chemscore.Fitness>
15.1353

> <Gold.Chemscore.DG>
-16.4499

> <Gold.Chemscore.ZeroCoef>
-5.4800

> <Gold.Chemscore.Hbond>
1.6208

> <Gold.Chemscore.Metal>
0.0000

> <Gold.Chemscore.Lipo>
83.1910

> <Gold.Chemscore.Internal_Hbond>
0.0000

> <Gold.Chemscore.DEClash>
0.0163

> <Gold.Chemscore.DEInternal>
1.2983

> <Gold.Chemscore.Rot>
1.6316

> <Gold.Chemscore.Internal.Correction>
   9.000000E+99

> <Gold.Chemscore.Hbonds>
donor molecule, donor type, donor heavy atom, donor atom, acceptor molecule, acceptor atom, score
      L1  H     5    26       P1  7948  0.22
      L1  H     8    27       P1  7948  0.87

> <Gold.Chemscore.Hbond.Weighted>
-5.4134

> <Gold.Chemscore.Metal.Weighted>
-0.0000

> <Gold.Chemscore.Lipo.Weighted>
-9.7333

> <Gold.Chemscore.Internal_Hbond.Weighted>
0.0000

> <Gold.Chemscore.DEClash.Weighted>
0.0163

> <Gold.Chemscore.DEInternal.Weighted>
1.2983

> <Gold.Chemscore.Rot.Weighted>
4.1768

> <Gold.Chemscore.Internal.Correction.Weighted>
   9.000000E+99

> <Gold.Protein.RotatedTorsions>
[ 6907 6896 6895 6894 ] final  -57.24 input  -60.11 | X-H torsion
[ 7974 7965 7964 7962 ] final  165.27 input  175.53 | X-H torsion
[ 8008 7997 7996 7995 ] final  110.08 input   59.86 | X-H torsion
[ 10167 10162 10161 10158 ] final  162.22 input  -65.29 | X-H torsion
[ 10718 10713 10712 10709 ] final  -21.84 input   66.30 | X-H torsion
[ 10763 10752 10751 10750 ] final -148.75 input  -60.55 | X-H torsion
[ 11005 11000 10999 10996 ] final  167.55 input  -57.11 | X-H torsion

> <Gold.Protein.ActiveResidues>
 VAL166  LYS551  ARG553  GLY616  TRP617  ASP618  TYR619  PRO620  LYS621  CYS622 
 ASP623  PHE694  ASN695  SER759  ASP760  ASP761  ALA762  ILE779  LEU786  VAL792 
 PHE793  MET794  SER795  GLU796  ALA797  LYS798  CYS799  TRP800  GLU811  SER814 

> <Gold.Protein.RotatedAtoms>
  150.8102  134.7252  159.6680 H   0  0  0  0  0  0  0  0  0  0  0  0  # atno 6907 bound_to 6896
  152.4222  134.5931  159.9989 H   0  0  0  0  0  0  0  0  0  0  0  0  # atno 6908 bound_to 6896
  151.6143  133.3307  159.3110 H   0  0  0  0  0  0  0  0  0  0  0  0  # atno 6909 bound_to 6896
  144.7510  139.8446  143.6366 H   0  0  0  0  0  0  0  0  0  0  0  0  # atno 7974 bound_to 7965
  156.2027  140.3045  155.9560 H   0  0  0  0  0  0  0  0  0  0  0  0  # atno 8008 bound_to 7997
  155.2916  140.0442  157.3040 H   0  0  0  0  0  0  0  0  0  0  0  0  # atno 8009 bound_to 7997
  154.5591  140.2315  155.8372 H   0  0  0  0  0  0  0  0  0  0  0  0  # atno 8010 bound_to 7997
  139.4858  144.4459  151.8892 H   0  0  0  0  0  0  0  0  0  0  0  0  # atno 10167 bound_to 10162
  156.5127  130.4614  149.6639 H   0  0  0  0  0  0  0  0  0  0  0  0  # atno 10718 bound_to 10713
  154.8215  135.3326  154.7023 H   0  0  0  0  0  0  0  0  0  0  0  0  # atno 10763 bound_to 10752
  153.7655  135.6929  153.4921 H   0  0  0  0  0  0  0  0  0  0  0  0  # atno 10764 bound_to 10752
  153.2081  135.4492  155.0296 H   0  0  0  0  0  0  0  0  0  0  0  0  # atno 10765 bound_to 10752
  140.2780  134.7773  157.3733 H   0  0  0  0  0  0  0  0  0  0  0  0  # atno 11005 bound_to 11000
  146.1459  139.4528  143.0079 LP  0  0  0  0  0  0  0  0  0  0  0  0  # atno 17320 bound_to 7965
  145.6946  141.0154  143.1537 LP  0  0  0  0  0  0  0  0  0  0  0  0  # atno 17321 bound_to 7965
  140.3913  144.2611  150.5899 LP  0  0  0  0  0  0  0  0  0  0  0  0  # atno 17342 bound_to 10162
  140.5143  143.2282  151.8487 LP  0  0  0  0  0  0  0  0  0  0  0  0  # atno 17343 bound_to 10162
  156.3225  130.7288  151.2202 LP  0  0  0  0  0  0  0  0  0  0  0  0  # atno 17370 bound_to 10713
  157.7448  131.0452  150.4830 LP  0  0  0  0  0  0  0  0  0  0  0  0  # atno 17371 bound_to 10713
  140.1310  134.5095  155.8105 LP  0  0  0  0  0  0  0  0  0  0  0  0  # atno 17394 bound_to 11000
  141.2167  133.6790  156.7040 LP  0  0  0  0  0  0  0  0  0  0  0  0  # atno 17395 bound_to 11000

$$$$
