AV-unprocessed.smi:2520|AV-procd|sdf|9913|dock2
  -GOLD-   2272013553D 1   1.00000     0.00000
 Structure written by MMmdl.
 41 44  0  0  0  0  0  0  0  0  1 V2000
  155.5208  139.1916  159.1228 O   0  0  0  0  0  0  0  0  0  0  0  0
  154.3518  138.9892  159.4462 C   0  0  0  0  0  0  0  0  0  0  0  0
  153.8836  137.7359  159.6284 N   0  0  0  0  0  0  0  0  0  0  0  0
  154.5240  136.4667  159.5141 C   0  0  0  0  0  0  0  0  0  0  0  0
  155.9327  136.5051  159.5944 C   0  0  0  0  0  0  0  0  0  0  0  0
  156.6423  135.2959  159.4987 C   0  0  0  0  0  0  0  0  0  0  0  0
  155.8913  134.1203  159.3306 C   0  0  0  0  0  0  0  0  0  0  0  0
  154.5429  134.1267  159.2610 N   0  0  0  0  0  0  0  0  0  0  0  0
  153.8761  135.2818  159.3535 N   0  0  0  0  0  0  0  0  0  0  0  0
  153.4715  139.9830  159.6372 N   0  0  0  0  0  0  0  0  0  0  0  0
  153.7726  141.4128  159.5225 C   0  0  2  0  0  0  0  0  0  0  0  0
  153.8823  142.1325  160.8702 C   0  0  2  0  0  0  0  0  0  0  0  0
  154.1337  141.7196  162.2758 C   0  0  0  0  0  0  0  0  0  0  0  0
  153.0703  142.6315  162.9423 C   0  0  0  0  0  0  0  0  0  0  0  0
  152.2811  143.1823  161.8574 O   0  0  0  0  0  0  0  0  0  0  0  0
  152.3697  142.2076  160.8358 C   0  0  1  0  0  0  0  0  0  0  0  0
  152.5052  142.3250  159.2988 C   0  0  0  0  0  0  0  0  0  0  0  0
  152.7224  143.7398  158.7240 C   0  0  0  0  0  0  0  0  0  0  0  0
  151.7995  143.9159  157.5172 C   0  0  0  0  0  0  0  0  0  0  0  0
  150.6696  142.9258  157.7576 C   0  0  0  0  0  0  0  0  0  0  0  0
  151.3583  141.7556  158.4535 C   0  0  0  0  0  0  0  0  0  0  0  0
  152.8995  137.6869  159.8482 H   0  0  0  0  0  0  0  0  0  0  0  0
  156.4610  137.4383  159.7259 H   0  0  0  0  0  0  0  0  0  0  0  0
  157.7205  135.2705  159.5529 H   0  0  0  0  0  0  0  0  0  0  0  0
  156.3777  133.1593  159.2508 H   0  0  0  0  0  0  0  0  0  0  0  0
  152.5276  139.7345  159.8979 H   0  0  0  0  0  0  0  0  0  0  0  0
  154.5908  141.6370  158.8365 H   0  0  0  0  0  0  0  0  0  0  0  0
  154.3487  143.1078  160.6968 H   0  0  0  0  0  0  0  0  0  0  0  0
  153.9244  140.6619  162.4400 H   0  0  0  0  0  0  0  0  0  0  0  0
  155.1478  141.9411  162.6088 H   0  0  0  0  0  0  0  0  0  0  0  0
  152.4370  142.0572  163.6195 H   0  0  0  0  0  0  0  0  0  0  0  0
  153.5267  143.4421  163.5109 H   0  0  0  0  0  0  0  0  0  0  0  0
  151.8642  141.2867  161.1447 H   0  0  0  0  0  0  0  0  0  0  0  0
  152.4727  144.4917  159.4739 H   0  0  0  0  0  0  0  0  0  0  0  0
  153.7603  143.9171  158.4404 H   0  0  0  0  0  0  0  0  0  0  0  0
  151.4454  144.9407  157.4021 H   0  0  0  0  0  0  0  0  0  0  0  0
  152.3338  143.6436  156.6061 H   0  0  0  0  0  0  0  0  0  0  0  0
  149.9290  143.3677  158.4255 H   0  0  0  0  0  0  0  0  0  0  0  0
  150.1615  142.6318  156.8387 H   0  0  0  0  0  0  0  0  0  0  0  0
  151.7550  141.0783  157.6958 H   0  0  0  0  0  0  0  0  0  0  0  0
  150.6479  141.1797  159.0476 H   0  0  0  0  0  0  0  0  0  0  0  0
  1  2  2  0  0  0  0
  2  3  1  0  0  0  0
  2 10  1  0  0  0  0
  3  4  1  0  0  0  0
  3 22  1  0  0  0  0
  4  9  1  0  0  0  0
  4  5  2  0  0  0  0
  5  6  1  0  0  0  0
  5 23  1  0  0  0  0
  6  7  2  0  0  0  0
  6 24  1  0  0  0  0
  7  8  1  0  0  0  0
  7 25  1  0  0  0  0
  8  9  2  0  0  0  0
 10 11  1  0  0  0  0
 10 26  1  0  0  0  0
 11 17  1  0  0  0  0
 11 12  1  0  0  0  0
 11 27  1  0  0  0  0
 12 16  1  0  0  0  0
 12 13  1  0  0  0  0
 12 28  1  0  0  0  0
 13 14  1  0  0  0  0
 13 29  1  0  0  0  0
 13 30  1  0  0  0  0
 14 15  1  0  0  0  0
 14 31  1  0  0  0  0
 14 32  1  0  0  0  0
 15 16  1  0  0  0  0
 16 17  1  0  0  0  0
 16 33  1  0  0  0  0
 17 21  1  0  0  0  0
 17 18  1  0  0  0  0
 18 19  1  0  0  0  0
 18 34  1  0  0  0  0
 18 35  1  0  0  0  0
 19 20  1  0  0  0  0
 19 36  1  0  0  0  0
 19 37  1  0  0  0  0
 20 21  1  0  0  0  0
 20 38  1  0  0  0  0
 20 39  1  0  0  0  0
 21 40  1  0  0  0  0
 21 41  1  0  0  0  0
M  END
> <s_m_source_file>
AV-unprocessed.smi

> <i_m_source_file_index>
2520

> <i_lp_mmshare_version>
43012

> <i_f3d_flags>
0

> <s_epik_input>
bjFuW2NIXVtjSF1bY0hdYzFbTkhdQyg9TylbTkhdW0NAQEhdMltDQEBIXShbQ0gyXVtDSDJdTzMpW0NASF0zQzI0W0NIMl1bQ0gyXVtDSDJdW0NIMl00

> <s_epik_cmdline>
J2VwaWtfcHl0aG9uJywgJy1waCcsICc3LjAnLCAnLXRuJywgJzgnLCAnLW1hJywgJzIwMCcsICctbWV0YWxfYmluZGluZycsICctaW1hZScsICc8aW5maWxlLm1hZT4nLCAnLW9tYWUnLCAnPG91dGZpbGUubWFlPic=

> <r_lp_tautomer_probability>
1

> <r_epik_Ionization_Penalty>
0.00552561

> <r_epik_Ionization_Penalty_Charging>
0

> <r_epik_Ionization_Penalty_Neutral>
0.00552561

> <r_epik_State_Penalty>
-0

> <r_epik_Charging_Adjusted_Penalty>
0

> <i_epik_Tot_Q>
0

> <i_epik_Tot_abs_Q>
0

> <r_epik_Metal_State_Penalty>
-0

> <b_epik_Metal_Only>
0

> <s_lp_Force_Field>
OPLS_2005

> <r_lp_Energy>
86.2541

> <b_lp_Chiralities_Consistent>
1

> <s_lp_Variant>
AV-unprocessed.smi:2520-7

> <Gold.Version>
5.8.1

> <Gold.Id.Protein>
6NUR|6NUR_protein|mol2

> <Gold.PLP.Fitness>
40.7622

> <Gold.PLP.PLP>
-35.2850

> <Gold.PLP.part.hbond>
-2.7693

> <Gold.PLP.part.metal>
0.0000

> <Gold.PLP.part.buried>
-2.7790

> <Gold.PLP.part.nonpolar>
-30.0262

> <Gold.PLP.part.repulsive>
0.2938

> <Gold.PLP.ligand.clash>
0.0000

> <Gold.PLP.ligand.torsion>
0.3229

> <Gold.PLP.Chemscore.Hbond>
1.9500

> <Gold.PLP.Chemscore.CHOScore>
0.0000

> <Gold.PLP.Chemscore.Metal>
0.0000

> <Gold.Chemscore.Hbonds>
donor molecule, donor type, donor heavy atom, donor atom, acceptor molecule, acceptor atom, score
      P1  H  6896  6907       L1     9  0.85
      P1  H  7997  8009       L1     1  1.00

> <Gold.PLP.Chemscore.Internal.Correction>
0.2731

> <Gold.Rescore>
     Score         DG    S(hbond)    S(metal)    S(lipo)     H(rot)  DE(clash)    DE(int)     intcor
     18.67     -20.46       1.71        0.00     101.23       1.00       0.04       1.75       ----

> <Gold.Chemscore.Fitness>
18.6714

> <Gold.Chemscore.DG>
-20.4585

> <Gold.Chemscore.ZeroCoef>
-5.4800

> <Gold.Chemscore.Hbond>
1.7051

> <Gold.Chemscore.Metal>
0.0000

> <Gold.Chemscore.Lipo>
101.2278

> <Gold.Chemscore.Internal_Hbond>
0.0000

> <Gold.Chemscore.DEClash>
0.0383

> <Gold.Chemscore.DEInternal>
1.7489

> <Gold.Chemscore.Rot>
1.0000

> <Gold.Chemscore.Internal.Correction>
   9.000000E+99

> <Gold.Chemscore.Hbonds>
donor molecule, donor type, donor heavy atom, donor atom, acceptor molecule, acceptor atom, score
      P1  H  6896  6907       L1     9  0.14
      P1  H  7997  8009       L1     1  0.39

> <Gold.Chemscore.Hbond.Weighted>
-5.6949

> <Gold.Chemscore.Metal.Weighted>
-0.0000

> <Gold.Chemscore.Lipo.Weighted>
-11.8437

> <Gold.Chemscore.Internal_Hbond.Weighted>
0.0000

> <Gold.Chemscore.DEClash.Weighted>
0.0383

> <Gold.Chemscore.DEInternal.Weighted>
1.7489

> <Gold.Chemscore.Rot.Weighted>
2.5600

> <Gold.Chemscore.Internal.Correction.Weighted>
   9.000000E+99

> <Gold.Protein.RotatedTorsions>
[ 6907 6896 6895 6894 ] final   59.88 input  -60.11 | X-H torsion
[ 7974 7965 7964 7962 ] final  -81.77 input  175.53 | X-H torsion
[ 8008 7997 7996 7995 ] final  107.70 input   59.86 | X-H torsion
[ 10167 10162 10161 10158 ] final  118.13 input  -65.29 | X-H torsion
[ 10718 10713 10712 10709 ] final  176.76 input   66.30 | X-H torsion
[ 10763 10752 10751 10750 ] final   34.41 input  -60.55 | X-H torsion
[ 11005 11000 10999 10996 ] final   78.26 input  -57.11 | X-H torsion

> <Gold.Protein.ActiveResidues>
 VAL166  LYS551  ARG553  GLY616  TRP617  ASP618  TYR619  PRO620  LYS621  CYS622 
 ASP623  PHE694  ASN695  SER759  ASP760  ASP761  ALA762  ILE779  LEU786  VAL792 
 PHE793  MET794  SER795  GLU796  ALA797  LYS798  CYS799  TRP800  GLU811  SER814 

> <Gold.Protein.RotatedAtoms>
  152.3953  134.6374  160.0091 H   0  0  0  0  0  0  0  0  0  0  0  0  # atno 6907 bound_to 6896
  151.6596  133.3312  159.3179 H   0  0  0  0  0  0  0  0  0  0  0  0  # atno 6908 bound_to 6896
  150.7862  134.6892  159.6532 H   0  0  0  0  0  0  0  0  0  0  0  0  # atno 6909 bound_to 6896
  145.5422  140.9508  143.1545 H   0  0  0  0  0  0  0  0  0  0  0  0  # atno 7974 bound_to 7965
  156.1845  140.3090  155.9212 H   0  0  0  0  0  0  0  0  0  0  0  0  # atno 8008 bound_to 7997
  155.3311  140.0461  157.3059 H   0  0  0  0  0  0  0  0  0  0  0  0  # atno 8009 bound_to 7997
  154.5380  140.2252  155.8699 H   0  0  0  0  0  0  0  0  0  0  0  0  # atno 8010 bound_to 7997
  139.6132  144.7086  151.2798 H   0  0  0  0  0  0  0  0  0  0  0  0  # atno 10167 bound_to 10162
  156.9153  130.9923  151.3014 H   0  0  0  0  0  0  0  0  0  0  0  0  # atno 10718 bound_to 10713
  153.0165  135.6361  154.1664 H   0  0  0  0  0  0  0  0  0  0  0  0  # atno 10763 bound_to 10752
  154.1403  135.2835  155.3164 H   0  0  0  0  0  0  0  0  0  0  0  0  # atno 10764 bound_to 10752
  154.6129  135.5550  153.7554 H   0  0  0  0  0  0  0  0  0  0  0  0  # atno 10765 bound_to 10752
  139.9220  134.7749  156.1627 H   0  0  0  0  0  0  0  0  0  0  0  0  # atno 11005 bound_to 11000
  144.7571  139.7047  143.7249 LP  0  0  0  0  0  0  0  0  0  0  0  0  # atno 17320 bound_to 7965
  146.1973  139.5247  142.9766 LP  0  0  0  0  0  0  0  0  0  0  0  0  # atno 17321 bound_to 7965
  140.7333  143.6798  150.8010 LP  0  0  0  0  0  0  0  0  0  0  0  0  # atno 17342 bound_to 10162
  140.0397  143.5359  152.2723 LP  0  0  0  0  0  0  0  0  0  0  0  0  # atno 17343 bound_to 10162
  157.5942  130.8465  149.8704 LP  0  0  0  0  0  0  0  0  0  0  0  0  # atno 17370 bound_to 10713
  156.0516  130.3716  150.1187 LP  0  0  0  0  0  0  0  0  0  0  0  0  # atno 17371 bound_to 10713
  141.0748  133.6780  156.2214 LP  0  0  0  0  0  0  0  0  0  0  0  0  # atno 17394 bound_to 11000
  140.6446  134.5130  157.5572 LP  0  0  0  0  0  0  0  0  0  0  0  0  # atno 17395 bound_to 11000

$$$$
