AV-unprocessed.smi:2237|AV-procd|sdf|9052|dock3
  -GOLD-   2272012253D 1   1.00000     0.00000
 Structure written by MMmdl.
 54 56  0  0  0  0  0  0  0  0  2 V2000
  151.1545  131.3003  157.1284 C   0  0  0  0  0  0  0  0  0  0  0  0
  150.3969  131.7732  155.9054 C   0  0  0  0  0  0  0  0  0  0  0  0
  149.7759  130.8537  155.0374 C   0  0  0  0  0  0  0  0  0  0  0  0
  149.0876  131.3583  153.9197 C   0  0  0  0  0  0  0  0  0  0  0  0
  149.0493  132.7513  153.7170 C   0  0  0  0  0  0  0  0  0  0  0  0
  149.7009  133.6055  154.6351 C   0  0  0  0  0  0  0  0  0  0  0  0
  149.6016  134.9919  154.3429 N   0  0  0  0  0  0  0  0  0  0  0  0
  150.0752  136.0276  155.0581 C   0  0  0  0  0  0  0  0  0  0  0  0
  150.7127  135.9388  156.1080 O   0  0  0  0  0  0  0  0  0  0  0  0
  149.7690  137.1980  154.4789 N   0  0  0  0  0  0  0  0  0  0  0  0
  150.1278  138.5128  155.0025 C   0  0  2  0  0  0  0  0  0  0  0  0
  151.6518  138.6853  154.9805 C   0  0  0  0  0  0  0  0  0  0  0  0
  152.0794  140.0243  155.6061 C   0  0  0  0  0  0  0  0  0  0  0  0
  151.5673  140.1743  156.9999 N   0  3  1  0  0  0  0  0  0  0  0  0
  152.0324  141.4021  157.7249 C   0  0  0  0  0  0  0  0  0  0  0  0
  151.8055  141.3620  159.2559 C   0  0  0  0  0  0  0  0  0  0  0  0
  152.2052  142.6861  159.9299 C   0  0  0  0  0  0  0  0  0  0  0  0
  151.4311  143.7899  159.3674 N   0  0  0  0  0  0  0  0  0  0  0  0
  151.7745  145.0231  160.0616 C   0  0  0  0  0  0  0  0  0  0  0  0
  151.7397  143.9320  157.9467 C   0  0  0  0  0  0  0  0  0  0  0  0
  151.3191  142.6633  157.1854 C   0  0  0  0  0  0  0  0  0  0  0  0
  150.0830  140.0311  157.0297 C   0  0  0  0  0  0  0  0  0  0  0  0
  149.6249  138.6861  156.4438 C   0  0  0  0  0  0  0  0  0  0  0  0
  150.3622  133.1091  155.7100 N   0  0  0  0  0  0  0  0  0  0  0  0
  150.9512  130.2495  157.3360 H   0  0  0  0  0  0  0  0  0  0  0  0
  150.8661  131.8805  158.0057 H   0  0  0  0  0  0  0  0  0  0  0  0
  152.2275  131.4182  156.9756 H   0  0  0  0  0  0  0  0  0  0  0  0
  149.8244  129.7903  155.2207 H   0  0  0  0  0  0  0  0  0  0  0  0
  148.5967  130.6891  153.2287 H   0  0  0  0  0  0  0  0  0  0  0  0
  148.5239  133.1545  152.8634 H   0  0  0  0  0  0  0  0  0  0  0  0
  149.1061  135.2206  153.4940 H   0  0  0  0  0  0  0  0  0  0  0  0
  149.2447  137.1776  153.6161 H   0  0  0  0  0  0  0  0  0  0  0  0
  149.6842  139.2855  154.3710 H   0  0  0  0  0  0  0  0  0  0  0  0
  152.1253  137.8668  155.5250 H   0  0  0  0  0  0  0  0  0  0  0  0
  152.0188  138.6261  153.9550 H   0  0  0  0  0  0  0  0  0  0  0  0
  153.1681  140.0426  155.5867 H   0  0  0  0  0  0  0  0  0  0  0  0
  151.7298  140.8583  154.9953 H   0  0  0  0  0  0  0  0  0  0  0  0
  153.1063  141.5051  157.5592 H   0  0  0  0  0  0  0  0  0  0  0  0
  150.7590  141.1463  159.4771 H   0  0  0  0  0  0  0  0  0  0  0  0
  152.3981  140.5696  159.7135 H   0  0  0  0  0  0  0  0  0  0  0  0
  152.0151  142.6183  161.0020 H   0  0  0  0  0  0  0  0  0  0  0  0
  153.2739  142.8695  159.8051 H   0  0  0  0  0  0  0  0  0  0  0  0
  151.1990  145.8593  159.6632 H   0  0  0  0  0  0  0  0  0  0  0  0
  152.8348  145.2583  159.9581 H   0  0  0  0  0  0  0  0  0  0  0  0
  151.5449  144.9405  161.1246 H   0  0  0  0  0  0  0  0  0  0  0  0
  151.2027  144.7913  157.5428 H   0  0  0  0  0  0  0  0  0  0  0  0
  152.8049  144.1245  157.8062 H   0  0  0  0  0  0  0  0  0  0  0  0
  151.5347  142.8206  156.1300 H   0  0  0  0  0  0  0  0  0  0  0  0
  150.2377  142.5374  157.2609 H   0  0  0  0  0  0  0  0  0  0  0  0
  149.7027  140.1014  158.0467 H   0  0  0  0  0  0  0  0  0  0  0  0
  149.6285  140.8515  156.4716 H   0  0  0  0  0  0  0  0  0  0  0  0
  148.5359  138.6293  156.4716 H   0  0  0  0  0  0  0  0  0  0  0  0
  149.9931  137.8716  157.0696 H   0  0  0  0  0  0  0  0  0  0  0  0
  151.9460  139.3911  157.5132 H   0  0  0  0  0  0  0  0  0  0  0  0
  1  2  1  0  0  0  0
  1 25  1  0  0  0  0
  1 26  1  0  0  0  0
  1 27  1  0  0  0  0
  2 24  1  0  0  0  0
  2  3  2  0  0  0  0
  3  4  1  0  0  0  0
  3 28  1  0  0  0  0
  4  5  2  0  0  0  0
  4 29  1  0  0  0  0
  5  6  1  0  0  0  0
  5 30  1  0  0  0  0
  6  7  1  0  0  0  0
  6 24  2  0  0  0  0
  7  8  1  0  0  0  0
  7 31  1  0  0  0  0
  8  9  2  0  0  0  0
  8 10  1  0  0  0  0
 10 11  1  0  0  0  0
 10 32  1  0  0  0  0
 11 23  1  0  0  0  0
 11 12  1  0  0  0  0
 11 33  1  0  0  0  0
 12 13  1  0  0  0  0
 12 34  1  0  0  0  0
 12 35  1  0  0  0  0
 13 14  1  0  0  0  0
 13 36  1  0  0  0  0
 13 37  1  0  0  0  0
 14 15  1  0  0  0  0
 14 22  1  0  0  0  0
 14 54  1  0  0  0  0
 15 21  1  0  0  0  0
 15 16  1  0  0  0  0
 15 38  1  0  0  0  0
 16 17  1  0  0  0  0
 16 39  1  0  0  0  0
 16 40  1  0  0  0  0
 17 18  1  0  0  0  0
 17 41  1  0  0  0  0
 17 42  1  0  0  0  0
 18 19  1  0  0  0  0
 18 20  1  0  0  0  0
 19 43  1  0  0  0  0
 19 44  1  0  0  0  0
 19 45  1  0  0  0  0
 20 21  1  0  0  0  0
 20 46  1  0  0  0  0
 20 47  1  0  0  0  0
 21 48  1  0  0  0  0
 21 49  1  0  0  0  0
 22 23  1  0  0  0  0
 22 50  1  0  0  0  0
 22 51  1  0  0  0  0
 23 52  1  0  0  0  0
 23 53  1  0  0  0  0
M  CHG  1  14   1
M  END
> <s_m_source_file>
AV-unprocessed.smi

> <i_m_source_file_index>
2237

> <i_lp_mmshare_version>
43012

> <i_f3d_flags>
0

> <s_epik_input>
W0NIM11jMVtjSF1bY0hdW2NIXWMobjEpW05IXUMoPU8pW05IXVtDSF0yW0NIMl1bQ0gyXU4oW0NIMl1bQ0gyXTIpW0NIXTNbQ0gyXVtDSDJdTihbQ0gzXSlbQ0gyXVtDSDJdMw==

> <s_epik_cmdline>
J2VwaWtfcHl0aG9uJywgJy1waCcsICc3LjAnLCAnLXRuJywgJzgnLCAnLW1hJywgJzIwMCcsICctbWV0YWxfYmluZGluZycsICctaW1hZScsICc8aW5maWxlLm1hZT4nLCAnLW9tYWUnLCAnPG91dGZpbGUubWFlPic=

> <r_epik_Ionization_Penalty>
1.37251

> <r_epik_Ionization_Penalty_Charging>
0.00081195

> <r_epik_Ionization_Penalty_Neutral>
1.3717

> <r_epik_State_Penalty>
1.55149

> <r_epik_Charging_Adjusted_Penalty>
1.5523

> <i_epik_Tot_Q>
1

> <i_epik_Tot_abs_Q>
1

> <r_epik_Metal_State_Penalty>
1.55149

> <b_epik_Metal_Only>
0

> <s_lp_Force_Field>
OPLS_2005

> <r_lp_Energy>
32.6589

> <b_lp_Chiralities_Consistent>
1

> <s_lp_Variant>
AV-unprocessed.smi:2237-7

> <Gold.Version>
5.8.1

> <Gold.Id.Protein>
6NUR|6NUR_protein|mol2

> <Gold.PLP.Fitness>
49.1736

> <Gold.PLP.PLP>
-43.7363

> <Gold.PLP.part.hbond>
-2.0000

> <Gold.PLP.part.metal>
0.0000

> <Gold.PLP.part.buried>
-6.0235

> <Gold.PLP.part.nonpolar>
-35.5984

> <Gold.PLP.part.repulsive>
0.2372

> <Gold.PLP.ligand.clash>
0.0000

> <Gold.PLP.ligand.torsion>
0.1542

> <Gold.PLP.Chemscore.Hbond>
1.9040

> <Gold.PLP.Chemscore.CHOScore>
0.0000

> <Gold.PLP.Chemscore.Metal>
0.0000

> <Gold.Chemscore.Hbonds>
donor molecule, donor type, donor heavy atom, donor atom, acceptor molecule, acceptor atom, score
      L1  H     7    31       P1  7948  0.99
      L1  H    10    32       P1  7948  0.90

> <Gold.PLP.Chemscore.Internal.Correction>
0.0337

> <Gold.Rescore>
     Score         DG    S(hbond)    S(metal)    S(lipo)     H(rot)  DE(clash)    DE(int)     intcor
     16.98     -19.86       1.41        0.00     109.27       1.21       0.12       2.76       ----

> <Gold.Chemscore.Fitness>
16.9790

> <Gold.Chemscore.DG>
-19.8629

> <Gold.Chemscore.ZeroCoef>
-5.4800

> <Gold.Chemscore.Hbond>
1.4069

> <Gold.Chemscore.Metal>
0.0000

> <Gold.Chemscore.Lipo>
109.2718

> <Gold.Chemscore.Internal_Hbond>
0.0000

> <Gold.Chemscore.DEClash>
0.1223

> <Gold.Chemscore.DEInternal>
2.7616

> <Gold.Chemscore.Rot>
1.2113

> <Gold.Chemscore.Internal.Correction>
   9.000000E+99

> <Gold.Chemscore.Hbonds>
donor molecule, donor type, donor heavy atom, donor atom, acceptor molecule, acceptor atom, score
      L1  H     7    31       P1  7948  0.37
      L1  H    10    32       P1  7948  0.84

> <Gold.Chemscore.Hbond.Weighted>
-4.6990

> <Gold.Chemscore.Metal.Weighted>
-0.0000

> <Gold.Chemscore.Lipo.Weighted>
-12.7848

> <Gold.Chemscore.Internal_Hbond.Weighted>
0.0000

> <Gold.Chemscore.DEClash.Weighted>
0.1223

> <Gold.Chemscore.DEInternal.Weighted>
2.7616

> <Gold.Chemscore.Rot.Weighted>
3.1009

> <Gold.Chemscore.Internal.Correction.Weighted>
   9.000000E+99

> <Gold.Protein.RotatedTorsions>
[ 6907 6896 6895 6894 ] final -157.36 input  -60.11 | X-H torsion
[ 7974 7965 7964 7962 ] final  150.82 input  175.53 | X-H torsion
[ 8008 7997 7996 7995 ] final  -79.64 input   59.86 | X-H torsion
[ 10167 10162 10161 10158 ] final  -28.98 input  -65.29 | X-H torsion
[ 10718 10713 10712 10709 ] final   36.60 input   66.30 | X-H torsion
[ 10763 10752 10751 10750 ] final   91.05 input  -60.55 | X-H torsion
[ 11005 11000 10999 10996 ] final  137.74 input  -57.11 | X-H torsion

> <Gold.Protein.ActiveResidues>
 VAL166  LYS551  ARG553  GLY616  TRP617  ASP618  TYR619  PRO620  LYS621  CYS622 
 ASP623  PHE694  ASN695  SER759  ASP760  ASP761  ALA762  ILE779  LEU786  VAL792 
 PHE793  MET794  SER795  GLU796  ALA797  LYS798  CYS799  TRP800  GLU811  SER814 

> <Gold.Protein.RotatedAtoms>
  151.3016  133.4120  159.2639 H   0  0  0  0  0  0  0  0  0  0  0  0  # atno 6907 bound_to 6896
  151.0190  134.9455  159.8059 H   0  0  0  0  0  0  0  0  0  0  0  0  # atno 6908 bound_to 6896
  152.5319  134.2980  159.9120 H   0  0  0  0  0  0  0  0  0  0  0  0  # atno 6909 bound_to 6896
  144.8337  139.6457  143.6047 H   0  0  0  0  0  0  0  0  0  0  0  0  # atno 7974 bound_to 7965
  154.5804  140.0675  156.9096 H   0  0  0  0  0  0  0  0  0  0  0  0  # atno 8008 bound_to 7997
  155.2472  140.3349  155.4267 H   0  0  0  0  0  0  0  0  0  0  0  0  # atno 8009 bound_to 7997
  156.2185  140.1789  156.7517 H   0  0  0  0  0  0  0  0  0  0  0  0  # atno 8010 bound_to 7997
  140.7265  143.3965  151.1338 H   0  0  0  0  0  0  0  0  0  0  0  0  # atno 10167 bound_to 10162
  157.3369  130.7527  149.6885 H   0  0  0  0  0  0  0  0  0  0  0  0  # atno 10718 bound_to 10713
  153.2041  135.4411  155.0302 H   0  0  0  0  0  0  0  0  0  0  0  0  # atno 10763 bound_to 10752
  154.8163  135.3317  154.7168 H   0  0  0  0  0  0  0  0  0  0  0  0  # atno 10764 bound_to 10752
  153.7611  135.6991  153.4981 H   0  0  0  0  0  0  0  0  0  0  0  0  # atno 10765 bound_to 10752
  140.0135  134.9428  157.0327 H   0  0  0  0  0  0  0  0  0  0  0  0  # atno 11005 bound_to 11000
  146.2637  139.6471  142.9344 LP  0  0  0  0  0  0  0  0  0  0  0  0  # atno 17320 bound_to 7965
  145.4841  141.0438  143.2629 LP  0  0  0  0  0  0  0  0  0  0  0  0  # atno 17321 bound_to 7965
  139.7579  143.8680  152.3093 LP  0  0  0  0  0  0  0  0  0  0  0  0  # atno 17342 bound_to 10162
  139.8556  144.7143  150.9161 LP  0  0  0  0  0  0  0  0  0  0  0  0  # atno 17343 bound_to 10162
  155.9702  130.4179  150.4301 LP  0  0  0  0  0  0  0  0  0  0  0  0  # atno 17370 bound_to 10713
  157.2342  131.0511  151.2474 LP  0  0  0  0  0  0  0  0  0  0  0  0  # atno 17371 bound_to 10713
  140.4512  134.1580  155.7182 LP  0  0  0  0  0  0  0  0  0  0  0  0  # atno 17394 bound_to 11000
  141.1727  133.8576  157.1520 LP  0  0  0  0  0  0  0  0  0  0  0  0  # atno 17395 bound_to 11000

$$$$
