AV-unprocessed.smi:2184|AV-procd|sdf|8872|dock2
  -GOLD-   2272012 73D 1   1.00000     0.00000
 Structure written by MMmdl.
 47 48  0  0  0  0  0  0  0  0  1 V2000
  148.6156  132.5169  153.9910 C   0  0  0  0  0  0  0  0  0  0  0  0
  149.7496  133.0185  155.3143 S   0  0  0  0  0  0  0  0  0  0  0  0
  149.2465  134.7473  155.5649 C   0  0  1  0  0  0  0  0  0  0  0  0
  148.5155  134.8987  156.9084 C   0  0  0  0  0  0  0  0  0  0  0  0
  150.4370  135.7097  155.4734 C   0  0  0  0  0  0  0  0  0  0  0  0
  151.3183  135.6935  156.3334 O   0  0  0  0  0  0  0  0  0  0  0  0
  150.4535  136.5433  154.4214 N   0  0  0  0  0  0  0  0  0  0  0  0
  151.4923  137.5336  154.1566 C   0  0  0  0  0  0  0  0  0  0  0  0
  151.5520  138.6686  155.1696 C   0  0  0  0  0  0  0  0  0  0  0  0
  150.5736  139.6837  155.2176 C   0  0  0  0  0  0  0  0  0  0  0  0
  150.6949  140.7053  156.1785 C   0  0  0  0  0  0  0  0  0  0  0  0
  151.7968  140.6916  157.0662 C   0  0  0  0  0  0  0  0  0  0  0  0
  151.9360  141.7054  158.0383 N   0  0  0  0  0  0  0  0  0  0  0  0
  151.0085  142.8335  157.9930 C   0  0  0  0  0  0  0  0  0  0  0  0
  151.4885  143.9814  158.9026 C   0  0  2  0  0  0  0  0  0  0  0  0
  152.6694  144.7756  158.3161 C   0  0  0  0  0  0  0  0  0  0  0  0
  151.7680  143.4869  160.2144 O   0  0  0  0  0  0  0  0  0  0  0  0
  152.7153  142.4205  160.2614 C   0  0  1  0  0  0  0  0  0  0  0  0
  152.8952  142.0107  161.7268 C   0  0  0  0  0  0  0  0  0  0  0  0
  152.2199  141.2489  159.3948 C   0  0  0  0  0  0  0  0  0  0  0  0
  152.7362  139.7151  157.0153 N   0  0  0  0  0  0  0  0  0  0  0  0
  152.6149  138.7380  156.0923 C   0  0  0  0  0  0  0  0  0  0  0  0
  148.7624  131.4634  153.7536 H   0  0  0  0  0  0  0  0  0  0  0  0
  148.7944  133.0986  153.0870 H   0  0  0  0  0  0  0  0  0  0  0  0
  147.5804  132.6599  154.2999 H   0  0  0  0  0  0  0  0  0  0  0  0
  148.5349  134.9944  154.7753 H   0  0  0  0  0  0  0  0  0  0  0  0
  148.2152  135.9328  157.0831 H   0  0  0  0  0  0  0  0  0  0  0  0
  149.1423  134.5871  157.7447 H   0  0  0  0  0  0  0  0  0  0  0  0
  147.6122  134.2886  156.9294 H   0  0  0  0  0  0  0  0  0  0  0  0
  149.6934  136.4887  153.7590 H   0  0  0  0  0  0  0  0  0  0  0  0
  152.4630  137.0383  154.0975 H   0  0  0  0  0  0  0  0  0  0  0  0
  151.3065  137.9651  153.1728 H   0  0  0  0  0  0  0  0  0  0  0  0
  149.7375  139.6858  154.5340 H   0  0  0  0  0  0  0  0  0  0  0  0
  149.9384  141.4740  156.2330 H   0  0  0  0  0  0  0  0  0  0  0  0
  150.8960  143.1985  156.9710 H   0  0  0  0  0  0  0  0  0  0  0  0
  150.0263  142.4914  158.3222 H   0  0  0  0  0  0  0  0  0  0  0  0
  150.6619  144.6838  159.0127 H   0  0  0  0  0  0  0  0  0  0  0  0
  152.3830  145.2556  157.3802 H   0  0  0  0  0  0  0  0  0  0  0  0
  153.5300  144.1419  158.1026 H   0  0  0  0  0  0  0  0  0  0  0  0
  152.9915  145.5587  159.0029 H   0  0  0  0  0  0  0  0  0  0  0  0
  153.6792  142.7681  159.8894 H   0  0  0  0  0  0  0  0  0  0  0  0
  153.6225  141.2044  161.8222 H   0  0  0  0  0  0  0  0  0  0  0  0
  151.9549  141.6673  162.1591 H   0  0  0  0  0  0  0  0  0  0  0  0
  153.2499  142.8503  162.3252 H   0  0  0  0  0  0  0  0  0  0  0  0
  151.3072  140.8277  159.8184 H   0  0  0  0  0  0  0  0  0  0  0  0
  152.9669  140.4566  159.4064 H   0  0  0  0  0  0  0  0  0  0  0  0
  153.3918  137.9875  156.0934 H   0  0  0  0  0  0  0  0  0  0  0  0
  1  2  1  0  0  0  0
  1 23  1  0  0  0  0
  1 24  1  0  0  0  0
  1 25  1  0  0  0  0
  2  3  1  0  0  0  0
  3  4  1  0  0  0  0
  3  5  1  0  0  0  0
  3 26  1  0  0  0  0
  4 27  1  0  0  0  0
  4 28  1  0  0  0  0
  4 29  1  0  0  0  0
  5  6  2  0  0  0  0
  5  7  1  0  0  0  0
  7  8  1  0  0  0  0
  7 30  1  0  0  0  0
  8  9  1  0  0  0  0
  8 31  1  0  0  0  0
  8 32  1  0  0  0  0
  9 22  1  0  0  0  0
  9 10  2  0  0  0  0
 10 11  1  0  0  0  0
 10 33  1  0  0  0  0
 11 12  2  0  0  0  0
 11 34  1  0  0  0  0
 12 13  1  0  0  0  0
 12 21  1  0  0  0  0
 13 20  1  0  0  0  0
 13 14  1  0  0  0  0
 14 15  1  0  0  0  0
 14 35  1  0  0  0  0
 14 36  1  0  0  0  0
 15 16  1  0  0  0  0
 15 17  1  0  0  0  0
 15 37  1  0  0  0  0
 16 38  1  0  0  0  0
 16 39  1  0  0  0  0
 16 40  1  0  0  0  0
 17 18  1  0  0  0  0
 18 19  1  0  0  0  0
 18 20  1  0  0  0  0
 18 41  1  0  0  0  0
 19 42  1  0  0  0  0
 19 43  1  0  0  0  0
 19 44  1  0  0  0  0
 20 45  1  0  0  0  0
 20 46  1  0  0  0  0
 21 22  2  0  0  0  0
 22 47  1  0  0  0  0
M  END
> <s_m_source_file>
AV-unprocessed.smi

> <i_m_source_file_index>
2184

> <i_lp_mmshare_version>
43012

> <i_f3d_flags>
0

> <s_epik_input>
W0NIM11TW0NASF0oW0NIM10pQyg9TylbTkhdW0NIMl1jMVtjSF1bY0hdYyhuW2NIXTEpTjJbQ0gyXVtDQEBIXShbQ0gzXSlPW0NAQEhdKFtDSDNdKVtDSDJdMg==

> <s_epik_cmdline>
J2VwaWtfcHl0aG9uJywgJy1waCcsICc3LjAnLCAnLXRuJywgJzgnLCAnLW1hJywgJzIwMCcsICctbWV0YWxfYmluZGluZycsICctaW1hZScsICc8aW5maWxlLm1hZT4nLCAnLW9tYWUnLCAnPG91dGZpbGUubWFlPic=

> <r_lp_tautomer_probability>
1

> <r_epik_Ionization_Penalty>
0.00551702

> <r_epik_Ionization_Penalty_Charging>
0

> <r_epik_Ionization_Penalty_Neutral>
0.00551702

> <r_epik_State_Penalty>
0.00403758

> <r_epik_Charging_Adjusted_Penalty>
0.00403758

> <i_epik_Tot_Q>
0

> <i_epik_Tot_abs_Q>
0

> <r_epik_Metal_State_Penalty>
-0

> <b_epik_Metal_Only>
0

> <s_lp_Force_Field>
OPLS_2005

> <r_lp_Energy>
17.5653

> <b_lp_Chiralities_Consistent>
1

> <s_lp_Variant>
AV-unprocessed.smi:2184-4

> <Gold.Version>
5.8.1

> <Gold.Id.Protein>
6NUR|6NUR_protein|mol2

> <Gold.PLP.Fitness>
53.8385

> <Gold.PLP.PLP>
-46.6738

> <Gold.PLP.part.hbond>
-4.0000

> <Gold.PLP.part.metal>
0.0000

> <Gold.PLP.part.buried>
-2.6492

> <Gold.PLP.part.nonpolar>
-40.4119

> <Gold.PLP.part.repulsive>
0.1439

> <Gold.PLP.ligand.clash>
0.0000

> <Gold.PLP.ligand.torsion>
1.1150

> <Gold.PLP.Chemscore.Hbond>
2.9920

> <Gold.PLP.Chemscore.CHOScore>
0.0000

> <Gold.PLP.Chemscore.Metal>
0.0000

> <Gold.Chemscore.Hbonds>
donor molecule, donor type, donor heavy atom, donor atom, acceptor molecule, acceptor atom, score
      L1  H     7    30       P1  7948  1.00
      P1  H  7997  8009       L1    21  0.95
      P1  H 10752 10765       L1     6  0.34

> <Gold.PLP.Chemscore.Internal.Correction>
0.4187

> <Gold.Rescore>
     Score         DG    S(hbond)    S(metal)    S(lipo)     H(rot)  DE(clash)    DE(int)     intcor
     21.64     -23.01       2.22        0.00     121.40       1.59       0.33       1.04       ----

> <Gold.Chemscore.Fitness>
21.6406

> <Gold.Chemscore.DG>
-23.0070

> <Gold.Chemscore.ZeroCoef>
-5.4800

> <Gold.Chemscore.Hbond>
2.2172

> <Gold.Chemscore.Metal>
0.0000

> <Gold.Chemscore.Lipo>
121.4010

> <Gold.Chemscore.Internal_Hbond>
0.0000

> <Gold.Chemscore.DEClash>
0.3272

> <Gold.Chemscore.DEInternal>
1.0392

> <Gold.Chemscore.Rot>
1.5947

> <Gold.Chemscore.Internal.Correction>
   9.000000E+99

> <Gold.Chemscore.Hbonds>
donor molecule, donor type, donor heavy atom, donor atom, acceptor molecule, acceptor atom, score
      L1  H     7    30       P1  7948  0.50
      P1  H  7997  8009       L1    21  0.21
      P1  H 10752 10765       L1     6  0.18

> <Gold.Chemscore.Hbond.Weighted>
-7.4055

> <Gold.Chemscore.Metal.Weighted>
-0.0000

> <Gold.Chemscore.Lipo.Weighted>
-14.2039

> <Gold.Chemscore.Internal_Hbond.Weighted>
0.0000

> <Gold.Chemscore.DEClash.Weighted>
0.3272

> <Gold.Chemscore.DEInternal.Weighted>
1.0392

> <Gold.Chemscore.Rot.Weighted>
4.0824

> <Gold.Chemscore.Internal.Correction.Weighted>
   9.000000E+99

> <Gold.Protein.RotatedTorsions>
[ 6907 6896 6895 6894 ] final   95.41 input  -60.11 | X-H torsion
[ 7974 7965 7964 7962 ] final  -23.86 input  175.53 | X-H torsion
[ 8008 7997 7996 7995 ] final  166.89 input   59.86 | X-H torsion
[ 10167 10162 10161 10158 ] final  -69.16 input  -65.29 | X-H torsion
[ 10718 10713 10712 10709 ] final -125.15 input   66.30 | X-H torsion
[ 10763 10752 10751 10750 ] final -136.73 input  -60.55 | X-H torsion
[ 11005 11000 10999 10996 ] final -149.10 input  -57.11 | X-H torsion

> <Gold.Protein.ActiveResidues>
 VAL166  LYS551  ARG553  GLY616  TRP617  ASP618  TYR619  PRO620  LYS621  CYS622 
 ASP623  PHE694  ASN695  SER759  ASP760  ASP761  ALA762  ILE779  LEU786  VAL792 
 PHE793  MET794  SER795  GLU796  ALA797  LYS798  CYS799  TRP800  GLU811  SER814 

> <Gold.Protein.RotatedAtoms>
  152.5444  134.1044  159.8331 H   0  0  0  0  0  0  0  0  0  0  0  0  # atno 6907 bound_to 6896
  151.1118  133.5160  159.2613 H   0  0  0  0  0  0  0  0  0  0  0  0  # atno 6908 bound_to 6896
  151.1876  135.0398  159.8873 H   0  0  0  0  0  0  0  0  0  0  0  0  # atno 6909 bound_to 6896
  146.1590  140.4674  142.8579 H   0  0  0  0  0  0  0  0  0  0  0  0  # atno 7974 bound_to 7965
  156.1681  140.1631  156.8496 H   0  0  0  0  0  0  0  0  0  0  0  0  # atno 8008 bound_to 7997
  154.5228  140.0774  156.8238 H   0  0  0  0  0  0  0  0  0  0  0  0  # atno 8009 bound_to 7997
  155.3570  140.3393  155.4242 H   0  0  0  0  0  0  0  0  0  0  0  0  # atno 8010 bound_to 7997
  140.5452  143.2313  151.7016 H   0  0  0  0  0  0  0  0  0  0  0  0  # atno 10167 bound_to 10162
  156.1650  130.6628  151.0102 H   0  0  0  0  0  0  0  0  0  0  0  0  # atno 10718 bound_to 10713
  154.8677  135.3664  154.5107 H   0  0  0  0  0  0  0  0  0  0  0  0  # atno 10763 bound_to 10752
  153.5743  135.7020  153.5496 H   0  0  0  0  0  0  0  0  0  0  0  0  # atno 10764 bound_to 10752
  153.3514  135.4071  155.1612 H   0  0  0  0  0  0  0  0  0  0  0  0  # atno 10765 bound_to 10752
  140.7542  134.3371  157.5118 H   0  0  0  0  0  0  0  0  0  0  0  0  # atno 11005 bound_to 11000
  144.8002  140.6198  143.6483 LP  0  0  0  0  0  0  0  0  0  0  0  0  # atno 17320 bound_to 7965
  145.4636  139.1510  143.3853 LP  0  0  0  0  0  0  0  0  0  0  0  0  # atno 17321 bound_to 7965
  139.5004  144.3906  152.0283 LP  0  0  0  0  0  0  0  0  0  0  0  0  # atno 17342 bound_to 10162
  140.3019  144.3637  150.6058 LP  0  0  0  0  0  0  0  0  0  0  0  0  # atno 17343 bound_to 10162
  157.6761  131.0850  150.7490 LP  0  0  0  0  0  0  0  0  0  0  0  0  # atno 17370 bound_to 10713
  156.7551  130.4781  149.5448 LP  0  0  0  0  0  0  0  0  0  0  0  0  # atno 17371 bound_to 10713
  139.8782  134.9161  156.3148 LP  0  0  0  0  0  0  0  0  0  0  0  0  # atno 17394 bound_to 11000
  140.9722  133.7320  156.0551 LP  0  0  0  0  0  0  0  0  0  0  0  0  # atno 17395 bound_to 11000

$$$$
