AV-unprocessed.smi:3324|AV-procd|sdf|12782|dock7
  -GOLD-   2272019133D 1   1.00000     0.00000
 Structure written by MMmdl.
 30 30  0  0  0  0  0  0  0  0  1 V2000
  146.4918  139.5911  153.8794 O   0  0  0  0  0  0  0  0  0  0  0  0
  147.0180  138.7027  153.2101 C   0  0  0  0  0  0  0  0  0  0  0  0
  146.5030  138.3977  151.8047 C   0  0  0  0  0  0  0  0  0  0  0  0
  145.1756  137.7760  151.8407 N   0  0  0  0  0  0  0  0  0  0  0  0
  145.2876  136.3352  152.0064 C   0  0  0  0  0  0  0  0  0  0  0  0
  144.3860  135.6342  150.9804 C   0  0  0  0  0  0  0  0  0  0  0  0
  144.7908  134.2584  150.7679 N   0  0  0  0  0  0  0  0  0  0  0  0
  144.1247  133.2666  150.0795 C   0  0  0  0  0  0  0  0  0  0  0  0
  144.8900  132.1381  150.1524 C   0  0  0  0  0  0  0  0  0  0  0  0
  146.0189  132.5443  150.9177 C   0  0  0  0  0  0  0  0  0  0  0  0
  145.9548  133.8132  151.2878 N   0  0  0  0  0  0  0  0  0  0  0  0
  148.0495  137.9616  153.6423 N   0  0  0  0  0  0  0  0  0  0  0  0
  148.6954  138.0938  154.9442 C   0  0  0  0  0  0  0  0  0  0  0  0
  149.8930  139.0576  154.8994 C   0  0  0  0  0  0  0  0  0  0  0  0
  149.4935  140.2265  154.4002 F   0  0  0  0  0  0  0  0  0  0  0  0
  150.3694  139.2587  156.1284 F   0  0  0  0  0  0  0  0  0  0  0  0
  150.8648  138.5747  154.1251 F   0  0  0  0  0  0  0  0  0  0  0  0
  146.4629  139.3209  151.2239 H   0  0  0  0  0  0  0  0  0  0  0  0
  147.2135  137.7338  151.3094 H   0  0  0  0  0  0  0  0  0  0  0  0
  144.6578  137.9707  150.9952 H   0  0  0  0  0  0  0  0  0  0  0  0
  146.3253  136.0265  151.8686 H   0  0  0  0  0  0  0  0  0  0  0  0
  144.9913  136.0530  153.0179 H   0  0  0  0  0  0  0  0  0  0  0  0
  143.3487  135.6376  151.3185 H   0  0  0  0  0  0  0  0  0  0  0  0
  144.4088  136.1596  150.0241 H   0  0  0  0  0  0  0  0  0  0  0  0
  143.1728  133.4449  149.6016 H   0  0  0  0  0  0  0  0  0  0  0  0
  144.6761  131.1700  149.7242 H   0  0  0  0  0  0  0  0  0  0  0  0
  146.8769  131.9587  151.2142 H   0  0  0  0  0  0  0  0  0  0  0  0
  148.4151  137.2546  153.0210 H   0  0  0  0  0  0  0  0  0  0  0  0
  147.9758  138.4161  155.6987 H   0  0  0  0  0  0  0  0  0  0  0  0
  149.0343  137.1034  155.2493 H   0  0  0  0  0  0  0  0  0  0  0  0
  1  2  2  0  0  0  0
  2  3  1  0  0  0  0
  2 12  1  0  0  0  0
  3  4  1  0  0  0  0
  3 18  1  0  0  0  0
  3 19  1  0  0  0  0
  4  5  1  0  0  0  0
  4 20  1  0  0  0  0
  5  6  1  0  0  0  0
  5 21  1  0  0  0  0
  5 22  1  0  0  0  0
  6  7  1  0  0  0  0
  6 23  1  0  0  0  0
  6 24  1  0  0  0  0
  7 11  1  0  0  0  0
  7  8  1  0  0  0  0
  8  9  2  0  0  0  0
  8 25  1  0  0  0  0
  9 10  1  0  0  0  0
  9 26  1  0  0  0  0
 10 11  2  0  0  0  0
 10 27  1  0  0  0  0
 12 13  1  0  0  0  0
 12 28  1  0  0  0  0
 13 14  1  0  0  0  0
 13 29  1  0  0  0  0
 13 30  1  0  0  0  0
 14 15  1  0  0  0  0
 14 16  1  0  0  0  0
 14 17  1  0  0  0  0
M  END
> <s_m_source_file>
AV-unprocessed.smi

> <i_m_source_file_index>
3324

> <i_lp_mmshare_version>
43012

> <i_f3d_flags>
0

> <s_epik_input>
RkMoRikoRilbQ0gyXVtOSF1DKD1PKVtDSDJdW05IXVtDSDJdW0NIMl1uMVtjSF1bY0hdW2NIXW4x

> <s_epik_cmdline>
J2VwaWtfcHl0aG9uJywgJy1waCcsICc3LjAnLCAnLXRuJywgJzgnLCAnLW1hJywgJzIwMCcsICctbWV0YWxfYmluZGluZycsICctaW1hZScsICc8aW5maWxlLm1hZT4nLCAnLW9tYWUnLCAnPG91dGZpbGUubWFlPic=

> <r_lp_tautomer_probability>
1

> <r_epik_Ionization_Penalty>
0.533356

> <r_epik_Ionization_Penalty_Charging>
0

> <r_epik_Ionization_Penalty_Neutral>
0.533356

> <r_epik_State_Penalty>
0.540813

> <r_epik_Charging_Adjusted_Penalty>
0.540813

> <i_epik_Tot_Q>
0

> <i_epik_Tot_abs_Q>
0

> <r_epik_Metal_State_Penalty>
0.549553

> <b_epik_Metal_Only>
0

> <s_lp_Force_Field>
OPLS_2005

> <r_lp_Energy>
3.03628

> <b_lp_Chiralities_Consistent>
1

> <s_lp_Variant>
AV-unprocessed.smi:3324-2

> <Gold.Version>
5.8.1

> <Gold.Id.Protein>
6NUR|6NUR_protein|mol2

> <Gold.PLP.Fitness>
43.5347

> <Gold.PLP.PLP>
-33.3020

> <Gold.PLP.part.hbond>
-2.7426

> <Gold.PLP.part.metal>
0.0000

> <Gold.PLP.part.buried>
-4.6220

> <Gold.PLP.part.nonpolar>
-26.9275

> <Gold.PLP.part.repulsive>
0.3350

> <Gold.PLP.ligand.clash>
0.0000

> <Gold.PLP.ligand.torsion>
0.9735

> <Gold.PLP.Chemscore.Hbond>
2.0000

> <Gold.PLP.Chemscore.CHOScore>
2.0000

> <Gold.PLP.Chemscore.Metal>
0.0000

> <Gold.Chemscore.Hbonds>
donor molecule, donor type, donor heavy atom, donor atom, acceptor molecule, acceptor atom, score
      L1  H     4    20       P1 10171  1.00
      L1  H    12    28       P1  7948  1.00
      L1  C     8    25       P1 10186  1.00
      L1  C    10    27       P1 10747  0.95

> <Gold.PLP.Chemscore.Internal.Correction>
0.1798

> <Gold.Rescore>
     Score         DG    S(hbond)    S(metal)    S(lipo)     H(rot)  DE(clash)    DE(int)     intcor
     10.79     -11.68       1.99        0.00      58.15       2.83       0.02       0.86       ----

> <Gold.Chemscore.Fitness>
10.7925

> <Gold.Chemscore.DG>
-11.6782

> <Gold.Chemscore.ZeroCoef>
-5.4800

> <Gold.Chemscore.Hbond>
1.9882

> <Gold.Chemscore.Metal>
0.0000

> <Gold.Chemscore.Lipo>
58.1522

> <Gold.Chemscore.Internal_Hbond>
0.0000

> <Gold.Chemscore.DEClash>
0.0226

> <Gold.Chemscore.DEInternal>
0.8631

> <Gold.Chemscore.Rot>
2.8305

> <Gold.Chemscore.Internal.Correction>
   9.000000E+99

> <Gold.Chemscore.Hbonds>
donor molecule, donor type, donor heavy atom, donor atom, acceptor molecule, acceptor atom, score
      L1  H     4    20       P1 10171  0.95
      L1  H    12    28       P1  7948  0.99

> <Gold.Chemscore.Hbond.Weighted>
-6.6405

> <Gold.Chemscore.Metal.Weighted>
-0.0000

> <Gold.Chemscore.Lipo.Weighted>
-6.8038

> <Gold.Chemscore.Internal_Hbond.Weighted>
0.0000

> <Gold.Chemscore.DEClash.Weighted>
0.0226

> <Gold.Chemscore.DEInternal.Weighted>
0.8631

> <Gold.Chemscore.Rot.Weighted>
7.2461

> <Gold.Chemscore.Internal.Correction.Weighted>
   9.000000E+99

> <Gold.Protein.RotatedTorsions>
[ 6907 6896 6895 6894 ] final  -65.59 input  -60.11 | X-H torsion
[ 7974 7965 7964 7962 ] final   29.76 input  175.53 | X-H torsion
[ 8008 7997 7996 7995 ] final -139.30 input   59.86 | X-H torsion
[ 10167 10162 10161 10158 ] final   55.63 input  -65.29 | X-H torsion
[ 10718 10713 10712 10709 ] final  -82.82 input   66.30 | X-H torsion
[ 10763 10752 10751 10750 ] final   11.65 input  -60.55 | X-H torsion
[ 11005 11000 10999 10996 ] final  -84.51 input  -57.11 | X-H torsion

> <Gold.Protein.ActiveResidues>
 VAL166  LYS551  ARG553  GLY616  TRP617  ASP618  TYR619  PRO620  LYS621  CYS622 
 ASP623  PHE694  ASN695  SER759  ASP760  ASP761  ALA762  ILE779  LEU786  VAL792 
 PHE793  MET794  SER795  GLU796  ALA797  LYS798  CYS799  TRP800  GLU811  SER814 

> <Gold.Protein.RotatedAtoms>
  150.7515  134.6140  159.6100 H   0  0  0  0  0  0  0  0  0  0  0  0  # atno 6907 bound_to 6896
  152.3465  134.7060  160.0258 H   0  0  0  0  0  0  0  0  0  0  0  0  # atno 6908 bound_to 6896
  151.7495  133.3290  159.3424 H   0  0  0  0  0  0  0  0  0  0  0  0  # atno 6909 bound_to 6896
  146.1652  139.6878  142.9006 H   0  0  0  0  0  0  0  0  0  0  0  0  # atno 7974 bound_to 7965
  155.4427  140.0533  157.3009 H   0  0  0  0  0  0  0  0  0  0  0  0  # atno 8008 bound_to 7997
  154.4811  140.2082  155.9718 H   0  0  0  0  0  0  0  0  0  0  0  0  # atno 8009 bound_to 7997
  156.1207  140.3189  155.8209 H   0  0  0  0  0  0  0  0  0  0  0  0  # atno 8010 bound_to 7997
  140.2174  144.3825  150.6464 H   0  0  0  0  0  0  0  0  0  0  0  0  # atno 10167 bound_to 10162
  156.0027  130.4646  150.4162 H   0  0  0  0  0  0  0  0  0  0  0  0  # atno 10718 bound_to 10713
  153.1904  135.6841  153.8360 H   0  0  0  0  0  0  0  0  0  0  0  0  # atno 10763 bound_to 10752
  153.7661  135.3203  155.3346 H   0  0  0  0  0  0  0  0  0  0  0  0  # atno 10764 bound_to 10752
  154.8114  135.4715  154.0624 H   0  0  0  0  0  0  0  0  0  0  0  0  # atno 10765 bound_to 10752
  141.1650  133.7350  156.8879 H   0  0  0  0  0  0  0  0  0  0  0  0  # atno 11005 bound_to 11000
  145.4485  141.0427  143.2817 LP  0  0  0  0  0  0  0  0  0  0  0  0  # atno 17320 bound_to 7965
  144.8083  139.6010  143.7041 LP  0  0  0  0  0  0  0  0  0  0  0  0  # atno 17321 bound_to 7965
  140.6280  143.2183  151.6556 LP  0  0  0  0  0  0  0  0  0  0  0  0  # atno 17342 bound_to 10162
  139.5157  144.3370  152.0775 LP  0  0  0  0  0  0  0  0  0  0  0  0  # atno 17343 bound_to 10162
  157.2222  131.0485  151.2540 LP  0  0  0  0  0  0  0  0  0  0  0  0  # atno 17370 bound_to 10713
  157.3790  130.7221  149.6617 LP  0  0  0  0  0  0  0  0  0  0  0  0  # atno 17371 bound_to 10713
  140.1669  134.9127  157.2785 LP  0  0  0  0  0  0  0  0  0  0  0  0  # atno 17394 bound_to 11000
  140.2546  134.3642  155.7429 LP  0  0  0  0  0  0  0  0  0  0  0  0  # atno 17395 bound_to 11000

$$$$
