AV-unprocessed.smi:149|AV-procd|sdf|1237|dock8
  -GOLD-   2262018453D 1   1.00000     0.00000
 Structure written by MMmdl.
 60 64  0  0  0  0  0  0  0  0  2 V2000
  150.1932  130.2167  154.0531 C   0  0  0  0  0  0  0  0  0  0  0  0
  149.3061  131.4348  154.3750 C   0  0  1  0  0  0  0  0  0  0  0  0
  149.9224  132.2505  155.5261 C   0  0  0  0  0  0  0  0  0  0  0  0
  149.7466  133.6535  155.1907 N   0  0  0  0  0  0  0  0  0  0  0  0
  149.7012  134.6000  156.1652 C   0  0  0  0  0  0  0  0  0  0  0  0
  148.8644  134.4118  157.2204 N   0  0  0  0  0  0  0  0  0  0  0  0
  148.7970  135.3138  158.2034 C   0  0  0  0  0  0  0  0  0  0  0  0
  149.4606  136.4638  158.3254 N   0  0  0  0  0  0  0  0  0  0  0  0
  150.2889  136.6740  157.2628 C   0  0  0  0  0  0  0  0  0  0  0  0
  150.4727  135.8001  156.1525 C   0  0  0  0  0  0  0  0  0  0  0  0
  151.4033  136.3494  155.2781 N   0  0  0  0  0  0  0  0  0  0  0  0
  151.7601  137.4685  155.8456 C   0  0  0  0  0  0  0  0  0  0  0  0
  151.1154  137.7606  157.0275 N   0  0  0  0  0  0  0  0  0  0  0  0
  151.3274  138.8995  157.8815 C   0  0  0  0  0  0  0  0  0  0  0  0
  150.1898  139.9004  158.1305 C   0  0  0  0  0  0  0  0  0  0  0  0
  150.8520  140.8995  157.1566 C   0  0  0  0  0  0  0  0  0  0  0  0
  150.3100  140.8207  155.7165 C   0  0  0  0  0  0  0  0  0  0  0  0
  149.0487  141.4479  155.6001 O   0  0  0  0  0  0  0  0  0  0  0  0
  150.8302  142.3847  157.5692 C   0  0  0  0  0  0  0  0  0  0  0  0
  149.5180  142.8928  157.7053 O   0  0  0  0  0  0  0  0  0  0  0  0
  152.1534  140.1091  157.4187 C   0  0  0  0  0  0  0  0  0  0  0  0
  148.9429  133.7733  153.9885 C   0  0  0  0  0  0  0  0  0  0  0  0
  149.1402  132.4571  153.2249 C   0  0  2  0  0  0  0  0  0  0  0  0
  148.0023  132.2195  152.2857 N   0  3  0  0  0  0  0  0  0  0  0  0
  146.8935  131.4642  152.9264 C   0  0  0  0  0  0  0  0  0  0  0  0
  145.7727  131.1662  151.9173 C   0  0  0  0  0  0  0  0  0  0  0  0
  145.2967  132.3856  151.3668 O   0  0  0  0  0  0  0  0  0  0  0  0
  146.3184  133.0722  150.6582 C   0  0  0  0  0  0  0  0  0  0  0  0
  147.4691  133.4320  151.6141 C   0  0  0  0  0  0  0  0  0  0  0  0
  151.1883  130.5287  153.7342 H   0  0  0  0  0  0  0  0  0  0  0  0
  149.7838  129.5869  153.2664 H   0  0  0  0  0  0  0  0  0  0  0  0
  150.3150  129.5865  154.9346 H   0  0  0  0  0  0  0  0  0  0  0  0
  148.3194  131.0989  154.6980 H   0  0  0  0  0  0  0  0  0  0  0  0
  149.4467  131.9989  156.4750 H   0  0  0  0  0  0  0  0  0  0  0  0
  150.9908  132.0527  155.6221 H   0  0  0  0  0  0  0  0  0  0  0  0
  148.1133  135.0816  159.0065 H   0  0  0  0  0  0  0  0  0  0  0  0
  152.5051  138.1120  155.4025 H   0  0  0  0  0  0  0  0  0  0  0  0
  151.7108  138.4962  158.8196 H   0  0  0  0  0  0  0  0  0  0  0  0
  149.2003  139.5650  157.8186 H   0  0  0  0  0  0  0  0  0  0  0  0
  150.1674  140.2412  159.1665 H   0  0  0  0  0  0  0  0  0  0  0  0
  150.9865  141.3017  155.0102 H   0  0  0  0  0  0  0  0  0  0  0  0
  150.2180  139.7846  155.3885 H   0  0  0  0  0  0  0  0  0  0  0  0
  148.3764  140.7904  155.6946 H   0  0  0  0  0  0  0  0  0  0  0  0
  151.3388  142.5351  158.5218 H   0  0  0  0  0  0  0  0  0  0  0  0
  151.3513  142.9990  156.8343 H   0  0  0  0  0  0  0  0  0  0  0  0
  149.4741  143.7313  157.2717 H   0  0  0  0  0  0  0  0  0  0  0  0
  152.7551  140.5219  158.2298 H   0  0  0  0  0  0  0  0  0  0  0  0
  152.7715  139.9545  156.5351 H   0  0  0  0  0  0  0  0  0  0  0  0
  147.8963  133.9063  154.2673 H   0  0  0  0  0  0  0  0  0  0  0  0
  149.2551  134.6348  153.3969 H   0  0  0  0  0  0  0  0  0  0  0  0
  150.0752  132.5061  152.6634 H   0  0  0  0  0  0  0  0  0  0  0  0
  147.2575  130.5222  153.3362 H   0  0  0  0  0  0  0  0  0  0  0  0
  146.4942  132.0414  153.7619 H   0  0  0  0  0  0  0  0  0  0  0  0
  146.1248  130.5036  151.1249 H   0  0  0  0  0  0  0  0  0  0  0  0
  144.9461  130.6575  152.4139 H   0  0  0  0  0  0  0  0  0  0  0  0
  146.6781  132.4588  149.8303 H   0  0  0  0  0  0  0  0  0  0  0  0
  145.8969  133.9776  150.2213 H   0  0  0  0  0  0  0  0  0  0  0  0
  147.1259  134.1475  152.3632 H   0  0  0  0  0  0  0  0  0  0  0  0
  148.2493  133.9120  151.0256 H   0  0  0  0  0  0  0  0  0  0  0  0
  148.3646  131.6321  151.5480 H   0  0  0  0  0  0  0  0  0  0  0  0
  1  2  1  0  0  0  0
  1 30  1  0  0  0  0
  1 31  1  0  0  0  0
  1 32  1  0  0  0  0
  2 23  1  0  0  0  0
  2  3  1  0  0  0  0
  2 33  1  0  0  0  0
  3  4  1  0  0  0  0
  3 34  1  0  0  0  0
  3 35  1  0  0  0  0
  4  5  1  0  0  0  0
  4 22  1  0  0  0  0
  5 10  1  0  0  0  0
  5  6  2  0  0  0  0
  6  7  1  0  0  0  0
  7  8  2  0  0  0  0
  7 36  1  0  0  0  0
  8  9  1  0  0  0  0
  9 13  1  0  0  0  0
  9 10  2  0  0  0  0
 10 11  1  0  0  0  0
 11 12  2  0  0  0  0
 12 13  1  0  0  0  0
 12 37  1  0  0  0  0
 13 14  1  0  0  0  0
 14 21  1  0  0  0  0
 14 15  1  0  0  0  0
 14 38  1  0  0  0  0
 15 16  1  0  0  0  0
 15 39  1  0  0  0  0
 15 40  1  0  0  0  0
 16 17  1  0  0  0  0
 16 19  1  0  0  0  0
 16 21  1  0  0  0  0
 17 18  1  0  0  0  0
 17 41  1  0  0  0  0
 17 42  1  0  0  0  0
 18 43  1  0  0  0  0
 19 20  1  0  0  0  0
 19 44  1  0  0  0  0
 19 45  1  0  0  0  0
 20 46  1  0  0  0  0
 21 47  1  0  0  0  0
 21 48  1  0  0  0  0
 22 23  1  0  0  0  0
 22 49  1  0  0  0  0
 22 50  1  0  0  0  0
 23 24  1  0  0  0  0
 23 51  1  0  0  0  0
 24 29  1  0  0  0  0
 24 25  1  0  0  0  0
 24 60  1  0  0  0  0
 25 26  1  0  0  0  0
 25 52  1  0  0  0  0
 25 53  1  0  0  0  0
 26 27  1  0  0  0  0
 26 54  1  0  0  0  0
 26 55  1  0  0  0  0
 27 28  1  0  0  0  0
 28 29  1  0  0  0  0
 28 56  1  0  0  0  0
 28 57  1  0  0  0  0
 29 58  1  0  0  0  0
 29 59  1  0  0  0  0
M  CHG  1  24   1
M  END
> <s_m_source_file>
AV-unprocessed.smi

> <i_m_source_file_index>
149

> <i_lp_mmshare_version>
43012

> <i_f3d_flags>
0

> <s_epik_input>
W0NIMl0xW0NIMl1PW0NIMl1bQ0gyXU4xW0NAQEhdMltDSDJdTihbQ0gyXVtDQEhdMltDSDNdKWMobltjSF1uMyljKGMzNCluW2NIXW40W0NIXShbQ0gyXTUpW0NIMl1DNShbQ0gyXVtPSF0pW0NIMl1bT0hd

> <s_epik_cmdline>
J2VwaWtfcHl0aG9uJywgJy1waCcsICc3LjAnLCAnLXRuJywgJzgnLCAnLW1hJywgJzIwMCcsICctbWV0YWxfYmluZGluZycsICctaW1hZScsICc8aW5maWxlLm1hZT4nLCAnLW9tYWUnLCAnPG91dGZpbGUubWFlPic=

> <r_lp_tautomer_probability>
1

> <r_epik_Ionization_Penalty>
0.404847

> <r_epik_Ionization_Penalty_Charging>
0.404623

> <r_epik_Ionization_Penalty_Neutral>
0.000224096

> <r_epik_State_Penalty>
0.238803

> <r_epik_Charging_Adjusted_Penalty>
0.643425

> <i_epik_Tot_Q>
1

> <i_epik_Tot_abs_Q>
1

> <r_epik_Metal_State_Penalty>
0.239083

> <b_epik_Metal_Only>
0

> <s_lp_Force_Field>
OPLS_2005

> <r_lp_Energy>
71.3702

> <b_lp_Chiralities_Consistent>
1

> <s_lp_Variant>
AV-unprocessed.smi:149-4

> <Gold.Version>
5.8.1

> <Gold.Id.Protein>
6NUR|6NUR_protein|mol2

> <Gold.PLP.Fitness>
47.6434

> <Gold.PLP.PLP>
-42.2347

> <Gold.PLP.part.hbond>
-3.2943

> <Gold.PLP.part.metal>
0.0000

> <Gold.PLP.part.buried>
-6.1665

> <Gold.PLP.part.nonpolar>
-32.8735

> <Gold.PLP.part.repulsive>
0.2206

> <Gold.PLP.ligand.clash>
0.0000

> <Gold.PLP.ligand.torsion>
2.1748

> <Gold.PLP.Chemscore.Hbond>
2.9920

> <Gold.PLP.Chemscore.CHOScore>
0.0000

> <Gold.PLP.Chemscore.Metal>
0.0000

> <Gold.Chemscore.Hbonds>
donor molecule, donor type, donor heavy atom, donor atom, acceptor molecule, acceptor atom, score
      L1  H    20    46       P1  8028  0.94
      L1  H    24    60       P1 10747  1.00
      P1  H 10752 10764       L1    11  1.00

> <Gold.PLP.Chemscore.Internal.Correction>
0.7822

> <Gold.Rescore>
     Score         DG    S(hbond)    S(metal)    S(lipo)     H(rot)  DE(clash)    DE(int)     intcor
     14.37     -16.87       2.45        0.00      95.04       3.09       0.18       2.32       ----

> <Gold.Chemscore.Fitness>
14.3687

> <Gold.Chemscore.DG>
-16.8708

> <Gold.Chemscore.ZeroCoef>
-5.4800

> <Gold.Chemscore.Hbond>
2.4506

> <Gold.Chemscore.Metal>
0.0000

> <Gold.Chemscore.Lipo>
95.0361

> <Gold.Chemscore.Internal_Hbond>
0.0000

> <Gold.Chemscore.DEClash>
0.1809

> <Gold.Chemscore.DEInternal>
2.3212

> <Gold.Chemscore.Rot>
3.0912

> <Gold.Chemscore.Internal.Correction>
   9.000000E+99

> <Gold.Chemscore.Hbonds>
donor molecule, donor type, donor heavy atom, donor atom, acceptor molecule, acceptor atom, score
      L1  H    20    46       P1  8028  0.58
      L1  H    24    60       P1 10747  0.99
      P1  H 10752 10764       L1    11  0.55

> <Gold.Chemscore.Hbond.Weighted>
-8.1850

> <Gold.Chemscore.Metal.Weighted>
-0.0000

> <Gold.Chemscore.Lipo.Weighted>
-11.1192

> <Gold.Chemscore.Internal_Hbond.Weighted>
0.0000

> <Gold.Chemscore.DEClash.Weighted>
0.1809

> <Gold.Chemscore.DEInternal.Weighted>
2.3212

> <Gold.Chemscore.Rot.Weighted>
7.9135

> <Gold.Chemscore.Internal.Correction.Weighted>
   9.000000E+99

> <Gold.Protein.RotatedTorsions>
[ 6907 6896 6895 6894 ] final  164.72 input  -60.11 | X-H torsion
[ 7974 7965 7964 7962 ] final   94.87 input  175.53 | X-H torsion
[ 8008 7997 7996 7995 ] final -157.76 input   59.86 | X-H torsion
[ 10167 10162 10161 10158 ] final  139.37 input  -65.29 | X-H torsion
[ 10718 10713 10712 10709 ] final -110.17 input   66.30 | X-H torsion
[ 10763 10752 10751 10750 ] final  -54.62 input  -60.55 | X-H torsion
[ 11005 11000 10999 10996 ] final  150.04 input  -57.11 | X-H torsion

> <Gold.Protein.ActiveResidues>
 VAL166  LYS551  ARG553  GLY616  TRP617  ASP618  TYR619  PRO620  LYS621  CYS622 
 ASP623  PHE694  ASN695  SER759  ASP760  ASP761  ALA762  ILE779  LEU786  VAL792 
 PHE793  MET794  SER795  GLU796  ALA797  LYS798  CYS799  TRP800  GLU811  SER814 

> <Gold.Protein.RotatedAtoms>
  151.9054  133.3548  159.3844 H   0  0  0  0  0  0  0  0  0  0  0  0  # atno 6907 bound_to 6896
  150.7070  134.4786  159.5468 H   0  0  0  0  0  0  0  0  0  0  0  0  # atno 6908 bound_to 6896
  152.2382  134.8255  160.0515 H   0  0  0  0  0  0  0  0  0  0  0  0  # atno 6909 bound_to 6896
  145.4597  139.2287  143.2994 H   0  0  0  0  0  0  0  0  0  0  0  0  # atno 7974 bound_to 7965
  155.7372  140.0809  157.2262 H   0  0  0  0  0  0  0  0  0  0  0  0  # atno 8008 bound_to 7997
  154.4026  140.1584  156.2631 H   0  0  0  0  0  0  0  0  0  0  0  0  # atno 8009 bound_to 7997
  155.9054  140.3407  155.6060 H   0  0  0  0  0  0  0  0  0  0  0  0  # atno 8010 bound_to 7997
  139.5081  144.6299  151.5844 H   0  0  0  0  0  0  0  0  0  0  0  0  # atno 10167 bound_to 10162
  156.0576  130.5801  150.8200 H   0  0  0  0  0  0  0  0  0  0  0  0  # atno 10718 bound_to 10713
  154.1777  135.6448  153.5026 H   0  0  0  0  0  0  0  0  0  0  0  0  # atno 10763 bound_to 10752
  153.0067  135.5398  154.6547 H   0  0  0  0  0  0  0  0  0  0  0  0  # atno 10764 bound_to 10752
  154.5903  135.2933  155.0615 H   0  0  0  0  0  0  0  0  0  0  0  0  # atno 10765 bound_to 10752
  140.1097  134.8932  157.1918 H   0  0  0  0  0  0  0  0  0  0  0  0  # atno 11005 bound_to 11000
  146.2458  140.5365  142.8914 LP  0  0  0  0  0  0  0  0  0  0  0  0  # atno 17320 bound_to 7965
  144.8010  140.6213  143.6478 LP  0  0  0  0  0  0  0  0  0  0  0  0  # atno 17321 bound_to 7965
  140.6028  143.9579  150.6398 LP  0  0  0  0  0  0  0  0  0  0  0  0  # atno 17342 bound_to 10162
  140.2796  143.3399  152.1163 LP  0  0  0  0  0  0  0  0  0  0  0  0  # atno 17343 bound_to 10162
  157.5559  131.0945  150.9629 LP  0  0  0  0  0  0  0  0  0  0  0  0  # atno 17370 bound_to 10713
  156.9878  130.5552  149.5301 LP  0  0  0  0  0  0  0  0  0  0  0  0  # atno 17371 bound_to 10713
  140.3107  134.3026  155.7267 LP  0  0  0  0  0  0  0  0  0  0  0  0  # atno 17394 bound_to 11000
  141.2127  133.7649  156.9773 LP  0  0  0  0  0  0  0  0  0  0  0  0  # atno 17395 bound_to 11000

$$$$
