AV-unprocessed.smi:2302|AV-procd|sdf|9239|dock7
  -GOLD-   2272012453D 1   1.00000     0.00000
 Structure written by MMmdl.
 40 41  0  0  0  0  0  0  0  0  2 V2000
  152.8343  137.1034  158.1275 C   0  0  0  0  0  0  0  0  0  0  0  0
  152.4182  137.3949  156.7010 C   0  0  0  0  0  0  0  0  0  0  0  0
  153.0279  138.4297  155.9649 C   0  0  0  0  0  0  0  0  0  0  0  0
  152.5981  138.6449  154.6433 C   0  0  0  0  0  0  0  0  0  0  0  0
  151.5836  137.8229  154.1157 C   0  0  0  0  0  0  0  0  0  0  0  0
  151.0225  136.8075  154.9224 C   0  0  0  0  0  0  0  0  0  0  0  0
  150.0098  136.0327  154.2974 N   0  0  0  0  0  0  0  0  0  0  0  0
  149.4213  134.9131  154.7532 C   0  0  0  0  0  0  0  0  0  0  0  0
  149.6462  134.3814  155.8405 O   0  0  0  0  0  0  0  0  0  0  0  0
  148.5394  134.4327  153.8649 N   0  0  0  0  0  0  0  0  0  0  0  0
  147.7357  133.2264  154.0436 C   0  0  0  0  0  0  0  0  0  0  0  0
  147.4227  132.4999  152.7187 C   0  0  1  0  0  0  0  0  0  0  0  0
  146.9252  131.0492  152.9036 C   0  0  0  0  0  0  0  0  0  0  0  0
  146.6281  130.4354  151.5894 N   0  3  1  0  0  0  0  0  0  0  0  0
  146.1909  129.0275  151.7021 C   0  0  0  0  0  0  0  0  0  0  0  0
  145.6744  131.2688  150.8230 C   0  0  0  0  0  0  0  0  0  0  0  0
  146.2031  132.7070  150.6977 C   0  0  0  0  0  0  0  0  0  0  0  0
  146.4481  133.2423  151.9922 O   0  0  0  0  0  0  0  0  0  0  0  0
  151.4454  136.6064  156.1954 N   0  0  0  0  0  0  0  0  0  0  0  0
  153.5344  137.8535  158.4963 H   0  0  0  0  0  0  0  0  0  0  0  0
  153.3165  136.1274  158.1873 H   0  0  0  0  0  0  0  0  0  0  0  0
  151.9644  137.0988  158.7851 H   0  0  0  0  0  0  0  0  0  0  0  0
  153.8042  139.0430  156.3984 H   0  0  0  0  0  0  0  0  0  0  0  0
  153.0389  139.4271  154.0430 H   0  0  0  0  0  0  0  0  0  0  0  0
  151.2422  137.9757  153.1023 H   0  0  0  0  0  0  0  0  0  0  0  0
  149.7039  136.3667  153.3956 H   0  0  0  0  0  0  0  0  0  0  0  0
  148.4123  134.9395  153.0011 H   0  0  0  0  0  0  0  0  0  0  0  0
  148.2213  132.5458  154.7448 H   0  0  0  0  0  0  0  0  0  0  0  0
  146.8007  133.5292  154.5157 H   0  0  0  0  0  0  0  0  0  0  0  0
  148.3425  132.4862  152.1311 H   0  0  0  0  0  0  0  0  0  0  0  0
  147.6829  130.4592  153.4205 H   0  0  0  0  0  0  0  0  0  0  0  0
  146.0234  131.0247  153.5176 H   0  0  0  0  0  0  0  0  0  0  0  0
  145.2503  128.9516  152.2493 H   0  0  0  0  0  0  0  0  0  0  0  0
  146.9401  128.4322  152.2249 H   0  0  0  0  0  0  0  0  0  0  0  0
  146.0482  128.5902  150.7134 H   0  0  0  0  0  0  0  0  0  0  0  0
  145.5242  130.8409  149.8309 H   0  0  0  0  0  0  0  0  0  0  0  0
  144.7042  131.2711  151.3226 H   0  0  0  0  0  0  0  0  0  0  0  0
  147.1152  132.7373  150.0999 H   0  0  0  0  0  0  0  0  0  0  0  0
  145.4693  133.3336  150.1904 H   0  0  0  0  0  0  0  0  0  0  0  0
  147.4937  130.4304  151.0687 H   0  0  0  0  0  0  0  0  0  0  0  0
  1  2  1  0  0  0  0
  1 20  1  0  0  0  0
  1 21  1  0  0  0  0
  1 22  1  0  0  0  0
  2 19  1  0  0  0  0
  2  3  2  0  0  0  0
  3  4  1  0  0  0  0
  3 23  1  0  0  0  0
  4  5  2  0  0  0  0
  4 24  1  0  0  0  0
  5  6  1  0  0  0  0
  5 25  1  0  0  0  0
  6  7  1  0  0  0  0
  6 19  2  0  0  0  0
  7  8  1  0  0  0  0
  7 26  1  0  0  0  0
  8  9  2  0  0  0  0
  8 10  1  0  0  0  0
 10 11  1  0  0  0  0
 10 27  1  0  0  0  0
 11 12  1  0  0  0  0
 11 28  1  0  0  0  0
 11 29  1  0  0  0  0
 12 18  1  0  0  0  0
 12 13  1  0  0  0  0
 12 30  1  0  0  0  0
 13 14  1  0  0  0  0
 13 31  1  0  0  0  0
 13 32  1  0  0  0  0
 14 15  1  0  0  0  0
 14 16  1  0  0  0  0
 14 40  1  0  0  0  0
 15 33  1  0  0  0  0
 15 34  1  0  0  0  0
 15 35  1  0  0  0  0
 16 17  1  0  0  0  0
 16 36  1  0  0  0  0
 16 37  1  0  0  0  0
 17 18  1  0  0  0  0
 17 38  1  0  0  0  0
 17 39  1  0  0  0  0
M  CHG  1  14   1
M  END
> <s_m_source_file>
AV-unprocessed.smi

> <i_m_source_file_index>
2302

> <i_lp_mmshare_version>
43012

> <i_f3d_flags>
0

> <s_epik_input>
W0NIM11jMVtjSF1bY0hdW2NIXWMobjEpW05IXUMoPU8pW05IXVtDSDJdW0NAQEhdMltDSDJdTihbQ0gzXSlbQ0gyXVtDSDJdTzI=

> <s_epik_cmdline>
J2VwaWtfcHl0aG9uJywgJy1waCcsICc3LjAnLCAnLXRuJywgJzgnLCAnLW1hJywgJzIwMCcsICctbWV0YWxfYmluZGluZycsICctaW1hZScsICc8aW5maWxlLm1hZT4nLCAnLW9tYWUnLCAnPG91dGZpbGUubWFlPic=

> <r_epik_Ionization_Penalty>
0.204647

> <r_epik_Ionization_Penalty_Charging>
0.204578

> <r_epik_Ionization_Penalty_Neutral>
6.91954e-05

> <r_epik_State_Penalty>
0.194513

> <r_epik_Charging_Adjusted_Penalty>
0.399091

> <i_epik_Tot_Q>
1

> <i_epik_Tot_abs_Q>
1

> <r_epik_Metal_State_Penalty>
0.194515

> <b_epik_Metal_Only>
0

> <s_lp_Force_Field>
OPLS_2005

> <r_lp_Energy>
15.833

> <b_lp_Chiralities_Consistent>
1

> <s_lp_Variant>
AV-unprocessed.smi:2302-4

> <Gold.Version>
5.8.1

> <Gold.Id.Protein>
6NUR|6NUR_protein|mol2

> <Gold.PLP.Fitness>
39.0153

> <Gold.PLP.PLP>
-30.6344

> <Gold.PLP.part.hbond>
-3.4969

> <Gold.PLP.part.metal>
0.0000

> <Gold.PLP.part.buried>
-3.8845

> <Gold.PLP.part.nonpolar>
-24.3695

> <Gold.PLP.part.repulsive>
0.2391

> <Gold.PLP.ligand.clash>
0.0000

> <Gold.PLP.ligand.torsion>
0.3106

> <Gold.PLP.Chemscore.Hbond>
3.0000

> <Gold.PLP.Chemscore.CHOScore>
0.0000

> <Gold.PLP.Chemscore.Metal>
0.0000

> <Gold.Chemscore.Hbonds>
donor molecule, donor type, donor heavy atom, donor atom, acceptor molecule, acceptor atom, score
      L1  H     7    26       P1  7948  1.00
      L1  H    10    27       P1  7948  0.99
      L1  H    14    40       P1 10747  1.00

> <Gold.PLP.Chemscore.Internal.Correction>
0.0022

> <Gold.Rescore>
     Score         DG    S(hbond)    S(metal)    S(lipo)     H(rot)  DE(clash)    DE(int)     intcor
     18.50     -20.12       2.70        0.00      75.89       1.27       0.01       1.61       ----

> <Gold.Chemscore.Fitness>
18.5033

> <Gold.Chemscore.DG>
-20.1221

> <Gold.Chemscore.ZeroCoef>
-5.4800

> <Gold.Chemscore.Hbond>
2.7015

> <Gold.Chemscore.Metal>
0.0000

> <Gold.Chemscore.Lipo>
75.8910

> <Gold.Chemscore.Internal_Hbond>
0.0000

> <Gold.Chemscore.DEClash>
0.0053

> <Gold.Chemscore.DEInternal>
1.6135

> <Gold.Chemscore.Rot>
1.2736

> <Gold.Chemscore.Internal.Correction>
   9.000000E+99

> <Gold.Chemscore.Hbonds>
donor molecule, donor type, donor heavy atom, donor atom, acceptor molecule, acceptor atom, score
      L1  H     7    26       P1  7948  0.29
      L1  H    10    27       P1  7948  0.66
      L1  H    14    40       P1 10747  1.00

> <Gold.Chemscore.Hbond.Weighted>
-9.0232

> <Gold.Chemscore.Metal.Weighted>
-0.0000

> <Gold.Chemscore.Lipo.Weighted>
-8.8792

> <Gold.Chemscore.Internal_Hbond.Weighted>
0.0000

> <Gold.Chemscore.DEClash.Weighted>
0.0053

> <Gold.Chemscore.DEInternal.Weighted>
1.6135

> <Gold.Chemscore.Rot.Weighted>
3.2603

> <Gold.Chemscore.Internal.Correction.Weighted>
   9.000000E+99

> <Gold.Protein.RotatedTorsions>
[ 6907 6896 6895 6894 ] final -122.80 input  -60.11 | X-H torsion
[ 7974 7965 7964 7962 ] final  141.84 input  175.53 | X-H torsion
[ 8008 7997 7996 7995 ] final  -70.97 input   59.86 | X-H torsion
[ 10167 10162 10161 10158 ] final  -42.11 input  -65.29 | X-H torsion
[ 10718 10713 10712 10709 ] final  126.29 input   66.30 | X-H torsion
[ 10763 10752 10751 10750 ] final  -69.15 input  -60.55 | X-H torsion
[ 11005 11000 10999 10996 ] final -163.62 input  -57.11 | X-H torsion

> <Gold.Protein.ActiveResidues>
 VAL166  LYS551  ARG553  GLY616  TRP617  ASP618  TYR619  PRO620  LYS621  CYS622 
 ASP623  PHE694  ASN695  SER759  ASP760  ASP761  ALA762  ILE779  LEU786  VAL792 
 PHE793  MET794  SER795  GLU796  ALA797  LYS798  CYS799  TRP800  GLU811  SER814 

> <Gold.Protein.RotatedAtoms>
  150.8610  133.7644  159.2992 H   0  0  0  0  0  0  0  0  0  0  0  0  # atno 6907 bound_to 6896
  151.5286  135.1066  159.9906 H   0  0  0  0  0  0  0  0  0  0  0  0  # atno 6908 bound_to 6896
  152.4626  133.7810  159.6906 H   0  0  0  0  0  0  0  0  0  0  0  0  # atno 6909 bound_to 6896
  144.9061  139.5357  143.5731 H   0  0  0  0  0  0  0  0  0  0  0  0  # atno 7974 bound_to 7965
  154.5052  140.0824  156.7879 H   0  0  0  0  0  0  0  0  0  0  0  0  # atno 8008 bound_to 7997
  155.3910  140.3432  155.4233 H   0  0  0  0  0  0  0  0  0  0  0  0  # atno 8009 bound_to 7997
  156.1506  140.1557  156.8763 H   0  0  0  0  0  0  0  0  0  0  0  0  # atno 8010 bound_to 7997
  140.6980  143.3056  151.3162 H   0  0  0  0  0  0  0  0  0  0  0  0  # atno 10167 bound_to 10162
  157.5431  131.1096  150.8826 H   0  0  0  0  0  0  0  0  0  0  0  0  # atno 10718 bound_to 10713
  154.3992  135.6035  153.5887 H   0  0  0  0  0  0  0  0  0  0  0  0  # atno 10763 bound_to 10752
  152.9788  135.5902  154.4204 H   0  0  0  0  0  0  0  0  0  0  0  0  # atno 10764 bound_to 10752
  154.4000  135.2843  155.2080 H   0  0  0  0  0  0  0  0  0  0  0  0  # atno 10765 bound_to 10752
  140.5961  134.4995  157.5199 H   0  0  0  0  0  0  0  0  0  0  0  0  # atno 11005 bound_to 11000
  146.3134  139.7829  142.9002 LP  0  0  0  0  0  0  0  0  0  0  0  0  # atno 17320 bound_to 7965
  145.3534  141.0312  143.3326 LP  0  0  0  0  0  0  0  0  0  0  0  0  # atno 17321 bound_to 7965
  139.6461  144.0449  152.2591 LP  0  0  0  0  0  0  0  0  0  0  0  0  # atno 17342 bound_to 10162
  139.9970  144.6321  150.7763 LP  0  0  0  0  0  0  0  0  0  0  0  0  # atno 17343 bound_to 10162
  156.9372  130.5371  149.5279 LP  0  0  0  0  0  0  0  0  0  0  0  0  # atno 17370 bound_to 10713
  156.0513  130.5582  150.8996 LP  0  0  0  0  0  0  0  0  0  0  0  0  # atno 17371 bound_to 10713
  139.9253  134.8069  156.1088 LP  0  0  0  0  0  0  0  0  0  0  0  0  # atno 17394 bound_to 11000
  141.0903  133.6717  156.2526 LP  0  0  0  0  0  0  0  0  0  0  0  0  # atno 17395 bound_to 11000

$$$$
