AV-unprocessed.smi:102|AV-procd|sdf|971|dock7
  -GOLD-   2262017523D 1   1.00000     0.00000
 Structure written by MMmdl.
 43 44  0  0  0  0  0  0  0  0  2 V2000
  146.5950  139.2098  152.2314 C   0  0  0  0  0  0  0  0  0  0  0  0
  147.4470  139.2949  153.4910 C   0  0  0  0  0  0  0  0  0  0  0  0
  147.8247  140.3771  153.9405 O   0  0  0  0  0  0  0  0  0  0  0  0
  147.7145  138.0878  154.0112 O   0  0  0  0  0  0  0  0  0  0  0  0
  148.6423  137.9759  155.0777 C   0  0  0  0  0  0  0  0  0  0  0  0
  148.5601  136.5679  155.6829 C   0  0  2  0  0  0  0  0  0  0  0  0
  147.7331  136.5478  156.8354 O   0  0  0  0  0  0  0  0  0  0  0  0
  148.0186  135.3874  157.5482 C   0  0  2  0  0  0  0  0  0  0  0  0
  147.7897  135.6770  159.0158 N   0  0  0  0  0  0  0  0  0  0  0  0
  147.3781  134.6632  159.8654 C   0  0  0  0  0  0  0  0  0  0  0  0
  147.2390  134.8676  161.1906 C   0  0  0  0  0  0  0  0  0  0  0  0
  146.8349  133.8612  161.9846 F   0  0  0  0  0  0  0  0  0  0  0  0
  147.5495  136.1790  161.7545 C   0  0  0  0  0  0  0  0  0  0  0  0
  147.3903  136.3717  162.9590 O   0  0  0  0  0  0  0  0  0  0  0  0
  148.0167  137.1406  160.9073 N   0  5  0  0  0  0  0  0  0  0  0  0
  148.1755  136.9318  159.5669 C   0  0  0  0  0  0  0  0  0  0  0  0
  148.6360  137.7876  158.8116 O   0  0  0  0  0  0  0  0  0  0  0  0
  149.4702  134.9734  157.2310 C   0  0  1  0  0  0  0  0  0  0  0  0
  149.5167  133.6701  156.6652 O   0  0  0  0  0  0  0  0  0  0  0  0
  150.7021  133.0848  156.4203 C   0  0  0  0  0  0  0  0  0  0  0  0
  150.6424  132.1248  155.2399 C   0  0  0  0  0  0  0  0  0  0  0  0
  151.7446  133.2664  157.0497 O   0  0  0  0  0  0  0  0  0  0  0  0
  149.8933  136.0014  156.1860 C   0  0  2  0  0  0  0  0  0  0  0  0
  150.6936  137.0165  156.7839 O   0  0  0  0  0  0  0  0  0  0  0  0
  152.0131  136.8286  156.9586 C   0  0  0  0  0  0  0  0  0  0  0  0
  152.6842  138.0220  157.6250 C   0  0  0  0  0  0  0  0  0  0  0  0
  152.6511  135.8249  156.6410 O   0  0  0  0  0  0  0  0  0  0  0  0
  145.7396  138.5538  152.3945 H   0  0  0  0  0  0  0  0  0  0  0  0
  147.1834  138.8144  151.4032 H   0  0  0  0  0  0  0  0  0  0  0  0
  146.2245  140.1964  151.9523 H   0  0  0  0  0  0  0  0  0  0  0  0
  149.6460  138.1513  154.6880 H   0  0  0  0  0  0  0  0  0  0  0  0
  148.4477  138.7326  155.8392 H   0  0  0  0  0  0  0  0  0  0  0  0
  148.1455  135.8726  154.9505 H   0  0  0  0  0  0  0  0  0  0  0  0
  147.3211  134.6038  157.2513 H   0  0  0  0  0  0  0  0  0  0  0  0
  147.1730  133.6793  159.4728 H   0  0  0  0  0  0  0  0  0  0  0  0
  150.1106  135.0193  158.1119 H   0  0  0  0  0  0  0  0  0  0  0  0
  150.3133  132.6481  154.3421 H   0  0  0  0  0  0  0  0  0  0  0  0
  149.9429  131.3148  155.4467 H   0  0  0  0  0  0  0  0  0  0  0  0
  151.6248  131.6927  155.0479 H   0  0  0  0  0  0  0  0  0  0  0  0
  150.4428  135.5449  155.3609 H   0  0  0  0  0  0  0  0  0  0  0  0
  152.5760  138.9119  157.0048 H   0  0  0  0  0  0  0  0  0  0  0  0
  153.7472  137.8311  157.7742 H   0  0  0  0  0  0  0  0  0  0  0  0
  152.2285  138.2179  158.5959 H   0  0  0  0  0  0  0  0  0  0  0  0
  1  2  1  0  0  0  0
  1 28  1  0  0  0  0
  1 29  1  0  0  0  0
  1 30  1  0  0  0  0
  2  3  2  0  0  0  0
  2  4  1  0  0  0  0
  4  5  1  0  0  0  0
  5  6  1  0  0  0  0
  5 31  1  0  0  0  0
  5 32  1  0  0  0  0
  6 23  1  0  0  0  0
  6  7  1  0  0  0  0
  6 33  1  0  0  0  0
  7  8  1  0  0  0  0
  8  9  1  0  0  0  0
  8 18  1  0  0  0  0
  8 34  1  0  0  0  0
  9 16  1  0  0  0  0
  9 10  1  0  0  0  0
 10 11  2  0  0  0  0
 10 35  1  0  0  0  0
 11 12  1  0  0  0  0
 11 13  1  0  0  0  0
 13 14  2  0  0  0  0
 13 15  1  0  0  0  0
 15 16  1  0  0  0  0
 16 17  2  0  0  0  0
 18 19  1  0  0  0  0
 18 23  1  0  0  0  0
 18 36  1  0  0  0  0
 19 20  1  0  0  0  0
 20 21  1  0  0  0  0
 20 22  2  0  0  0  0
 21 37  1  0  0  0  0
 21 38  1  0  0  0  0
 21 39  1  0  0  0  0
 23 24  1  0  0  0  0
 23 40  1  0  0  0  0
 24 25  1  0  0  0  0
 25 26  1  0  0  0  0
 25 27  2  0  0  0  0
 26 41  1  0  0  0  0
 26 42  1  0  0  0  0
 26 43  1  0  0  0  0
M  CHG  1  15  -1
M  END
> <s_m_source_file>
AV-unprocessed.smi

> <i_m_source_file_index>
102

> <i_lp_mmshare_version>
43012

> <i_f3d_flags>
0

> <s_epik_input>
W0NIM11DKD1PKU9bQ0gyXVtDQEBIXTFPW0NASF0oW0NAQEhdKE9DKD1PKVtDSDNdKVtDQEhdMU9DKD1PKVtDSDNdKW4yW2NIXWMoRiljKD1PKVtuSF1jMj1P

> <s_epik_cmdline>
J2VwaWtfcHl0aG9uJywgJy1waCcsICc3LjAnLCAnLXRuJywgJzgnLCAnLW1hJywgJzIwMCcsICctbWV0YWxfYmluZGluZycsICctaW1hZScsICc8aW5maWxlLm1hZT4nLCAnLW9tYWUnLCAnPG91dGZpbGUubWFlPic=

> <r_epik_Ionization_Penalty>
1.40304

> <r_epik_Ionization_Penalty_Charging>
1.43915e-08

> <r_epik_Ionization_Penalty_Neutral>
1.40304

> <r_epik_State_Penalty>
1.48536

> <r_epik_Charging_Adjusted_Penalty>
1.48536

> <i_epik_Tot_Q>
-1

> <i_epik_Tot_abs_Q>
1

> <r_epik_Metal_State_Penalty>
0.00663881

> <b_epik_Metal_Only>
0

> <s_epik_Chemistry_Notes>
This compound has an ester and may undergo hydrolysis at high or low pH. This compound contains an acetal/aminal-like group ( X-CH(R)-Y where X, Y are N, S, or O) that may be acid/base labile, releasing an aldehyde.

> <s_lp_Force_Field>
OPLS_2005

> <r_lp_Energy>
22.9576

> <b_lp_Chiralities_Consistent>
1

> <s_lp_Variant>
AV-unprocessed.smi:102-27

> <Gold.Version>
5.8.1

> <Gold.Id.Protein>
6NUR|6NUR_protein|mol2

> <Gold.PLP.Fitness>
41.3178

> <Gold.PLP.PLP>
-29.5763

> <Gold.PLP.part.hbond>
-4.0933

> <Gold.PLP.part.metal>
0.0000

> <Gold.PLP.part.buried>
-4.6534

> <Gold.PLP.part.nonpolar>
-22.3048

> <Gold.PLP.part.repulsive>
1.1209

> <Gold.PLP.ligand.clash>
0.0000

> <Gold.PLP.ligand.torsion>
1.8743

> <Gold.PLP.Chemscore.Hbond>
5.0986

> <Gold.PLP.Chemscore.CHOScore>
0.0000

> <Gold.PLP.Chemscore.Metal>
0.0000

> <Gold.Chemscore.Hbonds>
donor molecule, donor type, donor heavy atom, donor atom, acceptor molecule, acceptor atom, score
      P1  H  6896  6907       L1    22  0.39
      P1  H  6931  6943       L1    15  1.86
      P1  H  6934  6947       L1    15  1.42
      P1  H 10752 10764       L1    27  1.00

> <Gold.PLP.Chemscore.Internal.Correction>
0.1944

> <Gold.Rescore>
     Score         DG    S(hbond)    S(metal)    S(lipo)     H(rot)  DE(clash)    DE(int)     intcor
      4.24      -9.27       2.86        0.00      38.29       4.00       0.25       4.79       ----

> <Gold.Chemscore.Fitness>
4.2386

> <Gold.Chemscore.DG>
-9.2739

> <Gold.Chemscore.ZeroCoef>
-5.4800

> <Gold.Chemscore.Hbond>
2.8567

> <Gold.Chemscore.Metal>
0.0000

> <Gold.Chemscore.Lipo>
38.2899

> <Gold.Chemscore.Internal_Hbond>
0.0000

> <Gold.Chemscore.DEClash>
0.2481

> <Gold.Chemscore.DEInternal>
4.7872

> <Gold.Chemscore.Rot>
3.9951

> <Gold.Chemscore.Internal.Correction>
   9.000000E+99

> <Gold.Chemscore.Hbonds>
donor molecule, donor type, donor heavy atom, donor atom, acceptor molecule, acceptor atom, score
      P1  H  6896  6907       L1    22  0.38
      P1  H  6931  6943       L1    15  0.55
      P1  H  6934  6947       L1    15  0.19
      P1  H 10752 10764       L1    27  0.99

> <Gold.Chemscore.Hbond.Weighted>
-9.5414

> <Gold.Chemscore.Metal.Weighted>
-0.0000

> <Gold.Chemscore.Lipo.Weighted>
-4.4799

> <Gold.Chemscore.Internal_Hbond.Weighted>
0.0000

> <Gold.Chemscore.DEClash.Weighted>
0.2481

> <Gold.Chemscore.DEInternal.Weighted>
4.7872

> <Gold.Chemscore.Rot.Weighted>
10.2274

> <Gold.Chemscore.Internal.Correction.Weighted>
   9.000000E+99

> <Gold.Protein.RotatedTorsions>
[ 6907 6896 6895 6894 ] final -175.86 input  -60.11 | X-H torsion
[ 7974 7965 7964 7962 ] final   90.02 input  175.53 | X-H torsion
[ 8008 7997 7996 7995 ] final   87.65 input   59.86 | X-H torsion
[ 10167 10162 10161 10158 ] final  -25.06 input  -65.29 | X-H torsion
[ 10718 10713 10712 10709 ] final   33.69 input   66.30 | X-H torsion
[ 10763 10752 10751 10750 ] final  -14.76 input  -60.55 | X-H torsion
[ 11005 11000 10999 10996 ] final  136.96 input  -57.11 | X-H torsion

> <Gold.Protein.ActiveResidues>
 VAL166  LYS551  ARG553  GLY616  TRP617  ASP618  TYR619  PRO620  LYS621  CYS622 
 ASP623  PHE694  ASN695  SER759  ASP760  ASP761  ALA762  ILE779  LEU786  VAL792 
 PHE793  MET794  SER795  GLU796  ALA797  LYS798  CYS799  TRP800  GLU811  SER814 

> <Gold.Protein.RotatedAtoms>
  151.5955  133.3362  159.3036 H   0  0  0  0  0  0  0  0  0  0  0  0  # atno 6907 bound_to 6896
  150.8236  134.7460  159.6805 H   0  0  0  0  0  0  0  0  0  0  0  0  # atno 6908 bound_to 6896
  152.4328  134.5751  159.9983 H   0  0  0  0  0  0  0  0  0  0  0  0  # atno 6909 bound_to 6896
  145.5246  139.2280  143.2652 H   0  0  0  0  0  0  0  0  0  0  0  0  # atno 7974 bound_to 7965
  155.9780  140.3380  155.6636 H   0  0  0  0  0  0  0  0  0  0  0  0  # atno 8008 bound_to 7997
  155.6587  140.0713  157.2580 H   0  0  0  0  0  0  0  0  0  0  0  0  # atno 8009 bound_to 7997
  154.4184  140.1712  156.1740 H   0  0  0  0  0  0  0  0  0  0  0  0  # atno 8010 bound_to 7997
  140.7287  143.4298  151.0819 H   0  0  0  0  0  0  0  0  0  0  0  0  # atno 10167 bound_to 10162
  157.3010  130.7351  149.6667 H   0  0  0  0  0  0  0  0  0  0  0  0  # atno 10718 bound_to 10713
  153.5332  135.7014  153.5673 H   0  0  0  0  0  0  0  0  0  0  0  0  # atno 10763 bound_to 10752
  153.3671  135.3954  155.1761 H   0  0  0  0  0  0  0  0  0  0  0  0  # atno 10764 bound_to 10752
  154.8682  135.3803  154.4830 H   0  0  0  0  0  0  0  0  0  0  0  0  # atno 10765 bound_to 10752
  140.0081  134.9450  157.0219 H   0  0  0  0  0  0  0  0  0  0  0  0  # atno 11005 bound_to 11000
  146.2084  140.6060  142.9071 LP  0  0  0  0  0  0  0  0  0  0  0  0  # atno 17320 bound_to 7965
  144.7658  140.5526  143.6704 LP  0  0  0  0  0  0  0  0  0  0  0  0  # atno 17321 bound_to 7965
  139.7954  143.8159  152.3157 LP  0  0  0  0  0  0  0  0  0  0  0  0  # atno 17342 bound_to 10162
  139.8157  144.7317  150.9638 LP  0  0  0  0  0  0  0  0  0  0  0  0  # atno 17343 bound_to 10162
  155.9671  130.4280  150.4768 LP  0  0  0  0  0  0  0  0  0  0  0  0  # atno 17370 bound_to 10713
  157.2749  131.0595  151.2236 LP  0  0  0  0  0  0  0  0  0  0  0  0  # atno 17371 bound_to 10713
  140.4604  134.1490  155.7190 LP  0  0  0  0  0  0  0  0  0  0  0  0  # atno 17394 bound_to 11000
  141.1692  133.8643  157.1624 LP  0  0  0  0  0  0  0  0  0  0  0  0  # atno 17395 bound_to 11000

$$$$
