AV-unprocessed.smi:2583|AV-procd|sdf|10137|dock9
  -GOLD-   2272014153D 1   1.00000     0.00000
 Structure written by MMmdl.
 55 57  0  0  0  0  0  0  0  0  3 V2000
  153.5325  141.5571  160.2438 C   0  0  0  0  0  0  0  0  0  0  0  0
  152.8309  142.4396  159.2327 C   0  0  0  0  0  0  0  0  0  0  0  0
  153.0921  143.8239  159.1697 C   0  0  0  0  0  0  0  0  0  0  0  0
  152.5048  144.6481  158.2768 N   0  0  0  0  0  0  0  0  0  0  0  0
  151.6199  144.1128  157.4093 C   0  0  0  0  0  0  0  0  0  0  0  0
  151.2693  142.7464  157.3929 C   0  0  0  0  0  0  0  0  0  0  0  0
  150.3361  142.3045  156.4171 N   0  0  0  0  0  0  0  0  0  0  0  0
  150.1504  141.0559  155.9557 C   0  0  0  0  0  0  0  0  0  0  0  0
  150.7523  140.0567  156.3487 O   0  0  0  0  0  0  0  0  0  0  0  0
  149.1941  141.0188  155.0162 N   0  0  0  0  0  0  0  0  0  0  0  0
  148.7384  139.8098  154.3357 C   0  0  2  0  0  0  0  0  0  0  0  0
  147.4681  140.1007  153.5276 C   0  0  0  0  0  0  0  0  0  0  0  0
  146.9245  138.8256  152.8587 C   0  0  0  0  0  0  0  0  0  0  0  0
  146.6554  137.7456  153.8540 N   0  3  1  0  0  0  0  0  0  0  0  0
  146.0267  136.4997  153.2966 C   0  0  2  0  0  0  0  0  0  0  0  0
  144.8932  136.7251  152.2636 C   0  0  0  0  0  0  0  0  0  0  0  0
  143.6136  137.2946  152.9054 C   0  0  0  0  0  0  0  0  0  0  0  0
  143.1283  136.4140  153.9957 N   0  3  2  0  0  0  0  0  0  0  0  0
  141.8501  136.8833  154.5728 C   0  0  0  0  0  0  0  0  0  0  0  0
  144.1667  136.1842  155.0302 C   0  0  0  0  0  0  0  0  0  0  0  0
  145.4467  135.5936  154.4096 C   0  0  0  0  0  0  0  0  0  0  0  0
  147.8894  137.4453  154.6382 C   0  0  0  0  0  0  0  0  0  0  0  0
  148.4395  138.6929  155.3464 C   0  0  0  0  0  0  0  0  0  0  0  0
  151.9041  141.8901  158.3242 C   0  0  0  0  0  0  0  0  0  0  0  0
  154.0702  142.1517  160.9829 H   0  0  0  0  0  0  0  0  0  0  0  0
  154.2479  140.9053  159.7418 H   0  0  0  0  0  0  0  0  0  0  0  0
  152.8094  140.9333  160.7700 H   0  0  0  0  0  0  0  0  0  0  0  0
  153.7960  144.2839  159.8476 H   0  0  0  0  0  0  0  0  0  0  0  0
  151.1723  144.8017  156.7077 H   0  0  0  0  0  0  0  0  0  0  0  0
  149.6987  143.0090  156.0759 H   0  0  0  0  0  0  0  0  0  0  0  0
  148.7501  141.8876  154.7557 H   0  0  0  0  0  0  0  0  0  0  0  0
  149.5133  139.4716  153.6445 H   0  0  0  0  0  0  0  0  0  0  0  0
  146.7013  140.5232  154.1789 H   0  0  0  0  0  0  0  0  0  0  0  0
  147.6752  140.8541  152.7665 H   0  0  0  0  0  0  0  0  0  0  0  0
  146.0142  139.1148  152.3372 H   0  0  0  0  0  0  0  0  0  0  0  0
  147.6267  138.4630  152.1063 H   0  0  0  0  0  0  0  0  0  0  0  0
  146.8174  135.9521  152.7808 H   0  0  0  0  0  0  0  0  0  0  0  0
  145.2172  137.3366  151.4220 H   0  0  0  0  0  0  0  0  0  0  0  0
  144.6444  135.7624  151.8142 H   0  0  0  0  0  0  0  0  0  0  0  0
  143.7915  138.2964  153.2982 H   0  0  0  0  0  0  0  0  0  0  0  0
  142.8378  137.3873  152.1443 H   0  0  0  0  0  0  0  0  0  0  0  0
  141.9694  137.8563  155.0517 H   0  0  0  0  0  0  0  0  0  0  0  0
  141.4818  136.1778  155.3183 H   0  0  0  0  0  0  0  0  0  0  0  0
  141.0882  136.9746  153.7981 H   0  0  0  0  0  0  0  0  0  0  0  0
  144.3908  137.1211  155.5423 H   0  0  0  0  0  0  0  0  0  0  0  0
  143.7793  135.4973  155.7836 H   0  0  0  0  0  0  0  0  0  0  0  0
  145.2057  134.6199  153.9801 H   0  0  0  0  0  0  0  0  0  0  0  0
  146.1726  135.3832  155.1925 H   0  0  0  0  0  0  0  0  0  0  0  0
  147.7010  136.6871  155.3952 H   0  0  0  0  0  0  0  0  0  0  0  0
  148.6506  137.0343  153.9728 H   0  0  0  0  0  0  0  0  0  0  0  0
  149.3453  138.4308  155.8951 H   0  0  0  0  0  0  0  0  0  0  0  0
  147.7183  139.0405  156.0879 H   0  0  0  0  0  0  0  0  0  0  0  0
  151.7096  140.8287  158.3461 H   0  0  0  0  0  0  0  0  0  0  0  0
  145.9865  138.1344  154.5030 H   0  0  0  0  0  0  0  0  0  0  0  0
  142.9359  135.5152  153.5761 H   0  0  0  0  0  0  0  0  0  0  0  0
  1  2  1  0  0  0  0
  1 25  1  0  0  0  0
  1 26  1  0  0  0  0
  1 27  1  0  0  0  0
  2 24  1  0  0  0  0
  2  3  2  0  0  0  0
  3  4  1  0  0  0  0
  3 28  1  0  0  0  0
  4  5  2  0  0  0  0
  5  6  1  0  0  0  0
  5 29  1  0  0  0  0
  6  7  1  0  0  0  0
  6 24  2  0  0  0  0
  7  8  1  0  0  0  0
  7 30  1  0  0  0  0
  8  9  2  0  0  0  0
  8 10  1  0  0  0  0
 10 11  1  0  0  0  0
 10 31  1  0  0  0  0
 11 23  1  0  0  0  0
 11 12  1  0  0  0  0
 11 32  1  0  0  0  0
 12 13  1  0  0  0  0
 12 33  1  0  0  0  0
 12 34  1  0  0  0  0
 13 14  1  0  0  0  0
 13 35  1  0  0  0  0
 13 36  1  0  0  0  0
 14 15  1  0  0  0  0
 14 22  1  0  0  0  0
 14 54  1  0  0  0  0
 15 21  1  0  0  0  0
 15 16  1  0  0  0  0
 15 37  1  0  0  0  0
 16 17  1  0  0  0  0
 16 38  1  0  0  0  0
 16 39  1  0  0  0  0
 17 18  1  0  0  0  0
 17 40  1  0  0  0  0
 17 41  1  0  0  0  0
 18 19  1  0  0  0  0
 18 20  1  0  0  0  0
 18 55  1  0  0  0  0
 19 42  1  0  0  0  0
 19 43  1  0  0  0  0
 19 44  1  0  0  0  0
 20 21  1  0  0  0  0
 20 45  1  0  0  0  0
 20 46  1  0  0  0  0
 21 47  1  0  0  0  0
 21 48  1  0  0  0  0
 22 23  1  0  0  0  0
 22 49  1  0  0  0  0
 22 50  1  0  0  0  0
 23 51  1  0  0  0  0
 23 52  1  0  0  0  0
 24 53  1  0  0  0  0
M  CHG  1  14   1
M  CHG  1  18   1
M  END
> <s_m_source_file>
AV-unprocessed.smi

> <i_m_source_file_index>
2583

> <i_lp_mmshare_version>
43012

> <i_f3d_flags>
0

> <s_epik_input>
W0NIM11jMVtjSF1uW2NIXWMoW2NIXTEpW05IXUMoPU8pW05IXVtDSF0yW0NIMl1bQ0gyXU4oW0NIMl1bQ0gyXTIpW0NIXTNbQ0gyXVtDSDJdTihbQ0gzXSlbQ0gyXVtDSDJdMw==

> <s_epik_cmdline>
J2VwaWtfcHl0aG9uJywgJy1waCcsICc3LjAnLCAnLXRuJywgJzgnLCAnLW1hJywgJzIwMCcsICctbWV0YWxfYmluZGluZycsICctaW1hZScsICc8aW5maWxlLm1hZT4nLCAnLW9tYWUnLCAnPG91dGZpbGUubWFlPic=

> <r_epik_Ionization_Penalty>
0.188357

> <r_epik_Ionization_Penalty_Charging>
0.180787

> <r_epik_Ionization_Penalty_Neutral>
0.00756971

> <r_epik_State_Penalty>
0.157948

> <r_epik_Charging_Adjusted_Penalty>
0.338735

> <i_epik_Tot_Q>
2

> <i_epik_Tot_abs_Q>
2

> <r_epik_Metal_State_Penalty>
0.153874

> <b_epik_Metal_Only>
0

> <s_lp_Force_Field>
OPLS_2005

> <r_lp_Energy>
48.801

> <b_lp_Chiralities_Consistent>
1

> <s_lp_Variant>
AV-unprocessed.smi:2583-3

> <Gold.Version>
5.8.1

> <Gold.Id.Protein>
6NUR|6NUR_protein|mol2

> <Gold.PLP.Fitness>
42.7094

> <Gold.PLP.PLP>
-37.4131

> <Gold.PLP.part.hbond>
-1.0000

> <Gold.PLP.part.metal>
0.0000

> <Gold.PLP.part.buried>
-5.1546

> <Gold.PLP.part.nonpolar>
-31.7037

> <Gold.PLP.part.repulsive>
0.2409

> <Gold.PLP.ligand.clash>
0.0000

> <Gold.PLP.ligand.torsion>
0.3685

> <Gold.PLP.Chemscore.Hbond>
1.0000

> <Gold.PLP.Chemscore.CHOScore>
1.0000

> <Gold.PLP.Chemscore.Metal>
0.0000

> <Gold.Chemscore.Hbonds>
donor molecule, donor type, donor heavy atom, donor atom, acceptor molecule, acceptor atom, score
      L1  H     7    30       P1  8028  1.00
      L1  C     5    29       P1  8028  1.00

> <Gold.PLP.Chemscore.Internal.Correction>
0.0332

> <Gold.Rescore>
     Score         DG    S(hbond)    S(metal)    S(lipo)     H(rot)  DE(clash)    DE(int)     intcor
     15.64     -18.33       0.99        0.00     107.95       1.21       0.05       2.64       ----

> <Gold.Chemscore.Fitness>
15.6381

> <Gold.Chemscore.DG>
-18.3333

> <Gold.Chemscore.ZeroCoef>
-5.4800

> <Gold.Chemscore.Hbond>
0.9934

> <Gold.Chemscore.Metal>
0.0000

> <Gold.Chemscore.Lipo>
107.9544

> <Gold.Chemscore.Internal_Hbond>
0.0000

> <Gold.Chemscore.DEClash>
0.0549

> <Gold.Chemscore.DEInternal>
2.6403

> <Gold.Chemscore.Rot>
1.2092

> <Gold.Chemscore.Internal.Correction>
   9.000000E+99

> <Gold.Chemscore.Hbonds>
donor molecule, donor type, donor heavy atom, donor atom, acceptor molecule, acceptor atom, score
      L1  H     7    30       P1  8028  0.99

> <Gold.Chemscore.Hbond.Weighted>
-3.3181

> <Gold.Chemscore.Metal.Weighted>
-0.0000

> <Gold.Chemscore.Lipo.Weighted>
-12.6307

> <Gold.Chemscore.Internal_Hbond.Weighted>
0.0000

> <Gold.Chemscore.DEClash.Weighted>
0.0549

> <Gold.Chemscore.DEInternal.Weighted>
2.6403

> <Gold.Chemscore.Rot.Weighted>
3.0955

> <Gold.Chemscore.Internal.Correction.Weighted>
   9.000000E+99

> <Gold.Protein.RotatedTorsions>
[ 6907 6896 6895 6894 ] final  -90.53 input  -60.11 | X-H torsion
[ 7974 7965 7964 7962 ] final   66.21 input  175.53 | X-H torsion
[ 8008 7997 7996 7995 ] final  148.66 input   59.86 | X-H torsion
[ 10167 10162 10161 10158 ] final  122.99 input  -65.29 | X-H torsion
[ 10718 10713 10712 10709 ] final  116.47 input   66.30 | X-H torsion
[ 10763 10752 10751 10750 ] final -125.31 input  -60.55 | X-H torsion
[ 11005 11000 10999 10996 ] final -133.25 input  -57.11 | X-H torsion

> <Gold.Protein.ActiveResidues>
 VAL166  LYS551  ARG553  GLY616  TRP617  ASP618  TYR619  PRO620  LYS621  CYS622 
 ASP623  PHE694  ASN695  SER759  ASP760  ASP761  ALA762  ILE779  LEU786  VAL792 
 PHE793  MET794  SER795  GLU796  ALA797  LYS798  CYS799  TRP800  GLU811  SER814 

> <Gold.Protein.RotatedAtoms>
  150.6883  134.2418  159.4475 H   0  0  0  0  0  0  0  0  0  0  0  0  # atno 6907 bound_to 6896
  152.0362  134.9736  160.0582 H   0  0  0  0  0  0  0  0  0  0  0  0  # atno 6908 bound_to 6896
  152.1256  133.4343  159.4733 H   0  0  0  0  0  0  0  0  0  0  0  0  # atno 6909 bound_to 6896
  145.8293  139.3129  143.0997 H   0  0  0  0  0  0  0  0  0  0  0  0  # atno 7974 bound_to 7965
  156.2783  140.2122  156.5734 H   0  0  0  0  0  0  0  0  0  0  0  0  # atno 8008 bound_to 7997
  154.7117  140.0511  157.0579 H   0  0  0  0  0  0  0  0  0  0  0  0  # atno 8009 bound_to 7997
  155.0597  140.3165  155.4668 H   0  0  0  0  0  0  0  0  0  0  0  0  # atno 8010 bound_to 7997
  139.5826  144.6993  151.3490 H   0  0  0  0  0  0  0  0  0  0  0  0  # atno 10167 bound_to 10162
  157.6158  131.1026  150.7478 H   0  0  0  0  0  0  0  0  0  0  0  0  # atno 10718 bound_to 10713
  154.8734  135.4034  154.3247 H   0  0  0  0  0  0  0  0  0  0  0  0  # atno 10763 bound_to 10752
  153.4070  135.7019  153.6391 H   0  0  0  0  0  0  0  0  0  0  0  0  # atno 10764 bound_to 10752
  153.5110  135.3707  155.2557 H   0  0  0  0  0  0  0  0  0  0  0  0  # atno 10765 bound_to 10752
  140.9097  134.1584  157.4398 H   0  0  0  0  0  0  0  0  0  0  0  0  # atno 11005 bound_to 11000
  145.9589  140.8851  143.0221 LP  0  0  0  0  0  0  0  0  0  0  0  0  # atno 17320 bound_to 7965
  144.6741  140.1784  143.7408 LP  0  0  0  0  0  0  0  0  0  0  0  0  # atno 17321 bound_to 7965
  140.7102  143.7410  150.7553 LP  0  0  0  0  0  0  0  0  0  0  0  0  # atno 17342 bound_to 10162
  140.0946  143.4845  152.2459 LP  0  0  0  0  0  0  0  0  0  0  0  0  # atno 17343 bound_to 10162
  156.7845  130.4870  149.5395 LP  0  0  0  0  0  0  0  0  0  0  0  0  # atno 17370 bound_to 10713
  156.1280  130.6157  151.0291 LP  0  0  0  0  0  0  0  0  0  0  0  0  # atno 17371 bound_to 10713
  139.8755  134.9931  156.5627 LP  0  0  0  0  0  0  0  0  0  0  0  0  # atno 17394 bound_to 11000
  140.8126  133.8417  155.8823 LP  0  0  0  0  0  0  0  0  0  0  0  0  # atno 17395 bound_to 11000

$$$$
