AV-unprocessed.smi:1011|AV-procd|sdf|4421|dock3
  -GOLD-   22720 2373D 1   1.00000     0.00000
 Structure written by MMmdl.
 44 46  0  0  0  0  0  0  0  0  2 V2000
  144.4739  132.3634  149.1261 C   0  0  0  0  0  0  0  0  0  0  0  0
  144.2304  133.2300  150.3279 C   0  0  0  0  0  0  0  0  0  0  0  0
  143.4666  132.9202  151.4890 C   0  0  0  0  0  0  0  0  0  0  0  0
  143.4459  133.9075  152.3696 N   0  0  0  0  0  0  0  0  0  0  0  0
  144.1958  134.8781  151.8056 N   0  0  0  0  0  0  0  0  0  0  0  0
  144.3876  136.1360  152.5010 C   0  0  0  0  0  0  0  0  0  0  0  0
  145.4957  136.9803  151.8552 C   0  0  0  0  0  0  0  0  0  0  0  0
  145.5592  138.2785  152.5065 N   0  0  0  0  0  0  0  0  0  0  0  0
  146.6104  139.0805  151.9024 C   0  0  0  0  0  0  0  0  0  0  0  0
  147.6588  139.4686  152.8940 C   0  0  0  0  0  0  0  0  0  0  0  0
  148.6940  138.6786  153.2975 N   0  3  0  0  0  0  0  0  0  0  0  0
  149.4840  139.3654  154.2190 C   0  0  0  0  0  0  0  0  0  0  0  0
  150.6342  138.9795  154.9002 C   0  0  0  0  0  0  0  0  0  0  0  0
  151.2043  139.9302  155.7725 C   0  0  0  0  0  0  0  0  0  0  0  0
  152.6331  139.5234  156.6492 Cl  0  0  0  0  0  0  0  0  0  0  0  0
  150.6290  141.2071  155.9394 C   0  0  0  0  0  0  0  0  0  0  0  0
  149.4616  141.5868  155.2445 C   0  0  0  0  0  0  0  0  0  0  0  0
  148.9047  140.6394  154.3860 C   0  0  0  0  0  0  0  0  0  0  0  0
  147.7791  140.6577  153.5545 N   0  0  0  0  0  0  0  0  0  0  0  0
  146.9515  141.8737  153.5008 C   0  0  0  0  0  0  0  0  0  0  0  0
  146.2721  142.1853  154.8446 C   0  0  0  0  0  0  0  0  0  0  0  0
  145.0154  141.5462  154.9317 O   0  0  0  0  0  0  0  0  0  0  0  0
  144.6812  134.4962  150.5730 C   0  0  0  0  0  0  0  0  0  0  0  0
  143.7468  131.5540  149.0569 H   0  0  0  0  0  0  0  0  0  0  0  0
  145.4628  131.9059  149.1547 H   0  0  0  0  0  0  0  0  0  0  0  0
  144.4084  132.9325  148.1987 H   0  0  0  0  0  0  0  0  0  0  0  0
  142.9275  132.0122  151.7156 H   0  0  0  0  0  0  0  0  0  0  0  0
  143.4420  136.6804  152.4980 H   0  0  0  0  0  0  0  0  0  0  0  0
  144.6268  135.9207  153.5436 H   0  0  0  0  0  0  0  0  0  0  0  0
  146.4574  136.4741  151.9510 H   0  0  0  0  0  0  0  0  0  0  0  0
  145.2968  137.1105  150.7904 H   0  0  0  0  0  0  0  0  0  0  0  0
  144.6722  138.7422  152.3696 H   0  0  0  0  0  0  0  0  0  0  0  0
  147.0939  138.5133  151.1058 H   0  0  0  0  0  0  0  0  0  0  0  0
  146.1755  139.9685  151.4443 H   0  0  0  0  0  0  0  0  0  0  0  0
  151.0755  138.0020  154.7712 H   0  0  0  0  0  0  0  0  0  0  0  0
  151.0921  141.9118  156.6148 H   0  0  0  0  0  0  0  0  0  0  0  0
  149.0322  142.5681  155.3804 H   0  0  0  0  0  0  0  0  0  0  0  0
  147.5881  142.7041  153.1954 H   0  0  0  0  0  0  0  0  0  0  0  0
  146.2095  141.7594  152.7102 H   0  0  0  0  0  0  0  0  0  0  0  0
  146.8978  141.8474  155.6710 H   0  0  0  0  0  0  0  0  0  0  0  0
  146.1320  143.2597  154.9655 H   0  0  0  0  0  0  0  0  0  0  0  0
  144.8240  141.1435  154.0982 H   0  0  0  0  0  0  0  0  0  0  0  0
  145.2998  135.1510  149.9766 H   0  0  0  0  0  0  0  0  0  0  0  0
  148.8430  137.7357  152.9612 H   0  0  0  0  0  0  0  0  0  0  0  0
  1  2  1  0  0  0  0
  1 24  1  0  0  0  0
  1 25  1  0  0  0  0
  1 26  1  0  0  0  0
  2 23  2  0  0  0  0
  2  3  1  0  0  0  0
  3  4  2  0  0  0  0
  3 27  1  0  0  0  0
  4  5  1  0  0  0  0
  5  6  1  0  0  0  0
  5 23  1  0  0  0  0
  6  7  1  0  0  0  0
  6 28  1  0  0  0  0
  6 29  1  0  0  0  0
  7  8  1  0  0  0  0
  7 30  1  0  0  0  0
  7 31  1  0  0  0  0
  8  9  1  0  0  0  0
  8 32  1  0  0  0  0
  9 10  1  0  0  0  0
  9 33  1  0  0  0  0
  9 34  1  0  0  0  0
 10 19  1  0  0  0  0
 10 11  2  0  0  0  0
 11 12  1  0  0  0  0
 11 44  1  0  0  0  0
 12 18  2  0  0  0  0
 12 13  1  0  0  0  0
 13 14  2  0  0  0  0
 13 35  1  0  0  0  0
 14 15  1  0  0  0  0
 14 16  1  0  0  0  0
 16 17  2  0  0  0  0
 16 36  1  0  0  0  0
 17 18  1  0  0  0  0
 17 37  1  0  0  0  0
 18 19  1  0  0  0  0
 19 20  1  0  0  0  0
 20 21  1  0  0  0  0
 20 38  1  0  0  0  0
 20 39  1  0  0  0  0
 21 22  1  0  0  0  0
 21 40  1  0  0  0  0
 21 41  1  0  0  0  0
 22 42  1  0  0  0  0
 23 43  1  0  0  0  0
M  CHG  1  11   1
M  END
> <s_m_source_file>
AV-unprocessed.smi

> <i_m_source_file_index>
1011

> <i_lp_mmshare_version>
43012

> <i_f3d_flags>
0

> <s_epik_input>
W0NIM11jMVtjSF1ubihbY0hdMSlbQ0gyXVtDSDJdW05IXVtDSDJdYyhuMiluKFtDSDJdW0NIMl1bT0hdKWMoYzIzKVtjSF1bY0hdYyhDbClbY0hdMw==

> <s_epik_cmdline>
J2VwaWtfcHl0aG9uJywgJy1waCcsICc3LjAnLCAnLXRuJywgJzgnLCAnLW1hJywgJzIwMCcsICctbWV0YWxfYmluZGluZycsICctaW1hZScsICc8aW5maWxlLm1hZT4nLCAnLW9tYWUnLCAnPG91dGZpbGUubWFlPic=

> <r_epik_Ionization_Penalty>
1.62414

> <r_epik_Ionization_Penalty_Charging>
1.50824

> <r_epik_Ionization_Penalty_Neutral>
0.115896

> <r_epik_State_Penalty>
2.25317

> <r_epik_Charging_Adjusted_Penalty>
3.76141

> <i_epik_Tot_Q>
1

> <i_epik_Tot_abs_Q>
1

> <r_epik_Metal_State_Penalty>
2.26539

> <b_epik_Metal_Only>
0

> <s_lp_Force_Field>
OPLS_2005

> <r_lp_Energy>
12.3838

> <b_lp_Chiralities_Consistent>
1

> <s_lp_Variant>
AV-unprocessed.smi:1011-3

> <Gold.Version>
5.8.1

> <Gold.Id.Protein>
6NUR|6NUR_protein|mol2

> <Gold.PLP.Fitness>
60.3874

> <Gold.PLP.PLP>
-47.5239

> <Gold.PLP.part.hbond>
-4.7173

> <Gold.PLP.part.metal>
0.0000

> <Gold.PLP.part.buried>
4.1472

> <Gold.PLP.part.nonpolar>
-47.6743

> <Gold.PLP.part.repulsive>
0.2456

> <Gold.PLP.ligand.clash>
0.0000

> <Gold.PLP.ligand.torsion>
1.0196

> <Gold.PLP.Chemscore.Hbond>
3.9440

> <Gold.PLP.Chemscore.CHOScore>
0.9808

> <Gold.PLP.Chemscore.Metal>
0.0000

> <Gold.Chemscore.Hbonds>
donor molecule, donor type, donor heavy atom, donor atom, acceptor molecule, acceptor atom, score
      L1  H     8    32       P1 10175  0.94
      L1  H    11    44       P1  7948  2.00
      L1  H    22    42       P1 10175  0.89
      L1  C    23    43       P1  7921  0.98

> <Gold.PLP.Chemscore.Internal.Correction>
0.1283

> <Gold.Rescore>
     Score         DG    S(hbond)    S(metal)    S(lipo)     H(rot)  DE(clash)    DE(int)     intcor
     16.31     -20.23       2.62        0.00     115.57       2.93       2.78       1.14       ----

> <Gold.Chemscore.Fitness>
16.3075

> <Gold.Chemscore.DG>
-20.2270

> <Gold.Chemscore.ZeroCoef>
-5.4800

> <Gold.Chemscore.Hbond>
2.6156

> <Gold.Chemscore.Metal>
0.0000

> <Gold.Chemscore.Lipo>
115.5709

> <Gold.Chemscore.Internal_Hbond>
0.0000

> <Gold.Chemscore.DEClash>
2.7824

> <Gold.Chemscore.DEInternal>
1.1371

> <Gold.Chemscore.Rot>
2.9340

> <Gold.Chemscore.Internal.Correction>
   9.000000E+99

> <Gold.Chemscore.Hbonds>
donor molecule, donor type, donor heavy atom, donor atom, acceptor molecule, acceptor atom, score
      L1  H     8    32       P1 10175  0.89
      L1  H    11    44       P1  7948  1.00
      L1  H    22    42       P1 10175  0.63

> <Gold.Chemscore.Hbond.Weighted>
-8.7363

> <Gold.Chemscore.Metal.Weighted>
-0.0000

> <Gold.Chemscore.Lipo.Weighted>
-13.5218

> <Gold.Chemscore.Internal_Hbond.Weighted>
0.0000

> <Gold.Chemscore.DEClash.Weighted>
2.7824

> <Gold.Chemscore.DEInternal.Weighted>
1.1371

> <Gold.Chemscore.Rot.Weighted>
7.5111

> <Gold.Chemscore.Internal.Correction.Weighted>
   9.000000E+99

> <Gold.Protein.RotatedTorsions>
[ 6907 6896 6895 6894 ] final -156.45 input  -60.11 | X-H torsion
[ 7974 7965 7964 7962 ] final   30.94 input  175.53 | X-H torsion
[ 8008 7997 7996 7995 ] final   -7.19 input   59.86 | X-H torsion
[ 10167 10162 10161 10158 ] final   24.54 input  -65.29 | X-H torsion
[ 10718 10713 10712 10709 ] final  153.65 input   66.30 | X-H torsion
[ 10763 10752 10751 10750 ] final -103.31 input  -60.55 | X-H torsion
[ 11005 11000 10999 10996 ] final   49.27 input  -57.11 | X-H torsion

> <Gold.Protein.ActiveResidues>
 VAL166  LYS551  ARG553  GLY616  TRP617  ASP618  TYR619  PRO620  LYS621  CYS622 
 ASP623  PHE694  ASN695  SER759  ASP760  ASP761  ALA762  ILE779  LEU786  VAL792 
 PHE793  MET794  SER795  GLU796  ALA797  LYS798  CYS799  TRP800  GLU811  SER814 

> <Gold.Protein.RotatedAtoms>
  151.2878  133.4179  159.2630 H   0  0  0  0  0  0  0  0  0  0  0  0  # atno 6907 bound_to 6896
  151.0304  134.9535  159.8118 H   0  0  0  0  0  0  0  0  0  0  0  0  # atno 6908 bound_to 6896
  152.5344  134.2839  159.9070 H   0  0  0  0  0  0  0  0  0  0  0  0  # atno 6909 bound_to 6896
  146.1581  139.6722  142.9053 H   0  0  0  0  0  0  0  0  0  0  0  0  # atno 7974 bound_to 7965
  154.5863  140.2413  155.7983 H   0  0  0  0  0  0  0  0  0  0  0  0  # atno 8008 bound_to 7997
  156.2215  140.2996  155.9920 H   0  0  0  0  0  0  0  0  0  0  0  0  # atno 8009 bound_to 7997
  155.2452  140.0408  157.2970 H   0  0  0  0  0  0  0  0  0  0  0  0  # atno 8010 bound_to 7997
  140.5180  144.0051  150.6403 H   0  0  0  0  0  0  0  0  0  0  0  0  # atno 10167 bound_to 10162
  157.2420  131.0761  151.1786 H   0  0  0  0  0  0  0  0  0  0  0  0  # atno 10718 bound_to 10713
  154.7798  135.4828  153.9820 H   0  0  0  0  0  0  0  0  0  0  0  0  # atno 10763 bound_to 10752
  153.1478  135.6785  153.8935 H   0  0  0  0  0  0  0  0  0  0  0  0  # atno 10764 bound_to 10752
  153.8589  135.3158  155.3415 H   0  0  0  0  0  0  0  0  0  0  0  0  # atno 10765 bound_to 10752
  140.1118  134.4945  155.8671 H   0  0  0  0  0  0  0  0  0  0  0  0  # atno 11005 bound_to 11000
  145.4658  141.0434  143.2726 LP  0  0  0  0  0  0  0  0  0  0  0  0  # atno 17320 bound_to 7965
  144.7990  139.6178  143.7080 LP  0  0  0  0  0  0  0  0  0  0  0  0  # atno 17321 bound_to 7965
  140.3391  143.3030  152.0607 LP  0  0  0  0  0  0  0  0  0  0  0  0  # atno 17342 bound_to 10162
  139.4915  144.6455  151.6788 LP  0  0  0  0  0  0  0  0  0  0  0  0  # atno 17343 bound_to 10162
  157.3369  130.7013  149.6358 LP  0  0  0  0  0  0  0  0  0  0  0  0  # atno 17370 bound_to 10713
  155.9669  130.4291  150.4818 LP  0  0  0  0  0  0  0  0  0  0  0  0  # atno 17371 bound_to 10713
  141.2132  133.6730  156.6719 LP  0  0  0  0  0  0  0  0  0  0  0  0  # atno 17394 bound_to 11000
  140.3081  134.8109  157.4153 LP  0  0  0  0  0  0  0  0  0  0  0  0  # atno 17395 bound_to 11000

$$$$
