AV-unprocessed.smi:3279|AV-procd|sdf|12548|dock9
  -GOLD-   2272018463D 1   1.00000     0.00000
 Structure written by MMmdl.
 35 35  0  0  0  0  0  0  0  0  2 V2000
  150.4781  138.1232  154.9502 C   0  0  0  0  0  0  0  0  0  0  0  0
  151.5172  138.8975  155.7756 C   0  0  2  0  0  0  0  0  0  0  0  0
  151.5843  140.3936  155.3944 C   0  0  0  0  0  0  0  0  0  0  0  0
  150.9334  141.2480  156.3825 N   0  0  0  0  0  0  0  0  0  0  0  0
  151.2342  141.2860  157.6893 C   0  0  0  0  0  0  0  0  0  0  0  0
  152.0666  140.5485  158.2170 O   0  0  0  0  0  0  0  0  0  0  0  0
  150.5056  142.3378  158.5219 C   0  0  0  0  0  0  0  0  0  0  0  0
  151.0759  142.3634  159.8278 O   0  0  0  0  0  0  0  0  0  0  0  0
  152.1480  143.2764  160.0756 C   0  0  0  0  0  0  0  0  0  0  0  0
  152.4966  143.3471  161.5760 C   0  0  0  0  0  0  0  0  0  0  0  0
  151.6075  144.6379  159.6104 C   0  0  0  0  0  0  0  0  0  0  0  0
  153.3824  142.8979  159.2334 C   0  0  0  0  0  0  0  0  0  0  0  0
  152.8657  138.2324  155.7358 C   0  0  0  0  0  0  0  0  0  0  0  0
  153.1702  137.1547  156.4751 N   0  0  0  0  0  0  0  0  0  0  0  0
  154.4488  136.9086  156.1595 N   0  0  0  0  0  0  0  0  0  0  0  0
  154.8761  137.8098  155.2671 N   0  0  0  0  0  0  0  0  0  0  0  0
  153.8870  138.6660  154.9793 N   0  5  0  0  0  0  0  0  0  0  0  0
  150.3892  137.0945  155.3007 H   0  0  0  0  0  0  0  0  0  0  0  0
  150.7494  138.0942  153.8945 H   0  0  0  0  0  0  0  0  0  0  0  0
  149.4935  138.5846  155.0275 H   0  0  0  0  0  0  0  0  0  0  0  0
  151.1401  138.8717  156.7995 H   0  0  0  0  0  0  0  0  0  0  0  0
  152.6260  140.7092  155.3264 H   0  0  0  0  0  0  0  0  0  0  0  0
  151.1503  140.5589  154.4070 H   0  0  0  0  0  0  0  0  0  0  0  0
  150.2424  141.8990  156.0373 H   0  0  0  0  0  0  0  0  0  0  0  0
  150.6023  143.3079  158.0340 H   0  0  0  0  0  0  0  0  0  0  0  0
  149.4485  142.0753  158.5443 H   0  0  0  0  0  0  0  0  0  0  0  0
  153.2163  144.1423  161.7728 H   0  0  0  0  0  0  0  0  0  0  0  0
  152.9419  142.4196  161.9361 H   0  0  0  0  0  0  0  0  0  0  0  0
  151.6097  143.5484  162.1777 H   0  0  0  0  0  0  0  0  0  0  0  0
  150.7176  144.9221  160.1733 H   0  0  0  0  0  0  0  0  0  0  0  0
  151.3350  144.6152  158.5546 H   0  0  0  0  0  0  0  0  0  0  0  0
  152.3484  145.4270  159.7435 H   0  0  0  0  0  0  0  0  0  0  0  0
  154.1499  143.6699  159.2959 H   0  0  0  0  0  0  0  0  0  0  0  0
  153.1201  142.7784  158.1815 H   0  0  0  0  0  0  0  0  0  0  0  0
  153.8412  141.9683  159.5690 H   0  0  0  0  0  0  0  0  0  0  0  0
  1  2  1  0  0  0  0
  1 18  1  0  0  0  0
  1 19  1  0  0  0  0
  1 20  1  0  0  0  0
  2  3  1  0  0  0  0
  2 13  1  0  0  0  0
  2 21  1  0  0  0  0
  3  4  1  0  0  0  0
  3 22  1  0  0  0  0
  3 23  1  0  0  0  0
  4  5  1  0  0  0  0
  4 24  1  0  0  0  0
  5  6  2  0  0  0  0
  5  7  1  0  0  0  0
  7  8  1  0  0  0  0
  7 25  1  0  0  0  0
  7 26  1  0  0  0  0
  8  9  1  0  0  0  0
  9 10  1  0  0  0  0
  9 11  1  0  0  0  0
  9 12  1  0  0  0  0
 10 27  1  0  0  0  0
 10 28  1  0  0  0  0
 10 29  1  0  0  0  0
 11 30  1  0  0  0  0
 11 31  1  0  0  0  0
 11 32  1  0  0  0  0
 12 33  1  0  0  0  0
 12 34  1  0  0  0  0
 12 35  1  0  0  0  0
 13 17  1  0  0  0  0
 13 14  2  0  0  0  0
 14 15  1  0  0  0  0
 15 16  2  0  0  0  0
 16 17  1  0  0  0  0
M  CHG  1  17  -1
M  END
> <s_m_source_file>
AV-unprocessed.smi

> <i_m_source_file_index>
3279

> <i_lp_mmshare_version>
43012

> <i_f3d_flags>
0

> <s_epik_input>
W25IXTFubm5jMVtDQEhdKFtDSDNdKVtDSDJdW05IXUMoPU8pW0NIMl1PQyhbQ0gzXSkoW0NIM10pW0NIM10=

> <s_epik_cmdline>
J2VwaWtfcHl0aG9uJywgJy1waCcsICc3LjAnLCAnLXRuJywgJzgnLCAnLW1hJywgJzIwMCcsICctbWV0YWxfYmluZGluZycsICctaW1hZScsICc8aW5maWxlLm1hZT4nLCAnLW9tYWUnLCAnPG91dGZpbGUubWFlPic=

> <r_epik_Ionization_Penalty>
0.054353

> <r_epik_Ionization_Penalty_Charging>
0.054353

> <r_epik_Ionization_Penalty_Neutral>
3.0997e-08

> <r_epik_State_Penalty>
0.0139445

> <r_epik_Charging_Adjusted_Penalty>
0.0682975

> <i_epik_Tot_Q>
-1

> <i_epik_Tot_abs_Q>
1

> <r_epik_Metal_State_Penalty>
0.0109703

> <b_epik_Metal_Only>
0

> <s_lp_Force_Field>
OPLS_2005

> <r_lp_Energy>
-0.4509

> <b_lp_Chiralities_Consistent>
1

> <s_lp_Variant>
AV-unprocessed.smi:3279-1

> <Gold.Version>
5.8.1

> <Gold.Id.Protein>
6NUR|6NUR_protein|mol2

> <Gold.PLP.Fitness>
37.8941

> <Gold.PLP.PLP>
-34.6331

> <Gold.PLP.part.hbond>
-6.0000

> <Gold.PLP.part.metal>
0.0000

> <Gold.PLP.part.buried>
-3.8216

> <Gold.PLP.part.nonpolar>
-25.1078

> <Gold.PLP.part.repulsive>
0.1139

> <Gold.PLP.ligand.clash>
0.0000

> <Gold.PLP.ligand.torsion>
1.5787

> <Gold.PLP.Chemscore.Hbond>
2.0960

> <Gold.PLP.Chemscore.CHOScore>
0.0000

> <Gold.PLP.Chemscore.Metal>
0.0000

> <Gold.Chemscore.Hbonds>
donor molecule, donor type, donor heavy atom, donor atom, acceptor molecule, acceptor atom, score
      P1  H  7997  8010       L1    17  1.60
      P1  H 10752 10764       L1    15  0.50

> <Gold.PLP.Chemscore.Internal.Correction>
0.1304

> <Gold.Rescore>
     Score         DG    S(hbond)    S(metal)    S(lipo)     H(rot)  DE(clash)    DE(int)     intcor
      9.12     -10.58       0.95        0.00      74.24       2.64       0.13       1.33       ----

> <Gold.Chemscore.Fitness>
9.1197

> <Gold.Chemscore.DG>
-10.5815

> <Gold.Chemscore.ZeroCoef>
-5.4800

> <Gold.Chemscore.Hbond>
0.9510

> <Gold.Chemscore.Metal>
0.0000

> <Gold.Chemscore.Lipo>
74.2389

> <Gold.Chemscore.Internal_Hbond>
0.0000

> <Gold.Chemscore.DEClash>
0.1272

> <Gold.Chemscore.DEInternal>
1.3346

> <Gold.Chemscore.Rot>
2.6409

> <Gold.Chemscore.Internal.Correction>
   9.000000E+99

> <Gold.Chemscore.Hbonds>
donor molecule, donor type, donor heavy atom, donor atom, acceptor molecule, acceptor atom, score
      P1  H  7997  8010       L1    17  0.12
      P1  H 10752 10764       L1    15  0.09

> <Gold.Chemscore.Hbond.Weighted>
-3.1763

> <Gold.Chemscore.Metal.Weighted>
-0.0000

> <Gold.Chemscore.Lipo.Weighted>
-8.6860

> <Gold.Chemscore.Internal_Hbond.Weighted>
0.0000

> <Gold.Chemscore.DEClash.Weighted>
0.1272

> <Gold.Chemscore.DEInternal.Weighted>
1.3346

> <Gold.Chemscore.Rot.Weighted>
6.7607

> <Gold.Chemscore.Internal.Correction.Weighted>
   9.000000E+99

> <Gold.Protein.RotatedTorsions>
[ 6907 6896 6895 6894 ] final  -21.23 input  -60.11 | X-H torsion
[ 7974 7965 7964 7962 ] final  -93.08 input  175.53 | X-H torsion
[ 8008 7997 7996 7995 ] final  111.98 input   59.86 | X-H torsion
[ 10167 10162 10161 10158 ] final  -45.59 input  -65.29 | X-H torsion
[ 10718 10713 10712 10709 ] final -163.85 input   66.30 | X-H torsion
[ 10763 10752 10751 10750 ] final   43.79 input  -60.55 | X-H torsion
[ 11005 11000 10999 10996 ] final -175.00 input  -57.11 | X-H torsion

> <Gold.Protein.ActiveResidues>
 VAL166  LYS551  ARG553  GLY616  TRP617  ASP618  TYR619  PRO620  LYS621  CYS622 
 ASP623  PHE694  ASN695  SER759  ASP760  ASP761  ALA762  ILE779  LEU786  VAL792 
 PHE793  MET794  SER795  GLU796  ALA797  LYS798  CYS799  TRP800  GLU811  SER814 

> <Gold.Protein.RotatedAtoms>
  151.2364  135.0573  159.9007 H   0  0  0  0  0  0  0  0  0  0  0  0  # atno 6907 bound_to 6896
  152.5398  134.0482  159.8108 H   0  0  0  0  0  0  0  0  0  0  0  0  # atno 6908 bound_to 6896
  151.0669  133.5449  159.2661 H   0  0  0  0  0  0  0  0  0  0  0  0  # atno 6909 bound_to 6896
  145.3913  140.9528  143.2339 H   0  0  0  0  0  0  0  0  0  0  0  0  # atno 7974 bound_to 7965
  156.2161  140.3008  155.9843 H   0  0  0  0  0  0  0  0  0  0  0  0  # atno 8008 bound_to 7997
  155.2601  140.0429  157.3013 H   0  0  0  0  0  0  0  0  0  0  0  0  # atno 8009 bound_to 7997
  154.5770  140.2364  155.8116 H   0  0  0  0  0  0  0  0  0  0  0  0  # atno 8010 bound_to 7997
  140.6852  143.2872  151.3661 H   0  0  0  0  0  0  0  0  0  0  0  0  # atno 10167 bound_to 10162
  156.6306  130.8928  151.2976 H   0  0  0  0  0  0  0  0  0  0  0  0  # atno 10718 bound_to 10713
  152.9853  135.6090  154.3169 H   0  0  0  0  0  0  0  0  0  0  0  0  # atno 10763 bound_to 10752
  154.2881  135.2775  155.2669 H   0  0  0  0  0  0  0  0  0  0  0  0  # atno 10764 bound_to 10752
  154.4977  135.5875  153.6563 H   0  0  0  0  0  0  0  0  0  0  0  0  # atno 10765 bound_to 10752
  140.4682  134.6190  157.4871 H   0  0  0  0  0  0  0  0  0  0  0  0  # atno 11005 bound_to 11000
  144.8438  139.5430  143.6888 LP  0  0  0  0  0  0  0  0  0  0  0  0  # atno 17320 bound_to 7965
  146.2796  139.6842  142.9238 LP  0  0  0  0  0  0  0  0  0  0  0  0  # atno 17321 bound_to 7965
  139.6204  144.0918  152.2386 LP  0  0  0  0  0  0  0  0  0  0  0  0  # atno 17342 bound_to 10162
  140.0361  144.6044  150.7449 LP  0  0  0  0  0  0  0  0  0  0  0  0  # atno 17343 bound_to 10162
  157.7201  130.9547  150.1405 LP  0  0  0  0  0  0  0  0  0  0  0  0  # atno 17370 bound_to 10713
  156.2238  130.3676  149.8525 LP  0  0  0  0  0  0  0  0  0  0  0  0  # atno 17371 bound_to 10713
  139.9902  134.6997  155.9703 LP  0  0  0  0  0  0  0  0  0  0  0  0  # atno 17394 bound_to 11000
  141.1589  133.6540  156.4254 LP  0  0  0  0  0  0  0  0  0  0  0  0  # atno 17395 bound_to 11000

$$$$
