AV-unprocessed.smi:3068|AV-procd|sdf|11700|dock5
  -GOLD-   2272017103D 1   1.00000     0.00000
 Structure written by MMmdl.
 40 42  0  0  0  0  0  0  0  0  2 V2000
  148.4733  133.2957  152.9172 N   0  0  0  0  0  0  0  0  0  0  0  0
  147.5176  133.2796  152.2650 C   0  0  0  0  0  0  0  0  0  0  0  0
  146.3134  133.2580  151.4443 C   0  0  0  0  0  0  0  0  0  0  0  0
  145.8932  132.0457  151.0144 N   0  0  0  0  0  0  0  0  0  0  0  0
  144.7777  132.0106  150.2552 C   0  0  0  0  0  0  0  0  0  0  0  0
  144.0757  133.1850  149.9220 C   0  0  0  0  0  0  0  0  0  0  0  0
  144.4866  134.3986  150.3472 N   0  0  0  0  0  0  0  0  0  0  0  0
  145.6068  134.4483  151.1113 C   0  0  0  0  0  0  0  0  0  0  0  0
  146.0482  135.7065  151.5621 N   0  0  0  0  0  0  0  0  0  0  0  0
  145.1507  136.6519  152.2160 C   0  0  0  0  0  0  0  0  0  0  0  0
  145.9085  137.7559  152.9727 C   0  0  2  0  0  0  0  0  0  0  0  0
  146.9177  138.4778  152.0532 C   0  0  0  0  0  0  0  0  0  0  0  0
  147.7380  139.4575  152.8061 N   0  3  1  0  0  0  0  0  0  0  0  0
  147.0165  140.7230  153.1120 C   0  0  0  0  0  0  0  0  0  0  0  0
  147.9302  141.7271  153.8293 C   0  0  0  0  0  0  0  0  0  0  0  0
  148.5045  141.1149  155.1116 C   0  0  0  0  0  0  0  0  0  0  0  0
  149.2470  139.8135  154.7801 C   0  0  0  0  0  0  0  0  0  0  0  0
  148.3712  138.8162  153.9919 C   0  0  1  0  0  0  0  0  0  0  0  0
  147.3123  138.0963  154.8532 C   0  0  0  0  0  0  0  0  0  0  0  0
  146.6202  137.1492  154.0479 O   0  0  0  0  0  0  0  0  0  0  0  0
  144.4442  131.0420  149.9129 H   0  0  0  0  0  0  0  0  0  0  0  0
  143.1837  133.1515  149.3140 H   0  0  0  0  0  0  0  0  0  0  0  0
  147.0338  135.9269  151.5274 H   0  0  0  0  0  0  0  0  0  0  0  0
  144.5065  137.0975  151.4576 H   0  0  0  0  0  0  0  0  0  0  0  0
  144.4885  136.1125  152.8942 H   0  0  0  0  0  0  0  0  0  0  0  0
  145.1928  138.4759  153.3710 H   0  0  0  0  0  0  0  0  0  0  0  0
  147.5897  137.7456  151.6031 H   0  0  0  0  0  0  0  0  0  0  0  0
  146.4049  138.9735  151.2280 H   0  0  0  0  0  0  0  0  0  0  0  0
  146.6537  141.1637  152.1828 H   0  0  0  0  0  0  0  0  0  0  0  0
  146.1387  140.5267  153.7278 H   0  0  0  0  0  0  0  0  0  0  0  0
  148.7431  142.0258  153.1660 H   0  0  0  0  0  0  0  0  0  0  0  0
  147.3741  142.6347  154.0659 H   0  0  0  0  0  0  0  0  0  0  0  0
  149.1829  141.8205  155.5926 H   0  0  0  0  0  0  0  0  0  0  0  0
  147.7021  140.9205  155.8240 H   0  0  0  0  0  0  0  0  0  0  0  0
  150.1288  140.0560  154.1853 H   0  0  0  0  0  0  0  0  0  0  0  0
  149.6193  139.3497  155.6943 H   0  0  0  0  0  0  0  0  0  0  0  0
  149.0414  138.0442  153.6099 H   0  0  0  0  0  0  0  0  0  0  0  0
  147.7944  137.5640  155.6734 H   0  0  0  0  0  0  0  0  0  0  0  0
  146.6063  138.7948  155.3037 H   0  0  0  0  0  0  0  0  0  0  0  0
  148.4944  139.7253  152.1927 H   0  0  0  0  0  0  0  0  0  0  0  0
  1  2  3  0  0  0  0
  2  3  1  0  0  0  0
  3  8  1  0  0  0  0
  3  4  2  0  0  0  0
  4  5  1  0  0  0  0
  5  6  2  0  0  0  0
  5 21  1  0  0  0  0
  6  7  1  0  0  0  0
  6 22  1  0  0  0  0
  7  8  2  0  0  0  0
  8  9  1  0  0  0  0
  9 10  1  0  0  0  0
  9 23  1  0  0  0  0
 10 11  1  0  0  0  0
 10 24  1  0  0  0  0
 10 25  1  0  0  0  0
 11 20  1  0  0  0  0
 11 12  1  0  0  0  0
 11 26  1  0  0  0  0
 12 13  1  0  0  0  0
 12 27  1  0  0  0  0
 12 28  1  0  0  0  0
 13 18  1  0  0  0  0
 13 14  1  0  0  0  0
 13 40  1  0  0  0  0
 14 15  1  0  0  0  0
 14 29  1  0  0  0  0
 14 30  1  0  0  0  0
 15 16  1  0  0  0  0
 15 31  1  0  0  0  0
 15 32  1  0  0  0  0
 16 17  1  0  0  0  0
 16 33  1  0  0  0  0
 16 34  1  0  0  0  0
 17 18  1  0  0  0  0
 17 35  1  0  0  0  0
 17 36  1  0  0  0  0
 18 19  1  0  0  0  0
 18 37  1  0  0  0  0
 19 20  1  0  0  0  0
 19 38  1  0  0  0  0
 19 39  1  0  0  0  0
M  CHG  1  13   1
M  END
> <s_m_source_file>
AV-unprocessed.smi

> <i_m_source_file_index>
3068

> <i_lp_mmshare_version>
43012

> <i_f3d_flags>
0

> <s_epik_input>
TiNDYzFuW2NIXVtjSF1uYzFbTkhdW0NIMl1bQ0BIXShbQ0gyXTIpT1tDSDJdW0NAQEhdKE4yMylbQ0gyXVtDSDJdW0NIMl1bQ0gyXTM=

> <s_epik_cmdline>
J2VwaWtfcHl0aG9uJywgJy1waCcsICc3LjAnLCAnLXRuJywgJzgnLCAnLW1hJywgJzIwMCcsICctbWV0YWxfYmluZGluZycsICctaW1hZScsICc8aW5maWxlLm1hZT4nLCAnLW9tYWUnLCAnPG91dGZpbGUubWFlPic=

> <r_epik_Ionization_Penalty>
0.0804321

> <r_epik_Ionization_Penalty_Charging>
0.0803403

> <r_epik_Ionization_Penalty_Neutral>
9.17277e-05

> <r_epik_State_Penalty>
0.0711481

> <r_epik_Charging_Adjusted_Penalty>
0.151488

> <i_epik_Tot_Q>
1

> <i_epik_Tot_abs_Q>
1

> <r_epik_Metal_State_Penalty>
0.0711481

> <b_epik_Metal_Only>
0

> <s_lp_Force_Field>
OPLS_2005

> <r_lp_Energy>
39.785

> <b_lp_Chiralities_Consistent>
1

> <s_lp_Variant>
AV-unprocessed.smi:3068-3

> <Gold.Version>
5.8.1

> <Gold.Id.Protein>
6NUR|6NUR_protein|mol2

> <Gold.PLP.Fitness>
40.8667

> <Gold.PLP.PLP>
-32.9915

> <Gold.PLP.part.hbond>
-2.0000

> <Gold.PLP.part.metal>
0.0000

> <Gold.PLP.part.buried>
-4.6062

> <Gold.PLP.part.nonpolar>
-28.2005

> <Gold.PLP.part.repulsive>
0.9961

> <Gold.PLP.ligand.clash>
0.0000

> <Gold.PLP.ligand.torsion>
0.5627

> <Gold.PLP.Chemscore.Hbond>
2.0000

> <Gold.PLP.Chemscore.CHOScore>
1.0000

> <Gold.PLP.Chemscore.Metal>
0.0000

> <Gold.Chemscore.Hbonds>
donor molecule, donor type, donor heavy atom, donor atom, acceptor molecule, acceptor atom, score
      L1  H     9    23       P1  7948  1.00
      L1  H    13    40       P1  7957  1.00
      L1  C     6    22       P1 10186  1.00

> <Gold.PLP.Chemscore.Internal.Correction>
0.0006

> <Gold.Rescore>
     Score         DG    S(hbond)    S(metal)    S(lipo)     H(rot)  DE(clash)    DE(int)     intcor
     17.43     -18.16       1.92        0.00      82.38       1.32       0.21       0.53       ----

> <Gold.Chemscore.Fitness>
17.4315

> <Gold.Chemscore.DG>
-18.1632

> <Gold.Chemscore.ZeroCoef>
-5.4800

> <Gold.Chemscore.Hbond>
1.9227

> <Gold.Chemscore.Metal>
0.0000

> <Gold.Chemscore.Lipo>
82.3820

> <Gold.Chemscore.Internal_Hbond>
0.0000

> <Gold.Chemscore.DEClash>
0.2056

> <Gold.Chemscore.DEInternal>
0.5261

> <Gold.Chemscore.Rot>
1.3193

> <Gold.Chemscore.Internal.Correction>
   9.000000E+99

> <Gold.Chemscore.Hbonds>
donor molecule, donor type, donor heavy atom, donor atom, acceptor molecule, acceptor atom, score
      L1  H     9    23       P1  7948  0.99
      L1  H    13    40       P1  7957  0.94

> <Gold.Chemscore.Hbond.Weighted>
-6.4219

> <Gold.Chemscore.Metal.Weighted>
-0.0000

> <Gold.Chemscore.Lipo.Weighted>
-9.6387

> <Gold.Chemscore.Internal_Hbond.Weighted>
0.0000

> <Gold.Chemscore.DEClash.Weighted>
0.2056

> <Gold.Chemscore.DEInternal.Weighted>
0.5261

> <Gold.Chemscore.Rot.Weighted>
3.3774

> <Gold.Chemscore.Internal.Correction.Weighted>
   9.000000E+99

> <Gold.Protein.RotatedTorsions>
[ 6907 6896 6895 6894 ] final -153.42 input  -60.11 | X-H torsion
[ 7974 7965 7964 7962 ] final  -66.08 input  175.53 | X-H torsion
[ 8008 7997 7996 7995 ] final   80.86 input   59.86 | X-H torsion
[ 10167 10162 10161 10158 ] final   28.14 input  -65.29 | X-H torsion
[ 10718 10713 10712 10709 ] final  -56.94 input   66.30 | X-H torsion
[ 10763 10752 10751 10750 ] final  179.33 input  -60.55 | X-H torsion
[ 11005 11000 10999 10996 ] final  131.99 input  -57.11 | X-H torsion

> <Gold.Protein.ActiveResidues>
 VAL166  LYS551  ARG553  GLY616  TRP617  ASP618  TYR619  PRO620  LYS621  CYS622 
 ASP623  PHE694  ASN695  SER759  ASP760  ASP761  ALA762  ILE779  LEU786  VAL792 
 PHE793  MET794  SER795  GLU796  ALA797  LYS798  CYS799  TRP800  GLU811  SER814 

> <Gold.Protein.RotatedAtoms>
  151.2423  133.4393  159.2607 H   0  0  0  0  0  0  0  0  0  0  0  0  # atno 6907 bound_to 6896
  151.0693  134.9788  159.8311 H   0  0  0  0  0  0  0  0  0  0  0  0  # atno 6908 bound_to 6896
  152.5410  134.2370  159.8900 H   0  0  0  0  0  0  0  0  0  0  0  0  # atno 6909 bound_to 6896
  145.7463  140.8930  143.0503 H   0  0  0  0  0  0  0  0  0  0  0  0  # atno 7974 bound_to 7965
  155.8892  140.3440  155.5944 H   0  0  0  0  0  0  0  0  0  0  0  0  # atno 8008 bound_to 7997
  155.7630  140.0835  157.2165 H   0  0  0  0  0  0  0  0  0  0  0  0  # atno 8009 bound_to 7997
  154.4031  140.1532  156.2842 H   0  0  0  0  0  0  0  0  0  0  0  0  # atno 8010 bound_to 7997
  140.4878  144.0515  150.6286 H   0  0  0  0  0  0  0  0  0  0  0  0  # atno 10167 bound_to 10162
  156.1249  130.4163  150.0373 H   0  0  0  0  0  0  0  0  0  0  0  0  # atno 10718 bound_to 10713
  154.5192  135.2793  155.1277 H   0  0  0  0  0  0  0  0  0  0  0  0  # atno 10763 bound_to 10752
  154.2841  135.6279  153.5362 H   0  0  0  0  0  0  0  0  0  0  0  0  # atno 10764 bound_to 10752
  152.9933  135.5658  154.5677 H   0  0  0  0  0  0  0  0  0  0  0  0  # atno 10765 bound_to 10752
  139.9763  134.9562  156.9517 H   0  0  0  0  0  0  0  0  0  0  0  0  # atno 11005 bound_to 11000
  144.6859  139.9529  143.7478 LP  0  0  0  0  0  0  0  0  0  0  0  0  # atno 17320 bound_to 7965
  146.0400  139.3412  143.0703 LP  0  0  0  0  0  0  0  0  0  0  0  0  # atno 17321 bound_to 7965
  140.3775  143.2821  152.0208 LP  0  0  0  0  0  0  0  0  0  0  0  0  # atno 17342 bound_to 10162
  139.4845  144.6181  151.7307 LP  0  0  0  0  0  0  0  0  0  0  0  0  # atno 17343 bound_to 10162
  156.8301  130.9389  151.3637 LP  0  0  0  0  0  0  0  0  0  0  0  0  # atno 17370 bound_to 10713
  157.6431  130.8822  149.9486 LP  0  0  0  0  0  0  0  0  0  0  0  0  # atno 17371 bound_to 10713
  140.5188  134.0928  155.7287 LP  0  0  0  0  0  0  0  0  0  0  0  0  # atno 17394 bound_to 11000
  141.1439  133.9089  157.2260 LP  0  0  0  0  0  0  0  0  0  0  0  0  # atno 17395 bound_to 11000

$$$$
