AV-unprocessed.smi:2322|AV-procd|sdf|9285|dock4
  -GOLD-   2272012513D 1   1.00000     0.00000
 Structure written by MMmdl.
 38 40  0  0  0  0  0  0  0  0  1 V2000
  146.6032  142.3528  153.5081 C   0  0  0  0  0  0  0  0  0  0  0  0
  147.3721  141.1411  153.7172 N   0  0  0  0  0  0  0  0  0  0  0  0
  147.1312  140.0300  152.9823 N   0  0  0  0  0  0  0  0  0  0  0  0
  148.0209  139.1622  153.4625 C   0  0  0  0  0  0  0  0  0  0  0  0
  148.8300  139.6259  154.4603 N   0  0  0  0  0  0  0  0  0  0  0  0
  148.3681  140.8693  154.5667 C   0  0  0  0  0  0  0  0  0  0  0  0
  148.8229  141.8801  155.4650 N   0  0  0  0  0  0  0  0  0  0  0  0
  149.6219  141.8113  156.5504 C   0  0  0  0  0  0  0  0  0  0  0  0
  150.0981  140.7392  156.9196 O   0  0  0  0  0  0  0  0  0  0  0  0
  149.8588  142.9698  157.1872 N   0  0  0  0  0  0  0  0  0  0  0  0
  150.6946  143.1311  158.3724 C   0  0  2  0  0  0  0  0  0  0  0  0
  150.0250  144.1069  159.3490 C   0  0  0  0  0  0  0  0  0  0  0  0
  150.9418  144.3894  160.5487 C   0  0  0  0  0  0  0  0  0  0  0  0
  152.2011  144.8896  160.1046 O   0  0  0  0  0  0  0  0  0  0  0  0
  152.9278  144.0224  159.2326 C   0  0  1  0  0  0  0  0  0  0  0  0
  153.4625  142.7999  159.9659 C   0  0  0  0  0  0  0  0  0  0  0  0
  152.5271  141.6993  160.4070 C   0  0  0  0  0  0  0  0  0  0  0  0
  153.1778  142.5941  161.4353 C   0  0  0  0  0  0  0  0  0  0  0  0
  152.0847  143.6702  157.9910 C   0  0  0  0  0  0  0  0  0  0  0  0
  147.2517  143.1332  153.1094 H   0  0  0  0  0  0  0  0  0  0  0  0
  146.1814  142.6885  154.4557 H   0  0  0  0  0  0  0  0  0  0  0  0
  145.7890  142.1743  152.8042 H   0  0  0  0  0  0  0  0  0  0  0  0
  148.0901  138.1550  153.0784 H   0  0  0  0  0  0  0  0  0  0  0  0
  148.4764  142.8058  155.2596 H   0  0  0  0  0  0  0  0  0  0  0  0
  149.4271  143.8051  156.8169 H   0  0  0  0  0  0  0  0  0  0  0  0
  150.8003  142.1648  158.8685 H   0  0  0  0  0  0  0  0  0  0  0  0
  149.8004  145.0461  158.8409 H   0  0  0  0  0  0  0  0  0  0  0  0
  149.0726  143.7028  159.6941 H   0  0  0  0  0  0  0  0  0  0  0  0
  150.4831  145.1362  161.1968 H   0  0  0  0  0  0  0  0  0  0  0  0
  151.0752  143.4941  161.1561 H   0  0  0  0  0  0  0  0  0  0  0  0
  153.7920  144.5947  158.8927 H   0  0  0  0  0  0  0  0  0  0  0  0
  154.4443  142.4700  159.6332 H   0  0  0  0  0  0  0  0  0  0  0  0
  151.4631  141.8355  160.2234 H   0  0  0  0  0  0  0  0  0  0  0  0
  152.8865  140.6753  160.3302 H   0  0  0  0  0  0  0  0  0  0  0  0
  153.9722  142.1676  162.0443 H   0  0  0  0  0  0  0  0  0  0  0  0
  152.5459  143.3238  161.9378 H   0  0  0  0  0  0  0  0  0  0  0  0
  152.6182  142.9520  157.3668 H   0  0  0  0  0  0  0  0  0  0  0  0
  151.9652  144.5703  157.3860 H   0  0  0  0  0  0  0  0  0  0  0  0
  1  2  1  0  0  0  0
  1 20  1  0  0  0  0
  1 21  1  0  0  0  0
  1 22  1  0  0  0  0
  2  6  1  0  0  0  0
  2  3  1  0  0  0  0
  3  4  2  0  0  0  0
  4  5  1  0  0  0  0
  4 23  1  0  0  0  0
  5  6  2  0  0  0  0
  6  7  1  0  0  0  0
  7  8  1  0  0  0  0
  7 24  1  0  0  0  0
  8  9  2  0  0  0  0
  8 10  1  0  0  0  0
 10 11  1  0  0  0  0
 10 25  1  0  0  0  0
 11 19  1  0  0  0  0
 11 12  1  0  0  0  0
 11 26  1  0  0  0  0
 12 13  1  0  0  0  0
 12 27  1  0  0  0  0
 12 28  1  0  0  0  0
 13 14  1  0  0  0  0
 13 29  1  0  0  0  0
 13 30  1  0  0  0  0
 14 15  1  0  0  0  0
 15 16  1  0  0  0  0
 15 19  1  0  0  0  0
 15 31  1  0  0  0  0
 16 18  1  0  0  0  0
 16 17  1  0  0  0  0
 16 32  1  0  0  0  0
 17 18  1  0  0  0  0
 17 33  1  0  0  0  0
 17 34  1  0  0  0  0
 18 35  1  0  0  0  0
 18 36  1  0  0  0  0
 19 37  1  0  0  0  0
 19 38  1  0  0  0  0
M  END
> <s_m_source_file>
AV-unprocessed.smi

> <i_m_source_file_index>
2322

> <i_lp_mmshare_version>
43012

> <i_f3d_flags>
0

> <s_epik_input>
W0NIM11uMW5bY0hdbmMxW05IXUMoPU8pW05IXVtDQEBIXTJbQ0gyXVtDSDJdT1tDQEhdKFtDSDJdMilbQ0hdM1tDSDJdW0NIMl0z

> <s_epik_cmdline>
J2VwaWtfcHl0aG9uJywgJy1waCcsICc3LjAnLCAnLXRuJywgJzgnLCAnLW1hJywgJzIwMCcsICctbWV0YWxfYmluZGluZycsICctaW1hZScsICc8aW5maWxlLm1hZT4nLCAnLW9tYWUnLCAnPG91dGZpbGUubWFlPic=

> <r_lp_tautomer_probability>
1

> <r_epik_Ionization_Penalty>
2.16399e-05

> <r_epik_Ionization_Penalty_Charging>
0

> <r_epik_Ionization_Penalty_Neutral>
2.16399e-05

> <r_epik_State_Penalty>
-0

> <r_epik_Charging_Adjusted_Penalty>
0

> <i_epik_Tot_Q>
0

> <i_epik_Tot_abs_Q>
0

> <r_epik_Metal_State_Penalty>
-0

> <b_epik_Metal_Only>
0

> <s_lp_Force_Field>
OPLS_2005

> <r_lp_Energy>
22.5256

> <b_lp_Chiralities_Consistent>
1

> <s_lp_Variant>
AV-unprocessed.smi:2322-1

> <Gold.Version>
5.8.1

> <Gold.Id.Protein>
6NUR|6NUR_protein|mol2

> <Gold.PLP.Fitness>
44.1011

> <Gold.PLP.PLP>
-36.7725

> <Gold.PLP.part.hbond>
-1.9722

> <Gold.PLP.part.metal>
0.0000

> <Gold.PLP.part.buried>
-4.8031

> <Gold.PLP.part.nonpolar>
-30.2056

> <Gold.PLP.part.repulsive>
0.5811

> <Gold.PLP.ligand.clash>
0.0000

> <Gold.PLP.ligand.torsion>
1.0984

> <Gold.PLP.Chemscore.Hbond>
1.8160

> <Gold.PLP.Chemscore.CHOScore>
1.0000

> <Gold.PLP.Chemscore.Metal>
0.0000

> <Gold.Chemscore.Hbonds>
donor molecule, donor type, donor heavy atom, donor atom, acceptor molecule, acceptor atom, score
      L1  H     7    24       P1  8028  0.83
      L1  H    10    25       P1  8028  1.00
      L1  C     4    23       P1  7948  1.00

> <Gold.PLP.Chemscore.Internal.Correction>
1.0775

> <Gold.Rescore>
     Score         DG    S(hbond)    S(metal)    S(lipo)     H(rot)  DE(clash)    DE(int)     intcor
     15.42     -18.58       1.73        0.00      91.32       1.31       0.05       3.12       ----

> <Gold.Chemscore.Fitness>
15.4196

> <Gold.Chemscore.DG>
-18.5843

> <Gold.Chemscore.ZeroCoef>
-5.4800

> <Gold.Chemscore.Hbond>
1.7264

> <Gold.Chemscore.Metal>
0.0000

> <Gold.Chemscore.Lipo>
91.3204

> <Gold.Chemscore.Internal_Hbond>
0.0000

> <Gold.Chemscore.DEClash>
0.0457

> <Gold.Chemscore.DEInternal>
3.1190

> <Gold.Chemscore.Rot>
1.3072

> <Gold.Chemscore.Internal.Correction>
   9.000000E+99

> <Gold.Chemscore.Hbonds>
donor molecule, donor type, donor heavy atom, donor atom, acceptor molecule, acceptor atom, score
      L1  H     7    24       P1  8028  0.79
      L1  H    10    25       P1  8028  0.85

> <Gold.Chemscore.Hbond.Weighted>
-5.7663

> <Gold.Chemscore.Metal.Weighted>
-0.0000

> <Gold.Chemscore.Lipo.Weighted>
-10.6845

> <Gold.Chemscore.Internal_Hbond.Weighted>
0.0000

> <Gold.Chemscore.DEClash.Weighted>
0.0457

> <Gold.Chemscore.DEInternal.Weighted>
3.1190

> <Gold.Chemscore.Rot.Weighted>
3.3464

> <Gold.Chemscore.Internal.Correction.Weighted>
   9.000000E+99

> <Gold.Protein.RotatedTorsions>
[ 6907 6896 6895 6894 ] final   62.25 input  -60.11 | X-H torsion
[ 7974 7965 7964 7962 ] final  -57.26 input  175.53 | X-H torsion
[ 8008 7997 7996 7995 ] final  -51.26 input   59.86 | X-H torsion
[ 10167 10162 10161 10158 ] final   96.82 input  -65.29 | X-H torsion
[ 10718 10713 10712 10709 ] final  155.69 input   66.30 | X-H torsion
[ 10763 10752 10751 10750 ] final  143.46 input  -60.55 | X-H torsion
[ 11005 11000 10999 10996 ] final   27.81 input  -57.11 | X-H torsion

> <Gold.Protein.ActiveResidues>
 VAL166  LYS551  ARG553  GLY616  TRP617  ASP618  TYR619  PRO620  LYS621  CYS622 
 ASP623  PHE694  ASN695  SER759  ASP760  ASP761  ALA762  ILE779  LEU786  VAL792 
 PHE793  MET794  SER795  GLU796  ALA797  LYS798  CYS799  TRP800  GLU811  SER814 

> <Gold.Protein.RotatedAtoms>
  152.4157  134.6046  160.0009 H   0  0  0  0  0  0  0  0  0  0  0  0  # atno 6907 bound_to 6896
  151.6210  133.3333  159.3096 H   0  0  0  0  0  0  0  0  0  0  0  0  # atno 6908 bound_to 6896
  150.8045  134.7201  159.6698 H   0  0  0  0  0  0  0  0  0  0  0  0  # atno 6909 bound_to 6896
  145.8531  140.8338  142.9975 H   0  0  0  0  0  0  0  0  0  0  0  0  # atno 7974 bound_to 7965
  154.4079  140.1252  156.4800 H   0  0  0  0  0  0  0  0  0  0  0  0  # atno 8008 bound_to 7997
  155.7094  140.3494  155.4948 H   0  0  0  0  0  0  0  0  0  0  0  0  # atno 8009 bound_to 7997
  155.9314  140.1070  157.1119 H   0  0  0  0  0  0  0  0  0  0  0  0  # atno 8010 bound_to 7997
  139.7858  144.6871  150.9959 H   0  0  0  0  0  0  0  0  0  0  0  0  # atno 10167 bound_to 10162
  157.2150  131.0706  151.1947 H   0  0  0  0  0  0  0  0  0  0  0  0  # atno 10718 bound_to 10713
  153.9728  135.2949  155.3426 H   0  0  0  0  0  0  0  0  0  0  0  0  # atno 10763 bound_to 10752
  154.7313  135.5066  153.8971 H   0  0  0  0  0  0  0  0  0  0  0  0  # atno 10764 bound_to 10752
  153.0892  135.6702  154.0001 H   0  0  0  0  0  0  0  0  0  0  0  0  # atno 10765 bound_to 10752
  140.3223  134.2530  155.7715 H   0  0  0  0  0  0  0  0  0  0  0  0  # atno 11005 bound_to 11000
  144.6728  140.0982  143.7462 LP  0  0  0  0  0  0  0  0  0  0  0  0  # atno 17320 bound_to 7965
  145.9335  139.2622  143.1311 LP  0  0  0  0  0  0  0  0  0  0  0  0  # atno 17321 bound_to 7965
  140.7819  143.4433  151.0519 LP  0  0  0  0  0  0  0  0  0  0  0  0  # atno 17342 bound_to 10162
  139.8112  143.7948  152.3171 LP  0  0  0  0  0  0  0  0  0  0  0  0  # atno 17343 bound_to 10162
  157.3634  130.7143  149.6517 LP  0  0  0  0  0  0  0  0  0  0  0  0  # atno 17370 bound_to 10713
  155.9687  130.4219  150.4491 LP  0  0  0  0  0  0  0  0  0  0  0  0  # atno 17371 bound_to 10713
  141.2083  133.7780  157.0064 LP  0  0  0  0  0  0  0  0  0  0  0  0  # atno 17394 bound_to 11000
  140.0931  134.9580  157.1808 LP  0  0  0  0  0  0  0  0  0  0  0  0  # atno 17395 bound_to 11000

$$$$
