AV-unprocessed.smi:370|AV-procd|sdf|2440|dock8
  -GOLD-   2262022383D 1   1.00000     0.00000
 Structure written by MMmdl.
 42 43  0  0  0  0  0  0  0  0  3 V2000
  148.9152  141.1363  154.7838 C   0  0  0  0  0  0  0  0  0  0  0  0
  149.4133  139.7349  154.6955 C   0  0  0  0  0  0  0  0  0  0  0  0
  148.7826  138.5229  154.6795 C   0  0  0  0  0  0  0  0  0  0  0  0
  149.8592  137.6018  154.5800 C   0  0  0  0  0  0  0  0  0  0  0  0
  149.6122  136.2043  154.5330 N   0  0  0  0  0  0  0  0  0  0  0  0
  150.2635  135.2108  155.1648 C   0  0  0  0  0  0  0  0  0  0  0  0
  151.2092  135.4639  155.9201 O   0  0  0  0  0  0  0  0  0  0  0  0
  149.7478  133.9882  154.8635 N   0  5  0  0  0  0  0  0  0  0  0  0
  149.0155  133.6755  153.6320 C   0  0  0  0  0  0  0  0  0  0  0  0
  148.3224  132.2707  153.7328 C   0  0  0  0  0  0  0  0  0  0  0  0
  149.4332  131.1838  153.8811 C   0  0  0  0  0  0  0  0  0  0  0  0
  147.4699  132.1822  155.0296 C   0  0  0  0  0  0  0  0  0  0  0  0
  147.4623  132.0518  152.5033 N   0  3  0  0  0  0  0  0  0  0  0  0
  146.5992  130.8364  152.4907 C   0  0  0  0  0  0  0  0  0  0  0  0
  145.9534  130.6417  151.1073 C   0  0  0  0  0  0  0  0  0  0  0  0
  145.2183  131.7992  150.7369 O   0  0  0  0  0  0  0  0  0  0  0  0
  146.0550  132.9436  150.6519 C   0  0  0  0  0  0  0  0  0  0  0  0
  146.6622  133.2246  152.0338 C   0  0  0  0  0  0  0  0  0  0  0  0
  151.0407  138.1993  154.5381 N   0  0  0  0  0  0  0  0  0  0  0  0
  150.7610  139.5689  154.6114 O   0  0  0  0  0  0  0  0  0  0  0  0
  147.8350  141.1574  154.9290 H   0  0  0  0  0  0  0  0  0  0  0  0
  149.1445  141.6856  153.8708 H   0  0  0  0  0  0  0  0  0  0  0  0
  149.3791  141.6590  155.6203 H   0  0  0  0  0  0  0  0  0  0  0  0
  147.7216  138.3286  154.7314 H   0  0  0  0  0  0  0  0  0  0  0  0
  148.8461  135.9186  153.9420 H   0  0  0  0  0  0  0  0  0  0  0  0
  148.2623  134.4311  153.4053 H   0  0  0  0  0  0  0  0  0  0  0  0
  149.6873  133.6748  152.7732 H   0  0  0  0  0  0  0  0  0  0  0  0
  150.0896  131.3686  154.7348 H   0  0  0  0  0  0  0  0  0  0  0  0
  150.0728  131.1037  152.9993 H   0  0  0  0  0  0  0  0  0  0  0  0
  149.0052  130.1967  154.0585 H   0  0  0  0  0  0  0  0  0  0  0  0
  148.0857  132.2479  155.9291 H   0  0  0  0  0  0  0  0  0  0  0  0
  146.9456  131.2273  155.0833 H   0  0  0  0  0  0  0  0  0  0  0  0
  146.7138  132.9656  155.1111 H   0  0  0  0  0  0  0  0  0  0  0  0
  147.1715  129.9335  152.6962 H   0  0  0  0  0  0  0  0  0  0  0  0
  145.8317  130.9216  153.2611 H   0  0  0  0  0  0  0  0  0  0  0  0
  146.7130  130.4253  150.3542 H   0  0  0  0  0  0  0  0  0  0  0  0
  145.2765  129.7875  151.1280 H   0  0  0  0  0  0  0  0  0  0  0  0
  146.8345  132.7943  149.9027 H   0  0  0  0  0  0  0  0  0  0  0  0
  145.4558  133.7935  150.3248 H   0  0  0  0  0  0  0  0  0  0  0  0
  145.8578  133.4366  152.7392 H   0  0  0  0  0  0  0  0  0  0  0  0
  147.2723  134.1249  151.9673 H   0  0  0  0  0  0  0  0  0  0  0  0
  148.1480  131.8845  151.7786 H   0  0  0  0  0  0  0  0  0  0  0  0
  1  2  1  0  0  0  0
  1 21  1  0  0  0  0
  1 22  1  0  0  0  0
  1 23  1  0  0  0  0
  2 20  1  0  0  0  0
  2  3  2  0  0  0  0
  3  4  1  0  0  0  0
  3 24  1  0  0  0  0
  4  5  1  0  0  0  0
  4 19  2  0  0  0  0
  5  6  1  0  0  0  0
  5 25  1  0  0  0  0
  6  7  2  0  0  0  0
  6  8  1  0  0  0  0
  8  9  1  0  0  0  0
  9 10  1  0  0  0  0
  9 26  1  0  0  0  0
  9 27  1  0  0  0  0
 10 11  1  0  0  0  0
 10 12  1  0  0  0  0
 10 13  1  0  0  0  0
 11 28  1  0  0  0  0
 11 29  1  0  0  0  0
 11 30  1  0  0  0  0
 12 31  1  0  0  0  0
 12 32  1  0  0  0  0
 12 33  1  0  0  0  0
 13 18  1  0  0  0  0
 13 14  1  0  0  0  0
 13 42  1  0  0  0  0
 14 15  1  0  0  0  0
 14 34  1  0  0  0  0
 14 35  1  0  0  0  0
 15 16  1  0  0  0  0
 15 36  1  0  0  0  0
 15 37  1  0  0  0  0
 16 17  1  0  0  0  0
 17 18  1  0  0  0  0
 17 38  1  0  0  0  0
 17 39  1  0  0  0  0
 18 40  1  0  0  0  0
 18 41  1  0  0  0  0
 19 20  1  0  0  0  0
M  CHG  1   8  -1
M  CHG  1  13   1
M  END
> <s_m_source_file>
AV-unprocessed.smi

> <i_m_source_file_index>
370

> <i_lp_mmshare_version>
43012

> <i_f3d_flags>
0

> <s_epik_input>
W0NIM11jMVtjSF1jKG5vMSlbTkhdQyg9TylbTkhdW0NIMl1DKFtDSDNdKShbQ0gzXSlOMltDSDJdW0NIMl1PW0NIMl1bQ0gyXTI=

> <s_epik_cmdline>
J2VwaWtfcHl0aG9uJywgJy1waCcsICc3LjAnLCAnLXRuJywgJzgnLCAnLW1hJywgJzIwMCcsICctbWV0YWxfYmluZGluZycsICctaW1hZScsICc8aW5maWxlLm1hZT4nLCAnLW9tYWUnLCAnPG91dGZpbGUubWFlPic=

> <r_epik_Ionization_Penalty>
6.79272

> <r_epik_Ionization_Penalty_Charging>
6.79272

> <r_epik_Ionization_Penalty_Neutral>
5.6208e-06

> <r_epik_State_Penalty>
7.45901

> <r_epik_Charging_Adjusted_Penalty>
14.2517

> <i_epik_Tot_Q>
0

> <i_epik_Tot_abs_Q>
2

> <r_epik_Metal_State_Penalty>
3.38639

> <b_epik_Metal_Only>
1

> <s_lp_Force_Field>
OPLS_2005

> <r_lp_Energy>
23.8333

> <b_lp_Chiralities_Consistent>
1

> <s_lp_Variant>
AV-unprocessed.smi:370-5

> <Gold.Version>
5.8.1

> <Gold.Id.Protein>
6NUR|6NUR_protein|mol2

> <Gold.PLP.Fitness>
41.6300

> <Gold.PLP.PLP>
-32.7869

> <Gold.PLP.part.hbond>
-4.2176

> <Gold.PLP.part.metal>
0.0000

> <Gold.PLP.part.buried>
-2.6179

> <Gold.PLP.part.nonpolar>
-25.9835

> <Gold.PLP.part.repulsive>
0.5800

> <Gold.PLP.ligand.clash>
0.0000

> <Gold.PLP.ligand.torsion>
0.8534

> <Gold.PLP.Chemscore.Hbond>
3.4800

> <Gold.PLP.Chemscore.CHOScore>
0.0000

> <Gold.PLP.Chemscore.Metal>
0.0000

> <Gold.Chemscore.Hbonds>
donor molecule, donor type, donor heavy atom, donor atom, acceptor molecule, acceptor atom, score
      L1  H     5    25       P1  7948  0.32
      L1  H    13    42       P1 10747  1.00
      P1  H  7989  7998       L1    20  1.00
      P1  H 10752 10765       L1     7  0.83

> <Gold.PLP.Chemscore.Internal.Correction>
0.1099

> <Gold.Rescore>
     Score         DG    S(hbond)    S(metal)    S(lipo)     H(rot)  DE(clash)    DE(int)     intcor
     19.18     -20.24       3.19        0.00      69.33       1.57       0.16       0.90       ----

> <Gold.Chemscore.Fitness>
19.1837

> <Gold.Chemscore.DG>
-20.2377

> <Gold.Chemscore.ZeroCoef>
-5.4800

> <Gold.Chemscore.Hbond>
3.1932

> <Gold.Chemscore.Metal>
0.0000

> <Gold.Chemscore.Lipo>
69.3307

> <Gold.Chemscore.Internal_Hbond>
0.0000

> <Gold.Chemscore.DEClash>
0.1556

> <Gold.Chemscore.DEInternal>
0.8984

> <Gold.Chemscore.Rot>
1.5701

> <Gold.Chemscore.Internal.Correction>
   9.000000E+99

> <Gold.Chemscore.Hbonds>
donor molecule, donor type, donor heavy atom, donor atom, acceptor molecule, acceptor atom, score
      L1  H     5    25       P1  7948  0.31
      L1  H    13    42       P1 10747  0.95
      P1  H  7989  7998       L1    20  0.87
      P1  H 10752 10765       L1     7  0.72

> <Gold.Chemscore.Hbond.Weighted>
-10.6654

> <Gold.Chemscore.Metal.Weighted>
-0.0000

> <Gold.Chemscore.Lipo.Weighted>
-8.1117

> <Gold.Chemscore.Internal_Hbond.Weighted>
0.0000

> <Gold.Chemscore.DEClash.Weighted>
0.1556

> <Gold.Chemscore.DEInternal.Weighted>
0.8984

> <Gold.Chemscore.Rot.Weighted>
4.0194

> <Gold.Chemscore.Internal.Correction.Weighted>
   9.000000E+99

> <Gold.Protein.RotatedTorsions>
[ 6907 6896 6895 6894 ] final -160.20 input  -60.11 | X-H torsion
[ 7974 7965 7964 7962 ] final -135.68 input  175.53 | X-H torsion
[ 8008 7997 7996 7995 ] final  102.48 input   59.86 | X-H torsion
[ 10167 10162 10161 10158 ] final   54.87 input  -65.29 | X-H torsion
[ 10718 10713 10712 10709 ] final  -95.17 input   66.30 | X-H torsion
[ 10763 10752 10751 10750 ] final -155.22 input  -60.55 | X-H torsion
[ 11005 11000 10999 10996 ] final  -47.44 input  -57.11 | X-H torsion

> <Gold.Protein.ActiveResidues>
 VAL166  LYS551  ARG553  GLY616  TRP617  ASP618  TYR619  PRO620  LYS621  CYS622 
 ASP623  PHE694  ASN695  SER759  ASP760  ASP761  ALA762  ILE779  LEU786  VAL792 
 PHE793  MET794  SER795  GLU796  ALA797  LYS798  CYS799  TRP800  GLU811  SER814 

> <Gold.Protein.RotatedAtoms>
  151.3454  133.3946  159.2674 H   0  0  0  0  0  0  0  0  0  0  0  0  # atno 6907 bound_to 6896
  150.9844  134.9193  159.7873 H   0  0  0  0  0  0  0  0  0  0  0  0  # atno 6908 bound_to 6896
  152.5227  134.3418  159.9272 H   0  0  0  0  0  0  0  0  0  0  0  0  # atno 6909 bound_to 6896
  144.8992  140.6748  143.5096 H   0  0  0  0  0  0  0  0  0  0  0  0  # atno 7974 bound_to 7965
  156.1397  140.3180  155.8475 H   0  0  0  0  0  0  0  0  0  0  0  0  # atno 8008 bound_to 7997
  155.4178  140.0510  157.3045 H   0  0  0  0  0  0  0  0  0  0  0  0  # atno 8009 bound_to 7997
  154.4966  140.2113  155.9447 H   0  0  0  0  0  0  0  0  0  0  0  0  # atno 8010 bound_to 7997
  140.2255  144.3743  150.6434 H   0  0  0  0  0  0  0  0  0  0  0  0  # atno 10167 bound_to 10162
  156.0039  130.5098  150.6036 H   0  0  0  0  0  0  0  0  0  0  0  0  # atno 10718 bound_to 10713
  154.7802  135.3172  154.8005 H   0  0  0  0  0  0  0  0  0  0  0  0  # atno 10763 bound_to 10752
  153.8718  135.6843  153.4778 H   0  0  0  0  0  0  0  0  0  0  0  0  # atno 10764 bound_to 10752
  153.1437  135.4728  154.9471 H   0  0  0  0  0  0  0  0  0  0  0  0  # atno 10765 bound_to 10752
  141.0641  133.6699  156.3298 H   0  0  0  0  0  0  0  0  0  0  0  0  # atno 11005 bound_to 11000
  145.3646  139.1673  143.4365 LP  0  0  0  0  0  0  0  0  0  0  0  0  # atno 17320 bound_to 7965
  146.3099  140.3711  142.8674 LP  0  0  0  0  0  0  0  0  0  0  0  0  # atno 17321 bound_to 7965
  140.6224  143.2177  151.6667 LP  0  0  0  0  0  0  0  0  0  0  0  0  # atno 17342 bound_to 10162
  139.5128  144.3462  152.0694 LP  0  0  0  0  0  0  0  0  0  0  0  0  # atno 17343 bound_to 10162
  157.3881  131.0791  151.1418 LP  0  0  0  0  0  0  0  0  0  0  0  0  # atno 17370 bound_to 10713
  157.2119  130.6441  149.5777 LP  0  0  0  0  0  0  0  0  0  0  0  0  # atno 17371 bound_to 10713
  140.5809  134.5746  157.5479 LP  0  0  0  0  0  0  0  0  0  0  0  0  # atno 17394 bound_to 11000
  139.9460  134.7702  156.0562 LP  0  0  0  0  0  0  0  0  0  0  0  0  # atno 17395 bound_to 11000

$$$$
