AV-unprocessed.smi:2850|AV-procd|sdf|10968|dock5
  -GOLD-   2272015423D 1   1.00000     0.00000
 Structure written by MMmdl.
 45 46  0  0  0  0  0  0  0  0  2 V2000
  146.4470  134.0447  162.1635 C   0  0  0  0  0  0  0  0  0  0  0  0
  147.8796  135.1365  161.9431 S   0  0  0  0  0  0  0  0  0  0  0  0
  147.5373  136.1763  160.5555 C   0  0  0  0  0  0  0  0  0  0  0  0
  146.2802  136.1395  159.9261 C   0  0  0  0  0  0  0  0  0  0  0  0
  146.0909  136.9959  158.8275 C   0  0  0  0  0  0  0  0  0  0  0  0
  147.1696  137.8185  158.4444 C   0  0  0  0  0  0  0  0  0  0  0  0
  147.0092  138.6815  157.3522 N   0  0  0  0  0  0  0  0  0  0  0  0
  146.7024  140.0895  157.5629 C   0  0  0  0  0  0  0  0  0  0  0  0
  147.5918  140.9974  156.7023 C   0  0  1  0  0  0  0  0  0  0  0  0
  148.9969  141.1654  157.3138 C   0  0  0  0  0  0  0  0  0  0  0  0
  149.8594  141.9824  156.4240 N   0  3  1  0  0  0  0  0  0  0  0  0
  151.2184  142.2315  156.9703 C   0  0  0  0  0  0  0  0  0  0  0  0
  151.2040  142.9695  158.3266 C   0  0  0  0  0  0  0  0  0  0  0  0
  151.3595  144.4899  158.1552 C   0  0  0  0  0  0  0  0  0  0  0  0
  152.3016  142.4203  159.2505 C   0  0  0  0  0  0  0  0  0  0  0  0
  149.8980  141.3956  155.0639 C   0  0  0  0  0  0  0  0  0  0  0  0
  148.4732  141.2091  154.5193 C   0  0  0  0  0  0  0  0  0  0  0  0
  147.7262  140.3986  155.4170 O   0  0  0  0  0  0  0  0  0  0  0  0
  148.3560  137.8007  159.1037 N   0  0  0  0  0  0  0  0  0  0  0  0
  148.5405  136.9875  160.1500 N   0  0  0  0  0  0  0  0  0  0  0  0
  146.6062  133.3865  163.0175 H   0  0  0  0  0  0  0  0  0  0  0  0
  146.2966  133.4281  161.2770 H   0  0  0  0  0  0  0  0  0  0  0  0
  145.5439  134.6286  162.3427 H   0  0  0  0  0  0  0  0  0  0  0  0
  145.4946  135.4827  160.2694 H   0  0  0  0  0  0  0  0  0  0  0  0
  145.1495  137.0172  158.2983 H   0  0  0  0  0  0  0  0  0  0  0  0
  147.2869  138.3747  156.4310 H   0  0  0  0  0  0  0  0  0  0  0  0
  145.6553  140.2550  157.3061 H   0  0  0  0  0  0  0  0  0  0  0  0
  146.8192  140.3397  158.6182 H   0  0  0  0  0  0  0  0  0  0  0  0
  147.1187  141.9770  156.6066 H   0  0  0  0  0  0  0  0  0  0  0  0
  148.9070  141.6375  158.2915 H   0  0  0  0  0  0  0  0  0  0  0  0
  149.4572  140.1887  157.4724 H   0  0  0  0  0  0  0  0  0  0  0  0
  151.7500  141.2822  157.0540 H   0  0  0  0  0  0  0  0  0  0  0  0
  151.7871  142.8347  156.2606 H   0  0  0  0  0  0  0  0  0  0  0  0
  150.2540  142.7832  158.8263 H   0  0  0  0  0  0  0  0  0  0  0  0
  152.2957  144.7388  157.6543 H   0  0  0  0  0  0  0  0  0  0  0  0
  151.3566  144.9952  159.1214 H   0  0  0  0  0  0  0  0  0  0  0  0
  150.5441  144.9117  157.5673 H   0  0  0  0  0  0  0  0  0  0  0  0
  153.2943  142.5853  158.8303 H   0  0  0  0  0  0  0  0  0  0  0  0
  152.1822  141.3485  159.4110 H   0  0  0  0  0  0  0  0  0  0  0  0
  152.2704  142.9022  160.2283 H   0  0  0  0  0  0  0  0  0  0  0  0
  150.4626  142.0453  154.3939 H   0  0  0  0  0  0  0  0  0  0  0  0
  150.4160  140.4356  155.0937 H   0  0  0  0  0  0  0  0  0  0  0  0
  147.9784  142.1715  154.3787 H   0  0  0  0  0  0  0  0  0  0  0  0
  148.5038  140.7211  153.5450 H   0  0  0  0  0  0  0  0  0  0  0  0
  149.4170  142.8856  156.3297 H   0  0  0  0  0  0  0  0  0  0  0  0
  1  2  1  0  0  0  0
  1 21  1  0  0  0  0
  1 22  1  0  0  0  0
  1 23  1  0  0  0  0
  2  3  1  0  0  0  0
  3 20  1  0  0  0  0
  3  4  2  0  0  0  0
  4  5  1  0  0  0  0
  4 24  1  0  0  0  0
  5  6  2  0  0  0  0
  5 25  1  0  0  0  0
  6  7  1  0  0  0  0
  6 19  1  0  0  0  0
  7  8  1  0  0  0  0
  7 26  1  0  0  0  0
  8  9  1  0  0  0  0
  8 27  1  0  0  0  0
  8 28  1  0  0  0  0
  9 18  1  0  0  0  0
  9 10  1  0  0  0  0
  9 29  1  0  0  0  0
 10 11  1  0  0  0  0
 10 30  1  0  0  0  0
 10 31  1  0  0  0  0
 11 12  1  0  0  0  0
 11 16  1  0  0  0  0
 11 45  1  0  0  0  0
 12 13  1  0  0  0  0
 12 32  1  0  0  0  0
 12 33  1  0  0  0  0
 13 14  1  0  0  0  0
 13 15  1  0  0  0  0
 13 34  1  0  0  0  0
 14 35  1  0  0  0  0
 14 36  1  0  0  0  0
 14 37  1  0  0  0  0
 15 38  1  0  0  0  0
 15 39  1  0  0  0  0
 15 40  1  0  0  0  0
 16 17  1  0  0  0  0
 16 41  1  0  0  0  0
 16 42  1  0  0  0  0
 17 18  1  0  0  0  0
 17 43  1  0  0  0  0
 17 44  1  0  0  0  0
 19 20  2  0  0  0  0
M  CHG  1  11   1
M  END
> <s_m_source_file>
AV-unprocessed.smi

> <i_m_source_file_index>
2850

> <i_lp_mmshare_version>
43012

> <i_f3d_flags>
0

> <s_epik_input>
W0NIM11TYzFbY0hdW2NIXWMobm4xKVtOSF1bQ0gyXVtDQEBIXTJbQ0gyXU4oW0NIMl1bQ0gyXU8yKVtDSDJdW0NIXShbQ0gzXSlbQ0gzXQ==

> <s_epik_cmdline>
J2VwaWtfcHl0aG9uJywgJy1waCcsICc3LjAnLCAnLXRuJywgJzgnLCAnLW1hJywgJzIwMCcsICctbWV0YWxfYmluZGluZycsICctaW1hZScsICc8aW5maWxlLm1hZT4nLCAnLW9tYWUnLCAnPG91dGZpbGUubWFlPic=

> <r_lp_tautomer_probability>
0.999978

> <r_epik_Ionization_Penalty>
0.0874875

> <r_epik_Ionization_Penalty_Charging>
0.0831532

> <r_epik_Ionization_Penalty_Neutral>
0.00433433

> <r_epik_State_Penalty>
0.0738301

> <r_epik_Charging_Adjusted_Penalty>
0.156983

> <i_epik_Tot_Q>
1

> <i_epik_Tot_abs_Q>
1

> <r_epik_Metal_State_Penalty>
0.073888

> <b_epik_Metal_Only>
0

> <s_lp_Force_Field>
OPLS_2005

> <r_lp_Energy>
24.628

> <b_lp_Chiralities_Consistent>
1

> <s_lp_Variant>
AV-unprocessed.smi:2850-4

> <Gold.Version>
5.8.1

> <Gold.Id.Protein>
6NUR|6NUR_protein|mol2

> <Gold.PLP.Fitness>
38.2324

> <Gold.PLP.PLP>
-33.1680

> <Gold.PLP.part.hbond>
-4.4418

> <Gold.PLP.part.metal>
0.0000

> <Gold.PLP.part.buried>
-2.8844

> <Gold.PLP.part.nonpolar>
-25.8574

> <Gold.PLP.part.repulsive>
0.1610

> <Gold.PLP.ligand.clash>
0.0000

> <Gold.PLP.ligand.torsion>
1.5228

> <Gold.PLP.Chemscore.Hbond>
2.6880

> <Gold.PLP.Chemscore.CHOScore>
0.0000

> <Gold.PLP.Chemscore.Metal>
0.0000

> <Gold.Chemscore.Hbonds>
donor molecule, donor type, donor heavy atom, donor atom, acceptor molecule, acceptor atom, score
      L1  H    11    45       P1  8028  2.00
      P1  H  6931  6943       L1    20  0.39

> <Gold.PLP.Chemscore.Internal.Correction>
0.0459

> <Gold.Rescore>
     Score         DG    S(hbond)    S(metal)    S(lipo)     H(rot)  DE(clash)    DE(int)     intcor
     14.75     -16.31       1.47        0.00      85.76       1.60       0.29       1.26       ----

> <Gold.Chemscore.Fitness>
14.7549

> <Gold.Chemscore.DG>
-16.3115

> <Gold.Chemscore.ZeroCoef>
-5.4800

> <Gold.Chemscore.Hbond>
1.4655

> <Gold.Chemscore.Metal>
0.0000

> <Gold.Chemscore.Lipo>
85.7574

> <Gold.Chemscore.Internal_Hbond>
0.0000

> <Gold.Chemscore.DEClash>
0.2939

> <Gold.Chemscore.DEInternal>
1.2627

> <Gold.Chemscore.Rot>
1.6003

> <Gold.Chemscore.Internal.Correction>
   9.000000E+99

> <Gold.Chemscore.Hbonds>
donor molecule, donor type, donor heavy atom, donor atom, acceptor molecule, acceptor atom, score
      L1  H    11    45       P1  8028  0.93
      P1  H  6931  6943       L1    20  0.14

> <Gold.Chemscore.Hbond.Weighted>
-4.8947

> <Gold.Chemscore.Metal.Weighted>
-0.0000

> <Gold.Chemscore.Lipo.Weighted>
-10.0336

> <Gold.Chemscore.Internal_Hbond.Weighted>
0.0000

> <Gold.Chemscore.DEClash.Weighted>
0.2939

> <Gold.Chemscore.DEInternal.Weighted>
1.2627

> <Gold.Chemscore.Rot.Weighted>
4.0968

> <Gold.Chemscore.Internal.Correction.Weighted>
   9.000000E+99

> <Gold.Protein.RotatedTorsions>
[ 6907 6896 6895 6894 ] final  -25.58 input  -60.11 | X-H torsion
[ 7974 7965 7964 7962 ] final   -4.32 input  175.53 | X-H torsion
[ 8008 7997 7996 7995 ] final   43.34 input   59.86 | X-H torsion
[ 10167 10162 10161 10158 ] final  -88.59 input  -65.29 | X-H torsion
[ 10718 10713 10712 10709 ] final   55.78 input   66.30 | X-H torsion
[ 10763 10752 10751 10750 ] final  -82.27 input  -60.55 | X-H torsion
[ 11005 11000 10999 10996 ] final   55.69 input  -57.11 | X-H torsion

> <Gold.Protein.ActiveResidues>
 VAL166  LYS551  ARG553  GLY616  TRP617  ASP618  TYR619  PRO620  LYS621  CYS622 
 ASP623  PHE694  ASN695  SER759  ASP760  ASP761  ALA762  ILE779  LEU786  VAL792 
 PHE793  MET794  SER795  GLU796  ALA797  LYS798  CYS799  TRP800  GLU811  SER814 

> <Gold.Protein.RotatedAtoms>
  151.1732  135.0327  159.8760 H   0  0  0  0  0  0  0  0  0  0  0  0  # atno 6907 bound_to 6896
  152.5448  134.1147  159.8384 H   0  0  0  0  0  0  0  0  0  0  0  0  # atno 6908 bound_to 6896
  151.1256  133.5027  159.2633 H   0  0  0  0  0  0  0  0  0  0  0  0  # atno 6909 bound_to 6896
  146.2374  140.1854  142.8332 H   0  0  0  0  0  0  0  0  0  0  0  0  # atno 7974 bound_to 7965
  155.3011  140.3385  155.4247 H   0  0  0  0  0  0  0  0  0  0  0  0  # atno 8008 bound_to 7997
  156.2001  140.1729  156.7957 H   0  0  0  0  0  0  0  0  0  0  0  0  # atno 8009 bound_to 7997
  154.5548  140.0698  156.8709 H   0  0  0  0  0  0  0  0  0  0  0  0  # atno 8010 bound_to 7997
  140.3732  143.2784  151.9475 H   0  0  0  0  0  0  0  0  0  0  0  0  # atno 10167 bound_to 10162
  157.5374  130.8673  149.8773 H   0  0  0  0  0  0  0  0  0  0  0  0  # atno 10718 bound_to 10713
  154.5736  135.5597  153.7119 H   0  0  0  0  0  0  0  0  0  0  0  0  # atno 10763 bound_to 10752
  153.0057  135.6303  154.2079 H   0  0  0  0  0  0  0  0  0  0  0  0  # atno 10764 bound_to 10752
  154.2019  135.2877  155.2967 H   0  0  0  0  0  0  0  0  0  0  0  0  # atno 10765 bound_to 10752
  140.0587  134.5633  155.9177 H   0  0  0  0  0  0  0  0  0  0  0  0  # atno 11005 bound_to 11000
  144.9901  140.8539  143.5345 LP  0  0  0  0  0  0  0  0  0  0  0  0  # atno 17320 bound_to 7965
  145.1859  139.2327  143.5268 LP  0  0  0  0  0  0  0  0  0  0  0  0  # atno 17321 bound_to 7965
  139.4802  144.5887  151.7808 LP  0  0  0  0  0  0  0  0  0  0  0  0  # atno 17342 bound_to 10162
  140.5012  144.1166  150.5971 LP  0  0  0  0  0  0  0  0  0  0  0  0  # atno 17343 bound_to 10162
  156.0470  130.3726  150.1294 LP  0  0  0  0  0  0  0  0  0  0  0  0  # atno 17370 bound_to 10713
  156.9476  130.9764  151.3504 LP  0  0  0  0  0  0  0  0  0  0  0  0  # atno 17371 bound_to 10713
  141.1964  133.6591  156.5688 LP  0  0  0  0  0  0  0  0  0  0  0  0  # atno 17394 bound_to 11000
  140.3803  134.7529  157.4657 LP  0  0  0  0  0  0  0  0  0  0  0  0  # atno 17395 bound_to 11000

$$$$
