AV-unprocessed.smi:1362|AV-procd|sdf|5558|dock10
  -GOLD-   22720 5153D 1   1.00000     0.00000
 Structure written by MMmdl.
 39 39  0  0  0  0  0  0  0  0  1 V2000
  153.6208  141.9534  161.9875 C   0  0  0  0  0  0  0  0  0  0  0  0
  152.9794  142.2823  160.6561 C   0  0  0  0  0  0  0  0  0  0  0  0
  152.3681  143.3932  160.4055 N   0  0  0  0  0  0  0  0  0  0  0  0
  151.8108  143.5831  159.1333 C   0  0  0  0  0  0  0  0  0  0  0  0
  151.1059  144.9114  158.9169 C   0  0  0  0  0  0  0  0  0  0  0  0
  151.9019  142.6277  158.1619 C   0  0  0  0  0  0  0  0  0  0  0  0
  151.3010  142.8052  156.7682 C   0  0  0  0  0  0  0  0  0  0  0  0
  150.2936  141.7375  156.3345 C   0  0  0  0  0  0  0  0  0  0  0  0
  150.5863  140.5430  156.3924 O   0  0  0  0  0  0  0  0  0  0  0  0
  149.1025  142.1877  155.9118 N   0  0  0  0  0  0  0  0  0  0  0  0
  147.9689  141.3555  155.5112 C   0  0  2  0  0  0  0  0  0  0  0  0
  148.3420  140.5883  154.2286 C   0  0  0  0  0  0  0  0  0  0  0  0
  146.6964  142.2301  155.3576 C   0  0  0  0  0  0  0  0  0  0  0  0
  145.4044  141.4322  155.6243 C   0  0  0  0  0  0  0  0  0  0  0  0
  146.6074  142.9018  153.9752 C   0  0  0  0  0  0  0  0  0  0  0  0
  152.6028  141.3635  158.4590 C   0  0  0  0  0  0  0  0  0  0  0  0
  152.7398  140.4367  157.6619 O   0  0  0  0  0  0  0  0  0  0  0  0
  153.1080  141.2676  159.7091 N   0  0  0  0  0  0  0  0  0  0  0  0
  153.5961  140.4205  159.9617 H   0  0  0  0  0  0  0  0  0  0  0  0
  152.8685  141.9574  162.7767 H   0  0  0  0  0  0  0  0  0  0  0  0
  154.3796  142.6969  162.2324 H   0  0  0  0  0  0  0  0  0  0  0  0
  154.0962  140.9715  161.9741 H   0  0  0  0  0  0  0  0  0  0  0  0
  151.6108  145.4903  158.1437 H   0  0  0  0  0  0  0  0  0  0  0  0
  151.0975  145.5088  159.8293 H   0  0  0  0  0  0  0  0  0  0  0  0
  150.0703  144.7550  158.6145 H   0  0  0  0  0  0  0  0  0  0  0  0
  150.8139  143.7801  156.7286 H   0  0  0  0  0  0  0  0  0  0  0  0
  152.0861  142.8572  156.0133 H   0  0  0  0  0  0  0  0  0  0  0  0
  148.9573  143.1867  155.8941 H   0  0  0  0  0  0  0  0  0  0  0  0
  147.7762  140.6251  156.2995 H   0  0  0  0  0  0  0  0  0  0  0  0
  147.5795  139.8583  153.9583 H   0  0  0  0  0  0  0  0  0  0  0  0
  149.2728  140.0351  154.3570 H   0  0  0  0  0  0  0  0  0  0  0  0
  148.4737  141.2658  153.3843 H   0  0  0  0  0  0  0  0  0  0  0  0
  146.7419  143.0263  156.1023 H   0  0  0  0  0  0  0  0  0  0  0  0
  145.3138  140.5872  154.9409 H   0  0  0  0  0  0  0  0  0  0  0  0
  144.5220  142.0595  155.4935 H   0  0  0  0  0  0  0  0  0  0  0  0
  145.3666  141.0424  156.6416 H   0  0  0  0  0  0  0  0  0  0  0  0
  146.6253  142.1632  153.1733 H   0  0  0  0  0  0  0  0  0  0  0  0
  147.4280  143.5990  153.8088 H   0  0  0  0  0  0  0  0  0  0  0  0
  145.6848  143.4744  153.8764 H   0  0  0  0  0  0  0  0  0  0  0  0
  1  2  1  0  0  0  0
  1 20  1  0  0  0  0
  1 21  1  0  0  0  0
  1 22  1  0  0  0  0
  2 18  1  0  0  0  0
  2  3  2  0  0  0  0
  3  4  1  0  0  0  0
  4  5  1  0  0  0  0
  4  6  2  0  0  0  0
  5 23  1  0  0  0  0
  5 24  1  0  0  0  0
  5 25  1  0  0  0  0
  6  7  1  0  0  0  0
  6 16  1  0  0  0  0
  7  8  1  0  0  0  0
  7 26  1  0  0  0  0
  7 27  1  0  0  0  0
  8  9  2  0  0  0  0
  8 10  1  0  0  0  0
 10 11  1  0  0  0  0
 10 28  1  0  0  0  0
 11 12  1  0  0  0  0
 11 13  1  0  0  0  0
 11 29  1  0  0  0  0
 12 30  1  0  0  0  0
 12 31  1  0  0  0  0
 12 32  1  0  0  0  0
 13 14  1  0  0  0  0
 13 15  1  0  0  0  0
 13 33  1  0  0  0  0
 14 34  1  0  0  0  0
 14 35  1  0  0  0  0
 14 36  1  0  0  0  0
 15 37  1  0  0  0  0
 15 38  1  0  0  0  0
 15 39  1  0  0  0  0
 16 17  2  0  0  0  0
 16 18  1  0  0  0  0
 18 19  1  0  0  0  0
M  END
> <s_m_source_file>
AV-unprocessed.smi

> <i_m_source_file_index>
1362

> <i_lp_mmshare_version>
43012

> <i_f3d_flags>
0

> <s_epik_input>
W0NIM11jMW5jKFtDSDNdKWMoYyg9TylbbkhdMSlbQ0gyXUMoPU8pW05IXVtDQEhdKFtDSDNdKVtDSF0oW0NIM10pW0NIM10=

> <s_epik_cmdline>
J2VwaWtfcHl0aG9uJywgJy1waCcsICc3LjAnLCAnLXRuJywgJzgnLCAnLW1hJywgJzIwMCcsICctbWV0YWxfYmluZGluZycsICctaW1hZScsICc8aW5maWxlLm1hZT4nLCAnLW9tYWUnLCAnPG91dGZpbGUubWFlPic=

> <r_lp_tautomer_probability>
0.839158

> <r_epik_Ionization_Penalty>
0.000388977

> <r_epik_Ionization_Penalty_Charging>
0.000356458

> <r_epik_Ionization_Penalty_Neutral>
3.25191e-05

> <r_epik_State_Penalty>
0.0469868

> <r_epik_Charging_Adjusted_Penalty>
0.0473433

> <i_epik_Tot_Q>
0

> <i_epik_Tot_abs_Q>
0

> <r_epik_Metal_State_Penalty>
0.223288

> <b_epik_Metal_Only>
0

> <s_lp_Force_Field>
OPLS_2005

> <r_lp_Energy>
7.29912

> <b_lp_Chiralities_Consistent>
1

> <s_lp_Variant>
AV-unprocessed.smi:1362-1

> <Gold.Version>
5.8.1

> <Gold.Id.Protein>
6NUR|6NUR_protein|mol2

> <Gold.PLP.Fitness>
39.7275

> <Gold.PLP.PLP>
-35.2896

> <Gold.PLP.part.hbond>
-2.0000

> <Gold.PLP.part.metal>
0.0000

> <Gold.PLP.part.buried>
-5.7645

> <Gold.PLP.part.nonpolar>
-27.4978

> <Gold.PLP.part.repulsive>
0.2481

> <Gold.PLP.ligand.clash>
0.0000

> <Gold.PLP.ligand.torsion>
0.6915

> <Gold.PLP.Chemscore.Hbond>
1.9280

> <Gold.PLP.Chemscore.CHOScore>
0.0000

> <Gold.PLP.Chemscore.Metal>
0.0000

> <Gold.Chemscore.Hbonds>
donor molecule, donor type, donor heavy atom, donor atom, acceptor molecule, acceptor atom, score
      L1  H    10    28       P1  8028  1.00
      P1  H  7997  8009       L1    17  0.88

> <Gold.PLP.Chemscore.Internal.Correction>
0.0369

> <Gold.Rescore>
     Score         DG    S(hbond)    S(metal)    S(lipo)     H(rot)  DE(clash)    DE(int)     intcor
     13.81     -16.11       1.87        0.00      74.58       1.69       0.16       2.14       ----

> <Gold.Chemscore.Fitness>
13.8105

> <Gold.Chemscore.DG>
-16.1119

> <Gold.Chemscore.ZeroCoef>
-5.4800

> <Gold.Chemscore.Hbond>
1.8671

> <Gold.Chemscore.Metal>
0.0000

> <Gold.Chemscore.Lipo>
74.5834

> <Gold.Chemscore.Internal_Hbond>
0.0000

> <Gold.Chemscore.DEClash>
0.1642

> <Gold.Chemscore.DEInternal>
2.1373

> <Gold.Chemscore.Rot>
1.6916

> <Gold.Chemscore.Internal.Correction>
   9.000000E+99

> <Gold.Chemscore.Hbonds>
donor molecule, donor type, donor heavy atom, donor atom, acceptor molecule, acceptor atom, score
      L1  H    10    28       P1  8028  0.95
      P1  H  7997  8009       L1    17  0.85

> <Gold.Chemscore.Hbond.Weighted>
-6.2362

> <Gold.Chemscore.Metal.Weighted>
-0.0000

> <Gold.Chemscore.Lipo.Weighted>
-8.7263

> <Gold.Chemscore.Internal_Hbond.Weighted>
0.0000

> <Gold.Chemscore.DEClash.Weighted>
0.1642

> <Gold.Chemscore.DEInternal.Weighted>
2.1373

> <Gold.Chemscore.Rot.Weighted>
4.3305

> <Gold.Chemscore.Internal.Correction.Weighted>
   9.000000E+99

> <Gold.Protein.RotatedTorsions>
[ 6907 6896 6895 6894 ] final  153.22 input  -60.11 | X-H torsion
[ 7974 7965 7964 7962 ] final   21.57 input  175.53 | X-H torsion
[ 8008 7997 7996 7995 ] final  170.84 input   59.86 | X-H torsion
[ 10167 10162 10161 10158 ] final -159.44 input  -65.29 | X-H torsion
[ 10718 10713 10712 10709 ] final   14.33 input   66.30 | X-H torsion
[ 10763 10752 10751 10750 ] final  -15.57 input  -60.55 | X-H torsion
[ 11005 11000 10999 10996 ] final   42.90 input  -57.11 | X-H torsion

> <Gold.Protein.ActiveResidues>
 VAL166  LYS551  ARG553  GLY616  TRP617  ASP618  TYR619  PRO620  LYS621  CYS622 
 ASP623  PHE694  ASN695  SER759  ASP760  ASP761  ALA762  ILE779  LEU786  VAL792 
 PHE793  MET794  SER795  GLU796  ALA797  LYS798  CYS799  TRP800  GLU811  SER814 

> <Gold.Protein.RotatedAtoms>
  152.0758  133.4128  159.4478 H   0  0  0  0  0  0  0  0  0  0  0  0  # atno 6907 bound_to 6896
  150.6863  134.3039  159.4727 H   0  0  0  0  0  0  0  0  0  0  0  0  # atno 6908 bound_to 6896
  152.0876  134.9429  160.0623 H   0  0  0  0  0  0  0  0  0  0  0  0  # atno 6909 bound_to 6896
  146.2066  139.8008  142.8721 H   0  0  0  0  0  0  0  0  0  0  0  0  # atno 7974 bound_to 7965
  156.1328  140.1527  156.9040 H   0  0  0  0  0  0  0  0  0  0  0  0  # atno 8008 bound_to 7997
  154.4923  140.0848  156.7660 H   0  0  0  0  0  0  0  0  0  0  0  0  # atno 8009 bound_to 7997
  155.4225  140.3423  155.4275 H   0  0  0  0  0  0  0  0  0  0  0  0  # atno 8010 bound_to 7997
  139.6615  143.9905  152.2228 H   0  0  0  0  0  0  0  0  0  0  0  0  # atno 10167 bound_to 10162
  157.0376  130.6218  149.5745 H   0  0  0  0  0  0  0  0  0  0  0  0  # atno 10718 bound_to 10713
  153.5453  135.7012  153.5617 H   0  0  0  0  0  0  0  0  0  0  0  0  # atno 10763 bound_to 10752
  153.3565  135.3981  155.1685 H   0  0  0  0  0  0  0  0  0  0  0  0  # atno 10764 bound_to 10752
  154.8668  135.3778  154.4960 H   0  0  0  0  0  0  0  0  0  0  0  0  # atno 10765 bound_to 10752
  140.1696  134.4239  155.8266 H   0  0  0  0  0  0  0  0  0  0  0  0  # atno 11005 bound_to 11000
  145.3298  141.0264  143.3453 LP  0  0  0  0  0  0  0  0  0  0  0  0  # atno 17320 bound_to 7965
  144.8807  139.4908  143.6724 LP  0  0  0  0  0  0  0  0  0  0  0  0  # atno 17321 bound_to 7965
  139.9645  144.6535  150.8047 LP  0  0  0  0  0  0  0  0  0  0  0  0  # atno 17342 bound_to 10162
  140.7582  143.3101  151.2865 LP  0  0  0  0  0  0  0  0  0  0  0  0  # atno 17343 bound_to 10162
  156.0049  130.5134  150.7793 LP  0  0  0  0  0  0  0  0  0  0  0  0  # atno 17370 bound_to 10713
  157.5130  131.0926  151.0175 LP  0  0  0  0  0  0  0  0  0  0  0  0  # atno 17371 bound_to 10713
  141.2216  133.6950  156.7739 LP  0  0  0  0  0  0  0  0  0  0  0  0  # atno 17394 bound_to 11000
  140.2393  134.8626  157.3557 LP  0  0  0  0  0  0  0  0  0  0  0  0  # atno 17395 bound_to 11000

$$$$
