AV-unprocessed.smi:284|AV-procd|sdf|2164|dock10
  -GOLD-   2262021523D 1   1.00000     0.00000
 Structure written by MMmdl.
 60 62  0  0  0  0  0  0  0  0  1 V2000
  159.4593  135.4127  163.4482 C   0  0  0  0  0  0  0  0  0  0  0  0
  158.0054  135.7844  163.6937 C   0  0  0  0  0  0  0  0  0  0  0  0
  157.0368  134.8491  163.8294 C   0  0  0  0  0  0  0  0  0  0  0  0
  155.7064  135.1546  164.0549 N   0  0  0  0  0  0  0  0  0  0  0  0
  154.6444  134.0843  164.1945 C   0  0  1  0  0  0  0  0  0  0  0  0
  154.5138  133.2806  162.8914 C   0  0  0  0  0  0  0  0  0  0  0  0
  154.4720  131.8461  163.3826 C   0  0  2  0  0  0  0  0  0  0  0  0
  153.1395  131.4465  163.6445 O   0  0  0  0  0  0  0  0  0  0  0  0
  155.3189  131.9195  164.6584 C   0  0  2  0  0  0  0  0  0  0  0  0
  155.1278  130.7942  165.6902 C   0  0  0  0  0  0  0  0  0  0  0  0
  156.1445  130.8515  166.6677 O   0  0  0  0  0  0  0  0  0  0  0  0
  154.9948  133.1909  165.2125 O   0  0  0  0  0  0  0  0  0  0  0  0
  155.3060  136.5032  164.1373 C   0  0  0  0  0  0  0  0  0  0  0  0
  154.1236  136.7986  164.3266 O   0  0  0  0  0  0  0  0  0  0  0  0
  156.2926  137.5046  163.9968 N   0  0  0  0  0  0  0  0  0  0  0  0
  155.8778  138.9207  164.1101 C   0  0  0  0  0  0  0  0  0  0  0  0
  155.0886  139.4222  162.8905 C   0  0  0  0  0  0  0  0  0  0  0  0
  154.9030  138.6812  161.9247 O   0  0  0  0  0  0  0  0  0  0  0  0
  154.6116  140.6760  162.9970 N   0  0  0  0  0  0  0  0  0  0  0  0
  153.8694  141.4420  162.0559 C   0  0  0  0  0  0  0  0  0  0  0  0
  153.1236  142.5257  162.5589 C   0  0  0  0  0  0  0  0  0  0  0  0
  152.3760  143.3494  161.6957 C   0  0  0  0  0  0  0  0  0  0  0  0
  152.3614  143.1131  160.2993 C   0  0  0  0  0  0  0  0  0  0  0  0
  151.5591  143.9924  159.3206 C   0  0  0  0  0  0  0  0  0  0  0  0
  152.5171  144.6414  158.2993 C   0  0  0  0  0  0  0  0  0  0  0  0
  150.7878  145.1310  160.0259 C   0  0  0  0  0  0  0  0  0  0  0  0
  150.5286  143.1228  158.5709 C   0  0  0  0  0  0  0  0  0  0  0  0
  153.1202  142.0282  159.8007 C   0  0  0  0  0  0  0  0  0  0  0  0
  153.8701  141.2044  160.6616 C   0  0  0  0  0  0  0  0  0  0  0  0
  157.6604  137.2053  163.7831 C   0  0  0  0  0  0  0  0  0  0  0  0
  158.4934  138.1083  163.6867 O   0  0  0  0  0  0  0  0  0  0  0  0
  159.5992  134.3328  163.3917 H   0  0  0  0  0  0  0  0  0  0  0  0
  160.0896  135.7882  164.2549 H   0  0  0  0  0  0  0  0  0  0  0  0
  159.8093  135.8434  162.5094 H   0  0  0  0  0  0  0  0  0  0  0  0
  157.3338  133.8145  163.7553 H   0  0  0  0  0  0  0  0  0  0  0  0
  153.7278  134.5963  164.4920 H   0  0  0  0  0  0  0  0  0  0  0  0
  153.6366  133.5876  162.3204 H   0  0  0  0  0  0  0  0  0  0  0  0
  155.4022  133.4344  162.2764 H   0  0  0  0  0  0  0  0  0  0  0  0
  154.9000  131.1565  162.6544 H   0  0  0  0  0  0  0  0  0  0  0  0
  153.1531  130.5770  164.0143 H   0  0  0  0  0  0  0  0  0  0  0  0
  156.3704  131.9556  164.3690 H   0  0  0  0  0  0  0  0  0  0  0  0
  154.1675  130.9127  166.1927 H   0  0  0  0  0  0  0  0  0  0  0  0
  155.1197  129.8108  165.2205 H   0  0  0  0  0  0  0  0  0  0  0  0
  156.2395  129.9941  167.0537 H   0  0  0  0  0  0  0  0  0  0  0  0
  155.2707  139.0894  165.0005 H   0  0  0  0  0  0  0  0  0  0  0  0
  156.7479  139.5621  164.2624 H   0  0  0  0  0  0  0  0  0  0  0  0
  154.7734  141.1290  163.8847 H   0  0  0  0  0  0  0  0  0  0  0  0
  153.1190  142.7319  163.6194 H   0  0  0  0  0  0  0  0  0  0  0  0
  151.8217  144.1617  162.1385 H   0  0  0  0  0  0  0  0  0  0  0  0
  151.9786  145.2889  157.6062 H   0  0  0  0  0  0  0  0  0  0  0  0
  153.0423  143.8997  157.6975 H   0  0  0  0  0  0  0  0  0  0  0  0
  153.2705  145.2519  158.7983 H   0  0  0  0  0  0  0  0  0  0  0  0
  151.4607  145.8054  160.5571 H   0  0  0  0  0  0  0  0  0  0  0  0
  150.0606  144.7441  160.7409 H   0  0  0  0  0  0  0  0  0  0  0  0
  150.2339  145.7365  159.3074 H   0  0  0  0  0  0  0  0  0  0  0  0
  149.9301  143.7210  157.8828 H   0  0  0  0  0  0  0  0  0  0  0  0
  149.8413  142.6390  159.2661 H   0  0  0  0  0  0  0  0  0  0  0  0
  151.0043  142.3389  157.9815 H   0  0  0  0  0  0  0  0  0  0  0  0
  153.1396  141.8182  158.7419 H   0  0  0  0  0  0  0  0  0  0  0  0
  154.4465  140.4066  160.2211 H   0  0  0  0  0  0  0  0  0  0  0  0
  1  2  1  0  0  0  0
  1 32  1  0  0  0  0
  1 33  1  0  0  0  0
  1 34  1  0  0  0  0
  2 30  1  0  0  0  0
  2  3  2  0  0  0  0
  3  4  1  0  0  0  0
  3 35  1  0  0  0  0
  4  5  1  0  0  0  0
  4 13  1  0  0  0  0
  5 12  1  0  0  0  0
  5  6  1  0  0  0  0
  5 36  1  0  0  0  0
  6  7  1  0  0  0  0
  6 37  1  0  0  0  0
  6 38  1  0  0  0  0
  7  8  1  0  0  0  0
  7  9  1  0  0  0  0
  7 39  1  0  0  0  0
  8 40  1  0  0  0  0
  9 10  1  0  0  0  0
  9 12  1  0  0  0  0
  9 41  1  0  0  0  0
 10 11  1  0  0  0  0
 10 42  1  0  0  0  0
 10 43  1  0  0  0  0
 11 44  1  0  0  0  0
 13 14  2  0  0  0  0
 13 15  1  0  0  0  0
 15 16  1  0  0  0  0
 15 30  1  0  0  0  0
 16 17  1  0  0  0  0
 16 45  1  0  0  0  0
 16 46  1  0  0  0  0
 17 18  2  0  0  0  0
 17 19  1  0  0  0  0
 19 20  1  0  0  0  0
 19 47  1  0  0  0  0
 20 29  1  0  0  0  0
 20 21  2  0  0  0  0
 21 22  1  0  0  0  0
 21 48  1  0  0  0  0
 22 23  2  0  0  0  0
 22 49  1  0  0  0  0
 23 24  1  0  0  0  0
 23 28  1  0  0  0  0
 24 25  1  0  0  0  0
 24 26  1  0  0  0  0
 24 27  1  0  0  0  0
 25 50  1  0  0  0  0
 25 51  1  0  0  0  0
 25 52  1  0  0  0  0
 26 53  1  0  0  0  0
 26 54  1  0  0  0  0
 26 55  1  0  0  0  0
 27 56  1  0  0  0  0
 27 57  1  0  0  0  0
 27 58  1  0  0  0  0
 28 29  2  0  0  0  0
 28 59  1  0  0  0  0
 29 60  1  0  0  0  0
 30 31  2  0  0  0  0
M  END
> <s_m_source_file>
AV-unprocessed.smi

> <i_m_source_file_index>
284

> <i_lp_mmshare_version>
43012

> <i_f3d_flags>
0

> <s_epik_input>
W09IXVtDSDJdW0NAQEhdKE8xKVtDQEhdKFtPSF0pW0NIMl1bQ0BIXTFuKFtjSF1jMltDSDNdKWMoPU8pbihjMj1PKVtDSDJdQyg9TylbTkhdYzNbY0hdW2NIXWMoQyhbQ0gzXSkoW0NIM10pW0NIM10pW2NIXVtjSF0z

> <s_epik_cmdline>
J2VwaWtfcHl0aG9uJywgJy1waCcsICc3LjAnLCAnLXRuJywgJzgnLCAnLW1hJywgJzIwMCcsICctbWV0YWxfYmluZGluZycsICctaW1hZScsICc8aW5maWxlLm1hZT4nLCAnLW9tYWUnLCAnPG91dGZpbGUubWFlPic=

> <r_lp_tautomer_probability>
1

> <r_epik_Ionization_Penalty>
4.92358e-06

> <r_epik_Ionization_Penalty_Charging>
1.29777e-07

> <r_epik_Ionization_Penalty_Neutral>
4.79381e-06

> <r_epik_State_Penalty>
-0

> <r_epik_Charging_Adjusted_Penalty>
1.29777e-07

> <i_epik_Tot_Q>
0

> <i_epik_Tot_abs_Q>
0

> <r_epik_Metal_State_Penalty>
-0

> <b_epik_Metal_Only>
0

> <s_epik_Chemistry_Notes>
This compound contains an acetal/aminal-like group ( X-CH(R)-Y where X, Y are N, S, or O) that may be acid/base labile, releasing an aldehyde.

> <s_lp_Force_Field>
OPLS_2005

> <r_lp_Energy>
40.7373

> <b_lp_Chiralities_Consistent>
1

> <s_lp_Variant>
AV-unprocessed.smi:284-8

> <Gold.Version>
5.8.1

> <Gold.Id.Protein>
6NUR|6NUR_protein|mol2

> <Gold.PLP.Fitness>
53.5388

> <Gold.PLP.PLP>
-54.2387

> <Gold.PLP.part.hbond>
-0.2270

> <Gold.PLP.part.metal>
0.0000

> <Gold.PLP.part.buried>
-7.1338

> <Gold.PLP.part.nonpolar>
-47.1298

> <Gold.PLP.part.repulsive>
0.1605

> <Gold.PLP.ligand.clash>
0.0000

> <Gold.PLP.ligand.torsion>
0.3606

> <Gold.PLP.Chemscore.Hbond>
0.0000

> <Gold.PLP.Chemscore.CHOScore>
0.0000

> <Gold.PLP.Chemscore.Metal>
0.0000

> <Gold.PLP.Chemscore.Internal.Correction>
0.0212

> <Gold.Rescore>
     Score         DG    S(hbond)    S(metal)    S(lipo)     H(rot)  DE(clash)    DE(int)     intcor
     11.98     -13.52       0.00        0.00     140.34       3.27       0.18       1.35       ----

> <Gold.Chemscore.Fitness>
11.9826

> <Gold.Chemscore.DG>
-13.5203

> <Gold.Chemscore.ZeroCoef>
-5.4800

> <Gold.Chemscore.Hbond>
0.0000

> <Gold.Chemscore.Metal>
0.0000

> <Gold.Chemscore.Lipo>
140.3448

> <Gold.Chemscore.Internal_Hbond>
0.0000

> <Gold.Chemscore.DEClash>
0.1846

> <Gold.Chemscore.DEInternal>
1.3531

> <Gold.Chemscore.Rot>
3.2735

> <Gold.Chemscore.Internal.Correction>
   9.000000E+99

> <Gold.Chemscore.Hbond.Weighted>
-0.0000

> <Gold.Chemscore.Metal.Weighted>
-0.0000

> <Gold.Chemscore.Lipo.Weighted>
-16.4203

> <Gold.Chemscore.Internal_Hbond.Weighted>
0.0000

> <Gold.Chemscore.DEClash.Weighted>
0.1846

> <Gold.Chemscore.DEInternal.Weighted>
1.3531

> <Gold.Chemscore.Rot.Weighted>
8.3801

> <Gold.Chemscore.Internal.Correction.Weighted>
   9.000000E+99

> <Gold.Protein.RotatedTorsions>
[ 6907 6896 6895 6894 ] final  -21.25 input  -60.11 | X-H torsion
[ 7974 7965 7964 7962 ] final   16.46 input  175.53 | X-H torsion
[ 8008 7997 7996 7995 ] final  116.27 input   59.86 | X-H torsion
[ 10167 10162 10161 10158 ] final   39.16 input  -65.29 | X-H torsion
[ 10718 10713 10712 10709 ] final -100.23 input   66.30 | X-H torsion
[ 10763 10752 10751 10750 ] final  117.84 input  -60.55 | X-H torsion
[ 11005 11000 10999 10996 ] final   78.37 input  -57.11 | X-H torsion

> <Gold.Protein.ActiveResidues>
 VAL166  LYS551  ARG553  GLY616  TRP617  ASP618  TYR619  PRO620  LYS621  CYS622 
 ASP623  PHE694  ASN695  SER759  ASP760  ASP761  ALA762  ILE779  LEU786  VAL792 
 PHE793  MET794  SER795  GLU796  ALA797  LYS798  CYS799  TRP800  GLU811  SER814 

> <Gold.Protein.RotatedAtoms>
  151.2361  135.0572  159.9006 H   0  0  0  0  0  0  0  0  0  0  0  0  # atno 6907 bound_to 6896
  152.5399  134.0485  159.8109 H   0  0  0  0  0  0  0  0  0  0  0  0  # atno 6908 bound_to 6896
  151.0672  133.5447  159.2661 H   0  0  0  0  0  0  0  0  0  0  0  0  # atno 6909 bound_to 6896
  146.2248  139.8744  142.8582 H   0  0  0  0  0  0  0  0  0  0  0  0  # atno 7974 bound_to 7965
  156.2430  140.2921  156.0498 H   0  0  0  0  0  0  0  0  0  0  0  0  # atno 8008 bound_to 7997
  155.1894  140.0406  157.2914 H   0  0  0  0  0  0  0  0  0  0  0  0  # atno 8009 bound_to 7997
  154.6205  140.2474  155.7562 H   0  0  0  0  0  0  0  0  0  0  0  0  # atno 8010 bound_to 7997
  140.3867  144.1907  150.6130 H   0  0  0  0  0  0  0  0  0  0  0  0  # atno 10167 bound_to 10162
  156.0157  130.5318  150.6786 H   0  0  0  0  0  0  0  0  0  0  0  0  # atno 10718 bound_to 10713
  153.5585  135.3525  155.2789 H   0  0  0  0  0  0  0  0  0  0  0  0  # atno 10763 bound_to 10752
  154.8698  135.4131  154.2857 H   0  0  0  0  0  0  0  0  0  0  0  0  # atno 10764 bound_to 10752
  153.3598  135.7059  153.6790 H   0  0  0  0  0  0  0  0  0  0  0  0  # atno 10765 bound_to 10752
  139.9215  134.7758  156.1641 H   0  0  0  0  0  0  0  0  0  0  0  0  # atno 11005 bound_to 11000
  145.2576  141.0066  143.3845 LP  0  0  0  0  0  0  0  0  0  0  0  0  # atno 17320 bound_to 7965
  144.9324  139.4283  143.6488 LP  0  0  0  0  0  0  0  0  0  0  0  0  # atno 17321 bound_to 7965
  140.4882  143.2356  151.8857 LP  0  0  0  0  0  0  0  0  0  0  0  0  # atno 17342 bound_to 10162
  139.4791  144.5195  151.8821 LP  0  0  0  0  0  0  0  0  0  0  0  0  # atno 17343 bound_to 10162
  157.4493  131.0870  151.0862 LP  0  0  0  0  0  0  0  0  0  0  0  0  # atno 17370 bound_to 10713
  157.1383  130.6132  149.5548 LP  0  0  0  0  0  0  0  0  0  0  0  0  # atno 17371 bound_to 10713
  141.0740  133.6784  156.2198 LP  0  0  0  0  0  0  0  0  0  0  0  0  # atno 17394 bound_to 11000
  140.6459  134.5117  157.5573 LP  0  0  0  0  0  0  0  0  0  0  0  0  # atno 17395 bound_to 11000

$$$$
