AV-unprocessed.smi:1919|AV-procd|sdf|7773|dock10
  -GOLD-   22720 9523D 1   1.00000     0.00000
 Structure written by MMmdl.
 36 38  0  0  0  0  0  0  0  0  1 V2000
  151.8288  137.0518  154.0881 O   0  0  0  0  0  0  0  0  0  0  0  0
  151.8476  138.2429  154.8443 C   0  0  0  0  0  0  0  0  0  0  0  0
  150.5921  139.0492  154.7014 C   0  0  0  0  0  0  0  0  0  0  0  0
  149.5942  138.6533  153.9099 N   0  0  0  0  0  0  0  0  0  0  0  0
  148.6497  139.6441  154.0902 C   0  0  0  0  0  0  0  0  0  0  0  0
  147.3623  139.7991  153.5281 C   0  0  0  0  0  0  0  0  0  0  0  0
  146.5602  140.9060  153.8752 C   0  0  0  0  0  0  0  0  0  0  0  0
  147.0325  141.8714  154.7878 C   0  0  0  0  0  0  0  0  0  0  0  0
  148.3130  141.7368  155.3577 C   0  0  0  0  0  0  0  0  0  0  0  0
  149.1114  140.6318  155.0051 C   0  0  0  0  0  0  0  0  0  0  0  0
  150.3883  140.2146  155.3688 N   0  0  0  0  0  0  0  0  0  0  0  0
  151.2787  140.9073  156.2927 C   0  0  0  0  0  0  0  0  0  0  0  0
  150.9466  140.6204  157.7717 C   0  0  2  0  0  0  0  0  0  0  0  0
  149.5480  140.6656  157.9749 O   0  0  0  0  0  0  0  0  0  0  0  0
  151.6978  141.5659  158.6956 C   0  0  0  0  0  0  0  0  0  0  0  0
  152.5404  141.0649  159.7127 C   0  0  0  0  0  0  0  0  0  0  0  0
  153.2215  141.9506  160.5703 C   0  0  0  0  0  0  0  0  0  0  0  0
  153.0620  143.3413  160.4182 C   0  0  0  0  0  0  0  0  0  0  0  0
  152.2192  143.8461  159.4095 C   0  0  0  0  0  0  0  0  0  0  0  0
  152.0613  145.1829  159.2655 F   0  0  0  0  0  0  0  0  0  0  0  0
  151.5385  142.9608  158.5514 C   0  0  0  0  0  0  0  0  0  0  0  0
  150.9447  136.7192  154.0740 H   0  0  0  0  0  0  0  0  0  0  0  0
  151.9889  137.9809  155.8935 H   0  0  0  0  0  0  0  0  0  0  0  0
  152.7082  138.8476  154.5587 H   0  0  0  0  0  0  0  0  0  0  0  0
  146.9905  139.0639  152.8299 H   0  0  0  0  0  0  0  0  0  0  0  0
  145.5771  141.0134  153.4409 H   0  0  0  0  0  0  0  0  0  0  0  0
  146.4112  142.7150  155.0502 H   0  0  0  0  0  0  0  0  0  0  0  0
  148.6764  142.4738  156.0581 H   0  0  0  0  0  0  0  0  0  0  0  0
  152.2975  140.5848  156.0741 H   0  0  0  0  0  0  0  0  0  0  0  0
  151.2538  141.9796  156.1030 H   0  0  0  0  0  0  0  0  0  0  0  0
  151.2543  139.6029  158.0146 H   0  0  0  0  0  0  0  0  0  0  0  0
  149.1550  139.9345  157.5233 H   0  0  0  0  0  0  0  0  0  0  0  0
  152.6644  139.9993  159.8405 H   0  0  0  0  0  0  0  0  0  0  0  0
  153.8649  141.5630  161.3465 H   0  0  0  0  0  0  0  0  0  0  0  0
  153.5841  144.0203  161.0761 H   0  0  0  0  0  0  0  0  0  0  0  0
  150.8906  143.3573  157.7833 H   0  0  0  0  0  0  0  0  0  0  0  0
  1  2  1  0  0  0  0
  1 22  1  0  0  0  0
  2  3  1  0  0  0  0
  2 23  1  0  0  0  0
  2 24  1  0  0  0  0
  3 11  1  0  0  0  0
  3  4  2  0  0  0  0
  4  5  1  0  0  0  0
  5 10  2  0  0  0  0
  5  6  1  0  0  0  0
  6  7  2  0  0  0  0
  6 25  1  0  0  0  0
  7  8  1  0  0  0  0
  7 26  1  0  0  0  0
  8  9  2  0  0  0  0
  8 27  1  0  0  0  0
  9 10  1  0  0  0  0
  9 28  1  0  0  0  0
 10 11  1  0  0  0  0
 11 12  1  0  0  0  0
 12 13  1  0  0  0  0
 12 29  1  0  0  0  0
 12 30  1  0  0  0  0
 13 14  1  0  0  0  0
 13 15  1  0  0  0  0
 13 31  1  0  0  0  0
 14 32  1  0  0  0  0
 15 21  1  0  0  0  0
 15 16  2  0  0  0  0
 16 17  1  0  0  0  0
 16 33  1  0  0  0  0
 17 18  2  0  0  0  0
 17 34  1  0  0  0  0
 18 19  1  0  0  0  0
 18 35  1  0  0  0  0
 19 20  1  0  0  0  0
 19 21  2  0  0  0  0
 21 36  1  0  0  0  0
M  END
> <s_m_source_file>
AV-unprocessed.smi

> <i_m_source_file_index>
1919

> <i_lp_mmshare_version>
43012

> <i_f3d_flags>
0

> <s_epik_input>
W2NIXTFbY0hdW2NIXVtjSF1jKGMxMiluKGMobjIpW0NIMl1bT0hdKVtDSDJdW0NASF0oW09IXSljM1tjSF1bY0hdW2NIXWMoRilbY0hdMw==

> <s_epik_cmdline>
J2VwaWtfcHl0aG9uJywgJy1waCcsICc3LjAnLCAnLXRuJywgJzgnLCAnLW1hJywgJzIwMCcsICctbWV0YWxfYmluZGluZycsICctaW1hZScsICc8aW5maWxlLm1hZT4nLCAnLW9tYWUnLCAnPG91dGZpbGUubWFlPic=

> <r_epik_Ionization_Penalty>
0.0634732

> <r_epik_Ionization_Penalty_Charging>
0

> <r_epik_Ionization_Penalty_Neutral>
0.0634732

> <r_epik_State_Penalty>
0.0551572

> <r_epik_Charging_Adjusted_Penalty>
0.0551572

> <i_epik_Tot_Q>
0

> <i_epik_Tot_abs_Q>
0

> <r_epik_Metal_State_Penalty>
5.78034e-05

> <b_epik_Metal_Only>
0

> <s_lp_Force_Field>
OPLS_2005

> <r_lp_Energy>
10.9146

> <b_lp_Chiralities_Consistent>
1

> <s_lp_Variant>
AV-unprocessed.smi:1919-1

> <Gold.Version>
5.8.1

> <Gold.Id.Protein>
6NUR|6NUR_protein|mol2

> <Gold.PLP.Fitness>
50.7060

> <Gold.PLP.PLP>
-48.6044

> <Gold.PLP.part.hbond>
-2.0000

> <Gold.PLP.part.metal>
0.0000

> <Gold.PLP.part.buried>
-3.0117

> <Gold.PLP.part.nonpolar>
-45.4427

> <Gold.PLP.part.repulsive>
1.2532

> <Gold.PLP.ligand.clash>
0.0000

> <Gold.PLP.ligand.torsion>
0.4694

> <Gold.PLP.Chemscore.Hbond>
1.0000

> <Gold.PLP.Chemscore.CHOScore>
0.0000

> <Gold.PLP.Chemscore.Metal>
0.0000

> <Gold.Chemscore.Hbonds>
donor molecule, donor type, donor heavy atom, donor atom, acceptor molecule, acceptor atom, score
      P1  H 10752 10763       L1     1  1.00

> <Gold.PLP.Chemscore.Internal.Correction>
0.0404

> <Gold.Rescore>
     Score         DG    S(hbond)    S(metal)    S(lipo)     H(rot)  DE(clash)    DE(int)     intcor
     14.18     -14.80       0.85        0.00     115.43       2.75       0.11       0.51       ----

> <Gold.Chemscore.Fitness>
14.1784

> <Gold.Chemscore.DG>
-14.8001

> <Gold.Chemscore.ZeroCoef>
-5.4800

> <Gold.Chemscore.Hbond>
0.8547

> <Gold.Chemscore.Metal>
0.0000

> <Gold.Chemscore.Lipo>
115.4295

> <Gold.Chemscore.Internal_Hbond>
0.0000

> <Gold.Chemscore.DEClash>
0.1128

> <Gold.Chemscore.DEInternal>
0.5089

> <Gold.Chemscore.Rot>
2.7500

> <Gold.Chemscore.Internal.Correction>
   9.000000E+99

> <Gold.Chemscore.Hbonds>
donor molecule, donor type, donor heavy atom, donor atom, acceptor molecule, acceptor atom, score
      P1  H 10752 10763       L1     1  0.78

> <Gold.Chemscore.Hbond.Weighted>
-2.8548

> <Gold.Chemscore.Metal.Weighted>
-0.0000

> <Gold.Chemscore.Lipo.Weighted>
-13.5053

> <Gold.Chemscore.Internal_Hbond.Weighted>
0.0000

> <Gold.Chemscore.DEClash.Weighted>
0.1128

> <Gold.Chemscore.DEInternal.Weighted>
0.5089

> <Gold.Chemscore.Rot.Weighted>
7.0399

> <Gold.Chemscore.Internal.Correction.Weighted>
   9.000000E+99

> <Gold.Protein.RotatedTorsions>
[ 6907 6896 6895 6894 ] final -136.27 input  -60.11 | X-H torsion
[ 7974 7965 7964 7962 ] final   40.07 input  175.53 | X-H torsion
[ 8008 7997 7996 7995 ] final   42.63 input   59.86 | X-H torsion
[ 10167 10162 10161 10158 ] final  105.94 input  -65.29 | X-H torsion
[ 10718 10713 10712 10709 ] final  177.03 input   66.30 | X-H torsion
[ 10763 10752 10751 10750 ] final   21.09 input  -60.55 | X-H torsion
[ 11005 11000 10999 10996 ] final  -27.23 input  -57.11 | X-H torsion

> <Gold.Protein.ActiveResidues>
 VAL166  LYS551  ARG553  GLY616  TRP617  ASP618  TYR619  PRO620  LYS621  CYS622 
 ASP623  PHE694  ASN695  SER759  ASP760  ASP761  ALA762  ILE779  LEU786  VAL792 
 PHE793  MET794  SER795  GLU796  ALA797  LYS798  CYS799  TRP800  GLU811  SER814 

> <Gold.Protein.RotatedAtoms>
  151.0080  133.5992  159.2686 H   0  0  0  0  0  0  0  0  0  0  0  0  # atno 6907 bound_to 6896
  151.3154  135.0804  159.9297 H   0  0  0  0  0  0  0  0  0  0  0  0  # atno 6908 bound_to 6896
  152.5292  133.9737  159.7828 H   0  0  0  0  0  0  0  0  0  0  0  0  # atno 6909 bound_to 6896
  146.0934  139.5577  142.9461 H   0  0  0  0  0  0  0  0  0  0  0  0  # atno 7974 bound_to 7965
  155.2893  140.3377  155.4253 H   0  0  0  0  0  0  0  0  0  0  0  0  # atno 8008 bound_to 7997
  156.2053  140.1749  156.7852 H   0  0  0  0  0  0  0  0  0  0  0  0  # atno 8009 bound_to 7997
  154.5613  140.0687  156.8807 H   0  0  0  0  0  0  0  0  0  0  0  0  # atno 8010 bound_to 7997
  139.7051  144.7088  151.1121 H   0  0  0  0  0  0  0  0  0  0  0  0  # atno 10167 bound_to 10162
  156.9114  130.9911  151.3020 H   0  0  0  0  0  0  0  0  0  0  0  0  # atno 10718 bound_to 10713
  153.1023  135.6676  153.9650 H   0  0  0  0  0  0  0  0  0  0  0  0  # atno 10763 bound_to 10752
  153.9217  135.3014  155.3449 H   0  0  0  0  0  0  0  0  0  0  0  0  # atno 10764 bound_to 10752
  154.7444  135.5064  153.9254 H   0  0  0  0  0  0  0  0  0  0  0  0  # atno 10765 bound_to 10752
  140.9101  133.7467  156.0659 H   0  0  0  0  0  0  0  0  0  0  0  0  # atno 11005 bound_to 11000
  145.5995  141.0357  143.2026 LP  0  0  0  0  0  0  0  0  0  0  0  0  # atno 17320 bound_to 7965
  144.7377  139.7538  143.7323 LP  0  0  0  0  0  0  0  0  0  0  0  0  # atno 17321 bound_to 7965
  140.7719  143.5370  150.9356 LP  0  0  0  0  0  0  0  0  0  0  0  0  # atno 17342 bound_to 10162
  139.9053  143.6786  152.3124 LP  0  0  0  0  0  0  0  0  0  0  0  0  # atno 17343 bound_to 10162
  157.5965  130.8481  149.8737 LP  0  0  0  0  0  0  0  0  0  0  0  0  # atno 17370 bound_to 10713
  156.0534  130.3713  150.1148 LP  0  0  0  0  0  0  0  0  0  0  0  0  # atno 17371 bound_to 10713
  140.8121  134.3387  157.5408 LP  0  0  0  0  0  0  0  0  0  0  0  0  # atno 17394 bound_to 11000
  139.8756  134.9260  156.3389 LP  0  0  0  0  0  0  0  0  0  0  0  0  # atno 17395 bound_to 11000

$$$$
