AV-unprocessed.smi:1745|AV-procd|sdf|7031|dock10
  -GOLD-   22720 8253D 1   1.00000     0.00000
 Structure written by MMmdl.
 47 49  0  0  0  0  0  0  0  0  1 V2000
  144.6766  137.4942  153.2367 C   0  0  0  0  0  0  0  0  0  0  0  0
  145.6309  136.2913  153.2006 C   0  0  2  0  0  0  0  0  0  0  0  0
  146.9975  136.7731  153.3964 N   0  0  0  0  0  0  0  0  0  0  0  0
  147.3990  137.6411  154.3364 C   0  0  0  0  0  0  0  0  0  0  0  0
  146.6472  138.1302  155.1791 O   0  0  0  0  0  0  0  0  0  0  0  0
  148.7112  137.9055  154.2190 N   0  0  0  0  0  0  0  0  0  0  0  0
  149.5031  138.8018  154.9859 C   0  0  0  0  0  0  0  0  0  0  0  0
  150.8567  139.1053  154.7125 C   0  0  0  0  0  0  0  0  0  0  0  0
  151.5311  140.0205  155.5433 C   0  0  0  0  0  0  0  0  0  0  0  0
  150.8385  140.6184  156.6223 C   0  0  0  0  0  0  0  0  0  0  0  0
  151.5000  141.5306  157.4729 N   0  0  0  0  0  0  0  0  0  0  0  0
  151.0557  142.9196  157.3879 C   0  0  0  0  0  0  0  0  0  0  0  0
  152.0513  143.8448  158.1093 C   0  0  0  0  0  0  0  0  0  0  0  0
  152.2386  143.4023  159.4497 O   0  0  0  0  0  0  0  0  0  0  0  0
  152.7794  142.0864  159.5025 C   0  0  0  0  0  0  0  0  0  0  0  0
  151.8062  141.1000  158.8355 C   0  0  0  0  0  0  0  0  0  0  0  0
  149.5373  140.3329  156.8735 N   0  0  0  0  0  0  0  0  0  0  0  0
  148.8938  139.4580  156.0733 C   0  0  0  0  0  0  0  0  0  0  0  0
  145.5159  135.5055  151.8778 C   0  0  1  0  0  0  0  0  0  0  0  0
  146.3376  134.2158  151.8151 C   0  0  0  0  0  0  0  0  0  0  0  0
  145.5909  133.4269  150.7651 C   0  0  0  0  0  0  0  0  0  0  0  0
  144.1416  133.7798  151.0841 C   0  0  0  0  0  0  0  0  0  0  0  0
  144.1709  135.0813  151.6651 O   0  0  0  0  0  0  0  0  0  0  0  0
  143.6388  137.1781  153.1289 H   0  0  0  0  0  0  0  0  0  0  0  0
  144.8946  138.1995  152.4338 H   0  0  0  0  0  0  0  0  0  0  0  0
  144.7574  138.0309  154.1827 H   0  0  0  0  0  0  0  0  0  0  0  0
  145.3512  135.6269  154.0205 H   0  0  0  0  0  0  0  0  0  0  0  0
  147.6906  136.4273  152.7492 H   0  0  0  0  0  0  0  0  0  0  0  0
  149.1808  137.4770  153.4349 H   0  0  0  0  0  0  0  0  0  0  0  0
  151.3875  138.6650  153.8831 H   0  0  0  0  0  0  0  0  0  0  0  0
  152.5704  140.2406  155.3513 H   0  0  0  0  0  0  0  0  0  0  0  0
  150.9509  143.2487  156.3553 H   0  0  0  0  0  0  0  0  0  0  0  0
  150.0701  143.0013  157.8478 H   0  0  0  0  0  0  0  0  0  0  0  0
  153.0088  143.8684  157.5861 H   0  0  0  0  0  0  0  0  0  0  0  0
  151.6716  144.8666  158.1232 H   0  0  0  0  0  0  0  0  0  0  0  0
  153.7542  142.0624  159.0128 H   0  0  0  0  0  0  0  0  0  0  0  0
  152.9395  141.8085  160.5444 H   0  0  0  0  0  0  0  0  0  0  0  0
  150.8817  141.0396  159.4115 H   0  0  0  0  0  0  0  0  0  0  0  0
  152.2519  140.1044  158.8256 H   0  0  0  0  0  0  0  0  0  0  0  0
  147.8582  139.2701  156.3172 H   0  0  0  0  0  0  0  0  0  0  0  0
  145.7968  136.1428  151.0373 H   0  0  0  0  0  0  0  0  0  0  0  0
  147.3829  134.3873  151.5566 H   0  0  0  0  0  0  0  0  0  0  0  0
  146.3021  133.6889  152.7700 H   0  0  0  0  0  0  0  0  0  0  0  0
  145.8561  133.7849  149.7694 H   0  0  0  0  0  0  0  0  0  0  0  0
  145.7888  132.3557  150.8087 H   0  0  0  0  0  0  0  0  0  0  0  0
  143.5045  133.7532  150.1999 H   0  0  0  0  0  0  0  0  0  0  0  0
  143.7320  133.0841  151.8172 H   0  0  0  0  0  0  0  0  0  0  0  0
  1  2  1  0  0  0  0
  1 24  1  0  0  0  0
  1 25  1  0  0  0  0
  1 26  1  0  0  0  0
  2  3  1  0  0  0  0
  2 19  1  0  0  0  0
  2 27  1  0  0  0  0
  3  4  1  0  0  0  0
  3 28  1  0  0  0  0
  4  5  2  0  0  0  0
  4  6  1  0  0  0  0
  6  7  1  0  0  0  0
  6 29  1  0  0  0  0
  7 18  1  0  0  0  0
  7  8  2  0  0  0  0
  8  9  1  0  0  0  0
  8 30  1  0  0  0  0
  9 10  2  0  0  0  0
  9 31  1  0  0  0  0
 10 11  1  0  0  0  0
 10 17  1  0  0  0  0
 11 16  1  0  0  0  0
 11 12  1  0  0  0  0
 12 13  1  0  0  0  0
 12 32  1  0  0  0  0
 12 33  1  0  0  0  0
 13 14  1  0  0  0  0
 13 34  1  0  0  0  0
 13 35  1  0  0  0  0
 14 15  1  0  0  0  0
 15 16  1  0  0  0  0
 15 36  1  0  0  0  0
 15 37  1  0  0  0  0
 16 38  1  0  0  0  0
 16 39  1  0  0  0  0
 17 18  2  0  0  0  0
 18 40  1  0  0  0  0
 19 23  1  0  0  0  0
 19 20  1  0  0  0  0
 19 41  1  0  0  0  0
 20 21  1  0  0  0  0
 20 42  1  0  0  0  0
 20 43  1  0  0  0  0
 21 22  1  0  0  0  0
 21 44  1  0  0  0  0
 21 45  1  0  0  0  0
 22 23  1  0  0  0  0
 22 46  1  0  0  0  0
 22 47  1  0  0  0  0
M  END
> <s_m_source_file>
AV-unprocessed.smi

> <i_m_source_file_index>
1745

> <i_lp_mmshare_version>
43012

> <i_f3d_flags>
0

> <s_epik_input>
TzFbQ0gyXVtDSDJdW0NIMl1bQ0BIXTFbQ0BIXShbQ0gzXSlbTkhdQyg9TylbTkhdYzJbY0hdW2NIXWMobltjSF0yKU4zW0NIMl1bQ0gyXU9bQ0gyXVtDSDJdMw==

> <s_epik_cmdline>
J2VwaWtfcHl0aG9uJywgJy1waCcsICc3LjAnLCAnLXRuJywgJzgnLCAnLW1hJywgJzIwMCcsICctbWV0YWxfYmluZGluZycsICctaW1hZScsICc8aW5maWxlLm1hZT4nLCAnLW9tYWUnLCAnPG91dGZpbGUubWFlPic=

> <r_lp_tautomer_probability>
1

> <r_epik_Ionization_Penalty>
0.00206005

> <r_epik_Ionization_Penalty_Charging>
0

> <r_epik_Ionization_Penalty_Neutral>
0.00206005

> <r_epik_State_Penalty>
0.00138459

> <r_epik_Charging_Adjusted_Penalty>
0.00138459

> <i_epik_Tot_Q>
0

> <i_epik_Tot_abs_Q>
0

> <r_epik_Metal_State_Penalty>
-0

> <b_epik_Metal_Only>
0

> <s_lp_Force_Field>
OPLS_2005

> <r_lp_Energy>
34.4703

> <b_lp_Chiralities_Consistent>
1

> <s_lp_Variant>
AV-unprocessed.smi:1745-3

> <Gold.Version>
5.8.1

> <Gold.Id.Protein>
6NUR|6NUR_protein|mol2

> <Gold.PLP.Fitness>
40.3968

> <Gold.PLP.PLP>
-34.8956

> <Gold.PLP.part.hbond>
-2.0000

> <Gold.PLP.part.metal>
0.0000

> <Gold.PLP.part.buried>
-4.6213

> <Gold.PLP.part.nonpolar>
-29.3314

> <Gold.PLP.part.repulsive>
0.2202

> <Gold.PLP.ligand.clash>
0.0000

> <Gold.PLP.ligand.torsion>
0.3242

> <Gold.PLP.Chemscore.Hbond>
1.9280

> <Gold.PLP.Chemscore.CHOScore>
0.0000

> <Gold.PLP.Chemscore.Metal>
0.0000

> <Gold.Chemscore.Hbonds>
donor molecule, donor type, donor heavy atom, donor atom, acceptor molecule, acceptor atom, score
      L1  H     3    28       P1  7948  1.00
      L1  H     6    29       P1  7948  0.91

> <Gold.PLP.Chemscore.Internal.Correction>
0.3656

> <Gold.Rescore>
     Score         DG    S(hbond)    S(metal)    S(lipo)     H(rot)  DE(clash)    DE(int)     intcor
     15.94     -18.94       1.94        0.00      90.10       1.40       0.05       2.95       ----

> <Gold.Chemscore.Fitness>
15.9377

> <Gold.Chemscore.DG>
-18.9427

> <Gold.Chemscore.ZeroCoef>
-5.4800

> <Gold.Chemscore.Hbond>
1.9439

> <Gold.Chemscore.Metal>
0.0000

> <Gold.Chemscore.Lipo>
90.0964

> <Gold.Chemscore.Internal_Hbond>
0.0000

> <Gold.Chemscore.DEClash>
0.0519

> <Gold.Chemscore.DEInternal>
2.9531

> <Gold.Chemscore.Rot>
1.3950

> <Gold.Chemscore.Internal.Correction>
   9.000000E+99

> <Gold.Chemscore.Hbonds>
donor molecule, donor type, donor heavy atom, donor atom, acceptor molecule, acceptor atom, score
      L1  H     3    28       P1  7948  0.95
      L1  H     6    29       P1  7948  0.86

> <Gold.Chemscore.Hbond.Weighted>
-6.4926

> <Gold.Chemscore.Metal.Weighted>
-0.0000

> <Gold.Chemscore.Lipo.Weighted>
-10.5413

> <Gold.Chemscore.Internal_Hbond.Weighted>
0.0000

> <Gold.Chemscore.DEClash.Weighted>
0.0519

> <Gold.Chemscore.DEInternal.Weighted>
2.9531

> <Gold.Chemscore.Rot.Weighted>
3.5712

> <Gold.Chemscore.Internal.Correction.Weighted>
   9.000000E+99

> <Gold.Protein.RotatedTorsions>
[ 6907 6896 6895 6894 ] final   78.48 input  -60.11 | X-H torsion
[ 7974 7965 7964 7962 ] final  129.21 input  175.53 | X-H torsion
[ 8008 7997 7996 7995 ] final  144.33 input   59.86 | X-H torsion
[ 10167 10162 10161 10158 ] final  107.29 input  -65.29 | X-H torsion
[ 10718 10713 10712 10709 ] final   62.88 input   66.30 | X-H torsion
[ 10763 10752 10751 10750 ] final   41.11 input  -60.55 | X-H torsion
[ 11005 11000 10999 10996 ] final  161.62 input  -57.11 | X-H torsion

> <Gold.Protein.ActiveResidues>
 VAL166  LYS551  ARG553  GLY616  TRP617  ASP618  TYR619  PRO620  LYS621  CYS622 
 ASP623  PHE694  ASN695  SER759  ASP760  ASP761  ALA762  ILE779  LEU786  VAL792 
 PHE793  MET794  SER795  GLU796  ALA797  LYS798  CYS799  TRP800  GLU811  SER814 

> <Gold.Protein.RotatedAtoms>
  152.5161  134.3658  159.9300 H   0  0  0  0  0  0  0  0  0  0  0  0  # atno 6907 bound_to 6896
  151.3611  133.3883  159.2697 H   0  0  0  0  0  0  0  0  0  0  0  0  # atno 6908 bound_to 6896
  150.9651  134.9052  159.7812 H   0  0  0  0  0  0  0  0  0  0  0  0  # atno 6909 bound_to 6896
  145.0312  139.4045  143.5149 H   0  0  0  0  0  0  0  0  0  0  0  0  # atno 7974 bound_to 7965
  156.2910  140.2238  156.5035 H   0  0  0  0  0  0  0  0  0  0  0  0  # atno 8008 bound_to 7997
  154.7669  140.0469  157.1041 H   0  0  0  0  0  0  0  0  0  0  0  0  # atno 8009 bound_to 7997
  154.9921  140.3091  155.4905 H   0  0  0  0  0  0  0  0  0  0  0  0  # atno 8010 bound_to 7997
  139.6939  144.7104  151.1301 H   0  0  0  0  0  0  0  0  0  0  0  0  # atno 10167 bound_to 10162
  157.5932  130.9074  149.9644 H   0  0  0  0  0  0  0  0  0  0  0  0  # atno 10718 bound_to 10713
  152.9917  135.6171  154.2735 H   0  0  0  0  0  0  0  0  0  0  0  0  # atno 10763 bound_to 10752
  154.2467  135.2786  155.2834 H   0  0  0  0  0  0  0  0  0  0  0  0  # atno 10764 bound_to 10752
  154.5323  135.5784  153.6827 H   0  0  0  0  0  0  0  0  0  0  0  0  # atno 10765 bound_to 10752
  140.2176  134.8220  157.3187 H   0  0  0  0  0  0  0  0  0  0  0  0  # atno 11005 bound_to 11000
  146.3498  139.9862  142.8690 LP  0  0  0  0  0  0  0  0  0  0  0  0  # atno 17320 bound_to 7965
  145.1769  140.9748  143.4289 LP  0  0  0  0  0  0  0  0  0  0  0  0  # atno 17321 bound_to 7965
  140.7691  143.5520  150.9194 LP  0  0  0  0  0  0  0  0  0  0  0  0  # atno 17342 bound_to 10162
  139.9198  143.6619  152.3099 LP  0  0  0  0  0  0  0  0  0  0  0  0  # atno 17343 bound_to 10162
  156.0990  130.3657  150.0253 LP  0  0  0  0  0  0  0  0  0  0  0  0  # atno 17370 bound_to 10713
  156.8372  130.9413  151.3634 LP  0  0  0  0  0  0  0  0  0  0  0  0  # atno 17371 bound_to 10713
  140.1884  134.4403  155.7730 LP  0  0  0  0  0  0  0  0  0  0  0  0  # atno 17394 bound_to 11000
  141.2224  133.7015  156.7985 LP  0  0  0  0  0  0  0  0  0  0  0  0  # atno 17395 bound_to 11000

$$$$
