AV-unprocessed.smi:906|AV-procd|sdf|4105|dock6
  -GOLD-   22720 2 03D 1   1.00000     0.00000
 Structure written by MMmdl.
 48 49  0  0  0  0  0  0  0  0  2 V2000
  153.0110  142.8481  161.6267 C   0  0  0  0  0  0  0  0  0  0  0  0
  152.4043  142.4762  160.2901 C   0  0  0  0  0  0  0  0  0  0  0  0
  152.9461  141.4297  159.5142 C   0  0  0  0  0  0  0  0  0  0  0  0
  152.3406  141.1283  158.2795 C   0  0  0  0  0  0  0  0  0  0  0  0
  151.2241  141.8848  157.8667 C   0  0  0  0  0  0  0  0  0  0  0  0
  150.5481  141.6214  156.5324 C   0  0  0  0  0  0  0  0  0  0  0  0
  149.9187  140.2192  156.4286 C   0  0  0  0  0  0  0  0  0  0  0  0
  148.6880  140.2268  155.6414 N   0  0  0  0  0  0  0  0  0  0  0  0
  148.5642  140.6705  154.3781 C   0  0  0  0  0  0  0  0  0  0  0  0
  149.5101  141.1468  153.7497 O   0  0  0  0  0  0  0  0  0  0  0  0
  147.3408  140.4677  153.8294 N   0  0  0  0  0  0  0  0  0  0  0  0
  147.0603  140.2732  152.3997 C   0  0  0  0  0  0  0  0  0  0  0  0
  146.7487  138.7860  152.1454 C   0  0  0  0  0  0  0  0  0  0  0  0
  145.6391  138.3054  153.0151 N   0  3  0  0  0  0  0  0  0  0  0  0
  145.2217  136.9019  152.7172 C   0  0  1  0  0  0  0  0  0  0  0  0
  146.2605  135.8459  153.1480 C   0  0  0  0  0  0  0  0  0  0  0  0
  143.8058  136.5951  153.2532 C   0  0  0  0  0  0  0  0  0  0  0  0
  142.9768  137.5881  152.9307 F   0  0  0  0  0  0  0  0  0  0  0  0
  143.3517  135.4743  152.6929 F   0  0  0  0  0  0  0  0  0  0  0  0
  143.7977  136.4378  154.5761 F   0  0  0  0  0  0  0  0  0  0  0  0
  145.8537  138.6269  154.4553 C   0  0  0  0  0  0  0  0  0  0  0  0
  146.1737  140.1200  154.6447 C   0  0  0  0  0  0  0  0  0  0  0  0
  150.7606  142.9098  158.7180 C   0  0  0  0  0  0  0  0  0  0  0  0
  151.3334  143.2041  159.9046 N   0  0  0  0  0  0  0  0  0  0  0  0
  153.8538  142.2015  161.8727 H   0  0  0  0  0  0  0  0  0  0  0  0
  152.2685  142.7551  162.4197 H   0  0  0  0  0  0  0  0  0  0  0  0
  153.3665  143.8787  161.6072 H   0  0  0  0  0  0  0  0  0  0  0  0
  153.8055  140.8710  159.8545 H   0  0  0  0  0  0  0  0  0  0  0  0
  152.7343  140.3377  157.6575 H   0  0  0  0  0  0  0  0  0  0  0  0
  149.7833  142.3806  156.3634 H   0  0  0  0  0  0  0  0  0  0  0  0
  151.2835  141.7520  155.7379 H   0  0  0  0  0  0  0  0  0  0  0  0
  150.6228  139.5393  155.9488 H   0  0  0  0  0  0  0  0  0  0  0  0
  149.7393  139.8136  157.4258 H   0  0  0  0  0  0  0  0  0  0  0  0
  147.8720  139.8250  156.0793 H   0  0  0  0  0  0  0  0  0  0  0  0
  146.2014  140.8859  152.1214 H   0  0  0  0  0  0  0  0  0  0  0  0
  147.8697  140.5917  151.7430 H   0  0  0  0  0  0  0  0  0  0  0  0
  146.4826  138.6508  151.0963 H   0  0  0  0  0  0  0  0  0  0  0  0
  147.6425  138.1875  152.3266 H   0  0  0  0  0  0  0  0  0  0  0  0
  145.1364  136.8317  151.6315 H   0  0  0  0  0  0  0  0  0  0  0  0
  145.9766  134.8570  152.7876 H   0  0  0  0  0  0  0  0  0  0  0  0
  146.3482  135.7779  154.2323 H   0  0  0  0  0  0  0  0  0  0  0  0
  147.2490  136.0644  152.7438 H   0  0  0  0  0  0  0  0  0  0  0  0
  144.9699  138.3774  155.0396 H   0  0  0  0  0  0  0  0  0  0  0  0
  146.6794  138.0362  154.8535 H   0  0  0  0  0  0  0  0  0  0  0  0
  146.3197  140.3423  155.7029 H   0  0  0  0  0  0  0  0  0  0  0  0
  145.3238  140.7285  154.3324 H   0  0  0  0  0  0  0  0  0  0  0  0
  149.9131  143.5165  158.4353 H   0  0  0  0  0  0  0  0  0  0  0  0
  144.8469  138.8678  152.7378 H   0  0  0  0  0  0  0  0  0  0  0  0
  1  2  1  0  0  0  0
  1 25  1  0  0  0  0
  1 26  1  0  0  0  0
  1 27  1  0  0  0  0
  2 24  1  0  0  0  0
  2  3  2  0  0  0  0
  3  4  1  0  0  0  0
  3 28  1  0  0  0  0
  4  5  2  0  0  0  0
  4 29  1  0  0  0  0
  5  6  1  0  0  0  0
  5 23  1  0  0  0  0
  6  7  1  0  0  0  0
  6 30  1  0  0  0  0
  6 31  1  0  0  0  0
  7  8  1  0  0  0  0
  7 32  1  0  0  0  0
  7 33  1  0  0  0  0
  8  9  1  0  0  0  0
  8 34  1  0  0  0  0
  9 10  2  0  0  0  0
  9 11  1  0  0  0  0
 11 22  1  0  0  0  0
 11 12  1  0  0  0  0
 12 13  1  0  0  0  0
 12 35  1  0  0  0  0
 12 36  1  0  0  0  0
 13 14  1  0  0  0  0
 13 37  1  0  0  0  0
 13 38  1  0  0  0  0
 14 15  1  0  0  0  0
 14 21  1  0  0  0  0
 14 48  1  0  0  0  0
 15 16  1  0  0  0  0
 15 17  1  0  0  0  0
 15 39  1  0  0  0  0
 16 40  1  0  0  0  0
 16 41  1  0  0  0  0
 16 42  1  0  0  0  0
 17 18  1  0  0  0  0
 17 19  1  0  0  0  0
 17 20  1  0  0  0  0
 21 22  1  0  0  0  0
 21 43  1  0  0  0  0
 21 44  1  0  0  0  0
 22 45  1  0  0  0  0
 22 46  1  0  0  0  0
 23 24  2  0  0  0  0
 23 47  1  0  0  0  0
M  CHG  1  14   1
M  END
> <s_m_source_file>
AV-unprocessed.smi

> <i_m_source_file_index>
906

> <i_lp_mmshare_version>
43012

> <i_f3d_flags>
0

> <s_epik_input>
W0NIM11jMVtjSF1bY0hdYyhbY0hdbjEpW0NIMl1bQ0gyXVtOSF1DKD1PKU4yW0NIMl1bQ0gyXU4oW0NASF0oW0NIM10pQyhGKShGKUYpW0NIMl1bQ0gyXTI=

> <s_epik_cmdline>
J2VwaWtfcHl0aG9uJywgJy1waCcsICc3LjAnLCAnLXRuJywgJzgnLCAnLW1hJywgJzIwMCcsICctbWV0YWxfYmluZGluZycsICctaW1hZScsICc8aW5maWxlLm1hZT4nLCAnLW9tYWUnLCAnPG91dGZpbGUubWFlPic=

> <r_epik_Ionization_Penalty>
2.02136

> <r_epik_Ionization_Penalty_Charging>
1.96814

> <r_epik_Ionization_Penalty_Neutral>
0.0532286

> <r_epik_State_Penalty>
2.14285

> <r_epik_Charging_Adjusted_Penalty>
4.11098

> <i_epik_Tot_Q>
1

> <i_epik_Tot_abs_Q>
1

> <r_epik_Metal_State_Penalty>
2.1406

> <b_epik_Metal_Only>
0

> <s_lp_Force_Field>
OPLS_2005

> <r_lp_Energy>
51.1917

> <b_lp_Chiralities_Consistent>
1

> <s_lp_Variant>
AV-unprocessed.smi:906-6

> <Gold.Version>
5.8.1

> <Gold.Id.Protein>
6NUR|6NUR_protein|mol2

> <Gold.PLP.Fitness>
46.2445

> <Gold.PLP.PLP>
-39.0349

> <Gold.PLP.part.hbond>
-3.3992

> <Gold.PLP.part.metal>
0.0000

> <Gold.PLP.part.buried>
-0.3689

> <Gold.PLP.part.nonpolar>
-36.3428

> <Gold.PLP.part.repulsive>
2.0062

> <Gold.PLP.ligand.clash>
1.5595

> <Gold.PLP.ligand.torsion>
0.7570

> <Gold.PLP.Chemscore.Hbond>
3.1737

> <Gold.PLP.Chemscore.CHOScore>
0.0000

> <Gold.PLP.Chemscore.Metal>
0.0000

> <Gold.Chemscore.Hbonds>
donor molecule, donor type, donor heavy atom, donor atom, acceptor molecule, acceptor atom, score
      L1  H    14    48       P1 10175  2.00
      P1  H  7989  7998       L1    10  0.22
      P1  H  8011  8017       L1    10  0.91

> <Gold.PLP.Chemscore.Internal.Correction>
0.7619

> <Gold.Rescore>
     Score         DG    S(hbond)    S(metal)    S(lipo)     H(rot)  DE(clash)    DE(int)     intcor
     16.12     -20.27       2.22        0.00      98.36       1.62       3.23       0.92       ----

> <Gold.Chemscore.Fitness>
16.1199

> <Gold.Chemscore.DG>
-20.2695

> <Gold.Chemscore.ZeroCoef>
-5.4800

> <Gold.Chemscore.Hbond>
2.2217

> <Gold.Chemscore.Metal>
0.0000

> <Gold.Chemscore.Lipo>
98.3649

> <Gold.Chemscore.Internal_Hbond>
0.0000

> <Gold.Chemscore.DEClash>
3.2286

> <Gold.Chemscore.DEInternal>
0.9210

> <Gold.Chemscore.Rot>
1.6171

> <Gold.Chemscore.Internal.Correction>
   9.000000E+99

> <Gold.Chemscore.Hbonds>
donor molecule, donor type, donor heavy atom, donor atom, acceptor molecule, acceptor atom, score
      L1  H    14    48       P1 10175  0.96
      P1  H  7989  7998       L1    10  0.23
      P1  H  8011  8017       L1    10  0.89

> <Gold.Chemscore.Hbond.Weighted>
-7.4206

> <Gold.Chemscore.Metal.Weighted>
-0.0000

> <Gold.Chemscore.Lipo.Weighted>
-11.5087

> <Gold.Chemscore.Internal_Hbond.Weighted>
0.0000

> <Gold.Chemscore.DEClash.Weighted>
3.2286

> <Gold.Chemscore.DEInternal.Weighted>
0.9210

> <Gold.Chemscore.Rot.Weighted>
4.1398

> <Gold.Chemscore.Internal.Correction.Weighted>
   9.000000E+99

> <Gold.Protein.RotatedTorsions>
[ 6907 6896 6895 6894 ] final -132.86 input  -60.11 | X-H torsion
[ 7974 7965 7964 7962 ] final  -49.97 input  175.53 | X-H torsion
[ 8008 7997 7996 7995 ] final   50.78 input   59.86 | X-H torsion
[ 10167 10162 10161 10158 ] final   -5.78 input  -65.29 | X-H torsion
[ 10718 10713 10712 10709 ] final -120.49 input   66.30 | X-H torsion
[ 10763 10752 10751 10750 ] final   17.62 input  -60.55 | X-H torsion
[ 11005 11000 10999 10996 ] final  119.38 input  -57.11 | X-H torsion

> <Gold.Protein.ActiveResidues>
 VAL166  LYS551  ARG553  GLY616  TRP617  ASP618  TYR619  PRO620  LYS621  CYS622 
 ASP623  PHE694  ASN695  SER759  ASP760  ASP761  ALA762  ILE779  LEU786  VAL792 
 PHE793  MET794  SER795  GLU796  ALA797  LYS798  CYS799  TRP800  GLU811  SER814 

> <Gold.Protein.RotatedAtoms>
  150.9672  133.6382  159.2743 H   0  0  0  0  0  0  0  0  0  0  0  0  # atno 6907 bound_to 6896
  151.3683  135.0916  159.9467 H   0  0  0  0  0  0  0  0  0  0  0  0  # atno 6908 bound_to 6896
  152.5170  133.9232  159.7599 H   0  0  0  0  0  0  0  0  0  0  0  0  # atno 6909 bound_to 6896
  145.9348  140.7716  142.9581 H   0  0  0  0  0  0  0  0  0  0  0  0  # atno 7974 bound_to 7965
  155.4244  140.3448  155.4274 H   0  0  0  0  0  0  0  0  0  0  0  0  # atno 8008 bound_to 7997
  156.1374  140.1532  156.9005 H   0  0  0  0  0  0  0  0  0  0  0  0  # atno 8009 bound_to 7997
  154.4943  140.0832  156.7642 H   0  0  0  0  0  0  0  0  0  0  0  0  # atno 8010 bound_to 7997
  140.6975  143.6269  150.8559 H   0  0  0  0  0  0  0  0  0  0  0  0  # atno 10167 bound_to 10162
  156.1262  130.6361  150.9546 H   0  0  0  0  0  0  0  0  0  0  0  0  # atno 10718 bound_to 10713
  153.1322  135.6742  153.9160 H   0  0  0  0  0  0  0  0  0  0  0  0  # atno 10763 bound_to 10752
  153.8642  135.3077  155.3440 H   0  0  0  0  0  0  0  0  0  0  0  0  # atno 10764 bound_to 10752
  154.7717  135.4936  153.9744 H   0  0  0  0  0  0  0  0  0  0  0  0  # atno 10765 bound_to 10752
  139.9144  134.9628  156.7646 H   0  0  0  0  0  0  0  0  0  0  0  0  # atno 11005 bound_to 11000
  144.6770  140.2185  143.7369 LP  0  0  0  0  0  0  0  0  0  0  0  0  # atno 17320 bound_to 7965
  145.8378  139.2115  143.1845 LP  0  0  0  0  0  0  0  0  0  0  0  0  # atno 17321 bound_to 7965
  139.9989  143.5766  152.2883 LP  0  0  0  0  0  0  0  0  0  0  0  0  # atno 17342 bound_to 10162
  139.6448  144.7657  151.2266 LP  0  0  0  0  0  0  0  0  0  0  0  0  # atno 17343 bound_to 10162
  157.6443  131.0906  150.8185 LP  0  0  0  0  0  0  0  0  0  0  0  0  # atno 17370 bound_to 10713
  156.8276  130.5005  149.5335 LP  0  0  0  0  0  0  0  0  0  0  0  0  # atno 17371 bound_to 10713
  140.6670  133.9594  155.7835 LP  0  0  0  0  0  0  0  0  0  0  0  0  # atno 17394 bound_to 11000
  141.0604  134.0354  157.3666 LP  0  0  0  0  0  0  0  0  0  0  0  0  # atno 17395 bound_to 11000

$$$$
