AV-unprocessed.smi:160|AV-procd|sdf|1372|dock10
  -GOLD-   2262019 93D 1   1.00000     0.00000
 Structure written by MMmdl.
 28 29  0  0  0  0  0  0  0  0  2 V2000
  153.5918  136.2549  159.3785 N   0  5  0  0  0  0  0  0  0  0  0  0
  153.6236  136.7780  158.1333 C   0  0  0  0  0  0  0  0  0  0  0  0
  154.2738  136.3493  157.1805 O   0  0  0  0  0  0  0  0  0  0  0  0
  152.7613  138.0043  157.9472 C   0  0  0  0  0  0  0  0  0  0  0  0
  151.9697  138.4616  158.9647 N   0  0  0  0  0  0  0  0  0  0  0  0
  151.4236  139.5063  158.3567 C   0  0  0  0  0  0  0  0  0  0  0  0
  151.8420  139.6883  157.0993 N   0  0  0  0  0  0  0  0  0  0  0  0
  151.4653  140.7039  156.0665 C   0  0  1  0  0  0  0  0  0  0  0  0
  150.8318  140.0381  155.0153 O   0  0  0  0  0  0  0  0  0  0  0  0
  149.4230  140.0746  155.2146 C   0  0  2  0  0  0  0  0  0  0  0  0
  148.6646  139.7247  153.9215 C   0  0  0  0  0  0  0  0  0  0  0  0
  149.3631  138.7314  153.2012 O   0  0  0  0  0  0  0  0  0  0  0  0
  149.2222  141.5026  155.7377 C   0  0  2  0  0  0  0  0  0  0  0  0
  149.1917  142.4270  154.6618 O   0  0  0  0  0  0  0  0  0  0  0  0
  150.4372  141.6957  156.6469 C   0  0  2  0  0  0  0  0  0  0  0  0
  150.9002  143.0334  156.6706 O   0  0  0  0  0  0  0  0  0  0  0  0
  152.7164  138.6963  156.8042 N   0  0  0  0  0  0  0  0  0  0  0  0
  152.4112  141.1468  155.7519 H   0  0  0  0  0  0  0  0  0  0  0  0
  149.1520  139.3756  156.0085 H   0  0  0  0  0  0  0  0  0  0  0  0
  148.2889  141.6007  156.2932 H   0  0  0  0  0  0  0  0  0  0  0  0
  150.1737  141.3987  157.6635 H   0  0  0  0  0  0  0  0  0  0  0  0
  154.1476  136.7090  160.1130 H   0  0  0  0  0  0  0  0  0  0  0  0
  150.7036  140.1502  158.8401 H   0  0  0  0  0  0  0  0  0  0  0  0
  147.6799  139.3216  154.1612 H   0  0  0  0  0  0  0  0  0  0  0  0
  148.5133  140.6059  153.2972 H   0  0  0  0  0  0  0  0  0  0  0  0
  149.4138  138.9976  152.2957 H   0  0  0  0  0  0  0  0  0  0  0  0
  149.3162  143.2951  155.0147 H   0  0  0  0  0  0  0  0  0  0  0  0
  150.1648  143.6047  156.5065 H   0  0  0  0  0  0  0  0  0  0  0  0
  1  2  1  0  0  0  0
  1 22  1  0  0  0  0
  2  3  2  0  0  0  0
  2  4  1  0  0  0  0
  4 17  2  0  0  0  0
  4  5  1  0  0  0  0
  5  6  2  0  0  0  0
  6  7  1  0  0  0  0
  6 23  1  0  0  0  0
  7  8  1  0  0  0  0
  7 17  1  0  0  0  0
  8 18  1  0  0  0  0
  8 15  1  0  0  0  0
  8  9  1  0  0  0  0
  9 10  1  0  0  0  0
 10 19  1  0  0  0  0
 10 11  1  0  0  0  0
 10 13  1  0  0  0  0
 11 12  1  0  0  0  0
 11 24  1  0  0  0  0
 11 25  1  0  0  0  0
 12 26  1  0  0  0  0
 13 20  1  0  0  0  0
 13 14  1  0  0  0  0
 13 15  1  0  0  0  0
 14 27  1  0  0  0  0
 15 21  1  0  0  0  0
 15 16  1  0  0  0  0
 16 28  1  0  0  0  0
M  CHG  1   1  -1
M  END
> <s_m_source_file>
AV-unprocessed.smi

> <i_m_source_file_index>
160

> <i_lp_mmshare_version>
43012

> <i_f3d_flags>
0

> <s_epik_input>
W05IMl1DKD1PKWMxbltjSF1uKG4xKVtDQEBIXTJPW0NASF0oW0NIMl1bT0hdKVtDQEBIXShbT0hdKVtDQEhdMltPSF0=

> <s_epik_cmdline>
J2VwaWtfcHl0aG9uJywgJy1waCcsICc3LjAnLCAnLXRuJywgJzgnLCAnLW1hJywgJzIwMCcsICctbWV0YWxfYmluZGluZycsICctaW1hZScsICc8aW5maWxlLm1hZT4nLCAnLW9tYWUnLCAnPG91dGZpbGUubWFlPic=

> <r_lp_tautomer_probability>
1

> <r_epik_Ionization_Penalty>
6.6993

> <r_epik_Ionization_Penalty_Charging>
6.6993

> <r_epik_Ionization_Penalty_Neutral>
6.01698e-06

> <r_epik_State_Penalty>
6.69929

> <r_epik_Charging_Adjusted_Penalty>
13.3986

> <i_epik_Tot_Q>
-1

> <i_epik_Tot_abs_Q>
1

> <r_epik_Metal_State_Penalty>
2.62798

> <b_epik_Metal_Only>
1

> <s_epik_Chemistry_Notes>
This compound contains an acetal/aminal-like group ( X-CH(R)-Y where X, Y are N, S, or O) that may be acid/base labile, releasing an aldehyde.

> <s_lp_Force_Field>
OPLS_2005

> <r_lp_Energy>
45.7221

> <b_lp_Chiralities_Consistent>
1

> <s_lp_Variant>
AV-unprocessed.smi:160-30

> <Gold.Version>
5.8.1

> <Gold.Id.Protein>
6NUR|6NUR_protein|mol2

> <Gold.PLP.Fitness>
45.9075

> <Gold.PLP.PLP>
-24.7998

> <Gold.PLP.part.hbond>
-8.5253

> <Gold.PLP.part.metal>
0.0000

> <Gold.PLP.part.buried>
-3.8278

> <Gold.PLP.part.nonpolar>
-13.2108

> <Gold.PLP.part.repulsive>
0.0493

> <Gold.PLP.ligand.clash>
0.0000

> <Gold.PLP.ligand.torsion>
0.3259

> <Gold.PLP.Chemscore.Hbond>
7.2430

> <Gold.PLP.Chemscore.CHOScore>
0.0000

> <Gold.PLP.Chemscore.Metal>
0.0000

> <Gold.Chemscore.Hbonds>
donor molecule, donor type, donor heavy atom, donor atom, acceptor molecule, acceptor atom, score
      L1  H    12    26       P1  7957  1.00
      L1  H    14    27       P1  8028  1.00
      L1  H    16    28       P1  8028  1.00
      P1  H  6896  6909       L1     1  2.00
      P1  H  7989  7998       L1     9  1.00
      P1  H  7997  8009       L1    17  0.42
      P1  H  8011  8017       L1    14  0.01
      P1  H 10752 10765       L1     3  0.81

> <Gold.PLP.Chemscore.Internal.Correction>
0.0307

> <Gold.Rescore>
     Score         DG    S(hbond)    S(metal)    S(lipo)     H(rot)  DE(clash)    DE(int)     intcor
     14.22     -14.69       5.07        0.00      22.25       4.04       0.00       0.46       ----

> <Gold.Chemscore.Fitness>
14.2233

> <Gold.Chemscore.DG>
-14.6854

> <Gold.Chemscore.ZeroCoef>
-5.4800

> <Gold.Chemscore.Hbond>
5.0733

> <Gold.Chemscore.Metal>
0.0000

> <Gold.Chemscore.Lipo>
22.2547

> <Gold.Chemscore.Internal_Hbond>
0.0000

> <Gold.Chemscore.DEClash>
0.0000

> <Gold.Chemscore.DEInternal>
0.4621

> <Gold.Chemscore.Rot>
4.0403

> <Gold.Chemscore.Internal.Correction>
   9.000000E+99

> <Gold.Chemscore.Hbonds>
donor molecule, donor type, donor heavy atom, donor atom, acceptor molecule, acceptor atom, score
      L1  H    12    26       P1  7957  0.78
      L1  H    14    27       P1  8028  0.98
      L1  H    16    28       P1  8028  1.00
      P1  H  6896  6909       L1     1  0.84
      P1  H  7989  7998       L1     9  0.29
      P1  H  7997  8009       L1    17  0.03
      P1  H  8011  8017       L1    14  0.01
      P1  H 10752 10765       L1     3  0.77

> <Gold.Chemscore.Hbond.Weighted>
-16.9447

> <Gold.Chemscore.Metal.Weighted>
-0.0000

> <Gold.Chemscore.Lipo.Weighted>
-2.6038

> <Gold.Chemscore.Internal_Hbond.Weighted>
0.0000

> <Gold.Chemscore.DEClash.Weighted>
0.0000

> <Gold.Chemscore.DEInternal.Weighted>
0.4621

> <Gold.Chemscore.Rot.Weighted>
10.3431

> <Gold.Chemscore.Internal.Correction.Weighted>
   9.000000E+99

> <Gold.Protein.RotatedTorsions>
[ 6907 6896 6895 6894 ] final  159.92 input  -60.11 | X-H torsion
[ 7974 7965 7964 7962 ] final  130.58 input  175.53 | X-H torsion
[ 8008 7997 7996 7995 ] final -170.23 input   59.86 | X-H torsion
[ 10167 10162 10161 10158 ] final  -66.21 input  -65.29 | X-H torsion
[ 10718 10713 10712 10709 ] final  -55.73 input   66.30 | X-H torsion
[ 10763 10752 10751 10750 ] final  -80.02 input  -60.55 | X-H torsion
[ 11005 11000 10999 10996 ] final -152.07 input  -57.11 | X-H torsion

> <Gold.Protein.ActiveResidues>
 VAL166  LYS551  ARG553  GLY616  TRP617  ASP618  TYR619  PRO620  LYS621  CYS622 
 ASP623  PHE694  ASN695  SER759  ASP760  ASP761  ALA762  ILE779  LEU786  VAL792 
 PHE793  MET794  SER795  GLU796  ALA797  LYS798  CYS799  TRP800  GLU811  SER814 

> <Gold.Protein.RotatedAtoms>
  151.9784  133.3749  159.4097 H   0  0  0  0  0  0  0  0  0  0  0  0  # atno 6907 bound_to 6896
  150.6938  134.4065  159.5151 H   0  0  0  0  0  0  0  0  0  0  0  0  # atno 6908 bound_to 6896
  152.1780  134.8778  160.0579 H   0  0  0  0  0  0  0  0  0  0  0  0  # atno 6909 bound_to 6896
  145.0164  139.4172  143.5219 H   0  0  0  0  0  0  0  0  0  0  0  0  # atno 7974 bound_to 7965
  155.9155  140.1065  157.1247 H   0  0  0  0  0  0  0  0  0  0  0  0  # atno 8008 bound_to 7997
  154.4046  140.1266  156.4677 H   0  0  0  0  0  0  0  0  0  0  0  0  # atno 8009 bound_to 7997
  155.7259  140.3469  155.5039 H   0  0  0  0  0  0  0  0  0  0  0  0  # atno 8010 bound_to 7997
  140.5674  143.2315  151.6608 H   0  0  0  0  0  0  0  0  0  0  0  0  # atno 10167 bound_to 10162
  156.1345  130.4157  150.0210 H   0  0  0  0  0  0  0  0  0  0  0  0  # atno 10718 bound_to 10713
  154.5460  135.5675  153.6880 H   0  0  0  0  0  0  0  0  0  0  0  0  # atno 10763 bound_to 10752
  152.9976  135.6239  154.2438 H   0  0  0  0  0  0  0  0  0  0  0  0  # atno 10764 bound_to 10752
  154.2371  135.2864  155.2848 H   0  0  0  0  0  0  0  0  0  0  0  0  # atno 10765 bound_to 10752
  140.7228  134.3708  157.5180 H   0  0  0  0  0  0  0  0  0  0  0  0  # atno 11005 bound_to 11000
  146.3478  139.9637  142.8714 LP  0  0  0  0  0  0  0  0  0  0  0  0  # atno 17320 bound_to 7965
  145.1954  140.9831  143.4186 LP  0  0  0  0  0  0  0  0  0  0  0  0  # atno 17321 bound_to 7965
  139.5100  144.3559  152.0608 LP  0  0  0  0  0  0  0  0  0  0  0  0  # atno 17342 bound_to 10162
  140.2692  144.3983  150.6157 LP  0  0  0  0  0  0  0  0  0  0  0  0  # atno 17343 bound_to 10162
  156.8113  130.9326  151.3644 LP  0  0  0  0  0  0  0  0  0  0  0  0  # atno 17370 bound_to 10713
  157.6519  130.8892  149.9651 LP  0  0  0  0  0  0  0  0  0  0  0  0  # atno 17371 bound_to 10713
  139.8844  134.8966  156.2705 LP  0  0  0  0  0  0  0  0  0  0  0  0  # atno 17394 bound_to 11000
  140.9989  133.7163  156.0929 LP  0  0  0  0  0  0  0  0  0  0  0  0  # atno 17395 bound_to 11000

$$$$
