AV-unprocessed.smi:3084|AV-procd|sdf|11748|dock1
  -GOLD-   2272017143D 1   1.00000     0.00000
 Structure written by MMmdl.
 27 28  0  0  0  0  0  0  0  0  2 V2000
  152.1999  139.0957  154.9940 C   0  0  0  0  0  0  0  0  0  0  0  0
  152.7884  138.7844  156.1871 N   0  0  0  0  0  0  0  0  0  0  0  0
  152.2160  139.6951  156.9616 C   0  0  0  0  0  0  0  0  0  0  0  0
  151.3682  140.4962  156.3139 N   0  0  0  0  0  0  0  0  0  0  0  0
  150.5450  141.5897  156.7968 C   0  0  0  0  0  0  0  0  0  0  0  0
  151.3665  142.7355  157.4227 C   0  0  2  0  0  0  0  0  0  0  0  0
  152.1432  142.3030  158.6876 C   0  0  0  0  0  0  0  0  0  0  0  0
  152.9025  143.4844  159.3115 C   0  0  0  0  0  0  0  0  0  0  0  0
  151.9451  144.6538  159.5809 C   0  0  0  0  0  0  0  0  0  0  0  0
  151.1917  145.0447  158.2997 C   0  0  0  0  0  0  0  0  0  0  0  0
  150.4770  143.8784  157.7360 N   0  3  0  0  0  0  0  0  0  0  0  0
  151.3360  140.1109  155.0166 N   0  0  0  0  0  0  0  0  0  0  0  0
  152.4126  138.5567  154.0824 H   0  0  0  0  0  0  0  0  0  0  0  0
  152.4205  139.7802  158.0189 H   0  0  0  0  0  0  0  0  0  0  0  0
  149.9511  141.9610  155.9604 H   0  0  0  0  0  0  0  0  0  0  0  0
  149.8403  141.1897  157.5273 H   0  0  0  0  0  0  0  0  0  0  0  0
  152.0856  143.0842  156.6795 H   0  0  0  0  0  0  0  0  0  0  0  0
  151.4514  141.8865  159.4210 H   0  0  0  0  0  0  0  0  0  0  0  0
  152.8527  141.5101  158.4484 H   0  0  0  0  0  0  0  0  0  0  0  0
  153.3872  143.1737  160.2376 H   0  0  0  0  0  0  0  0  0  0  0  0
  153.6966  143.8078  158.6373 H   0  0  0  0  0  0  0  0  0  0  0  0
  151.2314  144.3728  160.3567 H   0  0  0  0  0  0  0  0  0  0  0  0
  152.4993  145.5107  159.9654 H   0  0  0  0  0  0  0  0  0  0  0  0
  150.4714  145.8353  158.5107 H   0  0  0  0  0  0  0  0  0  0  0  0
  151.8859  145.4358  157.5546 H   0  0  0  0  0  0  0  0  0  0  0  0
  150.0061  144.1654  156.8896 H   0  0  0  0  0  0  0  0  0  0  0  0
  149.7854  143.5724  158.4052 H   0  0  0  0  0  0  0  0  0  0  0  0
  1 12  2  0  0  0  0
  1  2  1  0  0  0  0
  1 13  1  0  0  0  0
  2  3  2  0  0  0  0
  3  4  1  0  0  0  0
  3 14  1  0  0  0  0
  4  5  1  0  0  0  0
  4 12  1  0  0  0  0
  5  6  1  0  0  0  0
  5 15  1  0  0  0  0
  5 16  1  0  0  0  0
  6 11  1  0  0  0  0
  6  7  1  0  0  0  0
  6 17  1  0  0  0  0
  7  8  1  0  0  0  0
  7 18  1  0  0  0  0
  7 19  1  0  0  0  0
  8  9  1  0  0  0  0
  8 20  1  0  0  0  0
  8 21  1  0  0  0  0
  9 10  1  0  0  0  0
  9 22  1  0  0  0  0
  9 23  1  0  0  0  0
 10 11  1  0  0  0  0
 10 24  1  0  0  0  0
 10 25  1  0  0  0  0
 11 26  1  0  0  0  0
 11 27  1  0  0  0  0
M  CHG  1  11   1
M  END
> <s_m_source_file>
AV-unprocessed.smi

> <i_m_source_file_index>
3084

> <i_lp_mmshare_version>
43012

> <i_f3d_flags>
0

> <s_epik_input>
bjFbY0hdbltjSF1uMVtDSDJdW0NAQEhdMltDSDJdW0NIMl1bQ0gyXVtDSDJdW05IXTI=

> <s_epik_cmdline>
J2VwaWtfcHl0aG9uJywgJy1waCcsICc3LjAnLCAnLXRuJywgJzgnLCAnLW1hJywgJzIwMCcsICctbWV0YWxfYmluZGluZycsICctaW1hZScsICc8aW5maWxlLm1hZT4nLCAnLW9tYWUnLCAnPG91dGZpbGUubWFlPic=

> <r_lp_tautomer_probability>
1

> <r_epik_Ionization_Penalty>
0.000475214

> <r_epik_Ionization_Penalty_Charging>
0.000474443

> <r_epik_Ionization_Penalty_Neutral>
7.70992e-07

> <r_epik_State_Penalty>
0.000294136

> <r_epik_Charging_Adjusted_Penalty>
0.000768579

> <i_epik_Tot_Q>
1

> <i_epik_Tot_abs_Q>
1

> <r_epik_Metal_State_Penalty>
-0

> <b_epik_Metal_Only>
0

> <s_lp_Force_Field>
OPLS_2005

> <r_lp_Energy>
15.8084

> <b_lp_Chiralities_Consistent>
1

> <s_lp_Variant>
AV-unprocessed.smi:3084-1

> <Gold.Version>
5.8.1

> <Gold.Id.Protein>
6NUR|6NUR_protein|mol2

> <Gold.PLP.Fitness>
39.2181

> <Gold.PLP.PLP>
-29.9422

> <Gold.PLP.part.hbond>
-3.0655

> <Gold.PLP.part.metal>
0.0000

> <Gold.PLP.part.buried>
-3.2883

> <Gold.PLP.part.nonpolar>
-23.3017

> <Gold.PLP.part.repulsive>
0.0695

> <Gold.PLP.ligand.clash>
0.0000

> <Gold.PLP.ligand.torsion>
0.0165

> <Gold.PLP.Chemscore.Hbond>
3.1014

> <Gold.PLP.Chemscore.CHOScore>
0.0000

> <Gold.PLP.Chemscore.Metal>
0.0000

> <Gold.Chemscore.Hbonds>
donor molecule, donor type, donor heavy atom, donor atom, acceptor molecule, acceptor atom, score
      L1  H    11    26       P1  8028  2.00
      P1  H  7989  7998       L1    12  1.00
      P1  H  7997  8010       L1     2  0.08

> <Gold.PLP.Chemscore.Internal.Correction>
0.0047

> <Gold.Rescore>
     Score         DG    S(hbond)    S(metal)    S(lipo)     H(rot)  DE(clash)    DE(int)     intcor
     15.22     -15.38       1.88        0.00      63.83       1.51       0.15       0.01       ----

> <Gold.Chemscore.Fitness>
15.2231

> <Gold.Chemscore.DG>
-15.3821

> <Gold.Chemscore.ZeroCoef>
-5.4800

> <Gold.Chemscore.Hbond>
1.8835

> <Gold.Chemscore.Metal>
0.0000

> <Gold.Chemscore.Lipo>
63.8309

> <Gold.Chemscore.Internal_Hbond>
0.0000

> <Gold.Chemscore.DEClash>
0.1483

> <Gold.Chemscore.DEInternal>
0.0108

> <Gold.Chemscore.Rot>
1.5066

> <Gold.Chemscore.Internal.Correction>
   9.000000E+99

> <Gold.Chemscore.Hbonds>
donor molecule, donor type, donor heavy atom, donor atom, acceptor molecule, acceptor atom, score
      L1  H    11    26       P1  8028  0.93
      P1  H  7989  7998       L1    12  0.34

> <Gold.Chemscore.Hbond.Weighted>
-6.2908

> <Gold.Chemscore.Metal.Weighted>
-0.0000

> <Gold.Chemscore.Lipo.Weighted>
-7.4682

> <Gold.Chemscore.Internal_Hbond.Weighted>
0.0000

> <Gold.Chemscore.DEClash.Weighted>
0.1483

> <Gold.Chemscore.DEInternal.Weighted>
0.0108

> <Gold.Chemscore.Rot.Weighted>
3.8569

> <Gold.Chemscore.Internal.Correction.Weighted>
   9.000000E+99

> <Gold.Protein.RotatedTorsions>
[ 6907 6896 6895 6894 ] final  -95.35 input  -60.11 | X-H torsion
[ 7974 7965 7964 7962 ] final  -89.56 input  175.53 | X-H torsion
[ 8008 7997 7996 7995 ] final  112.37 input   59.86 | X-H torsion
[ 10167 10162 10161 10158 ] final  -18.67 input  -65.29 | X-H torsion
[ 10718 10713 10712 10709 ] final   97.40 input   66.30 | X-H torsion
[ 10763 10752 10751 10750 ] final  148.88 input  -60.55 | X-H torsion
[ 11005 11000 10999 10996 ] final  -43.43 input  -57.11 | X-H torsion

> <Gold.Protein.ActiveResidues>
 VAL166  LYS551  ARG553  GLY616  TRP617  ASP618  TYR619  PRO620  LYS621  CYS622 
 ASP623  PHE694  ASN695  SER759  ASP760  ASP761  ALA762  ILE779  LEU786  VAL792 
 PHE793  MET794  SER795  GLU796  ALA797  LYS798  CYS799  TRP800  GLU811  SER814 

> <Gold.Protein.RotatedAtoms>
  150.6962  134.1671  159.4197 H   0  0  0  0  0  0  0  0  0  0  0  0  # atno 6907 bound_to 6896
  151.9650  135.0102  160.0559 H   0  0  0  0  0  0  0  0  0  0  0  0  # atno 6908 bound_to 6896
  152.1893  133.4726  159.5036 H   0  0  0  0  0  0  0  0  0  0  0  0  # atno 6909 bound_to 6896
  145.4381  140.9558  143.2090 H   0  0  0  0  0  0  0  0  0  0  0  0  # atno 7974 bound_to 7965
  156.2187  140.3001  155.9902 H   0  0  0  0  0  0  0  0  0  0  0  0  # atno 8008 bound_to 7997
  155.2537  140.0427  157.3006 H   0  0  0  0  0  0  0  0  0  0  0  0  # atno 8009 bound_to 7997
  154.5808  140.2374  155.8065 H   0  0  0  0  0  0  0  0  0  0  0  0  # atno 8010 bound_to 7997
  140.7261  143.4894  151.0012 H   0  0  0  0  0  0  0  0  0  0  0  0  # atno 10167 bound_to 10162
  157.6913  131.0608  150.4638 H   0  0  0  0  0  0  0  0  0  0  0  0  # atno 10718 bound_to 10713
  154.0620  135.2873  155.3323 H   0  0  0  0  0  0  0  0  0  0  0  0  # atno 10763 bound_to 10752
  154.6802  135.5266  153.8256 H   0  0  0  0  0  0  0  0  0  0  0  0  # atno 10764 bound_to 10752
  153.0519  135.6579  154.0808 H   0  0  0  0  0  0  0  0  0  0  0  0  # atno 10765 bound_to 10752
  141.0383  133.6790  156.2731 H   0  0  0  0  0  0  0  0  0  0  0  0  # atno 11005 bound_to 11000
  144.8139  139.5912  143.7017 LP  0  0  0  0  0  0  0  0  0  0  0  0  # atno 17320 bound_to 7965
  146.2571  139.6326  142.9387 LP  0  0  0  0  0  0  0  0  0  0  0  0  # atno 17321 bound_to 7965
  139.8597  143.7330  152.3174 LP  0  0  0  0  0  0  0  0  0  0  0  0  # atno 17342 bound_to 10162
  139.7541  144.7526  151.0462 LP  0  0  0  0  0  0  0  0  0  0  0  0  # atno 17343 bound_to 10162
  156.4981  130.4110  149.6369 LP  0  0  0  0  0  0  0  0  0  0  0  0  # atno 17370 bound_to 10713
  156.3354  130.7354  151.2290 LP  0  0  0  0  0  0  0  0  0  0  0  0  # atno 17371 bound_to 10713
  140.6282  134.5292  157.5556 LP  0  0  0  0  0  0  0  0  0  0  0  0  # atno 17394 bound_to 11000
  139.9257  134.8061  156.1077 LP  0  0  0  0  0  0  0  0  0  0  0  0  # atno 17395 bound_to 11000

$$$$
