AV-unprocessed.smi:218|AV-procd|sdf|1669|dock4
  -GOLD-   2262020 83D 1   1.00000     0.00000
 Structure written by MMmdl.
 54 57  0  0  0  0  0  0  0  0  1 V2000
  148.7815  143.5274  159.2679 C   0  0  0  0  0  0  0  0  0  0  0  0
  147.3511  143.1147  158.9004 C   0  0  0  0  0  0  0  0  0  0  0  0
  146.4371  143.1123  160.1378 C   0  0  0  0  0  0  0  0  0  0  0  0
  147.4294  141.8040  158.3360 O   0  0  0  0  0  0  0  0  0  0  0  0
  148.1190  141.5958  157.1569 C   0  0  0  0  0  0  0  0  0  0  0  0
  147.4067  141.6764  155.9426 C   0  0  0  0  0  0  0  0  0  0  0  0
  148.0963  141.4589  154.7324 C   0  0  0  0  0  0  0  0  0  0  0  0
  147.3698  141.5396  153.4066 C   0  0  0  0  0  0  0  0  0  0  0  0
  147.4891  140.3190  152.6217 N   0  0  0  0  0  0  0  0  0  0  0  0
  146.8643  139.1926  153.0256 C   0  0  0  0  0  0  0  0  0  0  0  0
  146.5889  138.9769  154.3390 N   0  0  0  0  0  0  0  0  0  0  0  0
  145.9679  137.8549  154.7154 C   0  0  0  0  0  0  0  0  0  0  0  0
  145.5444  136.8418  153.9569 N   0  0  0  0  0  0  0  0  0  0  0  0
  145.8211  137.0529  152.6378 C   0  0  0  0  0  0  0  0  0  0  0  0
  146.4718  138.1954  152.0954 C   0  0  0  0  0  0  0  0  0  0  0  0
  146.5780  138.0655  150.7167 N   0  0  0  0  0  0  0  0  0  0  0  0
  146.0205  136.9114  150.4640 C   0  0  0  0  0  0  0  0  0  0  0  0
  145.5330  136.2379  151.5622 N   0  0  0  0  0  0  0  0  0  0  0  0
  144.8561  134.9019  151.5949 C   0  0  1  0  0  0  0  0  0  0  0  0
  144.2057  134.7315  150.3744 O   0  0  0  0  0  0  0  0  0  0  0  0
  144.3461  133.3814  149.9651 C   0  0  1  0  0  0  0  0  0  0  0  0
  144.0711  133.2269  148.4580 C   0  0  0  0  0  0  0  0  0  0  0  0
  142.7530  133.5985  148.1117 O   0  0  0  0  0  0  0  0  0  0  0  0
  145.7286  132.9575  150.4718 C   0  0  2  0  0  0  0  0  0  0  0  0
  145.7653  131.5622  150.6952 O   0  0  0  0  0  0  0  0  0  0  0  0
  145.8384  133.7183  151.7895 C   0  0  1  0  0  0  0  0  0  0  0  0
  147.1785  134.0983  152.0465 O   0  0  0  0  0  0  0  0  0  0  0  0
  149.4749  141.1719  154.7821 C   0  0  0  0  0  0  0  0  0  0  0  0
  150.1001  141.1113  156.0424 C   0  0  0  0  0  0  0  0  0  0  0  0
  149.4453  141.3154  157.2049 N   0  0  0  0  0  0  0  0  0  0  0  0
  144.1290  134.9799  152.4043 H   0  0  0  0  0  0  0  0  0  0  0  0
  143.5802  132.8266  150.5113 H   0  0  0  0  0  0  0  0  0  0  0  0
  146.5183  133.2596  149.7829 H   0  0  0  0  0  0  0  0  0  0  0  0
  145.4658  133.1175  152.6206 H   0  0  0  0  0  0  0  0  0  0  0  0
  148.8033  144.5278  159.7011 H   0  0  0  0  0  0  0  0  0  0  0  0
  149.4230  143.5345  158.3863 H   0  0  0  0  0  0  0  0  0  0  0  0
  149.2184  142.8391  159.9918 H   0  0  0  0  0  0  0  0  0  0  0  0
  146.9865  143.8369  158.1683 H   0  0  0  0  0  0  0  0  0  0  0  0
  146.4016  144.1001  160.5979 H   0  0  0  0  0  0  0  0  0  0  0  0
  146.7946  142.4081  160.8894 H   0  0  0  0  0  0  0  0  0  0  0  0
  145.4141  142.8344  159.8855 H   0  0  0  0  0  0  0  0  0  0  0  0
  146.3498  141.8997  155.9418 H   0  0  0  0  0  0  0  0  0  0  0  0
  146.3153  141.7547  153.5847 H   0  0  0  0  0  0  0  0  0  0  0  0
  147.7780  142.3775  152.8398 H   0  0  0  0  0  0  0  0  0  0  0  0
  148.0773  140.3697  151.8022 H   0  0  0  0  0  0  0  0  0  0  0  0
  145.7833  137.7528  155.7747 H   0  0  0  0  0  0  0  0  0  0  0  0
  145.9476  136.5178  149.4606 H   0  0  0  0  0  0  0  0  0  0  0  0
  144.7533  133.8645  147.8956 H   0  0  0  0  0  0  0  0  0  0  0  0
  144.2575  132.2015  148.1379 H   0  0  0  0  0  0  0  0  0  0  0  0
  142.2418  133.6645  148.9038 H   0  0  0  0  0  0  0  0  0  0  0  0
  145.5456  131.4008  151.6002 H   0  0  0  0  0  0  0  0  0  0  0  0
  147.2906  134.9941  151.7652 H   0  0  0  0  0  0  0  0  0  0  0  0
  150.0430  141.0027  153.8792 H   0  0  0  0  0  0  0  0  0  0  0  0
  151.1549  140.8934  156.1192 H   0  0  0  0  0  0  0  0  0  0  0  0
  1  2  1  0  0  0  0
  1 35  1  0  0  0  0
  1 36  1  0  0  0  0
  1 37  1  0  0  0  0
  2  3  1  0  0  0  0
  2  4  1  0  0  0  0
  2 38  1  0  0  0  0
  3 39  1  0  0  0  0
  3 40  1  0  0  0  0
  3 41  1  0  0  0  0
  4  5  1  0  0  0  0
  5 30  1  0  0  0  0
  5  6  2  0  0  0  0
  6  7  1  0  0  0  0
  6 42  1  0  0  0  0
  7  8  1  0  0  0  0
  7 28  2  0  0  0  0
  8  9  1  0  0  0  0
  8 43  1  0  0  0  0
  8 44  1  0  0  0  0
  9 10  1  0  0  0  0
  9 45  1  0  0  0  0
 10 15  1  0  0  0  0
 10 11  2  0  0  0  0
 11 12  1  0  0  0  0
 12 13  2  0  0  0  0
 12 46  1  0  0  0  0
 13 14  1  0  0  0  0
 14 18  1  0  0  0  0
 14 15  2  0  0  0  0
 15 16  1  0  0  0  0
 16 17  2  0  0  0  0
 17 18  1  0  0  0  0
 17 47  1  0  0  0  0
 18 19  1  0  0  0  0
 19 31  1  0  0  0  0
 19 26  1  0  0  0  0
 19 20  1  0  0  0  0
 20 21  1  0  0  0  0
 21 32  1  0  0  0  0
 21 22  1  0  0  0  0
 21 24  1  0  0  0  0
 22 23  1  0  0  0  0
 22 48  1  0  0  0  0
 22 49  1  0  0  0  0
 23 50  1  0  0  0  0
 24 33  1  0  0  0  0
 24 25  1  0  0  0  0
 24 26  1  0  0  0  0
 25 51  1  0  0  0  0
 26 34  1  0  0  0  0
 26 27  1  0  0  0  0
 27 52  1  0  0  0  0
 28 29  1  0  0  0  0
 28 53  1  0  0  0  0
 29 30  2  0  0  0  0
 29 54  1  0  0  0  0
M  END
> <s_m_source_file>
AV-unprocessed.smi

> <i_m_source_file_index>
218

> <i_lp_mmshare_version>
43012

> <i_f3d_flags>
0

> <s_epik_input>
W0NIM11bQ0hdKFtDSDNdKU9jMVtjSF1jKFtjSF1bY0hdbjEpW0NIMl1bTkhdYyhuW2NIXW4yKWMoYzIzKW5bY0hdbjNbQ0BASF00T1tDQEhdKFtDSDJdW09IXSlbQ0BASF0oW09IXSlbQ0BIXTRbT0hd

> <s_epik_cmdline>
J2VwaWtfcHl0aG9uJywgJy1waCcsICc3LjAnLCAnLXRuJywgJzgnLCAnLW1hJywgJzIwMCcsICctbWV0YWxfYmluZGluZycsICctaW1hZScsICc8aW5maWxlLm1hZT4nLCAnLW9tYWUnLCAnPG91dGZpbGUubWFlPic=

> <r_lp_tautomer_probability>
1

> <r_epik_Ionization_Penalty>
0.00457014

> <r_epik_Ionization_Penalty_Charging>
0

> <r_epik_Ionization_Penalty_Neutral>
0.00457014

> <r_epik_State_Penalty>
-0

> <r_epik_Charging_Adjusted_Penalty>
0

> <i_epik_Tot_Q>
0

> <i_epik_Tot_abs_Q>
0

> <r_epik_Metal_State_Penalty>
-0

> <b_epik_Metal_Only>
0

> <s_epik_Chemistry_Notes>
This compound contains an acetal/aminal-like group ( X-CH(R)-Y where X, Y are N, S, or O) that may be acid/base labile, releasing an aldehyde.

> <s_lp_Force_Field>
OPLS_2005

> <r_lp_Energy>
42.4644

> <b_lp_Chiralities_Consistent>
1

> <s_lp_Variant>
AV-unprocessed.smi:218-8

> <Gold.Version>
5.8.1

> <Gold.Id.Protein>
6NUR|6NUR_protein|mol2

> <Gold.PLP.Fitness>
55.5251

> <Gold.PLP.PLP>
-42.2376

> <Gold.PLP.part.hbond>
-5.9116

> <Gold.PLP.part.metal>
0.0000

> <Gold.PLP.part.buried>
-0.2837

> <Gold.PLP.part.nonpolar>
-37.7965

> <Gold.PLP.part.repulsive>
2.4839

> <Gold.PLP.ligand.clash>
0.0000

> <Gold.PLP.ligand.torsion>
1.3364

> <Gold.PLP.Chemscore.Hbond>
4.2820

> <Gold.PLP.Chemscore.CHOScore>
1.0000

> <Gold.PLP.Chemscore.Metal>
0.0000

> <Gold.Chemscore.Hbonds>
donor molecule, donor type, donor heavy atom, donor atom, acceptor molecule, acceptor atom, score
      L1  H     9    45       P1  7957  0.94
      L1  H    23    50       P1 10186  0.83
      L1  H    27    52       P1  7948  0.59
      P1  H  7954  7966       L1    16  1.00
      P1  H 10192 10197       L1    23  0.95
      L1  C    17    47       P1  7921  1.00

> <Gold.PLP.Chemscore.Internal.Correction>
0.1143

> <Gold.Rescore>
     Score         DG    S(hbond)    S(metal)    S(lipo)     H(rot)  DE(clash)    DE(int)     intcor
      5.43     -12.08       2.84        0.00      82.69       4.90       4.08       2.57       ----

> <Gold.Chemscore.Fitness>
5.4278

> <Gold.Chemscore.DG>
-12.0770

> <Gold.Chemscore.ZeroCoef>
-5.4800

> <Gold.Chemscore.Hbond>
2.8364

> <Gold.Chemscore.Metal>
0.0000

> <Gold.Chemscore.Lipo>
82.6935

> <Gold.Chemscore.Internal_Hbond>
0.0000

> <Gold.Chemscore.DEClash>
4.0802

> <Gold.Chemscore.DEInternal>
2.5691

> <Gold.Chemscore.Rot>
4.9029

> <Gold.Chemscore.Internal.Correction>
   9.000000E+99

> <Gold.Chemscore.Hbonds>
donor molecule, donor type, donor heavy atom, donor atom, acceptor molecule, acceptor atom, score
      L1  H     9    45       P1  7957  0.91
      L1  H    23    50       P1 10186  0.81
      L1  H    27    52       P1  7948  0.49
      P1  H  7954  7966       L1    16  0.29
      P1  H 10192 10197       L1    23  0.21

> <Gold.Chemscore.Hbond.Weighted>
-9.4734

> <Gold.Chemscore.Metal.Weighted>
-0.0000

> <Gold.Chemscore.Lipo.Weighted>
-9.6751

> <Gold.Chemscore.Internal_Hbond.Weighted>
0.0000

> <Gold.Chemscore.DEClash.Weighted>
4.0802

> <Gold.Chemscore.DEInternal.Weighted>
2.5691

> <Gold.Chemscore.Rot.Weighted>
12.5515

> <Gold.Chemscore.Internal.Correction.Weighted>
   9.000000E+99

> <Gold.Protein.RotatedTorsions>
[ 6907 6896 6895 6894 ] final  104.61 input  -60.11 | X-H torsion
[ 7974 7965 7964 7962 ] final -154.23 input  175.53 | X-H torsion
[ 8008 7997 7996 7995 ] final  105.34 input   59.86 | X-H torsion
[ 10167 10162 10161 10158 ] final   45.75 input  -65.29 | X-H torsion
[ 10718 10713 10712 10709 ] final  117.03 input   66.30 | X-H torsion
[ 10763 10752 10751 10750 ] final  -21.55 input  -60.55 | X-H torsion
[ 11005 11000 10999 10996 ] final -105.25 input  -57.11 | X-H torsion

> <Gold.Protein.ActiveResidues>
 VAL166  LYS551  ARG553  GLY616  TRP617  ASP618  TYR619  PRO620  LYS621  CYS622 
 ASP623  PHE694  ASN695  SER759  ASP760  ASP761  ALA762  ILE779  LEU786  VAL792 
 PHE793  MET794  SER795  GLU796  ALA797  LYS798  CYS799  TRP800  GLU811  SER814 

> <Gold.Protein.RotatedAtoms>
  152.5258  133.9651  159.7735 H   0  0  0  0  0  0  0  0  0  0  0  0  # atno 6907 bound_to 6896
  150.9934  133.6119  159.2712 H   0  0  0  0  0  0  0  0  0  0  0  0  # atno 6908 bound_to 6896
  151.3254  135.0835  159.9373 H   0  0  0  0  0  0  0  0  0  0  0  0  # atno 6909 bound_to 6896
  144.7700  140.4417  143.5914 H   0  0  0  0  0  0  0  0  0  0  0  0  # atno 7974 bound_to 7965
  156.1650  140.3132  155.8874 H   0  0  0  0  0  0  0  0  0  0  0  0  # atno 8008 bound_to 7997
  155.3704  140.0481  157.3062 H   0  0  0  0  0  0  0  0  0  0  0  0  # atno 8009 bound_to 7997
  154.5184  140.2189  155.9033 H   0  0  0  0  0  0  0  0  0  0  0  0  # atno 8010 bound_to 7997
  140.3210  144.2706  150.6183 H   0  0  0  0  0  0  0  0  0  0  0  0  # atno 10167 bound_to 10162
  157.6122  131.1032  150.7558 H   0  0  0  0  0  0  0  0  0  0  0  0  # atno 10718 bound_to 10713
  153.6380  135.6986  153.5252 H   0  0  0  0  0  0  0  0  0  0  0  0  # atno 10763 bound_to 10752
  153.2806  135.4187  155.1074 H   0  0  0  0  0  0  0  0  0  0  0  0  # atno 10764 bound_to 10752
  154.8506  135.3601  154.5923 H   0  0  0  0  0  0  0  0  0  0  0  0  # atno 10765 bound_to 10752
  141.1062  133.8792  157.1712 H   0  0  0  0  0  0  0  0  0  0  0  0  # atno 11005 bound_to 11000
  145.6353  139.1542  143.2946 LP  0  0  0  0  0  0  0  0  0  0  0  0  # atno 17320 bound_to 7965
  146.1839  140.6454  142.9177 LP  0  0  0  0  0  0  0  0  0  0  0  0  # atno 17321 bound_to 7965
  140.5484  143.2210  151.7969 LP  0  0  0  0  0  0  0  0  0  0  0  0  # atno 17342 bound_to 10162
  139.4874  144.4509  151.9655 LP  0  0  0  0  0  0  0  0  0  0  0  0  # atno 17343 bound_to 10162
  156.7933  130.4897  149.5381 LP  0  0  0  0  0  0  0  0  0  0  0  0  # atno 17370 bound_to 10713
  156.1230  130.6123  151.0221 LP  0  0  0  0  0  0  0  0  0  0  0  0  # atno 17371 bound_to 10713
  139.9933  135.0056  157.0026 LP  0  0  0  0  0  0  0  0  0  0  0  0  # atno 17394 bound_to 11000
  140.4896  134.1207  155.7230 LP  0  0  0  0  0  0  0  0  0  0  0  0  # atno 17395 bound_to 11000

$$$$
