AV-unprocessed.smi:356|AV-procd|sdf|2411|dock1
  -GOLD-   2262022343D 1   1.00000     0.00000
 Structure written by MMmdl.
 42 44  0  0  0  0  0  0  0  0  2 V2000
  152.8599  138.4105  154.3689 C   0  0  0  0  0  0  0  0  0  0  0  0
  152.1550  139.2752  155.3655 C   0  0  0  0  0  0  0  0  0  0  0  0
  152.7876  139.8274  156.4006 N   0  0  0  0  0  0  0  0  0  0  0  0
  151.7783  140.5257  157.0349 C   0  0  0  0  0  0  0  0  0  0  0  0
  151.8055  141.3225  158.2019 C   0  0  0  0  0  0  0  0  0  0  0  0
  150.6301  141.9480  158.6666 C   0  0  0  0  0  0  0  0  0  0  0  0
  149.4130  141.7861  157.9734 C   0  0  0  0  0  0  0  0  0  0  0  0
  149.3634  140.9958  156.8092 C   0  0  0  0  0  0  0  0  0  0  0  0
  150.5395  140.3732  156.3491 C   0  0  0  0  0  0  0  0  0  0  0  0
  150.8301  139.5458  155.2681 N   0  0  0  0  0  0  0  0  0  0  0  0
  149.8924  139.0795  154.2554 C   0  0  0  0  0  0  0  0  0  0  0  0
  148.9150  138.0144  154.7926 C   0  0  1  0  0  0  0  0  0  0  0  0
  148.0114  137.6409  153.7696 O   0  0  0  0  0  0  0  0  0  0  0  0
  149.6553  136.7544  155.2820 C   0  0  0  0  0  0  0  0  0  0  0  0
  149.2082  135.5224  154.5826 N   0  3  0  0  0  0  0  0  0  0  0  0
  150.2624  134.4813  154.5356 C   0  0  0  0  0  0  0  0  0  0  0  0
  149.7733  133.2559  153.7452 C   0  0  0  0  0  0  0  0  0  0  0  0
  148.5790  132.7551  154.3327 O   0  0  0  0  0  0  0  0  0  0  0  0
  147.5301  133.7151  154.3081 C   0  0  0  0  0  0  0  0  0  0  0  0
  147.9455  134.9552  155.1180 C   0  0  0  0  0  0  0  0  0  0  0  0
  153.9097  138.2934  154.6398 H   0  0  0  0  0  0  0  0  0  0  0  0
  152.8110  138.8599  153.3770 H   0  0  0  0  0  0  0  0  0  0  0  0
  152.4040  137.4213  154.3335 H   0  0  0  0  0  0  0  0  0  0  0  0
  152.7322  141.4516  158.7411 H   0  0  0  0  0  0  0  0  0  0  0  0
  150.6622  142.5550  159.5595 H   0  0  0  0  0  0  0  0  0  0  0  0
  148.5172  142.2685  158.3368 H   0  0  0  0  0  0  0  0  0  0  0  0
  148.4317  140.8691  156.2789 H   0  0  0  0  0  0  0  0  0  0  0  0
  149.3423  139.9393  153.8710 H   0  0  0  0  0  0  0  0  0  0  0  0
  150.4566  138.6832  153.4107 H   0  0  0  0  0  0  0  0  0  0  0  0
  148.3378  138.4509  155.6063 H   0  0  0  0  0  0  0  0  0  0  0  0
  148.5066  137.3447  153.0210 H   0  0  0  0  0  0  0  0  0  0  0  0
  150.7252  136.8982  155.1222 H   0  0  0  0  0  0  0  0  0  0  0  0
  149.5239  136.6250  156.3575 H   0  0  0  0  0  0  0  0  0  0  0  0
  151.1605  134.8834  154.0653 H   0  0  0  0  0  0  0  0  0  0  0  0
  150.5337  134.1884  155.5511 H   0  0  0  0  0  0  0  0  0  0  0  0
  149.6001  133.5109  152.6983 H   0  0  0  0  0  0  0  0  0  0  0  0
  150.5307  132.4721  153.7606 H   0  0  0  0  0  0  0  0  0  0  0  0
  147.2900  133.9843  153.2782 H   0  0  0  0  0  0  0  0  0  0  0  0
  146.6328  133.2693  154.7378 H   0  0  0  0  0  0  0  0  0  0  0  0
  148.0799  134.6850  156.1666 H   0  0  0  0  0  0  0  0  0  0  0  0
  147.1454  135.6934  155.0789 H   0  0  0  0  0  0  0  0  0  0  0  0
  149.0311  135.7894  153.6243 H   0  0  0  0  0  0  0  0  0  0  0  0
  1  2  1  0  0  0  0
  1 21  1  0  0  0  0
  1 22  1  0  0  0  0
  1 23  1  0  0  0  0
  2 10  1  0  0  0  0
  2  3  2  0  0  0  0
  3  4  1  0  0  0  0
  4  9  2  0  0  0  0
  4  5  1  0  0  0  0
  5  6  2  0  0  0  0
  5 24  1  0  0  0  0
  6  7  1  0  0  0  0
  6 25  1  0  0  0  0
  7  8  2  0  0  0  0
  7 26  1  0  0  0  0
  8  9  1  0  0  0  0
  8 27  1  0  0  0  0
  9 10  1  0  0  0  0
 10 11  1  0  0  0  0
 11 12  1  0  0  0  0
 11 28  1  0  0  0  0
 11 29  1  0  0  0  0
 12 13  1  0  0  0  0
 12 14  1  0  0  0  0
 12 30  1  0  0  0  0
 13 31  1  0  0  0  0
 14 15  1  0  0  0  0
 14 32  1  0  0  0  0
 14 33  1  0  0  0  0
 15 20  1  0  0  0  0
 15 16  1  0  0  0  0
 15 42  1  0  0  0  0
 16 17  1  0  0  0  0
 16 34  1  0  0  0  0
 16 35  1  0  0  0  0
 17 18  1  0  0  0  0
 17 36  1  0  0  0  0
 17 37  1  0  0  0  0
 18 19  1  0  0  0  0
 19 20  1  0  0  0  0
 19 38  1  0  0  0  0
 19 39  1  0  0  0  0
 20 40  1  0  0  0  0
 20 41  1  0  0  0  0
M  CHG  1  15   1
M  END
> <s_m_source_file>
AV-unprocessed.smi

> <i_m_source_file_index>
356

> <i_lp_mmshare_version>
43012

> <i_f3d_flags>
0

> <s_epik_input>
W2NIXTFbY0hdW2NIXVtjSF1jKGMxMiluKGMobjIpW0NIM10pW0NIMl1bQ0BIXShbT0hdKVtDSDJdTjNbQ0gyXVtDSDJdT1tDSDJdW0NIMl0z

> <s_epik_cmdline>
J2VwaWtfcHl0aG9uJywgJy1waCcsICc3LjAnLCAnLXRuJywgJzgnLCAnLW1hJywgJzIwMCcsICctbWV0YWxfYmluZGluZycsICctaW1hZScsICc8aW5maWxlLm1hZT4nLCAnLW9tYWUnLCAnPG91dGZpbGUubWFlPic=

> <r_epik_Ionization_Penalty>
0.706388

> <r_epik_Ionization_Penalty_Charging>
0.608065

> <r_epik_Ionization_Penalty_Neutral>
0.0983237

> <r_epik_State_Penalty>
0.742533

> <r_epik_Charging_Adjusted_Penalty>
1.3506

> <i_epik_Tot_Q>
1

> <i_epik_Tot_abs_Q>
1

> <r_epik_Metal_State_Penalty>
0.651809

> <b_epik_Metal_Only>
0

> <s_lp_Force_Field>
OPLS_2005

> <r_lp_Energy>
21.7358

> <b_lp_Chiralities_Consistent>
1

> <s_lp_Variant>
AV-unprocessed.smi:356-4

> <Gold.Version>
5.8.1

> <Gold.Id.Protein>
6NUR|6NUR_protein|mol2

> <Gold.PLP.Fitness>
42.8610

> <Gold.PLP.PLP>
-33.0147

> <Gold.PLP.part.hbond>
-3.0000

> <Gold.PLP.part.metal>
0.0000

> <Gold.PLP.part.buried>
-2.8210

> <Gold.PLP.part.nonpolar>
-27.4687

> <Gold.PLP.part.repulsive>
0.0582

> <Gold.PLP.ligand.clash>
0.0000

> <Gold.PLP.ligand.torsion>
1.1484

> <Gold.PLP.Chemscore.Hbond>
4.0000

> <Gold.PLP.Chemscore.CHOScore>
0.0000

> <Gold.PLP.Chemscore.Metal>
0.0000

> <Gold.Chemscore.Hbonds>
donor molecule, donor type, donor heavy atom, donor atom, acceptor molecule, acceptor atom, score
      L1  H    13    31       P1  7948  1.00
      L1  H    15    42       P1  7948  2.00
      P1  H  7997  8009       L1     3  1.00

> <Gold.PLP.Chemscore.Internal.Correction>
0.1431

> <Gold.Rescore>
     Score         DG    S(hbond)    S(metal)    S(lipo)     H(rot)  DE(clash)    DE(int)     intcor
     17.76     -19.11       2.96        0.00      77.13       2.07       0.08       1.28       ----

> <Gold.Chemscore.Fitness>
17.7563

> <Gold.Chemscore.DG>
-19.1129

> <Gold.Chemscore.ZeroCoef>
-5.4800

> <Gold.Chemscore.Hbond>
2.9629

> <Gold.Chemscore.Metal>
0.0000

> <Gold.Chemscore.Lipo>
77.1345

> <Gold.Chemscore.Internal_Hbond>
0.0000

> <Gold.Chemscore.DEClash>
0.0791

> <Gold.Chemscore.DEInternal>
1.2775

> <Gold.Chemscore.Rot>
2.0656

> <Gold.Chemscore.Internal.Correction>
   9.000000E+99

> <Gold.Chemscore.Hbonds>
donor molecule, donor type, donor heavy atom, donor atom, acceptor molecule, acceptor atom, score
      L1  H    13    31       P1  7948  0.98
      L1  H    15    42       P1  7948  0.88
      P1  H  7997  8009       L1     3  0.96

> <Gold.Chemscore.Hbond.Weighted>
-9.8961

> <Gold.Chemscore.Metal.Weighted>
-0.0000

> <Gold.Chemscore.Lipo.Weighted>
-9.0247

> <Gold.Chemscore.Internal_Hbond.Weighted>
0.0000

> <Gold.Chemscore.DEClash.Weighted>
0.0791

> <Gold.Chemscore.DEInternal.Weighted>
1.2775

> <Gold.Chemscore.Rot.Weighted>
5.2879

> <Gold.Chemscore.Internal.Correction.Weighted>
   9.000000E+99

> <Gold.Protein.RotatedTorsions>
[ 6907 6896 6895 6894 ] final  152.29 input  -60.11 | X-H torsion
[ 7974 7965 7964 7962 ] final  -45.19 input  175.53 | X-H torsion
[ 8008 7997 7996 7995 ] final -162.36 input   59.86 | X-H torsion
[ 10167 10162 10161 10158 ] final  -30.16 input  -65.29 | X-H torsion
[ 10718 10713 10712 10709 ] final  116.96 input   66.30 | X-H torsion
[ 10763 10752 10751 10750 ] final -151.53 input  -60.55 | X-H torsion
[ 11005 11000 10999 10996 ] final  -32.54 input  -57.11 | X-H torsion

> <Gold.Protein.ActiveResidues>
 VAL166  LYS551  ARG553  GLY616  TRP617  ASP618  TYR619  PRO620  LYS621  CYS622 
 ASP623  PHE694  ASN695  SER759  ASP760  ASP761  ALA762  ILE779  LEU786  VAL792 
 PHE793  MET794  SER795  GLU796  ALA797  LYS798  CYS799  TRP800  GLU811  SER814 

> <Gold.Protein.RotatedAtoms>
  152.0888  133.4190  159.4534 H   0  0  0  0  0  0  0  0  0  0  0  0  # atno 6907 bound_to 6896
  150.6862  134.2896  159.4670 H   0  0  0  0  0  0  0  0  0  0  0  0  # atno 6908 bound_to 6896
  152.0745  134.9511  160.0625 H   0  0  0  0  0  0  0  0  0  0  0  0  # atno 6909 bound_to 6896
  145.9846  140.7247  142.9347 H   0  0  0  0  0  0  0  0  0  0  0  0  # atno 7974 bound_to 7965
  155.8056  140.0898  157.1933 H   0  0  0  0  0  0  0  0  0  0  0  0  # atno 8008 bound_to 7997
  154.3981  140.1464  156.3385 H   0  0  0  0  0  0  0  0  0  0  0  0  # atno 8009 bound_to 7997
  155.8418  140.3438  155.5639 H   0  0  0  0  0  0  0  0  0  0  0  0  # atno 8010 bound_to 7997
  140.7252  143.3871  151.1496 H   0  0  0  0  0  0  0  0  0  0  0  0  # atno 10167 bound_to 10162
  157.6127  131.1031  150.7547 H   0  0  0  0  0  0  0  0  0  0  0  0  # atno 10718 bound_to 10713
  154.8052  135.3258  154.7449 H   0  0  0  0  0  0  0  0  0  0  0  0  # atno 10763 bound_to 10752
  153.8109  135.6895  153.4845 H   0  0  0  0  0  0  0  0  0  0  0  0  # atno 10764 bound_to 10752
  153.1793  135.4593  154.9951 H   0  0  0  0  0  0  0  0  0  0  0  0  # atno 10765 bound_to 10752
  140.9561  133.7192  156.1295 H   0  0  0  0  0  0  0  0  0  0  0  0  # atno 11005 bound_to 11000
  144.6871  140.2966  143.7270 LP  0  0  0  0  0  0  0  0  0  0  0  0  # atno 17320 bound_to 7965
  145.7720  139.1860  143.2207 LP  0  0  0  0  0  0  0  0  0  0  0  0  # atno 17321 bound_to 7965
  139.7470  143.8837  152.3066 LP  0  0  0  0  0  0  0  0  0  0  0  0  # atno 17342 bound_to 10162
  139.8678  144.7084  150.9024 LP  0  0  0  0  0  0  0  0  0  0  0  0  # atno 17343 bound_to 10162
  156.7921  130.4893  149.5383 LP  0  0  0  0  0  0  0  0  0  0  0  0  # atno 17370 bound_to 10713
  156.1236  130.6128  151.0230 LP  0  0  0  0  0  0  0  0  0  0  0  0  # atno 17371 bound_to 10713
  140.7534  134.4019  157.5537 LP  0  0  0  0  0  0  0  0  0  0  0  0  # atno 17394 bound_to 11000
  139.8862  134.8914  156.2595 LP  0  0  0  0  0  0  0  0  0  0  0  0  # atno 17395 bound_to 11000

$$$$
