AV-unprocessed.smi:2332|AV-procd|sdf|9318|dock2
  -GOLD-   2272012543D 1   1.00000     0.00000
 Structure written by MMmdl.
 32 33  0  0  0  0  0  0  0  0  1 V2000
  146.8770  142.5206  154.9744 C   0  0  0  0  0  0  0  0  0  0  0  0
  147.8785  141.5554  155.4006 N   0  0  0  0  0  0  0  0  0  0  0  0
  148.8749  141.1039  154.6238 C   0  0  0  0  0  0  0  0  0  0  0  0
  149.0374  141.4816  153.4630 O   0  0  0  0  0  0  0  0  0  0  0  0
  149.8446  140.0908  155.2518 C   0  0  2  0  0  0  0  0  0  0  0  0
  150.6896  140.7199  156.3834 C   0  0  0  0  0  0  0  0  0  0  0  0
  151.6817  139.7691  156.8801 N   0  0  0  0  0  0  0  0  0  0  0  0
  152.3293  140.1371  158.0797 C   0  0  0  0  0  0  0  0  0  0  0  0
  151.8639  141.2445  158.8290 C   0  0  0  0  0  0  0  0  0  0  0  0
  152.5273  141.5971  160.0204 C   0  0  0  0  0  0  0  0  0  0  0  0
  153.6358  140.8332  160.4319 C   0  0  0  0  0  0  0  0  0  0  0  0
  154.3534  141.1568  161.6528 C   0  0  0  0  0  0  0  0  0  0  0  0
  154.9248  141.4143  162.6254 N   0  0  0  0  0  0  0  0  0  0  0  0
  154.0281  139.7441  159.6298 C   0  0  0  0  0  0  0  0  0  0  0  0
  153.3941  139.4019  158.4876 N   0  0  0  0  0  0  0  0  0  0  0  0
  152.4921  139.1679  155.8235 C   0  0  0  0  0  0  0  0  0  0  0  0
  151.5888  138.5762  154.7310 C   0  0  0  0  0  0  0  0  0  0  0  0
  150.7163  139.5863  154.2388 O   0  0  0  0  0  0  0  0  0  0  0  0
  146.1564  142.6866  155.7750 H   0  0  0  0  0  0  0  0  0  0  0  0
  146.3365  142.1600  154.0984 H   0  0  0  0  0  0  0  0  0  0  0  0
  147.3407  143.4767  154.7287 H   0  0  0  0  0  0  0  0  0  0  0  0
  147.8095  141.1995  156.3433 H   0  0  0  0  0  0  0  0  0  0  0  0
  149.2461  139.2695  155.6499 H   0  0  0  0  0  0  0  0  0  0  0  0
  151.2098  141.6067  156.0181 H   0  0  0  0  0  0  0  0  0  0  0  0
  150.0272  141.0494  157.1828 H   0  0  0  0  0  0  0  0  0  0  0  0
  151.0026  141.8150  158.5145 H   0  0  0  0  0  0  0  0  0  0  0  0
  152.1838  142.4384  160.6051 H   0  0  0  0  0  0  0  0  0  0  0  0
  154.8708  139.1269  159.9061 H   0  0  0  0  0  0  0  0  0  0  0  0
  153.1490  139.9261  155.3948 H   0  0  0  0  0  0  0  0  0  0  0  0
  153.1248  138.3800  156.2346 H   0  0  0  0  0  0  0  0  0  0  0  0
  152.1943  138.1980  153.9072 H   0  0  0  0  0  0  0  0  0  0  0  0
  151.0109  137.7340  155.1150 H   0  0  0  0  0  0  0  0  0  0  0  0
  1  2  1  0  0  0  0
  1 19  1  0  0  0  0
  1 20  1  0  0  0  0
  1 21  1  0  0  0  0
  2  3  1  0  0  0  0
  2 22  1  0  0  0  0
  3  4  2  0  0  0  0
  3  5  1  0  0  0  0
  5 18  1  0  0  0  0
  5  6  1  0  0  0  0
  5 23  1  0  0  0  0
  6  7  1  0  0  0  0
  6 24  1  0  0  0  0
  6 25  1  0  0  0  0
  7  8  1  0  0  0  0
  7 16  1  0  0  0  0
  8 15  1  0  0  0  0
  8  9  2  0  0  0  0
  9 10  1  0  0  0  0
  9 26  1  0  0  0  0
 10 11  2  0  0  0  0
 10 27  1  0  0  0  0
 11 12  1  0  0  0  0
 11 14  1  0  0  0  0
 12 13  3  0  0  0  0
 14 15  2  0  0  0  0
 14 28  1  0  0  0  0
 16 17  1  0  0  0  0
 16 29  1  0  0  0  0
 16 30  1  0  0  0  0
 17 18  1  0  0  0  0
 17 31  1  0  0  0  0
 17 32  1  0  0  0  0
M  END
> <s_m_source_file>
AV-unprocessed.smi

> <i_m_source_file_index>
2332

> <i_lp_mmshare_version>
43012

> <i_f3d_flags>
0

> <s_epik_input>
W0NIM11bTkhdQyg9TylbQ0BASF0xW0NIMl1OKFtDSDJdW0NIMl1PMSljMltjSF1bY0hdYyhDI04pW2NIXW4y

> <s_epik_cmdline>
J2VwaWtfcHl0aG9uJywgJy1waCcsICc3LjAnLCAnLXRuJywgJzgnLCAnLW1hJywgJzIwMCcsICctbWV0YWxfYmluZGluZycsICctaW1hZScsICc8aW5maWxlLm1hZT4nLCAnLW9tYWUnLCAnPG91dGZpbGUubWFlPic=

> <r_lp_tautomer_probability>
1

> <r_epik_Ionization_Penalty>
6.95229e-08

> <r_epik_Ionization_Penalty_Charging>
0

> <r_epik_Ionization_Penalty_Neutral>
6.95229e-08

> <r_epik_State_Penalty>
-0

> <r_epik_Charging_Adjusted_Penalty>
0

> <i_epik_Tot_Q>
0

> <i_epik_Tot_abs_Q>
0

> <r_epik_Metal_State_Penalty>
-0

> <b_epik_Metal_Only>
0

> <s_lp_Force_Field>
OPLS_2005

> <r_lp_Energy>
17.7289

> <b_lp_Chiralities_Consistent>
1

> <s_lp_Variant>
AV-unprocessed.smi:2332-1

> <Gold.Version>
5.8.1

> <Gold.Id.Protein>
6NUR|6NUR_protein|mol2

> <Gold.PLP.Fitness>
39.8682

> <Gold.PLP.PLP>
-32.1911

> <Gold.PLP.part.hbond>
-4.4075

> <Gold.PLP.part.metal>
0.0000

> <Gold.PLP.part.buried>
-2.4908

> <Gold.PLP.part.nonpolar>
-26.6443

> <Gold.PLP.part.repulsive>
2.3155

> <Gold.PLP.ligand.clash>
0.0000

> <Gold.PLP.ligand.torsion>
0.5771

> <Gold.PLP.Chemscore.Hbond>
2.8320

> <Gold.PLP.Chemscore.CHOScore>
0.0000

> <Gold.PLP.Chemscore.Metal>
0.0000

> <Gold.Chemscore.Hbonds>
donor molecule, donor type, donor heavy atom, donor atom, acceptor molecule, acceptor atom, score
      P1  H  7989  7998       L1    18  1.00
      P1  H  7997  8008       L1    15  0.85
      P1  H  8011  8017       L1     4  0.86

> <Gold.PLP.Chemscore.Internal.Correction>
0.3354

> <Gold.Rescore>
     Score         DG    S(hbond)    S(metal)    S(lipo)     H(rot)  DE(clash)    DE(int)     intcor
     11.75     -15.39       1.77        0.00      63.71       1.35       2.91       0.73       ----

> <Gold.Chemscore.Fitness>
11.7514

> <Gold.Chemscore.DG>
-15.3906

> <Gold.Chemscore.ZeroCoef>
-5.4800

> <Gold.Chemscore.Hbond>
1.7700

> <Gold.Chemscore.Metal>
0.0000

> <Gold.Chemscore.Lipo>
63.7127

> <Gold.Chemscore.Internal_Hbond>
0.0000

> <Gold.Chemscore.DEClash>
2.9131

> <Gold.Chemscore.DEInternal>
0.7261

> <Gold.Chemscore.Rot>
1.3498

> <Gold.Chemscore.Internal.Correction>
   9.000000E+99

> <Gold.Chemscore.Hbonds>
donor molecule, donor type, donor heavy atom, donor atom, acceptor molecule, acceptor atom, score
      P1  H  7989  7998       L1    18  0.61
      P1  H  7997  8008       L1    15  0.06
      P1  H  8011  8017       L1     4  0.85

> <Gold.Chemscore.Hbond.Weighted>
-5.9118

> <Gold.Chemscore.Metal.Weighted>
-0.0000

> <Gold.Chemscore.Lipo.Weighted>
-7.4544

> <Gold.Chemscore.Internal_Hbond.Weighted>
0.0000

> <Gold.Chemscore.DEClash.Weighted>
2.9131

> <Gold.Chemscore.DEInternal.Weighted>
0.7261

> <Gold.Chemscore.Rot.Weighted>
3.4556

> <Gold.Chemscore.Internal.Correction.Weighted>
   9.000000E+99

> <Gold.Protein.RotatedTorsions>
[ 6907 6896 6895 6894 ] final  -51.33 input  -60.11 | X-H torsion
[ 7974 7965 7964 7962 ] final   67.17 input  175.53 | X-H torsion
[ 8008 7997 7996 7995 ] final  -90.37 input   59.86 | X-H torsion
[ 10167 10162 10161 10158 ] final   16.78 input  -65.29 | X-H torsion
[ 10718 10713 10712 10709 ] final -136.61 input   66.30 | X-H torsion
[ 10763 10752 10751 10750 ] final   49.42 input  -60.55 | X-H torsion
[ 11005 11000 10999 10996 ] final  -66.24 input  -57.11 | X-H torsion

> <Gold.Protein.ActiveResidues>
 VAL166  LYS551  ARG553  GLY616  TRP617  ASP618  TYR619  PRO620  LYS621  CYS622 
 ASP623  PHE694  ASN695  SER759  ASP760  ASP761  ALA762  ILE779  LEU786  VAL792 
 PHE793  MET794  SER795  GLU796  ALA797  LYS798  CYS799  TRP800  GLU811  SER814 

> <Gold.Protein.RotatedAtoms>
  150.8622  134.7976  159.7090 H   0  0  0  0  0  0  0  0  0  0  0  0  # atno 6907 bound_to 6896
  152.4655  134.5082  159.9755 H   0  0  0  0  0  0  0  0  0  0  0  0  # atno 6908 bound_to 6896
  151.5184  133.3433  159.2932 H   0  0  0  0  0  0  0  0  0  0  0  0  # atno 6909 bound_to 6896
  145.8178  139.3068  143.1061 H   0  0  0  0  0  0  0  0  0  0  0  0  # atno 7974 bound_to 7965
  154.6978  140.0531  157.0427 H   0  0  0  0  0  0  0  0  0  0  0  0  # atno 8008 bound_to 7997
  155.0727  140.3201  155.4606 H   0  0  0  0  0  0  0  0  0  0  0  0  # atno 8009 bound_to 7997
  156.2750  140.2079  156.5855 H   0  0  0  0  0  0  0  0  0  0  0  0  # atno 8010 bound_to 7997
  140.5773  143.9048  150.6760 H   0  0  0  0  0  0  0  0  0  0  0  0  # atno 10167 bound_to 10162
  156.2790  130.7309  151.1301 H   0  0  0  0  0  0  0  0  0  0  0  0  # atno 10718 bound_to 10713
  152.9787  135.5912  154.4087 H   0  0  0  0  0  0  0  0  0  0  0  0  # atno 10763 bound_to 10752
  154.3724  135.2767  155.2260 H   0  0  0  0  0  0  0  0  0  0  0  0  # atno 10764 bound_to 10752
  154.4210  135.6059  153.6064 H   0  0  0  0  0  0  0  0  0  0  0  0  # atno 10765 bound_to 10752
  141.1477  133.6696  156.6109 H   0  0  0  0  0  0  0  0  0  0  0  0  # atno 11005 bound_to 11000
  145.9707  140.8762  143.0164 LP  0  0  0  0  0  0  0  0  0  0  0  0  # atno 17320 bound_to 7965
  144.6750  140.1942  143.7393 LP  0  0  0  0  0  0  0  0  0  0  0  0  # atno 17321 bound_to 7965
  140.2538  143.3573  152.1382 LP  0  0  0  0  0  0  0  0  0  0  0  0  # atno 17342 bound_to 10162
  139.5150  144.6956  151.5640 LP  0  0  0  0  0  0  0  0  0  0  0  0  # atno 17343 bound_to 10162
  157.7308  131.0613  150.5707 LP  0  0  0  0  0  0  0  0  0  0  0  0  # atno 17370 bound_to 10713
  156.5811  130.4304  149.5977 LP  0  0  0  0  0  0  0  0  0  0  0  0  # atno 17371 bound_to 10713
  140.3615  134.7683  157.4537 LP  0  0  0  0  0  0  0  0  0  0  0  0  # atno 17394 bound_to 11000
  140.0781  134.5769  155.8569 LP  0  0  0  0  0  0  0  0  0  0  0  0  # atno 17395 bound_to 11000

$$$$
