AV-unprocessed.smi:2768|AV-procd|sdf|10650|dock5
  -GOLD-   2272015103D 1   1.00000     0.00000
 Structure written by MMmdl.
 35 36  0  0  0  0  0  0  0  0  1 V2000
  152.3806  139.8815  155.4014 O   0  0  0  0  0  0  0  0  0  0  0  0
  151.2781  139.7457  155.9332 C   0  0  0  0  0  0  0  0  0  0  0  0
  150.9104  140.4182  157.0367 N   0  0  0  0  0  0  0  0  0  0  0  0
  151.7130  141.4223  157.7299 C   0  0  2  0  0  0  0  0  0  0  0  0
  151.7133  141.1452  159.2459 C   0  0  0  0  0  0  0  0  0  0  0  0
  152.5503  142.1874  160.0041 C   0  0  0  0  0  0  0  0  0  0  0  0
  152.0619  143.6145  159.7109 C   0  0  0  0  0  0  0  0  0  0  0  0
  152.0486  143.9054  158.1994 C   0  0  0  0  0  0  0  0  0  0  0  0
  151.2340  142.8613  157.4111 C   0  0  2  0  0  0  0  0  0  0  0  0
  149.8598  143.0170  157.7169 O   0  0  0  0  0  0  0  0  0  0  0  0
  150.2404  138.7793  155.3408 C   0  0  0  0  0  0  0  0  0  0  0  0
  150.8328  137.9890  154.4424 F   0  0  0  0  0  0  0  0  0  0  0  0
  149.7827  138.0069  156.3282 F   0  0  0  0  0  0  0  0  0  0  0  0
  149.0990  139.5447  154.6718 C   0  0  0  0  0  0  0  0  0  0  0  0
  148.0324  138.8641  154.0400 C   0  0  0  0  0  0  0  0  0  0  0  0
  146.9983  139.6215  153.4572 C   0  0  0  0  0  0  0  0  0  0  0  0
  147.0633  141.0258  153.5264 C   0  0  0  0  0  0  0  0  0  0  0  0
  148.1656  141.6132  154.1770 C   0  0  0  0  0  0  0  0  0  0  0  0
  149.1619  140.8964  154.7391 N   0  0  0  0  0  0  0  0  0  0  0  0
  152.7434  141.3237  157.3820 H   0  0  0  0  0  0  0  0  0  0  0  0
  151.3505  143.0612  156.3453 H   0  0  0  0  0  0  0  0  0  0  0  0
  149.9890  140.2411  157.4102 H   0  0  0  0  0  0  0  0  0  0  0  0
  150.6914  141.1528  159.6277 H   0  0  0  0  0  0  0  0  0  0  0  0
  152.1077  140.1478  159.4432 H   0  0  0  0  0  0  0  0  0  0  0  0
  152.5041  141.9923  161.0758 H   0  0  0  0  0  0  0  0  0  0  0  0
  153.5983  142.0933  159.7176 H   0  0  0  0  0  0  0  0  0  0  0  0
  151.0600  143.7485  160.1205 H   0  0  0  0  0  0  0  0  0  0  0  0
  152.7000  144.3366  160.2209 H   0  0  0  0  0  0  0  0  0  0  0  0
  151.6594  144.9071  158.0140 H   0  0  0  0  0  0  0  0  0  0  0  0
  153.0751  143.9064  157.8308 H   0  0  0  0  0  0  0  0  0  0  0  0
  149.4391  143.4468  156.9880 H   0  0  0  0  0  0  0  0  0  0  0  0
  147.9982  137.7855  154.0031 H   0  0  0  0  0  0  0  0  0  0  0  0
  146.1688  139.1334  152.9670 H   0  0  0  0  0  0  0  0  0  0  0  0
  146.2873  141.6381  153.0915 H   0  0  0  0  0  0  0  0  0  0  0  0
  148.2481  142.6876  154.2492 H   0  0  0  0  0  0  0  0  0  0  0  0
  1  2  2  0  0  0  0
  2  3  1  0  0  0  0
  2 11  1  0  0  0  0
  3  4  1  0  0  0  0
  3 22  1  0  0  0  0
  4 20  1  0  0  0  0
  4  9  1  0  0  0  0
  4  5  1  0  0  0  0
  5  6  1  0  0  0  0
  5 23  1  0  0  0  0
  5 24  1  0  0  0  0
  6  7  1  0  0  0  0
  6 25  1  0  0  0  0
  6 26  1  0  0  0  0
  7  8  1  0  0  0  0
  7 27  1  0  0  0  0
  7 28  1  0  0  0  0
  8  9  1  0  0  0  0
  8 29  1  0  0  0  0
  8 30  1  0  0  0  0
  9 21  1  0  0  0  0
  9 10  1  0  0  0  0
 10 31  1  0  0  0  0
 11 12  1  0  0  0  0
 11 13  1  0  0  0  0
 11 14  1  0  0  0  0
 14 19  1  0  0  0  0
 14 15  2  0  0  0  0
 15 16  1  0  0  0  0
 15 32  1  0  0  0  0
 16 17  2  0  0  0  0
 16 33  1  0  0  0  0
 17 18  1  0  0  0  0
 17 34  1  0  0  0  0
 18 19  2  0  0  0  0
 18 35  1  0  0  0  0
M  END
> <s_m_source_file>
AV-unprocessed.smi

> <i_m_source_file_index>
2768

> <i_lp_mmshare_version>
43012

> <i_f3d_flags>
0

> <s_epik_input>
bjFbY0hdW2NIXVtjSF1bY0hdYzFDKEYpKEYpQyg9TylbTkhdW0NAQEhdMltDSDJdW0NIMl1bQ0gyXVtDSDJdW0NASF0yW09IXQ==

> <s_epik_cmdline>
J2VwaWtfcHl0aG9uJywgJy1waCcsICc3LjAnLCAnLXRuJywgJzgnLCAnLW1hJywgJzIwMCcsICctbWV0YWxfYmluZGluZycsICctaW1hZScsICc8aW5maWxlLm1hZT4nLCAnLW9tYWUnLCAnPG91dGZpbGUubWFlPic=

> <r_lp_tautomer_probability>
1

> <r_epik_Ionization_Penalty>
4.19456e-05

> <r_epik_Ionization_Penalty_Charging>
0

> <r_epik_Ionization_Penalty_Neutral>
4.19456e-05

> <r_epik_State_Penalty>
-0

> <r_epik_Charging_Adjusted_Penalty>
0

> <i_epik_Tot_Q>
0

> <i_epik_Tot_abs_Q>
0

> <r_epik_Metal_State_Penalty>
0.0354684

> <b_epik_Metal_Only>
0

> <s_lp_Force_Field>
OPLS_2005

> <r_lp_Energy>
19.5253

> <b_lp_Chiralities_Consistent>
1

> <s_lp_Variant>
AV-unprocessed.smi:2768-3

> <Gold.Version>
5.8.1

> <Gold.Id.Protein>
6NUR|6NUR_protein|mol2

> <Gold.PLP.Fitness>
50.5442

> <Gold.PLP.PLP>
-41.7184

> <Gold.PLP.part.hbond>
-2.9393

> <Gold.PLP.part.metal>
0.0000

> <Gold.PLP.part.buried>
-3.8727

> <Gold.PLP.part.nonpolar>
-34.0778

> <Gold.PLP.part.repulsive>
0.2213

> <Gold.PLP.ligand.clash>
0.0000

> <Gold.PLP.ligand.torsion>
0.5873

> <Gold.PLP.Chemscore.Hbond>
2.3259

> <Gold.PLP.Chemscore.CHOScore>
1.0000

> <Gold.PLP.Chemscore.Metal>
0.0000

> <Gold.Chemscore.Hbonds>
donor molecule, donor type, donor heavy atom, donor atom, acceptor molecule, acceptor atom, score
      L1  H    10    31       P1  8028  1.00
      P1  H  7989  7998       L1     1  0.28
      P1  H  7997  8010       L1     1  0.76
      L1  C    18    35       P1  8028  1.00

> <Gold.PLP.Chemscore.Internal.Correction>
0.0225

> <Gold.Rescore>
     Score         DG    S(hbond)    S(metal)    S(lipo)     H(rot)  DE(clash)    DE(int)     intcor
     16.43     -18.34       1.88        0.00      99.86       2.00       0.07       1.84       ----

> <Gold.Chemscore.Fitness>
16.4332

> <Gold.Chemscore.DG>
-18.3420

> <Gold.Chemscore.ZeroCoef>
-5.4800

> <Gold.Chemscore.Hbond>
1.8834

> <Gold.Chemscore.Metal>
0.0000

> <Gold.Chemscore.Lipo>
99.8589

> <Gold.Chemscore.Internal_Hbond>
0.0000

> <Gold.Chemscore.DEClash>
0.0687

> <Gold.Chemscore.DEInternal>
1.8400

> <Gold.Chemscore.Rot>
1.9969

> <Gold.Chemscore.Internal.Correction>
   9.000000E+99

> <Gold.Chemscore.Hbonds>
donor molecule, donor type, donor heavy atom, donor atom, acceptor molecule, acceptor atom, score
      L1  H    10    31       P1  8028  0.94
      P1  H  7989  7998       L1     1  0.06
      P1  H  7997  8010       L1     1  0.75

> <Gold.Chemscore.Hbond.Weighted>
-6.2906

> <Gold.Chemscore.Metal.Weighted>
-0.0000

> <Gold.Chemscore.Lipo.Weighted>
-11.6835

> <Gold.Chemscore.Internal_Hbond.Weighted>
0.0000

> <Gold.Chemscore.DEClash.Weighted>
0.0687

> <Gold.Chemscore.DEInternal.Weighted>
1.8400

> <Gold.Chemscore.Rot.Weighted>
5.1122

> <Gold.Chemscore.Internal.Correction.Weighted>
   9.000000E+99

> <Gold.Protein.RotatedTorsions>
[ 6907 6896 6895 6894 ] final   93.06 input  -60.11 | X-H torsion
[ 7974 7965 7964 7962 ] final -176.21 input  175.53 | X-H torsion
[ 8008 7997 7996 7995 ] final   98.53 input   59.86 | X-H torsion
[ 10167 10162 10161 10158 ] final  116.60 input  -65.29 | X-H torsion
[ 10718 10713 10712 10709 ] final  -27.13 input   66.30 | X-H torsion
[ 10763 10752 10751 10750 ] final    7.64 input  -60.55 | X-H torsion
[ 11005 11000 10999 10996 ] final -130.74 input  -57.11 | X-H torsion

> <Gold.Protein.ActiveResidues>
 VAL166  LYS551  ARG553  GLY616  TRP617  ASP618  TYR619  PRO620  LYS621  CYS622 
 ASP623  PHE694  ASN695  SER759  ASP760  ASP761  ALA762  ILE779  LEU786  VAL792 
 PHE793  MET794  SER795  GLU796  ALA797  LYS798  CYS799  TRP800  GLU811  SER814 

> <Gold.Protein.RotatedAtoms>
  152.5453  134.1405  159.8476 H   0  0  0  0  0  0  0  0  0  0  0  0  # atno 6907 bound_to 6896
  151.1442  133.4944  159.2604 H   0  0  0  0  0  0  0  0  0  0  0  0  # atno 6908 bound_to 6896
  151.1541  135.0252  159.8736 H   0  0  0  0  0  0  0  0  0  0  0  0  # atno 6909 bound_to 6896
  144.7127  140.1204  143.6405 H   0  0  0  0  0  0  0  0  0  0  0  0  # atno 7974 bound_to 7965
  156.1013  140.3242  155.7946 H   0  0  0  0  0  0  0  0  0  0  0  0  # atno 8008 bound_to 7997
  155.4831  140.0555  157.2981 H   0  0  0  0  0  0  0  0  0  0  0  0  # atno 8009 bound_to 7997
  154.4699  140.2006  156.0037 H   0  0  0  0  0  0  0  0  0  0  0  0  # atno 8010 bound_to 7997
  139.6236  144.7105  151.2582 H   0  0  0  0  0  0  0  0  0  0  0  0  # atno 10167 bound_to 10162
  156.4421  130.4466  149.7046 H   0  0  0  0  0  0  0  0  0  0  0  0  # atno 10718 bound_to 10713
  153.2340  135.6896  153.7858 H   0  0  0  0  0  0  0  0  0  0  0  0  # atno 10763 bound_to 10752
  153.7012  135.3297  155.3226 H   0  0  0  0  0  0  0  0  0  0  0  0  # atno 10764 bound_to 10752
  154.8326  135.4568  154.1236 H   0  0  0  0  0  0  0  0  0  0  0  0  # atno 10765 bound_to 10752
  140.9320  134.1307  157.4226 H   0  0  0  0  0  0  0  0  0  0  0  0  # atno 11005 bound_to 11000
  145.9376  139.2647  143.1288 LP  0  0  0  0  0  0  0  0  0  0  0  0  # atno 17320 bound_to 7965
  145.9458  140.8946  143.0284 LP  0  0  0  0  0  0  0  0  0  0  0  0  # atno 17321 bound_to 7965
  140.7397  143.6610  150.8164 LP  0  0  0  0  0  0  0  0  0  0  0  0  # atno 17342 bound_to 10162
  140.0224  143.5528  152.2795 LP  0  0  0  0  0  0  0  0  0  0  0  0  # atno 17343 bound_to 10162
  156.3906  130.7625  151.2626 LP  0  0  0  0  0  0  0  0  0  0  0  0  # atno 17370 bound_to 10713
  157.7506  131.0269  150.3981 LP  0  0  0  0  0  0  0  0  0  0  0  0  # atno 17371 bound_to 10713
  139.8798  135.0008  156.6031 LP  0  0  0  0  0  0  0  0  0  0  0  0  # atno 17394 bound_to 11000
  140.7850  133.8629  155.8599 LP  0  0  0  0  0  0  0  0  0  0  0  0  # atno 17395 bound_to 11000

$$$$
