AV-unprocessed.smi:3045|AV-procd|sdf|11612|dock1
  -GOLD-   2272016593D 1   1.00000     0.00000
 Structure written by MMmdl.
 36 37  0  0  0  0  0  0  0  0  2 V2000
  151.6502  144.6367  161.0448 C   0  0  0  0  0  0  0  0  0  0  0  0
  152.4440  143.5128  160.5673 N   0  0  0  0  0  0  0  0  0  0  0  0
  152.8605  143.4221  159.1780 C   0  0  0  0  0  0  0  0  0  0  0  0
  153.4933  142.0206  159.0290 C   0  0  2  0  0  0  0  0  0  0  0  0
  152.6158  141.0552  158.2178 C   0  0  0  0  0  0  0  0  0  0  0  0
  153.0796  139.9887  157.8119 O   0  0  0  0  0  0  0  0  0  0  0  0
  151.3584  141.4540  157.9678 N   0  0  0  0  0  0  0  0  0  0  0  0
  150.3800  140.7237  157.1647 C   0  0  0  0  0  0  0  0  0  0  0  0
  150.6971  140.7785  155.6561 C   0  0  0  0  0  0  0  0  0  0  0  0
  149.5569  140.3001  154.7727 C   0  0  0  0  0  0  0  0  0  0  0  0
  148.3961  141.0874  154.6013 C   0  0  0  0  0  0  0  0  0  0  0  0
  147.3719  140.6323  153.7451 C   0  0  0  0  0  0  0  0  0  0  0  0
  147.5303  139.3995  153.0799 C   0  0  0  0  0  0  0  0  0  0  0  0
  148.6518  138.6712  153.2725 N   0  3  0  0  0  0  0  0  0  0  0  0
  149.6540  139.0704  154.0856 C   0  0  0  0  0  0  0  0  0  0  0  0
  153.6810  141.5118  160.4725 C   0  0  0  0  0  0  0  0  0  0  0  0
  152.8967  142.5032  161.3156 C   0  0  0  0  0  0  0  0  0  0  0  0
  152.7130  142.3538  162.5225 O   0  0  0  0  0  0  0  0  0  0  0  0
  152.2282  145.2410  161.7448 H   0  0  0  0  0  0  0  0  0  0  0  0
  150.7521  144.2843  161.5540 H   0  0  0  0  0  0  0  0  0  0  0  0
  151.3398  145.2781  160.2195 H   0  0  0  0  0  0  0  0  0  0  0  0
  152.0131  143.5840  158.5094 H   0  0  0  0  0  0  0  0  0  0  0  0
  153.5950  144.2017  158.9716 H   0  0  0  0  0  0  0  0  0  0  0  0
  154.4643  142.1132  158.5391 H   0  0  0  0  0  0  0  0  0  0  0  0
  151.0615  142.3418  158.3470 H   0  0  0  0  0  0  0  0  0  0  0  0
  150.3089  139.6872  157.4985 H   0  0  0  0  0  0  0  0  0  0  0  0
  149.3997  141.1654  157.3446 H   0  0  0  0  0  0  0  0  0  0  0  0
  150.9478  141.8016  155.3737 H   0  0  0  0  0  0  0  0  0  0  0  0
  151.5864  140.1820  155.4478 H   0  0  0  0  0  0  0  0  0  0  0  0
  148.2946  142.0358  155.1084 H   0  0  0  0  0  0  0  0  0  0  0  0
  146.4803  141.2238  153.5965 H   0  0  0  0  0  0  0  0  0  0  0  0
  146.8006  138.9783  152.4038 H   0  0  0  0  0  0  0  0  0  0  0  0
  150.5047  138.4073  154.1476 H   0  0  0  0  0  0  0  0  0  0  0  0
  153.3109  140.4982  160.6339 H   0  0  0  0  0  0  0  0  0  0  0  0
  154.7310  141.5379  160.7651 H   0  0  0  0  0  0  0  0  0  0  0  0
  148.7480  137.7831  152.7793 H   0  0  0  0  0  0  0  0  0  0  0  0
  1  2  1  0  0  0  0
  1 19  1  0  0  0  0
  1 20  1  0  0  0  0
  1 21  1  0  0  0  0
  2 17  1  0  0  0  0
  2  3  1  0  0  0  0
  3  4  1  0  0  0  0
  3 22  1  0  0  0  0
  3 23  1  0  0  0  0
  4  5  1  0  0  0  0
  4 16  1  0  0  0  0
  4 24  1  0  0  0  0
  5  6  2  0  0  0  0
  5  7  1  0  0  0  0
  7  8  1  0  0  0  0
  7 25  1  0  0  0  0
  8  9  1  0  0  0  0
  8 26  1  0  0  0  0
  8 27  1  0  0  0  0
  9 10  1  0  0  0  0
  9 28  1  0  0  0  0
  9 29  1  0  0  0  0
 10 15  1  0  0  0  0
 10 11  2  0  0  0  0
 11 12  1  0  0  0  0
 11 30  1  0  0  0  0
 12 13  2  0  0  0  0
 12 31  1  0  0  0  0
 13 14  1  0  0  0  0
 13 32  1  0  0  0  0
 14 15  2  0  0  0  0
 14 36  1  0  0  0  0
 15 33  1  0  0  0  0
 16 17  1  0  0  0  0
 16 34  1  0  0  0  0
 16 35  1  0  0  0  0
 17 18  2  0  0  0  0
M  CHG  1  14   1
M  END
> <s_m_source_file>
AV-unprocessed.smi

> <i_m_source_file_index>
3045

> <i_lp_mmshare_version>
43012

> <i_f3d_flags>
0

> <s_epik_input>
W0NIM11OMVtDSDJdW0NASF0oW0NIMl1DMT1PKUMoPU8pW05IXVtDSDJdW0NIMl1jMltjSF1bY0hdW2NIXW5bY0hdMg==

> <s_epik_cmdline>
J2VwaWtfcHl0aG9uJywgJy1waCcsICc3LjAnLCAnLXRuJywgJzgnLCAnLW1hJywgJzIwMCcsICctbWV0YWxfYmluZGluZycsICctaW1hZScsICc8aW5maWxlLm1hZT4nLCAnLW9tYWUnLCAnPG91dGZpbGUubWFlPic=

> <r_epik_Ionization_Penalty>
2.26523

> <r_epik_Ionization_Penalty_Charging>
2.26523

> <r_epik_Ionization_Penalty_Neutral>
2.92809e-08

> <r_epik_State_Penalty>
2.41338

> <r_epik_Charging_Adjusted_Penalty>
4.67861

> <i_epik_Tot_Q>
1

> <i_epik_Tot_abs_Q>
1

> <r_epik_Metal_State_Penalty>
2.42626

> <b_epik_Metal_Only>
0

> <s_lp_Force_Field>
OPLS_2005

> <r_lp_Energy>
17.4324

> <b_lp_Chiralities_Consistent>
1

> <s_lp_Variant>
AV-unprocessed.smi:3045-4

> <Gold.Version>
5.8.1

> <Gold.Id.Protein>
6NUR|6NUR_protein|mol2

> <Gold.PLP.Fitness>
50.1365

> <Gold.PLP.PLP>
-42.1986

> <Gold.PLP.part.hbond>
-3.0000

> <Gold.PLP.part.metal>
0.0000

> <Gold.PLP.part.buried>
-2.0753

> <Gold.PLP.part.nonpolar>
-36.1490

> <Gold.PLP.part.repulsive>
0.2495

> <Gold.PLP.ligand.clash>
0.0000

> <Gold.PLP.ligand.torsion>
0.5543

> <Gold.PLP.Chemscore.Hbond>
3.0000

> <Gold.PLP.Chemscore.CHOScore>
0.0000

> <Gold.PLP.Chemscore.Metal>
0.0000

> <Gold.Chemscore.Hbonds>
donor molecule, donor type, donor heavy atom, donor atom, acceptor molecule, acceptor atom, score
      L1  H    14    36       P1  7948  2.00
      P1  H  7997  8009       L1     6  1.00

> <Gold.PLP.Chemscore.Internal.Correction>
0.0465

> <Gold.Rescore>
     Score         DG    S(hbond)    S(metal)    S(lipo)     H(rot)  DE(clash)    DE(int)     intcor
     16.12     -18.41       1.84        0.00      95.37       1.71       2.19       0.10       ----

> <Gold.Chemscore.Fitness>
16.1198

> <Gold.Chemscore.DG>
-18.4068

> <Gold.Chemscore.ZeroCoef>
-5.4800

> <Gold.Chemscore.Hbond>
1.8407

> <Gold.Chemscore.Metal>
0.0000

> <Gold.Chemscore.Lipo>
95.3667

> <Gold.Chemscore.Internal_Hbond>
0.0000

> <Gold.Chemscore.DEClash>
2.1864

> <Gold.Chemscore.DEInternal>
0.1006

> <Gold.Chemscore.Rot>
1.7105

> <Gold.Chemscore.Internal.Correction>
   9.000000E+99

> <Gold.Chemscore.Hbonds>
donor molecule, donor type, donor heavy atom, donor atom, acceptor molecule, acceptor atom, score
      L1  H    14    36       P1  7948  1.00
      P1  H  7997  8009       L1     6  0.92

> <Gold.Chemscore.Hbond.Weighted>
-6.1478

> <Gold.Chemscore.Metal.Weighted>
-0.0000

> <Gold.Chemscore.Lipo.Weighted>
-11.1579

> <Gold.Chemscore.Internal_Hbond.Weighted>
0.0000

> <Gold.Chemscore.DEClash.Weighted>
2.1864

> <Gold.Chemscore.DEInternal.Weighted>
0.1006

> <Gold.Chemscore.Rot.Weighted>
4.3789

> <Gold.Chemscore.Internal.Correction.Weighted>
   9.000000E+99

> <Gold.Protein.RotatedTorsions>
[ 6907 6896 6895 6894 ] final   -4.66 input  -60.11 | X-H torsion
[ 7974 7965 7964 7962 ] final  -44.70 input  175.53 | X-H torsion
[ 8008 7997 7996 7995 ] final  171.02 input   59.86 | X-H torsion
[ 10167 10162 10161 10158 ] final  -23.93 input  -65.29 | X-H torsion
[ 10718 10713 10712 10709 ] final   14.13 input   66.30 | X-H torsion
[ 10763 10752 10751 10750 ] final   53.72 input  -60.55 | X-H torsion
[ 11005 11000 10999 10996 ] final   86.59 input  -57.11 | X-H torsion

> <Gold.Protein.ActiveResidues>
 VAL166  LYS551  ARG553  GLY616  TRP617  ASP618  TYR619  PRO620  LYS621  CYS622 
 ASP623  PHE694  ASN695  SER759  ASP760  ASP761  ALA762  ILE779  LEU786  VAL792 
 PHE793  MET794  SER795  GLU796  ALA797  LYS798  CYS799  TRP800  GLU811  SER814 

> <Gold.Protein.RotatedAtoms>
  151.4941  135.1059  159.9811 H   0  0  0  0  0  0  0  0  0  0  0  0  # atno 6907 bound_to 6896
  152.4729  133.8067  159.6992 H   0  0  0  0  0  0  0  0  0  0  0  0  # atno 6908 bound_to 6896
  150.8749  133.7391  159.2976 H   0  0  0  0  0  0  0  0  0  0  0  0  # atno 6909 bound_to 6896
  145.9895  140.7197  142.9324 H   0  0  0  0  0  0  0  0  0  0  0  0  # atno 7974 bound_to 7965
  156.1311  140.1523  156.9064 H   0  0  0  0  0  0  0  0  0  0  0  0  # atno 8008 bound_to 7997
  154.4910  140.0851  156.7633 H   0  0  0  0  0  0  0  0  0  0  0  0  # atno 8009 bound_to 7997
  155.4254  140.3425  155.4277 H   0  0  0  0  0  0  0  0  0  0  0  0  # atno 8010 bound_to 7997
  140.7288  143.4399  151.0673 H   0  0  0  0  0  0  0  0  0  0  0  0  # atno 10167 bound_to 10162
  157.0346  130.6207  149.5741 H   0  0  0  0  0  0  0  0  0  0  0  0  # atno 10718 bound_to 10713
  152.9798  135.5769  154.4788 H   0  0  0  0  0  0  0  0  0  0  0  0  # atno 10763 bound_to 10752
  154.4339  135.2774  155.1895 H   0  0  0  0  0  0  0  0  0  0  0  0  # atno 10764 bound_to 10752
  154.3592  135.6192  153.5735 H   0  0  0  0  0  0  0  0  0  0  0  0  # atno 10765 bound_to 10752
  139.8940  134.8366  156.2742 H   0  0  0  0  0  0  0  0  0  0  0  0  # atno 11005 bound_to 11000
  144.6884  140.3045  143.7258 LP  0  0  0  0  0  0  0  0  0  0  0  0  # atno 17320 bound_to 7965
  145.7651  139.1838  143.2244 LP  0  0  0  0  0  0  0  0  0  0  0  0  # atno 17321 bound_to 7965
  139.8065  143.8011  152.3168 LP  0  0  0  0  0  0  0  0  0  0  0  0  # atno 17342 bound_to 10162
  139.8045  144.7361  150.9779 LP  0  0  0  0  0  0  0  0  0  0  0  0  # atno 17343 bound_to 10162
  156.0058  130.5144  150.7824 LP  0  0  0  0  0  0  0  0  0  0  0  0  # atno 17370 bound_to 10713
  157.5151  131.0928  151.0149 LP  0  0  0  0  0  0  0  0  0  0  0  0  # atno 17371 bound_to 10713
  141.0081  133.7112  156.1067 LP  0  0  0  0  0  0  0  0  0  0  0  0  # atno 17394 bound_to 11000
  140.7406  134.4155  157.5555 LP  0  0  0  0  0  0  0  0  0  0  0  0  # atno 17395 bound_to 11000

$$$$
