AV-unprocessed.smi:31|AV-procd|sdf|196|dock10
  -GOLD-   2262015463D 1   1.00000     0.00000
 Structure written by MMmdl.
 49 52  0  0  0  0  0  0  0  0  1 V2000
  151.4289  136.1121  156.0250 O   0  0  0  0  0  0  0  0  0  0  0  0
  151.3669  137.2423  156.5102 C   0  0  0  0  0  0  0  0  0  0  0  0
  152.2229  138.3825  155.9364 C   0  0  0  0  0  0  0  0  0  0  0  0
  151.6585  139.7281  156.1814 N   0  0  0  0  0  0  0  0  0  0  0  0
  150.6625  140.2228  155.3032 C   0  0  0  0  0  0  0  0  0  0  0  0
  150.2696  139.5581  154.3433 O   0  0  0  0  0  0  0  0  0  0  0  0
  150.1449  141.5490  155.6210 C   0  0  0  0  0  0  0  0  0  0  0  0
  149.1979  142.0979  154.8414 F   0  0  0  0  0  0  0  0  0  0  0  0
  150.6014  142.2365  156.6882 C   0  0  0  0  0  0  0  0  0  0  0  0
  151.5738  141.7404  157.5381 N   0  0  0  0  0  0  0  0  0  0  0  0
  152.0702  142.5216  158.7364 C   0  0  1  0  0  0  0  0  0  0  0  0
  152.6015  143.9003  158.3012 C   0  0  0  0  0  0  0  0  0  0  0  0
  151.8830  144.8464  159.2423 C   0  0  0  0  0  0  0  0  0  0  0  0
  150.5828  144.1006  159.5012 C   0  0  0  0  0  0  0  0  0  0  0  0
  151.0141  142.7517  159.6256 O   0  0  0  0  0  0  0  0  0  0  0  0
  152.1178  140.4592  157.3026 C   0  0  0  0  0  0  0  0  0  0  0  0
  152.9724  139.9913  158.0587 O   0  0  0  0  0  0  0  0  0  0  0  0
  150.6074  137.5799  157.5685 N   0  0  0  0  0  0  0  0  0  0  0  0
  149.7066  136.7771  158.3207 C   0  0  0  0  0  0  0  0  0  0  0  0
  149.4401  135.4847  157.8306 C   0  0  0  0  0  0  0  0  0  0  0  0
  148.5645  134.6281  158.5211 C   0  0  0  0  0  0  0  0  0  0  0  0
  147.9430  135.0399  159.7162 C   0  0  0  0  0  0  0  0  0  0  0  0
  148.2576  136.3215  160.2561 C   0  0  0  0  0  0  0  0  0  0  0  0
  149.1168  137.1821  159.5415 C   0  0  0  0  0  0  0  0  0  0  0  0
  147.7929  136.7871  161.4669 O   0  0  0  0  0  0  0  0  0  0  0  0
  147.6308  135.8151  162.4894 C   0  0  0  0  0  0  0  0  0  0  0  0
  146.2740  135.1169  162.3789 C   0  0  0  0  0  0  0  0  0  0  0  0
  145.9298  134.7336  160.9383 C   0  0  0  0  0  0  0  0  0  0  0  0
  147.0474  134.1568  160.2787 O   0  0  0  0  0  0  0  0  0  0  0  0
  153.2308  138.3114  156.3490 H   0  0  0  0  0  0  0  0  0  0  0  0
  152.3628  138.1985  154.8702 H   0  0  0  0  0  0  0  0  0  0  0  0
  150.1744  143.2110  156.8690 H   0  0  0  0  0  0  0  0  0  0  0  0
  152.8154  141.8857  159.2176 H   0  0  0  0  0  0  0  0  0  0  0  0
  153.6874  143.9472  158.3864 H   0  0  0  0  0  0  0  0  0  0  0  0
  152.3173  144.1054  157.2677 H   0  0  0  0  0  0  0  0  0  0  0  0
  152.4447  144.9523  160.1714 H   0  0  0  0  0  0  0  0  0  0  0  0
  151.7302  145.8388  158.8179 H   0  0  0  0  0  0  0  0  0  0  0  0
  150.0695  144.4426  160.4000 H   0  0  0  0  0  0  0  0  0  0  0  0
  149.9026  144.2026  158.6543 H   0  0  0  0  0  0  0  0  0  0  0  0
  150.7267  138.5233  157.9076 H   0  0  0  0  0  0  0  0  0  0  0  0
  149.8956  135.1478  156.9106 H   0  0  0  0  0  0  0  0  0  0  0  0
  148.3488  133.6505  158.1154 H   0  0  0  0  0  0  0  0  0  0  0  0
  149.3405  138.1437  159.9762 H   0  0  0  0  0  0  0  0  0  0  0  0
  148.4446  135.0879  162.4570 H   0  0  0  0  0  0  0  0  0  0  0  0
  147.7097  136.3106  163.4571 H   0  0  0  0  0  0  0  0  0  0  0  0
  146.2824  134.2274  163.0091 H   0  0  0  0  0  0  0  0  0  0  0  0
  145.4884  135.7639  162.7696 H   0  0  0  0  0  0  0  0  0  0  0  0
  145.1138  134.0108  160.9374 H   0  0  0  0  0  0  0  0  0  0  0  0
  145.5647  135.5995  160.3829 H   0  0  0  0  0  0  0  0  0  0  0  0
  1  2  2  0  0  0  0
  2  3  1  0  0  0  0
  2 18  1  0  0  0  0
  3  4  1  0  0  0  0
  3 30  1  0  0  0  0
  3 31  1  0  0  0  0
  4 16  1  0  0  0  0
  4  5  1  0  0  0  0
  5  6  2  0  0  0  0
  5  7  1  0  0  0  0
  7  8  1  0  0  0  0
  7  9  2  0  0  0  0
  9 10  1  0  0  0  0
  9 32  1  0  0  0  0
 10 11  1  0  0  0  0
 10 16  1  0  0  0  0
 11 15  1  0  0  0  0
 11 12  1  0  0  0  0
 11 33  1  0  0  0  0
 12 13  1  0  0  0  0
 12 34  1  0  0  0  0
 12 35  1  0  0  0  0
 13 14  1  0  0  0  0
 13 36  1  0  0  0  0
 13 37  1  0  0  0  0
 14 15  1  0  0  0  0
 14 38  1  0  0  0  0
 14 39  1  0  0  0  0
 16 17  2  0  0  0  0
 18 19  1  0  0  0  0
 18 40  1  0  0  0  0
 19 24  1  0  0  0  0
 19 20  2  0  0  0  0
 20 21  1  0  0  0  0
 20 41  1  0  0  0  0
 21 22  2  0  0  0  0
 21 42  1  0  0  0  0
 22 29  1  0  0  0  0
 22 23  1  0  0  0  0
 23 24  2  0  0  0  0
 23 25  1  0  0  0  0
 24 43  1  0  0  0  0
 25 26  1  0  0  0  0
 26 27  1  0  0  0  0
 26 44  1  0  0  0  0
 26 45  1  0  0  0  0
 27 28  1  0  0  0  0
 27 46  1  0  0  0  0
 27 47  1  0  0  0  0
 28 29  1  0  0  0  0
 28 48  1  0  0  0  0
 28 49  1  0  0  0  0
M  END
> <s_m_source_file>
AV-unprocessed.smi

> <i_m_source_file_index>
31

> <i_lp_mmshare_version>
43012

> <i_f3d_flags>
0

> <s_epik_input>
TzFbQ0gyXVtDSDJdW0NIMl1PYyhjMTIpW2NIXWMoW2NIXVtjSF0yKVtOSF1DKD1PKVtDSDJdbjNjKD1PKWMoRilbY0hdbihjMz1PKVtDQEBIXTRbQ0gyXVtDSDJdW0NIMl1PNA==

> <s_epik_cmdline>
J2VwaWtfcHl0aG9uJywgJy1waCcsICc3LjAnLCAnLXRuJywgJzgnLCAnLW1hJywgJzIwMCcsICctbWV0YWxfYmluZGluZycsICctaW1hZScsICc8aW5maWxlLm1hZT4nLCAnLW9tYWUnLCAnPG91dGZpbGUubWFlPic=

> <r_lp_tautomer_probability>
1

> <r_epik_Ionization_Penalty>
1.0483e-05

> <r_epik_Ionization_Penalty_Charging>
3.88729e-08

> <r_epik_Ionization_Penalty_Neutral>
1.04441e-05

> <r_epik_State_Penalty>
-0

> <r_epik_Charging_Adjusted_Penalty>
3.88729e-08

> <i_epik_Tot_Q>
0

> <i_epik_Tot_abs_Q>
0

> <r_epik_Metal_State_Penalty>
-0

> <b_epik_Metal_Only>
0

> <s_epik_Chemistry_Notes>
This compound contains an acetal/aminal-like group ( X-CH(R)-Y where X, Y are N, S, or O) that may be acid/base labile, releasing an aldehyde.

> <s_lp_Force_Field>
OPLS_2005

> <r_lp_Energy>
46.1803

> <b_lp_Chiralities_Consistent>
1

> <s_lp_Variant>
AV-unprocessed.smi:31-2

> <Gold.Version>
5.8.1

> <Gold.Id.Protein>
6NUR|6NUR_protein|mol2

> <Gold.PLP.Fitness>
59.5769

> <Gold.PLP.PLP>
-48.7611

> <Gold.PLP.part.hbond>
-5.0724

> <Gold.PLP.part.metal>
0.0000

> <Gold.PLP.part.buried>
1.4059

> <Gold.PLP.part.nonpolar>
-43.6740

> <Gold.PLP.part.repulsive>
0.2208

> <Gold.PLP.ligand.clash>
0.0000

> <Gold.PLP.ligand.torsion>
0.7319

> <Gold.PLP.Chemscore.Hbond>
3.0892

> <Gold.PLP.Chemscore.CHOScore>
1.0000

> <Gold.PLP.Chemscore.Metal>
0.0000

> <Gold.Chemscore.Hbonds>
donor molecule, donor type, donor heavy atom, donor atom, acceptor molecule, acceptor atom, score
      P1  H  6931  6943       L1    25  1.00
      P1  H  6934  6947       L1    25  0.12
      P1  H  7997  8009       L1    17  1.00
      P1  H 10752 10765       L1     1  0.94
      L1  C     9    32       P1  8028  1.00

> <Gold.PLP.Chemscore.Internal.Correction>
0.0120

> <Gold.Rescore>
     Score         DG    S(hbond)    S(metal)    S(lipo)     H(rot)  DE(clash)    DE(int)     intcor
     17.60     -20.63       2.16        0.00     103.88       1.64       0.92       2.12       ----

> <Gold.Chemscore.Fitness>
17.5962

> <Gold.Chemscore.DG>
-20.6336

> <Gold.Chemscore.ZeroCoef>
-5.4800

> <Gold.Chemscore.Hbond>
2.1572

> <Gold.Chemscore.Metal>
0.0000

> <Gold.Chemscore.Lipo>
103.8798

> <Gold.Chemscore.Internal_Hbond>
0.0000

> <Gold.Chemscore.DEClash>
0.9186

> <Gold.Chemscore.DEInternal>
2.1187

> <Gold.Chemscore.Rot>
1.6427

> <Gold.Chemscore.Internal.Correction>
   9.000000E+99

> <Gold.Chemscore.Hbonds>
donor molecule, donor type, donor heavy atom, donor atom, acceptor molecule, acceptor atom, score
      P1  H  6931  6943       L1    25  0.40
      P1  H  6934  6947       L1    25  0.04
      P1  H  7997  8009       L1    17  0.39
      P1  H 10752 10765       L1     1  0.89

> <Gold.Chemscore.Hbond.Weighted>
-7.2050

> <Gold.Chemscore.Metal.Weighted>
-0.0000

> <Gold.Chemscore.Lipo.Weighted>
-12.1539

> <Gold.Chemscore.Internal_Hbond.Weighted>
0.0000

> <Gold.Chemscore.DEClash.Weighted>
0.9186

> <Gold.Chemscore.DEInternal.Weighted>
2.1187

> <Gold.Chemscore.Rot.Weighted>
4.2053

> <Gold.Chemscore.Internal.Correction.Weighted>
   9.000000E+99

> <Gold.Protein.RotatedTorsions>
[ 6907 6896 6895 6894 ] final    3.22 input  -60.11 | X-H torsion
[ 7974 7965 7964 7962 ] final  -53.59 input  175.53 | X-H torsion
[ 8008 7997 7996 7995 ] final  155.64 input   59.86 | X-H torsion
[ 10167 10162 10161 10158 ] final  122.95 input  -65.29 | X-H torsion
[ 10718 10713 10712 10709 ] final  -86.03 input   66.30 | X-H torsion
[ 10763 10752 10751 10750 ] final -163.02 input  -60.55 | X-H torsion
[ 11005 11000 10999 10996 ] final  -53.78 input  -57.11 | X-H torsion

> <Gold.Protein.ActiveResidues>
 VAL166  LYS551  ARG553  GLY616  TRP617  ASP618  TYR619  PRO620  LYS621  CYS622 
 ASP623  PHE694  ASN695  SER759  ASP760  ASP761  ALA762  ILE779  LEU786  VAL792 
 PHE793  MET794  SER795  GLU796  ALA797  LYS798  CYS799  TRP800  GLU811  SER814 

> <Gold.Protein.RotatedAtoms>
  151.6216  135.1031  160.0102 H   0  0  0  0  0  0  0  0  0  0  0  0  # atno 6907 bound_to 6896
  152.4155  133.7026  159.6443 H   0  0  0  0  0  0  0  0  0  0  0  0  # atno 6908 bound_to 6896
  150.8043  133.8465  159.3234 H   0  0  0  0  0  0  0  0  0  0  0  0  # atno 6909 bound_to 6896
  145.8951  140.8039  142.9772 H   0  0  0  0  0  0  0  0  0  0  0  0  # atno 7974 bound_to 7965
  156.2467  140.1934  156.6832 H   0  0  0  0  0  0  0  0  0  0  0  0  # atno 8008 bound_to 7997
  154.6306  140.0596  156.9753 H   0  0  0  0  0  0  0  0  0  0  0  0  # atno 8009 bound_to 7997
  155.1717  140.3269  155.4394 H   0  0  0  0  0  0  0  0  0  0  0  0  # atno 8010 bound_to 7997
  139.5828  144.6994  151.3485 H   0  0  0  0  0  0  0  0  0  0  0  0  # atno 10167 bound_to 10162
  155.9992  130.4751  150.4653 H   0  0  0  0  0  0  0  0  0  0  0  0  # atno 10718 bound_to 10713
  154.7161  135.3016  154.9122 H   0  0  0  0  0  0  0  0  0  0  0  0  # atno 10763 bound_to 10752
  154.0008  135.6707  153.4763 H   0  0  0  0  0  0  0  0  0  0  0  0  # atno 10764 bound_to 10752
  153.0794  135.5017  154.8388 H   0  0  0  0  0  0  0  0  0  0  0  0  # atno 10765 bound_to 10752
  141.0993  133.6620  156.4223 H   0  0  0  0  0  0  0  0  0  0  0  0  # atno 11005 bound_to 11000
  144.6732  140.1590  143.7424 LP  0  0  0  0  0  0  0  0  0  0  0  0  # atno 17320 bound_to 7965
  145.8860  139.2349  143.1577 LP  0  0  0  0  0  0  0  0  0  0  0  0  # atno 17321 bound_to 7965
  140.7104  143.7405  150.7557 LP  0  0  0  0  0  0  0  0  0  0  0  0  # atno 17342 bound_to 10162
  140.0942  143.4849  152.2462 LP  0  0  0  0  0  0  0  0  0  0  0  0  # atno 17343 bound_to 10162
  157.2673  131.0579  151.2282 LP  0  0  0  0  0  0  0  0  0  0  0  0  # atno 17370 bound_to 10713
  157.3375  130.7016  149.6361 LP  0  0  0  0  0  0  0  0  0  0  0  0  # atno 17371 bound_to 10713
  140.5062  134.6439  157.5267 LP  0  0  0  0  0  0  0  0  0  0  0  0  # atno 17394 bound_to 11000
  139.9839  134.7092  155.9808 LP  0  0  0  0  0  0  0  0  0  0  0  0  # atno 17395 bound_to 11000

$$$$
