AV-unprocessed.smi:3231|AV-procd|sdf|12337|dock2
  -GOLD-   2272018193D 1   1.00000     0.00000
 Structure written by MMmdl.
 40 41  0  0  0  0  0  0  0  0  1 V2000
  148.5628  138.7386  152.8326 O   0  0  0  0  0  0  0  0  0  0  0  0
  147.4614  139.2010  153.5867 C   0  0  2  0  0  0  0  0  0  0  0  0
  146.2403  138.3623  153.1742 C   0  0  0  0  0  0  0  0  0  0  0  0
  146.4776  136.9383  153.3877 N   0  0  0  0  0  0  0  0  0  0  0  0
  145.3847  136.0883  152.9235 C   0  0  0  0  0  0  0  0  0  0  0  0
  145.3489  136.0035  151.3892 C   0  0  0  0  0  0  0  0  0  0  0  0
  145.4063  134.6338  150.9115 N   0  0  0  0  0  0  0  0  0  0  0  0
  144.4554  133.9338  150.1990 C   0  0  0  0  0  0  0  0  0  0  0  0
  144.9569  132.6843  149.9713 C   0  0  0  0  0  0  0  0  0  0  0  0
  146.2371  132.7160  150.5917 C   0  0  0  0  0  0  0  0  0  0  0  0
  146.5027  133.8836  151.1549 N   0  0  0  0  0  0  0  0  0  0  0  0
  147.2676  140.7038  153.2844 C   0  0  0  0  0  0  0  0  0  0  0  0
  146.2906  141.3995  154.1238 N   0  0  0  0  0  0  0  0  0  0  0  0
  146.6621  141.3136  155.5324 C   0  0  0  0  0  0  0  0  0  0  0  0
  145.6510  142.0340  156.4406 C   0  0  0  0  0  0  0  0  0  0  0  0
  145.5326  143.3936  156.0354 O   0  0  0  0  0  0  0  0  0  0  0  0
  145.1268  143.5263  154.6772 C   0  0  0  0  0  0  0  0  0  0  0  0
  146.1332  142.8072  153.7619 C   0  0  0  0  0  0  0  0  0  0  0  0
  148.4290  137.8238  152.6373 H   0  0  0  0  0  0  0  0  0  0  0  0
  147.6693  139.0238  154.6414 H   0  0  0  0  0  0  0  0  0  0  0  0
  145.3591  138.6866  153.7293 H   0  0  0  0  0  0  0  0  0  0  0  0
  146.0244  138.5355  152.1190 H   0  0  0  0  0  0  0  0  0  0  0  0
  147.3429  136.6640  152.9336 H   0  0  0  0  0  0  0  0  0  0  0  0
  145.4782  135.0875  153.3471 H   0  0  0  0  0  0  0  0  0  0  0  0
  144.4344  136.4875  153.2790 H   0  0  0  0  0  0  0  0  0  0  0  0
  144.4312  136.4584  151.0144 H   0  0  0  0  0  0  0  0  0  0  0  0
  146.1759  136.5654  150.9528 H   0  0  0  0  0  0  0  0  0  0  0  0
  143.5138  134.3794  149.9148 H   0  0  0  0  0  0  0  0  0  0  0  0
  144.4822  131.8717  149.4417 H   0  0  0  0  0  0  0  0  0  0  0  0
  146.9761  131.9304  150.6494 H   0  0  0  0  0  0  0  0  0  0  0  0
  148.2376  141.1939  153.3806 H   0  0  0  0  0  0  0  0  0  0  0  0
  146.9813  140.8276  152.2389 H   0  0  0  0  0  0  0  0  0  0  0  0
  146.7322  140.2677  155.8333 H   0  0  0  0  0  0  0  0  0  0  0  0
  147.6523  141.7475  155.6810 H   0  0  0  0  0  0  0  0  0  0  0  0
  144.6756  141.5469  156.3961 H   0  0  0  0  0  0  0  0  0  0  0  0
  145.9806  141.9989  157.4789 H   0  0  0  0  0  0  0  0  0  0  0  0
  144.1251  143.1134  154.5483 H   0  0  0  0  0  0  0  0  0  0  0  0
  145.0721  144.5849  154.4232 H   0  0  0  0  0  0  0  0  0  0  0  0
  147.0977  143.3144  153.8181 H   0  0  0  0  0  0  0  0  0  0  0  0
  145.7895  142.9011  152.7330 H   0  0  0  0  0  0  0  0  0  0  0  0
  1  2  1  0  0  0  0
  1 19  1  0  0  0  0
  2  3  1  0  0  0  0
  2 12  1  0  0  0  0
  2 20  1  0  0  0  0
  3  4  1  0  0  0  0
  3 21  1  0  0  0  0
  3 22  1  0  0  0  0
  4  5  1  0  0  0  0
  4 23  1  0  0  0  0
  5  6  1  0  0  0  0
  5 24  1  0  0  0  0
  5 25  1  0  0  0  0
  6  7  1  0  0  0  0
  6 26  1  0  0  0  0
  6 27  1  0  0  0  0
  7 11  1  0  0  0  0
  7  8  1  0  0  0  0
  8  9  2  0  0  0  0
  8 28  1  0  0  0  0
  9 10  1  0  0  0  0
  9 29  1  0  0  0  0
 10 11  2  0  0  0  0
 10 30  1  0  0  0  0
 12 13  1  0  0  0  0
 12 31  1  0  0  0  0
 12 32  1  0  0  0  0
 13 18  1  0  0  0  0
 13 14  1  0  0  0  0
 14 15  1  0  0  0  0
 14 33  1  0  0  0  0
 14 34  1  0  0  0  0
 15 16  1  0  0  0  0
 15 35  1  0  0  0  0
 15 36  1  0  0  0  0
 16 17  1  0  0  0  0
 17 18  1  0  0  0  0
 17 37  1  0  0  0  0
 17 38  1  0  0  0  0
 18 39  1  0  0  0  0
 18 40  1  0  0  0  0
M  END
> <s_m_source_file>
AV-unprocessed.smi

> <i_m_source_file_index>
3231

> <i_lp_mmshare_version>
43012

> <i_f3d_flags>
0

> <s_epik_input>
W0NIMl0xW0NIMl1PW0NIMl1bQ0gyXU4xW0NIMl1bQ0BIXShbT0hdKVtDSDJdW05IXVtDSDJdW0NIMl1uMltjSF1bY0hdW2NIXW4y

> <s_epik_cmdline>
J2VwaWtfcHl0aG9uJywgJy1waCcsICc3LjAnLCAnLXRuJywgJzgnLCAnLW1hJywgJzIwMCcsICctbWV0YWxfYmluZGluZycsICctaW1hZScsICc8aW5maWxlLm1hZT4nLCAnLW9tYWUnLCAnPG91dGZpbGUubWFlPic=

> <r_lp_tautomer_probability>
1

> <r_epik_Ionization_Penalty>
2.37071

> <r_epik_Ionization_Penalty_Charging>
0

> <r_epik_Ionization_Penalty_Neutral>
2.37071

> <r_epik_State_Penalty>
1.72455

> <r_epik_Charging_Adjusted_Penalty>
1.72455

> <i_epik_Tot_Q>
0

> <i_epik_Tot_abs_Q>
0

> <r_epik_Metal_State_Penalty>
1.72366

> <b_epik_Metal_Only>
0

> <s_lp_Force_Field>
OPLS_2005

> <r_lp_Energy>
31.2728

> <b_lp_Chiralities_Consistent>
1

> <s_lp_Variant>
AV-unprocessed.smi:3231-7

> <Gold.Version>
5.8.1

> <Gold.Id.Protein>
6NUR|6NUR_protein|mol2

> <Gold.PLP.Fitness>
42.7765

> <Gold.PLP.PLP>
-31.4595

> <Gold.PLP.part.hbond>
-2.3114

> <Gold.PLP.part.metal>
0.0000

> <Gold.PLP.part.buried>
-5.3704

> <Gold.PLP.part.nonpolar>
-24.4997

> <Gold.PLP.part.repulsive>
0.5338

> <Gold.PLP.ligand.clash>
0.0000

> <Gold.PLP.ligand.torsion>
0.4822

> <Gold.PLP.Chemscore.Hbond>
2.0000

> <Gold.PLP.Chemscore.CHOScore>
2.0000

> <Gold.PLP.Chemscore.Metal>
0.0000

> <Gold.Chemscore.Hbonds>
donor molecule, donor type, donor heavy atom, donor atom, acceptor molecule, acceptor atom, score
      L1  H     1    19       P1  7948  1.00
      L1  H     4    23       P1  7948  1.00
      L1  C     8    28       P1 10186  1.00
      L1  C    10    30       P1 10747  1.00

> <Gold.PLP.Chemscore.Internal.Correction>
0.2814

> <Gold.Rescore>
     Score         DG    S(hbond)    S(metal)    S(lipo)     H(rot)  DE(clash)    DE(int)     intcor
     13.25     -13.79       1.99        0.00      73.85       2.72       0.05       0.49       ----

> <Gold.Chemscore.Fitness>
13.2466

> <Gold.Chemscore.DG>
-13.7921

> <Gold.Chemscore.ZeroCoef>
-5.4800

> <Gold.Chemscore.Hbond>
1.9850

> <Gold.Chemscore.Metal>
0.0000

> <Gold.Chemscore.Lipo>
73.8540

> <Gold.Chemscore.Internal_Hbond>
0.0000

> <Gold.Chemscore.DEClash>
0.0522

> <Gold.Chemscore.DEInternal>
0.4933

> <Gold.Chemscore.Rot>
2.7183

> <Gold.Chemscore.Internal.Correction>
   9.000000E+99

> <Gold.Chemscore.Hbonds>
donor molecule, donor type, donor heavy atom, donor atom, acceptor molecule, acceptor atom, score
      L1  H     1    19       P1  7948  0.94
      L1  H     4    23       P1  7948  0.98

> <Gold.Chemscore.Hbond.Weighted>
-6.6301

> <Gold.Chemscore.Metal.Weighted>
-0.0000

> <Gold.Chemscore.Lipo.Weighted>
-8.6409

> <Gold.Chemscore.Internal_Hbond.Weighted>
0.0000

> <Gold.Chemscore.DEClash.Weighted>
0.0522

> <Gold.Chemscore.DEInternal.Weighted>
0.4933

> <Gold.Chemscore.Rot.Weighted>
6.9589

> <Gold.Chemscore.Internal.Correction.Weighted>
   9.000000E+99

> <Gold.Protein.RotatedTorsions>
[ 6907 6896 6895 6894 ] final  -33.62 input  -60.11 | X-H torsion
[ 7974 7965 7964 7962 ] final   82.10 input  175.53 | X-H torsion
[ 8008 7997 7996 7995 ] final  -56.79 input   59.86 | X-H torsion
[ 10167 10162 10161 10158 ] final  145.66 input  -65.29 | X-H torsion
[ 10718 10713 10712 10709 ] final   13.51 input   66.30 | X-H torsion
[ 10763 10752 10751 10750 ] final   96.63 input  -60.55 | X-H torsion
[ 11005 11000 10999 10996 ] final   78.85 input  -57.11 | X-H torsion

> <Gold.Protein.ActiveResidues>
 VAL166  LYS551  ARG553  GLY616  TRP617  ASP618  TYR619  PRO620  LYS621  CYS622 
 ASP623  PHE694  ASN695  SER759  ASP760  ASP761  ALA762  ILE779  LEU786  VAL792 
 PHE793  MET794  SER795  GLU796  ALA797  LYS798  CYS799  TRP800  GLU811  SER814 

> <Gold.Protein.RotatedAtoms>
  151.0632  134.9750  159.8270 H   0  0  0  0  0  0  0  0  0  0  0  0  # atno 6907 bound_to 6896
  152.5398  134.2392  159.8865 H   0  0  0  0  0  0  0  0  0  0  0  0  # atno 6908 bound_to 6896
  151.2413  133.4355  159.2641 H   0  0  0  0  0  0  0  0  0  0  0  0  # atno 6909 bound_to 6896
  145.6294  139.2402  143.2093 H   0  0  0  0  0  0  0  0  0  0  0  0  # atno 7974 bound_to 7965
  154.4243  140.1121  156.5694 H   0  0  0  0  0  0  0  0  0  0  0  0  # atno 8008 bound_to 7997
  155.6228  140.3495  155.4638 H   0  0  0  0  0  0  0  0  0  0  0  0  # atno 8009 bound_to 7997
  156.0011  140.1199  157.0536 H   0  0  0  0  0  0  0  0  0  0  0  0  # atno 8010 bound_to 7997
  139.4922  144.5885  151.6728 H   0  0  0  0  0  0  0  0  0  0  0  0  # atno 10167 bound_to 10162
  157.0257  130.6172  149.5727 H   0  0  0  0  0  0  0  0  0  0  0  0  # atno 10718 bound_to 10713
  153.2672  135.4212  155.0952 H   0  0  0  0  0  0  0  0  0  0  0  0  # atno 10763 bound_to 10752
  154.8442  135.3463  154.6295 H   0  0  0  0  0  0  0  0  0  0  0  0  # atno 10764 bound_to 10752
  153.6715  135.7043  153.5203 H   0  0  0  0  0  0  0  0  0  0  0  0  # atno 10765 bound_to 10752
  139.9196  134.7796  156.1702 H   0  0  0  0  0  0  0  0  0  0  0  0  # atno 11005 bound_to 11000
  146.1368  140.7111  142.9386 LP  0  0  0  0  0  0  0  0  0  0  0  0  # atno 17320 bound_to 7965
  144.7199  140.4339  143.7016 LP  0  0  0  0  0  0  0  0  0  0  0  0  # atno 17321 bound_to 7965
  140.5507  144.0430  150.6126 LP  0  0  0  0  0  0  0  0  0  0  0  0  # atno 17342 bound_to 10162
  140.3483  143.2978  152.0514 LP  0  0  0  0  0  0  0  0  0  0  0  0  # atno 17343 bound_to 10162
  156.0087  130.5176  150.7916 LP  0  0  0  0  0  0  0  0  0  0  0  0  # atno 17370 bound_to 10713
  157.5216  131.0932  151.0071 LP  0  0  0  0  0  0  0  0  0  0  0  0  # atno 17371 bound_to 10713
  141.0705  133.6799  156.2130 LP  0  0  0  0  0  0  0  0  0  0  0  0  # atno 17394 bound_to 11000
  140.6515  134.5062  157.5578 LP  0  0  0  0  0  0  0  0  0  0  0  0  # atno 17395 bound_to 11000

$$$$
