AV-unprocessed.smi:66|AV-procd|sdf|620|dock4
  -GOLD-   2262016513D 1   1.00000     0.00000
 Structure written by MMmdl.
 28 30  0  0  0  0  0  0  0  0  2 V2000
  151.3498  140.2283  155.1541 O   0  0  0  0  0  0  0  0  0  0  0  0
  151.9698  139.6334  156.0624 C   0  0  0  0  0  0  0  0  0  0  0  0
  153.0851  139.0803  155.9341 O   0  5  0  0  0  0  0  0  0  0  0  0
  151.2929  139.5803  157.4417 C   0  0  1  0  0  0  0  0  0  0  0  0
  151.1942  138.1472  157.9951 C   0  0  0  0  0  0  0  0  0  0  0  0
  152.4424  137.9964  158.8630 C   0  0  2  0  0  0  0  0  0  0  0  0
  152.2997  137.0002  159.8539 O   0  0  0  0  0  0  0  0  0  0  0  0
  152.6107  139.3930  159.4603 C   0  0  0  0  0  0  0  0  0  0  0  0
  152.0700  140.3001  158.4563 N   0  0  0  0  0  0  0  0  0  0  0  0
  151.9534  141.6412  158.6624 C   0  0  0  0  0  0  0  0  0  0  0  0
  151.5011  142.4173  157.6408 N   0  0  0  0  0  0  0  0  0  0  0  0
  151.3692  143.7381  157.7879 C   0  0  0  0  0  0  0  0  0  0  0  0
  151.6269  144.4875  158.8604 N   0  0  0  0  0  0  0  0  0  0  0  0
  152.0820  143.7214  159.8895 C   0  0  0  0  0  0  0  0  0  0  0  0
  152.4527  144.1383  161.1500 N   0  0  0  0  0  0  0  0  0  0  0  0
  152.8402  143.0078  161.8237 C   0  0  0  0  0  0  0  0  0  0  0  0
  152.7571  141.9060  161.1288 N   0  0  0  0  0  0  0  0  0  0  0  0
  152.2758  142.3086  159.8838 C   0  0  0  0  0  0  0  0  0  0  0  0
  152.4238  145.1000  161.4560 H   0  0  0  0  0  0  0  0  0  0  0  0
  150.2873  139.9952  157.3574 H   0  0  0  0  0  0  0  0  0  0  0  0
  150.2975  138.0647  158.6115 H   0  0  0  0  0  0  0  0  0  0  0  0
  151.1283  137.3825  157.2196 H   0  0  0  0  0  0  0  0  0  0  0  0
  153.3005  137.7570  158.2336 H   0  0  0  0  0  0  0  0  0  0  0  0
  151.8542  137.3797  160.5958 H   0  0  0  0  0  0  0  0  0  0  0  0
  152.0367  139.4989  160.3823 H   0  0  0  0  0  0  0  0  0  0  0  0
  153.6600  139.5974  159.6739 H   0  0  0  0  0  0  0  0  0  0  0  0
  151.0049  144.2690  156.9208 H   0  0  0  0  0  0  0  0  0  0  0  0
  153.1871  143.0269  162.8465 H   0  0  0  0  0  0  0  0  0  0  0  0
  1  2  2  0  0  0  0
  2  3  1  0  0  0  0
  2  4  1  0  0  0  0
  4  5  1  0  0  0  0
  4 20  1  0  0  0  0
  4  9  1  0  0  0  0
  5  6  1  0  0  0  0
  5 21  1  0  0  0  0
  5 22  1  0  0  0  0
  6  7  1  0  0  0  0
  6  8  1  0  0  0  0
  6 23  1  0  0  0  0
  7 24  1  0  0  0  0
  8 25  1  0  0  0  0
  8 26  1  0  0  0  0
  8  9  1  0  0  0  0
  9 10  1  0  0  0  0
 10 11  1  0  0  0  0
 10 18  2  0  0  0  0
 11 12  2  0  0  0  0
 12 27  1  0  0  0  0
 12 13  1  0  0  0  0
 13 14  2  0  0  0  0
 14 15  1  0  0  0  0
 14 18  1  0  0  0  0
 15 16  1  0  0  0  0
 15 19  1  0  0  0  0
 16 17  2  0  0  0  0
 16 28  1  0  0  0  0
 17 18  1  0  0  0  0
M  CHG  1   3  -1
M  END
> <s_m_source_file>
AV-unprocessed.smi

> <i_m_source_file_index>
66

> <i_lp_mmshare_version>
43012

> <i_f3d_flags>
0

> <s_epik_input>
Tz1DKFtPSF0pW0NAQEhdMVtDSDJdW0NAQEhdKFtPSF0pW0NIMl1OMWMobltjSF1uMiljKGMyMylbbkhdW2NIXW4z

> <s_epik_cmdline>
J2VwaWtfcHl0aG9uJywgJy1waCcsICc3LjAnLCAnLXRuJywgJzgnLCAnLW1hJywgJzIwMCcsICctbWV0YWxfYmluZGluZycsICctaW1hZScsICc8aW5maWxlLm1hZT4nLCAnLW9tYWUnLCAnPG91dGZpbGUubWFlPic=

> <r_lp_tautomer_probability>
0.955585

> <r_epik_Ionization_Penalty>
0.00455415

> <r_epik_Ionization_Penalty_Charging>
0.000248217

> <r_epik_Ionization_Penalty_Neutral>
0.00430593

> <r_epik_State_Penalty>
0.0207074

> <r_epik_Charging_Adjusted_Penalty>
0.0209557

> <i_epik_Tot_Q>
-1

> <i_epik_Tot_abs_Q>
1

> <r_epik_Metal_State_Penalty>
0.337372

> <b_epik_Metal_Only>
0

> <s_lp_Force_Field>
OPLS_2005

> <r_lp_Energy>
24.8219

> <b_lp_Chiralities_Consistent>
1

> <s_lp_Variant>
AV-unprocessed.smi:66-4

> <Gold.Version>
5.8.1

> <Gold.Id.Protein>
6NUR|6NUR_protein|mol2

> <Gold.PLP.Fitness>
46.7202

> <Gold.PLP.PLP>
-32.0082

> <Gold.PLP.part.hbond>
-2.9729

> <Gold.PLP.part.metal>
0.0000

> <Gold.PLP.part.buried>
-5.7526

> <Gold.PLP.part.nonpolar>
-23.3634

> <Gold.PLP.part.repulsive>
0.2302

> <Gold.PLP.ligand.clash>
0.0000

> <Gold.PLP.ligand.torsion>
0.1987

> <Gold.PLP.Chemscore.Hbond>
4.0000

> <Gold.PLP.Chemscore.CHOScore>
1.0000

> <Gold.PLP.Chemscore.Metal>
0.0000

> <Gold.Chemscore.Hbonds>
donor molecule, donor type, donor heavy atom, donor atom, acceptor molecule, acceptor atom, score
      P1  H  6896  6909       L1     7  1.00
      P1  H  7989  7998       L1     1  1.00
      P1  H  7997  8010       L1     3  2.00
      L1  C    12    27       P1  8028  1.00

> <Gold.PLP.Chemscore.Internal.Correction>
0.1094

> <Gold.Rescore>
     Score         DG    S(hbond)    S(metal)    S(lipo)     H(rot)  DE(clash)    DE(int)     intcor
     12.85     -14.00       2.94        0.00      28.04       1.78       0.02       1.13       ----

> <Gold.Chemscore.Fitness>
12.8483

> <Gold.Chemscore.DG>
-14.0045

> <Gold.Chemscore.ZeroCoef>
-5.4800

> <Gold.Chemscore.Hbond>
2.9376

> <Gold.Chemscore.Metal>
0.0000

> <Gold.Chemscore.Lipo>
28.0396

> <Gold.Chemscore.Internal_Hbond>
0.0000

> <Gold.Chemscore.DEClash>
0.0234

> <Gold.Chemscore.DEInternal>
1.1328

> <Gold.Chemscore.Rot>
1.7842

> <Gold.Chemscore.Internal.Correction>
   9.000000E+99

> <Gold.Chemscore.Hbonds>
donor molecule, donor type, donor heavy atom, donor atom, acceptor molecule, acceptor atom, score
      P1  H  6896  6909       L1     7  0.34
      P1  H  7989  7998       L1     1  0.97
      P1  H  7997  8010       L1     3  0.85

> <Gold.Chemscore.Hbond.Weighted>
-9.8115

> <Gold.Chemscore.Metal.Weighted>
-0.0000

> <Gold.Chemscore.Lipo.Weighted>
-3.2806

> <Gold.Chemscore.Internal_Hbond.Weighted>
0.0000

> <Gold.Chemscore.DEClash.Weighted>
0.0234

> <Gold.Chemscore.DEInternal.Weighted>
1.1328

> <Gold.Chemscore.Rot.Weighted>
4.5676

> <Gold.Chemscore.Internal.Correction.Weighted>
   9.000000E+99

> <Gold.Protein.RotatedTorsions>
[ 6907 6896 6895 6894 ] final  139.54 input  -60.11 | X-H torsion
[ 7974 7965 7964 7962 ] final  130.25 input  175.53 | X-H torsion
[ 8008 7997 7996 7995 ] final   86.62 input   59.86 | X-H torsion
[ 10167 10162 10161 10158 ] final   32.18 input  -65.29 | X-H torsion
[ 10718 10713 10712 10709 ] final   60.55 input   66.30 | X-H torsion
[ 10763 10752 10751 10750 ] final  125.58 input  -60.55 | X-H torsion
[ 11005 11000 10999 10996 ] final  -72.68 input  -57.11 | X-H torsion

> <Gold.Protein.ActiveResidues>
 VAL166  LYS551  ARG553  GLY616  TRP617  ASP618  TYR619  PRO620  LYS621  CYS622 
 ASP623  PHE694  ASN695  SER759  ASP760  ASP761  ALA762  ILE779  LEU786  VAL792 
 PHE793  MET794  SER795  GLU796  ALA797  LYS798  CYS799  TRP800  GLU811  SER814 

> <Gold.Protein.RotatedAtoms>
  152.2537  133.5237  159.5340 H   0  0  0  0  0  0  0  0  0  0  0  0  # atno 6907 bound_to 6896
  150.7102  134.0925  159.3946 H   0  0  0  0  0  0  0  0  0  0  0  0  # atno 6908 bound_to 6896
  151.8844  135.0441  160.0542 H   0  0  0  0  0  0  0  0  0  0  0  0  # atno 6909 bound_to 6896
  145.0199  139.4141  143.5202 H   0  0  0  0  0  0  0  0  0  0  0  0  # atno 7974 bound_to 7965
  155.9651  140.3390  155.6525 H   0  0  0  0  0  0  0  0  0  0  0  0  # atno 8008 bound_to 7997
  155.6747  140.0731  157.2525 H   0  0  0  0  0  0  0  0  0  0  0  0  # atno 8009 bound_to 7997
  154.4152  140.1685  156.1905 H   0  0  0  0  0  0  0  0  0  0  0  0  # atno 8010 bound_to 7997
  140.4521  144.1032  150.6194 H   0  0  0  0  0  0  0  0  0  0  0  0  # atno 10167 bound_to 10162
  157.5761  130.8945  149.9350 H   0  0  0  0  0  0  0  0  0  0  0  0  # atno 10718 bound_to 10713
  153.6795  135.3317  155.3174 H   0  0  0  0  0  0  0  0  0  0  0  0  # atno 10763 bound_to 10752
  154.8469  135.4405  154.1621 H   0  0  0  0  0  0  0  0  0  0  0  0  # atno 10764 bound_to 10752
  153.2633  135.6993  153.7632 H   0  0  0  0  0  0  0  0  0  0  0  0  # atno 10765 bound_to 10752
  141.1612  133.6854  156.7097 H   0  0  0  0  0  0  0  0  0  0  0  0  # atno 11005 bound_to 11000
  146.3484  139.9691  142.8708 LP  0  0  0  0  0  0  0  0  0  0  0  0  # atno 17320 bound_to 7965
  145.1909  140.9811  143.4211 LP  0  0  0  0  0  0  0  0  0  0  0  0  # atno 17321 bound_to 7965
  140.4194  143.2619  151.9734 LP  0  0  0  0  0  0  0  0  0  0  0  0  # atno 17342 bound_to 10162
  139.4797  144.5844  151.7878 LP  0  0  0  0  0  0  0  0  0  0  0  0  # atno 17343 bound_to 10162
  156.0806  130.3673  150.0588 LP  0  0  0  0  0  0  0  0  0  0  0  0  # atno 17370 bound_to 10713
  156.8735  130.9532  151.3607 LP  0  0  0  0  0  0  0  0  0  0  0  0  # atno 17371 bound_to 10713
  140.2897  134.8251  157.4005 LP  0  0  0  0  0  0  0  0  0  0  0  0  # atno 17394 bound_to 11000
  140.1358  134.5036  155.8069 LP  0  0  0  0  0  0  0  0  0  0  0  0  # atno 17395 bound_to 11000

$$$$
