AV-unprocessed.smi:157|AV-procd|sdf|1294|dock8
  -GOLD-   2262018583D 1   1.00000     0.00000
 Structure written by MMmdl.
 35 37  0  0  0  0  0  0  0  0  1 V2000
  148.9062  137.0688  154.5176 O   0  0  0  0  0  0  0  0  0  0  0  0
  150.0100  137.8616  154.9033 C   0  0  0  0  0  0  0  0  0  0  0  0
  149.9268  139.2647  154.2668 C   0  0  2  0  0  0  0  0  0  0  0  0
  150.8867  140.0878  154.9330 O   0  0  0  0  0  0  0  0  0  0  0  0
  150.2507  141.0772  155.6877 C   0  0  2  0  0  0  0  0  0  0  0  0
  150.8628  141.1170  157.0527 N   0  0  0  0  0  0  0  0  0  0  0  0
  151.0180  140.0815  157.8887 C   0  0  0  0  0  0  0  0  0  0  0  0
  151.5890  140.3878  159.0415 N   0  0  0  0  0  0  0  0  0  0  0  0
  151.8173  141.7598  158.9498 C   0  0  0  0  0  0  0  0  0  0  0  0
  151.3643  142.2338  157.7269 C   0  0  0  0  0  0  0  0  0  0  0  0
  151.3164  143.4587  157.0889 N   0  0  0  0  0  0  0  0  0  0  0  0
  151.4401  144.5261  157.8128 C   0  0  0  0  0  0  0  0  0  0  0  0
  151.7165  144.6635  159.1657 N   0  0  0  0  0  0  0  0  0  0  0  0
  152.7964  143.9576  159.8339 C   0  0  0  0  0  0  0  0  0  0  0  0
  152.4973  142.4741  160.0824 C   0  0  1  0  0  0  0  0  0  0  0  0
  151.6582  142.3517  161.2127 O   0  0  0  0  0  0  0  0  0  0  0  0
  148.7784  140.6927  155.7800 C   0  0  0  0  0  0  0  0  0  0  0  0
  148.5904  140.0087  154.4452 C   0  0  2  0  0  0  0  0  0  0  0  0
  147.4438  139.1826  154.4417 O   0  0  0  0  0  0  0  0  0  0  0  0
  150.1954  139.2024  153.2114 H   0  0  0  0  0  0  0  0  0  0  0  0
  150.4268  142.0575  155.2436 H   0  0  0  0  0  0  0  0  0  0  0  0
  153.4326  141.9704  160.3281 H   0  0  0  0  0  0  0  0  0  0  0  0
  148.4875  140.7629  153.6639 H   0  0  0  0  0  0  0  0  0  0  0  0
  149.0158  136.8218  153.6121 H   0  0  0  0  0  0  0  0  0  0  0  0
  150.0735  137.9154  155.9904 H   0  0  0  0  0  0  0  0  0  0  0  0
  150.9109  137.3532  154.5583 H   0  0  0  0  0  0  0  0  0  0  0  0
  150.7077  139.0757  157.6466 H   0  0  0  0  0  0  0  0  0  0  0  0
  151.3253  145.4967  157.3282 H   0  0  0  0  0  0  0  0  0  0  0  0
  151.5350  145.5543  159.6052 H   0  0  0  0  0  0  0  0  0  0  0  0
  153.6775  144.0357  159.1951 H   0  0  0  0  0  0  0  0  0  0  0  0
  153.0511  144.4636  160.7655 H   0  0  0  0  0  0  0  0  0  0  0  0
  152.1925  142.4417  161.9872 H   0  0  0  0  0  0  0  0  0  0  0  0
  148.6275  139.9961  156.6066 H   0  0  0  0  0  0  0  0  0  0  0  0
  148.1468  141.5694  155.9261 H   0  0  0  0  0  0  0  0  0  0  0  0
  147.4466  138.6704  153.6473 H   0  0  0  0  0  0  0  0  0  0  0  0
  1  2  1  0  0  0  0
  1 24  1  0  0  0  0
  2  3  1  0  0  0  0
  2 25  1  0  0  0  0
  2 26  1  0  0  0  0
  3 20  1  0  0  0  0
  3 18  1  0  0  0  0
  3  4  1  0  0  0  0
  4  5  1  0  0  0  0
  5 21  1  0  0  0  0
  5  6  1  0  0  0  0
  5 17  1  0  0  0  0
  6 10  1  0  0  0  0
  6  7  1  0  0  0  0
  7  8  2  0  0  0  0
  7 27  1  0  0  0  0
  8  9  1  0  0  0  0
  9 15  1  0  0  0  0
  9 10  2  0  0  0  0
 10 11  1  0  0  0  0
 11 12  2  0  0  0  0
 12 13  1  0  0  0  0
 12 28  1  0  0  0  0
 13 14  1  0  0  0  0
 13 29  1  0  0  0  0
 14 15  1  0  0  0  0
 14 30  1  0  0  0  0
 14 31  1  0  0  0  0
 15 22  1  0  0  0  0
 15 16  1  0  0  0  0
 16 32  1  0  0  0  0
 17 18  1  0  0  0  0
 17 33  1  0  0  0  0
 17 34  1  0  0  0  0
 18 23  1  0  0  0  0
 18 19  1  0  0  0  0
 19 35  1  0  0  0  0
M  END
> <s_m_source_file>
AV-unprocessed.smi

> <i_m_source_file_index>
157

> <i_lp_mmshare_version>
43012

> <i_f3d_flags>
0

> <s_epik_input>
W09IXVtDSDJdW0NASF0xT1tDQEhdKFtDSDJdW0NAQEhdMVtPSF0pbihbY0hdbjIpYyhjMjMpTj1bQ0hdW05IXVtDSDJdW0NASF0zW09IXQ==

> <s_epik_cmdline>
J2VwaWtfcHl0aG9uJywgJy1waCcsICc3LjAnLCAnLXRuJywgJzgnLCAnLW1hJywgJzIwMCcsICctbWV0YWxfYmluZGluZycsICctaW1hZScsICc8aW5maWxlLm1hZT4nLCAnLW9tYWUnLCAnPG91dGZpbGUubWFlPic=

> <r_lp_tautomer_probability>
1

> <r_epik_Ionization_Penalty>
0.0357149

> <r_epik_Ionization_Penalty_Charging>
0.0355056

> <r_epik_Ionization_Penalty_Neutral>
0.000209255

> <r_epik_State_Penalty>
0.0296046

> <r_epik_Charging_Adjusted_Penalty>
0.0651102

> <i_epik_Tot_Q>
0

> <i_epik_Tot_abs_Q>
0

> <r_epik_Metal_State_Penalty>
3.03559e-05

> <b_epik_Metal_Only>
0

> <s_epik_Chemistry_Notes>
This compound has an imine and may undergo hydrolysis. This compound contains an acetal/aminal-like group ( X-CH(R)-Y where X, Y are N, S, or O) that may be acid/base labile, releasing an aldehyde.

> <s_lp_Force_Field>
OPLS_2005

> <r_lp_Energy>
46.7001

> <b_lp_Chiralities_Consistent>
1

> <s_lp_Variant>
AV-unprocessed.smi:157-4

> <Gold.Version>
5.8.1

> <Gold.Id.Protein>
6NUR|6NUR_protein|mol2

> <Gold.PLP.Fitness>
39.7140

> <Gold.PLP.PLP>
-32.9592

> <Gold.PLP.part.hbond>
-3.0000

> <Gold.PLP.part.metal>
0.0000

> <Gold.PLP.part.buried>
-6.0130

> <Gold.PLP.part.nonpolar>
-26.0924

> <Gold.PLP.part.repulsive>
0.6991

> <Gold.PLP.ligand.clash>
0.0000

> <Gold.PLP.ligand.torsion>
0.1419

> <Gold.PLP.Chemscore.Hbond>
2.2503

> <Gold.PLP.Chemscore.CHOScore>
0.0915

> <Gold.PLP.Chemscore.Metal>
0.0000

> <Gold.Chemscore.Hbonds>
donor molecule, donor type, donor heavy atom, donor atom, acceptor molecule, acceptor atom, score
      L1  H     1    24       P1  7948  1.00
      P1  H  6933  6945       L1    16  0.31
      P1  H  7989  7998       L1     4  0.95

> <Gold.PLP.Chemscore.Internal.Correction>
0.0131

> <Gold.Rescore>
     Score         DG    S(hbond)    S(metal)    S(lipo)     H(rot)  DE(clash)    DE(int)     intcor
      7.40      -7.60       1.53        0.00      54.05       3.64       0.08       0.12       ----

> <Gold.Chemscore.Fitness>
7.3997

> <Gold.Chemscore.DG>
-7.5961

> <Gold.Chemscore.ZeroCoef>
-5.4800

> <Gold.Chemscore.Hbond>
1.5271

> <Gold.Chemscore.Metal>
0.0000

> <Gold.Chemscore.Lipo>
54.0534

> <Gold.Chemscore.Internal_Hbond>
0.0000

> <Gold.Chemscore.DEClash>
0.0756

> <Gold.Chemscore.DEInternal>
0.1208

> <Gold.Chemscore.Rot>
3.6362

> <Gold.Chemscore.Internal.Correction>
   9.000000E+99

> <Gold.Chemscore.Hbonds>
donor molecule, donor type, donor heavy atom, donor atom, acceptor molecule, acceptor atom, score
      L1  H     1    24       P1  7948  1.00
      P1  H  6933  6945       L1    16  0.03
      P1  H  7989  7998       L1     4  0.14

> <Gold.Chemscore.Hbond.Weighted>
-5.1006

> <Gold.Chemscore.Metal.Weighted>
-0.0000

> <Gold.Chemscore.Lipo.Weighted>
-6.3243

> <Gold.Chemscore.Internal_Hbond.Weighted>
0.0000

> <Gold.Chemscore.DEClash.Weighted>
0.0756

> <Gold.Chemscore.DEInternal.Weighted>
0.1208

> <Gold.Chemscore.Rot.Weighted>
9.3087

> <Gold.Chemscore.Internal.Correction.Weighted>
   9.000000E+99

> <Gold.Protein.RotatedTorsions>
[ 6907 6896 6895 6894 ] final  -79.82 input  -60.11 | X-H torsion
[ 7974 7965 7964 7962 ] final -101.45 input  175.53 | X-H torsion
[ 8008 7997 7996 7995 ] final  172.34 input   59.86 | X-H torsion
[ 10167 10162 10161 10158 ] final -144.65 input  -65.29 | X-H torsion
[ 10718 10713 10712 10709 ] final  -96.05 input   66.30 | X-H torsion
[ 10763 10752 10751 10750 ] final    8.89 input  -60.55 | X-H torsion
[ 11005 11000 10999 10996 ] final  -38.16 input  -57.11 | X-H torsion

> <Gold.Protein.ActiveResidues>
 VAL166  LYS551  ARG553  GLY616  TRP617  ASP618  TYR619  PRO620  LYS621  CYS622 
 ASP623  PHE694  ASN695  SER759  ASP760  ASP761  ALA762  ILE779  LEU786  VAL792 
 PHE793  MET794  SER795  GLU796  ALA797  LYS798  CYS799  TRP800  GLU811  SER814 

> <Gold.Protein.RotatedAtoms>
  150.6942  134.4063  159.5141 H   0  0  0  0  0  0  0  0  0  0  0  0  # atno 6907 bound_to 6896
  152.1829  134.8736  160.0534 H   0  0  0  0  0  0  0  0  0  0  0  0  # atno 6908 bound_to 6896
  151.9720  133.3694  159.4111 H   0  0  0  0  0  0  0  0  0  0  0  0  # atno 6909 bound_to 6896
  145.2814  140.9327  143.2930 H   0  0  0  0  0  0  0  0  0  0  0  0  # atno 7974 bound_to 7965
  156.1184  140.1488  156.9240 H   0  0  0  0  0  0  0  0  0  0  0  0  # atno 8008 bound_to 7997
  154.4817  140.0877  156.7435 H   0  0  0  0  0  0  0  0  0  0  0  0  # atno 8009 bound_to 7997
  155.4472  140.3433  155.4299 H   0  0  0  0  0  0  0  0  0  0  0  0  # atno 8010 bound_to 7997
  139.7879  143.8008  152.2646 H   0  0  0  0  0  0  0  0  0  0  0  0  # atno 10167 bound_to 10162
  156.0054  130.5135  150.6167 H   0  0  0  0  0  0  0  0  0  0  0  0  # atno 10718 bound_to 10713
  153.2200  135.6880  153.8011 H   0  0  0  0  0  0  0  0  0  0  0  0  # atno 10763 bound_to 10752
  153.7213  135.3267  155.3268 H   0  0  0  0  0  0  0  0  0  0  0  0  # atno 10764 bound_to 10752
  154.8265  135.4614  154.1044 H   0  0  0  0  0  0  0  0  0  0  0  0  # atno 10765 bound_to 10752
  141.0007  133.6957  156.2017 H   0  0  0  0  0  0  0  0  0  0  0  0  # atno 11005 bound_to 11000
  144.9250  139.4366  143.6523 LP  0  0  0  0  0  0  0  0  0  0  0  0  # atno 17320 bound_to 7965
  146.3215  139.8131  142.8942 LP  0  0  0  0  0  0  0  0  0  0  0  0  # atno 17321 bound_to 7965
  139.8090  144.7343  150.9722 LP  0  0  0  0  0  0  0  0  0  0  0  0  # atno 17342 bound_to 10162
  140.7820  143.4269  151.0754 LP  0  0  0  0  0  0  0  0  0  0  0  0  # atno 17343 bound_to 10162
  157.3990  131.0807  151.1325 LP  0  0  0  0  0  0  0  0  0  0  0  0  # atno 17370 bound_to 10713
  157.1993  130.6387  149.5732 LP  0  0  0  0  0  0  0  0  0  0  0  0  # atno 17371 bound_to 10713
  140.6894  134.4682  157.5589 LP  0  0  0  0  0  0  0  0  0  0  0  0  # atno 17394 bound_to 11000
  139.9037  134.8497  156.1791 LP  0  0  0  0  0  0  0  0  0  0  0  0  # atno 17395 bound_to 11000

$$$$
