AV-unprocessed.smi:612|AV-procd|sdf|3063|dock1
  -GOLD-   2262023583D 1   1.00000     0.00000
 Structure written by MMmdl.
 50 52  0  0  0  0  0  0  0  0  2 V2000
  146.2209  130.7042  151.8134 C   0  0  0  0  0  0  0  0  0  0  0  0
  145.7228  132.0204  151.4056 N   0  0  0  0  0  0  0  0  0  0  0  0
  144.6571  132.0568  150.4908 C   0  0  0  0  0  0  0  0  0  0  0  0
  144.1397  133.2154  150.0601 C   0  0  0  0  0  0  0  0  0  0  0  0
  144.7033  134.4467  150.5589 C   0  0  0  0  0  0  0  0  0  0  0  0
  145.7292  134.4355  151.4476 C   0  0  0  0  0  0  0  0  0  0  0  0
  146.3447  135.5822  151.9817 N   0  0  0  0  0  0  0  0  0  0  0  0
  145.7923  136.6699  152.5509 C   0  0  0  0  0  0  0  0  0  0  0  0
  144.5899  136.8594  152.7305 O   0  0  0  0  0  0  0  0  0  0  0  0
  146.7388  137.5439  152.9242 N   0  0  0  0  0  0  0  0  0  0  0  0
  146.5042  138.8245  153.5873 C   0  0  2  0  0  0  0  0  0  0  0  0
  147.1606  139.9646  152.7890 C   0  0  0  0  0  0  0  0  0  0  0  0
  147.0427  141.3069  153.5375 C   0  0  0  0  0  0  0  0  0  0  0  0
  147.6120  141.2341  154.9122 N   0  3  2  0  0  0  0  0  0  0  0  0
  149.1048  141.2019  154.9629 C   0  0  0  0  0  0  0  0  0  0  0  0
  149.7163  139.9299  154.3593 C   0  0  0  0  0  0  0  0  0  0  0  0
  151.1337  139.8608  154.9340 C   0  0  0  0  0  0  0  0  0  0  0  0
  151.0897  140.6226  156.2652 C   0  0  0  0  0  0  0  0  0  0  0  0
  149.6691  141.1845  156.3910 C   0  0  0  0  0  0  0  0  0  0  0  0
  146.9415  140.1618  155.6992 C   0  0  0  0  0  0  0  0  0  0  0  0
  147.0638  138.7850  155.0194 C   0  0  0  0  0  0  0  0  0  0  0  0
  146.2964  133.1532  151.9103 C   0  0  0  0  0  0  0  0  0  0  0  0
  147.2357  133.0914  152.7079 O   0  0  0  0  0  0  0  0  0  0  0  0
  145.6618  129.8833  151.3627 H   0  0  0  0  0  0  0  0  0  0  0  0
  146.1527  130.5858  152.8958 H   0  0  0  0  0  0  0  0  0  0  0  0
  147.2657  130.5846  151.5228 H   0  0  0  0  0  0  0  0  0  0  0  0
  144.2913  131.0945  150.1634 H   0  0  0  0  0  0  0  0  0  0  0  0
  143.3209  133.2278  149.3559 H   0  0  0  0  0  0  0  0  0  0  0  0
  144.2792  135.3628  150.1829 H   0  0  0  0  0  0  0  0  0  0  0  0
  147.3538  135.5612  151.9502 H   0  0  0  0  0  0  0  0  0  0  0  0
  147.7009  137.3012  152.7365 H   0  0  0  0  0  0  0  0  0  0  0  0
  145.4341  139.0289  153.6531 H   0  0  0  0  0  0  0  0  0  0  0  0
  148.2099  139.7362  152.5979 H   0  0  0  0  0  0  0  0  0  0  0  0
  146.6865  140.0501  151.8105 H   0  0  0  0  0  0  0  0  0  0  0  0
  147.5017  142.1083  152.9600 H   0  0  0  0  0  0  0  0  0  0  0  0
  145.9890  141.5764  153.6205 H   0  0  0  0  0  0  0  0  0  0  0  0
  149.5154  142.0647  154.4376 H   0  0  0  0  0  0  0  0  0  0  0  0
  149.1514  139.0534  154.6811 H   0  0  0  0  0  0  0  0  0  0  0  0
  149.7263  139.9390  153.2690 H   0  0  0  0  0  0  0  0  0  0  0  0
  151.4675  138.8303  155.0600 H   0  0  0  0  0  0  0  0  0  0  0  0
  151.8339  140.3492  154.2550 H   0  0  0  0  0  0  0  0  0  0  0  0
  151.3327  139.9769  157.1098 H   0  0  0  0  0  0  0  0  0  0  0  0
  151.8208  141.4318  156.2535 H   0  0  0  0  0  0  0  0  0  0  0  0
  149.6664  142.1696  156.8587 H   0  0  0  0  0  0  0  0  0  0  0  0
  149.0746  140.5186  157.0184 H   0  0  0  0  0  0  0  0  0  0  0  0
  147.3203  140.1207  156.7195 H   0  0  0  0  0  0  0  0  0  0  0  0
  145.8859  140.4200  155.7933 H   0  0  0  0  0  0  0  0  0  0  0  0
  146.5248  138.0395  155.6054 H   0  0  0  0  0  0  0  0  0  0  0  0
  148.1068  138.4666  155.0090 H   0  0  0  0  0  0  0  0  0  0  0  0
  147.3560  142.1023  155.3608 H   0  0  0  0  0  0  0  0  0  0  0  0
  1  2  1  0  0  0  0
  1 24  1  0  0  0  0
  1 25  1  0  0  0  0
  1 26  1  0  0  0  0
  2 22  1  0  0  0  0
  2  3  1  0  0  0  0
  3  4  2  0  0  0  0
  3 27  1  0  0  0  0
  4  5  1  0  0  0  0
  4 28  1  0  0  0  0
  5  6  2  0  0  0  0
  5 29  1  0  0  0  0
  6  7  1  0  0  0  0
  6 22  1  0  0  0  0
  7  8  1  0  0  0  0
  7 30  1  0  0  0  0
  8  9  2  0  0  0  0
  8 10  1  0  0  0  0
 10 11  1  0  0  0  0
 10 31  1  0  0  0  0
 11 21  1  0  0  0  0
 11 12  1  0  0  0  0
 11 32  1  0  0  0  0
 12 13  1  0  0  0  0
 12 33  1  0  0  0  0
 12 34  1  0  0  0  0
 13 14  1  0  0  0  0
 13 35  1  0  0  0  0
 13 36  1  0  0  0  0
 14 15  1  0  0  0  0
 14 20  1  0  0  0  0
 14 50  1  0  0  0  0
 15 19  1  0  0  0  0
 15 16  1  0  0  0  0
 15 37  1  0  0  0  0
 16 17  1  0  0  0  0
 16 38  1  0  0  0  0
 16 39  1  0  0  0  0
 17 18  1  0  0  0  0
 17 40  1  0  0  0  0
 17 41  1  0  0  0  0
 18 19  1  0  0  0  0
 18 42  1  0  0  0  0
 18 43  1  0  0  0  0
 19 44  1  0  0  0  0
 19 45  1  0  0  0  0
 20 21  1  0  0  0  0
 20 46  1  0  0  0  0
 20 47  1  0  0  0  0
 21 48  1  0  0  0  0
 21 49  1  0  0  0  0
 22 23  2  0  0  0  0
M  CHG  1  14   1
M  END
> <s_m_source_file>
AV-unprocessed.smi

> <i_m_source_file_index>
612

> <i_lp_mmshare_version>
43012

> <i_f3d_flags>
0

> <s_epik_input>
W0NIM11uMVtjSF1bY0hdW2NIXWMoYzE9TylbTkhdQyg9TylbTkhdW0NIXTJbQ0gyXVtDSDJdTihbQ0gyXVtDSDJdMilbQ0hdM1tDSDJdW0NIMl1bQ0gyXVtDSDJdMw==

> <s_epik_cmdline>
J2VwaWtfcHl0aG9uJywgJy1waCcsICc3LjAnLCAnLXRuJywgJzgnLCAnLW1hJywgJzIwMCcsICctbWV0YWxfYmluZGluZycsICctaW1hZScsICc8aW5maWxlLm1hZT4nLCAnLW9tYWUnLCAnPG91dGZpbGUubWFlPic=

> <r_lp_tautomer_probability>
1

> <r_epik_Ionization_Penalty>
0.00200366

> <r_epik_Ionization_Penalty_Charging>
0.00198522

> <r_epik_Ionization_Penalty_Neutral>
1.84356e-05

> <r_epik_State_Penalty>
0.00135242

> <r_epik_Charging_Adjusted_Penalty>
0.00333764

> <i_epik_Tot_Q>
1

> <i_epik_Tot_abs_Q>
1

> <r_epik_Metal_State_Penalty>
-0

> <b_epik_Metal_Only>
0

> <s_lp_Force_Field>
OPLS_2005

> <r_lp_Energy>
52.136

> <b_lp_Chiralities_Consistent>
1

> <s_lp_Variant>
AV-unprocessed.smi:612-2

> <Gold.Version>
5.8.1

> <Gold.Id.Protein>
6NUR|6NUR_protein|mol2

> <Gold.PLP.Fitness>
42.7478

> <Gold.PLP.PLP>
-38.8676

> <Gold.PLP.part.hbond>
-2.0000

> <Gold.PLP.part.metal>
0.0000

> <Gold.PLP.part.buried>
-1.8860

> <Gold.PLP.part.nonpolar>
-34.4386

> <Gold.PLP.part.repulsive>
0.4390

> <Gold.PLP.ligand.clash>
1.2165

> <Gold.PLP.ligand.torsion>
0.4939

> <Gold.PLP.Chemscore.Hbond>
2.0000

> <Gold.PLP.Chemscore.CHOScore>
0.0000

> <Gold.PLP.Chemscore.Metal>
0.0000

> <Gold.Chemscore.Hbonds>
donor molecule, donor type, donor heavy atom, donor atom, acceptor molecule, acceptor atom, score
      L1  H     7    30       P1  7948  1.00
      L1  H    10    31       P1  7948  0.99

> <Gold.PLP.Chemscore.Internal.Correction>
0.0844

> <Gold.Rescore>
     Score         DG    S(hbond)    S(metal)    S(lipo)     H(rot)  DE(clash)    DE(int)     intcor
     17.30     -20.10       1.98        0.00      94.87       1.21       0.29       2.51       ----

> <Gold.Chemscore.Fitness>
17.2978

> <Gold.Chemscore.DG>
-20.0992

> <Gold.Chemscore.ZeroCoef>
-5.4800

> <Gold.Chemscore.Hbond>
1.9778

> <Gold.Chemscore.Metal>
0.0000

> <Gold.Chemscore.Lipo>
94.8692

> <Gold.Chemscore.Internal_Hbond>
0.0000

> <Gold.Chemscore.DEClash>
0.2885

> <Gold.Chemscore.DEInternal>
2.5129

> <Gold.Chemscore.Rot>
1.2056

> <Gold.Chemscore.Internal.Correction>
   9.000000E+99

> <Gold.Chemscore.Hbonds>
donor molecule, donor type, donor heavy atom, donor atom, acceptor molecule, acceptor atom, score
      L1  H     7    30       P1  7948  0.99
      L1  H    10    31       P1  7948  0.94

> <Gold.Chemscore.Hbond.Weighted>
-6.6058

> <Gold.Chemscore.Metal.Weighted>
-0.0000

> <Gold.Chemscore.Lipo.Weighted>
-11.0997

> <Gold.Chemscore.Internal_Hbond.Weighted>
0.0000

> <Gold.Chemscore.DEClash.Weighted>
0.2885

> <Gold.Chemscore.DEInternal.Weighted>
2.5129

> <Gold.Chemscore.Rot.Weighted>
3.0862

> <Gold.Chemscore.Internal.Correction.Weighted>
   9.000000E+99

> <Gold.Protein.RotatedTorsions>
[ 6907 6896 6895 6894 ] final  124.64 input  -60.11 | X-H torsion
[ 7974 7965 7964 7962 ] final -115.06 input  175.53 | X-H torsion
[ 8008 7997 7996 7995 ] final   80.71 input   59.86 | X-H torsion
[ 10167 10162 10161 10158 ] final -166.74 input  -65.29 | X-H torsion
[ 10718 10713 10712 10709 ] final -129.83 input   66.30 | X-H torsion
[ 10763 10752 10751 10750 ] final  -47.51 input  -60.55 | X-H torsion
[ 11005 11000 10999 10996 ] final -169.95 input  -57.11 | X-H torsion

> <Gold.Protein.ActiveResidues>
 VAL166  LYS551  ARG553  GLY616  TRP617  ASP618  TYR619  PRO620  LYS621  CYS622 
 ASP623  PHE694  ASN695  SER759  ASP760  ASP761  ALA762  ILE779  LEU786  VAL792 
 PHE793  MET794  SER795  GLU796  ALA797  LYS798  CYS799  TRP800  GLU811  SER814 

> <Gold.Protein.RotatedAtoms>
  152.4060  133.6890  159.6356 H   0  0  0  0  0  0  0  0  0  0  0  0  # atno 6907 bound_to 6896
  150.7945  133.8707  159.3266 H   0  0  0  0  0  0  0  0  0  0  0  0  # atno 6908 bound_to 6896
  151.6461  135.1009  160.0203 H   0  0  0  0  0  0  0  0  0  0  0  0  # atno 6909 bound_to 6896
  145.1129  140.8622  143.3859 H   0  0  0  0  0  0  0  0  0  0  0  0  # atno 7974 bound_to 7965
  155.8873  140.3441  155.5930 H   0  0  0  0  0  0  0  0  0  0  0  0  # atno 8008 bound_to 7997
  155.7652  140.0838  157.2155 H   0  0  0  0  0  0  0  0  0  0  0  0  # atno 8009 bound_to 7997
  154.4030  140.1528  156.2865 H   0  0  0  0  0  0  0  0  0  0  0  0  # atno 8010 bound_to 7997
  139.6095  144.0844  152.1827 H   0  0  0  0  0  0  0  0  0  0  0  0  # atno 10167 bound_to 10162
  156.2085  130.6903  151.0622 H   0  0  0  0  0  0  0  0  0  0  0  0  # atno 10718 bound_to 10713
  154.0627  135.6616  153.4814 H   0  0  0  0  0  0  0  0  0  0  0  0  # atno 10763 bound_to 10752
  153.0421  135.5138  154.7644 H   0  0  0  0  0  0  0  0  0  0  0  0  # atno 10764 bound_to 10752
  154.6685  135.3026  154.9740 H   0  0  0  0  0  0  0  0  0  0  0  0  # atno 10765 bound_to 10752
  140.5250  134.5672  157.5059 H   0  0  0  0  0  0  0  0  0  0  0  0  # atno 11005 bound_to 11000
  145.0827  139.2948  143.5775 LP  0  0  0  0  0  0  0  0  0  0  0  0  # atno 17320 bound_to 7965
  146.3525  140.0338  142.8648 LP  0  0  0  0  0  0  0  0  0  0  0  0  # atno 17321 bound_to 7965
  140.0459  144.5970  150.7374 LP  0  0  0  0  0  0  0  0  0  0  0  0  # atno 17342 bound_to 10162
  140.7309  143.2688  151.3956 LP  0  0  0  0  0  0  0  0  0  0  0  0  # atno 17343 bound_to 10162
  157.7025  131.0770  150.6773 LP  0  0  0  0  0  0  0  0  0  0  0  0  # atno 17370 bound_to 10713
  156.6832  130.4573  149.5621 LP  0  0  0  0  0  0  0  0  0  0  0  0  # atno 17371 bound_to 10713
  139.9585  134.7493  156.0289 LP  0  0  0  0  0  0  0  0  0  0  0  0  # atno 17394 bound_to 11000
  141.1313  133.6586  156.3472 LP  0  0  0  0  0  0  0  0  0  0  0  0  # atno 17395 bound_to 11000

$$$$
