AV-unprocessed.smi:2591|AV-procd|sdf|10156|dock6
  -GOLD-   2272014163D 1   1.00000     0.00000
 Structure written by MMmdl.
 35 36  0  0  0  0  0  0  0  0  2 V2000
  147.3968  141.1972  153.4401 C   0  0  0  0  0  0  0  0  0  0  0  0
  148.4576  140.1887  153.6489 N   0  3  2  0  0  0  0  0  0  0  0  0
  147.9190  138.8594  154.0143 C   0  0  0  0  0  0  0  0  0  0  0  0
  149.0648  137.8472  154.1715 C   0  0  0  0  0  0  0  0  0  0  0  0
  149.9896  138.3196  155.1436 O   0  0  0  0  0  0  0  0  0  0  0  0
  150.5873  139.5603  154.7738 C   0  0  2  0  0  0  0  0  0  0  0  0
  151.6378  139.9207  155.8337 C   0  0  0  0  0  0  0  0  0  0  0  0
  152.7915  139.5015  155.7313 O   0  0  0  0  0  0  0  0  0  0  0  0
  151.1936  140.6858  156.8492 N   0  0  0  0  0  0  0  0  0  0  0  0
  151.9212  141.1792  157.9646 C   0  0  0  0  0  0  0  0  0  0  0  0
  151.5056  142.4438  158.4375 C   0  0  0  0  0  0  0  0  0  0  0  0
  152.1626  143.0282  159.5422 C   0  0  0  0  0  0  0  0  0  0  0  0
  151.7273  144.3810  160.0843 C   0  0  0  0  0  0  0  0  0  0  0  0
  150.3974  144.4700  160.1246 F   0  0  0  0  0  0  0  0  0  0  0  0
  152.1973  144.5728  161.3174 F   0  0  0  0  0  0  0  0  0  0  0  0
  152.1987  145.3422  159.2911 F   0  0  0  0  0  0  0  0  0  0  0  0
  153.2191  142.3154  160.1441 C   0  0  0  0  0  0  0  0  0  0  0  0
  153.5707  141.0629  159.6093 C   0  0  0  0  0  0  0  0  0  0  0  0
  152.9434  140.5091  158.5512 N   0  0  0  0  0  0  0  0  0  0  0  0
  149.4797  140.6301  154.6252 C   0  0  0  0  0  0  0  0  0  0  0  0
  146.8419  141.3793  154.3614 H   0  0  0  0  0  0  0  0  0  0  0  0
  146.6933  140.8634  152.6768 H   0  0  0  0  0  0  0  0  0  0  0  0
  147.8261  142.1427  153.1069 H   0  0  0  0  0  0  0  0  0  0  0  0
  147.3565  138.9346  154.9463 H   0  0  0  0  0  0  0  0  0  0  0  0
  147.2242  138.5179  153.2459 H   0  0  0  0  0  0  0  0  0  0  0  0
  148.6728  136.8837  154.4974 H   0  0  0  0  0  0  0  0  0  0  0  0
  149.5720  137.6795  153.2201 H   0  0  0  0  0  0  0  0  0  0  0  0
  151.1090  139.4380  153.8225 H   0  0  0  0  0  0  0  0  0  0  0  0
  150.2190  140.9466  156.8182 H   0  0  0  0  0  0  0  0  0  0  0  0
  150.6855  142.9608  157.9604 H   0  0  0  0  0  0  0  0  0  0  0  0
  153.7487  142.7134  160.9970 H   0  0  0  0  0  0  0  0  0  0  0  0
  154.3757  140.4886  160.0434 H   0  0  0  0  0  0  0  0  0  0  0  0
  149.9114  141.5744  154.2897 H   0  0  0  0  0  0  0  0  0  0  0  0
  148.9989  140.8188  155.5873 H   0  0  0  0  0  0  0  0  0  0  0  0
  148.9299  140.0773  152.7629 H   0  0  0  0  0  0  0  0  0  0  0  0
  1  2  1  0  0  0  0
  1 21  1  0  0  0  0
  1 22  1  0  0  0  0
  1 23  1  0  0  0  0
  2 20  1  0  0  0  0
  2  3  1  0  0  0  0
  2 35  1  0  0  0  0
  3  4  1  0  0  0  0
  3 24  1  0  0  0  0
  3 25  1  0  0  0  0
  4  5  1  0  0  0  0
  4 26  1  0  0  0  0
  4 27  1  0  0  0  0
  5  6  1  0  0  0  0
  6  7  1  0  0  0  0
  6 20  1  0  0  0  0
  6 28  1  0  0  0  0
  7  8  2  0  0  0  0
  7  9  1  0  0  0  0
  9 10  1  0  0  0  0
  9 29  1  0  0  0  0
 10 19  1  0  0  0  0
 10 11  2  0  0  0  0
 11 12  1  0  0  0  0
 11 30  1  0  0  0  0
 12 13  1  0  0  0  0
 12 17  2  0  0  0  0
 13 14  1  0  0  0  0
 13 15  1  0  0  0  0
 13 16  1  0  0  0  0
 17 18  1  0  0  0  0
 17 31  1  0  0  0  0
 18 19  2  0  0  0  0
 18 32  1  0  0  0  0
 20 33  1  0  0  0  0
 20 34  1  0  0  0  0
M  CHG  1   2   1
M  END
> <s_m_source_file>
AV-unprocessed.smi

> <i_m_source_file_index>
2591

> <i_lp_mmshare_version>
43012

> <i_f3d_flags>
0

> <s_epik_input>
W0NIM11OMVtDSDJdW0NIMl1PW0NASF0oW0NIMl0xKUMoPU8pW05IXWMyW2NIXWMoQyhGKShGKUYpW2NIXVtjSF1uMg==

> <s_epik_cmdline>
J2VwaWtfcHl0aG9uJywgJy1waCcsICc3LjAnLCAnLXRuJywgJzgnLCAnLW1hJywgJzIwMCcsICctbWV0YWxfYmluZGluZycsICctaW1hZScsICc8aW5maWxlLm1hZT4nLCAnLW9tYWUnLCAnPG91dGZpbGUubWFlPic=

> <r_epik_Ionization_Penalty>
0.314028

> <r_epik_Ionization_Penalty_Charging>
0.314023

> <r_epik_Ionization_Penalty_Neutral>
5.2303e-06

> <r_epik_State_Penalty>
0.308208

> <r_epik_Charging_Adjusted_Penalty>
0.62223

> <i_epik_Tot_Q>
1

> <i_epik_Tot_abs_Q>
1

> <r_epik_Metal_State_Penalty>
0.308209

> <b_epik_Metal_Only>
0

> <s_lp_Force_Field>
OPLS_2005

> <r_lp_Energy>
17.9232

> <b_lp_Chiralities_Consistent>
1

> <s_lp_Variant>
AV-unprocessed.smi:2591-4

> <Gold.Version>
5.8.1

> <Gold.Id.Protein>
6NUR|6NUR_protein|mol2

> <Gold.PLP.Fitness>
45.5333

> <Gold.PLP.PLP>
-42.1548

> <Gold.PLP.part.hbond>
-2.6741

> <Gold.PLP.part.metal>
0.0000

> <Gold.PLP.part.buried>
-2.2307

> <Gold.PLP.part.nonpolar>
-36.8306

> <Gold.PLP.part.repulsive>
0.3154

> <Gold.PLP.ligand.clash>
0.3031

> <Gold.PLP.ligand.torsion>
1.6635

> <Gold.PLP.Chemscore.Hbond>
2.0000

> <Gold.PLP.Chemscore.CHOScore>
0.0000

> <Gold.PLP.Chemscore.Metal>
0.0000

> <Gold.Chemscore.Hbonds>
donor molecule, donor type, donor heavy atom, donor atom, acceptor molecule, acceptor atom, score
      L1  H     2    35       P1  7957  1.00
      P1  H  7997  8010       L1     8  1.00

> <Gold.PLP.Chemscore.Internal.Correction>
1.0088

> <Gold.Rescore>
     Score         DG    S(hbond)    S(metal)    S(lipo)     H(rot)  DE(clash)    DE(int)     intcor
     16.88     -19.40       1.99        0.00      84.02       1.00       0.29       2.24       ----

> <Gold.Chemscore.Fitness>
16.8778

> <Gold.Chemscore.DG>
-19.4012

> <Gold.Chemscore.ZeroCoef>
-5.4800

> <Gold.Chemscore.Hbond>
1.9913

> <Gold.Chemscore.Metal>
0.0000

> <Gold.Chemscore.Lipo>
84.0201

> <Gold.Chemscore.Internal_Hbond>
0.0000

> <Gold.Chemscore.DEClash>
0.2852

> <Gold.Chemscore.DEInternal>
2.2382

> <Gold.Chemscore.Rot>
1.0000

> <Gold.Chemscore.Internal.Correction>
   9.000000E+99

> <Gold.Chemscore.Hbonds>
donor molecule, donor type, donor heavy atom, donor atom, acceptor molecule, acceptor atom, score
      L1  H     2    35       P1  7957  1.00
      P1  H  7997  8010       L1     8  1.00

> <Gold.Chemscore.Hbond.Weighted>
-6.6509

> <Gold.Chemscore.Metal.Weighted>
-0.0000

> <Gold.Chemscore.Lipo.Weighted>
-9.8304

> <Gold.Chemscore.Internal_Hbond.Weighted>
0.0000

> <Gold.Chemscore.DEClash.Weighted>
0.2852

> <Gold.Chemscore.DEInternal.Weighted>
2.2382

> <Gold.Chemscore.Rot.Weighted>
2.5600

> <Gold.Chemscore.Internal.Correction.Weighted>
   9.000000E+99

> <Gold.Protein.RotatedTorsions>
[ 6907 6896 6895 6894 ] final  -33.87 input  -60.11 | X-H torsion
[ 7974 7965 7964 7962 ] final   95.95 input  175.53 | X-H torsion
[ 8008 7997 7996 7995 ] final   83.56 input   59.86 | X-H torsion
[ 10167 10162 10161 10158 ] final   83.35 input  -65.29 | X-H torsion
[ 10718 10713 10712 10709 ] final -107.30 input   66.30 | X-H torsion
[ 10763 10752 10751 10750 ] final -107.49 input  -60.55 | X-H torsion
[ 11005 11000 10999 10996 ] final   19.31 input  -57.11 | X-H torsion

> <Gold.Protein.ActiveResidues>
 VAL166  LYS551  ARG553  GLY616  TRP617  ASP618  TYR619  PRO620  LYS621  CYS622 
 ASP623  PHE694  ASN695  SER759  ASP760  ASP761  ALA762  ILE779  LEU786  VAL792 
 PHE793  MET794  SER795  GLU796  ALA797  LYS798  CYS799  TRP800  GLU811  SER814 

> <Gold.Protein.RotatedAtoms>
  151.0600  134.9730  159.8255 H   0  0  0  0  0  0  0  0  0  0  0  0  # atno 6907 bound_to 6896
  152.5394  134.2430  159.8879 H   0  0  0  0  0  0  0  0  0  0  0  0  # atno 6908 bound_to 6896
  151.2449  133.4337  159.2642 H   0  0  0  0  0  0  0  0  0  0  0  0  # atno 6909 bound_to 6896
  145.4454  139.2297  143.3069 H   0  0  0  0  0  0  0  0  0  0  0  0  # atno 7974 bound_to 7965
  155.9256  140.3418  155.6207 H   0  0  0  0  0  0  0  0  0  0  0  0  # atno 8008 bound_to 7997
  155.7220  140.0785  157.2345 H   0  0  0  0  0  0  0  0  0  0  0  0  # atno 8009 bound_to 7997
  154.4076  140.1603  156.2400 H   0  0  0  0  0  0  0  0  0  0  0  0  # atno 8010 bound_to 7997
  139.9193  144.6223  150.8456 H   0  0  0  0  0  0  0  0  0  0  0  0  # atno 10167 bound_to 10162
  156.0430  130.5656  150.7802 H   0  0  0  0  0  0  0  0  0  0  0  0  # atno 10718 bound_to 10713
  154.8078  135.4673  154.0437 H   0  0  0  0  0  0  0  0  0  0  0  0  # atno 10763 bound_to 10752
  153.1892  135.6852  153.8381 H   0  0  0  0  0  0  0  0  0  0  0  0  # atno 10764 bound_to 10752
  153.7905  135.3244  155.3355 H   0  0  0  0  0  0  0  0  0  0  0  0  # atno 10765 bound_to 10752
  140.4151  134.1577  155.7669 H   0  0  0  0  0  0  0  0  0  0  0  0  # atno 11005 bound_to 11000
  146.2534  140.5207  142.8884 LP  0  0  0  0  0  0  0  0  0  0  0  0  # atno 17320 bound_to 7965
  144.8095  140.6360  143.6424 LP  0  0  0  0  0  0  0  0  0  0  0  0  # atno 17321 bound_to 7965
  140.7666  143.3308  151.2413 LP  0  0  0  0  0  0  0  0  0  0  0  0  # atno 17342 bound_to 10162
  139.6875  143.9748  152.2842 LP  0  0  0  0  0  0  0  0  0  0  0  0  # atno 17343 bound_to 10162
  157.5272  131.0934  151.0003 LP  0  0  0  0  0  0  0  0  0  0  0  0  # atno 17370 bound_to 10713
  157.0318  130.5714  149.5344 LP  0  0  0  0  0  0  0  0  0  0  0  0  # atno 17371 bound_to 10713
  141.1806  133.8422  157.1271 LP  0  0  0  0  0  0  0  0  0  0  0  0  # atno 17394 bound_to 11000
  140.0240  134.9933  157.0648 LP  0  0  0  0  0  0  0  0  0  0  0  0  # atno 17395 bound_to 11000

$$$$
