AV-unprocessed.smi:1599|AV-procd|sdf|6426|dock8
  -GOLD-   22720 7 73D 1   1.00000     0.00000
 Structure written by MMmdl.
 39 40  0  0  0  0  0  0  0  0  1 V2000
  145.2396  131.9604  149.8311 C   0  0  0  0  0  0  0  0  0  0  0  0
  145.4639  132.0387  151.3512 C   0  0  1  0  0  0  0  0  0  0  0  0
  146.7953  131.5338  151.6768 N   0  0  0  0  0  0  0  0  0  0  0  0
  147.2752  131.3565  152.9160 C   0  0  0  0  0  0  0  0  0  0  0  0
  146.6262  131.5830  153.9375 O   0  0  0  0  0  0  0  0  0  0  0  0
  148.5397  130.9044  152.8897 N   0  0  0  0  0  0  0  0  0  0  0  0
  149.3722  130.6149  154.0003 C   0  0  0  0  0  0  0  0  0  0  0  0
  150.2935  129.5374  154.0631 C   0  0  0  0  0  0  0  0  0  0  0  0
  150.9325  129.5200  155.2230 N   0  0  0  0  0  0  0  0  0  0  0  0
  150.4338  130.5745  155.9159 N   0  0  0  0  0  0  0  0  0  0  0  0
  150.9254  130.8543  157.2557 C   0  0  0  0  0  0  0  0  0  0  0  0
  152.4080  131.2490  157.2791 C   0  0  0  0  0  0  0  0  0  0  0  0
  153.2580  130.3941  156.7049 N   0  0  0  0  0  0  0  0  0  0  0  0
  152.7907  132.2957  157.8005 O   0  0  0  0  0  0  0  0  0  0  0  0
  149.4788  131.2664  155.1964 C   0  0  0  0  0  0  0  0  0  0  0  0
  145.3242  133.4750  151.8902 C   0  0  1  0  0  0  0  0  0  0  0  0
  146.2174  134.5087  151.2018 C   0  0  0  0  0  0  0  0  0  0  0  0
  145.4663  135.8186  151.3884 C   0  0  0  0  0  0  0  0  0  0  0  0
  144.0666  135.3879  151.8344 C   0  0  0  0  0  0  0  0  0  0  0  0
  144.0268  133.9847  151.6211 O   0  0  0  0  0  0  0  0  0  0  0  0
  144.2368  132.2906  149.5603 H   0  0  0  0  0  0  0  0  0  0  0  0
  145.3512  130.9383  149.4676 H   0  0  0  0  0  0  0  0  0  0  0  0
  145.9529  132.5846  149.2919 H   0  0  0  0  0  0  0  0  0  0  0  0
  144.7153  131.4170  151.8458 H   0  0  0  0  0  0  0  0  0  0  0  0
  147.4022  131.3250  150.8977 H   0  0  0  0  0  0  0  0  0  0  0  0
  148.9518  130.7572  151.9800 H   0  0  0  0  0  0  0  0  0  0  0  0
  150.5167  128.7842  153.3219 H   0  0  0  0  0  0  0  0  0  0  0  0
  150.3301  131.6539  157.6992 H   0  0  0  0  0  0  0  0  0  0  0  0
  150.7758  129.9644  157.8684 H   0  0  0  0  0  0  0  0  0  0  0  0
  154.2465  130.5992  156.6870 H   0  0  0  0  0  0  0  0  0  0  0  0
  152.9074  129.5438  156.2880 H   0  0  0  0  0  0  0  0  0  0  0  0
  148.9784  132.1352  155.5974 H   0  0  0  0  0  0  0  0  0  0  0  0
  145.4942  133.4974  152.9687 H   0  0  0  0  0  0  0  0  0  0  0  0
  147.2248  134.5372  151.6180 H   0  0  0  0  0  0  0  0  0  0  0  0
  146.3006  134.2869  150.1371 H   0  0  0  0  0  0  0  0  0  0  0  0
  145.9353  136.4469  152.1463 H   0  0  0  0  0  0  0  0  0  0  0  0
  145.4354  136.3830  150.4558 H   0  0  0  0  0  0  0  0  0  0  0  0
  143.9218  135.5932  152.8960 H   0  0  0  0  0  0  0  0  0  0  0  0
  143.2757  135.8923  151.2791 H   0  0  0  0  0  0  0  0  0  0  0  0
  1  2  1  0  0  0  0
  1 21  1  0  0  0  0
  1 22  1  0  0  0  0
  1 23  1  0  0  0  0
  2  3  1  0  0  0  0
  2 16  1  0  0  0  0
  2 24  1  0  0  0  0
  3  4  1  0  0  0  0
  3 25  1  0  0  0  0
  4  5  2  0  0  0  0
  4  6  1  0  0  0  0
  6  7  1  0  0  0  0
  6 26  1  0  0  0  0
  7 15  2  0  0  0  0
  7  8  1  0  0  0  0
  8  9  2  0  0  0  0
  8 27  1  0  0  0  0
  9 10  1  0  0  0  0
 10 11  1  0  0  0  0
 10 15  1  0  0  0  0
 11 12  1  0  0  0  0
 11 28  1  0  0  0  0
 11 29  1  0  0  0  0
 12 13  1  0  0  0  0
 12 14  2  0  0  0  0
 13 30  1  0  0  0  0
 13 31  1  0  0  0  0
 15 32  1  0  0  0  0
 16 20  1  0  0  0  0
 16 17  1  0  0  0  0
 16 33  1  0  0  0  0
 17 18  1  0  0  0  0
 17 34  1  0  0  0  0
 17 35  1  0  0  0  0
 18 19  1  0  0  0  0
 18 36  1  0  0  0  0
 18 37  1  0  0  0  0
 19 20  1  0  0  0  0
 19 38  1  0  0  0  0
 19 39  1  0  0  0  0
M  END
> <s_m_source_file>
AV-unprocessed.smi

> <i_m_source_file_index>
1599

> <i_lp_mmshare_version>
43012

> <i_f3d_flags>
0

> <s_epik_input>
TzFbQ0gyXVtDSDJdW0NIMl1bQ0BIXTFbQ0BIXShbQ0gzXSlbTkhdQyg9TylbTkhdYzJbY0hdbm4oW2NIXTIpW0NIMl1DKD1PKVtOSDJd

> <s_epik_cmdline>
J2VwaWtfcHl0aG9uJywgJy1waCcsICc3LjAnLCAnLXRuJywgJzgnLCAnLW1hJywgJzIwMCcsICctbWV0YWxfYmluZGluZycsICctaW1hZScsICc8aW5maWxlLm1hZT4nLCAnLW9tYWUnLCAnPG91dGZpbGUubWFlPic=

> <r_lp_tautomer_probability>
1

> <r_epik_Ionization_Penalty>
4.15391e-05

> <r_epik_Ionization_Penalty_Charging>
0

> <r_epik_Ionization_Penalty_Neutral>
4.15391e-05

> <r_epik_State_Penalty>
-0

> <r_epik_Charging_Adjusted_Penalty>
0

> <i_epik_Tot_Q>
0

> <i_epik_Tot_abs_Q>
0

> <r_epik_Metal_State_Penalty>
-0

> <b_epik_Metal_Only>
0

> <s_lp_Force_Field>
OPLS_2005

> <r_lp_Energy>
23.4533

> <b_lp_Chiralities_Consistent>
1

> <s_lp_Variant>
AV-unprocessed.smi:1599-4

> <Gold.Version>
5.8.1

> <Gold.Id.Protein>
6NUR|6NUR_protein|mol2

> <Gold.PLP.Fitness>
41.3128

> <Gold.PLP.PLP>
-30.0295

> <Gold.PLP.part.hbond>
-3.0000

> <Gold.PLP.part.metal>
0.0000

> <Gold.PLP.part.buried>
-5.0700

> <Gold.PLP.part.nonpolar>
-22.0503

> <Gold.PLP.part.repulsive>
0.3431

> <Gold.PLP.ligand.clash>
0.0000

> <Gold.PLP.ligand.torsion>
0.3672

> <Gold.PLP.Chemscore.Hbond>
2.9920

> <Gold.PLP.Chemscore.CHOScore>
1.0000

> <Gold.PLP.Chemscore.Metal>
0.0000

> <Gold.Chemscore.Hbonds>
donor molecule, donor type, donor heavy atom, donor atom, acceptor molecule, acceptor atom, score
      L1  H     3    25       P1 10747  1.00
      L1  H     6    26       P1 10747  1.00
      P1  H  6896  6909       L1    14  0.96
      L1  C     8    27       P1 10737  1.00

> <Gold.PLP.Chemscore.Internal.Correction>
0.0417

> <Gold.Rescore>
     Score         DG    S(hbond)    S(metal)    S(lipo)     H(rot)  DE(clash)    DE(int)     intcor
     15.47     -15.94       2.76        0.00      60.61       2.28       0.05       0.41       ----

> <Gold.Chemscore.Fitness>
15.4748

> <Gold.Chemscore.DG>
-15.9378

> <Gold.Chemscore.ZeroCoef>
-5.4800

> <Gold.Chemscore.Hbond>
2.7573

> <Gold.Chemscore.Metal>
0.0000

> <Gold.Chemscore.Lipo>
60.6082

> <Gold.Chemscore.Internal_Hbond>
0.0000

> <Gold.Chemscore.DEClash>
0.0544

> <Gold.Chemscore.DEInternal>
0.4086

> <Gold.Chemscore.Rot>
2.2823

> <Gold.Chemscore.Internal.Correction>
   9.000000E+99

> <Gold.Chemscore.Hbonds>
donor molecule, donor type, donor heavy atom, donor atom, acceptor molecule, acceptor atom, score
      L1  H     3    25       P1 10747  0.95
      L1  H     6    26       P1 10747  0.39
      P1  H  6896  6909       L1    14  0.91

> <Gold.Chemscore.Hbond.Weighted>
-9.2093

> <Gold.Chemscore.Metal.Weighted>
-0.0000

> <Gold.Chemscore.Lipo.Weighted>
-7.0912

> <Gold.Chemscore.Internal_Hbond.Weighted>
0.0000

> <Gold.Chemscore.DEClash.Weighted>
0.0544

> <Gold.Chemscore.DEInternal.Weighted>
0.4086

> <Gold.Chemscore.Rot.Weighted>
5.8427

> <Gold.Chemscore.Internal.Correction.Weighted>
   9.000000E+99

> <Gold.Protein.RotatedTorsions>
[ 6907 6896 6895 6894 ] final  -86.04 input  -60.11 | X-H torsion
[ 7974 7965 7964 7962 ] final   61.73 input  175.53 | X-H torsion
[ 8008 7997 7996 7995 ] final  104.75 input   59.86 | X-H torsion
[ 10167 10162 10161 10158 ] final  160.19 input  -65.29 | X-H torsion
[ 10718 10713 10712 10709 ] final  -62.37 input   66.30 | X-H torsion
[ 10763 10752 10751 10750 ] final    8.84 input  -60.55 | X-H torsion
[ 11005 11000 10999 10996 ] final  -83.48 input  -57.11 | X-H torsion

> <Gold.Protein.ActiveResidues>
 VAL166  LYS551  ARG553  GLY616  TRP617  ASP618  TYR619  PRO620  LYS621  CYS622 
 ASP623  PHE694  ASN695  SER759  ASP760  ASP761  ALA762  ILE779  LEU786  VAL792 
 PHE793  MET794  SER795  GLU796  ALA797  LYS798  CYS799  TRP800  GLU811  SER814 

> <Gold.Protein.RotatedAtoms>
  150.6868  134.3111  159.4746 H   0  0  0  0  0  0  0  0  0  0  0  0  # atno 6907 bound_to 6896
  152.0997  134.9348  160.0579 H   0  0  0  0  0  0  0  0  0  0  0  0  # atno 6908 bound_to 6896
  152.0632  133.4037  159.4463 H   0  0  0  0  0  0  0  0  0  0  0  0  # atno 6909 bound_to 6896
  145.8814  139.3446  143.0704 H   0  0  0  0  0  0  0  0  0  0  0  0  # atno 7974 bound_to 7965
  156.1600  140.3142  155.8791 H   0  0  0  0  0  0  0  0  0  0  0  0  # atno 8008 bound_to 7997
  155.3801  140.0487  157.3061 H   0  0  0  0  0  0  0  0  0  0  0  0  # atno 8009 bound_to 7997
  154.5137  140.2174  155.9117 H   0  0  0  0  0  0  0  0  0  0  0  0  # atno 8010 bound_to 7997
  139.4838  144.4658  151.8644 H   0  0  0  0  0  0  0  0  0  0  0  0  # atno 10167 bound_to 10162
  156.0859  130.4208  150.1126 H   0  0  0  0  0  0  0  0  0  0  0  0  # atno 10718 bound_to 10713
  153.2206  135.6880  153.8005 H   0  0  0  0  0  0  0  0  0  0  0  0  # atno 10763 bound_to 10752
  153.7205  135.3268  155.3266 H   0  0  0  0  0  0  0  0  0  0  0  0  # atno 10764 bound_to 10752
  154.8267  135.4612  154.1051 H   0  0  0  0  0  0  0  0  0  0  0  0  # atno 10765 bound_to 10752
  141.1657  133.7296  156.8726 H   0  0  0  0  0  0  0  0  0  0  0  0  # atno 11005 bound_to 11000
  145.9019  140.9237  143.0498 LP  0  0  0  0  0  0  0  0  0  0  0  0  # atno 17320 bound_to 7965
  144.6727  140.1044  143.7459 LP  0  0  0  0  0  0  0  0  0  0  0  0  # atno 17321 bound_to 7965
  140.4123  144.2353  150.5888 LP  0  0  0  0  0  0  0  0  0  0  0  0  # atno 17342 bound_to 10162
  140.4954  143.2334  151.8757 LP  0  0  0  0  0  0  0  0  0  0  0  0  # atno 17343 bound_to 10162
  156.9147  130.9663  151.3558 LP  0  0  0  0  0  0  0  0  0  0  0  0  # atno 17370 bound_to 10713
  157.5994  130.8501  149.8778 LP  0  0  0  0  0  0  0  0  0  0  0  0  # atno 17371 bound_to 10713
  140.1771  134.9059  157.2904 LP  0  0  0  0  0  0  0  0  0  0  0  0  # atno 17394 bound_to 11000
  140.2436  134.3766  155.7470 LP  0  0  0  0  0  0  0  0  0  0  0  0  # atno 17395 bound_to 11000

$$$$
