AV-unprocessed.smi:2931|AV-procd|sdf|11248|dock10
  -GOLD-   2272016143D 1   1.00000     0.00000
 Structure written by MMmdl.
 43 44  0  0  0  0  0  0  0  0  3 V2000
  148.2882  139.4547  153.8456 C   0  0  0  0  0  0  0  0  0  0  0  0
  149.1059  138.2328  154.0014 N   0  3  1  0  0  0  0  0  0  0  0  0
  150.5599  138.5278  154.0475 C   0  0  0  0  0  0  0  0  0  0  0  0
  151.3854  137.2303  154.0725 C   0  0  0  0  0  0  0  0  0  0  0  0
  150.9567  136.3197  155.2354 C   0  0  0  0  0  0  0  0  0  0  0  0
  149.4386  136.0648  155.2090 C   0  0  2  0  0  0  0  0  0  0  0  0
  149.0972  135.1985  154.0803 N   0  0  0  0  0  0  0  0  0  0  0  0
  148.5142  133.9959  154.1810 C   0  0  0  0  0  0  0  0  0  0  0  0
  148.1491  133.4951  155.2439 O   0  0  0  0  0  0  0  0  0  0  0  0
  148.3769  133.4056  152.9858 N   0  0  0  0  0  0  0  0  0  0  0  0
  147.8280  132.0694  152.7692 C   0  0  0  0  0  0  0  0  0  0  0  0
  146.4425  131.8635  153.4145 C   0  0  0  0  0  0  0  0  0  0  0  0
  145.2954  132.4275  152.5936 C   0  0  0  0  0  0  0  0  0  0  0  0
  144.6627  131.6398  151.6058 C   0  0  0  0  0  0  0  0  0  0  0  0
  143.6037  132.1943  150.8583 C   0  0  0  0  0  0  0  0  0  0  0  0
  143.2056  133.4636  151.0947 N   0  3  0  0  0  0  0  0  0  0  0  0
  143.7823  134.2495  152.0301 C   0  0  0  0  0  0  0  0  0  0  0  0
  144.8475  133.7499  152.8067 C   0  0  0  0  0  0  0  0  0  0  0  0
  148.6745  137.4066  155.1572 C   0  0  0  0  0  0  0  0  0  0  0  0
  148.4031  140.1148  154.7063 H   0  0  0  0  0  0  0  0  0  0  0  0
  147.2322  139.2014  153.7464 H   0  0  0  0  0  0  0  0  0  0  0  0
  148.5835  140.0038  152.9511 H   0  0  0  0  0  0  0  0  0  0  0  0
  150.8424  139.1219  153.1774 H   0  0  0  0  0  0  0  0  0  0  0  0
  150.7822  139.1318  154.9289 H   0  0  0  0  0  0  0  0  0  0  0  0
  151.2660  136.7032  153.1252 H   0  0  0  0  0  0  0  0  0  0  0  0
  152.4463  137.4668  154.1590 H   0  0  0  0  0  0  0  0  0  0  0  0
  151.5056  135.3776  155.2017 H   0  0  0  0  0  0  0  0  0  0  0  0
  151.2251  136.7951  156.1798 H   0  0  0  0  0  0  0  0  0  0  0  0
  149.1681  135.5417  156.1282 H   0  0  0  0  0  0  0  0  0  0  0  0
  149.3689  135.5187  153.1621 H   0  0  0  0  0  0  0  0  0  0  0  0
  148.7125  133.8963  152.1696 H   0  0  0  0  0  0  0  0  0  0  0  0
  147.7514  131.9223  151.6916 H   0  0  0  0  0  0  0  0  0  0  0  0
  148.5287  131.3152  153.1305 H   0  0  0  0  0  0  0  0  0  0  0  0
  146.2681  130.7984  153.5708 H   0  0  0  0  0  0  0  0  0  0  0  0
  146.4276  132.3147  154.4074 H   0  0  0  0  0  0  0  0  0  0  0  0
  144.9856  130.6254  151.4205 H   0  0  0  0  0  0  0  0  0  0  0  0
  143.0688  131.6660  150.0826 H   0  0  0  0  0  0  0  0  0  0  0  0
  143.3790  135.2471  152.1273 H   0  0  0  0  0  0  0  0  0  0  0  0
  145.3142  134.3744  153.5547 H   0  0  0  0  0  0  0  0  0  0  0  0
  148.8427  137.9650  156.0795 H   0  0  0  0  0  0  0  0  0  0  0  0
  147.6004  137.2262  155.0990 H   0  0  0  0  0  0  0  0  0  0  0  0
  148.9496  137.6745  153.1747 H   0  0  0  0  0  0  0  0  0  0  0  0
  142.4390  133.8471  150.5408 H   0  0  0  0  0  0  0  0  0  0  0  0
  1  2  1  0  0  0  0
  1 20  1  0  0  0  0
  1 21  1  0  0  0  0
  1 22  1  0  0  0  0
  2 19  1  0  0  0  0
  2  3  1  0  0  0  0
  2 42  1  0  0  0  0
  3  4  1  0  0  0  0
  3 23  1  0  0  0  0
  3 24  1  0  0  0  0
  4  5  1  0  0  0  0
  4 25  1  0  0  0  0
  4 26  1  0  0  0  0
  5  6  1  0  0  0  0
  5 27  1  0  0  0  0
  5 28  1  0  0  0  0
  6  7  1  0  0  0  0
  6 19  1  0  0  0  0
  6 29  1  0  0  0  0
  7  8  1  0  0  0  0
  7 30  1  0  0  0  0
  8  9  2  0  0  0  0
  8 10  1  0  0  0  0
 10 11  1  0  0  0  0
 10 31  1  0  0  0  0
 11 12  1  0  0  0  0
 11 32  1  0  0  0  0
 11 33  1  0  0  0  0
 12 13  1  0  0  0  0
 12 34  1  0  0  0  0
 12 35  1  0  0  0  0
 13 18  1  0  0  0  0
 13 14  2  0  0  0  0
 14 15  1  0  0  0  0
 14 36  1  0  0  0  0
 15 16  2  0  0  0  0
 15 37  1  0  0  0  0
 16 17  1  0  0  0  0
 16 43  1  0  0  0  0
 17 18  2  0  0  0  0
 17 38  1  0  0  0  0
 18 39  1  0  0  0  0
 19 40  1  0  0  0  0
 19 41  1  0  0  0  0
M  CHG  1   2   1
M  CHG  1  16   1
M  END
> <s_m_source_file>
AV-unprocessed.smi

> <i_m_source_file_index>
2931

> <i_lp_mmshare_version>
43012

> <i_f3d_flags>
0

> <s_epik_input>
W0NIM11OMVtDSDJdW0NIMl1bQ0gyXVtDQEhdKFtDSDJdMSlbTkhdQyg9TylbTkhdW0NIMl1bQ0gyXWMyW2NIXVtjSF1uW2NIXVtjSF0y

> <s_epik_cmdline>
J2VwaWtfcHl0aG9uJywgJy1waCcsICc3LjAnLCAnLXRuJywgJzgnLCAnLW1hJywgJzIwMCcsICctbWV0YWxfYmluZGluZycsICctaW1hZScsICc8aW5maWxlLm1hZT4nLCAnLW9tYWUnLCAnPG91dGZpbGUubWFlPic=

> <r_epik_Ionization_Penalty>
1.43754

> <r_epik_Ionization_Penalty_Charging>
1.4375

> <r_epik_Ionization_Penalty_Neutral>
3.7629e-05

> <r_epik_State_Penalty>
1.52008

> <r_epik_Charging_Adjusted_Penalty>
2.95758

> <i_epik_Tot_Q>
2

> <i_epik_Tot_abs_Q>
2

> <r_epik_Metal_State_Penalty>
1.57105

> <b_epik_Metal_Only>
0

> <s_lp_Force_Field>
OPLS_2005

> <r_lp_Energy>
32.3729

> <b_lp_Chiralities_Consistent>
1

> <s_lp_Variant>
AV-unprocessed.smi:2931-7

> <Gold.Version>
5.8.1

> <Gold.Id.Protein>
6NUR|6NUR_protein|mol2

> <Gold.PLP.Fitness>
43.4381

> <Gold.PLP.PLP>
-29.3784

> <Gold.PLP.part.hbond>
-3.8239

> <Gold.PLP.part.metal>
0.0000

> <Gold.PLP.part.buried>
-1.9526

> <Gold.PLP.part.nonpolar>
-22.9891

> <Gold.PLP.part.repulsive>
0.0551

> <Gold.PLP.ligand.clash>
0.0000

> <Gold.PLP.ligand.torsion>
0.4983

> <Gold.PLP.Chemscore.Hbond>
5.0140

> <Gold.PLP.Chemscore.CHOScore>
0.0000

> <Gold.PLP.Chemscore.Metal>
0.0000

> <Gold.Chemscore.Hbonds>
donor molecule, donor type, donor heavy atom, donor atom, acceptor molecule, acceptor atom, score
      L1  H     2    42       P1  7948  2.00
      L1  H     7    30       P1  7948  0.74
      L1  H    16    43       P1 10186  2.00

> <Gold.PLP.Chemscore.Internal.Correction>
0.0142

> <Gold.Rescore>
     Score         DG    S(hbond)    S(metal)    S(lipo)     H(rot)  DE(clash)    DE(int)     intcor
     17.38     -19.07       2.79        0.00      72.56       1.65       0.06       1.64       ----

> <Gold.Chemscore.Fitness>
17.3793

> <Gold.Chemscore.DG>
-19.0744

> <Gold.Chemscore.ZeroCoef>
-5.4800

> <Gold.Chemscore.Hbond>
2.7902

> <Gold.Chemscore.Metal>
0.0000

> <Gold.Chemscore.Lipo>
72.5642

> <Gold.Chemscore.Internal_Hbond>
0.0000

> <Gold.Chemscore.DEClash>
0.0584

> <Gold.Chemscore.DEInternal>
1.6367

> <Gold.Chemscore.Rot>
1.6464

> <Gold.Chemscore.Internal.Correction>
   9.000000E+99

> <Gold.Chemscore.Hbonds>
donor molecule, donor type, donor heavy atom, donor atom, acceptor molecule, acceptor atom, score
      L1  H     2    42       P1  7948  0.99
      L1  H     7    30       P1  7948  0.10
      L1  H    16    43       P1 10186  0.91

> <Gold.Chemscore.Hbond.Weighted>
-9.3191

> <Gold.Chemscore.Metal.Weighted>
-0.0000

> <Gold.Chemscore.Lipo.Weighted>
-8.4900

> <Gold.Chemscore.Internal_Hbond.Weighted>
0.0000

> <Gold.Chemscore.DEClash.Weighted>
0.0584

> <Gold.Chemscore.DEInternal.Weighted>
1.6367

> <Gold.Chemscore.Rot.Weighted>
4.2148

> <Gold.Chemscore.Internal.Correction.Weighted>
   9.000000E+99

> <Gold.Protein.RotatedTorsions>
[ 6907 6896 6895 6894 ] final   90.78 input  -60.11 | X-H torsion
[ 7974 7965 7964 7962 ] final    8.16 input  175.53 | X-H torsion
[ 8008 7997 7996 7995 ] final  -75.48 input   59.86 | X-H torsion
[ 10167 10162 10161 10158 ] final -110.64 input  -65.29 | X-H torsion
[ 10718 10713 10712 10709 ] final  -37.83 input   66.30 | X-H torsion
[ 10763 10752 10751 10750 ] final  -27.17 input  -60.55 | X-H torsion
[ 11005 11000 10999 10996 ] final  -63.92 input  -57.11 | X-H torsion

> <Gold.Protein.ActiveResidues>
 VAL166  LYS551  ARG553  GLY616  TRP617  ASP618  TYR619  PRO620  LYS621  CYS622 
 ASP623  PHE694  ASN695  SER759  ASP760  ASP761  ALA762  ILE779  LEU786  VAL792 
 PHE793  MET794  SER795  GLU796  ALA797  LYS798  CYS799  TRP800  GLU811  SER814 

> <Gold.Protein.RotatedAtoms>
  152.5446  134.1759  159.8615 H   0  0  0  0  0  0  0  0  0  0  0  0  # atno 6907 bound_to 6896
  151.1765  133.4744  159.2601 H   0  0  0  0  0  0  0  0  0  0  0  0  # atno 6908 bound_to 6896
  151.1221  135.0096  159.8599 H   0  0  0  0  0  0  0  0  0  0  0  0  # atno 6909 bound_to 6896
  146.2419  139.9975  142.8419 H   0  0  0  0  0  0  0  0  0  0  0  0  # atno 7974 bound_to 7965
  154.5420  140.0743  156.8526 H   0  0  0  0  0  0  0  0  0  0  0  0  # atno 8008 bound_to 7997
  155.3162  140.3393  155.4224 H   0  0  0  0  0  0  0  0  0  0  0  0  # atno 8009 bound_to 7997
  156.1883  140.1677  156.8128 H   0  0  0  0  0  0  0  0  0  0  0  0  # atno 8010 bound_to 7997
  140.1423  143.4269  152.1553 H   0  0  0  0  0  0  0  0  0  0  0  0  # atno 10167 bound_to 10162
  156.3107  130.4252  149.8053 H   0  0  0  0  0  0  0  0  0  0  0  0  # atno 10718 bound_to 10713
  153.7278  135.6941  153.4997 H   0  0  0  0  0  0  0  0  0  0  0  0  # atno 10763 bound_to 10752
  153.2157  135.4387  155.0431 H   0  0  0  0  0  0  0  0  0  0  0  0  # atno 10764 bound_to 10752
  154.8263  135.3448  154.6809 H   0  0  0  0  0  0  0  0  0  0  0  0  # atno 10765 bound_to 10752
  141.1408  133.6658  156.5754 H   0  0  0  0  0  0  0  0  0  0  0  0  # atno 11005 bound_to 11000
  145.1446  140.9590  143.4468 LP  0  0  0  0  0  0  0  0  0  0  0  0  # atno 17320 bound_to 7965
  145.0263  139.3380  143.6047 LP  0  0  0  0  0  0  0  0  0  0  0  0  # atno 17321 bound_to 7965
  139.5466  144.7303  151.4564 LP  0  0  0  0  0  0  0  0  0  0  0  0  # atno 17342 bound_to 10162
  140.6753  143.8203  150.7050 LP  0  0  0  0  0  0  0  0  0  0  0  0  # atno 17343 bound_to 10162
  156.5397  130.8294  151.3265 LP  0  0  0  0  0  0  0  0  0  0  0  0  # atno 17370 bound_to 10713
  157.7390  130.9824  150.2288 LP  0  0  0  0  0  0  0  0  0  0  0  0  # atno 17371 bound_to 10713
  140.3880  134.7465  157.4703 LP  0  0  0  0  0  0  0  0  0  0  0  0  # atno 17394 bound_to 11000
  140.0587  134.6026  155.8774 LP  0  0  0  0  0  0  0  0  0  0  0  0  # atno 17395 bound_to 11000

$$$$
