AV-unprocessed.smi:2534|AV-procd|sdf|9975|dock8
  -GOLD-   2272014 23D 1   1.00000     0.00000
 Structure written by MMmdl.
 40 42  0  0  0  0  0  0  0  0  1 V2000
  150.6419  137.2533  154.8022 C   0  0  0  0  0  0  0  0  0  0  0  0
  149.9199  138.5162  155.2927 C   0  0  2  0  0  0  0  0  0  0  0  0
  150.2858  139.7443  154.4363 C   0  0  0  0  0  0  0  0  0  0  0  0
  149.5738  141.0126  154.9377 C   0  0  0  0  0  0  0  0  0  0  0  0
  149.8779  141.3028  156.4269 C   0  0  2  0  0  0  0  0  0  0  0  0
  149.0093  142.3462  156.8250 O   0  0  0  0  0  0  0  0  0  0  0  0
  151.3379  141.7625  156.7038 C   0  0  0  0  0  0  0  0  0  0  0  0
  151.5322  142.4303  157.9857 N   0  0  0  0  0  0  0  0  0  0  0  0
  150.9426  143.6328  158.2153 N   0  0  0  0  0  0  0  0  0  0  0  0
  151.3038  143.9874  159.4462 C   0  0  0  0  0  0  0  0  0  0  0  0
  152.1582  143.0236  160.0478 C   0  0  0  0  0  0  0  0  0  0  0  0
  152.8366  142.9048  161.3337 C   0  0  0  0  0  0  0  0  0  0  0  0
  153.5707  141.8578  161.5450 N   0  0  0  0  0  0  0  0  0  0  0  0
  153.7190  140.8614  160.5739 N   0  0  0  0  0  0  0  0  0  0  0  0
  154.5939  139.7665  160.9910 C   0  0  0  0  0  0  0  0  0  0  0  0
  153.1245  140.8765  159.3408 C   0  0  0  0  0  0  0  0  0  0  0  0
  153.2630  139.9956  158.4926 O   0  0  0  0  0  0  0  0  0  0  0  0
  152.2780  142.0694  159.0919 C   0  0  0  0  0  0  0  0  0  0  0  0
  149.5078  140.0655  157.2754 C   0  0  0  0  0  0  0  0  0  0  0  0
  150.2050  138.7839  156.7833 C   0  0  0  0  0  0  0  0  0  0  0  0
  151.7243  137.3593  154.8809 H   0  0  0  0  0  0  0  0  0  0  0  0
  150.4029  137.0439  153.7592 H   0  0  0  0  0  0  0  0  0  0  0  0
  150.3495  136.3814  155.3879 H   0  0  0  0  0  0  0  0  0  0  0  0
  148.8479  138.3430  155.1854 H   0  0  0  0  0  0  0  0  0  0  0  0
  151.3653  139.8978  154.4423 H   0  0  0  0  0  0  0  0  0  0  0  0
  150.0117  139.5640  153.3963 H   0  0  0  0  0  0  0  0  0  0  0  0
  149.8323  141.8634  154.3079 H   0  0  0  0  0  0  0  0  0  0  0  0
  148.4990  140.8728  154.8094 H   0  0  0  0  0  0  0  0  0  0  0  0
  149.2757  143.1408  156.3885 H   0  0  0  0  0  0  0  0  0  0  0  0
  152.0159  140.9111  156.6531 H   0  0  0  0  0  0  0  0  0  0  0  0
  151.6791  142.4414  155.9224 H   0  0  0  0  0  0  0  0  0  0  0  0
  150.9428  144.9209  159.8524 H   0  0  0  0  0  0  0  0  0  0  0  0
  152.7254  143.6791  162.0924 H   0  0  0  0  0  0  0  0  0  0  0  0
  154.7146  138.9858  160.2388 H   0  0  0  0  0  0  0  0  0  0  0  0
  154.1982  139.2936  161.8907 H   0  0  0  0  0  0  0  0  0  0  0  0
  155.5877  140.1510  161.2235 H   0  0  0  0  0  0  0  0  0  0  0  0
  149.7481  140.2387  158.3252 H   0  0  0  0  0  0  0  0  0  0  0  0
  148.4290  139.9059  157.2373 H   0  0  0  0  0  0  0  0  0  0  0  0
  149.8654  137.9375  157.3813 H   0  0  0  0  0  0  0  0  0  0  0  0
  151.2800  138.8573  156.9495 H   0  0  0  0  0  0  0  0  0  0  0  0
  1  2  1  0  0  0  0
  1 21  1  0  0  0  0
  1 22  1  0  0  0  0
  1 23  1  0  0  0  0
  2 20  1  0  0  0  0
  2  3  1  0  0  0  0
  2 24  1  0  0  0  0
  3  4  1  0  0  0  0
  3 25  1  0  0  0  0
  3 26  1  0  0  0  0
  4  5  1  0  0  0  0
  4 27  1  0  0  0  0
  4 28  1  0  0  0  0
  5  6  1  0  0  0  0
  5  7  1  0  0  0  0
  5 19  1  0  0  0  0
  6 29  1  0  0  0  0
  7  8  1  0  0  0  0
  7 30  1  0  0  0  0
  7 31  1  0  0  0  0
  8 18  1  0  0  0  0
  8  9  1  0  0  0  0
  9 10  2  0  0  0  0
 10 11  1  0  0  0  0
 10 32  1  0  0  0  0
 11 18  2  0  0  0  0
 11 12  1  0  0  0  0
 12 13  2  0  0  0  0
 12 33  1  0  0  0  0
 13 14  1  0  0  0  0
 14 15  1  0  0  0  0
 14 16  1  0  0  0  0
 15 34  1  0  0  0  0
 15 35  1  0  0  0  0
 15 36  1  0  0  0  0
 16 17  2  0  0  0  0
 16 18  1  0  0  0  0
 19 20  1  0  0  0  0
 19 37  1  0  0  0  0
 19 38  1  0  0  0  0
 20 39  1  0  0  0  0
 20 40  1  0  0  0  0
M  END
> <s_m_source_file>
AV-unprocessed.smi

> <i_m_source_file_index>
2534

> <i_lp_mmshare_version>
43012

> <i_f3d_flags>
0

> <s_epik_input>
W0NIMl0xW0NIMl1bQ0BIXShbQ0gzXSlbQ0gyXVtDSDJdW0NAQF0xKFtPSF0pW0NIMl1uKG5bY0hdMiljKGMyMyljKD1PKW4oW0NIM10pbltjSF0z

> <s_epik_cmdline>
J2VwaWtfcHl0aG9uJywgJy1waCcsICc3LjAnLCAnLXRuJywgJzgnLCAnLW1hJywgJzIwMCcsICctbWV0YWxfYmluZGluZycsICctaW1hZScsICc8aW5maWxlLm1hZT4nLCAnLW9tYWUnLCAnPG91dGZpbGUubWFlPic=

> <r_lp_tautomer_probability>
1

> <r_epik_Ionization_Penalty>
4.4666e-07

> <r_epik_Ionization_Penalty_Charging>
3.10141e-10

> <r_epik_Ionization_Penalty_Neutral>
4.46349e-07

> <r_epik_State_Penalty>
-0

> <r_epik_Charging_Adjusted_Penalty>
3.10141e-10

> <i_epik_Tot_Q>
0

> <i_epik_Tot_abs_Q>
0

> <r_epik_Metal_State_Penalty>
-0

> <b_epik_Metal_Only>
0

> <s_lp_Force_Field>
OPLS_2005

> <r_lp_Energy>
31.0433

> <b_lp_Chiralities_Consistent>
1

> <s_lp_Variant>
AV-unprocessed.smi:2534-2

> <Gold.Version>
5.8.1

> <Gold.Id.Protein>
6NUR|6NUR_protein|mol2

> <Gold.PLP.Fitness>
44.0109

> <Gold.PLP.PLP>
-38.5694

> <Gold.PLP.part.hbond>
-2.0000

> <Gold.PLP.part.metal>
0.0000

> <Gold.PLP.part.buried>
-4.5208

> <Gold.PLP.part.nonpolar>
-31.1723

> <Gold.PLP.part.repulsive>
0.1736

> <Gold.PLP.ligand.clash>
0.0000

> <Gold.PLP.ligand.torsion>
0.2227

> <Gold.PLP.Chemscore.Hbond>
1.9600

> <Gold.PLP.Chemscore.CHOScore>
0.0000

> <Gold.PLP.Chemscore.Metal>
0.0000

> <Gold.Chemscore.Hbonds>
donor molecule, donor type, donor heavy atom, donor atom, acceptor molecule, acceptor atom, score
      L1  H     6    29       P1  8028  1.00
      P1  H  7997  8008       L1    17  1.00

> <Gold.PLP.Chemscore.Internal.Correction>
0.0069

> <Gold.Rescore>
     Score         DG    S(hbond)    S(metal)    S(lipo)     H(rot)  DE(clash)    DE(int)     intcor
     16.90     -18.50       1.91        0.00      93.37       1.68       0.05       1.55       ----

> <Gold.Chemscore.Fitness>
16.9049

> <Gold.Chemscore.DG>
-18.5026

> <Gold.Chemscore.ZeroCoef>
-5.4800

> <Gold.Chemscore.Hbond>
1.9127

> <Gold.Chemscore.Metal>
0.0000

> <Gold.Chemscore.Lipo>
93.3693

> <Gold.Chemscore.Internal_Hbond>
0.0000

> <Gold.Chemscore.DEClash>
0.0451

> <Gold.Chemscore.DEInternal>
1.5526

> <Gold.Chemscore.Rot>
1.6758

> <Gold.Chemscore.Internal.Correction>
   9.000000E+99

> <Gold.Chemscore.Hbonds>
donor molecule, donor type, donor heavy atom, donor atom, acceptor molecule, acceptor atom, score
      L1  H     6    29       P1  8028  0.94
      P1  H  7997  8008       L1    17  0.94

> <Gold.Chemscore.Hbond.Weighted>
-6.3884

> <Gold.Chemscore.Metal.Weighted>
-0.0000

> <Gold.Chemscore.Lipo.Weighted>
-10.9242

> <Gold.Chemscore.Internal_Hbond.Weighted>
0.0000

> <Gold.Chemscore.DEClash.Weighted>
0.0451

> <Gold.Chemscore.DEInternal.Weighted>
1.5526

> <Gold.Chemscore.Rot.Weighted>
4.2899

> <Gold.Chemscore.Internal.Correction.Weighted>
   9.000000E+99

> <Gold.Protein.RotatedTorsions>
[ 6907 6896 6895 6894 ] final   79.71 input  -60.11 | X-H torsion
[ 7974 7965 7964 7962 ] final  -46.09 input  175.53 | X-H torsion
[ 8008 7997 7996 7995 ] final  -93.16 input   59.86 | X-H torsion
[ 10167 10162 10161 10158 ] final -156.21 input  -65.29 | X-H torsion
[ 10718 10713 10712 10709 ] final  116.19 input   66.30 | X-H torsion
[ 10763 10752 10751 10750 ] final   90.76 input  -60.55 | X-H torsion
[ 11005 11000 10999 10996 ] final   14.58 input  -57.11 | X-H torsion

> <Gold.Protein.ActiveResidues>
 VAL166  LYS551  ARG553  GLY616  TRP617  ASP618  TYR619  PRO620  LYS621  CYS622 
 ASP623  PHE694  ASN695  SER759  ASP760  ASP761  ALA762  ILE779  LEU786  VAL792 
 PHE793  MET794  SER795  GLU796  ALA797  LYS798  CYS799  TRP800  GLU811  SER814 

> <Gold.Protein.RotatedAtoms>
  152.5208  134.3470  159.9237 H   0  0  0  0  0  0  0  0  0  0  0  0  # atno 6907 bound_to 6896
  151.3420  133.3952  159.2680 H   0  0  0  0  0  0  0  0  0  0  0  0  # atno 6908 bound_to 6896
  150.9795  134.9171  159.7894 H   0  0  0  0  0  0  0  0  0  0  0  0  # atno 6909 bound_to 6896
  145.9754  140.7339  142.9389 H   0  0  0  0  0  0  0  0  0  0  0  0  # atno 7974 bound_to 7965
  154.7322  140.0501  157.0736 H   0  0  0  0  0  0  0  0  0  0  0  0  # atno 8008 bound_to 7997
  155.0287  140.3155  155.4747 H   0  0  0  0  0  0  0  0  0  0  0  0  # atno 8009 bound_to 7997
  156.2844  140.2154  156.5408 H   0  0  0  0  0  0  0  0  0  0  0  0  # atno 8010 bound_to 7997
  139.6868  143.9487  152.2365 H   0  0  0  0  0  0  0  0  0  0  0  0  # atno 10167 bound_to 10162
  157.6176  131.1022  150.7437 H   0  0  0  0  0  0  0  0  0  0  0  0  # atno 10718 bound_to 10713
  153.2010  135.4422  155.0266 H   0  0  0  0  0  0  0  0  0  0  0  0  # atno 10763 bound_to 10752
  154.8147  135.3309  154.7212 H   0  0  0  0  0  0  0  0  0  0  0  0  # atno 10764 bound_to 10752
  153.7658  135.6988  153.4972 H   0  0  0  0  0  0  0  0  0  0  0  0  # atno 10765 bound_to 10752
  140.4679  134.1060  155.7727 H   0  0  0  0  0  0  0  0  0  0  0  0  # atno 11005 bound_to 11000
  144.6847  140.2819  143.7291 LP  0  0  0  0  0  0  0  0  0  0  0  0  # atno 17320 bound_to 7965
  145.7846  139.1904  143.2138 LP  0  0  0  0  0  0  0  0  0  0  0  0  # atno 17321 bound_to 7965
  139.9293  144.6751  150.8380 LP  0  0  0  0  0  0  0  0  0  0  0  0  # atno 17342 bound_to 10162
  140.7670  143.3320  151.2390 LP  0  0  0  0  0  0  0  0  0  0  0  0  # atno 17343 bound_to 10162
  156.7801  130.4856  149.5402 LP  0  0  0  0  0  0  0  0  0  0  0  0  # atno 17370 bound_to 10713
  156.1305  130.6174  151.0326 LP  0  0  0  0  0  0  0  0  0  0  0  0  # atno 17371 bound_to 10713
  141.1590  133.8828  157.1898 LP  0  0  0  0  0  0  0  0  0  0  0  0  # atno 17394 bound_to 11000
  139.9903  135.0067  156.9960 LP  0  0  0  0  0  0  0  0  0  0  0  0  # atno 17395 bound_to 11000

$$$$
