AV-unprocessed.smi:3343|AV-procd|sdf|12891|dock8
  -GOLD-   2272019303D 1   1.00000     0.00000
 Structure written by MMmdl.
 42 43  0  0  0  0  0  0  0  0  2 V2000
  148.5894  140.4158  154.2192 C   0  0  0  0  0  0  0  0  0  0  0  0
  148.9194  138.9296  153.9749 C   0  0  2  0  0  0  0  0  0  0  0  0
  147.9178  137.9899  154.6626 C   0  0  0  0  0  0  0  0  0  0  0  0
  147.5974  138.1680  155.8381 O   0  0  0  0  0  0  0  0  0  0  0  0
  147.4284  136.9888  153.9141 N   0  0  0  0  0  0  0  0  0  0  0  0
  146.4826  135.9742  154.3698 C   0  0  0  0  0  0  0  0  0  0  0  0
  145.9296  135.1061  153.2194 C   0  0  0  0  0  0  0  0  0  0  0  0
  144.7498  135.6929  152.5774 N   0  0  0  0  0  0  0  0  0  0  0  0
  144.9004  135.7814  151.1219 C   0  0  0  0  0  0  0  0  0  0  0  0
  144.8494  134.3936  150.4456 C   0  0  0  0  0  0  0  0  0  0  0  0
  143.5840  133.6994  150.7795 N   0  3  0  0  0  0  0  0  0  0  0  0
  143.4583  132.3871  150.1109 C   0  0  0  0  0  0  0  0  0  0  0  0
  143.4061  133.6137  152.2479 C   0  0  0  0  0  0  0  0  0  0  0  0
  143.4815  135.0199  152.8790 C   0  0  0  0  0  0  0  0  0  0  0  0
  150.2801  138.5914  154.3740 N   0  0  0  0  0  0  0  0  0  0  0  0
  150.9157  137.4180  154.3434 C   0  0  0  0  0  0  0  0  0  0  0  0
  152.1473  137.4587  154.8324 N   0  0  0  0  0  0  0  0  0  0  0  0
  152.2091  138.7771  155.1839 C   0  0  0  0  0  0  0  0  0  0  0  0
  151.1152  139.4984  154.9398 N   0  0  0  0  0  0  0  0  0  0  0  0
  147.5855  140.6571  153.8681 H   0  0  0  0  0  0  0  0  0  0  0  0
  149.2862  141.0608  153.6831 H   0  0  0  0  0  0  0  0  0  0  0  0
  148.6418  140.6816  155.2758 H   0  0  0  0  0  0  0  0  0  0  0  0
  148.8511  138.7586  152.8990 H   0  0  0  0  0  0  0  0  0  0  0  0
  147.7487  136.9126  152.9596 H   0  0  0  0  0  0  0  0  0  0  0  0
  146.9516  135.3568  155.1369 H   0  0  0  0  0  0  0  0  0  0  0  0
  145.6546  136.4858  154.8632 H   0  0  0  0  0  0  0  0  0  0  0  0
  146.7092  135.0506  152.4586 H   0  0  0  0  0  0  0  0  0  0  0  0
  145.7580  134.0795  153.5399 H   0  0  0  0  0  0  0  0  0  0  0  0
  144.1004  136.4091  150.7267 H   0  0  0  0  0  0  0  0  0  0  0  0
  145.8346  136.2884  150.8771 H   0  0  0  0  0  0  0  0  0  0  0  0
  144.9145  134.5180  149.3643 H   0  0  0  0  0  0  0  0  0  0  0  0
  145.7027  133.7803  150.7382 H   0  0  0  0  0  0  0  0  0  0  0  0
  144.2373  131.7003  150.4451 H   0  0  0  0  0  0  0  0  0  0  0  0
  143.5400  132.4980  149.0290 H   0  0  0  0  0  0  0  0  0  0  0  0
  142.4887  131.9374  150.3275 H   0  0  0  0  0  0  0  0  0  0  0  0
  142.4320  133.1741  152.4653 H   0  0  0  0  0  0  0  0  0  0  0  0
  144.1511  132.9455  152.6820 H   0  0  0  0  0  0  0  0  0  0  0  0
  143.3244  134.9654  153.9554 H   0  0  0  0  0  0  0  0  0  0  0  0
  142.6664  135.6335  152.4924 H   0  0  0  0  0  0  0  0  0  0  0  0
  150.4673  136.5138  153.9588 H   0  0  0  0  0  0  0  0  0  0  0  0
  153.0844  139.2174  155.6383 H   0  0  0  0  0  0  0  0  0  0  0  0
  142.8346  134.2797  150.4298 H   0  0  0  0  0  0  0  0  0  0  0  0
  1  2  1  0  0  0  0
  1 20  1  0  0  0  0
  1 21  1  0  0  0  0
  1 22  1  0  0  0  0
  2  3  1  0  0  0  0
  2 15  1  0  0  0  0
  2 23  1  0  0  0  0
  3  4  2  0  0  0  0
  3  5  1  0  0  0  0
  5  6  1  0  0  0  0
  5 24  1  0  0  0  0
  6  7  1  0  0  0  0
  6 25  1  0  0  0  0
  6 26  1  0  0  0  0
  7  8  1  0  0  0  0
  7 27  1  0  0  0  0
  7 28  1  0  0  0  0
  8 14  1  0  0  0  0
  8  9  1  0  0  0  0
  9 10  1  0  0  0  0
  9 29  1  0  0  0  0
  9 30  1  0  0  0  0
 10 11  1  0  0  0  0
 10 31  1  0  0  0  0
 10 32  1  0  0  0  0
 11 12  1  0  0  0  0
 11 13  1  0  0  0  0
 11 42  1  0  0  0  0
 12 33  1  0  0  0  0
 12 34  1  0  0  0  0
 12 35  1  0  0  0  0
 13 14  1  0  0  0  0
 13 36  1  0  0  0  0
 13 37  1  0  0  0  0
 14 38  1  0  0  0  0
 14 39  1  0  0  0  0
 15 19  1  0  0  0  0
 15 16  1  0  0  0  0
 16 17  2  0  0  0  0
 16 40  1  0  0  0  0
 17 18  1  0  0  0  0
 18 19  2  0  0  0  0
 18 41  1  0  0  0  0
M  CHG  1  11   1
M  END
> <s_m_source_file>
AV-unprocessed.smi

> <i_m_source_file_index>
3343

> <i_lp_mmshare_version>
43012

> <i_f3d_flags>
0

> <s_epik_input>
bjFbY0hdbltjSF1uMVtDQEhdKFtDSDNdKUMoPU8pW05IXVtDSDJdW0NIMl1OMltDSDJdW0NIMl1OKFtDSDNdKVtDSDJdW0NIMl0y

> <s_epik_cmdline>
J2VwaWtfcHl0aG9uJywgJy1waCcsICc3LjAnLCAnLXRuJywgJzgnLCAnLW1hJywgJzIwMCcsICctbWV0YWxfYmluZGluZycsICctaW1hZScsICc8aW5maWxlLm1hZT4nLCAnLW9tYWUnLCAnPG91dGZpbGUubWFlPic=

> <r_lp_tautomer_probability>
1

> <r_epik_Ionization_Penalty>
0.0359277

> <r_epik_Ionization_Penalty_Charging>
0.0358005

> <r_epik_Ionization_Penalty_Neutral>
0.000127293

> <r_epik_State_Penalty>
0.0476325

> <r_epik_Charging_Adjusted_Penalty>
0.0834329

> <i_epik_Tot_Q>
1

> <i_epik_Tot_abs_Q>
1

> <r_epik_Metal_State_Penalty>
0.0476323

> <b_epik_Metal_Only>
0

> <s_lp_Force_Field>
OPLS_2005

> <r_lp_Energy>
27.0486

> <b_lp_Chiralities_Consistent>
1

> <s_lp_Variant>
AV-unprocessed.smi:3343-1

> <Gold.Version>
5.8.1

> <Gold.Id.Protein>
6NUR|6NUR_protein|mol2

> <Gold.PLP.Fitness>
43.7741

> <Gold.PLP.PLP>
-30.0127

> <Gold.PLP.part.hbond>
-4.0000

> <Gold.PLP.part.metal>
0.0000

> <Gold.PLP.part.buried>
-0.6149

> <Gold.PLP.part.nonpolar>
-27.2897

> <Gold.PLP.part.repulsive>
0.2496

> <Gold.PLP.ligand.clash>
0.0000

> <Gold.PLP.ligand.torsion>
1.3349

> <Gold.PLP.Chemscore.Hbond>
4.5874

> <Gold.PLP.Chemscore.CHOScore>
0.8507

> <Gold.PLP.Chemscore.Metal>
0.0000

> <Gold.Chemscore.Hbonds>
donor molecule, donor type, donor heavy atom, donor atom, acceptor molecule, acceptor atom, score
      L1  H     5    24       P1  7948  0.94
      L1  H    11    42       P1 10186  1.98
      P1  H  7989  7998       L1    19  0.94
      P1  H 10752 10764       L1    17  0.77
      L1  C    16    40       P1  7948  0.54
      L1  C    16    40       P1  7949  0.24

> <Gold.PLP.Chemscore.Internal.Correction>
0.1170

> <Gold.Rescore>
     Score         DG    S(hbond)    S(metal)    S(lipo)     H(rot)  DE(clash)    DE(int)     intcor
     14.37     -16.47       3.53        0.00      50.68       2.63       0.15       1.95       ----

> <Gold.Chemscore.Fitness>
14.3713

> <Gold.Chemscore.DG>
-16.4720

> <Gold.Chemscore.ZeroCoef>
-5.4800

> <Gold.Chemscore.Hbond>
3.5299

> <Gold.Chemscore.Metal>
0.0000

> <Gold.Chemscore.Lipo>
50.6770

> <Gold.Chemscore.Internal_Hbond>
0.0000

> <Gold.Chemscore.DEClash>
0.1518

> <Gold.Chemscore.DEInternal>
1.9489

> <Gold.Chemscore.Rot>
2.6278

> <Gold.Chemscore.Internal.Correction>
   9.000000E+99

> <Gold.Chemscore.Hbonds>
donor molecule, donor type, donor heavy atom, donor atom, acceptor molecule, acceptor atom, score
      L1  H     5    24       P1  7948  0.91
      L1  H    11    42       P1 10186  0.66
      P1  H  7989  7998       L1    19  0.32
      P1  H 10752 10764       L1    17  0.44

> <Gold.Chemscore.Hbond.Weighted>
-11.7899

> <Gold.Chemscore.Metal.Weighted>
-0.0000

> <Gold.Chemscore.Lipo.Weighted>
-5.9292

> <Gold.Chemscore.Internal_Hbond.Weighted>
0.0000

> <Gold.Chemscore.DEClash.Weighted>
0.1518

> <Gold.Chemscore.DEInternal.Weighted>
1.9489

> <Gold.Chemscore.Rot.Weighted>
6.7271

> <Gold.Chemscore.Internal.Correction.Weighted>
   9.000000E+99

> <Gold.Protein.RotatedTorsions>
[ 6907 6896 6895 6894 ] final -143.23 input  -60.11 | X-H torsion
[ 7974 7965 7964 7962 ] final   -2.61 input  175.53 | X-H torsion
[ 8008 7997 7996 7995 ] final -133.18 input   59.86 | X-H torsion
[ 10167 10162 10161 10158 ] final  -39.88 input  -65.29 | X-H torsion
[ 10718 10713 10712 10709 ] final   83.73 input   66.30 | X-H torsion
[ 10763 10752 10751 10750 ] final  -63.61 input  -60.55 | X-H torsion
[ 11005 11000 10999 10996 ] final  136.11 input  -57.11 | X-H torsion

> <Gold.Protein.ActiveResidues>
 VAL166  LYS551  ARG553  GLY616  TRP617  ASP618  TYR619  PRO620  LYS621  CYS622 
 ASP623  PHE694  ASN695  SER759  ASP760  ASP761  ALA762  ILE779  LEU786  VAL792 
 PHE793  MET794  SER795  GLU796  ALA797  LYS798  CYS799  TRP800  GLU811  SER814 

> <Gold.Protein.RotatedAtoms>
  151.0976  133.5268  159.2611 H   0  0  0  0  0  0  0  0  0  0  0  0  # atno 6907 bound_to 6896
  151.2111  135.0481  159.8921 H   0  0  0  0  0  0  0  0  0  0  0  0  # atno 6908 bound_to 6896
  152.5440  134.0792  159.8281 H   0  0  0  0  0  0  0  0  0  0  0  0  # atno 6909 bound_to 6896
  146.2402  140.1597  142.8333 H   0  0  0  0  0  0  0  0  0  0  0  0  # atno 7974 bound_to 7965
  155.3412  140.0472  157.3045 H   0  0  0  0  0  0  0  0  0  0  0  0  # atno 8008 bound_to 7997
  154.5276  140.2246  155.8826 H   0  0  0  0  0  0  0  0  0  0  0  0  # atno 8009 bound_to 7997
  156.1756  140.3086  155.9059 H   0  0  0  0  0  0  0  0  0  0  0  0  # atno 8010 bound_to 7997
  140.7051  143.3187  151.2845 H   0  0  0  0  0  0  0  0  0  0  0  0  # atno 10167 bound_to 10162
  157.6884  131.0103  150.2567 H   0  0  0  0  0  0  0  0  0  0  0  0  # atno 10718 bound_to 10713
  154.3177  135.6202  153.5494 H   0  0  0  0  0  0  0  0  0  0  0  0  # atno 10763 bound_to 10752
  152.9823  135.5716  154.5105 H   0  0  0  0  0  0  0  0  0  0  0  0  # atno 10764 bound_to 10752
  154.4767  135.2861  155.1578 H   0  0  0  0  0  0  0  0  0  0  0  0  # atno 10765 bound_to 10752
  140.0024  134.9473  157.0101 H   0  0  0  0  0  0  0  0  0  0  0  0  # atno 11005 bound_to 11000
  145.0100  140.8705  143.5230 LP  0  0  0  0  0  0  0  0  0  0  0  0  # atno 17320 bound_to 7965
  145.1629  139.2448  143.5382 LP  0  0  0  0  0  0  0  0  0  0  0  0  # atno 17321 bound_to 7965
  139.6634  144.0148  152.2707 LP  0  0  0  0  0  0  0  0  0  0  0  0  # atno 17342 bound_to 10162
  139.9723  144.6485  150.7978 LP  0  0  0  0  0  0  0  0  0  0  0  0  # atno 17343 bound_to 10162
  156.3154  130.3778  149.7624 LP  0  0  0  0  0  0  0  0  0  0  0  0  # atno 17370 bound_to 10713
  156.5211  130.8215  151.3204 LP  0  0  0  0  0  0  0  0  0  0  0  0  # atno 17371 bound_to 10713
  140.4703  134.1393  155.7202 LP  0  0  0  0  0  0  0  0  0  0  0  0  # atno 17394 bound_to 11000
  141.1652  133.8717  157.1736 LP  0  0  0  0  0  0  0  0  0  0  0  0  # atno 17395 bound_to 11000

$$$$
