AV-unprocessed.smi:229|AV-procd|sdf|1756|dock9
  -GOLD-   2262020283D 1   1.00000     0.00000
 Structure written by MMmdl.
 58 62  0  0  0  0  0  0  0  0  1 V2000
  147.3049  128.1155  151.2924 C   0  0  0  0  0  0  0  0  0  0  0  0
  147.0292  128.8076  152.6331 C   0  0  0  0  0  0  0  0  0  0  0  0
  146.3282  130.1647  152.4718 C   0  0  1  0  0  0  0  0  0  0  0  0
  147.1094  131.2981  153.1579 C   0  0  0  0  0  0  0  0  0  0  0  0
  146.4638  132.5780  152.8883 N   0  0  0  0  0  0  0  0  0  0  0  0
  146.8033  133.6477  153.6512 C   0  0  0  0  0  0  0  0  0  0  0  0
  145.8353  134.4715  154.1360 N   0  0  0  0  0  0  0  0  0  0  0  0
  146.1601  135.5291  154.8855 C   0  0  0  0  0  0  0  0  0  0  0  0
  147.3708  135.9456  155.2612 N   0  0  0  0  0  0  0  0  0  0  0  0
  148.3461  135.1273  154.7736 C   0  0  0  0  0  0  0  0  0  0  0  0
  148.1534  133.9675  153.9708 C   0  0  0  0  0  0  0  0  0  0  0  0
  149.3844  133.4013  153.6574 N   0  0  0  0  0  0  0  0  0  0  0  0
  150.2529  134.1760  154.2479 C   0  0  0  0  0  0  0  0  0  0  0  0
  149.7150  135.2416  154.9335 N   0  0  0  0  0  0  0  0  0  0  0  0
  150.4406  136.2686  155.6607 C   0  0  0  0  0  0  0  0  0  0  0  0
  150.6187  137.5588  154.8312 C   0  0  2  0  0  0  0  0  0  0  0  0
  151.5915  137.3080  153.8348 O   0  0  0  0  0  0  0  0  0  0  0  0
  151.1021  138.7582  155.6707 C   0  0  2  0  0  0  0  0  0  0  0  0
  150.2717  139.0410  156.9254 C   0  0  0  0  0  0  0  0  0  0  0  0
  150.4864  140.5252  157.1784 C   0  0  0  0  0  0  0  0  0  0  0  0
  151.0600  141.0440  155.8582 C   0  0  0  0  0  0  0  0  0  0  0  0
  150.9123  139.9653  154.9466 O   0  0  0  0  0  0  0  0  0  0  0  0
  146.3129  132.8465  151.4632 C   0  0  0  0  0  0  0  0  0  0  0  0
  145.5657  131.6873  150.7651 C   0  0  2  0  0  0  0  0  0  0  0  0
  145.5880  131.8554  149.2492 C   0  0  0  0  0  0  0  0  0  0  0  0
  144.2617  132.5392  148.9541 C   0  0  0  0  0  0  0  0  0  0  0  0
  143.3761  131.8746  149.8351 O   0  0  0  0  0  0  0  0  0  0  0  0
  144.0495  131.6711  151.0722 C   0  0  0  0  0  0  0  0  0  0  0  0
  146.2125  130.4493  151.0758 O   0  0  0  0  0  0  0  0  0  0  0  0
  147.7957  127.1545  151.4463 H   0  0  0  0  0  0  0  0  0  0  0  0
  147.9534  128.7219  150.6595 H   0  0  0  0  0  0  0  0  0  0  0  0
  146.3795  127.9322  150.7459 H   0  0  0  0  0  0  0  0  0  0  0  0
  146.4085  128.1510  153.2438 H   0  0  0  0  0  0  0  0  0  0  0  0
  147.9655  128.9380  153.1771 H   0  0  0  0  0  0  0  0  0  0  0  0
  145.3379  130.0969  152.9230 H   0  0  0  0  0  0  0  0  0  0  0  0
  147.1507  131.1151  154.2327 H   0  0  0  0  0  0  0  0  0  0  0  0
  148.1365  131.3266  152.7908 H   0  0  0  0  0  0  0  0  0  0  0  0
  145.3311  136.1280  155.2322 H   0  0  0  0  0  0  0  0  0  0  0  0
  151.3168  133.9973  154.1889 H   0  0  0  0  0  0  0  0  0  0  0  0
  149.8937  136.4742  156.5811 H   0  0  0  0  0  0  0  0  0  0  0  0
  151.4105  135.8675  155.9577 H   0  0  0  0  0  0  0  0  0  0  0  0
  149.6749  137.8092  154.3447 H   0  0  0  0  0  0  0  0  0  0  0  0
  151.1538  137.2447  152.9995 H   0  0  0  0  0  0  0  0  0  0  0  0
  152.1547  138.6503  155.9418 H   0  0  0  0  0  0  0  0  0  0  0  0
  149.2150  138.8575  156.7253 H   0  0  0  0  0  0  0  0  0  0  0  0
  150.5657  138.4229  157.7741 H   0  0  0  0  0  0  0  0  0  0  0  0
  149.5474  141.0172  157.4342 H   0  0  0  0  0  0  0  0  0  0  0  0
  151.1894  140.6950  157.9946 H   0  0  0  0  0  0  0  0  0  0  0  0
  150.5460  141.9355  155.4978 H   0  0  0  0  0  0  0  0  0  0  0  0
  152.1194  141.2811  155.9655 H   0  0  0  0  0  0  0  0  0  0  0  0
  145.7963  133.7873  151.2777 H   0  0  0  0  0  0  0  0  0  0  0  0
  147.3110  132.9538  151.0358 H   0  0  0  0  0  0  0  0  0  0  0  0
  146.4476  132.4166  148.8814 H   0  0  0  0  0  0  0  0  0  0  0  0
  145.5987  130.8789  148.7623 H   0  0  0  0  0  0  0  0  0  0  0  0
  144.3016  133.6018  149.1992 H   0  0  0  0  0  0  0  0  0  0  0  0
  143.9519  132.4320  147.9145 H   0  0  0  0  0  0  0  0  0  0  0  0
  143.7117  130.7275  151.5000 H   0  0  0  0  0  0  0  0  0  0  0  0
  143.7746  132.4663  151.7666 H   0  0  0  0  0  0  0  0  0  0  0  0
  1  2  1  0  0  0  0
  1 30  1  0  0  0  0
  1 31  1  0  0  0  0
  1 32  1  0  0  0  0
  2  3  1  0  0  0  0
  2 33  1  0  0  0  0
  2 34  1  0  0  0  0
  3 29  1  0  0  0  0
  3  4  1  0  0  0  0
  3 35  1  0  0  0  0
  4  5  1  0  0  0  0
  4 36  1  0  0  0  0
  4 37  1  0  0  0  0
  5  6  1  0  0  0  0
  5 23  1  0  0  0  0
  6 11  1  0  0  0  0
  6  7  2  0  0  0  0
  7  8  1  0  0  0  0
  8  9  2  0  0  0  0
  8 38  1  0  0  0  0
  9 10  1  0  0  0  0
 10 14  1  0  0  0  0
 10 11  2  0  0  0  0
 11 12  1  0  0  0  0
 12 13  2  0  0  0  0
 13 14  1  0  0  0  0
 13 39  1  0  0  0  0
 14 15  1  0  0  0  0
 15 16  1  0  0  0  0
 15 40  1  0  0  0  0
 15 41  1  0  0  0  0
 16 17  1  0  0  0  0
 16 18  1  0  0  0  0
 16 42  1  0  0  0  0
 17 43  1  0  0  0  0
 18 22  1  0  0  0  0
 18 19  1  0  0  0  0
 18 44  1  0  0  0  0
 19 20  1  0  0  0  0
 19 45  1  0  0  0  0
 19 46  1  0  0  0  0
 20 21  1  0  0  0  0
 20 47  1  0  0  0  0
 20 48  1  0  0  0  0
 21 22  1  0  0  0  0
 21 49  1  0  0  0  0
 21 50  1  0  0  0  0
 23 24  1  0  0  0  0
 23 51  1  0  0  0  0
 23 52  1  0  0  0  0
 24 28  1  0  0  0  0
 24 25  1  0  0  0  0
 24 29  1  0  0  0  0
 25 26  1  0  0  0  0
 25 53  1  0  0  0  0
 25 54  1  0  0  0  0
 26 27  1  0  0  0  0
 26 55  1  0  0  0  0
 26 56  1  0  0  0  0
 27 28  1  0  0  0  0
 28 57  1  0  0  0  0
 28 58  1  0  0  0  0
M  END
> <s_m_source_file>
AV-unprocessed.smi

> <i_m_source_file_index>
229

> <i_lp_mmshare_version>
43012

> <i_f3d_flags>
0

> <s_epik_input>
W0NIMl0xT1tDSDJdW0NIMl1bQ0BdMTJbQ0gyXU4oW0NIMl1bQ0BIXShPMilbQ0gyXVtDSDNdKWMobltjSF1uMyljKGMzNCluW2NIXW40W0NIMl1bQ0BIXShbT0hdKVtDQEBIXTVbQ0gyXVtDSDJdW0NIMl1PNQ==

> <s_epik_cmdline>
J2VwaWtfcHl0aG9uJywgJy1waCcsICc3LjAnLCAnLXRuJywgJzgnLCAnLW1hJywgJzIwMCcsICctbWV0YWxfYmluZGluZycsICctaW1hZScsICc8aW5maWxlLm1hZT4nLCAnLW9tYWUnLCAnPG91dGZpbGUubWFlPic=

> <r_lp_tautomer_probability>
1

> <r_epik_Ionization_Penalty>
0.00318402

> <r_epik_Ionization_Penalty_Charging>
0

> <r_epik_Ionization_Penalty_Neutral>
0.00318402

> <r_epik_State_Penalty>
0.00215642

> <r_epik_Charging_Adjusted_Penalty>
0.00215642

> <i_epik_Tot_Q>
0

> <i_epik_Tot_abs_Q>
0

> <r_epik_Metal_State_Penalty>
-0

> <b_epik_Metal_Only>
0

> <s_lp_Force_Field>
OPLS_2005

> <r_lp_Energy>
55.2871

> <b_lp_Chiralities_Consistent>
1

> <s_lp_Variant>
AV-unprocessed.smi:229-10

> <Gold.Version>
5.8.1

> <Gold.Id.Protein>
6NUR|6NUR_protein|mol2

> <Gold.PLP.Fitness>
51.5388

> <Gold.PLP.PLP>
-43.9993

> <Gold.PLP.part.hbond>
-4.0000

> <Gold.PLP.part.metal>
0.0000

> <Gold.PLP.part.buried>
-8.5446

> <Gold.PLP.part.nonpolar>
-35.0213

> <Gold.PLP.part.repulsive>
2.4095

> <Gold.PLP.ligand.clash>
0.0000

> <Gold.PLP.ligand.torsion>
1.8337

> <Gold.PLP.Chemscore.Hbond>
3.6048

> <Gold.PLP.Chemscore.CHOScore>
0.0000

> <Gold.PLP.Chemscore.Metal>
0.0000

> <Gold.Chemscore.Hbonds>
donor molecule, donor type, donor heavy atom, donor atom, acceptor molecule, acceptor atom, score
      L1  H    17    43       P1  7949  0.72
      P1  H  7989  7998       L1    22  0.75
      P1  H 10752 10763       L1    17  0.68
      P1  H 10785 10796       L1    27  0.80

> <Gold.PLP.Chemscore.Internal.Correction>
0.3927

> <Gold.Rescore>
     Score         DG    S(hbond)    S(metal)    S(lipo)     H(rot)  DE(clash)    DE(int)     intcor
     16.11     -19.68       1.97        0.00     119.03       2.46       1.88       1.68       ----

> <Gold.Chemscore.Fitness>
16.1127

> <Gold.Chemscore.DG>
-19.6751

> <Gold.Chemscore.ZeroCoef>
-5.4800

> <Gold.Chemscore.Hbond>
1.9651

> <Gold.Chemscore.Metal>
0.0000

> <Gold.Chemscore.Lipo>
119.0350

> <Gold.Chemscore.Internal_Hbond>
0.0000

> <Gold.Chemscore.DEClash>
1.8819

> <Gold.Chemscore.DEInternal>
1.6805

> <Gold.Chemscore.Rot>
2.4591

> <Gold.Chemscore.Internal.Correction>
   9.000000E+99

> <Gold.Chemscore.Hbonds>
donor molecule, donor type, donor heavy atom, donor atom, acceptor molecule, acceptor atom, score
      L1  H    17    43       P1  7949  0.35
      P1  H  7989  7998       L1    22  0.09
      P1  H 10752 10763       L1    17  0.55
      P1  H 10785 10796       L1    27  0.11

> <Gold.Chemscore.Hbond.Weighted>
-6.5633

> <Gold.Chemscore.Metal.Weighted>
-0.0000

> <Gold.Chemscore.Lipo.Weighted>
-13.9271

> <Gold.Chemscore.Internal_Hbond.Weighted>
0.0000

> <Gold.Chemscore.DEClash.Weighted>
1.8819

> <Gold.Chemscore.DEInternal.Weighted>
1.6805

> <Gold.Chemscore.Rot.Weighted>
6.2953

> <Gold.Chemscore.Internal.Correction.Weighted>
   9.000000E+99

> <Gold.Protein.RotatedTorsions>
[ 6907 6896 6895 6894 ] final -126.39 input  -60.11 | X-H torsion
[ 7974 7965 7964 7962 ] final   -4.81 input  175.53 | X-H torsion
[ 8008 7997 7996 7995 ] final   57.19 input   59.86 | X-H torsion
[ 10167 10162 10161 10158 ] final   79.90 input  -65.29 | X-H torsion
[ 10718 10713 10712 10709 ] final -172.61 input   66.30 | X-H torsion
[ 10763 10752 10751 10750 ] final   37.70 input  -60.55 | X-H torsion
[ 11005 11000 10999 10996 ] final  174.93 input  -57.11 | X-H torsion

> <Gold.Protein.ActiveResidues>
 VAL166  LYS551  ARG553  GLY616  TRP617  ASP618  TYR619  PRO620  LYS621  CYS622 
 ASP623  PHE694  ASN695  SER759  ASP760  ASP761  ALA762  ILE779  LEU786  VAL792 
 PHE793  MET794  SER795  GLU796  ALA797  LYS798  CYS799  TRP800  GLU811  SER814 

> <Gold.Protein.RotatedAtoms>
  150.8965  133.7174  159.2890 H   0  0  0  0  0  0  0  0  0  0  0  0  # atno 6907 bound_to 6896
  151.4707  135.1044  159.9760 H   0  0  0  0  0  0  0  0  0  0  0  0  # atno 6908 bound_to 6896
  152.4851  133.8305  159.7156 H   0  0  0  0  0  0  0  0  0  0  0  0  # atno 6909 bound_to 6896
  146.2365  140.1927  142.8333 H   0  0  0  0  0  0  0  0  0  0  0  0  # atno 7974 bound_to 7965
  155.5297  140.3482  155.4423 H   0  0  0  0  0  0  0  0  0  0  0  0  # atno 8008 bound_to 7997
  156.0727  140.1367  156.9836 H   0  0  0  0  0  0  0  0  0  0  0  0  # atno 8009 bound_to 7997
  154.4537  140.0962  156.6668 H   0  0  0  0  0  0  0  0  0  0  0  0  # atno 8010 bound_to 7997
  139.9555  144.5997  150.8121 H   0  0  0  0  0  0  0  0  0  0  0  0  # atno 10167 bound_to 10162
  156.7581  130.9403  151.3117 H   0  0  0  0  0  0  0  0  0  0  0  0  # atno 10718 bound_to 10713
  153.0028  135.6270  154.2186 H   0  0  0  0  0  0  0  0  0  0  0  0  # atno 10763 bound_to 10752
  154.1929  135.2808  155.3017 H   0  0  0  0  0  0  0  0  0  0  0  0  # atno 10764 bound_to 10752
  154.5745  135.5666  153.7185 H   0  0  0  0  0  0  0  0  0  0  0  0  # atno 10765 bound_to 10752
  140.3566  134.7149  157.4303 H   0  0  0  0  0  0  0  0  0  0  0  0  # atno 11005 bound_to 11000
  144.9845  140.8490  143.5377 LP  0  0  0  0  0  0  0  0  0  0  0  0  # atno 17320 bound_to 7965
  145.1925  139.2293  143.5235 LP  0  0  0  0  0  0  0  0  0  0  0  0  # atno 17321 bound_to 7965
  140.7570  143.3077  151.2922 LP  0  0  0  0  0  0  0  0  0  0  0  0  # atno 17342 bound_to 10162
  139.6595  144.0215  152.2683 LP  0  0  0  0  0  0  0  0  0  0  0  0  # atno 17343 bound_to 10162
  157.6747  130.9083  150.0121 LP  0  0  0  0  0  0  0  0  0  0  0  0  # atno 17370 bound_to 10713
  156.1357  130.3643  149.9661 LP  0  0  0  0  0  0  0  0  0  0  0  0  # atno 17371 bound_to 10713
  140.0660  134.5929  155.8695 LP  0  0  0  0  0  0  0  0  0  0  0  0  # atno 17394 bound_to 11000
  141.1996  133.6608  156.5855 LP  0  0  0  0  0  0  0  0  0  0  0  0  # atno 17395 bound_to 11000

$$$$
