AV-unprocessed.smi:1793|AV-procd|sdf|7226|dock8
  -GOLD-   22720 8473D 1   1.00000     0.00000
 Structure written by MMmdl.
 46 48  0  0  0  0  0  0  0  0  1 V2000
  150.2851  137.0961  159.8365 C   0  0  0  0  0  0  0  0  0  0  0  0
  149.3381  135.9148  159.5802 C   0  0  2  0  0  0  0  0  0  0  0  0
  149.0533  135.8444  158.1480 N   0  0  0  0  0  0  0  0  0  0  0  0
  149.2760  134.7874  157.3532 C   0  0  0  0  0  0  0  0  0  0  0  0
  149.7605  133.7262  157.7456 O   0  0  0  0  0  0  0  0  0  0  0  0
  148.8794  135.0384  156.0948 N   0  0  0  0  0  0  0  0  0  0  0  0
  148.8401  134.1374  154.9940 C   0  0  0  0  0  0  0  0  0  0  0  0
  149.5981  132.9409  154.9917 C   0  0  0  0  0  0  0  0  0  0  0  0
  149.5792  132.1138  153.8557 C   0  0  0  0  0  0  0  0  0  0  0  0
  148.8141  132.5213  152.7507 C   0  0  0  0  0  0  0  0  0  0  0  0
  148.0999  133.6643  152.7306 N   0  0  0  0  0  0  0  0  0  0  0  0
  148.0952  134.4658  153.8245 C   0  0  0  0  0  0  0  0  0  0  0  0
  147.3155  135.6435  153.7476 N   0  0  0  0  0  0  0  0  0  0  0  0
  147.9259  136.9506  153.9656 C   0  0  0  0  0  0  0  0  0  0  0  0
  146.9048  137.9559  153.4415 C   0  0  0  0  0  0  0  0  0  0  0  0
  146.3064  137.2185  152.2477 C   0  0  0  0  0  0  0  0  0  0  0  0
  146.3206  135.7497  152.6841 C   0  0  0  0  0  0  0  0  0  0  0  0
  148.0306  136.0463  160.3891 C   0  0  1  0  0  0  0  0  0  0  0  0
  147.4999  134.7445  160.9904 C   0  0  0  0  0  0  0  0  0  0  0  0
  146.6258  135.2216  162.1368 C   0  0  0  0  0  0  0  0  0  0  0  0
  147.1284  136.6403  162.4203 C   0  0  0  0  0  0  0  0  0  0  0  0
  148.2363  136.8356  161.5505 O   0  0  0  0  0  0  0  0  0  0  0  0
  150.5520  137.1657  160.8913 H   0  0  0  0  0  0  0  0  0  0  0  0
  149.8280  138.0429  159.5467 H   0  0  0  0  0  0  0  0  0  0  0  0
  151.2114  136.9865  159.2717 H   0  0  0  0  0  0  0  0  0  0  0  0
  149.8536  135.0061  159.8969 H   0  0  0  0  0  0  0  0  0  0  0  0
  148.6466  136.6688  157.7311 H   0  0  0  0  0  0  0  0  0  0  0  0
  148.4267  135.9277  155.9408 H   0  0  0  0  0  0  0  0  0  0  0  0
  150.2107  132.6554  155.8331 H   0  0  0  0  0  0  0  0  0  0  0  0
  150.1477  131.1959  153.8285 H   0  0  0  0  0  0  0  0  0  0  0  0
  148.7793  131.9175  151.8561 H   0  0  0  0  0  0  0  0  0  0  0  0
  148.1519  137.1138  155.0196 H   0  0  0  0  0  0  0  0  0  0  0  0
  148.8518  137.0445  153.3965 H   0  0  0  0  0  0  0  0  0  0  0  0
  146.1353  138.1348  154.1939 H   0  0  0  0  0  0  0  0  0  0  0  0
  147.3501  138.9147  153.1746 H   0  0  0  0  0  0  0  0  0  0  0  0
  145.3096  137.5725  151.9829 H   0  0  0  0  0  0  0  0  0  0  0  0
  146.9512  137.3490  151.3775 H   0  0  0  0  0  0  0  0  0  0  0  0
  146.5413  135.0868  151.8462 H   0  0  0  0  0  0  0  0  0  0  0  0
  145.3453  135.4744  153.0862 H   0  0  0  0  0  0  0  0  0  0  0  0
  147.2533  136.5131  159.7804 H   0  0  0  0  0  0  0  0  0  0  0  0
  146.9570  134.1321  160.2696 H   0  0  0  0  0  0  0  0  0  0  0  0
  148.3249  134.1499  161.3854 H   0  0  0  0  0  0  0  0  0  0  0  0
  145.5758  135.2438  161.8432 H   0  0  0  0  0  0  0  0  0  0  0  0
  146.7186  134.5696  163.0060 H   0  0  0  0  0  0  0  0  0  0  0  0
  146.3547  137.3744  162.1917 H   0  0  0  0  0  0  0  0  0  0  0  0
  147.4283  136.7753  163.4596 H   0  0  0  0  0  0  0  0  0  0  0  0
  1  2  1  0  0  0  0
  1 23  1  0  0  0  0
  1 24  1  0  0  0  0
  1 25  1  0  0  0  0
  2  3  1  0  0  0  0
  2 18  1  0  0  0  0
  2 26  1  0  0  0  0
  3  4  1  0  0  0  0
  3 27  1  0  0  0  0
  4  5  2  0  0  0  0
  4  6  1  0  0  0  0
  6  7  1  0  0  0  0
  6 28  1  0  0  0  0
  7 12  1  0  0  0  0
  7  8  2  0  0  0  0
  8  9  1  0  0  0  0
  8 29  1  0  0  0  0
  9 10  2  0  0  0  0
  9 30  1  0  0  0  0
 10 11  1  0  0  0  0
 10 31  1  0  0  0  0
 11 12  2  0  0  0  0
 12 13  1  0  0  0  0
 13 17  1  0  0  0  0
 13 14  1  0  0  0  0
 14 15  1  0  0  0  0
 14 32  1  0  0  0  0
 14 33  1  0  0  0  0
 15 16  1  0  0  0  0
 15 34  1  0  0  0  0
 15 35  1  0  0  0  0
 16 17  1  0  0  0  0
 16 36  1  0  0  0  0
 16 37  1  0  0  0  0
 17 38  1  0  0  0  0
 17 39  1  0  0  0  0
 18 22  1  0  0  0  0
 18 19  1  0  0  0  0
 18 40  1  0  0  0  0
 19 20  1  0  0  0  0
 19 41  1  0  0  0  0
 19 42  1  0  0  0  0
 20 21  1  0  0  0  0
 20 43  1  0  0  0  0
 20 44  1  0  0  0  0
 21 22  1  0  0  0  0
 21 45  1  0  0  0  0
 21 46  1  0  0  0  0
M  END
> <s_m_source_file>
AV-unprocessed.smi

> <i_m_source_file_index>
1793

> <i_lp_mmshare_version>
43012

> <i_f3d_flags>
0

> <s_epik_input>
TzFbQ0gyXVtDSDJdW0NIMl1bQ0BIXTFbQ0BIXShbQ0gzXSlbTkhdQyg9TylbTkhdYzJbY0hdW2NIXVtjSF1uYzJOM1tDSDJdW0NIMl1bQ0gyXVtDSDJdMw==

> <s_epik_cmdline>
J2VwaWtfcHl0aG9uJywgJy1waCcsICc3LjAnLCAnLXRuJywgJzgnLCAnLW1hJywgJzIwMCcsICctbWV0YWxfYmluZGluZycsICctaW1hZScsICc8aW5maWxlLm1hZT4nLCAnLW9tYWUnLCAnPG91dGZpbGUubWFlPic=

> <r_lp_tautomer_probability>
1

> <r_epik_Ionization_Penalty>
0.0992086

> <r_epik_Ionization_Penalty_Charging>
0

> <r_epik_Ionization_Penalty_Neutral>
0.0992086

> <r_epik_State_Penalty>
0.0887141

> <r_epik_Charging_Adjusted_Penalty>
0.0887141

> <i_epik_Tot_Q>
0

> <i_epik_Tot_abs_Q>
0

> <r_epik_Metal_State_Penalty>
0.075945

> <b_epik_Metal_Only>
0

> <s_lp_Force_Field>
OPLS_2005

> <r_lp_Energy>
46.1922

> <b_lp_Chiralities_Consistent>
1

> <s_lp_Variant>
AV-unprocessed.smi:1793-3

> <Gold.Version>
5.8.1

> <Gold.Id.Protein>
6NUR|6NUR_protein|mol2

> <Gold.PLP.Fitness>
36.2540

> <Gold.PLP.PLP>
-27.1288

> <Gold.PLP.part.hbond>
-3.0000

> <Gold.PLP.part.metal>
0.0000

> <Gold.PLP.part.buried>
-1.5483

> <Gold.PLP.part.nonpolar>
-22.6909

> <Gold.PLP.part.repulsive>
0.2458

> <Gold.PLP.ligand.clash>
0.0000

> <Gold.PLP.ligand.torsion>
1.2941

> <Gold.PLP.Chemscore.Hbond>
2.7840

> <Gold.PLP.Chemscore.CHOScore>
1.0000

> <Gold.PLP.Chemscore.Metal>
0.0000

> <Gold.Chemscore.Hbonds>
donor molecule, donor type, donor heavy atom, donor atom, acceptor molecule, acceptor atom, score
      P1  H  6896  6909       L1     5  1.00
      P1  H  6931  6943       L1    22  1.00
      L1  C    10    31       P1 10747  0.66

> <Gold.PLP.Chemscore.Internal.Correction>
0.3615

> <Gold.Rescore>
     Score         DG    S(hbond)    S(metal)    S(lipo)     H(rot)  DE(clash)    DE(int)     intcor
     15.83     -18.34       2.55        0.00      66.82       1.36       0.09       2.43       ----

> <Gold.Chemscore.Fitness>
15.8311

> <Gold.Chemscore.DG>
-18.3420

> <Gold.Chemscore.ZeroCoef>
-5.4800

> <Gold.Chemscore.Hbond>
2.5511

> <Gold.Chemscore.Metal>
0.0000

> <Gold.Chemscore.Lipo>
66.8246

> <Gold.Chemscore.Internal_Hbond>
0.0000

> <Gold.Chemscore.DEClash>
0.0854

> <Gold.Chemscore.DEInternal>
2.4255

> <Gold.Chemscore.Rot>
1.3582

> <Gold.Chemscore.Internal.Correction>
   9.000000E+99

> <Gold.Chemscore.Hbonds>
donor molecule, donor type, donor heavy atom, donor atom, acceptor molecule, acceptor atom, score
      P1  H  6896  6909       L1     5  0.78
      P1  H  6931  6943       L1    22  0.78

> <Gold.Chemscore.Hbond.Weighted>
-8.5206

> <Gold.Chemscore.Metal.Weighted>
-0.0000

> <Gold.Chemscore.Lipo.Weighted>
-7.8185

> <Gold.Chemscore.Internal_Hbond.Weighted>
0.0000

> <Gold.Chemscore.DEClash.Weighted>
0.0854

> <Gold.Chemscore.DEInternal.Weighted>
2.4255

> <Gold.Chemscore.Rot.Weighted>
3.4771

> <Gold.Chemscore.Internal.Correction.Weighted>
   9.000000E+99

> <Gold.Protein.RotatedTorsions>
[ 6907 6896 6895 6894 ] final   11.45 input  -60.11 | X-H torsion
[ 7974 7965 7964 7962 ] final  118.86 input  175.53 | X-H torsion
[ 8008 7997 7996 7995 ] final -132.88 input   59.86 | X-H torsion
[ 10167 10162 10161 10158 ] final -172.87 input  -65.29 | X-H torsion
[ 10718 10713 10712 10709 ] final -113.35 input   66.30 | X-H torsion
[ 10763 10752 10751 10750 ] final -163.87 input  -60.55 | X-H torsion
[ 11005 11000 10999 10996 ] final   -2.10 input  -57.11 | X-H torsion

> <Gold.Protein.ActiveResidues>
 VAL166  LYS551  ARG553  GLY616  TRP617  ASP618  TYR619  PRO620  LYS621  CYS622 
 ASP623  PHE694  ASN695  SER759  ASP760  ASP761  ALA762  ILE779  LEU786  VAL792 
 PHE793  MET794  SER795  GLU796  ALA797  LYS798  CYS799  TRP800  GLU811  SER814 

> <Gold.Protein.RotatedAtoms>
  151.7545  135.0825  160.0335 H   0  0  0  0  0  0  0  0  0  0  0  0  # atno 6907 bound_to 6896
  152.3394  133.6045  159.5874 H   0  0  0  0  0  0  0  0  0  0  0  0  # atno 6908 bound_to 6896
  150.7470  133.9661  159.3572 H   0  0  0  0  0  0  0  0  0  0  0  0  # atno 6909 bound_to 6896
  145.1501  139.3215  143.4571 H   0  0  0  0  0  0  0  0  0  0  0  0  # atno 7974 bound_to 7965
  155.3362  140.0469  157.3044 H   0  0  0  0  0  0  0  0  0  0  0  0  # atno 8008 bound_to 7997
  154.5301  140.2254  155.8784 H   0  0  0  0  0  0  0  0  0  0  0  0  # atno 8009 bound_to 7997
  156.1780  140.3080  155.9101 H   0  0  0  0  0  0  0  0  0  0  0  0  # atno 8010 bound_to 7997
  139.5720  144.1620  152.1397 H   0  0  0  0  0  0  0  0  0  0  0  0  # atno 10167 bound_to 10162
  156.0761  130.5968  150.8631 H   0  0  0  0  0  0  0  0  0  0  0  0  # atno 10718 bound_to 10713
  154.7082  135.3001  154.9238 H   0  0  0  0  0  0  0  0  0  0  0  0  # atno 10763 bound_to 10752
  154.0148  135.6690  153.4772 H   0  0  0  0  0  0  0  0  0  0  0  0  # atno 10764 bound_to 10752
  153.0734  135.5048  154.8265 H   0  0  0  0  0  0  0  0  0  0  0  0  # atno 10765 bound_to 10752
  140.6547  133.9373  155.8400 H   0  0  0  0  0  0  0  0  0  0  0  0  # atno 11005 bound_to 11000
  146.3495  140.1572  142.8591 LP  0  0  0  0  0  0  0  0  0  0  0  0  # atno 17320 bound_to 7965
  145.0440  140.8967  143.5035 LP  0  0  0  0  0  0  0  0  0  0  0  0  # atno 17321 bound_to 7965
  140.1154  144.5420  150.6897 LP  0  0  0  0  0  0  0  0  0  0  0  0  # atno 17342 bound_to 10162
  140.7004  143.2431  151.4880 LP  0  0  0  0  0  0  0  0  0  0  0  0  # atno 17343 bound_to 10162
  157.5857  131.0945  150.9199 LP  0  0  0  0  0  0  0  0  0  0  0  0  # atno 17370 bound_to 10713
  156.9386  130.5376  149.5280 LP  0  0  0  0  0  0  0  0  0  0  0  0  # atno 17371 bound_to 10713
  141.0510  134.0484  157.3783 LP  0  0  0  0  0  0  0  0  0  0  0  0  # atno 17394 bound_to 11000
  139.9033  135.0172  156.7373 LP  0  0  0  0  0  0  0  0  0  0  0  0  # atno 17395 bound_to 11000

$$$$
