AV-unprocessed.smi:2124|AV-procd|sdf|8667|dock10
  -GOLD-   2272011413D 1   1.00000     0.00000
 Structure written by MMmdl.
 46 48  0  0  0  0  0  0  0  0  2 V2000
  152.7349  131.9654  157.5599 C   0  0  0  0  0  0  0  0  0  0  0  0
  151.8307  131.3916  156.4899 C   0  0  0  0  0  0  0  0  0  0  0  0
  150.9947  132.1581  155.8995 N   0  0  0  0  0  0  0  0  0  0  0  0
  150.1515  131.6285  154.9077 C   0  0  0  0  0  0  0  0  0  0  0  0
  149.1867  132.6092  154.2641 C   0  0  0  0  0  0  0  0  0  0  0  0
  150.2098  130.3102  154.5629 C   0  0  0  0  0  0  0  0  0  0  0  0
  149.3107  129.6788  153.4998 C   0  0  0  0  0  0  0  0  0  0  0  0
  147.8215  130.0264  153.5705 C   0  0  0  0  0  0  0  0  0  0  0  0
  147.1117  129.5855  154.4752 O   0  0  0  0  0  0  0  0  0  0  0  0
  147.3626  130.8212  152.5919 N   0  0  0  0  0  0  0  0  0  0  0  0
  145.9802  131.2657  152.4313 C   0  0  1  0  0  0  0  0  0  0  0  0
  145.6821  132.3721  153.4562 C   0  0  0  0  0  0  0  0  0  0  0  0
  145.7494  131.7376  150.9765 C   0  0  2  0  0  0  0  0  0  0  0  0
  146.2532  133.1657  150.6688 C   0  0  0  0  0  0  0  0  0  0  0  0
  145.0382  133.8235  149.9874 C   0  0  2  0  0  0  0  0  0  0  0  0
  143.9659  134.1236  151.0510 C   0  0  0  0  0  0  0  0  0  0  0  0
  143.4218  132.7231  151.3858 C   0  0  0  0  0  0  0  0  0  0  0  0
  144.2781  131.8011  150.4928 C   0  0  1  0  0  0  0  0  0  0  0  0
  144.4169  132.6524  149.2349 C   0  0  0  0  0  0  0  0  0  0  0  0
  151.1952  129.4636  155.2582 C   0  0  0  0  0  0  0  0  0  0  0  0
  151.3029  128.2723  154.9697 O   0  0  0  0  0  0  0  0  0  0  0  0
  151.9710  130.0498  156.2143 N   0  5  0  0  0  0  0  0  0  0  0  0
  152.4928  133.0097  157.7610 H   0  0  0  0  0  0  0  0  0  0  0  0
  153.7766  131.9104  157.2425 H   0  0  0  0  0  0  0  0  0  0  0  0
  152.6259  131.4051  158.4891 H   0  0  0  0  0  0  0  0  0  0  0  0
  149.2960  132.6026  153.1796 H   0  0  0  0  0  0  0  0  0  0  0  0
  149.3687  133.6269  154.6108 H   0  0  0  0  0  0  0  0  0  0  0  0
  148.1577  132.3496  154.5116 H   0  0  0  0  0  0  0  0  0  0  0  0
  149.6830  129.9205  152.5034 H   0  0  0  0  0  0  0  0  0  0  0  0
  149.3962  128.5945  153.5690 H   0  0  0  0  0  0  0  0  0  0  0  0
  148.0226  131.1363  151.8958 H   0  0  0  0  0  0  0  0  0  0  0  0
  145.3022  130.4366  152.6377 H   0  0  0  0  0  0  0  0  0  0  0  0
  144.6489  132.7119  153.3858 H   0  0  0  0  0  0  0  0  0  0  0  0
  146.3280  133.2379  153.3064 H   0  0  0  0  0  0  0  0  0  0  0  0
  145.8377  132.0144  154.4747 H   0  0  0  0  0  0  0  0  0  0  0  0
  146.2748  131.0443  150.3167 H   0  0  0  0  0  0  0  0  0  0  0  0
  146.5595  133.7137  151.5607 H   0  0  0  0  0  0  0  0  0  0  0  0
  147.1095  133.1310  149.9940 H   0  0  0  0  0  0  0  0  0  0  0  0
  145.2951  134.6857  149.3714 H   0  0  0  0  0  0  0  0  0  0  0  0
  144.3783  134.6298  151.9247 H   0  0  0  0  0  0  0  0  0  0  0  0
  143.1754  134.7537  150.6413 H   0  0  0  0  0  0  0  0  0  0  0  0
  143.4892  132.4853  152.4469 H   0  0  0  0  0  0  0  0  0  0  0  0
  142.3700  132.6509  151.1064 H   0  0  0  0  0  0  0  0  0  0  0  0
  143.8304  130.8210  150.3254 H   0  0  0  0  0  0  0  0  0  0  0  0
  143.4611  132.8959  148.7674 H   0  0  0  0  0  0  0  0  0  0  0  0
  145.0810  132.2183  148.4853 H   0  0  0  0  0  0  0  0  0  0  0  0
  1  2  1  0  0  0  0
  1 23  1  0  0  0  0
  1 24  1  0  0  0  0
  1 25  1  0  0  0  0
  2 22  1  0  0  0  0
  2  3  2  0  0  0  0
  3  4  1  0  0  0  0
  4  5  1  0  0  0  0
  4  6  2  0  0  0  0
  5 26  1  0  0  0  0
  5 27  1  0  0  0  0
  5 28  1  0  0  0  0
  6  7  1  0  0  0  0
  6 20  1  0  0  0  0
  7  8  1  0  0  0  0
  7 29  1  0  0  0  0
  7 30  1  0  0  0  0
  8  9  2  0  0  0  0
  8 10  1  0  0  0  0
 10 11  1  0  0  0  0
 10 31  1  0  0  0  0
 11 12  1  0  0  0  0
 11 13  1  0  0  0  0
 11 32  1  0  0  0  0
 12 33  1  0  0  0  0
 12 34  1  0  0  0  0
 12 35  1  0  0  0  0
 13 18  1  0  0  0  0
 13 14  1  0  0  0  0
 13 36  1  0  0  0  0
 14 15  1  0  0  0  0
 14 37  1  0  0  0  0
 14 38  1  0  0  0  0
 15 19  1  0  0  0  0
 15 16  1  0  0  0  0
 15 39  1  0  0  0  0
 16 17  1  0  0  0  0
 16 40  1  0  0  0  0
 16 41  1  0  0  0  0
 17 18  1  0  0  0  0
 17 42  1  0  0  0  0
 17 43  1  0  0  0  0
 18 19  1  0  0  0  0
 18 44  1  0  0  0  0
 19 45  1  0  0  0  0
 19 46  1  0  0  0  0
 20 21  2  0  0  0  0
 20 22  1  0  0  0  0
M  CHG  1  22  -1
M  END
> <s_m_source_file>
AV-unprocessed.smi

> <i_m_source_file_index>
2124

> <i_lp_mmshare_version>
43012

> <i_f3d_flags>
0

> <s_epik_input>
W0NIM11jMW5jKFtDSDNdKWMoYyg9TylbbkhdMSlbQ0gyXUMoPU8pW05IXVtDQEhdKFtDSDNdKVtDQEhdKFtDSDJdW0NASF0yMylbQ0BIXShbQ0gyXTMpW0NIMl1bQ0gyXTI=

> <s_epik_cmdline>
J2VwaWtfcHl0aG9uJywgJy1waCcsICc3LjAnLCAnLXRuJywgJzgnLCAnLW1hJywgJzIwMCcsICctbWV0YWxfYmluZGluZycsICctaW1hZScsICc8aW5maWxlLm1hZT4nLCAnLW9tYWUnLCAnPG91dGZpbGUubWFlPic=

> <r_lp_tautomer_probability>
0.839158

> <r_epik_Ionization_Penalty>
6.63797

> <r_epik_Ionization_Penalty_Charging>
7.48558e-08

> <r_epik_Ionization_Penalty_Neutral>
6.63797

> <r_epik_State_Penalty>
4.49496

> <r_epik_Charging_Adjusted_Penalty>
4.49496

> <i_epik_Tot_Q>
-1

> <i_epik_Tot_abs_Q>
1

> <r_epik_Metal_State_Penalty>
0.841241

> <b_epik_Metal_Only>
1

> <s_lp_Force_Field>
OPLS_2005

> <r_lp_Energy>
55.4984

> <b_lp_Chiralities_Consistent>
1

> <s_lp_Variant>
AV-unprocessed.smi:2124-18

> <Gold.Version>
5.8.1

> <Gold.Id.Protein>
6NUR|6NUR_protein|mol2

> <Gold.PLP.Fitness>
38.6041

> <Gold.PLP.PLP>
-37.2855

> <Gold.PLP.part.hbond>
-1.0000

> <Gold.PLP.part.metal>
0.0000

> <Gold.PLP.part.buried>
-3.0339

> <Gold.PLP.part.nonpolar>
-32.3801

> <Gold.PLP.part.repulsive>
0.1703

> <Gold.PLP.ligand.clash>
0.0000

> <Gold.PLP.ligand.torsion>
0.8466

> <Gold.PLP.Chemscore.Hbond>
1.0000

> <Gold.PLP.Chemscore.CHOScore>
0.0000

> <Gold.PLP.Chemscore.Metal>
0.0000

> <Gold.Chemscore.Hbonds>
donor molecule, donor type, donor heavy atom, donor atom, acceptor molecule, acceptor atom, score
      L1  H    10    31       P1 10747  1.00

> <Gold.PLP.Chemscore.Internal.Correction>
0.0119

> <Gold.Rescore>
     Score         DG    S(hbond)    S(metal)    S(lipo)     H(rot)  DE(clash)    DE(int)     intcor
     15.45     -16.37       1.00        0.00      99.74       1.61       0.16       0.76       ----

> <Gold.Chemscore.Fitness>
15.4520

> <Gold.Chemscore.DG>
-16.3659

> <Gold.Chemscore.ZeroCoef>
-5.4800

> <Gold.Chemscore.Hbond>
0.9956

> <Gold.Chemscore.Metal>
0.0000

> <Gold.Chemscore.Lipo>
99.7409

> <Gold.Chemscore.Internal_Hbond>
0.0000

> <Gold.Chemscore.DEClash>
0.1576

> <Gold.Chemscore.DEInternal>
0.7563

> <Gold.Chemscore.Rot>
1.6051

> <Gold.Chemscore.Internal.Correction>
   9.000000E+99

> <Gold.Chemscore.Hbonds>
donor molecule, donor type, donor heavy atom, donor atom, acceptor molecule, acceptor atom, score
      L1  H    10    31       P1 10747  0.94

> <Gold.Chemscore.Hbond.Weighted>
-3.3252

> <Gold.Chemscore.Metal.Weighted>
-0.0000

> <Gold.Chemscore.Lipo.Weighted>
-11.6697

> <Gold.Chemscore.Internal_Hbond.Weighted>
0.0000

> <Gold.Chemscore.DEClash.Weighted>
0.1576

> <Gold.Chemscore.DEInternal.Weighted>
0.7563

> <Gold.Chemscore.Rot.Weighted>
4.1090

> <Gold.Chemscore.Internal.Correction.Weighted>
   9.000000E+99

> <Gold.Protein.RotatedTorsions>
[ 6907 6896 6895 6894 ] final  -51.02 input  -60.11 | X-H torsion
[ 7974 7965 7964 7962 ] final   65.79 input  175.53 | X-H torsion
[ 8008 7997 7996 7995 ] final   45.50 input   59.86 | X-H torsion
[ 10167 10162 10161 10158 ] final   51.46 input  -65.29 | X-H torsion
[ 10718 10713 10712 10709 ] final -115.99 input   66.30 | X-H torsion
[ 10763 10752 10751 10750 ] final -123.32 input  -60.55 | X-H torsion
[ 11005 11000 10999 10996 ] final -170.52 input  -57.11 | X-H torsion

> <Gold.Protein.ActiveResidues>
 VAL166  LYS551  ARG553  GLY616  TRP617  ASP618  TYR619  PRO620  LYS621  CYS622 
 ASP623  PHE694  ASN695  SER759  ASP760  ASP761  ALA762  ILE779  LEU786  VAL792 
 PHE793  MET794  SER795  GLU796  ALA797  LYS798  CYS799  TRP800  GLU811  SER814 

> <Gold.Protein.RotatedAtoms>
  150.8651  134.8013  159.7112 H   0  0  0  0  0  0  0  0  0  0  0  0  # atno 6907 bound_to 6896
  152.4675  134.5036  159.9742 H   0  0  0  0  0  0  0  0  0  0  0  0  # atno 6908 bound_to 6896
  151.5134  133.3442  159.2924 H   0  0  0  0  0  0  0  0  0  0  0  0  # atno 6909 bound_to 6896
  145.8342  139.3157  143.0969 H   0  0  0  0  0  0  0  0  0  0  0  0  # atno 7974 bound_to 7965
  155.3370  140.3406  155.4239 H   0  0  0  0  0  0  0  0  0  0  0  0  # atno 8008 bound_to 7997
  156.1833  140.1671  156.8270 H   0  0  0  0  0  0  0  0  0  0  0  0  # atno 8009 bound_to 7997
  154.5357  140.0735  156.8407 H   0  0  0  0  0  0  0  0  0  0  0  0  # atno 8010 bound_to 7997
  140.2617  144.3365  150.6316 H   0  0  0  0  0  0  0  0  0  0  0  0  # atno 10167 bound_to 10162
  156.0933  130.6111  150.8977 H   0  0  0  0  0  0  0  0  0  0  0  0  # atno 10718 bound_to 10713
  154.8705  135.4102  154.2924 H   0  0  0  0  0  0  0  0  0  0  0  0  # atno 10763 bound_to 10752
  153.3798  135.7011  153.6580 H   0  0  0  0  0  0  0  0  0  0  0  0  # atno 10764 bound_to 10752
  153.5407  135.3648  155.2688 H   0  0  0  0  0  0  0  0  0  0  0  0  # atno 10765 bound_to 10752
  140.5185  134.5732  157.5041 H   0  0  0  0  0  0  0  0  0  0  0  0  # atno 11005 bound_to 11000
  145.9537  140.8889  143.0246 LP  0  0  0  0  0  0  0  0  0  0  0  0  # atno 17320 bound_to 7965
  144.6737  140.1715  143.7414 LP  0  0  0  0  0  0  0  0  0  0  0  0  # atno 17321 bound_to 7965
  140.5960  143.2167  151.7163 LP  0  0  0  0  0  0  0  0  0  0  0  0  # atno 17342 bound_to 10162
  139.5015  144.3866  152.0322 LP  0  0  0  0  0  0  0  0  0  0  0  0  # atno 17343 bound_to 10162
  157.6087  131.0937  150.8833 LP  0  0  0  0  0  0  0  0  0  0  0  0  # atno 17370 bound_to 10713
  156.8976  130.5235  149.5284 LP  0  0  0  0  0  0  0  0  0  0  0  0  # atno 17371 bound_to 10713
  139.9619  134.7438  156.0220 LP  0  0  0  0  0  0  0  0  0  0  0  0  # atno 17394 bound_to 11000
  141.1347  133.6578  156.3560 LP  0  0  0  0  0  0  0  0  0  0  0  0  # atno 17395 bound_to 11000

$$$$
