AV-unprocessed.smi:3215|AV-procd|sdf|12285|dock1
  -GOLD-   2272018123D 1   1.00000     0.00000
 Structure written by MMmdl.
 38 39  0  0  0  0  0  0  0  0  2 V2000
  145.1971  133.0572  150.1135 C   0  0  0  0  0  0  0  0  0  0  0  0
  144.9694  134.3020  150.9221 C   0  0  0  0  0  0  0  0  0  0  0  0
  143.7287  134.8492  151.3564 C   0  0  0  0  0  0  0  0  0  0  0  0
  143.8756  135.9615  152.0576 N   0  0  0  0  0  0  0  0  0  0  0  0
  145.2100  136.1604  152.1010 N   0  0  0  0  0  0  0  0  0  0  0  0
  145.7484  137.3145  152.8000 C   0  0  0  0  0  0  0  0  0  0  0  0
  146.4515  138.3046  151.8556 C   0  0  0  0  0  0  0  0  0  0  0  0
  147.7801  138.6905  152.3716 N   0  3  0  0  0  0  0  0  0  0  0  0
  147.7469  139.4154  153.6579 C   0  0  0  0  0  0  0  0  0  0  0  0
  149.1073  140.0336  154.0111 C   0  0  0  0  0  0  0  0  0  0  0  0
  149.2551  141.2555  153.9512 O   0  0  0  0  0  0  0  0  0  0  0  0
  150.1081  139.2074  154.3788 N   0  0  0  0  0  0  0  0  0  0  0  0
  149.9620  137.7563  154.4756 C   0  0  0  0  0  0  0  0  0  0  0  0
  151.2331  137.2577  155.1627 C   0  0  0  0  0  0  0  0  0  0  0  0
  152.2728  138.3200  154.8345 C   0  0  0  0  0  0  0  0  0  0  0  0
  151.4663  139.6157  154.7369 C   0  0  0  0  0  0  0  0  0  0  0  0
  145.8935  135.1799  151.4133 C   0  0  0  0  0  0  0  0  0  0  0  0
  144.2611  132.5536  149.8712 H   0  0  0  0  0  0  0  0  0  0  0  0
  145.8190  132.3388  150.6478 H   0  0  0  0  0  0  0  0  0  0  0  0
  145.6971  133.2767  149.1702 H   0  0  0  0  0  0  0  0  0  0  0  0
  142.7313  134.4725  151.1838 H   0  0  0  0  0  0  0  0  0  0  0  0
  144.9364  137.8123  153.3319 H   0  0  0  0  0  0  0  0  0  0  0  0
  146.4473  136.9588  153.5581 H   0  0  0  0  0  0  0  0  0  0  0  0
  146.5698  137.8496  150.8716 H   0  0  0  0  0  0  0  0  0  0  0  0
  145.8405  139.1983  151.7199 H   0  0  0  0  0  0  0  0  0  0  0  0
  148.3290  137.8515  152.4971 H   0  0  0  0  0  0  0  0  0  0  0  0
  146.9943  140.2027  153.6014 H   0  0  0  0  0  0  0  0  0  0  0  0
  147.4496  138.7253  154.4487 H   0  0  0  0  0  0  0  0  0  0  0  0
  149.0704  137.4683  155.0350 H   0  0  0  0  0  0  0  0  0  0  0  0
  149.8813  137.3398  153.4706 H   0  0  0  0  0  0  0  0  0  0  0  0
  151.0758  137.2233  156.2416 H   0  0  0  0  0  0  0  0  0  0  0  0
  151.5277  136.2599  154.8364 H   0  0  0  0  0  0  0  0  0  0  0  0
  153.0724  138.3729  155.5739 H   0  0  0  0  0  0  0  0  0  0  0  0
  152.7258  138.0976  153.8673 H   0  0  0  0  0  0  0  0  0  0  0  0
  151.9064  140.2933  154.0043 H   0  0  0  0  0  0  0  0  0  0  0  0
  151.4432  140.1230  155.7025 H   0  0  0  0  0  0  0  0  0  0  0  0
  146.9710  135.1835  151.3346 H   0  0  0  0  0  0  0  0  0  0  0  0
  148.2404  139.2742  151.6877 H   0  0  0  0  0  0  0  0  0  0  0  0
  1  2  1  0  0  0  0
  1 18  1  0  0  0  0
  1 19  1  0  0  0  0
  1 20  1  0  0  0  0
  2 17  2  0  0  0  0
  2  3  1  0  0  0  0
  3  4  2  0  0  0  0
  3 21  1  0  0  0  0
  4  5  1  0  0  0  0
  5  6  1  0  0  0  0
  5 17  1  0  0  0  0
  6  7  1  0  0  0  0
  6 22  1  0  0  0  0
  6 23  1  0  0  0  0
  7  8  1  0  0  0  0
  7 24  1  0  0  0  0
  7 25  1  0  0  0  0
  8  9  1  0  0  0  0
  8 26  1  0  0  0  0
  8 38  1  0  0  0  0
  9 10  1  0  0  0  0
  9 27  1  0  0  0  0
  9 28  1  0  0  0  0
 10 11  2  0  0  0  0
 10 12  1  0  0  0  0
 12 16  1  0  0  0  0
 12 13  1  0  0  0  0
 13 14  1  0  0  0  0
 13 29  1  0  0  0  0
 13 30  1  0  0  0  0
 14 15  1  0  0  0  0
 14 31  1  0  0  0  0
 14 32  1  0  0  0  0
 15 16  1  0  0  0  0
 15 33  1  0  0  0  0
 15 34  1  0  0  0  0
 16 35  1  0  0  0  0
 16 36  1  0  0  0  0
 17 37  1  0  0  0  0
M  CHG  1   8   1
M  END
> <s_m_source_file>
AV-unprocessed.smi

> <i_m_source_file_index>
3215

> <i_lp_mmshare_version>
43012

> <i_f3d_flags>
0

> <s_epik_input>
W0NIM11jMVtjSF1ubihbY0hdMSlbQ0gyXVtDSDJdW05IXVtDSDJdQyg9TylOMltDSDJdW0NIMl1bQ0gyXVtDSDJdMg==

> <s_epik_cmdline>
J2VwaWtfcHl0aG9uJywgJy1waCcsICc3LjAnLCAnLXRuJywgJzgnLCAnLW1hJywgJzIwMCcsICctbWV0YWxfYmluZGluZycsICctaW1hZScsICc8aW5maWxlLm1hZT4nLCAnLW9tYWUnLCAnPG91dGZpbGUubWFlPic=

> <r_lp_tautomer_probability>
1

> <r_epik_Ionization_Penalty>
0.203173

> <r_epik_Ionization_Penalty_Charging>
0.203168

> <r_epik_Ionization_Penalty_Neutral>
4.79177e-06

> <r_epik_State_Penalty>
0.193773

> <r_epik_Charging_Adjusted_Penalty>
0.396942

> <i_epik_Tot_Q>
1

> <i_epik_Tot_abs_Q>
1

> <r_epik_Metal_State_Penalty>
0.194058

> <b_epik_Metal_Only>
0

> <s_lp_Force_Field>
OPLS_2005

> <r_lp_Energy>
25.9096

> <b_lp_Chiralities_Consistent>
1

> <s_lp_Variant>
AV-unprocessed.smi:3215-1

> <Gold.Version>
5.8.1

> <Gold.Id.Protein>
6NUR|6NUR_protein|mol2

> <Gold.PLP.Fitness>
48.3267

> <Gold.PLP.PLP>
-32.3816

> <Gold.PLP.part.hbond>
-3.9707

> <Gold.PLP.part.metal>
0.0000

> <Gold.PLP.part.buried>
2.8360

> <Gold.PLP.part.nonpolar>
-32.2829

> <Gold.PLP.part.repulsive>
0.7687

> <Gold.PLP.ligand.clash>
0.0000

> <Gold.PLP.ligand.torsion>
0.5216

> <Gold.PLP.Chemscore.Hbond>
3.6880

> <Gold.PLP.Chemscore.CHOScore>
1.9498

> <Gold.PLP.Chemscore.Metal>
0.0000

> <Gold.Chemscore.Hbonds>
donor molecule, donor type, donor heavy atom, donor atom, acceptor molecule, acceptor atom, score
      L1  H     8    26       P1  7948  1.98
      L1  H     8    38       P1  7957  1.00
      P1  H  8011  8017       L1    11  0.76
      L1  C     3    21       P1 10186  0.75
      L1  C    17    37       P1  7948  1.00

> <Gold.PLP.Chemscore.Internal.Correction>
0.0749

> <Gold.Rescore>
     Score         DG    S(hbond)    S(metal)    S(lipo)     H(rot)  DE(clash)    DE(int)     intcor
     15.77     -17.32       2.47        0.00      70.47       1.81       1.04       0.51       ----

> <Gold.Chemscore.Fitness>
15.7719

> <Gold.Chemscore.DG>
-17.3205

> <Gold.Chemscore.ZeroCoef>
-5.4800

> <Gold.Chemscore.Hbond>
2.4666

> <Gold.Chemscore.Metal>
0.0000

> <Gold.Chemscore.Lipo>
70.4713

> <Gold.Chemscore.Internal_Hbond>
0.0000

> <Gold.Chemscore.DEClash>
1.0423

> <Gold.Chemscore.DEInternal>
0.5063

> <Gold.Chemscore.Rot>
1.8137

> <Gold.Chemscore.Internal.Correction>
   9.000000E+99

> <Gold.Chemscore.Hbonds>
donor molecule, donor type, donor heavy atom, donor atom, acceptor molecule, acceptor atom, score
      L1  H     8    26       P1  7948  0.94
      L1  H     8    38       P1  7957  0.92
      P1  H  8011  8017       L1    11  0.72

> <Gold.Chemscore.Hbond.Weighted>
-8.2385

> <Gold.Chemscore.Metal.Weighted>
-0.0000

> <Gold.Chemscore.Lipo.Weighted>
-8.2451

> <Gold.Chemscore.Internal_Hbond.Weighted>
0.0000

> <Gold.Chemscore.DEClash.Weighted>
1.0423

> <Gold.Chemscore.DEInternal.Weighted>
0.5063

> <Gold.Chemscore.Rot.Weighted>
4.6431

> <Gold.Chemscore.Internal.Correction.Weighted>
   9.000000E+99

> <Gold.Protein.RotatedTorsions>
[ 6907 6896 6895 6894 ] final   58.79 input  -60.11 | X-H torsion
[ 7974 7965 7964 7962 ] final  145.06 input  175.53 | X-H torsion
[ 8008 7997 7996 7995 ] final   -8.80 input   59.86 | X-H torsion
[ 10167 10162 10161 10158 ] final  -61.34 input  -65.29 | X-H torsion
[ 10718 10713 10712 10709 ] final -163.99 input   66.30 | X-H torsion
[ 10763 10752 10751 10750 ] final  -98.26 input  -60.55 | X-H torsion
[ 11005 11000 10999 10996 ] final  116.78 input  -57.11 | X-H torsion

> <Gold.Protein.ActiveResidues>
 VAL166  LYS551  ARG553  GLY616  TRP617  ASP618  TYR619  PRO620  LYS621  CYS622 
 ASP623  PHE694  ASN695  SER759  ASP760  ASP761  ALA762  ILE779  LEU786  VAL792 
 PHE793  MET794  SER795  GLU796  ALA797  LYS798  CYS799  TRP800  GLU811  SER814 

> <Gold.Protein.RotatedAtoms>
  152.3856  134.6522  160.0126 H   0  0  0  0  0  0  0  0  0  0  0  0  # atno 6907 bound_to 6896
  151.6771  133.3307  159.3218 H   0  0  0  0  0  0  0  0  0  0  0  0  # atno 6908 bound_to 6896
  150.7783  134.6749  159.6456 H   0  0  0  0  0  0  0  0  0  0  0  0  # atno 6909 bound_to 6896
  144.8784  139.5737  143.5854 H   0  0  0  0  0  0  0  0  0  0  0  0  # atno 7974 bound_to 7965
  154.5706  140.2371  155.8197 H   0  0  0  0  0  0  0  0  0  0  0  0  # atno 8008 bound_to 7997
  156.2104  140.3028  155.9677 H   0  0  0  0  0  0  0  0  0  0  0  0  # atno 8009 bound_to 7997
  155.2719  140.0418  157.2998 H   0  0  0  0  0  0  0  0  0  0  0  0  # atno 8010 bound_to 7997
  140.6012  143.2362  151.5924 H   0  0  0  0  0  0  0  0  0  0  0  0  # atno 10167 bound_to 10162
  156.6326  130.8936  151.2980 H   0  0  0  0  0  0  0  0  0  0  0  0  # atno 10718 bound_to 10713
  154.7399  135.5016  153.9105 H   0  0  0  0  0  0  0  0  0  0  0  0  # atno 10763 bound_to 10752
  153.1033  135.6690  153.9641 H   0  0  0  0  0  0  0  0  0  0  0  0  # atno 10764 bound_to 10752
  153.9421  135.3066  155.3421 H   0  0  0  0  0  0  0  0  0  0  0  0  # atno 10765 bound_to 10752
  139.9052  134.9602  156.7251 H   0  0  0  0  0  0  0  0  0  0  0  0  # atno 11005 bound_to 11000
  146.2978  139.7332  142.9114 LP  0  0  0  0  0  0  0  0  0  0  0  0  # atno 17320 bound_to 7965
  145.4000  141.0384  143.3076 LP  0  0  0  0  0  0  0  0  0  0  0  0  # atno 17321 bound_to 7965
  139.5292  144.2966  152.1108 LP  0  0  0  0  0  0  0  0  0  0  0  0  # atno 17342 bound_to 10162
  140.2147  144.4527  150.6369 LP  0  0  0  0  0  0  0  0  0  0  0  0  # atno 17343 bound_to 10162
  157.7195  130.9540  150.1383 LP  0  0  0  0  0  0  0  0  0  0  0  0  # atno 17370 bound_to 10713
  156.2222  130.3675  149.8542 LP  0  0  0  0  0  0  0  0  0  0  0  0  # atno 17371 bound_to 10713
  140.6970  133.9340  155.8000 LP  0  0  0  0  0  0  0  0  0  0  0  0  # atno 17394 bound_to 11000
  141.0400  134.0635  157.3913 LP  0  0  0  0  0  0  0  0  0  0  0  0  # atno 17395 bound_to 11000

$$$$
