AV-unprocessed.smi:2996|AV-procd|sdf|11411|dock2
  -GOLD-   2272016333D 1   1.00000     0.00000
 Structure written by MMmdl.
 46 47  0  0  0  0  0  0  0  0  1 V2000
  151.8475  141.4999  158.7887 C   0  0  0  0  0  0  0  0  0  0  0  0
  151.9794  139.9762  158.6825 C   0  0  0  0  0  0  0  0  0  0  0  0
  151.8102  139.4943  157.2678 C   0  0  0  0  0  0  0  0  0  0  0  0
  152.6450  139.8986  156.3233 N   0  0  0  0  0  0  0  0  0  0  0  0
  152.2267  139.2782  155.1362 O   0  0  0  0  0  0  0  0  0  0  0  0
  151.1352  138.5075  155.3928 C   0  0  0  0  0  0  0  0  0  0  0  0
  150.5917  137.7313  154.2389 C   0  0  0  0  0  0  0  0  0  0  0  0
  150.8229  138.6338  156.7201 C   0  0  0  0  0  0  0  0  0  0  0  0
  149.7923  138.0118  157.4698 N   0  0  0  0  0  0  0  0  0  0  0  0
  149.8924  137.4734  158.6946 C   0  0  0  0  0  0  0  0  0  0  0  0
  150.9243  137.4287  159.3634 O   0  0  0  0  0  0  0  0  0  0  0  0
  148.7234  136.9554  159.0952 N   0  0  0  0  0  0  0  0  0  0  0  0
  148.5059  136.2450  160.3537 C   0  0  1  0  0  0  0  0  0  0  0  0
  147.3213  136.8047  161.1164 C   0  0  0  0  0  0  0  0  0  0  0  0
  146.8948  135.6310  162.0076 C   0  0  0  0  0  0  0  0  0  0  0  0
  147.6002  135.6610  163.3742 C   0  0  0  0  0  0  0  0  0  0  0  0
  145.3697  135.5517  162.1771 C   0  0  0  0  0  0  0  0  0  0  0  0
  147.3373  134.4556  161.3295 O   0  0  0  0  0  0  0  0  0  0  0  0
  148.1135  134.7628  160.1727 C   0  0  0  0  0  0  0  0  0  0  0  0
  147.2102  134.4884  158.9515 C   0  0  0  0  0  0  0  0  0  0  0  0
  149.3358  133.8315  160.1632 C   0  0  0  0  0  0  0  0  0  0  0  0
  151.9654  141.8291  159.8212 H   0  0  0  0  0  0  0  0  0  0  0  0
  150.8696  141.8347  158.4411 H   0  0  0  0  0  0  0  0  0  0  0  0
  152.6068  142.0041  158.1902 H   0  0  0  0  0  0  0  0  0  0  0  0
  152.9525  139.6694  159.0678 H   0  0  0  0  0  0  0  0  0  0  0  0
  151.2390  139.5045  159.3288 H   0  0  0  0  0  0  0  0  0  0  0  0
  150.2280  136.7560  154.5622 H   0  0  0  0  0  0  0  0  0  0  0  0
  151.3601  137.5662  153.4834 H   0  0  0  0  0  0  0  0  0  0  0  0
  149.7672  138.2655  153.7669 H   0  0  0  0  0  0  0  0  0  0  0  0
  148.9164  137.8762  156.9871 H   0  0  0  0  0  0  0  0  0  0  0  0
  147.9298  137.0360  158.4767 H   0  0  0  0  0  0  0  0  0  0  0  0
  149.3869  136.3248  160.9940 H   0  0  0  0  0  0  0  0  0  0  0  0
  147.5680  137.7049  161.6806 H   0  0  0  0  0  0  0  0  0  0  0  0
  146.5202  137.0649  160.4226 H   0  0  0  0  0  0  0  0  0  0  0  0
  147.3173  136.5459  163.9448 H   0  0  0  0  0  0  0  0  0  0  0  0
  148.6850  135.6699  163.2647 H   0  0  0  0  0  0  0  0  0  0  0  0
  147.3395  134.7855  163.9698 H   0  0  0  0  0  0  0  0  0  0  0  0
  144.9822  136.4398  162.6769 H   0  0  0  0  0  0  0  0  0  0  0  0
  145.0847  134.6834  162.7719 H   0  0  0  0  0  0  0  0  0  0  0  0
  144.8681  135.4660  161.2127 H   0  0  0  0  0  0  0  0  0  0  0  0
  147.7400  134.6566  158.0137 H   0  0  0  0  0  0  0  0  0  0  0  0
  146.3252  135.1249  158.9533 H   0  0  0  0  0  0  0  0  0  0  0  0
  146.8651  133.4540  158.9476 H   0  0  0  0  0  0  0  0  0  0  0  0
  149.9682  134.0164  159.2947 H   0  0  0  0  0  0  0  0  0  0  0  0
  149.0324  132.7846  160.1343 H   0  0  0  0  0  0  0  0  0  0  0  0
  149.9467  133.9709  161.0556 H   0  0  0  0  0  0  0  0  0  0  0  0
  1  2  1  0  0  0  0
  1 22  1  0  0  0  0
  1 23  1  0  0  0  0
  1 24  1  0  0  0  0
  2  3  1  0  0  0  0
  2 25  1  0  0  0  0
  2 26  1  0  0  0  0
  3  8  1  0  0  0  0
  3  4  2  0  0  0  0
  4  5  1  0  0  0  0
  5  6  1  0  0  0  0
  6  7  1  0  0  0  0
  6  8  2  0  0  0  0
  7 27  1  0  0  0  0
  7 28  1  0  0  0  0
  7 29  1  0  0  0  0
  8  9  1  0  0  0  0
  9 10  1  0  0  0  0
  9 30  1  0  0  0  0
 10 11  2  0  0  0  0
 10 12  1  0  0  0  0
 12 13  1  0  0  0  0
 12 31  1  0  0  0  0
 13 19  1  0  0  0  0
 13 14  1  0  0  0  0
 13 32  1  0  0  0  0
 14 15  1  0  0  0  0
 14 33  1  0  0  0  0
 14 34  1  0  0  0  0
 15 16  1  0  0  0  0
 15 17  1  0  0  0  0
 15 18  1  0  0  0  0
 16 35  1  0  0  0  0
 16 36  1  0  0  0  0
 16 37  1  0  0  0  0
 17 38  1  0  0  0  0
 17 39  1  0  0  0  0
 17 40  1  0  0  0  0
 18 19  1  0  0  0  0
 19 20  1  0  0  0  0
 19 21  1  0  0  0  0
 20 41  1  0  0  0  0
 20 42  1  0  0  0  0
 20 43  1  0  0  0  0
 21 44  1  0  0  0  0
 21 45  1  0  0  0  0
 21 46  1  0  0  0  0
M  END
> <s_m_source_file>
AV-unprocessed.smi

> <i_m_source_file_index>
2996

> <i_lp_mmshare_version>
43012

> <i_f3d_flags>
0

> <s_epik_input>
W0NIM11bQ0gyXWMxbm9jKFtDSDNdKWMxW05IXUMoPU8pW05IXVtDQEBIXShDKE8yKShbQ0gzXSlbQ0gzXSlbQ0gyXUMyKFtDSDNdKVtDSDNd

> <s_epik_cmdline>
J2VwaWtfcHl0aG9uJywgJy1waCcsICc3LjAnLCAnLXRuJywgJzgnLCAnLW1hJywgJzIwMCcsICctbWV0YWxfYmluZGluZycsICctaW1hZScsICc8aW5maWxlLm1hZT4nLCAnLW9tYWUnLCAnPG91dGZpbGUubWFlPic=

> <r_lp_tautomer_probability>
1

> <r_epik_Ionization_Penalty>
3.17207e-05

> <r_epik_Ionization_Penalty_Charging>
0

> <r_epik_Ionization_Penalty_Neutral>
3.17207e-05

> <r_epik_State_Penalty>
-0

> <r_epik_Charging_Adjusted_Penalty>
0

> <i_epik_Tot_Q>
0

> <i_epik_Tot_abs_Q>
0

> <r_epik_Metal_State_Penalty>
-0

> <b_epik_Metal_Only>
0

> <s_lp_Force_Field>
OPLS_2005

> <r_lp_Energy>
17.4613

> <b_lp_Chiralities_Consistent>
1

> <s_lp_Variant>
AV-unprocessed.smi:2996-2

> <Gold.Version>
5.8.1

> <Gold.Id.Protein>
6NUR|6NUR_protein|mol2

> <Gold.PLP.Fitness>
36.6615

> <Gold.PLP.PLP>
-28.5797

> <Gold.PLP.part.hbond>
-3.0000

> <Gold.PLP.part.metal>
0.0000

> <Gold.PLP.part.buried>
-5.1204

> <Gold.PLP.part.nonpolar>
-19.8048

> <Gold.PLP.part.repulsive>
0.2225

> <Gold.PLP.ligand.clash>
0.0000

> <Gold.PLP.ligand.torsion>
0.3792

> <Gold.PLP.Chemscore.Hbond>
2.8798

> <Gold.PLP.Chemscore.CHOScore>
0.0000

> <Gold.PLP.Chemscore.Metal>
0.0000

> <Gold.Chemscore.Hbonds>
donor molecule, donor type, donor heavy atom, donor atom, acceptor molecule, acceptor atom, score
      P1  H  6896  6908       L1    11  0.05
      P1  H  7989  7998       L1     5  0.19
      P1  H  7997  8010       L1     4  1.00

> <Gold.PLP.Chemscore.Internal.Correction>
0.2007

> <Gold.Rescore>
     Score         DG    S(hbond)    S(metal)    S(lipo)     H(rot)  DE(clash)    DE(int)     intcor
     19.00     -20.20       2.56        0.00      78.10       1.16       0.51       0.68       ----

> <Gold.Chemscore.Fitness>
19.0034

> <Gold.Chemscore.DG>
-20.1974

> <Gold.Chemscore.ZeroCoef>
-5.4800

> <Gold.Chemscore.Hbond>
2.5588

> <Gold.Chemscore.Metal>
0.0000

> <Gold.Chemscore.Lipo>
78.1031

> <Gold.Chemscore.Internal_Hbond>
0.0000

> <Gold.Chemscore.DEClash>
0.5092

> <Gold.Chemscore.DEInternal>
0.6848

> <Gold.Chemscore.Rot>
1.1590

> <Gold.Chemscore.Internal.Correction>
   9.000000E+99

> <Gold.Chemscore.Hbonds>
donor molecule, donor type, donor heavy atom, donor atom, acceptor molecule, acceptor atom, score
      P1  H  6896  6908       L1    11  0.03
      P1  H  7989  7998       L1     5  0.11
      P1  H  7997  8010       L1     4  0.55

> <Gold.Chemscore.Hbond.Weighted>
-8.5465

> <Gold.Chemscore.Metal.Weighted>
-0.0000

> <Gold.Chemscore.Lipo.Weighted>
-9.1381

> <Gold.Chemscore.Internal_Hbond.Weighted>
0.0000

> <Gold.Chemscore.DEClash.Weighted>
0.5092

> <Gold.Chemscore.DEInternal.Weighted>
0.6848

> <Gold.Chemscore.Rot.Weighted>
2.9671

> <Gold.Chemscore.Internal.Correction.Weighted>
   9.000000E+99

> <Gold.Protein.RotatedTorsions>
[ 6907 6896 6895 6894 ] final -150.08 input  -60.11 | X-H torsion
[ 7974 7965 7964 7962 ] final  -81.04 input  175.53 | X-H torsion
[ 8008 7997 7996 7995 ] final   88.56 input   59.86 | X-H torsion
[ 10167 10162 10161 10158 ] final  128.26 input  -65.29 | X-H torsion
[ 10718 10713 10712 10709 ] final  162.49 input   66.30 | X-H torsion
[ 10763 10752 10751 10750 ] final  -65.53 input  -60.55 | X-H torsion
[ 11005 11000 10999 10996 ] final  166.77 input  -57.11 | X-H torsion

> <Gold.Protein.ActiveResidues>
 VAL166  LYS551  ARG553  GLY616  TRP617  ASP618  TYR619  PRO620  LYS621  CYS622 
 ASP623  PHE694  ASN695  SER759  ASP760  ASP761  ALA762  ILE779  LEU786  VAL792 
 PHE793  MET794  SER795  GLU796  ALA797  LYS798  CYS799  TRP800  GLU811  SER814 

> <Gold.Protein.RotatedAtoms>
  151.1933  133.4654  159.2594 H   0  0  0  0  0  0  0  0  0  0  0  0  # atno 6907 bound_to 6896
  151.1142  135.0043  159.8518 H   0  0  0  0  0  0  0  0  0  0  0  0  # atno 6908 bound_to 6896
  152.5452  134.1850  159.8704 H   0  0  0  0  0  0  0  0  0  0  0  0  # atno 6909 bound_to 6896
  145.5520  140.9495  143.1494 H   0  0  0  0  0  0  0  0  0  0  0  0  # atno 7974 bound_to 7965
  155.9892  140.3370  155.6737 H   0  0  0  0  0  0  0  0  0  0  0  0  # atno 8008 bound_to 7997
  155.6443  140.0698  157.2626 H   0  0  0  0  0  0  0  0  0  0  0  0  # atno 8009 bound_to 7997
  154.4214  140.1737  156.1594 H   0  0  0  0  0  0  0  0  0  0  0  0  # atno 8010 bound_to 7997
  139.5536  144.6832  151.4249 H   0  0  0  0  0  0  0  0  0  0  0  0  # atno 10167 bound_to 10162
  157.1218  131.0494  151.2411 H   0  0  0  0  0  0  0  0  0  0  0  0  # atno 10718 bound_to 10713
  154.3463  135.6146  153.5621 H   0  0  0  0  0  0  0  0  0  0  0  0  # atno 10763 bound_to 10752
  152.9801  135.5782  154.4794 H   0  0  0  0  0  0  0  0  0  0  0  0  # atno 10764 bound_to 10752
  154.4507  135.2853  155.1760 H   0  0  0  0  0  0  0  0  0  0  0  0  # atno 10765 bound_to 10752
  140.2699  134.7835  157.3666 H   0  0  0  0  0  0  0  0  0  0  0  0  # atno 11005 bound_to 11000
  144.7525  139.7158  143.7267 LP  0  0  0  0  0  0  0  0  0  0  0  0  # atno 17320 bound_to 7965
  146.1910  139.5151  142.9805 LP  0  0  0  0  0  0  0  0  0  0  0  0  # atno 17321 bound_to 7965
  140.6804  143.8094  150.7114 LP  0  0  0  0  0  0  0  0  0  0  0  0  # atno 17342 bound_to 10162
  140.1546  143.4328  152.2108 LP  0  0  0  0  0  0  0  0  0  0  0  0  # atno 17343 bound_to 10162
  157.4469  130.7576  149.7117 LP  0  0  0  0  0  0  0  0  0  0  0  0  # atno 17370 bound_to 10713
  155.9827  130.4007  150.3404 LP  0  0  0  0  0  0  0  0  0  0  0  0  # atno 17371 bound_to 10713
  140.1383  134.5004  155.8051 LP  0  0  0  0  0  0  0  0  0  0  0  0  # atno 17394 bound_to 11000
  141.2179  133.6816  156.7165 LP  0  0  0  0  0  0  0  0  0  0  0  0  # atno 17395 bound_to 11000

$$$$
