AV-unprocessed.smi:695|AV-procd|sdf|3385|dock3
  -GOLD-   22720 0363D 1   1.00000     0.00000
 Structure written by MMmdl.
 39 40  0  0  0  0  0  0  0  0  2 V2000
  143.8624  144.2424  155.6706 C   0  0  0  0  0  0  0  0  0  0  0  0
  143.3236  142.8121  155.8193 C   0  0  0  0  0  0  0  0  0  0  0  0
  144.1037  141.8614  155.0355 N   0  0  0  0  0  0  0  0  0  0  0  0
  145.4173  141.6437  155.1849 C   0  0  0  0  0  0  0  0  0  0  0  0
  146.1141  142.1974  156.0361 O   0  0  0  0  0  0  0  0  0  0  0  0
  145.8899  140.7868  154.2672 N   0  0  0  0  0  0  0  0  0  0  0  0
  147.2964  140.4248  154.0949 C   0  0  0  0  0  0  0  0  0  0  0  0
  148.2391  141.6443  154.1706 C   0  0  0  0  0  0  0  0  0  0  0  0
  149.3997  141.4465  155.1020 C   0  0  0  0  0  0  0  0  0  0  0  0
  150.1746  140.3129  155.1226 C   0  0  0  0  0  0  0  0  0  0  0  0
  151.3759  140.3536  156.3792 S   0  0  0  0  0  0  0  0  0  0  0  0
  150.8259  141.9312  156.8596 C   0  0  0  0  0  0  0  0  0  0  0  0
  151.2908  142.6680  157.8819 N   0  0  0  0  0  0  0  0  0  0  0  0
  152.2625  142.1223  158.8121 C   0  0  0  0  0  0  0  0  0  0  0  0
  152.6503  143.3073  159.6956 C   0  0  0  0  0  0  0  0  0  0  0  0
  152.5339  144.5021  158.7475 C   0  0  0  0  0  0  0  0  0  0  0  0
  151.3920  144.1186  157.7990 C   0  0  0  0  0  0  0  0  0  0  0  0
  149.8100  142.3416  156.0863 N   0  3  0  0  0  0  0  0  0  0  0  0
  143.2451  144.9475  156.2274 H   0  0  0  0  0  0  0  0  0  0  0  0
  143.8652  144.5566  154.6266 H   0  0  0  0  0  0  0  0  0  0  0  0
  144.8816  144.3260  156.0490 H   0  0  0  0  0  0  0  0  0  0  0  0
  143.3132  142.5172  156.8699 H   0  0  0  0  0  0  0  0  0  0  0  0
  142.2904  142.7706  155.4745 H   0  0  0  0  0  0  0  0  0  0  0  0
  143.6145  141.3589  154.3093 H   0  0  0  0  0  0  0  0  0  0  0  0
  145.2347  140.3829  153.6139 H   0  0  0  0  0  0  0  0  0  0  0  0
  147.5886  139.6809  154.8380 H   0  0  0  0  0  0  0  0  0  0  0  0
  147.4055  139.9402  153.1245 H   0  0  0  0  0  0  0  0  0  0  0  0
  148.6007  141.8771  153.1684 H   0  0  0  0  0  0  0  0  0  0  0  0
  147.6649  142.5169  154.4845 H   0  0  0  0  0  0  0  0  0  0  0  0
  150.0918  139.4421  154.4889 H   0  0  0  0  0  0  0  0  0  0  0  0
  151.8457  141.3020  159.3974 H   0  0  0  0  0  0  0  0  0  0  0  0
  153.1284  141.7519  158.2615 H   0  0  0  0  0  0  0  0  0  0  0  0
  151.9311  143.4123  160.5094 H   0  0  0  0  0  0  0  0  0  0  0  0
  153.6433  143.2032  160.1339 H   0  0  0  0  0  0  0  0  0  0  0  0
  152.3534  145.4431  159.2678 H   0  0  0  0  0  0  0  0  0  0  0  0
  153.4600  144.6065  158.1803 H   0  0  0  0  0  0  0  0  0  0  0  0
  151.5905  144.4656  156.7840 H   0  0  0  0  0  0  0  0  0  0  0  0
  150.4502  144.5553  158.1319 H   0  0  0  0  0  0  0  0  0  0  0  0
  149.3519  143.2326  156.2296 H   0  0  0  0  0  0  0  0  0  0  0  0
  1  2  1  0  0  0  0
  1 19  1  0  0  0  0
  1 20  1  0  0  0  0
  1 21  1  0  0  0  0
  2  3  1  0  0  0  0
  2 22  1  0  0  0  0
  2 23  1  0  0  0  0
  3  4  1  0  0  0  0
  3 24  1  0  0  0  0
  4  5  2  0  0  0  0
  4  6  1  0  0  0  0
  6  7  1  0  0  0  0
  6 25  1  0  0  0  0
  7  8  1  0  0  0  0
  7 26  1  0  0  0  0
  7 27  1  0  0  0  0
  8  9  1  0  0  0  0
  8 28  1  0  0  0  0
  8 29  1  0  0  0  0
  9 18  1  0  0  0  0
  9 10  2  0  0  0  0
 10 11  1  0  0  0  0
 10 30  1  0  0  0  0
 11 12  1  0  0  0  0
 12 13  1  0  0  0  0
 12 18  2  0  0  0  0
 13 17  1  0  0  0  0
 13 14  1  0  0  0  0
 14 15  1  0  0  0  0
 14 31  1  0  0  0  0
 14 32  1  0  0  0  0
 15 16  1  0  0  0  0
 15 33  1  0  0  0  0
 15 34  1  0  0  0  0
 16 17  1  0  0  0  0
 16 35  1  0  0  0  0
 16 36  1  0  0  0  0
 17 37  1  0  0  0  0
 17 38  1  0  0  0  0
 18 39  1  0  0  0  0
M  CHG  1  18   1
M  END
> <s_m_source_file>
AV-unprocessed.smi

> <i_m_source_file_index>
695

> <i_lp_mmshare_version>
43012

> <i_f3d_flags>
0

> <s_epik_input>
W0NIM11bQ0gyXVtOSF1DKD1PKVtOSF1bQ0gyXVtDSDJdYzFbY0hdc2MobjEpTjJbQ0gyXVtDSDJdW0NIMl1bQ0gyXTI=

> <s_epik_cmdline>
J2VwaWtfcHl0aG9uJywgJy1waCcsICc3LjAnLCAnLXRuJywgJzgnLCAnLW1hJywgJzIwMCcsICctbWV0YWxfYmluZGluZycsICctaW1hZScsICc8aW5maWxlLm1hZT4nLCAnLW9tYWUnLCAnPG91dGZpbGUubWFlPic=

> <r_lp_tautomer_probability>
1

> <r_epik_Ionization_Penalty>
0.834564

> <r_epik_Ionization_Penalty_Charging>
0.834509

> <r_epik_Ionization_Penalty_Neutral>
5.51529e-05

> <r_epik_State_Penalty>
0.86869

> <r_epik_Charging_Adjusted_Penalty>
1.7032

> <i_epik_Tot_Q>
1

> <i_epik_Tot_abs_Q>
1

> <r_epik_Metal_State_Penalty>
1.00025

> <b_epik_Metal_Only>
0

> <s_lp_Force_Field>
OPLS_2005

> <r_lp_Energy>
27.3067

> <b_lp_Chiralities_Consistent>
1

> <s_lp_Variant>
AV-unprocessed.smi:695-2

> <Gold.Version>
5.8.1

> <Gold.Id.Protein>
6NUR|6NUR_protein|mol2

> <Gold.PLP.Fitness>
50.4800

> <Gold.PLP.PLP>
-40.0362

> <Gold.PLP.part.hbond>
-3.2741

> <Gold.PLP.part.metal>
0.0000

> <Gold.PLP.part.buried>
-3.7416

> <Gold.PLP.part.nonpolar>
-34.1486

> <Gold.PLP.part.repulsive>
0.2752

> <Gold.PLP.ligand.clash>
0.0000

> <Gold.PLP.ligand.torsion>
0.8823

> <Gold.PLP.Chemscore.Hbond>
3.9920

> <Gold.PLP.Chemscore.CHOScore>
0.0000

> <Gold.PLP.Chemscore.Metal>
0.0000

> <Gold.Chemscore.Hbonds>
donor molecule, donor type, donor heavy atom, donor atom, acceptor molecule, acceptor atom, score
      L1  H     3    24       P1 10175  0.99
      L1  H     6    25       P1 10175  1.00
      L1  H    18    39       P1  8028  2.00

> <Gold.PLP.Chemscore.Internal.Correction>
0.2324

> <Gold.Rescore>
     Score         DG    S(hbond)    S(metal)    S(lipo)     H(rot)  DE(clash)    DE(int)     intcor
     19.16     -20.01       2.66        0.00      86.62       1.75       0.06       0.79       ----

> <Gold.Chemscore.Fitness>
19.1566

> <Gold.Chemscore.DG>
-20.0113

> <Gold.Chemscore.ZeroCoef>
-5.4800

> <Gold.Chemscore.Hbond>
2.6555

> <Gold.Chemscore.Metal>
0.0000

> <Gold.Chemscore.Lipo>
86.6223

> <Gold.Chemscore.Internal_Hbond>
0.0000

> <Gold.Chemscore.DEClash>
0.0609

> <Gold.Chemscore.DEInternal>
0.7938

> <Gold.Chemscore.Rot>
1.7472

> <Gold.Chemscore.Internal.Correction>
   9.000000E+99

> <Gold.Chemscore.Hbonds>
donor molecule, donor type, donor heavy atom, donor atom, acceptor molecule, acceptor atom, score
      L1  H     3    24       P1 10175  0.32
      L1  H     6    25       P1 10175  0.95
      L1  H    18    39       P1  8028  0.94

> <Gold.Chemscore.Hbond.Weighted>
-8.8694

> <Gold.Chemscore.Metal.Weighted>
-0.0000

> <Gold.Chemscore.Lipo.Weighted>
-10.1348

> <Gold.Chemscore.Internal_Hbond.Weighted>
0.0000

> <Gold.Chemscore.DEClash.Weighted>
0.0609

> <Gold.Chemscore.DEInternal.Weighted>
0.7938

> <Gold.Chemscore.Rot.Weighted>
4.4729

> <Gold.Chemscore.Internal.Correction.Weighted>
   9.000000E+99

> <Gold.Protein.RotatedTorsions>
[ 6907 6896 6895 6894 ] final  177.26 input  -60.11 | X-H torsion
[ 7974 7965 7964 7962 ] final -169.73 input  175.53 | X-H torsion
[ 8008 7997 7996 7995 ] final -140.64 input   59.86 | X-H torsion
[ 10167 10162 10161 10158 ] final   36.24 input  -65.29 | X-H torsion
[ 10718 10713 10712 10709 ] final    0.53 input   66.30 | X-H torsion
[ 10763 10752 10751 10750 ] final -132.14 input  -60.55 | X-H torsion
[ 11005 11000 10999 10996 ] final  -73.00 input  -57.11 | X-H torsion

> <Gold.Protein.ActiveResidues>
 VAL166  LYS551  ARG553  GLY616  TRP617  ASP618  TYR619  PRO620  LYS621  CYS622 
 ASP623  PHE694  ASN695  SER759  ASP760  ASP761  ALA762  ILE779  LEU786  VAL792 
 PHE793  MET794  SER795  GLU796  ALA797  LYS798  CYS799  TRP800  GLU811  SER814 

> <Gold.Protein.RotatedAtoms>
  151.7069  133.3312  159.3280 H   0  0  0  0  0  0  0  0  0  0  0  0  # atno 6907 bound_to 6896
  150.7711  134.6566  159.6326 H   0  0  0  0  0  0  0  0  0  0  0  0  # atno 6908 bound_to 6896
  152.3735  134.6701  160.0219 H   0  0  0  0  0  0  0  0  0  0  0  0  # atno 6909 bound_to 6896
  144.7181  140.2177  143.6320 H   0  0  0  0  0  0  0  0  0  0  0  0  # atno 7974 bound_to 7965
  155.4647  140.0548  157.2987 H   0  0  0  0  0  0  0  0  0  0  0  0  # atno 8008 bound_to 7997
  154.4723  140.2045  155.9919 H   0  0  0  0  0  0  0  0  0  0  0  0  # atno 8009 bound_to 7997
  156.1075  140.3209  155.8031 H   0  0  0  0  0  0  0  0  0  0  0  0  # atno 8010 bound_to 7997
  140.4146  144.1545  150.6142 H   0  0  0  0  0  0  0  0  0  0  0  0  # atno 10167 bound_to 10162
  156.8347  130.5500  149.5683 H   0  0  0  0  0  0  0  0  0  0  0  0  # atno 10718 bound_to 10713
  154.8745  135.3807  154.4361 H   0  0  0  0  0  0  0  0  0  0  0  0  # atno 10763 bound_to 10752
  153.5050  135.7030  153.5816 H   0  0  0  0  0  0  0  0  0  0  0  0  # atno 10764 bound_to 10752
  153.4131  135.3920  155.2029 H   0  0  0  0  0  0  0  0  0  0  0  0  # atno 10765 bound_to 10752
  141.1617  133.6864  156.7145 H   0  0  0  0  0  0  0  0  0  0  0  0  # atno 11005 bound_to 11000
  145.8530  139.2185  143.1761 LP  0  0  0  0  0  0  0  0  0  0  0  0  # atno 17320 bound_to 7965
  146.0243  140.8318  142.9908 LP  0  0  0  0  0  0  0  0  0  0  0  0  # atno 17321 bound_to 7965
  140.4601  143.2452  151.9232 LP  0  0  0  0  0  0  0  0  0  0  0  0  # atno 17342 bound_to 10162
  139.4782  144.5476  151.8434 LP  0  0  0  0  0  0  0  0  0  0  0  0  # atno 17343 bound_to 10162
  156.0914  130.5899  150.9739 LP  0  0  0  0  0  0  0  0  0  0  0  0  # atno 17370 bound_to 10713
  157.6388  131.0913  150.8294 LP  0  0  0  0  0  0  0  0  0  0  0  0  # atno 17371 bound_to 10713
  140.2862  134.8277  157.3977 LP  0  0  0  0  0  0  0  0  0  0  0  0  # atno 17394 bound_to 11000
  140.1388  134.4999  155.8047 LP  0  0  0  0  0  0  0  0  0  0  0  0  # atno 17395 bound_to 11000

$$$$
