AV-unprocessed.smi:1824|AV-procd|sdf|7396|dock2
  -GOLD-   22720 9 63D 1   1.00000     0.00000
 Structure written by MMmdl.
 44 46  0  0  0  0  0  0  0  0  1 V2000
  145.2906  144.3928  153.0588 C   0  0  0  0  0  0  0  0  0  0  0  0
  145.6274  143.4677  154.2327 C   0  0  2  0  0  0  0  0  0  0  0  0
  146.5010  142.2738  153.8025 C   0  0  0  0  0  0  0  0  0  0  0  0
  146.7530  141.3565  154.9073 N   0  0  0  0  0  0  0  0  0  0  0  0
  147.6030  140.2421  154.4852 C   0  0  0  0  0  0  0  0  0  0  0  0
  149.1196  140.5067  154.5626 C   0  0  1  0  0  0  0  0  0  0  0  0
  149.5619  140.9219  153.2862 O   0  0  0  0  0  0  0  0  0  0  0  0
  149.4828  141.5890  155.5986 C   0  0  0  0  0  0  0  0  0  0  0  0
  150.6156  141.2030  156.4182 N   0  0  0  0  0  0  0  0  0  0  0  0
  151.4531  140.1661  156.2242 C   0  0  0  0  0  0  0  0  0  0  0  0
  152.4305  140.0007  157.1114 N   0  0  0  0  0  0  0  0  0  0  0  0
  152.2036  141.0555  157.9792 C   0  0  0  0  0  0  0  0  0  0  0  0
  152.8958  141.4508  159.1462 C   0  0  0  0  0  0  0  0  0  0  0  0
  152.4742  142.5795  159.8800 C   0  0  0  0  0  0  0  0  0  0  0  0
  153.1491  142.9447  160.9957 F   0  0  0  0  0  0  0  0  0  0  0  0
  151.3555  143.3291  159.4587 C   0  0  0  0  0  0  0  0  0  0  0  0
  150.9571  144.4111  160.1689 F   0  0  0  0  0  0  0  0  0  0  0  0
  150.6503  142.9546  158.2991 C   0  0  0  0  0  0  0  0  0  0  0  0
  151.0750  141.8278  157.5715 C   0  0  0  0  0  0  0  0  0  0  0  0
  145.4735  140.9176  155.4593 C   0  0  0  0  0  0  0  0  0  0  0  0
  144.5976  142.1077  155.8935 C   0  0  2  0  0  0  0  0  0  0  0  0
  143.2228  141.6604  156.4003 C   0  0  0  0  0  0  0  0  0  0  0  0
  144.4069  142.9772  154.7810 O   0  0  0  0  0  0  0  0  0  0  0  0
  146.1956  144.8034  152.6104 H   0  0  0  0  0  0  0  0  0  0  0  0
  144.6733  145.2293  153.3873 H   0  0  0  0  0  0  0  0  0  0  0  0
  144.7432  143.8600  152.2807 H   0  0  0  0  0  0  0  0  0  0  0  0
  146.1502  144.0465  154.9961 H   0  0  0  0  0  0  0  0  0  0  0  0
  146.0117  141.7407  152.9855 H   0  0  0  0  0  0  0  0  0  0  0  0
  147.4480  142.6447  153.4087 H   0  0  0  0  0  0  0  0  0  0  0  0
  147.3597  139.3596  155.0794 H   0  0  0  0  0  0  0  0  0  0  0  0
  147.3604  139.9822  153.4537 H   0  0  0  0  0  0  0  0  0  0  0  0
  149.6492  139.5822  154.7902 H   0  0  0  0  0  0  0  0  0  0  0  0
  149.3012  140.2710  152.6526 H   0  0  0  0  0  0  0  0  0  0  0  0
  149.7037  142.5377  155.1071 H   0  0  0  0  0  0  0  0  0  0  0  0
  148.6410  141.7744  156.2667 H   0  0  0  0  0  0  0  0  0  0  0  0
  151.3366  139.4937  155.3868 H   0  0  0  0  0  0  0  0  0  0  0  0
  153.7534  140.8847  159.4782 H   0  0  0  0  0  0  0  0  0  0  0  0
  149.7940  143.5261  157.9731 H   0  0  0  0  0  0  0  0  0  0  0  0
  144.9381  140.3194  154.7203 H   0  0  0  0  0  0  0  0  0  0  0  0
  145.6335  140.2763  156.3248 H   0  0  0  0  0  0  0  0  0  0  0  0
  145.1014  142.6583  156.6900 H   0  0  0  0  0  0  0  0  0  0  0  0
  143.3188  140.9962  157.2598 H   0  0  0  0  0  0  0  0  0  0  0  0
  142.6701  141.1283  155.6255 H   0  0  0  0  0  0  0  0  0  0  0  0
  142.6233  142.5174  156.7084 H   0  0  0  0  0  0  0  0  0  0  0  0
  1  2  1  0  0  0  0
  1 24  1  0  0  0  0
  1 25  1  0  0  0  0
  1 26  1  0  0  0  0
  2 23  1  0  0  0  0
  2  3  1  0  0  0  0
  2 27  1  0  0  0  0
  3  4  1  0  0  0  0
  3 28  1  0  0  0  0
  3 29  1  0  0  0  0
  4  5  1  0  0  0  0
  4 20  1  0  0  0  0
  5  6  1  0  0  0  0
  5 30  1  0  0  0  0
  5 31  1  0  0  0  0
  6  7  1  0  0  0  0
  6  8  1  0  0  0  0
  6 32  1  0  0  0  0
  7 33  1  0  0  0  0
  8  9  1  0  0  0  0
  8 34  1  0  0  0  0
  8 35  1  0  0  0  0
  9 19  1  0  0  0  0
  9 10  1  0  0  0  0
 10 11  2  0  0  0  0
 10 36  1  0  0  0  0
 11 12  1  0  0  0  0
 12 19  2  0  0  0  0
 12 13  1  0  0  0  0
 13 14  2  0  0  0  0
 13 37  1  0  0  0  0
 14 15  1  0  0  0  0
 14 16  1  0  0  0  0
 16 17  1  0  0  0  0
 16 18  2  0  0  0  0
 18 19  1  0  0  0  0
 18 38  1  0  0  0  0
 20 21  1  0  0  0  0
 20 39  1  0  0  0  0
 20 40  1  0  0  0  0
 21 22  1  0  0  0  0
 21 23  1  0  0  0  0
 21 41  1  0  0  0  0
 22 42  1  0  0  0  0
 22 43  1  0  0  0  0
 22 44  1  0  0  0  0
M  END
> <s_m_source_file>
AV-unprocessed.smi

> <i_m_source_file_index>
1824

> <i_lp_mmshare_version>
43012

> <i_f3d_flags>
0

> <s_epik_input>
W0NIM11bQ0BASF0xW0NIMl1OKFtDSDJdW0NASF0oTzEpW0NIM10pW0NIMl1bQ0BIXShbT0hdKVtDSDJdbihbY0hdbjIpYyhjMjMpW2NIXWMoRiljKEYpW2NIXTM=

> <s_epik_cmdline>
J2VwaWtfcHl0aG9uJywgJy1waCcsICc3LjAnLCAnLXRuJywgJzgnLCAnLW1hJywgJzIwMCcsICctbWV0YWxfYmluZGluZycsICctaW1hZScsICc8aW5maWxlLm1hZT4nLCAnLW9tYWUnLCAnPG91dGZpbGUubWFlPic=

> <r_epik_Ionization_Penalty>
0.273778

> <r_epik_Ionization_Penalty_Charging>
0

> <r_epik_Ionization_Penalty_Neutral>
0.273778

> <r_epik_State_Penalty>
0.246794

> <r_epik_Charging_Adjusted_Penalty>
0.246794

> <i_epik_Tot_Q>
0

> <i_epik_Tot_abs_Q>
0

> <r_epik_Metal_State_Penalty>
0.238234

> <b_epik_Metal_Only>
0

> <s_lp_Force_Field>
OPLS_2005

> <r_lp_Energy>
23.1411

> <b_lp_Chiralities_Consistent>
1

> <s_lp_Variant>
AV-unprocessed.smi:1824-4

> <Gold.Version>
5.8.1

> <Gold.Id.Protein>
6NUR|6NUR_protein|mol2

> <Gold.PLP.Fitness>
52.6458

> <Gold.PLP.PLP>
-47.0056

> <Gold.PLP.part.hbond>
-3.1808

> <Gold.PLP.part.metal>
0.0000

> <Gold.PLP.part.buried>
-7.1482

> <Gold.PLP.part.nonpolar>
-37.3295

> <Gold.PLP.part.repulsive>
0.2901

> <Gold.PLP.ligand.clash>
0.0000

> <Gold.PLP.ligand.torsion>
1.5613

> <Gold.PLP.Chemscore.Hbond>
2.8647

> <Gold.PLP.Chemscore.CHOScore>
0.0000

> <Gold.PLP.Chemscore.Metal>
0.0000

> <Gold.Chemscore.Hbonds>
donor molecule, donor type, donor heavy atom, donor atom, acceptor molecule, acceptor atom, score
      L1  H     7    33       P1  7957  0.67
      P1  H  7989  7998       L1     7  0.20
      P1  H  7997  8009       L1    11  1.00
      P1  H  8011  8017       L1     7  1.00

> <Gold.PLP.Chemscore.Internal.Correction>
0.1688

> <Gold.Rescore>
     Score         DG    S(hbond)    S(metal)    S(lipo)     H(rot)  DE(clash)    DE(int)     intcor
     16.61     -18.23       2.16        0.00      96.87       2.26       0.06       1.56       ----

> <Gold.Chemscore.Fitness>
16.6104

> <Gold.Chemscore.DG>
-18.2335

> <Gold.Chemscore.ZeroCoef>
-5.4800

> <Gold.Chemscore.Hbond>
2.1586

> <Gold.Chemscore.Metal>
0.0000

> <Gold.Chemscore.Lipo>
96.8724

> <Gold.Chemscore.Internal_Hbond>
0.0000

> <Gold.Chemscore.DEClash>
0.0588

> <Gold.Chemscore.DEInternal>
1.5643

> <Gold.Chemscore.Rot>
2.2619

> <Gold.Chemscore.Internal.Correction>
   9.000000E+99

> <Gold.Chemscore.Hbonds>
donor molecule, donor type, donor heavy atom, donor atom, acceptor molecule, acceptor atom, score
      L1  H     7    33       P1  7957  0.64
      P1  H  7989  7998       L1     7  0.06
      P1  H  7997  8009       L1    11  0.47
      P1  H  8011  8017       L1     7  0.45

> <Gold.Chemscore.Hbond.Weighted>
-7.2098

> <Gold.Chemscore.Metal.Weighted>
-0.0000

> <Gold.Chemscore.Lipo.Weighted>
-11.3341

> <Gold.Chemscore.Internal_Hbond.Weighted>
0.0000

> <Gold.Chemscore.DEClash.Weighted>
0.0588

> <Gold.Chemscore.DEInternal.Weighted>
1.5643

> <Gold.Chemscore.Rot.Weighted>
5.7904

> <Gold.Chemscore.Internal.Correction.Weighted>
   9.000000E+99

> <Gold.Protein.RotatedTorsions>
[ 6907 6896 6895 6894 ] final  137.33 input  -60.11 | X-H torsion
[ 7974 7965 7964 7962 ] final   47.53 input  175.53 | X-H torsion
[ 8008 7997 7996 7995 ] final  177.33 input   59.86 | X-H torsion
[ 10167 10162 10161 10158 ] final  -80.13 input  -65.29 | X-H torsion
[ 10718 10713 10712 10709 ] final -160.58 input   66.30 | X-H torsion
[ 10763 10752 10751 10750 ] final  -10.63 input  -60.55 | X-H torsion
[ 11005 11000 10999 10996 ] final   57.93 input  -57.11 | X-H torsion

> <Gold.Protein.ActiveResidues>
 VAL166  LYS551  ARG553  GLY616  TRP617  ASP618  TYR619  PRO620  LYS621  CYS622 
 ASP623  PHE694  ASN695  SER759  ASP760  ASP761  ALA762  ILE779  LEU786  VAL792 
 PHE793  MET794  SER795  GLU796  ALA797  LYS798  CYS799  TRP800  GLU811  SER814 

> <Gold.Protein.RotatedAtoms>
  152.2792  133.5454  159.5487 H   0  0  0  0  0  0  0  0  0  0  0  0  # atno 6907 bound_to 6896
  150.7189  134.0588  159.3833 H   0  0  0  0  0  0  0  0  0  0  0  0  # atno 6908 bound_to 6896
  151.8499  135.0561  160.0508 H   0  0  0  0  0  0  0  0  0  0  0  0  # atno 6909 bound_to 6896
  146.0289  139.4740  142.9850 H   0  0  0  0  0  0  0  0  0  0  0  0  # atno 7974 bound_to 7965
  156.0668  140.1361  156.9876 H   0  0  0  0  0  0  0  0  0  0  0  0  # atno 8008 bound_to 7997
  154.4510  140.0980  156.6670 H   0  0  0  0  0  0  0  0  0  0  0  0  # atno 8009 bound_to 7997
  155.5291  140.3458  155.4425 H   0  0  0  0  0  0  0  0  0  0  0  0  # atno 8010 bound_to 7997
  140.4530  143.2477  151.8460 H   0  0  0  0  0  0  0  0  0  0  0  0  # atno 10167 bound_to 10162
  156.5841  130.8742  151.2872 H   0  0  0  0  0  0  0  0  0  0  0  0  # atno 10718 bound_to 10713
  153.4721  135.7017  153.5987 H   0  0  0  0  0  0  0  0  0  0  0  0  # atno 10763 bound_to 10752
  153.4237  135.3819  155.2127 H   0  0  0  0  0  0  0  0  0  0  0  0  # atno 10764 bound_to 10752
  154.8725  135.3934  154.4160 H   0  0  0  0  0  0  0  0  0  0  0  0  # atno 10765 bound_to 10752
  140.0415  134.5866  155.9376 H   0  0  0  0  0  0  0  0  0  0  0  0  # atno 11005 bound_to 11000
  145.7072  141.0117  143.1472 LP  0  0  0  0  0  0  0  0  0  0  0  0  # atno 17320 bound_to 7965
  144.7022  139.8714  143.7441 LP  0  0  0  0  0  0  0  0  0  0  0  0  # atno 17321 bound_to 7965
  139.4798  144.5097  151.8949 LP  0  0  0  0  0  0  0  0  0  0  0  0  # atno 17342 bound_to 10162
  140.4184  144.2276  150.5887 LP  0  0  0  0  0  0  0  0  0  0  0  0  # atno 17343 bound_to 10162
  157.7319  130.9708  150.1904 LP  0  0  0  0  0  0  0  0  0  0  0  0  # atno 17370 bound_to 10713
  156.2606  130.3710  149.8134 LP  0  0  0  0  0  0  0  0  0  0  0  0  # atno 17371 bound_to 10713
  141.1885  133.6563  156.5329 LP  0  0  0  0  0  0  0  0  0  0  0  0  # atno 17394 bound_to 11000
  140.4061  134.7313  157.4809 LP  0  0  0  0  0  0  0  0  0  0  0  0  # atno 17395 bound_to 11000

$$$$
