AV-unprocessed.smi:1521|AV-procd|sdf|6132|dock9
  -GOLD-   22720 6273D 1   1.00000     0.00000
 Structure written by MMmdl.
 35 36  0  0  0  0  0  0  0  0  2 V2000
  152.7798  139.9160  157.4985 O   0  0  0  0  0  0  0  0  0  0  0  0
  152.5447  139.5432  158.6481 C   0  0  0  0  0  0  0  0  0  0  0  0
  152.8645  140.2624  159.7328 N   0  0  0  0  0  0  0  0  0  0  0  0
  153.5108  141.5697  159.7127 C   0  0  0  0  0  0  0  0  0  0  0  0
  152.4800  142.7079  159.6315 C   0  0  2  0  0  0  0  0  0  0  0  0
  151.3302  142.3729  158.6607 C   0  0  0  0  0  0  0  0  0  0  0  0
  150.4423  143.4803  158.5798 O   0  0  0  0  0  0  0  0  0  0  0  0
  151.1100  144.6437  158.1111 C   0  0  0  0  0  0  0  0  0  0  0  0
  152.2532  144.9866  159.0801 C   0  0  0  0  0  0  0  0  0  0  0  0
  153.1390  143.8779  159.1566 O   0  0  0  0  0  0  0  0  0  0  0  0
  151.9294  138.3995  158.9979 N   0  0  0  0  0  0  0  0  0  0  0  0
  151.4605  137.3558  158.1826 C   0  0  0  0  0  0  0  0  0  0  0  0
  150.1967  136.8494  158.2205 C   0  0  0  0  0  0  0  0  0  0  0  0
  149.7600  135.7756  157.3369 C   0  0  0  0  0  0  0  0  0  0  0  0
  148.3907  135.1244  157.4123 C   0  0  0  0  0  0  0  0  0  0  0  0
  147.6347  135.7048  158.3444 F   0  0  0  0  0  0  0  0  0  0  0  0
  147.7556  135.2079  156.2431 F   0  0  0  0  0  0  0  0  0  0  0  0
  148.5186  133.8357  157.7250 F   0  0  0  0  0  0  0  0  0  0  0  0
  150.7676  135.3483  156.4939 C   0  0  0  0  0  0  0  0  0  0  0  0
  152.0306  135.8127  156.3735 N   0  5  0  0  0  0  0  0  0  0  0  0
  152.4266  136.8207  157.2010 C   0  0  0  0  0  0  0  0  0  0  0  0
  153.5638  137.2904  157.1456 O   0  0  0  0  0  0  0  0  0  0  0  0
  152.6256  139.8872  160.6389 H   0  0  0  0  0  0  0  0  0  0  0  0
  154.1103  141.6710  160.6178 H   0  0  0  0  0  0  0  0  0  0  0  0
  154.2067  141.6275  158.8741 H   0  0  0  0  0  0  0  0  0  0  0  0
  152.0691  142.8977  160.6250 H   0  0  0  0  0  0  0  0  0  0  0  0
  151.7131  142.1269  157.6690 H   0  0  0  0  0  0  0  0  0  0  0  0
  150.7757  141.5040  159.0156 H   0  0  0  0  0  0  0  0  0  0  0  0
  151.4914  144.4796  157.1020 H   0  0  0  0  0  0  0  0  0  0  0  0
  150.3978  145.4672  158.0563 H   0  0  0  0  0  0  0  0  0  0  0  0
  152.8033  145.8581  158.7253 H   0  0  0  0  0  0  0  0  0  0  0  0
  151.8655  145.2306  160.0704 H   0  0  0  0  0  0  0  0  0  0  0  0
  151.7377  138.2752  159.9812 H   0  0  0  0  0  0  0  0  0  0  0  0
  149.4623  137.2486  158.9007 H   0  0  0  0  0  0  0  0  0  0  0  0
  150.5215  134.5052  155.8139 H   0  0  0  0  0  0  0  0  0  0  0  0
  1  2  2  0  0  0  0
  2  3  1  0  0  0  0
  2 11  1  0  0  0  0
  3  4  1  0  0  0  0
  3 23  1  0  0  0  0
  4  5  1  0  0  0  0
  4 24  1  0  0  0  0
  4 25  1  0  0  0  0
  5 10  1  0  0  0  0
  5  6  1  0  0  0  0
  5 26  1  0  0  0  0
  6  7  1  0  0  0  0
  6 27  1  0  0  0  0
  6 28  1  0  0  0  0
  7  8  1  0  0  0  0
  8  9  1  0  0  0  0
  8 29  1  0  0  0  0
  8 30  1  0  0  0  0
  9 10  1  0  0  0  0
  9 31  1  0  0  0  0
  9 32  1  0  0  0  0
 11 12  1  0  0  0  0
 11 33  1  0  0  0  0
 12 21  1  0  0  0  0
 12 13  2  0  0  0  0
 13 14  1  0  0  0  0
 13 34  1  0  0  0  0
 14 15  1  0  0  0  0
 14 19  2  0  0  0  0
 15 16  1  0  0  0  0
 15 17  1  0  0  0  0
 15 18  1  0  0  0  0
 19 20  1  0  0  0  0
 19 35  1  0  0  0  0
 20 21  1  0  0  0  0
 21 22  2  0  0  0  0
M  CHG  1  20  -1
M  END
> <s_m_source_file>
AV-unprocessed.smi

> <i_m_source_file_index>
1521

> <i_lp_mmshare_version>
43012

> <i_f3d_flags>
0

> <s_epik_input>
Tz1jMVtuSF1bY0hdYyhDKEYpKEYpRilbY0hdYzFbTkhdQyg9TylbTkhdW0NIMl1bQ0BASF0yW0NIMl1PW0NIMl1bQ0gyXU8y

> <s_epik_cmdline>
J2VwaWtfcHl0aG9uJywgJy1waCcsICc3LjAnLCAnLXRuJywgJzgnLCAnLW1hJywgJzIwMCcsICctbWV0YWxfYmluZGluZycsICctaW1hZScsICc8aW5maWxlLm1hZT4nLCAnLW9tYWUnLCAnPG91dGZpbGUubWFlPic=

> <r_lp_tautomer_probability>
1

> <r_epik_Ionization_Penalty>
3.1412

> <r_epik_Ionization_Penalty_Charging>
0.17015

> <r_epik_Ionization_Penalty_Neutral>
2.97105

> <r_epik_State_Penalty>
2.96707

> <r_epik_Charging_Adjusted_Penalty>
3.13722

> <i_epik_Tot_Q>
-1

> <i_epik_Tot_abs_Q>
1

> <r_epik_Metal_State_Penalty>
0.451298

> <b_epik_Metal_Only>
1

> <s_lp_Force_Field>
OPLS_2005

> <r_lp_Energy>
20.4323

> <b_lp_Chiralities_Consistent>
1

> <s_lp_Variant>
AV-unprocessed.smi:1521-3

> <Gold.Version>
5.8.1

> <Gold.Id.Protein>
6NUR|6NUR_protein|mol2

> <Gold.PLP.Fitness>
36.3902

> <Gold.PLP.PLP>
-29.0294

> <Gold.PLP.part.hbond>
-2.0000

> <Gold.PLP.part.metal>
0.0000

> <Gold.PLP.part.buried>
-5.0383

> <Gold.PLP.part.nonpolar>
-22.4121

> <Gold.PLP.part.repulsive>
0.3522

> <Gold.PLP.ligand.clash>
0.0000

> <Gold.PLP.ligand.torsion>
0.8470

> <Gold.PLP.Chemscore.Hbond>
3.0000

> <Gold.PLP.Chemscore.CHOScore>
0.0000

> <Gold.PLP.Chemscore.Metal>
0.0000

> <Gold.Chemscore.Hbonds>
donor molecule, donor type, donor heavy atom, donor atom, acceptor molecule, acceptor atom, score
      P1  H  7997  8009       L1     1  1.00
      P1  H 10752 10763       L1    20  2.00

> <Gold.PLP.Chemscore.Internal.Correction>
0.0548

> <Gold.Rescore>
     Score         DG    S(hbond)    S(metal)    S(lipo)     H(rot)  DE(clash)    DE(int)     intcor
     13.55     -16.55       1.89        0.00      70.46       1.36       0.00       3.00       ----

> <Gold.Chemscore.Fitness>
13.5482

> <Gold.Chemscore.DG>
-16.5476

> <Gold.Chemscore.ZeroCoef>
-5.4800

> <Gold.Chemscore.Hbond>
1.8909

> <Gold.Chemscore.Metal>
0.0000

> <Gold.Chemscore.Lipo>
70.4602

> <Gold.Chemscore.Internal_Hbond>
0.0000

> <Gold.Chemscore.DEClash>
0.0033

> <Gold.Chemscore.DEInternal>
2.9961

> <Gold.Chemscore.Rot>
1.3640

> <Gold.Chemscore.Internal.Correction>
   9.000000E+99

> <Gold.Chemscore.Hbonds>
donor molecule, donor type, donor heavy atom, donor atom, acceptor molecule, acceptor atom, score
      P1  H  7997  8009       L1     1  0.98
      P1  H 10752 10763       L1    20  0.88

> <Gold.Chemscore.Hbond.Weighted>
-6.3155

> <Gold.Chemscore.Metal.Weighted>
-0.0000

> <Gold.Chemscore.Lipo.Weighted>
-8.2438

> <Gold.Chemscore.Internal_Hbond.Weighted>
0.0000

> <Gold.Chemscore.DEClash.Weighted>
0.0033

> <Gold.Chemscore.DEInternal.Weighted>
2.9961

> <Gold.Chemscore.Rot.Weighted>
3.4918

> <Gold.Chemscore.Internal.Correction.Weighted>
   9.000000E+99

> <Gold.Protein.RotatedTorsions>
[ 6907 6896 6895 6894 ] final  -54.82 input  -60.11 | X-H torsion
[ 7974 7965 7964 7962 ] final  143.72 input  175.53 | X-H torsion
[ 8008 7997 7996 7995 ] final  166.79 input   59.86 | X-H torsion
[ 10167 10162 10161 10158 ] final -103.49 input  -65.29 | X-H torsion
[ 10718 10713 10712 10709 ] final -160.56 input   66.30 | X-H torsion
[ 10763 10752 10751 10750 ] final   93.78 input  -60.55 | X-H torsion
[ 11005 11000 10999 10996 ] final   68.36 input  -57.11 | X-H torsion

> <Gold.Protein.ActiveResidues>
 VAL166  LYS551  ARG553  GLY616  TRP617  ASP618  TYR619  PRO620  LYS621  CYS622 
 ASP623  PHE694  ASN695  SER759  ASP760  ASP761  ALA762  ILE779  LEU786  VAL792 
 PHE793  MET794  SER795  GLU796  ALA797  LYS798  CYS799  TRP800  GLU811  SER814 

> <Gold.Protein.RotatedAtoms>
  150.8305  134.7555  159.6848 H   0  0  0  0  0  0  0  0  0  0  0  0  # atno 6907 bound_to 6896
  152.4410  134.5588  159.9898 H   0  0  0  0  0  0  0  0  0  0  0  0  # atno 6908 bound_to 6896
  151.5750  133.3347  159.3033 H   0  0  0  0  0  0  0  0  0  0  0  0  # atno 6909 bound_to 6896
  144.8896  139.5577  143.5804 H   0  0  0  0  0  0  0  0  0  0  0  0  # atno 7974 bound_to 7965
  156.1688  140.1634  156.8483 H   0  0  0  0  0  0  0  0  0  0  0  0  # atno 8008 bound_to 7997
  154.5236  140.0772  156.8251 H   0  0  0  0  0  0  0  0  0  0  0  0  # atno 8009 bound_to 7997
  155.3555  140.3392  155.4242 H   0  0  0  0  0  0  0  0  0  0  0  0  # atno 8010 bound_to 7997
  140.2194  143.3687  152.0982 H   0  0  0  0  0  0  0  0  0  0  0  0  # atno 10167 bound_to 10162
  156.5839  130.8741  151.2872 H   0  0  0  0  0  0  0  0  0  0  0  0  # atno 10718 bound_to 10713
  153.2341  135.4313  155.0627 H   0  0  0  0  0  0  0  0  0  0  0  0  # atno 10763 bound_to 10752
  154.8310  135.3386  154.6744 H   0  0  0  0  0  0  0  0  0  0  0  0  # atno 10764 bound_to 10752
  153.7170  135.7019  153.5079 H   0  0  0  0  0  0  0  0  0  0  0  0  # atno 10765 bound_to 10752
  139.9716  134.6891  156.0436 H   0  0  0  0  0  0  0  0  0  0  0  0  # atno 11005 bound_to 11000
  146.3046  139.7537  142.9066 LP  0  0  0  0  0  0  0  0  0  0  0  0  # atno 17320 bound_to 7965
  145.3806  141.0357  143.3179 LP  0  0  0  0  0  0  0  0  0  0  0  0  # atno 17321 bound_to 7965
  139.5150  144.6956  151.5640 LP  0  0  0  0  0  0  0  0  0  0  0  0  # atno 17342 bound_to 10162
  140.6266  143.9157  150.6570 LP  0  0  0  0  0  0  0  0  0  0  0  0  # atno 17343 bound_to 10162
  157.7320  130.9708  150.1906 LP  0  0  0  0  0  0  0  0  0  0  0  0  # atno 17370 bound_to 10713
  156.2608  130.3710  149.8133 LP  0  0  0  0  0  0  0  0  0  0  0  0  # atno 17371 bound_to 10713
  141.1395  133.6567  156.3690 LP  0  0  0  0  0  0  0  0  0  0  0  0  # atno 17394 bound_to 11000
  140.5281  134.6239  157.5341 LP  0  0  0  0  0  0  0  0  0  0  0  0  # atno 17395 bound_to 11000

$$$$
