AV-unprocessed.smi:1027|AV-procd|sdf|4469|dock8
  -GOLD-   22720 2443D 1   1.00000     0.00000
 Structure written by MMmdl.
 35 36  0  0  0  0  0  0  0  0  1 V2000
  146.1876  132.8820  150.9453 C   0  0  0  0  0  0  0  0  0  0  0  0
  146.7054  132.2442  152.2472 C   0  0  0  0  0  0  0  0  0  0  0  0
  146.1151  130.8277  152.3903 C   0  0  0  0  0  0  0  0  0  0  0  0
  146.4270  133.1324  153.4903 C   0  0  2  0  0  0  0  0  0  0  0  0
  147.0366  132.5734  154.7877 C   0  0  0  0  0  0  0  0  0  0  0  0
  144.9875  133.2894  153.7040 N   0  0  0  0  0  0  0  0  0  0  0  0
  144.2768  134.4104  153.5069 C   0  0  0  0  0  0  0  0  0  0  0  0
  144.7629  135.4634  153.0931 O   0  0  0  0  0  0  0  0  0  0  0  0
  142.9825  134.2232  153.8192 N   0  0  0  0  0  0  0  0  0  0  0  0
  141.9164  135.1583  153.7497 C   0  0  0  0  0  0  0  0  0  0  0  0
  140.6472  134.8656  154.0643 N   0  0  0  0  0  0  0  0  0  0  0  0
  139.8086  135.9596  153.9043 N   0  0  0  0  0  0  0  0  0  0  0  0
  140.4646  137.0439  153.4741 C   0  0  0  0  0  0  0  0  0  0  0  0
  139.7750  138.3426  153.2198 C   0  0  0  0  0  0  0  0  0  0  0  0
  140.1888  139.5948  153.9584 C   0  0  0  0  0  0  0  0  0  0  0  0
  138.8515  138.9620  154.2462 C   0  0  0  0  0  0  0  0  0  0  0  0
  142.1940  136.8136  153.2368 S   0  0  0  0  0  0  0  0  0  0  0  0
  145.1181  133.0858  151.0024 H   0  0  0  0  0  0  0  0  0  0  0  0
  146.3533  132.2230  150.0925 H   0  0  0  0  0  0  0  0  0  0  0  0
  146.6975  133.8183  150.7209 H   0  0  0  0  0  0  0  0  0  0  0  0
  147.7861  132.1326  152.1470 H   0  0  0  0  0  0  0  0  0  0  0  0
  145.0372  130.8641  152.5527 H   0  0  0  0  0  0  0  0  0  0  0  0
  146.5595  130.2836  153.2236 H   0  0  0  0  0  0  0  0  0  0  0  0
  146.2958  130.2338  151.4940 H   0  0  0  0  0  0  0  0  0  0  0  0
  146.8806  134.1099  153.3161 H   0  0  0  0  0  0  0  0  0  0  0  0
  148.1255  132.5577  154.7493 H   0  0  0  0  0  0  0  0  0  0  0  0
  146.6921  131.5576  154.9841 H   0  0  0  0  0  0  0  0  0  0  0  0
  146.7612  133.1884  155.6454 H   0  0  0  0  0  0  0  0  0  0  0  0
  144.4949  132.4755  154.0412 H   0  0  0  0  0  0  0  0  0  0  0  0
  142.7319  133.3064  154.1589 H   0  0  0  0  0  0  0  0  0  0  0  0
  139.5048  138.4358  152.1699 H   0  0  0  0  0  0  0  0  0  0  0  0
  140.9623  139.5015  154.7182 H   0  0  0  0  0  0  0  0  0  0  0  0
  140.1952  140.5276  153.3983 H   0  0  0  0  0  0  0  0  0  0  0  0
  137.9643  139.4729  153.8781 H   0  0  0  0  0  0  0  0  0  0  0  0
  138.7355  138.4609  155.2052 H   0  0  0  0  0  0  0  0  0  0  0  0
  1  2  1  0  0  0  0
  1 18  1  0  0  0  0
  1 19  1  0  0  0  0
  1 20  1  0  0  0  0
  2  3  1  0  0  0  0
  2  4  1  0  0  0  0
  2 21  1  0  0  0  0
  3 22  1  0  0  0  0
  3 23  1  0  0  0  0
  3 24  1  0  0  0  0
  4  5  1  0  0  0  0
  4  6  1  0  0  0  0
  4 25  1  0  0  0  0
  5 26  1  0  0  0  0
  5 27  1  0  0  0  0
  5 28  1  0  0  0  0
  6  7  1  0  0  0  0
  6 29  1  0  0  0  0
  7  8  2  0  0  0  0
  7  9  1  0  0  0  0
  9 10  1  0  0  0  0
  9 30  1  0  0  0  0
 10 17  1  0  0  0  0
 10 11  2  0  0  0  0
 11 12  1  0  0  0  0
 12 13  2  0  0  0  0
 13 14  1  0  0  0  0
 13 17  1  0  0  0  0
 14 16  1  0  0  0  0
 14 15  1  0  0  0  0
 14 31  1  0  0  0  0
 15 16  1  0  0  0  0
 15 32  1  0  0  0  0
 15 33  1  0  0  0  0
 16 34  1  0  0  0  0
 16 35  1  0  0  0  0
M  END
> <s_m_source_file>
AV-unprocessed.smi

> <i_m_source_file_index>
1027

> <i_lp_mmshare_version>
43012

> <i_f3d_flags>
0

> <s_epik_input>
W0NIM11bQ0hdKFtDSDNdKVtDQEhdKFtDSDNdKVtOSF1DKD1PKVtOSF1jMW5uYyhzMSlbQ0hdMltDSDJdW0NIMl0y

> <s_epik_cmdline>
J2VwaWtfcHl0aG9uJywgJy1waCcsICc3LjAnLCAnLXRuJywgJzgnLCAnLW1hJywgJzIwMCcsICctbWV0YWxfYmluZGluZycsICctaW1hZScsICc8aW5maWxlLm1hZT4nLCAnLW9tYWUnLCAnPG91dGZpbGUubWFlPic=

> <r_lp_tautomer_probability>
1

> <r_epik_Ionization_Penalty>
0.000943246

> <r_epik_Ionization_Penalty_Charging>
0

> <r_epik_Ionization_Penalty_Neutral>
0.000943246

> <r_epik_State_Penalty>
-0

> <r_epik_Charging_Adjusted_Penalty>
0

> <i_epik_Tot_Q>
0

> <i_epik_Tot_abs_Q>
0

> <r_epik_Metal_State_Penalty>
0.281646

> <b_epik_Metal_Only>
0

> <s_lp_Force_Field>
OPLS_2005

> <r_lp_Energy>
3.85842

> <b_lp_Chiralities_Consistent>
1

> <s_lp_Variant>
AV-unprocessed.smi:1027-1

> <Gold.Version>
5.8.1

> <Gold.Id.Protein>
6NUR|6NUR_protein|mol2

> <Gold.PLP.Fitness>
33.9482

> <Gold.PLP.PLP>
-25.9739

> <Gold.PLP.part.hbond>
-4.0000

> <Gold.PLP.part.metal>
0.0000

> <Gold.PLP.part.buried>
-4.9359

> <Gold.PLP.part.nonpolar>
-18.0763

> <Gold.PLP.part.repulsive>
0.3932

> <Gold.PLP.ligand.clash>
0.0000

> <Gold.PLP.ligand.torsion>
0.1822

> <Gold.PLP.Chemscore.Hbond>
2.7291

> <Gold.PLP.Chemscore.CHOScore>
0.0000

> <Gold.PLP.Chemscore.Metal>
0.0000

> <Gold.Chemscore.Hbonds>
donor molecule, donor type, donor heavy atom, donor atom, acceptor molecule, acceptor atom, score
      L1  H     6    29       P1 10957  0.79
      L1  H     9    30       P1 10957  1.00
      P1  H 11000 11005       L1    11  0.98

> <Gold.PLP.Chemscore.Internal.Correction>
0.1514

> <Gold.Rescore>
     Score         DG    S(hbond)    S(metal)    S(lipo)     H(rot)  DE(clash)    DE(int)     intcor
     14.43     -15.95       2.24        0.00      55.97       1.39       0.02       1.51       ----

> <Gold.Chemscore.Fitness>
14.4252

> <Gold.Chemscore.DG>
-15.9535

> <Gold.Chemscore.ZeroCoef>
-5.4800

> <Gold.Chemscore.Hbond>
2.2398

> <Gold.Chemscore.Metal>
0.0000

> <Gold.Chemscore.Lipo>
55.9701

> <Gold.Chemscore.Internal_Hbond>
0.0000

> <Gold.Chemscore.DEClash>
0.0170

> <Gold.Chemscore.DEInternal>
1.5113

> <Gold.Chemscore.Rot>
1.3890

> <Gold.Chemscore.Internal.Correction>
   9.000000E+99

> <Gold.Chemscore.Hbonds>
donor molecule, donor type, donor heavy atom, donor atom, acceptor molecule, acceptor atom, score
      L1  H     6    29       P1 10957  0.41
      L1  H     9    30       P1 10957  1.00
      P1  H 11000 11005       L1    11  0.65

> <Gold.Chemscore.Hbond.Weighted>
-7.4808

> <Gold.Chemscore.Metal.Weighted>
-0.0000

> <Gold.Chemscore.Lipo.Weighted>
-6.5485

> <Gold.Chemscore.Internal_Hbond.Weighted>
0.0000

> <Gold.Chemscore.DEClash.Weighted>
0.0170

> <Gold.Chemscore.DEInternal.Weighted>
1.5113

> <Gold.Chemscore.Rot.Weighted>
3.5559

> <Gold.Chemscore.Internal.Correction.Weighted>
   9.000000E+99

> <Gold.Protein.RotatedTorsions>
[ 6907 6896 6895 6894 ] final  -44.03 input  -60.11 | X-H torsion
[ 7974 7965 7964 7962 ] final  -39.14 input  175.53 | X-H torsion
[ 8008 7997 7996 7995 ] final -158.00 input   59.86 | X-H torsion
[ 10167 10162 10161 10158 ] final  -38.26 input  -65.29 | X-H torsion
[ 10718 10713 10712 10709 ] final  -74.10 input   66.30 | X-H torsion
[ 10763 10752 10751 10750 ] final -173.64 input  -60.55 | X-H torsion
[ 11005 11000 10999 10996 ] final    8.47 input  -57.11 | X-H torsion

> <Gold.Protein.ActiveResidues>
 VAL166  LYS551  ARG553  GLY616  TRP617  ASP618  TYR619  PRO620  LYS621  CYS622 
 ASP623  PHE694  ASN695  SER759  ASP760  ASP761  ALA762  ILE779  LEU786  VAL792 
 PHE793  MET794  SER795  GLU796  ALA797  LYS798  CYS799  TRP800  GLU811  SER814 

> <Gold.Protein.RotatedAtoms>
  150.9374  134.8785  159.7589 H   0  0  0  0  0  0  0  0  0  0  0  0  # atno 6907 bound_to 6896
  152.5065  134.3991  159.9420 H   0  0  0  0  0  0  0  0  0  0  0  0  # atno 6908 bound_to 6896
  151.4014  133.3716  159.2767 H   0  0  0  0  0  0  0  0  0  0  0  0  # atno 6909 bound_to 6896
  146.0423  140.6592  142.9081 H   0  0  0  0  0  0  0  0  0  0  0  0  # atno 7974 bound_to 7965
  155.7410  140.0814  157.2245 H   0  0  0  0  0  0  0  0  0  0  0  0  # atno 8008 bound_to 7997
  154.4022  140.1578  156.2671 H   0  0  0  0  0  0  0  0  0  0  0  0  # atno 8009 bound_to 7997
  155.9020  140.3409  155.6036 H   0  0  0  0  0  0  0  0  0  0  0  0  # atno 8010 bound_to 7997
  140.7097  143.3288  151.2616 H   0  0  0  0  0  0  0  0  0  0  0  0  # atno 10167 bound_to 10162
  156.0255  130.4409  150.2842 H   0  0  0  0  0  0  0  0  0  0  0  0  # atno 10718 bound_to 10713
  154.6055  135.2859  155.0489 H   0  0  0  0  0  0  0  0  0  0  0  0  # atno 10763 bound_to 10752
  154.1738  135.6468  153.5020 H   0  0  0  0  0  0  0  0  0  0  0  0  # atno 10764 bound_to 10752
  153.0174  135.5407  154.6790 H   0  0  0  0  0  0  0  0  0  0  0  0  # atno 10765 bound_to 10752
  140.5366  134.0415  155.7890 H   0  0  0  0  0  0  0  0  0  0  0  0  # atno 11005 bound_to 11000
  144.7080  140.3930  143.7102 LP  0  0  0  0  0  0  0  0  0  0  0  0  # atno 17320 bound_to 7965
  145.6864  139.1629  143.2672 LP  0  0  0  0  0  0  0  0  0  0  0  0  # atno 17321 bound_to 7965
  139.6764  143.9929  152.2784 LP  0  0  0  0  0  0  0  0  0  0  0  0  # atno 17342 bound_to 10162
  139.9545  144.6598  150.8139 LP  0  0  0  0  0  0  0  0  0  0  0  0  # atno 17343 bound_to 10162
  157.0946  131.0179  151.3109 LP  0  0  0  0  0  0  0  0  0  0  0  0  # atno 17370 bound_to 10713
  157.4828  130.7775  149.7430 LP  0  0  0  0  0  0  0  0  0  0  0  0  # atno 17371 bound_to 10713
  141.1251  133.9396  157.2651 LP  0  0  0  0  0  0  0  0  0  0  0  0  # atno 17394 bound_to 11000
  139.9526  135.0172  156.9037 LP  0  0  0  0  0  0  0  0  0  0  0  0  # atno 17395 bound_to 11000

$$$$
