AV-unprocessed.smi:1891|AV-procd|sdf|7667|dock2
  -GOLD-   22720 9403D 1   1.00000     0.00000
 Structure written by MMmdl.
 37 39  0  0  0  0  0  0  0  0  2 V2000
  152.2647  137.2020  153.6922 O   0  0  0  0  0  0  0  0  0  0  0  0
  151.6885  137.6885  154.8837 C   0  0  0  0  0  0  0  0  0  0  0  0
  150.5584  138.6309  154.6242 C   0  0  0  0  0  0  0  0  0  0  0  0
  149.4605  138.3526  153.8657 N   0  3  0  0  0  0  0  0  0  0  0  0
  148.6171  139.4632  153.8258 C   0  0  0  0  0  0  0  0  0  0  0  0
  147.3968  139.6594  153.1866 C   0  0  0  0  0  0  0  0  0  0  0  0
  146.7940  140.9241  153.3485 C   0  0  0  0  0  0  0  0  0  0  0  0
  147.4027  141.9345  154.1213 C   0  0  0  0  0  0  0  0  0  0  0  0
  148.6403  141.7238  154.7642 C   0  0  0  0  0  0  0  0  0  0  0  0
  149.2296  140.4704  154.5986 C   0  0  0  0  0  0  0  0  0  0  0  0
  150.4247  139.9153  155.0696 N   0  0  0  0  0  0  0  0  0  0  0  0
  151.3076  140.7427  155.9076 C   0  0  0  0  0  0  0  0  0  0  0  0
  150.9918  140.6244  157.4120 C   0  0  2  0  0  0  0  0  0  0  0  0
  149.6710  140.1478  157.5884 O   0  0  0  0  0  0  0  0  0  0  0  0
  151.2469  141.9438  158.1284 C   0  0  0  0  0  0  0  0  0  0  0  0
  150.5375  143.1117  157.7667 C   0  0  0  0  0  0  0  0  0  0  0  0
  150.7901  144.3305  158.4253 C   0  0  0  0  0  0  0  0  0  0  0  0
  151.7576  144.3928  159.4457 C   0  0  0  0  0  0  0  0  0  0  0  0
  152.0025  145.5653  160.0771 F   0  0  0  0  0  0  0  0  0  0  0  0
  152.4735  143.2356  159.8061 C   0  0  0  0  0  0  0  0  0  0  0  0
  152.2214  142.0150  159.1497 C   0  0  0  0  0  0  0  0  0  0  0  0
  152.9263  140.9123  159.5008 F   0  0  0  0  0  0  0  0  0  0  0  0
  151.5717  136.9089  153.1203 H   0  0  0  0  0  0  0  0  0  0  0  0
  151.3230  136.8441  155.4686 H   0  0  0  0  0  0  0  0  0  0  0  0
  152.4590  138.1746  155.4804 H   0  0  0  0  0  0  0  0  0  0  0  0
  146.9290  138.8873  152.5935 H   0  0  0  0  0  0  0  0  0  0  0  0
  145.8460  141.1237  152.8699 H   0  0  0  0  0  0  0  0  0  0  0  0
  146.9109  142.8912  154.2222 H   0  0  0  0  0  0  0  0  0  0  0  0
  149.0995  142.5050  155.3521 H   0  0  0  0  0  0  0  0  0  0  0  0
  152.3400  140.4551  155.7042 H   0  0  0  0  0  0  0  0  0  0  0  0
  151.2157  141.7783  155.5817 H   0  0  0  0  0  0  0  0  0  0  0  0
  151.6427  139.8695  157.8540 H   0  0  0  0  0  0  0  0  0  0  0  0
  149.1821  140.3196  156.7980 H   0  0  0  0  0  0  0  0  0  0  0  0
  149.7985  143.0821  156.9793 H   0  0  0  0  0  0  0  0  0  0  0  0
  150.2430  145.2187  158.1447 H   0  0  0  0  0  0  0  0  0  0  0  0
  153.2199  143.2845  160.5852 H   0  0  0  0  0  0  0  0  0  0  0  0
  149.3075  137.4659  153.4032 H   0  0  0  0  0  0  0  0  0  0  0  0
  1  2  1  0  0  0  0
  1 23  1  0  0  0  0
  2  3  1  0  0  0  0
  2 24  1  0  0  0  0
  2 25  1  0  0  0  0
  3 11  1  0  0  0  0
  3  4  2  0  0  0  0
  4  5  1  0  0  0  0
  4 37  1  0  0  0  0
  5 10  2  0  0  0  0
  5  6  1  0  0  0  0
  6  7  2  0  0  0  0
  6 26  1  0  0  0  0
  7  8  1  0  0  0  0
  7 27  1  0  0  0  0
  8  9  2  0  0  0  0
  8 28  1  0  0  0  0
  9 10  1  0  0  0  0
  9 29  1  0  0  0  0
 10 11  1  0  0  0  0
 11 12  1  0  0  0  0
 12 13  1  0  0  0  0
 12 30  1  0  0  0  0
 12 31  1  0  0  0  0
 13 14  1  0  0  0  0
 13 15  1  0  0  0  0
 13 32  1  0  0  0  0
 14 33  1  0  0  0  0
 15 21  1  0  0  0  0
 15 16  2  0  0  0  0
 16 17  1  0  0  0  0
 16 34  1  0  0  0  0
 17 18  2  0  0  0  0
 17 35  1  0  0  0  0
 18 19  1  0  0  0  0
 18 20  1  0  0  0  0
 20 21  2  0  0  0  0
 20 36  1  0  0  0  0
 21 22  1  0  0  0  0
M  CHG  1   4   1
M  END
> <s_m_source_file>
AV-unprocessed.smi

> <i_m_source_file_index>
1891

> <i_lp_mmshare_version>
43012

> <i_f3d_flags>
0

> <s_epik_input>
W2NIXTFbY0hdW2NIXVtjSF1jKGMxMiluKGMobjIpW0NIMl1bT0hdKVtDSDJdW0NASF0oW09IXSljM1tjSF1bY0hdYyhGKVtjSF1jM0Y=

> <s_epik_cmdline>
J2VwaWtfcHl0aG9uJywgJy1waCcsICc3LjAnLCAnLXRuJywgJzgnLCAnLW1hJywgJzIwMCcsICctbWV0YWxfYmluZGluZycsICctaW1hZScsICc8aW5maWxlLm1hZT4nLCAnLW9tYWUnLCAnPG91dGZpbGUubWFlPic=

> <r_epik_Ionization_Penalty>
1.35643

> <r_epik_Ionization_Penalty_Charging>
1.35557

> <r_epik_Ionization_Penalty_Neutral>
0.00085758

> <r_epik_State_Penalty>
1.43401

> <r_epik_Charging_Adjusted_Penalty>
2.78958

> <i_epik_Tot_Q>
1

> <i_epik_Tot_abs_Q>
1

> <r_epik_Metal_State_Penalty>
5.47166

> <b_epik_Metal_Only>
0

> <s_lp_Force_Field>
OPLS_2005

> <r_lp_Energy>
14.1828

> <b_lp_Chiralities_Consistent>
1

> <s_lp_Variant>
AV-unprocessed.smi:1891-3

> <Gold.Version>
5.8.1

> <Gold.Id.Protein>
6NUR|6NUR_protein|mol2

> <Gold.PLP.Fitness>
62.1444

> <Gold.PLP.PLP>
-52.2389

> <Gold.PLP.part.hbond>
-3.4893

> <Gold.PLP.part.metal>
0.0000

> <Gold.PLP.part.buried>
0.4390

> <Gold.PLP.part.nonpolar>
-48.8790

> <Gold.PLP.part.repulsive>
0.0461

> <Gold.PLP.ligand.clash>
0.0000

> <Gold.PLP.ligand.torsion>
0.8985

> <Gold.PLP.Chemscore.Hbond>
3.8880

> <Gold.PLP.Chemscore.CHOScore>
0.0000

> <Gold.PLP.Chemscore.Metal>
0.0000

> <Gold.Chemscore.Hbonds>
donor molecule, donor type, donor heavy atom, donor atom, acceptor molecule, acceptor atom, score
      L1  H     1    23       P1  7949  0.90
      L1  H     4    37       P1  7948  2.00
      P1  H 10752 10763       L1     1  0.98

> <Gold.PLP.Chemscore.Internal.Correction>
0.0385

> <Gold.Rescore>
     Score         DG    S(hbond)    S(metal)    S(lipo)     H(rot)  DE(clash)    DE(int)     intcor
     17.12     -18.22       2.06        0.00     114.45       2.95       0.12       0.98       ----

> <Gold.Chemscore.Fitness>
17.1213

> <Gold.Chemscore.DG>
-18.2176

> <Gold.Chemscore.ZeroCoef>
-5.4800

> <Gold.Chemscore.Hbond>
2.0638

> <Gold.Chemscore.Metal>
0.0000

> <Gold.Chemscore.Lipo>
114.4469

> <Gold.Chemscore.Internal_Hbond>
0.0000

> <Gold.Chemscore.DEClash>
0.1184

> <Gold.Chemscore.DEInternal>
0.9780

> <Gold.Chemscore.Rot>
2.9475

> <Gold.Chemscore.Internal.Correction>
   9.000000E+99

> <Gold.Chemscore.Hbonds>
donor molecule, donor type, donor heavy atom, donor atom, acceptor molecule, acceptor atom, score
      L1  H     1    23       P1  7949  0.83
      L1  H     4    37       P1  7948  0.95
      P1  H 10752 10763       L1     1  0.20

> <Gold.Chemscore.Hbond.Weighted>
-6.8930

> <Gold.Chemscore.Metal.Weighted>
-0.0000

> <Gold.Chemscore.Lipo.Weighted>
-13.3903

> <Gold.Chemscore.Internal_Hbond.Weighted>
0.0000

> <Gold.Chemscore.DEClash.Weighted>
0.1184

> <Gold.Chemscore.DEInternal.Weighted>
0.9780

> <Gold.Chemscore.Rot.Weighted>
7.5457

> <Gold.Chemscore.Internal.Correction.Weighted>
   9.000000E+99

> <Gold.Protein.RotatedTorsions>
[ 6907 6896 6895 6894 ] final  -14.28 input  -60.11 | X-H torsion
[ 7974 7965 7964 7962 ] final   91.94 input  175.53 | X-H torsion
[ 8008 7997 7996 7995 ] final  -56.74 input   59.86 | X-H torsion
[ 10167 10162 10161 10158 ] final   41.92 input  -65.29 | X-H torsion
[ 10718 10713 10712 10709 ] final -113.72 input   66.30 | X-H torsion
[ 10763 10752 10751 10750 ] final   16.96 input  -60.55 | X-H torsion
[ 11005 11000 10999 10996 ] final   47.38 input  -57.11 | X-H torsion

> <Gold.Protein.ActiveResidues>
 VAL166  LYS551  ARG553  GLY616  TRP617  ASP618  TYR619  PRO620  LYS621  CYS622 
 ASP623  PHE694  ASN695  SER759  ASP760  ASP761  ALA762  ILE779  LEU786  VAL792 
 PHE793  MET794  SER795  GLU796  ALA797  LYS798  CYS799  TRP800  GLU811  SER814 

> <Gold.Protein.RotatedAtoms>
  151.3418  135.0865  159.9373 H   0  0  0  0  0  0  0  0  0  0  0  0  # atno 6907 bound_to 6896
  152.5209  133.9440  159.7650 H   0  0  0  0  0  0  0  0  0  0  0  0  # atno 6908 bound_to 6896
  150.9798  133.6204  159.2754 H   0  0  0  0  0  0  0  0  0  0  0  0  # atno 6909 bound_to 6896
  145.4989  139.2276  143.2788 H   0  0  0  0  0  0  0  0  0  0  0  0  # atno 7974 bound_to 7965
  154.4241  140.1122  156.5687 H   0  0  0  0  0  0  0  0  0  0  0  0  # atno 8008 bound_to 7997
  155.6235  140.3495  155.4641 H   0  0  0  0  0  0  0  0  0  0  0  0  # atno 8009 bound_to 7997
  156.0005  140.1198  157.0542 H   0  0  0  0  0  0  0  0  0  0  0  0  # atno 8010 bound_to 7997
  140.3595  144.2246  150.6139 H   0  0  0  0  0  0  0  0  0  0  0  0  # atno 10167 bound_to 10162
  156.0784  130.5988  150.8680 H   0  0  0  0  0  0  0  0  0  0  0  0  # atno 10718 bound_to 10713
  153.1383  135.6754  153.9068 H   0  0  0  0  0  0  0  0  0  0  0  0  # atno 10763 bound_to 10752
  153.8533  135.3090  155.3435 H   0  0  0  0  0  0  0  0  0  0  0  0  # atno 10764 bound_to 10752
  154.7766  135.4911  153.9840 H   0  0  0  0  0  0  0  0  0  0  0  0  # atno 10765 bound_to 10752
  140.1284  134.4738  155.8541 H   0  0  0  0  0  0  0  0  0  0  0  0  # atno 11005 bound_to 11000
  146.2238  140.5788  142.9005 LP  0  0  0  0  0  0  0  0  0  0  0  0  # atno 17320 bound_to 7965
  144.7791  140.5803  143.6617 LP  0  0  0  0  0  0  0  0  0  0  0  0  # atno 17321 bound_to 7965
  140.5141  143.2283  151.8491 LP  0  0  0  0  0  0  0  0  0  0  0  0  # atno 17342 bound_to 10162
  139.4816  144.4915  151.9178 LP  0  0  0  0  0  0  0  0  0  0  0  0  # atno 17343 bound_to 10162
  157.5891  131.0945  150.9149 LP  0  0  0  0  0  0  0  0  0  0  0  0  # atno 17370 bound_to 10713
  156.9328  130.5356  149.5279 LP  0  0  0  0  0  0  0  0  0  0  0  0  # atno 17371 bound_to 10713
  141.2165  133.6786  156.7022 LP  0  0  0  0  0  0  0  0  0  0  0  0  # atno 17394 bound_to 11000
  140.2874  134.8268  157.3987 LP  0  0  0  0  0  0  0  0  0  0  0  0  # atno 17395 bound_to 11000

$$$$
