AV-unprocessed.smi:1357|AV-procd|sdf|5548|dock8
  -GOLD-   22720 5143D 1   1.00000     0.00000
 Structure written by MMmdl.
 43 44  0  0  0  0  0  0  0  0  1 V2000
  147.0827  142.3001  158.8180 C   0  0  0  0  0  0  0  0  0  0  0  0
  146.0892  141.5697  157.8903 C   0  0  0  0  0  0  0  0  0  0  0  0
  145.2154  140.6218  158.7368 C   0  0  0  0  0  0  0  0  0  0  0  0
  145.1797  142.6188  157.2080 C   0  0  0  0  0  0  0  0  0  0  0  0
  146.8928  140.7261  156.8707 C   0  0  0  0  0  0  0  0  0  0  0  0
  146.7252  139.5063  156.8255 O   0  0  0  0  0  0  0  0  0  0  0  0
  147.7600  141.3587  156.0617 N   0  0  0  0  0  0  0  0  0  0  0  0
  148.6298  140.7116  155.0874 C   0  0  0  0  0  0  0  0  0  0  0  0
  149.9890  140.3747  155.6708 C   0  0  0  0  0  0  0  0  0  0  0  0
  150.8727  139.5132  154.9902 C   0  0  0  0  0  0  0  0  0  0  0  0
  152.1124  139.2162  155.5879 C   0  0  0  0  0  0  0  0  0  0  0  0
  152.4981  139.7162  156.7812 N   0  0  0  0  0  0  0  0  0  0  0  0
  151.6479  140.5434  157.4359 C   0  0  0  0  0  0  0  0  0  0  0  0
  152.0495  141.0732  158.6705 N   0  0  0  0  0  0  0  0  0  0  0  0
  152.0593  142.5305  158.6869 C   0  0  0  0  0  0  0  0  0  0  0  0
  152.3791  143.0399  160.1031 C   0  0  0  0  0  0  0  0  0  0  0  0
  153.6137  142.4827  160.5455 O   0  0  0  0  0  0  0  0  0  0  0  0
  153.5704  141.0593  160.5969 C   0  0  0  0  0  0  0  0  0  0  0  0
  153.2853  140.5014  159.1917 C   0  0  0  0  0  0  0  0  0  0  0  0
  150.3844  140.8991  156.9183 C   0  0  0  0  0  0  0  0  0  0  0  0
  146.5591  142.9071  159.5574 H   0  0  0  0  0  0  0  0  0  0  0  0
  147.7381  142.9663  158.2552 H   0  0  0  0  0  0  0  0  0  0  0  0
  147.7161  141.6018  159.3670 H   0  0  0  0  0  0  0  0  0  0  0  0
  145.8149  139.8804  159.2670 H   0  0  0  0  0  0  0  0  0  0  0  0
  144.4968  140.0828  158.1179 H   0  0  0  0  0  0  0  0  0  0  0  0
  144.6487  141.1737  159.4876 H   0  0  0  0  0  0  0  0  0  0  0  0
  144.6299  143.2004  157.9487 H   0  0  0  0  0  0  0  0  0  0  0  0
  144.4392  142.1518  156.5569 H   0  0  0  0  0  0  0  0  0  0  0  0
  145.7557  143.3262  156.6095 H   0  0  0  0  0  0  0  0  0  0  0  0
  147.8446  142.3608  156.1520 H   0  0  0  0  0  0  0  0  0  0  0  0
  148.1623  139.8106  154.6866 H   0  0  0  0  0  0  0  0  0  0  0  0
  148.7605  141.3878  154.2422 H   0  0  0  0  0  0  0  0  0  0  0  0
  150.6060  139.0833  154.0358 H   0  0  0  0  0  0  0  0  0  0  0  0
  152.8124  138.5579  155.0954 H   0  0  0  0  0  0  0  0  0  0  0  0
  152.8059  142.9007  157.9827 H   0  0  0  0  0  0  0  0  0  0  0  0
  151.0907  142.9119  158.3612 H   0  0  0  0  0  0  0  0  0  0  0  0
  152.4599  144.1268  160.1017 H   0  0  0  0  0  0  0  0  0  0  0  0
  151.5807  142.7802  160.8000 H   0  0  0  0  0  0  0  0  0  0  0  0
  154.5278  140.6875  160.9622 H   0  0  0  0  0  0  0  0  0  0  0  0
  152.8092  140.7336  161.3078 H   0  0  0  0  0  0  0  0  0  0  0  0
  153.2017  139.4146  159.2294 H   0  0  0  0  0  0  0  0  0  0  0  0
  154.1159  140.7398  158.5257 H   0  0  0  0  0  0  0  0  0  0  0  0
  149.7304  141.5595  157.4693 H   0  0  0  0  0  0  0  0  0  0  0  0
  1  2  1  0  0  0  0
  1 21  1  0  0  0  0
  1 22  1  0  0  0  0
  1 23  1  0  0  0  0
  2  3  1  0  0  0  0
  2  4  1  0  0  0  0
  2  5  1  0  0  0  0
  3 24  1  0  0  0  0
  3 25  1  0  0  0  0
  3 26  1  0  0  0  0
  4 27  1  0  0  0  0
  4 28  1  0  0  0  0
  4 29  1  0  0  0  0
  5  6  2  0  0  0  0
  5  7  1  0  0  0  0
  7  8  1  0  0  0  0
  7 30  1  0  0  0  0
  8  9  1  0  0  0  0
  8 31  1  0  0  0  0
  8 32  1  0  0  0  0
  9 20  1  0  0  0  0
  9 10  2  0  0  0  0
 10 11  1  0  0  0  0
 10 33  1  0  0  0  0
 11 12  2  0  0  0  0
 11 34  1  0  0  0  0
 12 13  1  0  0  0  0
 13 14  1  0  0  0  0
 13 20  2  0  0  0  0
 14 19  1  0  0  0  0
 14 15  1  0  0  0  0
 15 16  1  0  0  0  0
 15 35  1  0  0  0  0
 15 36  1  0  0  0  0
 16 17  1  0  0  0  0
 16 37  1  0  0  0  0
 16 38  1  0  0  0  0
 17 18  1  0  0  0  0
 18 19  1  0  0  0  0
 18 39  1  0  0  0  0
 18 40  1  0  0  0  0
 19 41  1  0  0  0  0
 19 42  1  0  0  0  0
 20 43  1  0  0  0  0
M  END
> <s_m_source_file>
AV-unprocessed.smi

> <i_m_source_file_index>
1357

> <i_lp_mmshare_version>
43012

> <i_f3d_flags>
0

> <s_epik_input>
W0NIM11DKFtDSDNdKShbQ0gzXSlDKD1PKVtOSF1bQ0gyXWMxW2NIXVtjSF1uYyhbY0hdMSlOMltDSDJdW0NIMl1PW0NIMl1bQ0gyXTI=

> <s_epik_cmdline>
J2VwaWtfcHl0aG9uJywgJy1waCcsICc3LjAnLCAnLXRuJywgJzgnLCAnLW1hJywgJzIwMCcsICctbWV0YWxfYmluZGluZycsICctaW1hZScsICc8aW5maWxlLm1hZT4nLCAnLW9tYWUnLCAnPG91dGZpbGUubWFlPic=

> <r_lp_tautomer_probability>
1

> <r_epik_Ionization_Penalty>
0.00576178

> <r_epik_Ionization_Penalty_Charging>
0

> <r_epik_Ionization_Penalty_Neutral>
0.00576178

> <r_epik_State_Penalty>
0.00422935

> <r_epik_Charging_Adjusted_Penalty>
0.00422935

> <i_epik_Tot_Q>
0

> <i_epik_Tot_abs_Q>
0

> <r_epik_Metal_State_Penalty>
-0

> <b_epik_Metal_Only>
0

> <s_lp_Force_Field>
OPLS_2005

> <r_lp_Energy>
22.6538

> <b_lp_Chiralities_Consistent>
1

> <s_lp_Variant>
AV-unprocessed.smi:1357-1

> <Gold.Version>
5.8.1

> <Gold.Id.Protein>
6NUR|6NUR_protein|mol2

> <Gold.PLP.Fitness>
38.3976

> <Gold.PLP.PLP>
-33.0829

> <Gold.PLP.part.hbond>
-2.0000

> <Gold.PLP.part.metal>
0.0000

> <Gold.PLP.part.buried>
-1.3122

> <Gold.PLP.part.nonpolar>
-29.1183

> <Gold.PLP.part.repulsive>
0.0689

> <Gold.PLP.ligand.clash>
0.0000

> <Gold.PLP.ligand.torsion>
0.3971

> <Gold.PLP.Chemscore.Hbond>
2.0000

> <Gold.PLP.Chemscore.CHOScore>
0.0000

> <Gold.PLP.Chemscore.Metal>
0.0000

> <Gold.Chemscore.Hbonds>
donor molecule, donor type, donor heavy atom, donor atom, acceptor molecule, acceptor atom, score
      P1  H  7997  8010       L1    12  0.95

> <Gold.PLP.Chemscore.Internal.Correction>
0.1088

> <Gold.Rescore>
     Score         DG    S(hbond)    S(metal)    S(lipo)     H(rot)  DE(clash)    DE(int)     intcor
     15.22     -16.75       1.67        0.00      81.93       1.52       1.20       0.32       ----

> <Gold.Chemscore.Fitness>
15.2208

> <Gold.Chemscore.DG>
-16.7463

> <Gold.Chemscore.ZeroCoef>
-5.4800

> <Gold.Chemscore.Hbond>
1.6660

> <Gold.Chemscore.Metal>
0.0000

> <Gold.Chemscore.Lipo>
81.9334

> <Gold.Chemscore.Internal_Hbond>
0.0000

> <Gold.Chemscore.DEClash>
1.2044

> <Gold.Chemscore.DEInternal>
0.3211

> <Gold.Chemscore.Rot>
1.5173

> <Gold.Chemscore.Internal.Correction>
   9.000000E+99

> <Gold.Chemscore.Hbonds>
donor molecule, donor type, donor heavy atom, donor atom, acceptor molecule, acceptor atom, score
      P1  H  7997  8010       L1    12  0.21

> <Gold.Chemscore.Hbond.Weighted>
-5.5644

> <Gold.Chemscore.Metal.Weighted>
-0.0000

> <Gold.Chemscore.Lipo.Weighted>
-9.5862

> <Gold.Chemscore.Internal_Hbond.Weighted>
0.0000

> <Gold.Chemscore.DEClash.Weighted>
1.2044

> <Gold.Chemscore.DEInternal.Weighted>
0.3211

> <Gold.Chemscore.Rot.Weighted>
3.8843

> <Gold.Chemscore.Internal.Correction.Weighted>
   9.000000E+99

> <Gold.Protein.RotatedTorsions>
[ 6907 6896 6895 6894 ] final -117.84 input  -60.11 | X-H torsion
[ 7974 7965 7964 7962 ] final   12.08 input  175.53 | X-H torsion
[ 8008 7997 7996 7995 ] final   78.13 input   59.86 | X-H torsion
[ 10167 10162 10161 10158 ] final   15.00 input  -65.29 | X-H torsion
[ 10718 10713 10712 10709 ] final   32.82 input   66.30 | X-H torsion
[ 10763 10752 10751 10750 ] final  131.55 input  -60.55 | X-H torsion
[ 11005 11000 10999 10996 ] final -148.09 input  -57.11 | X-H torsion

> <Gold.Protein.ActiveResidues>
 VAL166  LYS551  ARG553  GLY616  TRP617  ASP618  TYR619  PRO620  LYS621  CYS622 
 ASP623  PHE694  ASN695  SER759  ASP760  ASP761  ALA762  ILE779  LEU786  VAL792 
 PHE793  MET794  SER795  GLU796  ALA797  LYS798  CYS799  TRP800  GLU811  SER814 

> <Gold.Protein.RotatedAtoms>
  150.8170  133.8320  159.3155 H   0  0  0  0  0  0  0  0  0  0  0  0  # atno 6907 bound_to 6896
  151.6089  135.1040  160.0086 H   0  0  0  0  0  0  0  0  0  0  0  0  # atno 6908 bound_to 6896
  152.4261  133.7156  159.6560 H   0  0  0  0  0  0  0  0  0  0  0  0  # atno 6909 bound_to 6896
  146.2358  139.9390  142.8486 H   0  0  0  0  0  0  0  0  0  0  0  0  # atno 7974 bound_to 7965
  155.8514  140.3458  155.5696 H   0  0  0  0  0  0  0  0  0  0  0  0  # atno 8008 bound_to 7997
  155.8033  140.0888  157.1964 H   0  0  0  0  0  0  0  0  0  0  0  0  # atno 8009 bound_to 7997
  154.4008  140.1461  156.3288 H   0  0  0  0  0  0  0  0  0  0  0  0  # atno 8010 bound_to 7997
  140.5897  143.8820  150.6862 H   0  0  0  0  0  0  0  0  0  0  0  0  # atno 10167 bound_to 10162
  157.2901  130.7298  149.6606 H   0  0  0  0  0  0  0  0  0  0  0  0  # atno 10718 bound_to 10713
  153.7762  135.3175  155.3359 H   0  0  0  0  0  0  0  0  0  0  0  0  # atno 10763 bound_to 10752
  154.8178  135.4624  154.0696 H   0  0  0  0  0  0  0  0  0  0  0  0  # atno 10764 bound_to 10752
  153.1970  135.6917  153.8364 H   0  0  0  0  0  0  0  0  0  0  0  0  # atno 10765 bound_to 10752
  140.7648  134.3256  157.5091 H   0  0  0  0  0  0  0  0  0  0  0  0  # atno 11005 bound_to 11000
  145.1971  140.9838  143.4177 LP  0  0  0  0  0  0  0  0  0  0  0  0  # atno 17320 bound_to 7965
  144.9806  139.3787  143.6264 LP  0  0  0  0  0  0  0  0  0  0  0  0  # atno 17321 bound_to 7965
  140.2340  143.3714  152.1542 LP  0  0  0  0  0  0  0  0  0  0  0  0  # atno 17342 bound_to 10162
  139.5220  144.7053  151.5374 LP  0  0  0  0  0  0  0  0  0  0  0  0  # atno 17343 bound_to 10162
  155.9667  130.4311  150.4907 LP  0  0  0  0  0  0  0  0  0  0  0  0  # atno 17370 bound_to 10713
  157.2868  131.0618  151.2161 LP  0  0  0  0  0  0  0  0  0  0  0  0  # atno 17371 bound_to 10713
  139.8765  134.9224  156.3300 LP  0  0  0  0  0  0  0  0  0  0  0  0  # atno 17394 bound_to 11000
  140.9629  133.7377  156.0426 LP  0  0  0  0  0  0  0  0  0  0  0  0  # atno 17395 bound_to 11000

$$$$
