AV-unprocessed.smi:322|AV-procd|sdf|2338|dock9
  -GOLD-   2262022253D 1   1.00000     0.00000
 Structure written by MMmdl.
 44 46  0  0  0  0  0  0  0  0  2 V2000
  148.8762  139.6881  155.0011 O   0  0  0  0  0  0  0  0  0  0  0  0
  149.6805  140.8011  154.6713 C   0  0  0  0  0  0  0  0  0  0  0  0
  150.3537  141.4148  155.8575 C   0  0  0  0  0  0  0  0  0  0  0  0
  150.1989  142.6943  156.3038 N   0  3  0  0  0  0  0  0  0  0  0  0
  150.9812  142.8984  157.4406 C   0  0  0  0  0  0  0  0  0  0  0  0
  151.1518  144.0255  158.2386 C   0  0  0  0  0  0  0  0  0  0  0  0
  152.0321  143.8984  159.3330 C   0  0  0  0  0  0  0  0  0  0  0  0
  152.7029  142.6868  159.5987 C   0  0  0  0  0  0  0  0  0  0  0  0
  152.5210  141.5507  158.7827 C   0  0  0  0  0  0  0  0  0  0  0  0
  151.6477  141.6840  157.7030 C   0  0  0  0  0  0  0  0  0  0  0  0
  151.2302  140.7984  156.7016 N   0  0  0  0  0  0  0  0  0  0  0  0
  151.7431  139.4192  156.6898 C   0  0  0  0  0  0  0  0  0  0  0  0
  152.0939  138.9209  155.2724 C   0  0  1  0  0  0  0  0  0  0  0  0
  153.4815  138.7032  155.1163 O   0  0  0  0  0  0  0  0  0  0  0  0
  151.3326  137.6491  154.8675 C   0  0  0  0  0  0  0  0  0  0  0  0
  151.7493  136.5557  155.6750 O   0  0  0  0  0  0  0  0  0  0  0  0
  150.6766  135.8333  156.2621 C   0  0  0  0  0  0  0  0  0  0  0  0
  150.5441  134.4210  155.7191 C   0  0  0  0  0  0  0  0  0  0  0  0
  149.7368  134.1704  154.5892 C   0  0  0  0  0  0  0  0  0  0  0  0
  149.6082  132.8608  154.0872 C   0  0  0  0  0  0  0  0  0  0  0  0
  150.2809  131.7957  154.7175 C   0  0  0  0  0  0  0  0  0  0  0  0
  150.1258  130.1914  154.1023 Cl  0  0  0  0  0  0  0  0  0  0  0  0
  151.0794  132.0410  155.8517 C   0  0  0  0  0  0  0  0  0  0  0  0
  151.2087  133.3507  156.3535 C   0  0  0  0  0  0  0  0  0  0  0  0
  149.0285  139.0072  154.3633 H   0  0  0  0  0  0  0  0  0  0  0  0
  150.4395  140.4903  153.9534 H   0  0  0  0  0  0  0  0  0  0  0  0
  149.0581  141.5503  154.1819 H   0  0  0  0  0  0  0  0  0  0  0  0
  150.6395  144.9547  158.0362 H   0  0  0  0  0  0  0  0  0  0  0  0
  152.1971  144.7471  159.9809 H   0  0  0  0  0  0  0  0  0  0  0  0
  153.3714  142.6270  160.4454 H   0  0  0  0  0  0  0  0  0  0  0  0
  153.0443  140.6296  158.9938 H   0  0  0  0  0  0  0  0  0  0  0  0
  152.5993  139.3539  157.3612 H   0  0  0  0  0  0  0  0  0  0  0  0
  150.9725  138.7814  157.1247 H   0  0  0  0  0  0  0  0  0  0  0  0
  151.8335  139.7022  154.5576 H   0  0  0  0  0  0  0  0  0  0  0  0
  153.6534  138.5089  154.2079 H   0  0  0  0  0  0  0  0  0  0  0  0
  150.2652  137.8228  155.0095 H   0  0  0  0  0  0  0  0  0  0  0  0
  151.4809  137.4261  153.8097 H   0  0  0  0  0  0  0  0  0  0  0  0
  150.7734  135.8259  157.3491 H   0  0  0  0  0  0  0  0  0  0  0  0
  149.7517  136.3644  156.0371 H   0  0  0  0  0  0  0  0  0  0  0  0
  149.2175  134.9831  154.1024 H   0  0  0  0  0  0  0  0  0  0  0  0
  148.9930  132.6751  153.2190 H   0  0  0  0  0  0  0  0  0  0  0  0
  151.5933  131.2253  156.3384 H   0  0  0  0  0  0  0  0  0  0  0  0
  151.8222  133.5299  157.2242 H   0  0  0  0  0  0  0  0  0  0  0  0
  149.5985  143.3747  155.8559 H   0  0  0  0  0  0  0  0  0  0  0  0
  1  2  1  0  0  0  0
  1 25  1  0  0  0  0
  2  3  1  0  0  0  0
  2 26  1  0  0  0  0
  2 27  1  0  0  0  0
  3 11  1  0  0  0  0
  3  4  2  0  0  0  0
  4  5  1  0  0  0  0
  4 44  1  0  0  0  0
  5 10  2  0  0  0  0
  5  6  1  0  0  0  0
  6  7  2  0  0  0  0
  6 28  1  0  0  0  0
  7  8  1  0  0  0  0
  7 29  1  0  0  0  0
  8  9  2  0  0  0  0
  8 30  1  0  0  0  0
  9 10  1  0  0  0  0
  9 31  1  0  0  0  0
 10 11  1  0  0  0  0
 11 12  1  0  0  0  0
 12 13  1  0  0  0  0
 12 32  1  0  0  0  0
 12 33  1  0  0  0  0
 13 14  1  0  0  0  0
 13 15  1  0  0  0  0
 13 34  1  0  0  0  0
 14 35  1  0  0  0  0
 15 16  1  0  0  0  0
 15 36  1  0  0  0  0
 15 37  1  0  0  0  0
 16 17  1  0  0  0  0
 17 18  1  0  0  0  0
 17 38  1  0  0  0  0
 17 39  1  0  0  0  0
 18 24  1  0  0  0  0
 18 19  2  0  0  0  0
 19 20  1  0  0  0  0
 19 40  1  0  0  0  0
 20 21  2  0  0  0  0
 20 41  1  0  0  0  0
 21 22  1  0  0  0  0
 21 23  1  0  0  0  0
 23 24  2  0  0  0  0
 23 42  1  0  0  0  0
 24 43  1  0  0  0  0
M  CHG  1   4   1
M  END
> <s_m_source_file>
AV-unprocessed.smi

> <i_m_source_file_index>
322

> <i_lp_mmshare_version>
43012

> <i_f3d_flags>
0

> <s_epik_input>
W2NIXTFbY0hdW2NIXVtjSF1jKGMxMiluKGMobjIpW0NIMl1bT0hdKVtDSDJdW0NASF0oW09IXSlbQ0gyXU9bQ0gyXWMzW2NIXVtjSF1jKENsKVtjSF1bY0hdMw==

> <s_epik_cmdline>
J2VwaWtfcHl0aG9uJywgJy1waCcsICc3LjAnLCAnLXRuJywgJzgnLCAnLW1hJywgJzIwMCcsICctbWV0YWxfYmluZGluZycsICctaW1hZScsICc8aW5maWxlLm1hZT4nLCAnLW9tYWUnLCAnPG91dGZpbGUubWFlPic=

> <r_epik_Ionization_Penalty>
1.34314

> <r_epik_Ionization_Penalty_Charging>
1.34228

> <r_epik_Ionization_Penalty_Neutral>
0.000856898

> <r_epik_State_Penalty>
1.41963

> <r_epik_Charging_Adjusted_Penalty>
2.76191

> <i_epik_Tot_Q>
1

> <i_epik_Tot_abs_Q>
1

> <r_epik_Metal_State_Penalty>
5.45585

> <b_epik_Metal_Only>
0

> <s_lp_Force_Field>
OPLS_2005

> <r_lp_Energy>
18.1593

> <b_lp_Chiralities_Consistent>
1

> <s_lp_Variant>
AV-unprocessed.smi:322-4

> <Gold.Version>
5.8.1

> <Gold.Id.Protein>
6NUR|6NUR_protein|mol2

> <Gold.PLP.Fitness>
61.0164

> <Gold.PLP.PLP>
-53.1117

> <Gold.PLP.part.hbond>
-2.9162

> <Gold.PLP.part.metal>
0.0000

> <Gold.PLP.part.buried>
-6.5473

> <Gold.PLP.part.nonpolar>
-43.6810

> <Gold.PLP.part.repulsive>
0.1598

> <Gold.PLP.ligand.clash>
0.0000

> <Gold.PLP.ligand.torsion>
2.0915

> <Gold.PLP.Chemscore.Hbond>
3.9745

> <Gold.PLP.Chemscore.CHOScore>
0.0000

> <Gold.PLP.Chemscore.Metal>
0.0000

> <Gold.Chemscore.Hbonds>
donor molecule, donor type, donor heavy atom, donor atom, acceptor molecule, acceptor atom, score
      L1  H     4    44       P1  8028  2.00
      P1  H  7997  8009       L1    14  0.96
      P1  H 10752 10763       L1    16  1.00

> <Gold.PLP.Chemscore.Internal.Correction>
0.1642

> <Gold.Rescore>
     Score         DG    S(hbond)    S(metal)    S(lipo)     H(rot)  DE(clash)    DE(int)     intcor
     19.20     -21.22       2.51        0.00     133.78       3.24       0.04       1.98       ----

> <Gold.Chemscore.Fitness>
19.2042

> <Gold.Chemscore.DG>
-21.2208

> <Gold.Chemscore.ZeroCoef>
-5.4800

> <Gold.Chemscore.Hbond>
2.5084

> <Gold.Chemscore.Metal>
0.0000

> <Gold.Chemscore.Lipo>
133.7846

> <Gold.Chemscore.Internal_Hbond>
0.0000

> <Gold.Chemscore.DEClash>
0.0404

> <Gold.Chemscore.DEInternal>
1.9762

> <Gold.Chemscore.Rot>
3.2383

> <Gold.Chemscore.Internal.Correction>
   9.000000E+99

> <Gold.Chemscore.Hbonds>
donor molecule, donor type, donor heavy atom, donor atom, acceptor molecule, acceptor atom, score
      L1  H     4    44       P1  8028  0.92
      P1  H  7997  8009       L1    14  0.63
      P1  H 10752 10763       L1    16  0.74

> <Gold.Chemscore.Hbond.Weighted>
-8.3781

> <Gold.Chemscore.Metal.Weighted>
-0.0000

> <Gold.Chemscore.Lipo.Weighted>
-15.6528

> <Gold.Chemscore.Internal_Hbond.Weighted>
0.0000

> <Gold.Chemscore.DEClash.Weighted>
0.0404

> <Gold.Chemscore.DEInternal.Weighted>
1.9762

> <Gold.Chemscore.Rot.Weighted>
8.2901

> <Gold.Chemscore.Internal.Correction.Weighted>
   9.000000E+99

> <Gold.Protein.RotatedTorsions>
[ 6907 6896 6895 6894 ] final  170.79 input  -60.11 | X-H torsion
[ 7974 7965 7964 7962 ] final  -66.10 input  175.53 | X-H torsion
[ 8008 7997 7996 7995 ] final -134.65 input   59.86 | X-H torsion
[ 10167 10162 10161 10158 ] final -141.74 input  -65.29 | X-H torsion
[ 10718 10713 10712 10709 ] final  123.08 input   66.30 | X-H torsion
[ 10763 10752 10751 10750 ] final   74.89 input  -60.55 | X-H torsion
[ 11005 11000 10999 10996 ] final  163.56 input  -57.11 | X-H torsion

> <Gold.Protein.ActiveResidues>
 VAL166  LYS551  ARG553  GLY616  TRP617  ASP618  TYR619  PRO620  LYS621  CYS622 
 ASP623  PHE694  ASN695  SER759  ASP760  ASP761  ALA762  ILE779  LEU786  VAL792 
 PHE793  MET794  SER795  GLU796  ALA797  LYS798  CYS799  TRP800  GLU811  SER814 

> <Gold.Protein.RotatedAtoms>
  151.8106  133.3381  159.3553 H   0  0  0  0  0  0  0  0  0  0  0  0  # atno 6907 bound_to 6896
  150.7327  134.5668  159.5879 H   0  0  0  0  0  0  0  0  0  0  0  0  # atno 6908 bound_to 6896
  152.3078  134.7535  160.0394 H   0  0  0  0  0  0  0  0  0  0  0  0  # atno 6909 bound_to 6896
  145.7460  140.8931  143.0505 H   0  0  0  0  0  0  0  0  0  0  0  0  # atno 7974 bound_to 7965
  155.3656  140.0485  157.3046 H   0  0  0  0  0  0  0  0  0  0  0  0  # atno 8008 bound_to 7997
  154.5156  140.2207  155.9036 H   0  0  0  0  0  0  0  0  0  0  0  0  # atno 8009 bound_to 7997
  156.1632  140.3112  155.8850 H   0  0  0  0  0  0  0  0  0  0  0  0  # atno 8010 bound_to 7997
  139.8156  143.7644  152.2665 H   0  0  0  0  0  0  0  0  0  0  0  0  # atno 10167 bound_to 10162
  157.5693  131.1084  150.8397 H   0  0  0  0  0  0  0  0  0  0  0  0  # atno 10718 bound_to 10713
  153.0617  135.5009  154.8109 H   0  0  0  0  0  0  0  0  0  0  0  0  # atno 10763 bound_to 10752
  154.6893  135.2981  154.9505 H   0  0  0  0  0  0  0  0  0  0  0  0  # atno 10764 bound_to 10752
  154.0265  135.6735  153.4829 H   0  0  0  0  0  0  0  0  0  0  0  0  # atno 10765 bound_to 10752
  140.2371  134.8080  157.3374 H   0  0  0  0  0  0  0  0  0  0  0  0  # atno 11005 bound_to 11000
  144.6860  139.9526  143.7478 LP  0  0  0  0  0  0  0  0  0  0  0  0  # atno 17320 bound_to 7965
  146.0402  139.3415  143.0702 LP  0  0  0  0  0  0  0  0  0  0  0  0  # atno 17321 bound_to 7965
  139.7806  144.7446  151.0094 LP  0  0  0  0  0  0  0  0  0  0  0  0  # atno 17342 bound_to 10162
  140.7816  143.4546  151.0364 LP  0  0  0  0  0  0  0  0  0  0  0  0  # atno 17343 bound_to 10162
  156.8873  130.5200  149.5288 LP  0  0  0  0  0  0  0  0  0  0  0  0  # atno 17370 bound_to 10713
  156.0739  130.5766  150.9436 LP  0  0  0  0  0  0  0  0  0  0  0  0  # atno 17371 bound_to 10713
  140.1691  134.4631  155.7843 LP  0  0  0  0  0  0  0  0  0  0  0  0  # atno 17394 bound_to 11000
  141.2213  133.6934  156.7677 LP  0  0  0  0  0  0  0  0  0  0  0  0  # atno 17395 bound_to 11000

$$$$
