AV-unprocessed.smi:1948|AV-procd|sdf|7874|dock1
  -GOLD-   2272010 23D 1   1.00000     0.00000
 Structure written by MMmdl.
 30 31  0  0  0  0  0  0  0  0  1 V2000
  147.5414  132.5665  154.2637 O   0  0  0  0  0  0  0  0  0  0  0  0
  147.8741  133.5230  153.5634 C   0  0  0  0  0  0  0  0  0  0  0  0
  148.8035  134.4391  153.8886 N   0  0  0  0  0  0  0  0  0  0  0  0
  149.5923  134.5127  155.0673 C   0  0  0  0  0  0  0  0  0  0  0  0
  149.5156  133.6252  156.0717 N   0  0  0  0  0  0  0  0  0  0  0  0
  150.3960  133.9290  157.1022 N   0  0  0  0  0  0  0  0  0  0  0  0
  151.1013  135.0318  156.8348 C   0  0  0  0  0  0  0  0  0  0  0  0
  150.7600  135.8065  155.2972 S   0  0  0  0  0  0  0  0  0  0  0  0
  147.3367  133.7824  152.3624 N   0  0  0  0  0  0  0  0  0  0  0  0
  146.2955  132.9887  151.7160 C   0  0  2  0  0  0  0  0  0  0  0  0
  146.5627  132.9186  150.2017 C   0  0  0  0  0  0  0  0  0  0  0  0
  145.4643  132.1257  149.4717 C   0  0  0  0  0  0  0  0  0  0  0  0
  144.0557  132.6787  149.7599 C   0  0  2  0  0  0  0  0  0  0  0  0
  143.8918  133.9358  149.1338 O   0  0  0  0  0  0  0  0  0  0  0  0
  143.7940  132.8031  151.2727 C   0  0  0  0  0  0  0  0  0  0  0  0
  144.9024  133.5885  151.9957 C   0  0  0  0  0  0  0  0  0  0  0  0
  148.9629  135.1735  153.2151 H   0  0  0  0  0  0  0  0  0  0  0  0
  151.8285  135.3908  157.5478 H   0  0  0  0  0  0  0  0  0  0  0  0
  147.6691  134.5903  151.8565 H   0  0  0  0  0  0  0  0  0  0  0  0
  146.3276  131.9714  152.1113 H   0  0  0  0  0  0  0  0  0  0  0  0
  146.6200  133.9264  149.7877 H   0  0  0  0  0  0  0  0  0  0  0  0
  147.5318  132.4547  150.0147 H   0  0  0  0  0  0  0  0  0  0  0  0
  145.6561  132.1200  148.3982 H   0  0  0  0  0  0  0  0  0  0  0  0
  145.5088  131.0842  149.7929 H   0  0  0  0  0  0  0  0  0  0  0  0
  143.3143  132.0083  149.3236 H   0  0  0  0  0  0  0  0  0  0  0  0
  144.7384  134.2396  148.8440 H   0  0  0  0  0  0  0  0  0  0  0  0
  142.8250  133.2702  151.4529 H   0  0  0  0  0  0  0  0  0  0  0  0
  143.7333  131.8035  151.7050 H   0  0  0  0  0  0  0  0  0  0  0  0
  144.7024  133.5924  153.0678 H   0  0  0  0  0  0  0  0  0  0  0  0
  144.8778  134.6314  151.6761 H   0  0  0  0  0  0  0  0  0  0  0  0
  1  2  2  0  0  0  0
  2  3  1  0  0  0  0
  2  9  1  0  0  0  0
  3  4  1  0  0  0  0
  3 17  1  0  0  0  0
  4  8  1  0  0  0  0
  4  5  2  0  0  0  0
  5  6  1  0  0  0  0
  6  7  2  0  0  0  0
  7  8  1  0  0  0  0
  7 18  1  0  0  0  0
  9 10  1  0  0  0  0
  9 19  1  0  0  0  0
 10 16  1  0  0  0  0
 10 11  1  0  0  0  0
 10 20  1  0  0  0  0
 11 12  1  0  0  0  0
 11 21  1  0  0  0  0
 11 22  1  0  0  0  0
 12 13  1  0  0  0  0
 12 23  1  0  0  0  0
 12 24  1  0  0  0  0
 13 14  1  0  0  0  0
 13 15  1  0  0  0  0
 13 25  1  0  0  0  0
 14 26  1  0  0  0  0
 15 16  1  0  0  0  0
 15 27  1  0  0  0  0
 15 28  1  0  0  0  0
 16 29  1  0  0  0  0
 16 30  1  0  0  0  0
M  END
> <s_m_source_file>
AV-unprocessed.smi

> <i_m_source_file_index>
1948

> <i_lp_mmshare_version>
43012

> <i_f3d_flags>
0

> <s_epik_input>
czFbY0hdbm5jMVtOSF1DKD1PKVtOSF1bQ0BASF0yW0NIMl1bQ0gyXVtDQEBIXShbT0hdKVtDSDJdW0NIMl0y

> <s_epik_cmdline>
J2VwaWtfcHl0aG9uJywgJy1waCcsICc3LjAnLCAnLXRuJywgJzgnLCAnLW1hJywgJzIwMCcsICctbWV0YWxfYmluZGluZycsICctaW1hZScsICc8aW5maWxlLm1hZT4nLCAnLW9tYWUnLCAnPG91dGZpbGUubWFlPic=

> <r_lp_tautomer_probability>
1

> <r_epik_Ionization_Penalty>
0.000336938

> <r_epik_Ionization_Penalty_Charging>
0

> <r_epik_Ionization_Penalty_Neutral>
0.000336938

> <r_epik_State_Penalty>
-0

> <r_epik_Charging_Adjusted_Penalty>
0

> <i_epik_Tot_Q>
0

> <i_epik_Tot_abs_Q>
0

> <r_epik_Metal_State_Penalty>
0.175756

> <b_epik_Metal_Only>
0

> <s_lp_Force_Field>
OPLS_2005

> <r_lp_Energy>
9.37087

> <b_lp_Chiralities_Consistent>
1

> <s_lp_Variant>
AV-unprocessed.smi:1948-2

> <Gold.Version>
5.8.1

> <Gold.Id.Protein>
6NUR|6NUR_protein|mol2

> <Gold.PLP.Fitness>
37.9231

> <Gold.PLP.PLP>
-28.3085

> <Gold.PLP.part.hbond>
-5.0000

> <Gold.PLP.part.metal>
0.0000

> <Gold.PLP.part.buried>
-2.7717

> <Gold.PLP.part.nonpolar>
-20.0854

> <Gold.PLP.part.repulsive>
0.0595

> <Gold.PLP.ligand.clash>
0.0000

> <Gold.PLP.ligand.torsion>
0.3315

> <Gold.PLP.Chemscore.Hbond>
3.4249

> <Gold.PLP.Chemscore.CHOScore>
0.0000

> <Gold.PLP.Chemscore.Metal>
0.0000

> <Gold.Chemscore.Hbonds>
donor molecule, donor type, donor heavy atom, donor atom, acceptor molecule, acceptor atom, score
      L1  H     3    17       P1  7948  1.00
      L1  H     9    19       P1  7948  0.94
      L1  H    14    26       P1  7921  1.00
      P1  H  6896  6908       L1     6  0.44

> <Gold.PLP.Chemscore.Internal.Correction>
0.0030

> <Gold.Rescore>
     Score         DG    S(hbond)    S(metal)    S(lipo)     H(rot)  DE(clash)    DE(int)     intcor
     17.08     -18.70       3.29        0.00      52.76       1.55       0.00       1.62       ----

> <Gold.Chemscore.Fitness>
17.0771

> <Gold.Chemscore.DG>
-18.7017

> <Gold.Chemscore.ZeroCoef>
-5.4800

> <Gold.Chemscore.Hbond>
3.2949

> <Gold.Chemscore.Metal>
0.0000

> <Gold.Chemscore.Lipo>
52.7647

> <Gold.Chemscore.Internal_Hbond>
0.0000

> <Gold.Chemscore.DEClash>
0.0038

> <Gold.Chemscore.DEInternal>
1.6209

> <Gold.Chemscore.Rot>
1.5456

> <Gold.Chemscore.Internal.Correction>
   9.000000E+99

> <Gold.Chemscore.Hbonds>
donor molecule, donor type, donor heavy atom, donor atom, acceptor molecule, acceptor atom, score
      L1  H     3    17       P1  7948  0.35
      L1  H     9    19       P1  7948  0.34
      L1  H    14    26       P1  7921  0.99
      P1  H  6896  6908       L1     6  0.08

> <Gold.Chemscore.Hbond.Weighted>
-11.0051

> <Gold.Chemscore.Metal.Weighted>
-0.0000

> <Gold.Chemscore.Lipo.Weighted>
-6.1735

> <Gold.Chemscore.Internal_Hbond.Weighted>
0.0000

> <Gold.Chemscore.DEClash.Weighted>
0.0038

> <Gold.Chemscore.DEInternal.Weighted>
1.6209

> <Gold.Chemscore.Rot.Weighted>
3.9568

> <Gold.Chemscore.Internal.Correction.Weighted>
   9.000000E+99

> <Gold.Protein.RotatedTorsions>
[ 6907 6896 6895 6894 ] final  120.21 input  -60.11 | X-H torsion
[ 7974 7965 7964 7962 ] final  -28.68 input  175.53 | X-H torsion
[ 8008 7997 7996 7995 ] final  -71.33 input   59.86 | X-H torsion
[ 10167 10162 10161 10158 ] final -133.09 input  -65.29 | X-H torsion
[ 10718 10713 10712 10709 ] final   96.84 input   66.30 | X-H torsion
[ 10763 10752 10751 10750 ] final   43.10 input  -60.55 | X-H torsion
[ 11005 11000 10999 10996 ] final  -19.78 input  -57.11 | X-H torsion

> <Gold.Protein.ActiveResidues>
 VAL166  LYS551  ARG553  GLY616  TRP617  ASP618  TYR619  PRO620  LYS621  CYS622 
 ASP623  PHE694  ASN695  SER759  ASP760  ASP761  ALA762  ILE779  LEU786  VAL792 
 PHE793  MET794  SER795  GLU796  ALA797  LYS798  CYS799  TRP800  GLU811  SER814 

> <Gold.Protein.RotatedAtoms>
  152.4415  133.7456  159.6665 H   0  0  0  0  0  0  0  0  0  0  0  0  # atno 6907 bound_to 6896
  150.8306  133.8087  159.3106 H   0  0  0  0  0  0  0  0  0  0  0  0  # atno 6908 bound_to 6896
  151.5742  135.1064  160.0054 H   0  0  0  0  0  0  0  0  0  0  0  0  # atno 6909 bound_to 6896
  146.1271  140.5314  142.8710 H   0  0  0  0  0  0  0  0  0  0  0  0  # atno 7974 bound_to 7965
  154.5080  140.0817  156.7933 H   0  0  0  0  0  0  0  0  0  0  0  0  # atno 8008 bound_to 7997
  155.3850  140.3429  155.4230 H   0  0  0  0  0  0  0  0  0  0  0  0  # atno 8009 bound_to 7997
  156.1539  140.1567  156.8713 H   0  0  0  0  0  0  0  0  0  0  0  0  # atno 8010 bound_to 7997
  139.9018  143.6598  152.2593 H   0  0  0  0  0  0  0  0  0  0  0  0  # atno 10167 bound_to 10162
  157.6921  131.0591  150.4553 H   0  0  0  0  0  0  0  0  0  0  0  0  # atno 10718 bound_to 10713
  152.9868  135.6112  154.3056 H   0  0  0  0  0  0  0  0  0  0  0  0  # atno 10763 bound_to 10752
  154.2774  135.2778  155.2714 H   0  0  0  0  0  0  0  0  0  0  0  0  # atno 10764 bound_to 10752
  154.5068  135.5852  153.6630 H   0  0  0  0  0  0  0  0  0  0  0  0  # atno 10765 bound_to 10752
  140.8400  133.7933  155.9850 H   0  0  0  0  0  0  0  0  0  0  0  0  # atno 11005 bound_to 11000
  144.7653  140.5516  143.6707 LP  0  0  0  0  0  0  0  0  0  0  0  0  # atno 17320 bound_to 7965
  145.5342  139.1475  143.3483 LP  0  0  0  0  0  0  0  0  0  0  0  0  # atno 17321 bound_to 7965
  139.7019  144.7634  151.1259 LP  0  0  0  0  0  0  0  0  0  0  0  0  # atno 17342 bound_to 10162
  140.7705  143.5447  150.9273 LP  0  0  0  0  0  0  0  0  0  0  0  0  # atno 17343 bound_to 10162
  156.4901  130.4093  149.6411 LP  0  0  0  0  0  0  0  0  0  0  0  0  # atno 17370 bound_to 10713
  156.3425  130.7389  151.2337 LP  0  0  0  0  0  0  0  0  0  0  0  0  # atno 17371 bound_to 10713
  140.8906  134.2500  157.5096 LP  0  0  0  0  0  0  0  0  0  0  0  0  # atno 17394 bound_to 11000
  139.8703  134.9659  156.4545 LP  0  0  0  0  0  0  0  0  0  0  0  0  # atno 17395 bound_to 11000

$$$$
