AV-unprocessed.smi:380|AV-procd|sdf|2460|dock1
  -GOLD-   2262022403D 1   1.00000     0.00000
 Structure written by MMmdl.
 39 40  0  0  0  0  0  0  0  0  1 V2000
  147.9830  141.7691  155.3996 C   0  0  0  0  0  0  0  0  0  0  0  0
  148.3647  141.0705  154.0829 C   0  0  0  0  0  0  0  0  0  0  0  0
  147.1963  141.1111  153.0874 C   0  0  0  0  0  0  0  0  0  0  0  0
  148.8429  139.6187  154.3028 C   0  0  0  0  0  0  0  0  0  0  0  0
  149.3622  139.3936  155.6479 N   0  0  0  0  0  0  0  0  0  0  0  0
  150.6013  139.7008  156.0587 C   0  0  0  0  0  0  0  0  0  0  0  0
  151.4521  140.1980  155.3193 O   0  0  0  0  0  0  0  0  0  0  0  0
  150.9164  139.3880  157.5292 C   0  0  0  0  0  0  0  0  0  0  0  0
  151.6444  140.4783  158.2150 N   0  0  0  0  0  0  0  0  0  0  0  0
  152.7910  140.1463  158.9811 C   0  0  0  0  0  0  0  0  0  0  0  0
  153.1746  138.9790  159.0762 O   0  0  0  0  0  0  0  0  0  0  0  0
  153.4611  141.2706  159.6301 C   0  0  0  0  0  0  0  0  0  0  0  0
  154.6437  140.9829  160.3723 C   0  0  0  0  0  0  0  0  0  0  0  0
  155.5984  140.7252  160.9736 N   0  0  0  0  0  0  0  0  0  0  0  0
  152.9758  142.5245  159.5229 C   0  0  0  0  0  0  0  0  0  0  0  0
  151.8276  142.8172  158.8197 N   0  0  0  0  0  0  0  0  0  0  0  0
  151.4063  144.1726  158.6030 C   0  0  0  0  0  0  0  0  0  0  0  0
  152.2946  145.3026  159.0771 C   0  0  0  0  0  0  0  0  0  0  0  0
  150.9827  145.0383  159.7740 C   0  0  0  0  0  0  0  0  0  0  0  0
  151.1550  141.8026  158.1042 C   0  0  0  0  0  0  0  0  0  0  0  0
  150.1725  142.0600  157.4044 O   0  0  0  0  0  0  0  0  0  0  0  0
  147.1839  141.2340  155.9134 H   0  0  0  0  0  0  0  0  0  0  0  0
  147.6374  142.7869  155.2171 H   0  0  0  0  0  0  0  0  0  0  0  0
  148.8322  141.8352  156.0801 H   0  0  0  0  0  0  0  0  0  0  0  0
  149.1847  141.6354  153.6371 H   0  0  0  0  0  0  0  0  0  0  0  0
  146.3311  140.5680  153.4688 H   0  0  0  0  0  0  0  0  0  0  0  0
  147.4772  140.6630  152.1338 H   0  0  0  0  0  0  0  0  0  0  0  0
  146.8845  142.1368  152.8880 H   0  0  0  0  0  0  0  0  0  0  0  0
  148.0148  138.9274  154.1433 H   0  0  0  0  0  0  0  0  0  0  0  0
  149.6066  139.3540  153.5693 H   0  0  0  0  0  0  0  0  0  0  0  0
  148.7276  138.9851  156.3188 H   0  0  0  0  0  0  0  0  0  0  0  0
  149.9848  139.1626  158.0513 H   0  0  0  0  0  0  0  0  0  0  0  0
  151.4715  138.4497  157.5660 H   0  0  0  0  0  0  0  0  0  0  0  0
  153.5007  143.3317  160.0136 H   0  0  0  0  0  0  0  0  0  0  0  0
  150.8759  144.3489  157.6689 H   0  0  0  0  0  0  0  0  0  0  0  0
  153.2043  145.0488  159.6182 H   0  0  0  0  0  0  0  0  0  0  0  0
  152.3595  146.1874  158.4473 H   0  0  0  0  0  0  0  0  0  0  0  0
  150.1718  145.7441  159.6067 H   0  0  0  0  0  0  0  0  0  0  0  0
  151.0299  144.6120  160.7744 H   0  0  0  0  0  0  0  0  0  0  0  0
  1  2  1  0  0  0  0
  1 22  1  0  0  0  0
  1 23  1  0  0  0  0
  1 24  1  0  0  0  0
  2  3  1  0  0  0  0
  2  4  1  0  0  0  0
  2 25  1  0  0  0  0
  3 26  1  0  0  0  0
  3 27  1  0  0  0  0
  3 28  1  0  0  0  0
  4  5  1  0  0  0  0
  4 29  1  0  0  0  0
  4 30  1  0  0  0  0
  5  6  1  0  0  0  0
  5 31  1  0  0  0  0
  6  7  2  0  0  0  0
  6  8  1  0  0  0  0
  8  9  1  0  0  0  0
  8 32  1  0  0  0  0
  8 33  1  0  0  0  0
  9 20  1  0  0  0  0
  9 10  1  0  0  0  0
 10 11  2  0  0  0  0
 10 12  1  0  0  0  0
 12 13  1  0  0  0  0
 12 15  2  0  0  0  0
 13 14  3  0  0  0  0
 15 16  1  0  0  0  0
 15 34  1  0  0  0  0
 16 17  1  0  0  0  0
 16 20  1  0  0  0  0
 17 19  1  0  0  0  0
 17 18  1  0  0  0  0
 17 35  1  0  0  0  0
 18 19  1  0  0  0  0
 18 36  1  0  0  0  0
 18 37  1  0  0  0  0
 19 38  1  0  0  0  0
 19 39  1  0  0  0  0
 20 21  2  0  0  0  0
M  END
> <s_m_source_file>
AV-unprocessed.smi

> <i_m_source_file_index>
380

> <i_lp_mmshare_version>
43012

> <i_f3d_flags>
0

> <s_epik_input>
W0NIM11bQ0hdKFtDSDNdKVtDSDJdW05IXUMoPU8pW0NIMl1uMWMoPU8pYyhDI04pW2NIXW4oYzE9TylbQ0hdMltDSDJdW0NIMl0y

> <s_epik_cmdline>
J2VwaWtfcHl0aG9uJywgJy1waCcsICc3LjAnLCAnLXRuJywgJzgnLCAnLW1hJywgJzIwMCcsICctbWV0YWxfYmluZGluZycsICctaW1hZScsICc8aW5maWxlLm1hZT4nLCAnLW9tYWUnLCAnPG91dGZpbGUubWFlPic=

> <r_lp_tautomer_probability>
1

> <r_epik_Ionization_Penalty>
1.93825e-08

> <r_epik_Ionization_Penalty_Charging>
8.0817e-11

> <r_epik_Ionization_Penalty_Neutral>
1.93017e-08

> <r_epik_State_Penalty>
-0

> <r_epik_Charging_Adjusted_Penalty>
8.0817e-11

> <i_epik_Tot_Q>
0

> <i_epik_Tot_abs_Q>
0

> <r_epik_Metal_State_Penalty>
-0

> <b_epik_Metal_Only>
0

> <s_lp_Force_Field>
OPLS_2005

> <r_lp_Energy>
29.2237

> <b_lp_Chiralities_Consistent>
1

> <s_lp_Variant>
AV-unprocessed.smi:380-1

> <Gold.Version>
5.8.1

> <Gold.Id.Protein>
6NUR|6NUR_protein|mol2

> <Gold.PLP.Fitness>
45.2499

> <Gold.PLP.PLP>
-44.0890

> <Gold.PLP.part.hbond>
-2.0000

> <Gold.PLP.part.metal>
0.0000

> <Gold.PLP.part.buried>
-6.5428

> <Gold.PLP.part.nonpolar>
-36.1014

> <Gold.PLP.part.repulsive>
0.1556

> <Gold.PLP.ligand.clash>
0.0160

> <Gold.PLP.ligand.torsion>
1.0466

> <Gold.PLP.Chemscore.Hbond>
1.0000

> <Gold.PLP.Chemscore.CHOScore>
0.0000

> <Gold.PLP.Chemscore.Metal>
0.0000

> <Gold.Chemscore.Hbonds>
donor molecule, donor type, donor heavy atom, donor atom, acceptor molecule, acceptor atom, score
      P1  H  7989  7998       L1     7  0.99

> <Gold.PLP.Chemscore.Internal.Correction>
0.2699

> <Gold.Rescore>
     Score         DG    S(hbond)    S(metal)    S(lipo)     H(rot)  DE(clash)    DE(int)     intcor
     11.32     -13.85       1.00        0.00      86.75       1.99       0.09       2.44       ----

> <Gold.Chemscore.Fitness>
11.3247

> <Gold.Chemscore.DG>
-13.8508

> <Gold.Chemscore.ZeroCoef>
-5.4800

> <Gold.Chemscore.Hbond>
0.9950

> <Gold.Chemscore.Metal>
0.0000

> <Gold.Chemscore.Lipo>
86.7478

> <Gold.Chemscore.Internal_Hbond>
0.0000

> <Gold.Chemscore.DEClash>
0.0884

> <Gold.Chemscore.DEInternal>
2.4377

> <Gold.Chemscore.Rot>
1.9930

> <Gold.Chemscore.Internal.Correction>
   9.000000E+99

> <Gold.Chemscore.Hbonds>
donor molecule, donor type, donor heavy atom, donor atom, acceptor molecule, acceptor atom, score
      P1  H  7989  7998       L1     7  0.94

> <Gold.Chemscore.Hbond.Weighted>
-3.3233

> <Gold.Chemscore.Metal.Weighted>
-0.0000

> <Gold.Chemscore.Lipo.Weighted>
-10.1495

> <Gold.Chemscore.Internal_Hbond.Weighted>
0.0000

> <Gold.Chemscore.DEClash.Weighted>
0.0884

> <Gold.Chemscore.DEInternal.Weighted>
2.4377

> <Gold.Chemscore.Rot.Weighted>
5.1020

> <Gold.Chemscore.Internal.Correction.Weighted>
   9.000000E+99

> <Gold.Protein.RotatedTorsions>
[ 6907 6896 6895 6894 ] final  -52.41 input  -60.11 | X-H torsion
[ 7974 7965 7964 7962 ] final  153.00 input  175.53 | X-H torsion
[ 8008 7997 7996 7995 ] final  141.48 input   59.86 | X-H torsion
[ 10167 10162 10161 10158 ] final  118.39 input  -65.29 | X-H torsion
[ 10718 10713 10712 10709 ] final    1.13 input   66.30 | X-H torsion
[ 10763 10752 10751 10750 ] final  156.02 input  -60.55 | X-H torsion
[ 11005 11000 10999 10996 ] final   -8.27 input  -57.11 | X-H torsion

> <Gold.Protein.ActiveResidues>
 VAL166  LYS551  ARG553  GLY616  TRP617  ASP618  TYR619  PRO620  LYS621  CYS622 
 ASP623  PHE694  ASN695  SER759  ASP760  ASP761  ALA762  ILE779  LEU786  VAL792 
 PHE793  MET794  SER795  GLU796  ALA797  LYS798  CYS799  TRP800  GLU811  SER814 

> <Gold.Protein.RotatedAtoms>
  150.8520  134.7848  159.7015 H   0  0  0  0  0  0  0  0  0  0  0  0  # atno 6907 bound_to 6896
  152.4582  134.5240  159.9801 H   0  0  0  0  0  0  0  0  0  0  0  0  # atno 6908 bound_to 6896
  151.5359  133.3403  159.2962 H   0  0  0  0  0  0  0  0  0  0  0  0  # atno 6909 bound_to 6896
  144.8184  139.6742  143.6111 H   0  0  0  0  0  0  0  0  0  0  0  0  # atno 7974 bound_to 7965
  156.2965  140.2314  156.4571 H   0  0  0  0  0  0  0  0  0  0  0  0  # atno 8008 bound_to 7997
  154.8050  140.0446  157.1322 H   0  0  0  0  0  0  0  0  0  0  0  0  # atno 8009 bound_to 7997
  154.9489  140.3039  155.5088 H   0  0  0  0  0  0  0  0  0  0  0  0  # atno 8010 bound_to 7997
  139.6115  144.7083  151.2834 H   0  0  0  0  0  0  0  0  0  0  0  0  # atno 10167 bound_to 10162
  156.8436  130.5529  149.5675 H   0  0  0  0  0  0  0  0  0  0  0  0  # atno 10718 bound_to 10713
  154.1776  135.2801  155.3062 H   0  0  0  0  0  0  0  0  0  0  0  0  # atno 10763 bound_to 10752
  154.6027  135.5524  153.7394 H   0  0  0  0  0  0  0  0  0  0  0  0  # atno 10764 bound_to 10752
  153.0147  135.6396  154.1915 H   0  0  0  0  0  0  0  0  0  0  0  0  # atno 10765 bound_to 10752
  140.7217  133.8823  155.8825 H   0  0  0  0  0  0  0  0  0  0  0  0  # atno 11005 bound_to 11000
  146.2489  139.6156  142.9441 LP  0  0  0  0  0  0  0  0  0  0  0  0  # atno 17320 bound_to 7965
  145.5161  141.0434  143.2461 LP  0  0  0  0  0  0  0  0  0  0  0  0  # atno 17321 bound_to 7965
  140.7322  143.6830  150.7985 LP  0  0  0  0  0  0  0  0  0  0  0  0  # atno 17342 bound_to 10162
  140.0425  143.5331  152.2711 LP  0  0  0  0  0  0  0  0  0  0  0  0  # atno 17343 bound_to 10162
  156.0867  130.5863  150.9660 LP  0  0  0  0  0  0  0  0  0  0  0  0  # atno 17370 bound_to 10713
  157.6342  131.0918  150.8382 LP  0  0  0  0  0  0  0  0  0  0  0  0  # atno 17371 bound_to 10713
  140.9998  134.1166  157.4328 LP  0  0  0  0  0  0  0  0  0  0  0  0  # atno 17394 bound_to 11000
  139.8847  135.0065  156.6384 LP  0  0  0  0  0  0  0  0  0  0  0  0  # atno 17395 bound_to 11000

$$$$
