AV-unprocessed.smi:287|AV-procd|sdf|2178|dock6
  -GOLD-   2262021543D 1   1.00000     0.00000
 Structure written by MMmdl.
 55 58  0  0  0  0  0  0  0  0  1 V2000
  152.3765  144.8122  159.2766 C   0  0  0  0  0  0  0  0  0  0  0  0
  152.1968  143.4131  158.7960 C   0  0  0  0  0  0  0  0  0  0  0  0
  152.5821  142.1941  159.2728 C   0  0  0  0  0  0  0  0  0  0  0  0
  152.0978  141.2075  158.3625 C   0  0  0  0  0  0  0  0  0  0  0  0
  152.2901  139.7020  158.4863 C   0  0  2  0  0  0  0  0  0  0  0  0
  153.1517  139.3887  159.7204 C   0  0  0  0  0  0  0  0  0  0  0  0
  152.9883  139.1467  157.3884 O   0  0  0  0  0  0  0  0  0  0  0  0
  150.9484  138.9379  158.5661 C   0  0  0  0  0  0  0  0  0  0  0  0
  151.0013  137.6292  157.9220 N   0  0  0  0  0  0  0  0  0  0  0  0
  150.0108  136.7341  158.1177 C   0  0  0  0  0  0  0  0  0  0  0  0
  149.5828  136.4246  159.3698 N   0  0  0  0  0  0  0  0  0  0  0  0
  148.5975  135.5367  159.5383 C   0  0  0  0  0  0  0  0  0  0  0  0
  147.9196  134.8549  158.6115 N   0  0  0  0  0  0  0  0  0  0  0  0
  148.3508  135.1626  157.3540 C   0  0  0  0  0  0  0  0  0  0  0  0
  149.3802  136.0864  157.0247 C   0  0  0  0  0  0  0  0  0  0  0  0
  149.5362  136.1443  155.6457 N   0  0  0  0  0  0  0  0  0  0  0  0
  148.6490  135.2998  155.1915 C   0  0  0  0  0  0  0  0  0  0  0  0
  147.8949  134.6631  156.1546 N   0  0  0  0  0  0  0  0  0  0  0  0
  146.8050  133.6554  155.9881 C   0  0  2  0  0  0  0  0  0  0  0  0
  147.1113  132.8797  154.8660 O   0  0  0  0  0  0  0  0  0  0  0  0
  146.0804  132.9725  153.8839 C   0  0  2  0  0  0  0  0  0  0  0  0
  146.6906  132.8905  152.4763 C   0  0  0  0  0  0  0  0  0  0  0  0
  146.9866  131.5488  152.1539 O   0  0  0  0  0  0  0  0  0  0  0  0
  145.4223  134.3187  154.1877 C   0  0  1  0  0  0  0  0  0  0  0  0
  144.1040  134.4279  153.6864 O   0  0  0  0  0  0  0  0  0  0  0  0
  145.4825  134.3789  155.7070 C   0  0  1  0  0  0  0  0  0  0  0  0
  144.4004  133.7142  156.3341 O   0  0  0  0  0  0  0  0  0  0  0  0
  151.4593  141.9229  157.3780 C   0  0  0  0  0  0  0  0  0  0  0  0
  150.7465  141.5481  156.1205 C   0  0  0  0  0  0  0  0  0  0  0  0
  151.5107  143.2598  157.6358 O   0  0  0  0  0  0  0  0  0  0  0  0
  146.8207  133.0698  156.9084 H   0  0  0  0  0  0  0  0  0  0  0  0
  145.3600  132.1692  154.0513 H   0  0  0  0  0  0  0  0  0  0  0  0
  146.0279  135.1252  153.7713 H   0  0  0  0  0  0  0  0  0  0  0  0
  145.5086  135.4059  156.0747 H   0  0  0  0  0  0  0  0  0  0  0  0
  152.8163  144.8276  160.2740 H   0  0  0  0  0  0  0  0  0  0  0  0
  151.4194  145.3322  159.3223 H   0  0  0  0  0  0  0  0  0  0  0  0
  153.0341  145.3686  158.6085 H   0  0  0  0  0  0  0  0  0  0  0  0
  153.1447  142.0264  160.1792 H   0  0  0  0  0  0  0  0  0  0  0  0
  152.6780  139.7488  160.6345 H   0  0  0  0  0  0  0  0  0  0  0  0
  154.1316  139.8631  159.6507 H   0  0  0  0  0  0  0  0  0  0  0  0
  153.3114  138.3158  159.8360 H   0  0  0  0  0  0  0  0  0  0  0  0
  152.5856  138.3219  157.1636 H   0  0  0  0  0  0  0  0  0  0  0  0
  150.6177  138.8389  159.6013 H   0  0  0  0  0  0  0  0  0  0  0  0
  150.1847  139.5212  158.0495 H   0  0  0  0  0  0  0  0  0  0  0  0
  151.8020  137.4571  157.3303 H   0  0  0  0  0  0  0  0  0  0  0  0
  148.3118  135.3453  160.5621 H   0  0  0  0  0  0  0  0  0  0  0  0
  148.5226  135.1200  154.1341 H   0  0  0  0  0  0  0  0  0  0  0  0
  145.9770  133.2539  151.7362 H   0  0  0  0  0  0  0  0  0  0  0  0
  147.5856  133.5073  152.3925 H   0  0  0  0  0  0  0  0  0  0  0  0
  147.8012  131.5272  151.6755 H   0  0  0  0  0  0  0  0  0  0  0  0
  143.5979  133.7048  154.0253 H   0  0  0  0  0  0  0  0  0  0  0  0
  144.0699  133.0567  155.7410 H   0  0  0  0  0  0  0  0  0  0  0  0
  151.3830  140.9322  155.4849 H   0  0  0  0  0  0  0  0  0  0  0  0
  150.4589  142.4320  155.5507 H   0  0  0  0  0  0  0  0  0  0  0  0
  149.8412  140.9837  156.3435 H   0  0  0  0  0  0  0  0  0  0  0  0
  1  2  1  0  0  0  0
  1 35  1  0  0  0  0
  1 36  1  0  0  0  0
  1 37  1  0  0  0  0
  2 30  1  0  0  0  0
  2  3  2  0  0  0  0
  3  4  1  0  0  0  0
  3 38  1  0  0  0  0
  4  5  1  0  0  0  0
  4 28  2  0  0  0  0
  5  6  1  0  0  0  0
  5  7  1  0  0  0  0
  5  8  1  0  0  0  0
  6 39  1  0  0  0  0
  6 40  1  0  0  0  0
  6 41  1  0  0  0  0
  7 42  1  0  0  0  0
  8  9  1  0  0  0  0
  8 43  1  0  0  0  0
  8 44  1  0  0  0  0
  9 10  1  0  0  0  0
  9 45  1  0  0  0  0
 10 15  1  0  0  0  0
 10 11  2  0  0  0  0
 11 12  1  0  0  0  0
 12 13  2  0  0  0  0
 12 46  1  0  0  0  0
 13 14  1  0  0  0  0
 14 18  1  0  0  0  0
 14 15  2  0  0  0  0
 15 16  1  0  0  0  0
 16 17  2  0  0  0  0
 17 18  1  0  0  0  0
 17 47  1  0  0  0  0
 18 19  1  0  0  0  0
 19 31  1  0  0  0  0
 19 26  1  0  0  0  0
 19 20  1  0  0  0  0
 20 21  1  0  0  0  0
 21 32  1  0  0  0  0
 21 22  1  0  0  0  0
 21 24  1  0  0  0  0
 22 23  1  0  0  0  0
 22 48  1  0  0  0  0
 22 49  1  0  0  0  0
 23 50  1  0  0  0  0
 24 33  1  0  0  0  0
 24 25  1  0  0  0  0
 24 26  1  0  0  0  0
 25 51  1  0  0  0  0
 26 34  1  0  0  0  0
 26 27  1  0  0  0  0
 27 52  1  0  0  0  0
 28 29  1  0  0  0  0
 28 30  1  0  0  0  0
 29 53  1  0  0  0  0
 29 54  1  0  0  0  0
 29 55  1  0  0  0  0
M  END
> <s_m_source_file>
AV-unprocessed.smi

> <i_m_source_file_index>
287

> <i_lp_mmshare_version>
43012

> <i_f3d_flags>
0

> <s_epik_input>
W0NIM11jMVtjSF1jKGMobzEpW0NIM10pW0NAQF0oW0NIM10pKFtPSF0pW0NIMl1bTkhdYyhuW2NIXW4yKWMoYzIzKW5bY0hdbjNbQ0BASF00T1tDQEhdKFtDSDJdW09IXSlbQ0BASF0oW09IXSlbQ0BIXTRbT0hd

> <s_epik_cmdline>
J2VwaWtfcHl0aG9uJywgJy1waCcsICc3LjAnLCAnLXRuJywgJzgnLCAnLW1hJywgJzIwMCcsICctbWV0YWxfYmluZGluZycsICctaW1hZScsICc8aW5maWxlLm1hZT4nLCAnLW9tYWUnLCAnPG91dGZpbGUubWFlPic=

> <r_lp_tautomer_probability>
1

> <r_epik_Ionization_Penalty>
0.000992612

> <r_epik_Ionization_Penalty_Charging>
0

> <r_epik_Ionization_Penalty_Neutral>
0.000992612

> <r_epik_State_Penalty>
-0

> <r_epik_Charging_Adjusted_Penalty>
0

> <i_epik_Tot_Q>
0

> <i_epik_Tot_abs_Q>
0

> <r_epik_Metal_State_Penalty>
-0

> <b_epik_Metal_Only>
0

> <s_epik_Chemistry_Notes>
This compound contains an acetal/aminal-like group ( X-CH(R)-Y where X, Y are N, S, or O) that may be acid/base labile, releasing an aldehyde.

> <s_lp_Force_Field>
OPLS_2005

> <r_lp_Energy>
40.8374

> <b_lp_Chiralities_Consistent>
1

> <s_lp_Variant>
AV-unprocessed.smi:287-2

> <Gold.Version>
5.8.1

> <Gold.Id.Protein>
6NUR|6NUR_protein|mol2

> <Gold.PLP.Fitness>
49.0385

> <Gold.PLP.PLP>
-36.6254

> <Gold.PLP.part.hbond>
-5.0000

> <Gold.PLP.part.metal>
0.0000

> <Gold.PLP.part.buried>
-6.8458

> <Gold.PLP.part.nonpolar>
-25.8375

> <Gold.PLP.part.repulsive>
0.3082

> <Gold.PLP.ligand.clash>
0.0000

> <Gold.PLP.ligand.torsion>
2.0385

> <Gold.PLP.Chemscore.Hbond>
4.4869

> <Gold.PLP.Chemscore.CHOScore>
0.9918

> <Gold.PLP.Chemscore.Metal>
0.0000

> <Gold.Chemscore.Hbonds>
donor molecule, donor type, donor heavy atom, donor atom, acceptor molecule, acceptor atom, score
      L1  H    23    50       P1 10747  1.00
      L1  H    25    51       P1 10957  0.37
      L1  H    27    52       P1 10957  0.80
      P1  H  6896  6907       L1    11  0.45
      P1  H  7997  8010       L1     7  1.00
      L1  C    17    47       P1  7948  0.97

> <Gold.PLP.Chemscore.Internal.Correction>
0.0540

> <Gold.Rescore>
     Score         DG    S(hbond)    S(metal)    S(lipo)     H(rot)  DE(clash)    DE(int)     intcor
     13.07     -14.96       3.97        0.00      83.01       5.27       0.01       1.88       ----

> <Gold.Chemscore.Fitness>
13.0653

> <Gold.Chemscore.DG>
-14.9553

> <Gold.Chemscore.ZeroCoef>
-5.4800

> <Gold.Chemscore.Hbond>
3.9663

> <Gold.Chemscore.Metal>
0.0000

> <Gold.Chemscore.Lipo>
83.0073

> <Gold.Chemscore.Internal_Hbond>
0.0000

> <Gold.Chemscore.DEClash>
0.0060

> <Gold.Chemscore.DEInternal>
1.8840

> <Gold.Chemscore.Rot>
5.2672

> <Gold.Chemscore.Internal.Correction>
   9.000000E+99

> <Gold.Chemscore.Hbonds>
donor molecule, donor type, donor heavy atom, donor atom, acceptor molecule, acceptor atom, score
      L1  H    23    50       P1 10747  0.97
      L1  H    25    51       P1 10957  0.37
      L1  H    27    52       P1 10957  0.78
      P1  H  7997  8010       L1     7  0.96

> <Gold.Chemscore.Hbond.Weighted>
-13.2474

> <Gold.Chemscore.Metal.Weighted>
-0.0000

> <Gold.Chemscore.Lipo.Weighted>
-9.7119

> <Gold.Chemscore.Internal_Hbond.Weighted>
0.0000

> <Gold.Chemscore.DEClash.Weighted>
0.0060

> <Gold.Chemscore.DEInternal.Weighted>
1.8840

> <Gold.Chemscore.Rot.Weighted>
13.4839

> <Gold.Chemscore.Internal.Correction.Weighted>
   9.000000E+99

> <Gold.Protein.RotatedTorsions>
[ 6907 6896 6895 6894 ] final  -38.44 input  -60.11 | X-H torsion
[ 7974 7965 7964 7962 ] final -176.01 input  175.53 | X-H torsion
[ 8008 7997 7996 7995 ] final   69.74 input   59.86 | X-H torsion
[ 10167 10162 10161 10158 ] final   12.63 input  -65.29 | X-H torsion
[ 10718 10713 10712 10709 ] final  -85.79 input   66.30 | X-H torsion
[ 10763 10752 10751 10750 ] final  -19.34 input  -60.55 | X-H torsion
[ 11005 11000 10999 10996 ] final  -31.43 input  -57.11 | X-H torsion

> <Gold.Protein.ActiveResidues>
 VAL166  LYS551  ARG553  GLY616  TRP617  ASP618  TYR619  PRO620  LYS621  CYS622 
 ASP623  PHE694  ASN695  SER759  ASP760  ASP761  ALA762  ILE779  LEU786  VAL792 
 PHE793  MET794  SER795  GLU796  ALA797  LYS798  CYS799  TRP800  GLU811  SER814 

> <Gold.Protein.RotatedAtoms>
  151.0024  134.9332  159.7960 H   0  0  0  0  0  0  0  0  0  0  0  0  # atno 6907 bound_to 6896
  152.5281  134.3137  159.9133 H   0  0  0  0  0  0  0  0  0  0  0  0  # atno 6908 bound_to 6896
  151.3143  133.4026  159.2683 H   0  0  0  0  0  0  0  0  0  0  0  0  # atno 6909 bound_to 6896
  144.7127  140.1235  143.6403 H   0  0  0  0  0  0  0  0  0  0  0  0  # atno 7974 bound_to 7965
  155.7283  140.3492  155.5047 H   0  0  0  0  0  0  0  0  0  0  0  0  # atno 8008 bound_to 7997
  155.9206  140.1066  157.1231 H   0  0  0  0  0  0  0  0  0  0  0  0  # atno 8009 bound_to 7997
  154.4069  140.1250  156.4662 H   0  0  0  0  0  0  0  0  0  0  0  0  # atno 8010 bound_to 7997
  140.6056  143.8515  150.7010 H   0  0  0  0  0  0  0  0  0  0  0  0  # atno 10167 bound_to 10162
  155.9994  130.4743  150.4616 H   0  0  0  0  0  0  0  0  0  0  0  0  # atno 10718 bound_to 10713
  153.6033  135.6998  153.5375 H   0  0  0  0  0  0  0  0  0  0  0  0  # atno 10763 bound_to 10752
  153.3078  135.4110  155.1309 H   0  0  0  0  0  0  0  0  0  0  0  0  # atno 10764 bound_to 10752
  154.8578  135.3664  154.5569 H   0  0  0  0  0  0  0  0  0  0  0  0  # atno 10765 bound_to 10752
  140.9468  133.7245  156.1158 H   0  0  0  0  0  0  0  0  0  0  0  0  # atno 11005 bound_to 11000
  145.9350  139.2631  143.1302 LP  0  0  0  0  0  0  0  0  0  0  0  0  # atno 17320 bound_to 7965
  145.9483  140.8928  143.0272 LP  0  0  0  0  0  0  0  0  0  0  0  0  # atno 17321 bound_to 7965
  140.2072  143.3912  152.1746 LP  0  0  0  0  0  0  0  0  0  0  0  0  # atno 17342 bound_to 10162
  139.5322  144.7171  151.5016 LP  0  0  0  0  0  0  0  0  0  0  0  0  # atno 17343 bound_to 10162
  157.2640  131.0573  151.2302 LP  0  0  0  0  0  0  0  0  0  0  0  0  # atno 17370 bound_to 10713
  157.3407  130.7031  149.6379 LP  0  0  0  0  0  0  0  0  0  0  0  0  # atno 17371 bound_to 10713
  140.7658  134.3888  157.5517 LP  0  0  0  0  0  0  0  0  0  0  0  0  # atno 17394 bound_to 11000
  139.8835  134.8991  156.2759 LP  0  0  0  0  0  0  0  0  0  0  0  0  # atno 17395 bound_to 11000

$$$$
