AV-unprocessed.smi:638|AV-procd|sdf|3143|dock1
  -GOLD-   22720 0 73D 1   1.00000     0.00000
 Structure written by MMmdl.
 41 42  0  0  0  0  0  0  0  0  3 V2000
  146.1037  141.6565  158.9542 N   0  0  0  0  0  0  0  0  0  0  0  0
  146.7249  141.6066  157.9791 C   0  0  0  0  0  0  0  0  0  0  0  0
  147.5186  141.5434  156.7358 C   0  0  0  0  0  0  0  0  0  0  0  0
  148.7926  142.2494  156.9158 N   0  0  0  0  0  0  0  0  0  0  0  0
  149.7557  141.9702  157.8094 C   0  0  0  0  0  0  0  0  0  0  0  0
  149.6862  141.0408  158.6138 O   0  0  0  0  0  0  0  0  0  0  0  0
  150.9977  142.8702  157.7598 C   0  0  0  0  0  0  0  0  0  0  0  0
  151.8043  142.8032  158.9896 N   0  0  0  0  0  0  0  0  0  0  0  0
  152.7361  141.7511  159.0888 C   0  0  0  0  0  0  0  0  0  0  0  0
  153.5176  141.5876  160.1741 C   0  0  0  0  0  0  0  0  0  0  0  0
  154.4628  140.4963  160.2633 N   0  3  0  0  0  0  0  0  0  0  0  0
  154.9731  140.2475  161.3507 O   0  0  0  0  0  0  0  0  0  0  0  0
  154.7268  139.8530  159.2517 O   0  5  0  0  0  0  0  0  0  0  0  0
  153.3758  142.5416  161.2571 C   0  0  0  0  0  0  0  0  0  0  0  0
  152.4838  143.5477  161.1696 C   0  0  0  0  0  0  0  0  0  0  0  0
  151.6300  143.7201  159.9899 C   0  0  0  0  0  0  0  0  0  0  0  0
  150.8083  144.6329  159.9056 O   0  0  0  0  0  0  0  0  0  0  0  0
  147.7426  140.0498  156.3694 C   0  0  0  0  0  0  0  0  0  0  0  0
  148.7124  139.7834  155.1990 C   0  0  0  0  0  0  0  0  0  0  0  0
  148.0851  139.8099  153.7946 C   0  0  0  0  0  0  0  0  0  0  0  0
  147.0390  140.9045  153.5225 C   0  0  0  0  0  0  0  0  0  0  0  0
  147.2856  142.2503  154.2223 C   0  0  0  0  0  0  0  0  0  0  0  0
  146.7112  142.2905  155.6517 C   0  0  0  0  0  0  0  0  0  0  0  0
  148.9522  143.0314  156.2976 H   0  0  0  0  0  0  0  0  0  0  0  0
  151.5931  142.5770  156.8942 H   0  0  0  0  0  0  0  0  0  0  0  0
  150.6971  143.9009  157.5615 H   0  0  0  0  0  0  0  0  0  0  0  0
  152.7595  141.0911  158.2335 H   0  0  0  0  0  0  0  0  0  0  0  0
  153.9825  142.4558  162.1464 H   0  0  0  0  0  0  0  0  0  0  0  0
  152.3938  144.2465  161.9883 H   0  0  0  0  0  0  0  0  0  0  0  0
  148.1433  139.5420  157.2474 H   0  0  0  0  0  0  0  0  0  0  0  0
  146.7865  139.5615  156.1765 H   0  0  0  0  0  0  0  0  0  0  0  0
  149.5558  140.4720  155.2314 H   0  0  0  0  0  0  0  0  0  0  0  0
  149.1576  138.7978  155.3385 H   0  0  0  0  0  0  0  0  0  0  0  0
  148.8933  139.9025  153.0681 H   0  0  0  0  0  0  0  0  0  0  0  0
  147.6234  138.8429  153.5916 H   0  0  0  0  0  0  0  0  0  0  0  0
  146.9987  141.0676  152.4449 H   0  0  0  0  0  0  0  0  0  0  0  0
  146.0483  140.5347  153.7899 H   0  0  0  0  0  0  0  0  0  0  0  0
  148.3419  142.5202  154.2010 H   0  0  0  0  0  0  0  0  0  0  0  0
  146.7740  143.0210  153.6451 H   0  0  0  0  0  0  0  0  0  0  0  0
  145.6879  141.9124  155.6352 H   0  0  0  0  0  0  0  0  0  0  0  0
  146.6194  143.3355  155.9522 H   0  0  0  0  0  0  0  0  0  0  0  0
  1  2  3  0  0  0  0
  2  3  1  0  0  0  0
  3 23  1  0  0  0  0
  3  4  1  0  0  0  0
  3 18  1  0  0  0  0
  4  5  1  0  0  0  0
  4 24  1  0  0  0  0
  5  6  2  0  0  0  0
  5  7  1  0  0  0  0
  7  8  1  0  0  0  0
  7 25  1  0  0  0  0
  7 26  1  0  0  0  0
  8 16  1  0  0  0  0
  8  9  1  0  0  0  0
  9 10  2  0  0  0  0
  9 27  1  0  0  0  0
 10 11  1  0  0  0  0
 10 14  1  0  0  0  0
 11 12  2  0  0  0  0
 11 13  1  0  0  0  0
 14 15  2  0  0  0  0
 14 28  1  0  0  0  0
 15 16  1  0  0  0  0
 15 29  1  0  0  0  0
 16 17  2  0  0  0  0
 18 19  1  0  0  0  0
 18 30  1  0  0  0  0
 18 31  1  0  0  0  0
 19 20  1  0  0  0  0
 19 32  1  0  0  0  0
 19 33  1  0  0  0  0
 20 21  1  0  0  0  0
 20 34  1  0  0  0  0
 20 35  1  0  0  0  0
 21 22  1  0  0  0  0
 21 36  1  0  0  0  0
 21 37  1  0  0  0  0
 22 23  1  0  0  0  0
 22 38  1  0  0  0  0
 22 39  1  0  0  0  0
 23 40  1  0  0  0  0
 23 41  1  0  0  0  0
M  CHG  1  11   1
M  CHG  1  13  -1
M  END
> <s_m_source_file>
AV-unprocessed.smi

> <i_m_source_file_index>
638

> <i_lp_mmshare_version>
43012

> <i_f3d_flags>
0

> <s_epik_input>
W0NIMl0xW0NIMl1bQ0gyXVtDSDJdW0NIMl1bQ0gyXUMxKEMjTilbTkhdQyg9TylbQ0gyXW4yW2NIXWMoW04rXSg9TylbTy1dKVtjSF1bY0hdYzI9Tw==

> <s_epik_cmdline>
J2VwaWtfcHl0aG9uJywgJy1waCcsICc3LjAnLCAnLXRuJywgJzgnLCAnLW1hJywgJzIwMCcsICctbWV0YWxfYmluZGluZycsICctaW1hZScsICc8aW5maWxlLm1hZT4nLCAnLW9tYWUnLCAnPG91dGZpbGUubWFlPic=

> <r_lp_tautomer_probability>
1

> <r_epik_Ionization_Penalty>
4.51205e-07

> <r_epik_Ionization_Penalty_Charging>
6.24361e-11

> <r_epik_Ionization_Penalty_Neutral>
4.51142e-07

> <r_epik_State_Penalty>
-0

> <r_epik_Charging_Adjusted_Penalty>
6.24361e-11

> <i_epik_Tot_Q>
0

> <i_epik_Tot_abs_Q>
2

> <r_epik_Metal_State_Penalty>
-0

> <b_epik_Metal_Only>
0

> <s_lp_Force_Field>
OPLS_2005

> <r_lp_Energy>
29.2466

> <b_lp_Chiralities_Consistent>
1

> <s_lp_Variant>
AV-unprocessed.smi:638-1

> <Gold.Version>
5.8.1

> <Gold.Id.Protein>
6NUR|6NUR_protein|mol2

> <Gold.PLP.Fitness>
47.6570

> <Gold.PLP.PLP>
-40.5010

> <Gold.PLP.part.hbond>
-3.4007

> <Gold.PLP.part.metal>
0.0000

> <Gold.PLP.part.buried>
-3.6064

> <Gold.PLP.part.nonpolar>
-33.1112

> <Gold.PLP.part.repulsive>
0.1551

> <Gold.PLP.ligand.clash>
0.0000

> <Gold.PLP.ligand.torsion>
0.6843

> <Gold.PLP.Chemscore.Hbond>
2.8247

> <Gold.PLP.Chemscore.CHOScore>
0.0000

> <Gold.PLP.Chemscore.Metal>
0.0000

> <Gold.Chemscore.Hbonds>
donor molecule, donor type, donor heavy atom, donor atom, acceptor molecule, acceptor atom, score
      L1  H     4    24       P1  8028  1.00
      P1  H  6934  6946       L1     1  0.74
      P1  H  7997  8009       L1    13  1.00

> <Gold.PLP.Chemscore.Internal.Correction>
0.0505

> <Gold.Rescore>
     Score         DG    S(hbond)    S(metal)    S(lipo)     H(rot)  DE(clash)    DE(int)     intcor
     19.61     -20.25       2.82        0.00      81.33       1.63       0.03       0.61       ----

> <Gold.Chemscore.Fitness>
19.6117

> <Gold.Chemscore.DG>
-20.2475

> <Gold.Chemscore.ZeroCoef>
-5.4800

> <Gold.Chemscore.Hbond>
2.8209

> <Gold.Chemscore.Metal>
0.0000

> <Gold.Chemscore.Lipo>
81.3261

> <Gold.Chemscore.Internal_Hbond>
0.0000

> <Gold.Chemscore.DEClash>
0.0304

> <Gold.Chemscore.DEInternal>
0.6054

> <Gold.Chemscore.Rot>
1.6287

> <Gold.Chemscore.Internal.Correction>
   9.000000E+99

> <Gold.Chemscore.Hbonds>
donor molecule, donor type, donor heavy atom, donor atom, acceptor molecule, acceptor atom, score
      L1  H     4    24       P1  8028  0.99
      P1  H  6934  6946       L1     1  0.68
      P1  H  7997  8009       L1    13  0.96

> <Gold.Chemscore.Hbond.Weighted>
-9.4218

> <Gold.Chemscore.Metal.Weighted>
-0.0000

> <Gold.Chemscore.Lipo.Weighted>
-9.5152

> <Gold.Chemscore.Internal_Hbond.Weighted>
0.0000

> <Gold.Chemscore.DEClash.Weighted>
0.0304

> <Gold.Chemscore.DEInternal.Weighted>
0.6054

> <Gold.Chemscore.Rot.Weighted>
4.1694

> <Gold.Chemscore.Internal.Correction.Weighted>
   9.000000E+99

> <Gold.Protein.RotatedTorsions>
[ 6907 6896 6895 6894 ] final -103.28 input  -60.11 | X-H torsion
[ 7974 7965 7964 7962 ] final   -8.41 input  175.53 | X-H torsion
[ 8008 7997 7996 7995 ] final  110.33 input   59.86 | X-H torsion
[ 10167 10162 10161 10158 ] final  138.07 input  -65.29 | X-H torsion
[ 10718 10713 10712 10709 ] final  145.48 input   66.30 | X-H torsion
[ 10763 10752 10751 10750 ] final  160.83 input  -60.55 | X-H torsion
[ 11005 11000 10999 10996 ] final   35.75 input  -57.11 | X-H torsion

> <Gold.Protein.ActiveResidues>
 VAL166  LYS551  ARG553  GLY616  TRP617  ASP618  TYR619  PRO620  LYS621  CYS622 
 ASP623  PHE694  ASN695  SER759  ASP760  ASP761  ALA762  ILE779  LEU786  VAL792 
 PHE793  MET794  SER795  GLU796  ALA797  LYS798  CYS799  TRP800  GLU811  SER814 

> <Gold.Protein.RotatedAtoms>
  150.7233  134.0454  159.3779 H   0  0  0  0  0  0  0  0  0  0  0  0  # atno 6907 bound_to 6896
  151.8429  135.0582  160.0459 H   0  0  0  0  0  0  0  0  0  0  0  0  # atno 6908 bound_to 6896
  152.2849  133.5469  159.5557 H   0  0  0  0  0  0  0  0  0  0  0  0  # atno 6909 bound_to 6896
  146.2281  140.2464  142.8345 H   0  0  0  0  0  0  0  0  0  0  0  0  # atno 7974 bound_to 7965
  156.2045  140.3041  155.9597 H   0  0  0  0  0  0  0  0  0  0  0  0  # atno 8008 bound_to 7997
  155.2875  140.0440  157.3037 H   0  0  0  0  0  0  0  0  0  0  0  0  # atno 8009 bound_to 7997
  154.5614  140.2321  155.8338 H   0  0  0  0  0  0  0  0  0  0  0  0  # atno 8010 bound_to 7997
  139.5123  144.6374  151.5660 H   0  0  0  0  0  0  0  0  0  0  0  0  # atno 10167 bound_to 10162
  157.3448  131.0941  151.1052 H   0  0  0  0  0  0  0  0  0  0  0  0  # atno 10718 bound_to 10713
  154.2535  135.2771  155.2807 H   0  0  0  0  0  0  0  0  0  0  0  0  # atno 10763 bound_to 10752
  154.5445  135.5693  153.6871 H   0  0  0  0  0  0  0  0  0  0  0  0  # atno 10764 bound_to 10752
  152.9976  135.6259  154.2682 H   0  0  0  0  0  0  0  0  0  0  0  0  # atno 10765 bound_to 10752
  140.2395  134.3431  155.7931 H   0  0  0  0  0  0  0  0  0  0  0  0  # atno 11005 bound_to 11000
  144.9445  140.8113  143.5610 LP  0  0  0  0  0  0  0  0  0  0  0  0  # atno 17320 bound_to 7965
  145.2419  139.2069  143.4988 LP  0  0  0  0  0  0  0  0  0  0  0  0  # atno 17321 bound_to 7965
  140.6128  143.9404  150.6466 LP  0  0  0  0  0  0  0  0  0  0  0  0  # atno 17342 bound_to 10162
  140.2652  143.3495  152.1287 LP  0  0  0  0  0  0  0  0  0  0  0  0  # atno 17343 bound_to 10162
  157.2250  130.6499  149.5826 LP  0  0  0  0  0  0  0  0  0  0  0  0  # atno 17370 bound_to 10713
  155.9712  130.4617  150.6119 LP  0  0  0  0  0  0  0  0  0  0  0  0  # atno 17371 bound_to 10713
  141.2211  133.7291  156.8862 LP  0  0  0  0  0  0  0  0  0  0  0  0  # atno 17394 bound_to 11000
  140.1668  134.9128  157.2783 LP  0  0  0  0  0  0  0  0  0  0  0  0  # atno 17395 bound_to 11000

$$$$
