AV-unprocessed.smi:2954|AV-procd|sdf|11298|dock10
  -GOLD-   2272016193D 1   1.00000     0.00000
 Structure written by MMmdl.
 42 44  0  0  0  0  0  0  0  0  1 V2000
  152.3554  137.1896  155.5176 C   0  0  0  0  0  0  0  0  0  0  0  0
  151.8276  137.5160  154.1145 C   0  0  1  0  0  0  0  0  0  0  0  0
  151.3747  136.2981  153.4473 N   0  0  0  0  0  0  0  0  0  0  0  0
  150.5719  135.3839  154.0075 C   0  0  0  0  0  0  0  0  0  0  0  0
  150.1305  135.4857  155.1491 O   0  0  0  0  0  0  0  0  0  0  0  0
  150.6889  138.5052  154.1547 C   0  0  0  0  0  0  0  0  0  0  0  0
  149.4808  138.2160  153.6628 N   0  0  0  0  0  0  0  0  0  0  0  0
  148.7704  139.3782  153.8850 C   0  0  0  0  0  0  0  0  0  0  0  0
  147.4314  139.7089  153.5769 C   0  0  0  0  0  0  0  0  0  0  0  0
  146.9185  140.9823  153.8995 C   0  0  0  0  0  0  0  0  0  0  0  0
  147.7351  141.9403  154.5340 C   0  0  0  0  0  0  0  0  0  0  0  0
  149.0710  141.6294  154.8521 C   0  0  0  0  0  0  0  0  0  0  0  0
  149.5783  140.3565  154.5286 C   0  0  0  0  0  0  0  0  0  0  0  0
  150.8179  139.7450  154.6947 N   0  0  0  0  0  0  0  0  0  0  0  0
  151.9906  140.3538  155.3087 C   0  0  0  0  0  0  0  0  0  0  0  0
  151.6909  140.8853  156.7183 C   0  0  0  0  0  0  0  0  0  0  0  0
  152.8867  140.8538  157.4856 O   0  0  0  0  0  0  0  0  0  0  0  0
  152.9102  141.5115  158.6958 C   0  0  0  0  0  0  0  0  0  0  0  0
  152.0677  142.6066  159.0144 C   0  0  0  0  0  0  0  0  0  0  0  0
  152.1507  143.2272  160.2756 C   0  0  0  0  0  0  0  0  0  0  0  0
  153.0744  142.7653  161.2308 C   0  0  0  0  0  0  0  0  0  0  0  0
  153.9174  141.6818  160.9227 C   0  0  0  0  0  0  0  0  0  0  0  0
  153.8362  141.0589  159.6617 C   0  0  0  0  0  0  0  0  0  0  0  0
  154.8755  139.7246  159.3082 Cl  0  0  0  0  0  0  0  0  0  0  0  0
  152.7154  138.0899  156.0163 H   0  0  0  0  0  0  0  0  0  0  0  0
  153.1850  136.4835  155.4714 H   0  0  0  0  0  0  0  0  0  0  0  0
  151.5778  136.7509  156.1440 H   0  0  0  0  0  0  0  0  0  0  0  0
  152.6570  137.9196  153.5355 H   0  0  0  0  0  0  0  0  0  0  0  0
  151.6940  136.1416  152.5024 H   0  0  0  0  0  0  0  0  0  0  0  0
  150.3593  134.5478  153.3238 H   0  0  0  0  0  0  0  0  0  0  0  0
  146.7988  138.9825  153.0887 H   0  0  0  0  0  0  0  0  0  0  0  0
  145.8943  141.2254  153.6575 H   0  0  0  0  0  0  0  0  0  0  0  0
  147.3362  142.9147  154.7753 H   0  0  0  0  0  0  0  0  0  0  0  0
  149.6993  142.3640  155.3329 H   0  0  0  0  0  0  0  0  0  0  0  0
  152.7797  139.6034  155.3618 H   0  0  0  0  0  0  0  0  0  0  0  0
  152.3720  141.1450  154.6629 H   0  0  0  0  0  0  0  0  0  0  0  0
  151.3057  141.9041  156.6589 H   0  0  0  0  0  0  0  0  0  0  0  0
  150.9252  140.2660  157.1859 H   0  0  0  0  0  0  0  0  0  0  0  0
  151.3519  142.9920  158.3044 H   0  0  0  0  0  0  0  0  0  0  0  0
  151.5046  144.0604  160.5099 H   0  0  0  0  0  0  0  0  0  0  0  0
  153.1366  143.2416  162.1981 H   0  0  0  0  0  0  0  0  0  0  0  0
  154.6266  141.3275  161.6562 H   0  0  0  0  0  0  0  0  0  0  0  0
  1  2  1  0  0  0  0
  1 25  1  0  0  0  0
  1 26  1  0  0  0  0
  1 27  1  0  0  0  0
  2  3  1  0  0  0  0
  2  6  1  0  0  0  0
  2 28  1  0  0  0  0
  3  4  1  0  0  0  0
  3 29  1  0  0  0  0
  4  5  2  0  0  0  0
  4 30  1  0  0  0  0
  6 14  1  0  0  0  0
  6  7  2  0  0  0  0
  7  8  1  0  0  0  0
  8 13  2  0  0  0  0
  8  9  1  0  0  0  0
  9 10  2  0  0  0  0
  9 31  1  0  0  0  0
 10 11  1  0  0  0  0
 10 32  1  0  0  0  0
 11 12  2  0  0  0  0
 11 33  1  0  0  0  0
 12 13  1  0  0  0  0
 12 34  1  0  0  0  0
 13 14  1  0  0  0  0
 14 15  1  0  0  0  0
 15 16  1  0  0  0  0
 15 35  1  0  0  0  0
 15 36  1  0  0  0  0
 16 17  1  0  0  0  0
 16 37  1  0  0  0  0
 16 38  1  0  0  0  0
 17 18  1  0  0  0  0
 18 23  1  0  0  0  0
 18 19  2  0  0  0  0
 19 20  1  0  0  0  0
 19 39  1  0  0  0  0
 20 21  2  0  0  0  0
 20 40  1  0  0  0  0
 21 22  1  0  0  0  0
 21 41  1  0  0  0  0
 22 23  2  0  0  0  0
 22 42  1  0  0  0  0
 23 24  1  0  0  0  0
M  END
> <s_m_source_file>
AV-unprocessed.smi

> <i_m_source_file_index>
2954

> <i_lp_mmshare_version>
43012

> <i_f3d_flags>
0

> <s_epik_input>
Tz1bQ0hdW05IXVtDQEBIXShbQ0gzXSljKG4xKW4oYyhjMTIpW2NIXVtjSF1bY0hdW2NIXTIpW0NIMl1bQ0gyXU9jM1tjSF1bY0hdW2NIXVtjSF1jM0Ns

> <s_epik_cmdline>
J2VwaWtfcHl0aG9uJywgJy1waCcsICc3LjAnLCAnLXRuJywgJzgnLCAnLW1hJywgJzIwMCcsICctbWV0YWxfYmluZGluZycsICctaW1hZScsICc8aW5maWxlLm1hZT4nLCAnLW9tYWUnLCAnPG91dGZpbGUubWFlPic=

> <r_lp_tautomer_probability>
1

> <r_epik_Ionization_Penalty>
0.0861383

> <r_epik_Ionization_Penalty_Charging>
0

> <r_epik_Ionization_Penalty_Neutral>
0.0861383

> <r_epik_State_Penalty>
0.0766841

> <r_epik_Charging_Adjusted_Penalty>
0.0766841

> <i_epik_Tot_Q>
0

> <i_epik_Tot_abs_Q>
0

> <r_epik_Metal_State_Penalty>
0.0668745

> <b_epik_Metal_Only>
0

> <s_lp_Force_Field>
OPLS_2005

> <r_lp_Energy>
11.8377

> <b_lp_Chiralities_Consistent>
1

> <s_lp_Variant>
AV-unprocessed.smi:2954-2

> <Gold.Version>
5.8.1

> <Gold.Id.Protein>
6NUR|6NUR_protein|mol2

> <Gold.PLP.Fitness>
49.6642

> <Gold.PLP.PLP>
-47.7780

> <Gold.PLP.part.hbond>
-3.0000

> <Gold.PLP.part.metal>
0.0000

> <Gold.PLP.part.buried>
-1.4666

> <Gold.PLP.part.nonpolar>
-45.4073

> <Gold.PLP.part.repulsive>
2.4820

> <Gold.PLP.ligand.clash>
0.0000

> <Gold.PLP.ligand.torsion>
0.7517

> <Gold.PLP.Chemscore.Hbond>
1.1190

> <Gold.PLP.Chemscore.CHOScore>
0.0000

> <Gold.PLP.Chemscore.Metal>
0.0000

> <Gold.Chemscore.Hbonds>
donor molecule, donor type, donor heavy atom, donor atom, acceptor molecule, acceptor atom, score
      L1  H     3    29       P1  7949  0.01
      P1  H  7997  8009       L1    17  0.61

> <Gold.PLP.Chemscore.Internal.Correction>
0.0325

> <Gold.Rescore>
     Score         DG    S(hbond)    S(metal)    S(lipo)     H(rot)  DE(clash)    DE(int)     intcor
     11.94     -17.17       0.70        0.00     130.01       2.28       0.92       4.31       ----

> <Gold.Chemscore.Fitness>
11.9358

> <Gold.Chemscore.DG>
-17.1709

> <Gold.Chemscore.ZeroCoef>
-5.4800

> <Gold.Chemscore.Hbond>
0.6975

> <Gold.Chemscore.Metal>
0.0000

> <Gold.Chemscore.Lipo>
130.0056

> <Gold.Chemscore.Internal_Hbond>
0.0000

> <Gold.Chemscore.DEClash>
0.9227

> <Gold.Chemscore.DEInternal>
4.3124

> <Gold.Chemscore.Rot>
2.2849

> <Gold.Chemscore.Internal.Correction>
   9.000000E+99

> <Gold.Chemscore.Hbonds>
donor molecule, donor type, donor heavy atom, donor atom, acceptor molecule, acceptor atom, score
      L1  H     3    29       P1  7949  0.06
      P1  H  7997  8009       L1    17  0.58

> <Gold.Chemscore.Hbond.Weighted>
-2.3297

> <Gold.Chemscore.Metal.Weighted>
-0.0000

> <Gold.Chemscore.Lipo.Weighted>
-15.2107

> <Gold.Chemscore.Internal_Hbond.Weighted>
0.0000

> <Gold.Chemscore.DEClash.Weighted>
0.9227

> <Gold.Chemscore.DEInternal.Weighted>
4.3124

> <Gold.Chemscore.Rot.Weighted>
5.8495

> <Gold.Chemscore.Internal.Correction.Weighted>
   9.000000E+99

> <Gold.Protein.RotatedTorsions>
[ 6907 6896 6895 6894 ] final   -5.11 input  -60.11 | X-H torsion
[ 7974 7965 7964 7962 ] final   51.78 input  175.53 | X-H torsion
[ 8008 7997 7996 7995 ] final  170.57 input   59.86 | X-H torsion
[ 10167 10162 10161 10158 ] final  -21.61 input  -65.29 | X-H torsion
[ 10718 10713 10712 10709 ] final  -30.94 input   66.30 | X-H torsion
[ 10763 10752 10751 10750 ] final  175.57 input  -60.55 | X-H torsion
[ 11005 11000 10999 10996 ] final  -82.03 input  -57.11 | X-H torsion

> <Gold.Protein.ActiveResidues>
 VAL166  LYS551  ARG553  GLY616  TRP617  ASP618  TYR619  PRO620  LYS621  CYS622 
 ASP623  PHE694  ASN695  SER759  ASP760  ASP761  ALA762  ILE779  LEU786  VAL792 
 PHE793  MET794  SER795  GLU796  ALA797  LYS798  CYS799  TRP800  GLU811  SER814 

> <Gold.Protein.RotatedAtoms>
  151.4869  135.1055  159.9792 H   0  0  0  0  0  0  0  0  0  0  0  0  # atno 6907 bound_to 6896
  152.4757  133.8128  159.7023 H   0  0  0  0  0  0  0  0  0  0  0  0  # atno 6908 bound_to 6896
  150.8793  133.7333  159.2963 H   0  0  0  0  0  0  0  0  0  0  0  0  # atno 6909 bound_to 6896
  145.9879  139.4309  143.0091 H   0  0  0  0  0  0  0  0  0  0  0  0  # atno 7974 bound_to 7965
  156.1353  140.1534  156.9004 H   0  0  0  0  0  0  0  0  0  0  0  0  # atno 8008 bound_to 7997
  154.4942  140.0843  156.7700 H   0  0  0  0  0  0  0  0  0  0  0  0  # atno 8009 bound_to 7997
  155.4180  140.3422  155.4271 H   0  0  0  0  0  0  0  0  0  0  0  0  # atno 8010 bound_to 7997
  140.7283  143.4611  151.0378 H   0  0  0  0  0  0  0  0  0  0  0  0  # atno 10167 bound_to 10162
  156.3935  130.4377  149.7376 H   0  0  0  0  0  0  0  0  0  0  0  0  # atno 10718 bound_to 10713
  154.4694  135.2770  155.1654 H   0  0  0  0  0  0  0  0  0  0  0  0  # atno 10763 bound_to 10752
  154.3409  135.6170  153.5599 H   0  0  0  0  0  0  0  0  0  0  0  0  # atno 10764 bound_to 10752
  152.9862  135.5788  154.5072 H   0  0  0  0  0  0  0  0  0  0  0  0  # atno 10765 bound_to 10752
  141.1664  133.7225  156.8511 H   0  0  0  0  0  0  0  0  0  0  0  0  # atno 11005 bound_to 11000
  145.7673  140.9911  143.1168 LP  0  0  0  0  0  0  0  0  0  0  0  0  # atno 17320 bound_to 7965
  144.6880  139.9404  143.7475 LP  0  0  0  0  0  0  0  0  0  0  0  0  # atno 17321 bound_to 7965
  139.8296  143.7709  152.3179 LP  0  0  0  0  0  0  0  0  0  0  0  0  # atno 17342 bound_to 10162
  139.7820  144.7441  151.0075 LP  0  0  0  0  0  0  0  0  0  0  0  0  # atno 17343 bound_to 10162
  156.4420  130.7865  151.2887 LP  0  0  0  0  0  0  0  0  0  0  0  0  # atno 17370 bound_to 10713
  157.7500  131.0122  150.3374 LP  0  0  0  0  0  0  0  0  0  0  0  0  # atno 17371 bound_to 10713
  140.1915  134.8962  157.3065 LP  0  0  0  0  0  0  0  0  0  0  0  0  # atno 17394 bound_to 11000
  140.2285  134.3937  155.7532 LP  0  0  0  0  0  0  0  0  0  0  0  0  # atno 17395 bound_to 11000

$$$$
