AV-unprocessed.smi:467|AV-procd|sdf|2646|dock9
  -GOLD-   2262023 53D 1   1.00000     0.00000
 Structure written by MMmdl.
 45 47  0  0  0  0  0  0  0  0  2 V2000
  152.7477  143.4400  161.0200 C   0  0  0  0  0  0  0  0  0  0  0  0
  152.3085  142.7479  159.7416 C   0  0  0  0  0  0  0  0  0  0  0  0
  152.8406  141.4763  159.4311 C   0  0  0  0  0  0  0  0  0  0  0  0
  152.4603  140.8006  158.2509 C   0  0  0  0  0  0  0  0  0  0  0  0
  152.8522  139.5690  157.7549 N   0  0  0  0  0  0  0  0  0  0  0  0
  152.1556  139.5014  156.6245 C   0  0  0  0  0  0  0  0  0  0  0  0
  151.3536  140.5427  156.3304 N   0  0  0  0  0  0  0  0  0  0  0  0
  150.5060  140.6883  155.1600 C   0  0  0  0  0  0  0  0  0  0  0  0
  149.5847  139.4728  154.9411 C   0  0  1  0  0  0  0  0  0  0  0  0
  148.6462  139.7694  153.9236 O   0  0  0  0  0  0  0  0  0  0  0  0
  150.3810  138.2188  154.5304 C   0  0  0  0  0  0  0  0  0  0  0  0
  149.5603  136.9820  154.5849 N   0  3  0  0  0  0  0  0  0  0  0  0
  150.3828  135.7606  154.7538 C   0  0  0  0  0  0  0  0  0  0  0  0
  149.4926  134.5064  154.7441 C   0  0  0  0  0  0  0  0  0  0  0  0
  148.5086  134.6118  155.7653 O   0  0  0  0  0  0  0  0  0  0  0  0
  147.6544  135.7313  155.5671 C   0  0  0  0  0  0  0  0  0  0  0  0
  148.4837  137.0263  155.6058 C   0  0  0  0  0  0  0  0  0  0  0  0
  151.5239  141.4360  157.3834 C   0  0  0  0  0  0  0  0  0  0  0  0
  150.9850  142.6997  157.6836 C   0  0  0  0  0  0  0  0  0  0  0  0
  151.3775  143.3618  158.8659 C   0  0  0  0  0  0  0  0  0  0  0  0
  150.7935  144.7282  159.1791 C   0  0  0  0  0  0  0  0  0  0  0  0
  153.5000  142.8560  161.5510 H   0  0  0  0  0  0  0  0  0  0  0  0
  151.8982  143.5799  161.6890 H   0  0  0  0  0  0  0  0  0  0  0  0
  153.1792  144.4165  160.7983 H   0  0  0  0  0  0  0  0  0  0  0  0
  153.5492  141.0079  160.0984 H   0  0  0  0  0  0  0  0  0  0  0  0
  152.2308  138.6437  155.9720 H   0  0  0  0  0  0  0  0  0  0  0  0
  149.9174  141.6006  155.2640 H   0  0  0  0  0  0  0  0  0  0  0  0
  151.1499  140.8330  154.2913 H   0  0  0  0  0  0  0  0  0  0  0  0
  149.0351  139.2865  155.8634 H   0  0  0  0  0  0  0  0  0  0  0  0
  149.1099  139.8936  153.1091 H   0  0  0  0  0  0  0  0  0  0  0  0
  150.7617  138.3660  153.5182 H   0  0  0  0  0  0  0  0  0  0  0  0
  151.2587  138.0943  155.1669 H   0  0  0  0  0  0  0  0  0  0  0  0
  151.1165  135.6933  153.9495 H   0  0  0  0  0  0  0  0  0  0  0  0
  150.9377  135.8189  155.6917 H   0  0  0  0  0  0  0  0  0  0  0  0
  149.0137  134.3744  153.7725 H   0  0  0  0  0  0  0  0  0  0  0  0
  150.0959  133.6166  154.9249 H   0  0  0  0  0  0  0  0  0  0  0  0
  147.1226  135.6367  154.6190 H   0  0  0  0  0  0  0  0  0  0  0  0
  146.9006  135.7439  156.3547 H   0  0  0  0  0  0  0  0  0  0  0  0
  148.9217  137.1552  156.5969 H   0  0  0  0  0  0  0  0  0  0  0  0
  147.8274  137.8788  155.4346 H   0  0  0  0  0  0  0  0  0  0  0  0
  150.2765  143.1577  157.0095 H   0  0  0  0  0  0  0  0  0  0  0  0
  150.0789  145.0401  158.4169 H   0  0  0  0  0  0  0  0  0  0  0  0
  151.5834  145.4782  159.2246 H   0  0  0  0  0  0  0  0  0  0  0  0
  150.2744  144.7125  160.1377 H   0  0  0  0  0  0  0  0  0  0  0  0
  149.1119  136.8986  153.6831 H   0  0  0  0  0  0  0  0  0  0  0  0
  1  2  1  0  0  0  0
  1 22  1  0  0  0  0
  1 23  1  0  0  0  0
  1 24  1  0  0  0  0
  2 20  1  0  0  0  0
  2  3  2  0  0  0  0
  3  4  1  0  0  0  0
  3 25  1  0  0  0  0
  4 18  2  0  0  0  0
  4  5  1  0  0  0  0
  5  6  2  0  0  0  0
  6  7  1  0  0  0  0
  6 26  1  0  0  0  0
  7  8  1  0  0  0  0
  7 18  1  0  0  0  0
  8  9  1  0  0  0  0
  8 27  1  0  0  0  0
  8 28  1  0  0  0  0
  9 10  1  0  0  0  0
  9 11  1  0  0  0  0
  9 29  1  0  0  0  0
 10 30  1  0  0  0  0
 11 12  1  0  0  0  0
 11 31  1  0  0  0  0
 11 32  1  0  0  0  0
 12 17  1  0  0  0  0
 12 13  1  0  0  0  0
 12 45  1  0  0  0  0
 13 14  1  0  0  0  0
 13 33  1  0  0  0  0
 13 34  1  0  0  0  0
 14 15  1  0  0  0  0
 14 35  1  0  0  0  0
 14 36  1  0  0  0  0
 15 16  1  0  0  0  0
 16 17  1  0  0  0  0
 16 37  1  0  0  0  0
 16 38  1  0  0  0  0
 17 39  1  0  0  0  0
 17 40  1  0  0  0  0
 18 19  1  0  0  0  0
 19 20  2  0  0  0  0
 19 41  1  0  0  0  0
 20 21  1  0  0  0  0
 21 42  1  0  0  0  0
 21 43  1  0  0  0  0
 21 44  1  0  0  0  0
M  CHG  1  12   1
M  END
> <s_m_source_file>
AV-unprocessed.smi

> <i_m_source_file_index>
467

> <i_lp_mmshare_version>
43012

> <i_f3d_flags>
0

> <s_epik_input>
W0NIM11jKFtjSF0xKWMoW0NIM10pW2NIXWMoYzEyKW4oW2NIXW4yKVtDSDJdW0NASF0oW09IXSlbQ0gyXU4zW0NIMl1bQ0gyXU9bQ0gyXVtDSDJdMw==

> <s_epik_cmdline>
J2VwaWtfcHl0aG9uJywgJy1waCcsICc3LjAnLCAnLXRuJywgJzgnLCAnLW1hJywgJzIwMCcsICctbWV0YWxfYmluZGluZycsICctaW1hZScsICc8aW5maWxlLm1hZT4nLCAnLW9tYWUnLCAnPG91dGZpbGUubWFlPic=

> <r_epik_Ionization_Penalty>
0.695168

> <r_epik_Ionization_Penalty_Charging>
0.608065

> <r_epik_Ionization_Penalty_Neutral>
0.0871028

> <r_epik_State_Penalty>
0.731876

> <r_epik_Charging_Adjusted_Penalty>
1.33994

> <i_epik_Tot_Q>
1

> <i_epik_Tot_abs_Q>
1

> <r_epik_Metal_State_Penalty>
0.652189

> <b_epik_Metal_Only>
0

> <s_lp_Force_Field>
OPLS_2005

> <r_lp_Energy>
21.2169

> <b_lp_Chiralities_Consistent>
1

> <s_lp_Variant>
AV-unprocessed.smi:467-4

> <Gold.Version>
5.8.1

> <Gold.Id.Protein>
6NUR|6NUR_protein|mol2

> <Gold.PLP.Fitness>
50.0026

> <Gold.PLP.PLP>
-38.9386

> <Gold.PLP.part.hbond>
-3.0000

> <Gold.PLP.part.metal>
0.0000

> <Gold.PLP.part.buried>
-2.0982

> <Gold.PLP.part.nonpolar>
-33.3876

> <Gold.PLP.part.repulsive>
0.0675

> <Gold.PLP.ligand.clash>
0.0000

> <Gold.PLP.ligand.torsion>
0.4853

> <Gold.PLP.Chemscore.Hbond>
4.0000

> <Gold.PLP.Chemscore.CHOScore>
0.0000

> <Gold.PLP.Chemscore.Metal>
0.0000

> <Gold.Chemscore.Hbonds>
donor molecule, donor type, donor heavy atom, donor atom, acceptor molecule, acceptor atom, score
      L1  H    10    30       P1  7957  1.00
      L1  H    12    45       P1  7948  2.00
      P1  H  7997  8010       L1     5  1.00

> <Gold.PLP.Chemscore.Internal.Correction>
0.0346

> <Gold.Rescore>
     Score         DG    S(hbond)    S(metal)    S(lipo)     H(rot)  DE(clash)    DE(int)     intcor
     18.51     -20.22       1.96        0.00     116.01       2.10       0.95       0.76       ----

> <Gold.Chemscore.Fitness>
18.5139

> <Gold.Chemscore.DG>
-20.2196

> <Gold.Chemscore.ZeroCoef>
-5.4800

> <Gold.Chemscore.Hbond>
1.9596

> <Gold.Chemscore.Metal>
0.0000

> <Gold.Chemscore.Lipo>
116.0128

> <Gold.Chemscore.Internal_Hbond>
0.0000

> <Gold.Chemscore.DEClash>
0.9501

> <Gold.Chemscore.DEInternal>
0.7556

> <Gold.Chemscore.Rot>
2.1011

> <Gold.Chemscore.Internal.Correction>
   9.000000E+99

> <Gold.Chemscore.Hbonds>
donor molecule, donor type, donor heavy atom, donor atom, acceptor molecule, acceptor atom, score
      L1  H    10    30       P1  7957  0.94
      L1  H    12    45       P1  7948  0.96
      P1  H  7997  8010       L1     5  0.07

> <Gold.Chemscore.Hbond.Weighted>
-6.5450

> <Gold.Chemscore.Metal.Weighted>
-0.0000

> <Gold.Chemscore.Lipo.Weighted>
-13.5735

> <Gold.Chemscore.Internal_Hbond.Weighted>
0.0000

> <Gold.Chemscore.DEClash.Weighted>
0.9501

> <Gold.Chemscore.DEInternal.Weighted>
0.7556

> <Gold.Chemscore.Rot.Weighted>
5.3789

> <Gold.Chemscore.Internal.Correction.Weighted>
   9.000000E+99

> <Gold.Protein.RotatedTorsions>
[ 6907 6896 6895 6894 ] final  163.76 input  -60.11 | X-H torsion
[ 7974 7965 7964 7962 ] final  -62.18 input  175.53 | X-H torsion
[ 8008 7997 7996 7995 ] final   28.41 input   59.86 | X-H torsion
[ 10167 10162 10161 10158 ] final   22.10 input  -65.29 | X-H torsion
[ 10718 10713 10712 10709 ] final -137.15 input   66.30 | X-H torsion
[ 10763 10752 10751 10750 ] final -131.12 input  -60.55 | X-H torsion
[ 11005 11000 10999 10996 ] final   68.79 input  -57.11 | X-H torsion

> <Gold.Protein.ActiveResidues>
 VAL166  LYS551  ARG553  GLY616  TRP617  ASP618  TYR619  PRO620  LYS621  CYS622 
 ASP623  PHE694  ASN695  SER759  ASP760  ASP761  ALA762  ILE779  LEU786  VAL792 
 PHE793  MET794  SER795  GLU796  ALA797  LYS798  CYS799  TRP800  GLU811  SER814 

> <Gold.Protein.RotatedAtoms>
  151.9203  133.3584  159.3894 H   0  0  0  0  0  0  0  0  0  0  0  0  # atno 6907 bound_to 6896
  150.7038  134.4642  159.5404 H   0  0  0  0  0  0  0  0  0  0  0  0  # atno 6908 bound_to 6896
  152.2264  134.8364  160.0530 H   0  0  0  0  0  0  0  0  0  0  0  0  # atno 6909 bound_to 6896
  145.7944  140.8691  143.0264 H   0  0  0  0  0  0  0  0  0  0  0  0  # atno 7974 bound_to 7965
  155.0583  140.3187  155.4669 H   0  0  0  0  0  0  0  0  0  0  0  0  # atno 8008 bound_to 7997
  156.2819  140.2133  156.5654 H   0  0  0  0  0  0  0  0  0  0  0  0  # atno 8009 bound_to 7997
  154.7153  140.0494  157.0576 H   0  0  0  0  0  0  0  0  0  0  0  0  # atno 8010 bound_to 7997
  140.5375  143.9735  150.6500 H   0  0  0  0  0  0  0  0  0  0  0  0  # atno 10167 bound_to 10162
  156.2849  130.7342  151.1351 H   0  0  0  0  0  0  0  0  0  0  0  0  # atno 10718 bound_to 10713
  154.8752  135.3840  154.4195 H   0  0  0  0  0  0  0  0  0  0  0  0  # atno 10763 bound_to 10752
  153.4900  135.7030  153.5894 H   0  0  0  0  0  0  0  0  0  0  0  0  # atno 10764 bound_to 10752
  153.4272  135.3887  155.2115 H   0  0  0  0  0  0  0  0  0  0  0  0  # atno 10765 bound_to 10752
  139.9691  134.6930  156.0484 H   0  0  0  0  0  0  0  0  0  0  0  0  # atno 11005 bound_to 11000
  144.6777  140.0169  143.7484 LP  0  0  0  0  0  0  0  0  0  0  0  0  # atno 17320 bound_to 7965
  145.9943  139.3040  143.0966 LP  0  0  0  0  0  0  0  0  0  0  0  0  # atno 17321 bound_to 7965
  140.3126  143.3188  152.0863 LP  0  0  0  0  0  0  0  0  0  0  0  0  # atno 17342 bound_to 10162
  139.4976  144.6626  151.6430 LP  0  0  0  0  0  0  0  0  0  0  0  0  # atno 17343 bound_to 10162
  157.7326  131.0598  150.5622 LP  0  0  0  0  0  0  0  0  0  0  0  0  # atno 17370 bound_to 10713
  156.5731  130.4285  149.6010 LP  0  0  0  0  0  0  0  0  0  0  0  0  # atno 17371 bound_to 10713
  141.1371  133.6573  156.3624 LP  0  0  0  0  0  0  0  0  0  0  0  0  # atno 17394 bound_to 11000
  140.5332  134.6192  157.5356 LP  0  0  0  0  0  0  0  0  0  0  0  0  # atno 17395 bound_to 11000

$$$$
