AV-unprocessed.smi:1684|AV-procd|sdf|6754|dock6
  -GOLD-   22720 7513D 1   1.00000     0.00000
 Structure written by MMmdl.
 42 43  0  0  0  0  0  0  0  0  1 V2000
  147.7263  132.9890  152.1755 C   0  0  0  0  0  0  0  0  0  0  0  0
  146.4404  133.0485  151.3671 C   0  0  0  0  0  0  0  0  0  0  0  0
  145.9266  131.8631  150.7995 C   0  0  0  0  0  0  0  0  0  0  0  0
  144.7385  131.9199  150.0510 C   0  0  0  0  0  0  0  0  0  0  0  0
  144.1112  133.1684  149.9000 C   0  0  0  0  0  0  0  0  0  0  0  0
  144.5948  134.3058  150.4393 N   0  0  0  0  0  0  0  0  0  0  0  0
  145.7403  134.2685  151.1654 C   0  0  0  0  0  0  0  0  0  0  0  0
  146.3056  135.4272  151.7688 N   0  0  0  0  0  0  0  0  0  0  0  0
  145.7042  136.3443  152.5468 C   0  0  0  0  0  0  0  0  0  0  0  0
  144.5134  136.3411  152.8605 O   0  0  0  0  0  0  0  0  0  0  0  0
  146.5746  137.2869  152.9389 N   0  0  0  0  0  0  0  0  0  0  0  0
  146.2571  138.4617  153.7495 C   0  0  1  0  0  0  0  0  0  0  0  0
  146.2740  138.0740  155.2343 C   0  0  0  0  0  0  0  0  0  0  0  0
  147.2608  139.5954  153.4520 C   0  0  0  0  0  0  0  0  0  0  0  0
  148.3590  139.7372  154.4098 N   0  0  0  0  0  0  0  0  0  0  0  0
  149.4826  138.8486  154.1198 C   0  0  0  0  0  0  0  0  0  0  0  0
  150.6298  139.0289  155.1290 C   0  0  0  0  0  0  0  0  0  0  0  0
  151.0472  140.3902  155.1427 O   0  0  0  0  0  0  0  0  0  0  0  0
  149.9885  141.2854  155.4668 C   0  0  0  0  0  0  0  0  0  0  0  0
  148.8410  141.1130  154.4567 C   0  0  0  0  0  0  0  0  0  0  0  0
  148.1196  131.9731  152.2218 H   0  0  0  0  0  0  0  0  0  0  0  0
  147.5514  133.3277  153.1970 H   0  0  0  0  0  0  0  0  0  0  0  0
  148.4896  133.6237  151.7247 H   0  0  0  0  0  0  0  0  0  0  0  0
  146.4350  130.9197  150.9345 H   0  0  0  0  0  0  0  0  0  0  0  0
  144.3195  131.0305  149.6041 H   0  0  0  0  0  0  0  0  0  0  0  0
  143.1968  133.2570  149.3322 H   0  0  0  0  0  0  0  0  0  0  0  0
  147.2865  135.5743  151.5838 H   0  0  0  0  0  0  0  0  0  0  0  0
  147.5307  137.2036  152.6265 H   0  0  0  0  0  0  0  0  0  0  0  0
  145.2500  138.8171  153.5296 H   0  0  0  0  0  0  0  0  0  0  0  0
  146.0168  138.9262  155.8639 H   0  0  0  0  0  0  0  0  0  0  0  0
  147.2573  137.7174  155.5428 H   0  0  0  0  0  0  0  0  0  0  0  0
  145.5522  137.2831  155.4414 H   0  0  0  0  0  0  0  0  0  0  0  0
  147.6687  139.4623  152.4487 H   0  0  0  0  0  0  0  0  0  0  0  0
  146.7026  140.5324  153.4214 H   0  0  0  0  0  0  0  0  0  0  0  0
  149.1609  137.8083  154.1451 H   0  0  0  0  0  0  0  0  0  0  0  0
  149.8546  139.0380  153.1118 H   0  0  0  0  0  0  0  0  0  0  0  0
  150.3140  138.7273  156.1289 H   0  0  0  0  0  0  0  0  0  0  0  0
  151.4768  138.3986  154.8568 H   0  0  0  0  0  0  0  0  0  0  0  0
  149.6405  141.0961  156.4835 H   0  0  0  0  0  0  0  0  0  0  0  0
  150.3652  142.3081  155.4413 H   0  0  0  0  0  0  0  0  0  0  0  0
  149.1829  141.4197  153.4669 H   0  0  0  0  0  0  0  0  0  0  0  0
  148.0232  141.7830  154.7249 H   0  0  0  0  0  0  0  0  0  0  0  0
  1  2  1  0  0  0  0
  1 21  1  0  0  0  0
  1 22  1  0  0  0  0
  1 23  1  0  0  0  0
  2  7  1  0  0  0  0
  2  3  2  0  0  0  0
  3  4  1  0  0  0  0
  3 24  1  0  0  0  0
  4  5  2  0  0  0  0
  4 25  1  0  0  0  0
  5  6  1  0  0  0  0
  5 26  1  0  0  0  0
  6  7  2  0  0  0  0
  7  8  1  0  0  0  0
  8  9  1  0  0  0  0
  8 27  1  0  0  0  0
  9 10  2  0  0  0  0
  9 11  1  0  0  0  0
 11 12  1  0  0  0  0
 11 28  1  0  0  0  0
 12 13  1  0  0  0  0
 12 14  1  0  0  0  0
 12 29  1  0  0  0  0
 13 30  1  0  0  0  0
 13 31  1  0  0  0  0
 13 32  1  0  0  0  0
 14 15  1  0  0  0  0
 14 33  1  0  0  0  0
 14 34  1  0  0  0  0
 15 20  1  0  0  0  0
 15 16  1  0  0  0  0
 16 17  1  0  0  0  0
 16 35  1  0  0  0  0
 16 36  1  0  0  0  0
 17 18  1  0  0  0  0
 17 37  1  0  0  0  0
 17 38  1  0  0  0  0
 18 19  1  0  0  0  0
 19 20  1  0  0  0  0
 19 39  1  0  0  0  0
 19 40  1  0  0  0  0
 20 41  1  0  0  0  0
 20 42  1  0  0  0  0
M  END
> <s_m_source_file>
AV-unprocessed.smi

> <i_m_source_file_index>
1684

> <i_lp_mmshare_version>
43012

> <i_f3d_flags>
0

> <s_epik_input>
W0NIM11jMVtjSF1bY0hdW2NIXW5jMVtOSF1DKD1PKVtOSF1bQ0BIXShbQ0gzXSlbQ0gyXU4yW0NIMl1bQ0gyXU9bQ0gyXVtDSDJdMg==

> <s_epik_cmdline>
J2VwaWtfcHl0aG9uJywgJy1waCcsICc3LjAnLCAnLXRuJywgJzgnLCAnLW1hJywgJzIwMCcsICctbWV0YWxfYmluZGluZycsICctaW1hZScsICc8aW5maWxlLm1hZT4nLCAnLW9tYWUnLCAnPG91dGZpbGUubWFlPic=

> <r_epik_Ionization_Penalty>
0.26605

> <r_epik_Ionization_Penalty_Charging>
0

> <r_epik_Ionization_Penalty_Neutral>
0.26605

> <r_epik_State_Penalty>
0.257924

> <r_epik_Charging_Adjusted_Penalty>
0.257924

> <i_epik_Tot_Q>
0

> <i_epik_Tot_abs_Q>
0

> <r_epik_Metal_State_Penalty>
0.257922

> <b_epik_Metal_Only>
0

> <s_lp_Force_Field>
OPLS_2005

> <r_lp_Energy>
28.5554

> <b_lp_Chiralities_Consistent>
1

> <s_lp_Variant>
AV-unprocessed.smi:1684-2

> <Gold.Version>
5.8.1

> <Gold.Id.Protein>
6NUR|6NUR_protein|mol2

> <Gold.PLP.Fitness>
43.6943

> <Gold.PLP.PLP>
-34.8895

> <Gold.PLP.part.hbond>
-3.0000

> <Gold.PLP.part.metal>
0.0000

> <Gold.PLP.part.buried>
-4.4547

> <Gold.PLP.part.nonpolar>
-28.3025

> <Gold.PLP.part.repulsive>
0.5589

> <Gold.PLP.ligand.clash>
0.0000

> <Gold.PLP.ligand.torsion>
1.6217

> <Gold.PLP.Chemscore.Hbond>
3.0000

> <Gold.PLP.Chemscore.CHOScore>
1.0000

> <Gold.PLP.Chemscore.Metal>
0.0000

> <Gold.Chemscore.Hbonds>
donor molecule, donor type, donor heavy atom, donor atom, acceptor molecule, acceptor atom, score
      L1  H     8    27       P1  7948  1.00
      L1  H    11    28       P1  7948  1.00
      P1  H  7989  7998       L1    18  1.00
      L1  C     5    26       P1 10186  1.00

> <Gold.PLP.Chemscore.Internal.Correction>
0.0483

> <Gold.Rescore>
     Score         DG    S(hbond)    S(metal)    S(lipo)     H(rot)  DE(clash)    DE(int)     intcor
     17.95     -19.77       2.49        0.00      83.02       1.46       0.20       1.63       ----

> <Gold.Chemscore.Fitness>
17.9455

> <Gold.Chemscore.DG>
-19.7750

> <Gold.Chemscore.ZeroCoef>
-5.4800

> <Gold.Chemscore.Hbond>
2.4892

> <Gold.Chemscore.Metal>
0.0000

> <Gold.Chemscore.Lipo>
83.0237

> <Gold.Chemscore.Internal_Hbond>
0.0000

> <Gold.Chemscore.DEClash>
0.2010

> <Gold.Chemscore.DEInternal>
1.6284

> <Gold.Chemscore.Rot>
1.4581

> <Gold.Chemscore.Internal.Correction>
   9.000000E+99

> <Gold.Chemscore.Hbonds>
donor molecule, donor type, donor heavy atom, donor atom, acceptor molecule, acceptor atom, score
      L1  H     8    27       P1  7948  0.98
      L1  H    11    28       P1  7948  0.96
      P1  H  7989  7998       L1    18  0.40

> <Gold.Chemscore.Hbond.Weighted>
-8.3139

> <Gold.Chemscore.Metal.Weighted>
-0.0000

> <Gold.Chemscore.Lipo.Weighted>
-9.7138

> <Gold.Chemscore.Internal_Hbond.Weighted>
0.0000

> <Gold.Chemscore.DEClash.Weighted>
0.2010

> <Gold.Chemscore.DEInternal.Weighted>
1.6284

> <Gold.Chemscore.Rot.Weighted>
3.7327

> <Gold.Chemscore.Internal.Correction.Weighted>
   9.000000E+99

> <Gold.Protein.RotatedTorsions>
[ 6907 6896 6895 6894 ] final -170.54 input  -60.11 | X-H torsion
[ 7974 7965 7964 7962 ] final  -42.03 input  175.53 | X-H torsion
[ 8008 7997 7996 7995 ] final -169.90 input   59.86 | X-H torsion
[ 10167 10162 10161 10158 ] final  166.54 input  -65.29 | X-H torsion
[ 10718 10713 10712 10709 ] final  -62.98 input   66.30 | X-H torsion
[ 10763 10752 10751 10750 ] final   18.38 input  -60.55 | X-H torsion
[ 11005 11000 10999 10996 ] final  172.31 input  -57.11 | X-H torsion

> <Gold.Protein.ActiveResidues>
 VAL166  LYS551  ARG553  GLY616  TRP617  ASP618  TYR619  PRO620  LYS621  CYS622 
 ASP623  PHE694  ASN695  SER759  ASP760  ASP761  ALA762  ILE779  LEU786  VAL792 
 PHE793  MET794  SER795  GLU796  ALA797  LYS798  CYS799  TRP800  GLU811  SER814 

> <Gold.Protein.RotatedAtoms>
  151.5093  133.3488  159.2881 H   0  0  0  0  0  0  0  0  0  0  0  0  # atno 6907 bound_to 6896
  150.8722  134.8100  159.7174 H   0  0  0  0  0  0  0  0  0  0  0  0  # atno 6908 bound_to 6896
  152.4706  134.4979  159.9767 H   0  0  0  0  0  0  0  0  0  0  0  0  # atno 6909 bound_to 6896
  146.0154  140.6914  142.9204 H   0  0  0  0  0  0  0  0  0  0  0  0  # atno 7974 bound_to 7965
  155.9112  140.1057  157.1278 H   0  0  0  0  0  0  0  0  0  0  0  0  # atno 8008 bound_to 7997
  154.4039  140.1274  156.4624 H   0  0  0  0  0  0  0  0  0  0  0  0  # atno 8009 bound_to 7997
  155.7308  140.3468  155.5061 H   0  0  0  0  0  0  0  0  0  0  0  0  # atno 8010 bound_to 7997
  139.4926  144.4017  151.9402 H   0  0  0  0  0  0  0  0  0  0  0  0  # atno 10167 bound_to 10162
  156.0820  130.4215  150.1212 H   0  0  0  0  0  0  0  0  0  0  0  0  # atno 10718 bound_to 10713
  153.1254  135.6728  153.9265 H   0  0  0  0  0  0  0  0  0  0  0  0  # atno 10763 bound_to 10752
  153.8768  135.3063  155.3445 H   0  0  0  0  0  0  0  0  0  0  0  0  # atno 10764 bound_to 10752
  154.7660  135.4964  153.9635 H   0  0  0  0  0  0  0  0  0  0  0  0  # atno 10765 bound_to 10752
  140.3283  134.7379  157.4115 H   0  0  0  0  0  0  0  0  0  0  0  0  # atno 11005 bound_to 11000
  144.6969  140.3473  143.7188 LP  0  0  0  0  0  0  0  0  0  0  0  0  # atno 17320 bound_to 7965
  145.7276  139.1727  143.2449 LP  0  0  0  0  0  0  0  0  0  0  0  0  # atno 17321 bound_to 7965
  140.3456  144.3150  150.5959 LP  0  0  0  0  0  0  0  0  0  0  0  0  # atno 17342 bound_to 10162
  140.5529  143.2203  151.7897 LP  0  0  0  0  0  0  0  0  0  0  0  0  # atno 17343 bound_to 10162
  156.9241  130.9692  151.3544 LP  0  0  0  0  0  0  0  0  0  0  0  0  # atno 17370 bound_to 10713
  157.5941  130.8464  149.8702 LP  0  0  0  0  0  0  0  0  0  0  0  0  # atno 17371 bound_to 10713
  140.0882  134.5637  155.8470 LP  0  0  0  0  0  0  0  0  0  0  0  0  # atno 17394 bound_to 11000
  141.2070  133.6660  156.6276 LP  0  0  0  0  0  0  0  0  0  0  0  0  # atno 17395 bound_to 11000

$$$$
