AV-unprocessed.smi:219|AV-procd|sdf|1678|dock10
  -GOLD-   2262020113D 1   1.00000     0.00000
 Structure written by MMmdl.
 50 53  0  0  0  0  0  0  0  0  1 V2000
  149.0090  142.0650  154.9809 N   0  0  0  0  0  0  0  0  0  0  0  0
  150.1036  141.3336  155.2057 C   0  0  0  0  0  0  0  0  0  0  0  0
  150.2299  140.1930  154.7656 O   0  0  0  0  0  0  0  0  0  0  0  0
  151.2150  141.9800  156.0450 C   0  0  0  0  0  0  0  0  0  0  0  0
  151.3630  141.4321  157.4963 C   0  0  2  0  0  0  0  0  0  0  0  0
  151.8608  142.5727  158.4140 C   0  0  0  0  0  0  0  0  0  0  0  0
  152.0456  142.1090  159.8654 C   0  0  0  0  0  0  0  0  0  0  0  0
  152.9809  140.8962  159.9114 C   0  0  0  0  0  0  0  0  0  0  0  0
  152.4496  139.7828  158.9995 C   0  0  0  0  0  0  0  0  0  0  0  0
  152.2569  140.2640  157.6298 N   0  0  0  0  0  0  0  0  0  0  0  0
  152.0459  139.2448  156.7664 C   0  0  0  0  0  0  0  0  0  0  0  0
  152.8132  139.1269  155.6505 N   0  0  0  0  0  0  0  0  0  0  0  0
  152.6349  138.0899  154.8265 C   0  0  0  0  0  0  0  0  0  0  0  0
  151.7707  137.0778  154.9326 N   0  0  0  0  0  0  0  0  0  0  0  0
  150.9979  137.1998  156.0501 C   0  0  0  0  0  0  0  0  0  0  0  0
  151.0613  138.2510  157.0057 C   0  0  0  0  0  0  0  0  0  0  0  0
  150.1224  138.0457  158.0081 N   0  0  0  0  0  0  0  0  0  0  0  0
  149.5393  136.9290  157.6679 C   0  0  0  0  0  0  0  0  0  0  0  0
  150.0162  136.3431  156.5162 N   0  0  0  0  0  0  0  0  0  0  0  0
  149.5740  135.0894  155.9271 C   0  0  0  0  0  0  0  0  0  0  0  0
  148.1034  135.1262  155.4487 C   0  0  1  0  0  0  0  0  0  0  0  0
  147.8995  136.2850  154.6584 O   0  0  0  0  0  0  0  0  0  0  0  0
  147.6832  133.9067  154.6313 C   0  0  0  0  0  0  0  0  0  0  0  0
  146.2165  133.7358  155.0010 C   0  0  0  0  0  0  0  0  0  0  0  0
  146.2142  134.0349  156.3860 O   0  0  0  0  0  0  0  0  0  0  0  0
  147.0863  135.1386  156.6076 C   0  0  0  0  0  0  0  0  0  0  0  0
  148.2584  141.6830  154.4235 H   0  0  0  0  0  0  0  0  0  0  0  0
  148.9395  142.9993  155.3573 H   0  0  0  0  0  0  0  0  0  0  0  0
  152.1718  141.9271  155.5234 H   0  0  0  0  0  0  0  0  0  0  0  0
  150.9615  143.0399  156.0851 H   0  0  0  0  0  0  0  0  0  0  0  0
  150.3801  141.1288  157.8608 H   0  0  0  0  0  0  0  0  0  0  0  0
  152.8095  142.9575  158.0364 H   0  0  0  0  0  0  0  0  0  0  0  0
  151.1589  143.4071  158.3908 H   0  0  0  0  0  0  0  0  0  0  0  0
  152.4496  142.9199  160.4721 H   0  0  0  0  0  0  0  0  0  0  0  0
  151.0781  141.8468  160.2954 H   0  0  0  0  0  0  0  0  0  0  0  0
  153.9822  141.1879  159.5916 H   0  0  0  0  0  0  0  0  0  0  0  0
  153.0732  140.5308  160.9345 H   0  0  0  0  0  0  0  0  0  0  0  0
  153.1466  138.9432  159.0039 H   0  0  0  0  0  0  0  0  0  0  0  0
  151.5018  139.4125  159.3931 H   0  0  0  0  0  0  0  0  0  0  0  0
  153.2832  138.0628  153.9632 H   0  0  0  0  0  0  0  0  0  0  0  0
  148.7482  136.4926  158.2602 H   0  0  0  0  0  0  0  0  0  0  0  0
  150.2352  134.8565  155.0913 H   0  0  0  0  0  0  0  0  0  0  0  0
  149.7147  134.2933  156.6598 H   0  0  0  0  0  0  0  0  0  0  0  0
  148.4448  136.2234  153.8889 H   0  0  0  0  0  0  0  0  0  0  0  0
  147.8479  134.0148  153.5581 H   0  0  0  0  0  0  0  0  0  0  0  0
  148.2296  133.0233  154.9635 H   0  0  0  0  0  0  0  0  0  0  0  0
  145.5884  134.4500  154.4664 H   0  0  0  0  0  0  0  0  0  0  0  0
  145.8448  132.7298  154.8043 H   0  0  0  0  0  0  0  0  0  0  0  0
  147.5627  135.0280  157.5824 H   0  0  0  0  0  0  0  0  0  0  0  0
  146.5038  136.0614  156.6325 H   0  0  0  0  0  0  0  0  0  0  0  0
  1  2  1  0  0  0  0
  1 27  1  0  0  0  0
  1 28  1  0  0  0  0
  2  3  2  0  0  0  0
  2  4  1  0  0  0  0
  4  5  1  0  0  0  0
  4 29  1  0  0  0  0
  4 30  1  0  0  0  0
  5 10  1  0  0  0  0
  5  6  1  0  0  0  0
  5 31  1  0  0  0  0
  6  7  1  0  0  0  0
  6 32  1  0  0  0  0
  6 33  1  0  0  0  0
  7  8  1  0  0  0  0
  7 34  1  0  0  0  0
  7 35  1  0  0  0  0
  8  9  1  0  0  0  0
  8 36  1  0  0  0  0
  8 37  1  0  0  0  0
  9 10  1  0  0  0  0
  9 38  1  0  0  0  0
  9 39  1  0  0  0  0
 10 11  1  0  0  0  0
 11 16  1  0  0  0  0
 11 12  2  0  0  0  0
 12 13  1  0  0  0  0
 13 14  2  0  0  0  0
 13 40  1  0  0  0  0
 14 15  1  0  0  0  0
 15 19  1  0  0  0  0
 15 16  2  0  0  0  0
 16 17  1  0  0  0  0
 17 18  2  0  0  0  0
 18 19  1  0  0  0  0
 18 41  1  0  0  0  0
 19 20  1  0  0  0  0
 20 21  1  0  0  0  0
 20 42  1  0  0  0  0
 20 43  1  0  0  0  0
 21 26  1  0  0  0  0
 21 22  1  0  0  0  0
 21 23  1  0  0  0  0
 22 44  1  0  0  0  0
 23 24  1  0  0  0  0
 23 45  1  0  0  0  0
 23 46  1  0  0  0  0
 24 25  1  0  0  0  0
 24 47  1  0  0  0  0
 24 48  1  0  0  0  0
 25 26  1  0  0  0  0
 26 49  1  0  0  0  0
 26 50  1  0  0  0  0
M  END
> <s_m_source_file>
AV-unprocessed.smi

> <i_m_source_file_index>
219

> <i_lp_mmshare_version>
43012

> <i_f3d_flags>
0

> <s_epik_input>
W05IMl1DKD1PKVtDSDJdW0NAQEhdMVtDSDJdW0NIMl1bQ0gyXVtDSDJdTjFjKG5bY0hdbjIpYyhjMjMpbltjSF1uM1tDSDJdW0NAQF00KFtPSF0pW0NIMl1bQ0gyXU9bQ0gyXTQ=

> <s_epik_cmdline>
J2VwaWtfcHl0aG9uJywgJy1waCcsICc3LjAnLCAnLXRuJywgJzgnLCAnLW1hJywgJzIwMCcsICctbWV0YWxfYmluZGluZycsICctaW1hZScsICc8aW5maWxlLm1hZT4nLCAnLW9tYWUnLCAnPG91dGZpbGUubWFlPic=

> <r_lp_tautomer_probability>
1

> <r_epik_Ionization_Penalty>
0.00228532

> <r_epik_Ionization_Penalty_Charging>
0

> <r_epik_Ionization_Penalty_Neutral>
0.00228532

> <r_epik_State_Penalty>
0.00140978

> <r_epik_Charging_Adjusted_Penalty>
0.00140978

> <i_epik_Tot_Q>
0

> <i_epik_Tot_abs_Q>
0

> <r_epik_Metal_State_Penalty>
-0

> <b_epik_Metal_Only>
0

> <s_lp_Force_Field>
OPLS_2005

> <r_lp_Energy>
33.2766

> <b_lp_Chiralities_Consistent>
1

> <s_lp_Variant>
AV-unprocessed.smi:219-1

> <Gold.Version>
5.8.1

> <Gold.Id.Protein>
6NUR|6NUR_protein|mol2

> <Gold.PLP.Fitness>
49.1206

> <Gold.PLP.PLP>
-36.5482

> <Gold.PLP.part.hbond>
-5.9511

> <Gold.PLP.part.metal>
0.0000

> <Gold.PLP.part.buried>
-7.5747

> <Gold.PLP.part.nonpolar>
-23.6292

> <Gold.PLP.part.repulsive>
0.3771

> <Gold.PLP.ligand.clash>
0.0000

> <Gold.PLP.ligand.torsion>
1.0029

> <Gold.PLP.Chemscore.Hbond>
4.7760

> <Gold.PLP.Chemscore.CHOScore>
0.0000

> <Gold.PLP.Chemscore.Metal>
0.0000

> <Gold.Chemscore.Hbonds>
donor molecule, donor type, donor heavy atom, donor atom, acceptor molecule, acceptor atom, score
      L1  H     1    28       P1  8028  1.00
      L1  H    22    44       P1  7948  0.88
      P1  H  7989  7998       L1     3  0.45
      P1  H  7997  8009       L1    12  1.00
      P1  H 10752 10765       L1    14  0.79

> <Gold.PLP.Chemscore.Internal.Correction>
0.2502

> <Gold.Rescore>
     Score         DG    S(hbond)    S(metal)    S(lipo)     H(rot)  DE(clash)    DE(int)     intcor
     15.18     -16.17       3.43        0.00      67.10       3.37       0.02       0.97       ----

> <Gold.Chemscore.Fitness>
15.1840

> <Gold.Chemscore.DG>
-16.1726

> <Gold.Chemscore.ZeroCoef>
-5.4800

> <Gold.Chemscore.Hbond>
3.4338

> <Gold.Chemscore.Metal>
0.0000

> <Gold.Chemscore.Lipo>
67.0955

> <Gold.Chemscore.Internal_Hbond>
0.0000

> <Gold.Chemscore.DEClash>
0.0174

> <Gold.Chemscore.DEInternal>
0.9712

> <Gold.Chemscore.Rot>
3.3697

> <Gold.Chemscore.Internal.Correction>
   9.000000E+99

> <Gold.Chemscore.Hbonds>
donor molecule, donor type, donor heavy atom, donor atom, acceptor molecule, acceptor atom, score
      L1  H     1    28       P1  8028  1.00
      L1  H    22    44       P1  7948  0.83
      P1  H  7989  7998       L1     3  0.02
      P1  H  7997  8009       L1    12  0.67
      P1  H 10752 10765       L1    14  0.13

> <Gold.Chemscore.Hbond.Weighted>
-11.4688

> <Gold.Chemscore.Metal.Weighted>
-0.0000

> <Gold.Chemscore.Lipo.Weighted>
-7.8502

> <Gold.Chemscore.Internal_Hbond.Weighted>
0.0000

> <Gold.Chemscore.DEClash.Weighted>
0.0174

> <Gold.Chemscore.DEInternal.Weighted>
0.9712

> <Gold.Chemscore.Rot.Weighted>
8.6264

> <Gold.Chemscore.Internal.Correction.Weighted>
   9.000000E+99

> <Gold.Protein.RotatedTorsions>
[ 6907 6896 6895 6894 ] final  151.65 input  -60.11 | X-H torsion
[ 7974 7965 7964 7962 ] final  126.55 input  175.53 | X-H torsion
[ 8008 7997 7996 7995 ] final -134.43 input   59.86 | X-H torsion
[ 10167 10162 10161 10158 ] final  110.40 input  -65.29 | X-H torsion
[ 10718 10713 10712 10709 ] final  -42.51 input   66.30 | X-H torsion
[ 10763 10752 10751 10750 ] final  159.33 input  -60.55 | X-H torsion
[ 11005 11000 10999 10996 ] final   88.03 input  -57.11 | X-H torsion

> <Gold.Protein.ActiveResidues>
 VAL166  LYS551  ARG553  GLY616  TRP617  ASP618  TYR619  PRO620  LYS621  CYS622 
 ASP623  PHE694  ASN695  SER759  ASP760  ASP761  ALA762  ILE779  LEU786  VAL792 
 PHE793  MET794  SER795  GLU796  ALA797  LYS798  CYS799  TRP800  GLU811  SER814 

> <Gold.Protein.RotatedAtoms>
  152.0976  133.4233  159.4572 H   0  0  0  0  0  0  0  0  0  0  0  0  # atno 6907 bound_to 6896
  150.6863  134.2798  159.4631 H   0  0  0  0  0  0  0  0  0  0  0  0  # atno 6908 bound_to 6896
  152.0655  134.9566  160.0625 H   0  0  0  0  0  0  0  0  0  0  0  0  # atno 6909 bound_to 6896
  145.0604  139.3809  143.5008 H   0  0  0  0  0  0  0  0  0  0  0  0  # atno 7974 bound_to 7965
  155.3619  140.0483  157.3046 H   0  0  0  0  0  0  0  0  0  0  0  0  # atno 8008 bound_to 7997
  154.5174  140.2213  155.9004 H   0  0  0  0  0  0  0  0  0  0  0  0  # atno 8009 bound_to 7997
  156.1651  140.3108  155.8881 H   0  0  0  0  0  0  0  0  0  0  0  0  # atno 8010 bound_to 7997
  139.6691  144.7126  151.1722 H   0  0  0  0  0  0  0  0  0  0  0  0  # atno 10167 bound_to 10162
  156.2589  130.4195  149.8565 H   0  0  0  0  0  0  0  0  0  0  0  0  # atno 10718 bound_to 10713
  154.2301  135.2778  155.2893 H   0  0  0  0  0  0  0  0  0  0  0  0  # atno 10763 bound_to 10752
  154.5631  135.5641  153.7029 H   0  0  0  0  0  0  0  0  0  0  0  0  # atno 10764 bound_to 10752
  153.0022  135.6303  154.2442 H   0  0  0  0  0  0  0  0  0  0  0  0  # atno 10765 bound_to 10752
  139.8905  134.8461  156.2944 H   0  0  0  0  0  0  0  0  0  0  0  0  # atno 11005 bound_to 11000
  146.3524  140.0300  142.8651 LP  0  0  0  0  0  0  0  0  0  0  0  0  # atno 17320 bound_to 7965
  145.1415  140.9574  143.4485 LP  0  0  0  0  0  0  0  0  0  0  0  0  # atno 17321 bound_to 7965
  140.7611  143.5873  150.8833 LP  0  0  0  0  0  0  0  0  0  0  0  0  # atno 17342 bound_to 10162
  139.9536  143.6243  152.3022 LP  0  0  0  0  0  0  0  0  0  0  0  0  # atno 17343 bound_to 10162
  156.6087  130.8577  151.3449 LP  0  0  0  0  0  0  0  0  0  0  0  0  # atno 17370 bound_to 10713
  157.7243  130.9601  150.1567 LP  0  0  0  0  0  0  0  0  0  0  0  0  # atno 17371 bound_to 10713
  140.9955  133.7183  156.0879 LP  0  0  0  0  0  0  0  0  0  0  0  0  # atno 17394 bound_to 11000
  140.7568  134.3984  157.5532 LP  0  0  0  0  0  0  0  0  0  0  0  0  # atno 17395 bound_to 11000

$$$$
