AV-unprocessed.smi:603|AV-procd|sdf|3036|dock3
  -GOLD-   2262023553D 1   1.00000     0.00000
 Structure written by MMmdl.
 35 36  0  0  0  0  0  0  0  0  1 V2000
  149.9098  139.9876  154.9608 O   0  0  0  0  0  0  0  0  0  0  0  0
  149.3949  141.1059  154.8983 C   0  0  0  0  0  0  0  0  0  0  0  0
  148.3074  141.3603  153.8487 C   0  0  0  0  0  0  0  0  0  0  0  0
  147.0757  141.8783  154.4596 N   0  0  0  0  0  0  0  0  0  0  0  0
  146.5409  142.9740  153.8043 N   0  0  0  0  0  0  0  0  0  0  0  0
  145.4554  143.5101  154.2448 C   0  0  0  0  0  0  0  0  0  0  0  0
  144.7674  143.0075  155.4131 C   0  0  0  0  0  0  0  0  0  0  0  0
  143.3136  143.7674  155.9574 Cl  0  0  0  0  0  0  0  0  0  0  0  0
  145.3021  141.9362  156.0513 C   0  0  0  0  0  0  0  0  0  0  0  0
  144.5362  141.2780  157.4564 Cl  0  0  0  0  0  0  0  0  0  0  0  0
  146.5390  141.2994  155.5777 C   0  0  0  0  0  0  0  0  0  0  0  0
  147.0550  140.3268  156.1297 O   0  0  0  0  0  0  0  0  0  0  0  0
  149.6955  142.1623  155.6889 N   0  0  0  0  0  0  0  0  0  0  0  0
  150.5787  142.2894  156.7069 C   0  0  0  0  0  0  0  0  0  0  0  0
  151.2765  141.3373  157.0523 O   0  0  0  0  0  0  0  0  0  0  0  0
  150.6504  143.4904  157.3115 N   0  0  0  0  0  0  0  0  0  0  0  0
  151.7107  143.9222  158.2179 C   0  0  0  0  0  0  0  0  0  0  0  0
  151.7187  143.0886  159.5149 C   0  0  0  0  0  0  0  0  0  0  0  0
  151.1843  144.0114  160.6101 C   0  0  0  0  0  0  0  0  0  0  0  0
  151.6323  145.4027  160.1743 C   0  0  0  0  0  0  0  0  0  0  0  0
  151.4952  145.3853  158.6508 C   0  0  0  0  0  0  0  0  0  0  0  0
  148.6791  142.0400  153.0794 H   0  0  0  0  0  0  0  0  0  0  0  0
  148.1027  140.4233  153.3270 H   0  0  0  0  0  0  0  0  0  0  0  0
  144.9973  144.3723  153.7598 H   0  0  0  0  0  0  0  0  0  0  0  0
  149.1657  142.9991  155.4915 H   0  0  0  0  0  0  0  0  0  0  0  0
  149.9120  144.1546  157.1261 H   0  0  0  0  0  0  0  0  0  0  0  0
  152.6775  143.8299  157.7193 H   0  0  0  0  0  0  0  0  0  0  0  0
  151.1439  142.1642  159.4435 H   0  0  0  0  0  0  0  0  0  0  0  0
  152.7455  142.8075  159.7523 H   0  0  0  0  0  0  0  0  0  0  0  0
  150.0944  143.9661  160.6303 H   0  0  0  0  0  0  0  0  0  0  0  0
  151.5493  143.7421  161.6016 H   0  0  0  0  0  0  0  0  0  0  0  0
  151.0489  146.1977  160.6396 H   0  0  0  0  0  0  0  0  0  0  0  0
  152.6776  145.5526  160.4479 H   0  0  0  0  0  0  0  0  0  0  0  0
  152.2019  146.0640  158.1723 H   0  0  0  0  0  0  0  0  0  0  0  0
  150.4932  145.7238  158.3814 H   0  0  0  0  0  0  0  0  0  0  0  0
  1  2  2  0  0  0  0
  2  3  1  0  0  0  0
  2 13  1  0  0  0  0
  3  4  1  0  0  0  0
  3 22  1  0  0  0  0
  3 23  1  0  0  0  0
  4 11  1  0  0  0  0
  4  5  1  0  0  0  0
  5  6  2  0  0  0  0
  6  7  1  0  0  0  0
  6 24  1  0  0  0  0
  7  8  1  0  0  0  0
  7  9  2  0  0  0  0
  9 10  1  0  0  0  0
  9 11  1  0  0  0  0
 11 12  2  0  0  0  0
 13 14  1  0  0  0  0
 13 25  1  0  0  0  0
 14 15  2  0  0  0  0
 14 16  1  0  0  0  0
 16 17  1  0  0  0  0
 16 26  1  0  0  0  0
 17 21  1  0  0  0  0
 17 18  1  0  0  0  0
 17 27  1  0  0  0  0
 18 19  1  0  0  0  0
 18 28  1  0  0  0  0
 18 29  1  0  0  0  0
 19 20  1  0  0  0  0
 19 30  1  0  0  0  0
 19 31  1  0  0  0  0
 20 21  1  0  0  0  0
 20 32  1  0  0  0  0
 20 33  1  0  0  0  0
 21 34  1  0  0  0  0
 21 35  1  0  0  0  0
M  END
> <s_m_source_file>
AV-unprocessed.smi

> <i_m_source_file_index>
603

> <i_lp_mmshare_version>
43012

> <i_f3d_flags>
0

> <s_epik_input>
W0NIMl0xW0NIMl1bQ0gyXVtDSDJdW0NIXTFbTkhdQyg9TylbTkhdQyg9TylbQ0gyXW4ybltjSF1jKENsKWMoQ2wpYzI9Tw==

> <s_epik_cmdline>
J2VwaWtfcHl0aG9uJywgJy1waCcsICc3LjAnLCAnLXRuJywgJzgnLCAnLW1hJywgJzIwMCcsICctbWV0YWxfYmluZGluZycsICctaW1hZScsICc8aW5maWxlLm1hZT4nLCAnLW9tYWUnLCAnPG91dGZpbGUubWFlPic=

> <r_lp_tautomer_probability>
1

> <r_epik_Ionization_Penalty>
3.28905e-05

> <r_epik_Ionization_Penalty_Charging>
2.24292e-11

> <r_epik_Ionization_Penalty_Neutral>
3.28905e-05

> <r_epik_State_Penalty>
-0

> <r_epik_Charging_Adjusted_Penalty>
2.24292e-11

> <i_epik_Tot_Q>
0

> <i_epik_Tot_abs_Q>
0

> <r_epik_Metal_State_Penalty>
-0

> <b_epik_Metal_Only>
0

> <s_lp_Force_Field>
OPLS_2005

> <r_lp_Energy>
36.9935

> <b_lp_Chiralities_Consistent>
1

> <s_lp_Variant>
AV-unprocessed.smi:603-1

> <Gold.Version>
5.8.1

> <Gold.Id.Protein>
6NUR|6NUR_protein|mol2

> <Gold.PLP.Fitness>
45.9605

> <Gold.PLP.PLP>
-40.7388

> <Gold.PLP.part.hbond>
-2.7411

> <Gold.PLP.part.metal>
0.0000

> <Gold.PLP.part.buried>
-4.2169

> <Gold.PLP.part.nonpolar>
-33.2569

> <Gold.PLP.part.repulsive>
0.4898

> <Gold.PLP.ligand.clash>
0.0000

> <Gold.PLP.ligand.torsion>
0.2422

> <Gold.PLP.Chemscore.Hbond>
1.8968

> <Gold.PLP.Chemscore.CHOScore>
0.0000

> <Gold.PLP.Chemscore.Metal>
0.0000

> <Gold.Chemscore.Hbonds>
donor molecule, donor type, donor heavy atom, donor atom, acceptor molecule, acceptor atom, score
      L1  H    13    25       P1  8028  1.00
      L1  H    16    26       P1  8028  0.78

> <Gold.PLP.Chemscore.Internal.Correction>
0.0159

> <Gold.Rescore>
     Score         DG    S(hbond)    S(metal)    S(lipo)     H(rot)  DE(clash)    DE(int)     intcor
     13.60     -16.91       1.85        0.00      81.01       1.65       0.25       3.07       ----

> <Gold.Chemscore.Fitness>
13.5963

> <Gold.Chemscore.DG>
-16.9082

> <Gold.Chemscore.ZeroCoef>
-5.4800

> <Gold.Chemscore.Hbond>
1.8517

> <Gold.Chemscore.Metal>
0.0000

> <Gold.Chemscore.Lipo>
81.0131

> <Gold.Chemscore.Internal_Hbond>
0.0000

> <Gold.Chemscore.DEClash>
0.2464

> <Gold.Chemscore.DEInternal>
3.0655

> <Gold.Chemscore.Rot>
1.6543

> <Gold.Chemscore.Internal.Correction>
   9.000000E+99

> <Gold.Chemscore.Hbonds>
donor molecule, donor type, donor heavy atom, donor atom, acceptor molecule, acceptor atom, score
      L1  H    13    25       P1  8028  0.96
      L1  H    16    26       P1  8028  0.58

> <Gold.Chemscore.Hbond.Weighted>
-6.1845

> <Gold.Chemscore.Metal.Weighted>
-0.0000

> <Gold.Chemscore.Lipo.Weighted>
-9.4785

> <Gold.Chemscore.Internal_Hbond.Weighted>
0.0000

> <Gold.Chemscore.DEClash.Weighted>
0.2464

> <Gold.Chemscore.DEInternal.Weighted>
3.0655

> <Gold.Chemscore.Rot.Weighted>
4.2349

> <Gold.Chemscore.Internal.Correction.Weighted>
   9.000000E+99

> <Gold.Protein.RotatedTorsions>
[ 6907 6896 6895 6894 ] final  162.94 input  -60.11 | X-H torsion
[ 7974 7965 7964 7962 ] final  152.33 input  175.53 | X-H torsion
[ 8008 7997 7996 7995 ] final   61.03 input   59.86 | X-H torsion
[ 10167 10162 10161 10158 ] final   57.35 input  -65.29 | X-H torsion
[ 10718 10713 10712 10709 ] final   62.00 input   66.30 | X-H torsion
[ 10763 10752 10751 10750 ] final  -47.89 input  -60.55 | X-H torsion
[ 11005 11000 10999 10996 ] final  143.82 input  -57.11 | X-H torsion

> <Gold.Protein.ActiveResidues>
 VAL166  LYS551  ARG553  GLY616  TRP617  ASP618  TYR619  PRO620  LYS621  CYS622 
 ASP623  PHE694  ASN695  SER759  ASP760  ASP761  ALA762  ILE779  LEU786  VAL792 
 PHE793  MET794  SER795  GLU796  ALA797  LYS798  CYS799  TRP800  GLU811  SER814 

> <Gold.Protein.RotatedAtoms>
  151.9327  133.3615  159.3936 H   0  0  0  0  0  0  0  0  0  0  0  0  # atno 6907 bound_to 6896
  150.7014  134.4520  159.5350 H   0  0  0  0  0  0  0  0  0  0  0  0  # atno 6908 bound_to 6896
  152.2164  134.8454  160.0542 H   0  0  0  0  0  0  0  0  0  0  0  0  # atno 6909 bound_to 6896
  144.8230  139.6655  143.6092 H   0  0  0  0  0  0  0  0  0  0  0  0  # atno 7974 bound_to 7965
  155.5918  140.3493  155.4568 H   0  0  0  0  0  0  0  0  0  0  0  0  # atno 8008 bound_to 7997
  156.0296  140.1271  157.0297 H   0  0  0  0  0  0  0  0  0  0  0  0  # atno 8009 bound_to 7997
  154.4347  140.1046  156.6066 H   0  0  0  0  0  0  0  0  0  0  0  0  # atno 8010 bound_to 7997
  140.1989  144.4009  150.6538 H   0  0  0  0  0  0  0  0  0  0  0  0  # atno 10167 bound_to 10162
  157.5869  130.9026  149.9532 H   0  0  0  0  0  0  0  0  0  0  0  0  # atno 10718 bound_to 10713
  154.0687  135.6607  153.4821 H   0  0  0  0  0  0  0  0  0  0  0  0  # atno 10763 bound_to 10752
  153.0399  135.5152  154.7588 H   0  0  0  0  0  0  0  0  0  0  0  0  # atno 10764 bound_to 10752
  154.6647  135.3020  154.9788 H   0  0  0  0  0  0  0  0  0  0  0  0  # atno 10765 bound_to 10752
  140.0584  134.9218  157.1141 H   0  0  0  0  0  0  0  0  0  0  0  0  # atno 11005 bound_to 11000
  146.2535  139.6251  142.9411 LP  0  0  0  0  0  0  0  0  0  0  0  0  # atno 17320 bound_to 7965
  145.5064  141.0436  143.2512 LP  0  0  0  0  0  0  0  0  0  0  0  0  # atno 17321 bound_to 7965
  140.6404  143.2202  151.6302 LP  0  0  0  0  0  0  0  0  0  0  0  0  # atno 17342 bound_to 10162
  139.5225  144.3160  152.0952 LP  0  0  0  0  0  0  0  0  0  0  0  0  # atno 17343 bound_to 10162
  156.0919  130.3662  150.0379 LP  0  0  0  0  0  0  0  0  0  0  0  0  # atno 17370 bound_to 10713
  156.8509  130.9458  151.3625 LP  0  0  0  0  0  0  0  0  0  0  0  0  # atno 17371 bound_to 10713
  140.3808  134.2289  155.7171 LP  0  0  0  0  0  0  0  0  0  0  0  0  # atno 17394 bound_to 11000
  141.1962  133.8087  157.0681 LP  0  0  0  0  0  0  0  0  0  0  0  0  # atno 17395 bound_to 11000

$$$$
