AV-unprocessed.smi:3078|AV-procd|sdf|11736|dock5
  -GOLD-   2272017133D 1   1.00000     0.00000
 Structure written by MMmdl.
 24 24  0  0  0  0  0  0  0  0  3 V2000
  151.6062  138.3637  154.7657 C   0  0  0  0  0  0  0  0  0  0  0  0
  150.3261  138.9828  154.4955 N   0  0  0  0  0  0  0  0  0  0  0  0
  149.1351  138.3830  154.1488 C   0  0  0  0  0  0  0  0  0  0  0  0
  148.2026  139.3735  153.9986 C   0  0  0  0  0  0  0  0  0  0  0  0
  146.7448  139.2691  153.6264 C   0  0  1  0  0  0  0  0  0  0  0  0
  146.1188  140.6009  153.7138 N   0  3  0  0  0  0  0  0  0  0  0  0
  146.5322  138.6543  152.2288 C   0  0  0  0  0  0  0  0  0  0  0  0
  145.1175  138.3156  151.9842 N   0  3  0  0  0  0  0  0  0  0  0  0
  148.9399  140.5606  154.2765 C   0  0  0  0  0  0  0  0  0  0  0  0
  150.2053  140.3231  154.5764 N   0  0  0  0  0  0  0  0  0  0  0  0
  151.5730  137.3050  154.5062 H   0  0  0  0  0  0  0  0  0  0  0  0
  151.8467  138.4626  155.8245 H   0  0  0  0  0  0  0  0  0  0  0  0
  152.3847  138.8478  154.1749 H   0  0  0  0  0  0  0  0  0  0  0  0
  149.0525  137.3115  154.0390 H   0  0  0  0  0  0  0  0  0  0  0  0
  146.2225  138.6442  154.3524 H   0  0  0  0  0  0  0  0  0  0  0  0
  146.7475  141.2933  153.3311 H   0  0  0  0  0  0  0  0  0  0  0  0
  145.9248  140.8248  154.6795 H   0  0  0  0  0  0  0  0  0  0  0  0
  146.8465  139.3584  151.4575 H   0  0  0  0  0  0  0  0  0  0  0  0
  147.1379  137.7560  152.1026 H   0  0  0  0  0  0  0  0  0  0  0  0
  144.9045  137.4239  152.4089 H   0  0  0  0  0  0  0  0  0  0  0  0
  144.9458  138.2607  150.9901 H   0  0  0  0  0  0  0  0  0  0  0  0
  148.5930  141.5835  154.2717 H   0  0  0  0  0  0  0  0  0  0  0  0
  144.5239  139.0273  152.3869 H   0  0  0  0  0  0  0  0  0  0  0  0
  145.2569  140.6086  153.1871 H   0  0  0  0  0  0  0  0  0  0  0  0
  1  2  1  0  0  0  0
  1 11  1  0  0  0  0
  1 12  1  0  0  0  0
  1 13  1  0  0  0  0
  2 10  1  0  0  0  0
  2  3  1  0  0  0  0
  3  4  2  0  0  0  0
  3 14  1  0  0  0  0
  4  5  1  0  0  0  0
  4  9  1  0  0  0  0
  5  6  1  0  0  0  0
  5  7  1  0  0  0  0
  5 15  1  0  0  0  0
  6 16  1  0  0  0  0
  6 17  1  0  0  0  0
  6 24  1  0  0  0  0
  7  8  1  0  0  0  0
  7 18  1  0  0  0  0
  7 19  1  0  0  0  0
  8 20  1  0  0  0  0
  8 21  1  0  0  0  0
  8 23  1  0  0  0  0
  9 10  2  0  0  0  0
  9 22  1  0  0  0  0
M  CHG  1   6   1
M  CHG  1   8   1
M  END
> <s_m_source_file>
AV-unprocessed.smi

> <i_m_source_file_index>
3078

> <i_lp_mmshare_version>
43012

> <i_f3d_flags>
0

> <s_epik_input>
W0NIM11uMVtjSF1jKFtjSF1uMSlbQ0BIXShbTkgyXSlbQ0gyXVtOSDJd

> <s_epik_cmdline>
J2VwaWtfcHl0aG9uJywgJy1waCcsICc3LjAnLCAnLXRuJywgJzgnLCAnLW1hJywgJzIwMCcsICctbWV0YWxfYmluZGluZycsICctaW1hZScsICc8aW5maWxlLm1hZT4nLCAnLW9tYWUnLCAnPG91dGZpbGUubWFlPic=

> <r_lp_tautomer_probability>
1

> <r_epik_Ionization_Penalty>
2.39325

> <r_epik_Ionization_Penalty_Charging>
2.39325

> <r_epik_Ionization_Penalty_Neutral>
1.68997e-07

> <r_epik_State_Penalty>
1.77229

> <r_epik_Charging_Adjusted_Penalty>
4.16555

> <i_epik_Tot_Q>
2

> <i_epik_Tot_abs_Q>
2

> <r_epik_Metal_State_Penalty>
1.77233

> <b_epik_Metal_Only>
0

> <s_lp_Force_Field>
OPLS_2005

> <r_lp_Energy>
8.51806

> <b_lp_Chiralities_Consistent>
1

> <s_lp_Variant>
AV-unprocessed.smi:3078-6

> <Gold.Version>
5.8.1

> <Gold.Id.Protein>
6NUR|6NUR_protein|mol2

> <Gold.PLP.Fitness>
41.3759

> <Gold.PLP.PLP>
-20.7955

> <Gold.PLP.part.hbond>
-4.0000

> <Gold.PLP.part.metal>
0.0000

> <Gold.PLP.part.buried>
-1.3995

> <Gold.PLP.part.nonpolar>
-17.0438

> <Gold.PLP.part.repulsive>
0.1330

> <Gold.PLP.ligand.clash>
0.0000

> <Gold.PLP.ligand.torsion>
0.0790

> <Gold.PLP.Chemscore.Hbond>
5.9920

> <Gold.PLP.Chemscore.CHOScore>
0.9152

> <Gold.PLP.Chemscore.Metal>
0.0000

> <Gold.Chemscore.Hbonds>
donor molecule, donor type, donor heavy atom, donor atom, acceptor molecule, acceptor atom, score
      L1  H     6    24       P1 10175  2.00
      L1  H     8    21       P1 10171  0.90
      L1  H     8    23       P1 10175  2.00
      P1  H  7989  7998       L1    10  1.00
      L1  C     3    14       P1  7948  0.84

> <Gold.PLP.Chemscore.Internal.Correction>
0.0169

> <Gold.Rescore>
     Score         DG    S(hbond)    S(metal)    S(lipo)     H(rot)  DE(clash)    DE(int)     intcor
     18.42     -18.64       3.63        0.00      40.30       1.43       0.06       0.17       ----

> <Gold.Chemscore.Fitness>
18.4186

> <Gold.Chemscore.DG>
-18.6413

> <Gold.Chemscore.ZeroCoef>
-5.4800

> <Gold.Chemscore.Hbond>
3.6253

> <Gold.Chemscore.Metal>
0.0000

> <Gold.Chemscore.Lipo>
40.2963

> <Gold.Chemscore.Internal_Hbond>
0.0000

> <Gold.Chemscore.DEClash>
0.0576

> <Gold.Chemscore.DEInternal>
0.1650

> <Gold.Chemscore.Rot>
1.4304

> <Gold.Chemscore.Internal.Correction>
   9.000000E+99

> <Gold.Chemscore.Hbonds>
donor molecule, donor type, donor heavy atom, donor atom, acceptor molecule, acceptor atom, score
      L1  H     6    24       P1 10175  0.88
      L1  H     8    21       P1 10171  0.86
      L1  H     8    23       P1 10175  0.99
      P1  H  7989  7998       L1    10  0.28

> <Gold.Chemscore.Hbond.Weighted>
-12.1084

> <Gold.Chemscore.Metal.Weighted>
-0.0000

> <Gold.Chemscore.Lipo.Weighted>
-4.7147

> <Gold.Chemscore.Internal_Hbond.Weighted>
0.0000

> <Gold.Chemscore.DEClash.Weighted>
0.0576

> <Gold.Chemscore.DEInternal.Weighted>
0.1650

> <Gold.Chemscore.Rot.Weighted>
3.6618

> <Gold.Chemscore.Internal.Correction.Weighted>
   9.000000E+99

> <Gold.Protein.RotatedTorsions>
[ 6907 6896 6895 6894 ] final  -54.19 input  -60.11 | X-H torsion
[ 7974 7965 7964 7962 ] final  150.29 input  175.53 | X-H torsion
[ 8008 7997 7996 7995 ] final   66.22 input   59.86 | X-H torsion
[ 10167 10162 10161 10158 ] final   16.57 input  -65.29 | X-H torsion
[ 10718 10713 10712 10709 ] final   78.87 input   66.30 | X-H torsion
[ 10763 10752 10751 10750 ] final -157.81 input  -60.55 | X-H torsion
[ 11005 11000 10999 10996 ] final  -27.72 input  -57.11 | X-H torsion

> <Gold.Protein.ActiveResidues>
 VAL166  LYS551  ARG553  GLY616  TRP617  ASP618  TYR619  PRO620  LYS621  CYS622 
 ASP623  PHE694  ASN695  SER759  ASP760  ASP761  ALA762  ILE779  LEU786  VAL792 
 PHE793  MET794  SER795  GLU796  ALA797  LYS798  CYS799  TRP800  GLU811  SER814 

> <Gold.Protein.RotatedAtoms>
  150.8360  134.7633  159.6892 H   0  0  0  0  0  0  0  0  0  0  0  0  # atno 6907 bound_to 6896
  152.4456  134.5498  159.9873 H   0  0  0  0  0  0  0  0  0  0  0  0  # atno 6908 bound_to 6896
  151.5648  133.3360  159.3014 H   0  0  0  0  0  0  0  0  0  0  0  0  # atno 6909 bound_to 6896
  144.8375  139.6390  143.6031 H   0  0  0  0  0  0  0  0  0  0  0  0  # atno 7974 bound_to 7965
  155.6739  140.3497  155.4829 H   0  0  0  0  0  0  0  0  0  0  0  0  # atno 8008 bound_to 7997
  155.9664  140.1147  157.0873 H   0  0  0  0  0  0  0  0  0  0  0  0  # atno 8009 bound_to 7997
  154.4155  140.1165  156.5234 H   0  0  0  0  0  0  0  0  0  0  0  0  # atno 8010 bound_to 7997
  140.5788  143.9022  150.6772 H   0  0  0  0  0  0  0  0  0  0  0  0  # atno 10167 bound_to 10162
  157.6759  130.9888  150.1850 H   0  0  0  0  0  0  0  0  0  0  0  0  # atno 10718 bound_to 10713
  154.7607  135.3117  154.8384 H   0  0  0  0  0  0  0  0  0  0  0  0  # atno 10763 bound_to 10752
  153.9146  135.6802  153.4754 H   0  0  0  0  0  0  0  0  0  0  0  0  # atno 10764 bound_to 10752
  153.1207  135.4824  154.9122 H   0  0  0  0  0  0  0  0  0  0  0  0  # atno 10765 bound_to 10752
  140.9144  133.7439  156.0715 H   0  0  0  0  0  0  0  0  0  0  0  0  # atno 11005 bound_to 11000
  146.2672  139.6547  142.9321 LP  0  0  0  0  0  0  0  0  0  0  0  0  # atno 17320 bound_to 7965
  145.4764  141.0437  143.2670 LP  0  0  0  0  0  0  0  0  0  0  0  0  # atno 17321 bound_to 7965
  140.2515  143.3589  152.1401 LP  0  0  0  0  0  0  0  0  0  0  0  0  # atno 17342 bound_to 10162
  139.5157  144.6967  151.5609 LP  0  0  0  0  0  0  0  0  0  0  0  0  # atno 17343 bound_to 10162
  156.2574  130.3707  149.8167 LP  0  0  0  0  0  0  0  0  0  0  0  0  # atno 17370 bound_to 10713
  156.5922  130.8511  151.3411 LP  0  0  0  0  0  0  0  0  0  0  0  0  # atno 17371 bound_to 10713
  140.8069  134.3445  157.5423 LP  0  0  0  0  0  0  0  0  0  0  0  0  # atno 17394 bound_to 11000
  139.8763  134.9231  156.3316 LP  0  0  0  0  0  0  0  0  0  0  0  0  # atno 17395 bound_to 11000

$$$$
