AV-unprocessed.smi:668|AV-procd|sdf|3260|dock8
  -GOLD-   22720 0213D 1   1.00000     0.00000
 Structure written by MMmdl.
 38 39  0  0  0  0  0  0  0  0  1 V2000
  150.0215  142.2113  157.8140 C   0  0  0  0  0  0  0  0  0  0  0  0
  150.6709  141.5814  156.7152 O   0  0  0  0  0  0  0  0  0  0  0  0
  149.9428  140.7022  155.9401 C   0  0  0  0  0  0  0  0  0  0  0  0
  148.7209  140.2130  156.4428 C   0  0  0  0  0  0  0  0  0  0  0  0
  147.9727  139.3129  155.6603 C   0  0  0  0  0  0  0  0  0  0  0  0
  148.4692  138.9342  154.3896 C   0  0  0  0  0  0  0  0  0  0  0  0
  147.8253  138.0243  153.5066 N   0  0  0  0  0  0  0  0  0  0  0  0
  146.5238  137.6994  153.4243 C   0  0  0  0  0  0  0  0  0  0  0  0
  145.6213  138.1751  154.1123 O   0  0  0  0  0  0  0  0  0  0  0  0
  146.3172  136.7747  152.4762 N   0  0  0  0  0  0  0  0  0  0  0  0
  145.0171  136.1893  152.1437 C   0  0  1  0  0  0  0  0  0  0  0  0
  145.0486  135.5084  150.7626 C   0  0  0  0  0  0  0  0  0  0  0  0
  144.2495  134.2049  150.8910 C   0  0  0  0  0  0  0  0  0  0  0  0
  143.5966  134.2440  152.2758 C   0  0  0  0  0  0  0  0  0  0  0  0
  144.5099  135.1194  153.1468 C   0  0  1  0  0  0  0  0  0  0  0  0
  145.6152  134.2726  153.8153 C   0  0  0  0  0  0  0  0  0  0  0  0
  145.2164  133.2472  154.5719 N   0  0  0  0  0  0  0  0  0  0  0  0
  146.8057  134.5408  153.6607 O   0  0  0  0  0  0  0  0  0  0  0  0
  149.7067  139.4747  153.9834 C   0  0  0  0  0  0  0  0  0  0  0  0
  150.4293  140.3371  154.7285 N   0  0  0  0  0  0  0  0  0  0  0  0
  150.7275  142.8692  158.3205 H   0  0  0  0  0  0  0  0  0  0  0  0
  149.6695  141.4802  158.5433 H   0  0  0  0  0  0  0  0  0  0  0  0
  149.1799  142.8214  157.4831 H   0  0  0  0  0  0  0  0  0  0  0  0
  148.3650  140.5194  157.4154 H   0  0  0  0  0  0  0  0  0  0  0  0
  147.0475  138.9289  156.0590 H   0  0  0  0  0  0  0  0  0  0  0  0
  148.4311  137.5844  152.8292 H   0  0  0  0  0  0  0  0  0  0  0  0
  147.1141  136.4358  151.9572 H   0  0  0  0  0  0  0  0  0  0  0  0
  144.2749  136.9893  152.1006 H   0  0  0  0  0  0  0  0  0  0  0  0
  144.6183  136.1631  150.0037 H   0  0  0  0  0  0  0  0  0  0  0  0
  146.0683  135.2804  150.4481 H   0  0  0  0  0  0  0  0  0  0  0  0
  143.5105  134.0951  150.0967 H   0  0  0  0  0  0  0  0  0  0  0  0
  144.9263  133.3524  150.8235 H   0  0  0  0  0  0  0  0  0  0  0  0
  142.6149  134.7139  152.2020 H   0  0  0  0  0  0  0  0  0  0  0  0
  143.4406  133.2435  152.6822 H   0  0  0  0  0  0  0  0  0  0  0  0
  143.9245  135.5994  153.9331 H   0  0  0  0  0  0  0  0  0  0  0  0
  145.9001  132.6594  155.0264 H   0  0  0  0  0  0  0  0  0  0  0  0
  144.2304  133.0600  154.6822 H   0  0  0  0  0  0  0  0  0  0  0  0
  150.1328  139.2084  153.0269 H   0  0  0  0  0  0  0  0  0  0  0  0
  1  2  1  0  0  0  0
  1 21  1  0  0  0  0
  1 22  1  0  0  0  0
  1 23  1  0  0  0  0
  2  3  1  0  0  0  0
  3 20  1  0  0  0  0
  3  4  2  0  0  0  0
  4  5  1  0  0  0  0
  4 24  1  0  0  0  0
  5  6  2  0  0  0  0
  5 25  1  0  0  0  0
  6  7  1  0  0  0  0
  6 19  1  0  0  0  0
  7  8  1  0  0  0  0
  7 26  1  0  0  0  0
  8  9  2  0  0  0  0
  8 10  1  0  0  0  0
 10 11  1  0  0  0  0
 10 27  1  0  0  0  0
 11 15  1  0  0  0  0
 11 12  1  0  0  0  0
 11 28  1  0  0  0  0
 12 13  1  0  0  0  0
 12 29  1  0  0  0  0
 12 30  1  0  0  0  0
 13 14  1  0  0  0  0
 13 31  1  0  0  0  0
 13 32  1  0  0  0  0
 14 15  1  0  0  0  0
 14 33  1  0  0  0  0
 14 34  1  0  0  0  0
 15 16  1  0  0  0  0
 15 35  1  0  0  0  0
 16 17  1  0  0  0  0
 16 18  2  0  0  0  0
 17 36  1  0  0  0  0
 17 37  1  0  0  0  0
 19 20  2  0  0  0  0
 19 38  1  0  0  0  0
M  END
> <s_m_source_file>
AV-unprocessed.smi

> <i_m_source_file_index>
668

> <i_lp_mmshare_version>
43012

> <i_f3d_flags>
0

> <s_epik_input>
W0NIM11PYzFbY0hdW2NIXWMoW2NIXW4xKVtOSF1DKD1PKVtOSF1bQ0BASF0yW0NIMl1bQ0gyXVtDSDJdW0NASF0yQyg9TylbTkgyXQ==

> <s_epik_cmdline>
J2VwaWtfcHl0aG9uJywgJy1waCcsICc3LjAnLCAnLXRuJywgJzgnLCAnLW1hJywgJzIwMCcsICctbWV0YWxfYmluZGluZycsICctaW1hZScsICc8aW5maWxlLm1hZT4nLCAnLW9tYWUnLCAnPG91dGZpbGUubWFlPic=

> <r_lp_tautomer_probability>
1

> <r_epik_Ionization_Penalty>
9.0916e-05

> <r_epik_Ionization_Penalty_Charging>
0

> <r_epik_Ionization_Penalty_Neutral>
9.0916e-05

> <r_epik_State_Penalty>
-0

> <r_epik_Charging_Adjusted_Penalty>
0

> <i_epik_Tot_Q>
0

> <i_epik_Tot_abs_Q>
0

> <r_epik_Metal_State_Penalty>
-0

> <b_epik_Metal_Only>
0

> <s_lp_Force_Field>
OPLS_2005

> <r_lp_Energy>
16.947

> <b_lp_Chiralities_Consistent>
1

> <s_lp_Variant>
AV-unprocessed.smi:668-2

> <Gold.Version>
5.8.1

> <Gold.Id.Protein>
6NUR|6NUR_protein|mol2

> <Gold.PLP.Fitness>
36.6071

> <Gold.PLP.PLP>
-23.0008

> <Gold.PLP.part.hbond>
-4.0000

> <Gold.PLP.part.metal>
0.0000

> <Gold.PLP.part.buried>
-3.6024

> <Gold.PLP.part.nonpolar>
-16.6794

> <Gold.PLP.part.repulsive>
0.4219

> <Gold.PLP.ligand.clash>
0.0000

> <Gold.PLP.ligand.torsion>
0.6100

> <Gold.PLP.Chemscore.Hbond>
3.9920

> <Gold.PLP.Chemscore.CHOScore>
0.9431

> <Gold.PLP.Chemscore.Metal>
0.0000

> <Gold.Chemscore.Hbonds>
donor molecule, donor type, donor heavy atom, donor atom, acceptor molecule, acceptor atom, score
      L1  H     7    26       P1  7948  1.00
      L1  H    10    27       P1  7948  0.99
      L1  H    17    37       P1 10957  1.00
      P1  H  7989  7998       L1    20  1.00
      L1  C    19    38       P1  7957  0.94

> <Gold.PLP.Chemscore.Internal.Correction>
0.0210

> <Gold.Rescore>
     Score         DG    S(hbond)    S(metal)    S(lipo)     H(rot)  DE(clash)    DE(int)     intcor
     13.87     -18.43       3.62        0.00      48.16       1.86       1.40       3.16       ----

> <Gold.Chemscore.Fitness>
13.8652

> <Gold.Chemscore.DG>
-18.4315

> <Gold.Chemscore.ZeroCoef>
-5.4800

> <Gold.Chemscore.Hbond>
3.6199

> <Gold.Chemscore.Metal>
0.0000

> <Gold.Chemscore.Lipo>
48.1636

> <Gold.Chemscore.Internal_Hbond>
0.0000

> <Gold.Chemscore.DEClash>
1.4024

> <Gold.Chemscore.DEInternal>
3.1639

> <Gold.Chemscore.Rot>
1.8648

> <Gold.Chemscore.Internal.Correction>
   9.000000E+99

> <Gold.Chemscore.Hbonds>
donor molecule, donor type, donor heavy atom, donor atom, acceptor molecule, acceptor atom, score
      L1  H     7    26       P1  7948  0.98
      L1  H    10    27       P1  7948  0.93
      L1  H    17    37       P1 10957  0.88
      P1  H  7989  7998       L1    20  0.25

> <Gold.Chemscore.Hbond.Weighted>
-12.0903

> <Gold.Chemscore.Metal.Weighted>
-0.0000

> <Gold.Chemscore.Lipo.Weighted>
-5.6351

> <Gold.Chemscore.Internal_Hbond.Weighted>
0.0000

> <Gold.Chemscore.DEClash.Weighted>
1.4024

> <Gold.Chemscore.DEInternal.Weighted>
3.1639

> <Gold.Chemscore.Rot.Weighted>
4.7739

> <Gold.Chemscore.Internal.Correction.Weighted>
   9.000000E+99

> <Gold.Protein.RotatedTorsions>
[ 6907 6896 6895 6894 ] final  130.82 input  -60.11 | X-H torsion
[ 7974 7965 7964 7962 ] final  139.43 input  175.53 | X-H torsion
[ 8008 7997 7996 7995 ] final   10.68 input   59.86 | X-H torsion
[ 10167 10162 10161 10158 ] final    2.53 input  -65.29 | X-H torsion
[ 10718 10713 10712 10709 ] final    7.89 input   66.30 | X-H torsion
[ 10763 10752 10751 10750 ] final  -44.50 input  -60.55 | X-H torsion
[ 11005 11000 10999 10996 ] final  -42.92 input  -57.11 | X-H torsion

> <Gold.Protein.ActiveResidues>
 VAL166  LYS551  ARG553  GLY616  TRP617  ASP618  TYR619  PRO620  LYS621  CYS622 
 ASP623  PHE694  ASN695  SER759  ASP760  ASP761  ALA762  ILE779  LEU786  VAL792 
 PHE793  MET794  SER795  GLU796  ALA797  LYS798  CYS799  TRP800  GLU811  SER814 

> <Gold.Protein.RotatedAtoms>
  152.3488  133.6155  159.5929 H   0  0  0  0  0  0  0  0  0  0  0  0  # atno 6907 bound_to 6896
  150.7525  133.9606  159.3523 H   0  0  0  0  0  0  0  0  0  0  0  0  # atno 6908 bound_to 6896
  151.7461  135.0844  160.0374 H   0  0  0  0  0  0  0  0  0  0  0  0  # atno 6909 bound_to 6896
  144.9280  139.5083  143.5631 H   0  0  0  0  0  0  0  0  0  0  0  0  # atno 7974 bound_to 7965
  154.7967  140.2845  155.5951 H   0  0  0  0  0  0  0  0  0  0  0  0  # atno 8008 bound_to 7997
  156.2972  140.2594  156.2755 H   0  0  0  0  0  0  0  0  0  0  0  0  # atno 8009 bound_to 7997
  154.9606  140.0377  157.2177 H   0  0  0  0  0  0  0  0  0  0  0  0  # atno 8010 bound_to 7997
  140.6630  143.7253  150.7775 H   0  0  0  0  0  0  0  0  0  0  0  0  # atno 10167 bound_to 10162
  156.9436  130.5870  149.5653 H   0  0  0  0  0  0  0  0  0  0  0  0  # atno 10718 bound_to 10713
  154.0130  135.6679  153.4767 H   0  0  0  0  0  0  0  0  0  0  0  0  # atno 10763 bound_to 10752
  153.0612  135.5026  154.8094 H   0  0  0  0  0  0  0  0  0  0  0  0  # atno 10764 bound_to 10752
  154.6984  135.3074  154.9342 H   0  0  0  0  0  0  0  0  0  0  0  0  # atno 10765 bound_to 10752
  141.0348  133.6804  156.2661 H   0  0  0  0  0  0  0  0  0  0  0  0  # atno 11005 bound_to 11000
  146.3234  139.8209  142.8927 LP  0  0  0  0  0  0  0  0  0  0  0  0  # atno 17320 bound_to 7965
  145.3188  141.0239  143.3512 LP  0  0  0  0  0  0  0  0  0  0  0  0  # atno 17321 bound_to 7965
  140.0925  143.4864  152.2471 LP  0  0  0  0  0  0  0  0  0  0  0  0  # atno 17342 bound_to 10162
  139.5870  144.7535  151.3495 LP  0  0  0  0  0  0  0  0  0  0  0  0  # atno 17343 bound_to 10162
  156.0393  130.5477  150.8732 LP  0  0  0  0  0  0  0  0  0  0  0  0  # atno 17370 bound_to 10713
  157.5768  131.0946  150.9333 LP  0  0  0  0  0  0  0  0  0  0  0  0  # atno 17371 bound_to 10713
  140.6341  134.5233  157.5563 LP  0  0  0  0  0  0  0  0  0  0  0  0  # atno 17394 bound_to 11000
  139.9233  134.8105  156.1144 LP  0  0  0  0  0  0  0  0  0  0  0  0  # atno 17395 bound_to 11000

$$$$
