AV-unprocessed.smi:970|AV-procd|sdf|4291|dock10
  -GOLD-   22720 2193D 1   1.00000     0.00000
 Structure written by MMmdl.
 31 31  0  0  0  0  0  0  0  0  1 V2000
  152.8345  138.5243  155.1680 C   0  0  0  0  0  0  0  0  0  0  0  0
  152.0505  139.0614  156.2695 N   0  0  0  0  0  0  0  0  0  0  0  0
  151.1159  140.0132  156.1356 C   0  0  0  0  0  0  0  0  0  0  0  0
  150.8262  140.5240  155.0521 O   0  0  0  0  0  0  0  0  0  0  0  0
  150.3866  140.4361  157.4213 C   0  0  2  0  0  0  0  0  0  0  0  0
  149.0838  141.1456  157.0166 C   0  0  0  0  0  0  0  0  0  0  0  0
  151.1970  141.3858  158.1811 N   0  0  0  0  0  0  0  0  0  0  0  0
  152.4416  141.1596  158.6343 C   0  0  0  0  0  0  0  0  0  0  0  0
  153.0369  140.0971  158.4486 O   0  0  0  0  0  0  0  0  0  0  0  0
  153.1103  142.3162  159.3990 C   0  0  2  0  0  0  0  0  0  0  0  0
  153.4040  141.9772  160.8745 C   0  0  0  0  0  0  0  0  0  0  0  0
  152.3289  143.5415  159.2755 N   0  0  0  0  0  0  0  0  0  0  0  0
  152.6043  144.6733  158.6237 C   0  0  0  0  0  0  0  0  0  0  0  0
  151.6418  145.5821  158.6924 N   0  0  0  0  0  0  0  0  0  0  0  0
  150.7346  144.8966  159.4495 C   0  0  0  0  0  0  0  0  0  0  0  0
  151.0933  143.6679  159.8208 N   0  0  0  0  0  0  0  0  0  0  0  0
  153.5512  137.7937  155.5426 H   0  0  0  0  0  0  0  0  0  0  0  0
  153.3882  139.3159  154.6611 H   0  0  0  0  0  0  0  0  0  0  0  0
  152.1904  138.0286  154.4405 H   0  0  0  0  0  0  0  0  0  0  0  0
  152.2306  138.6891  157.1908 H   0  0  0  0  0  0  0  0  0  0  0  0
  150.1540  139.5626  158.0338 H   0  0  0  0  0  0  0  0  0  0  0  0
  148.4298  140.4801  156.4516 H   0  0  0  0  0  0  0  0  0  0  0  0
  149.2731  142.0274  156.4022 H   0  0  0  0  0  0  0  0  0  0  0  0
  148.5296  141.4720  157.8972 H   0  0  0  0  0  0  0  0  0  0  0  0
  150.7822  142.2873  158.3667 H   0  0  0  0  0  0  0  0  0  0  0  0
  154.0694  142.4968  158.9109 H   0  0  0  0  0  0  0  0  0  0  0  0
  154.0553  141.1064  160.9578 H   0  0  0  0  0  0  0  0  0  0  0  0
  152.4919  141.7637  161.4331 H   0  0  0  0  0  0  0  0  0  0  0  0
  153.9075  142.8076  161.3698 H   0  0  0  0  0  0  0  0  0  0  0  0
  153.5260  144.8338  158.0839 H   0  0  0  0  0  0  0  0  0  0  0  0
  149.7791  145.3137  159.7311 H   0  0  0  0  0  0  0  0  0  0  0  0
  1  2  1  0  0  0  0
  1 17  1  0  0  0  0
  1 18  1  0  0  0  0
  1 19  1  0  0  0  0
  2  3  1  0  0  0  0
  2 20  1  0  0  0  0
  3  4  2  0  0  0  0
  3  5  1  0  0  0  0
  5  6  1  0  0  0  0
  5  7  1  0  0  0  0
  5 21  1  0  0  0  0
  6 22  1  0  0  0  0
  6 23  1  0  0  0  0
  6 24  1  0  0  0  0
  7  8  1  0  0  0  0
  7 25  1  0  0  0  0
  8  9  2  0  0  0  0
  8 10  1  0  0  0  0
 10 11  1  0  0  0  0
 10 12  1  0  0  0  0
 10 26  1  0  0  0  0
 11 27  1  0  0  0  0
 11 28  1  0  0  0  0
 11 29  1  0  0  0  0
 12 16  1  0  0  0  0
 12 13  1  0  0  0  0
 13 14  2  0  0  0  0
 13 30  1  0  0  0  0
 14 15  1  0  0  0  0
 15 16  2  0  0  0  0
 15 31  1  0  0  0  0
M  END
> <s_m_source_file>
AV-unprocessed.smi

> <i_m_source_file_index>
970

> <i_lp_mmshare_version>
43012

> <i_f3d_flags>
0

> <s_epik_input>
W0NIM11bTkhdQyg9TylbQ0BIXShbQ0gzXSlbTkhdQyg9TylbQ0BIXShbQ0gzXSluMVtjSF1uW2NIXW4x

> <s_epik_cmdline>
J2VwaWtfcHl0aG9uJywgJy1waCcsICc3LjAnLCAnLXRuJywgJzgnLCAnLW1hJywgJzIwMCcsICctbWV0YWxfYmluZGluZycsICctaW1hZScsICc8aW5maWxlLm1hZT4nLCAnLW9tYWUnLCAnPG91dGZpbGUubWFlPic=

> <r_lp_tautomer_probability>
1

> <r_epik_Ionization_Penalty>
1.07271e-05

> <r_epik_Ionization_Penalty_Charging>
0

> <r_epik_Ionization_Penalty_Neutral>
1.07271e-05

> <r_epik_State_Penalty>
-0

> <r_epik_Charging_Adjusted_Penalty>
0

> <i_epik_Tot_Q>
0

> <i_epik_Tot_abs_Q>
0

> <r_epik_Metal_State_Penalty>
-0

> <b_epik_Metal_Only>
0

> <s_lp_Force_Field>
OPLS_2005

> <r_lp_Energy>
8.61602

> <b_lp_Chiralities_Consistent>
1

> <s_lp_Variant>
AV-unprocessed.smi:970-1

> <Gold.Version>
5.8.1

> <Gold.Id.Protein>
6NUR|6NUR_protein|mol2

> <Gold.PLP.Fitness>
39.2029

> <Gold.PLP.PLP>
-34.9022

> <Gold.PLP.part.hbond>
-3.3084

> <Gold.PLP.part.metal>
0.0000

> <Gold.PLP.part.buried>
-4.3478

> <Gold.PLP.part.nonpolar>
-27.0960

> <Gold.PLP.part.repulsive>
0.5122

> <Gold.PLP.ligand.clash>
0.0000

> <Gold.PLP.ligand.torsion>
0.7373

> <Gold.PLP.Chemscore.Hbond>
1.8880

> <Gold.PLP.Chemscore.CHOScore>
0.0000

> <Gold.PLP.Chemscore.Metal>
0.0000

> <Gold.Chemscore.Hbonds>
donor molecule, donor type, donor heavy atom, donor atom, acceptor molecule, acceptor atom, score
      P1  H  7989  7998       L1     4  1.00
      P1  H  7997  8009       L1     9  0.83

> <Gold.PLP.Chemscore.Internal.Correction>
0.1113

> <Gold.Rescore>
     Score         DG    S(hbond)    S(metal)    S(lipo)     H(rot)  DE(clash)    DE(int)     intcor
      6.27      -9.76       1.95        0.00      37.44       2.59       0.02       3.48       ----

> <Gold.Chemscore.Fitness>
6.2677

> <Gold.Chemscore.DG>
-9.7603

> <Gold.Chemscore.ZeroCoef>
-5.4800

> <Gold.Chemscore.Hbond>
1.9513

> <Gold.Chemscore.Metal>
0.0000

> <Gold.Chemscore.Lipo>
37.4444

> <Gold.Chemscore.Internal_Hbond>
0.0000

> <Gold.Chemscore.DEClash>
0.0163

> <Gold.Chemscore.DEInternal>
3.4763

> <Gold.Chemscore.Rot>
2.5852

> <Gold.Chemscore.Internal.Correction>
   9.000000E+99

> <Gold.Chemscore.Hbonds>
donor molecule, donor type, donor heavy atom, donor atom, acceptor molecule, acceptor atom, score
      P1  H  7989  7998       L1     4  0.94
      P1  H  7997  8009       L1     9  0.74

> <Gold.Chemscore.Hbond.Weighted>
-6.5175

> <Gold.Chemscore.Metal.Weighted>
-0.0000

> <Gold.Chemscore.Lipo.Weighted>
-4.3810

> <Gold.Chemscore.Internal_Hbond.Weighted>
0.0000

> <Gold.Chemscore.DEClash.Weighted>
0.0163

> <Gold.Chemscore.DEInternal.Weighted>
3.4763

> <Gold.Chemscore.Rot.Weighted>
6.6182

> <Gold.Chemscore.Internal.Correction.Weighted>
   9.000000E+99

> <Gold.Protein.RotatedTorsions>
[ 6907 6896 6895 6894 ] final  -30.20 input  -60.11 | X-H torsion
[ 7974 7965 7964 7962 ] final   32.34 input  175.53 | X-H torsion
[ 8008 7997 7996 7995 ] final  153.04 input   59.86 | X-H torsion
[ 10167 10162 10161 10158 ] final    1.70 input  -65.29 | X-H torsion
[ 10718 10713 10712 10709 ] final -106.32 input   66.30 | X-H torsion
[ 10763 10752 10751 10750 ] final   -4.93 input  -60.55 | X-H torsion
[ 11005 11000 10999 10996 ] final -140.35 input  -57.11 | X-H torsion

> <Gold.Protein.ActiveResidues>
 VAL166  LYS551  ARG553  GLY616  TRP617  ASP618  TYR619  PRO620  LYS621  CYS622 
 ASP623  PHE694  ASN695  SER759  ASP760  ASP761  ALA762  ILE779  LEU786  VAL792 
 PHE793  MET794  SER795  GLU796  ALA797  LYS798  CYS799  TRP800  GLU811  SER814 

> <Gold.Protein.RotatedAtoms>
  151.1088  135.0014  159.8483 H   0  0  0  0  0  0  0  0  0  0  0  0  # atno 6907 bound_to 6896
  152.5442  134.1861  159.8665 H   0  0  0  0  0  0  0  0  0  0  0  0  # atno 6908 bound_to 6896
  151.1910  133.4623  159.2628 H   0  0  0  0  0  0  0  0  0  0  0  0  # atno 6909 bound_to 6896
  146.1492  139.6539  142.9110 H   0  0  0  0  0  0  0  0  0  0  0  0  # atno 7974 bound_to 7965
  156.2601  140.2004  156.6428 H   0  0  0  0  0  0  0  0  0  0  0  0  # atno 8008 bound_to 7997
  154.6596  140.0562  157.0072 H   0  0  0  0  0  0  0  0  0  0  0  0  # atno 8009 bound_to 7997
  155.1295  140.3232  155.4480 H   0  0  0  0  0  0  0  0  0  0  0  0  # atno 8010 bound_to 7997
  140.6670  143.7151  150.7847 H   0  0  0  0  0  0  0  0  0  0  0  0  # atno 10167 bound_to 10162
  156.0385  130.5607  150.7663 H   0  0  0  0  0  0  0  0  0  0  0  0  # atno 10718 bound_to 10713
  153.3916  135.7002  153.6490 H   0  0  0  0  0  0  0  0  0  0  0  0  # atno 10763 bound_to 10752
  153.5060  135.3642  155.2564 H   0  0  0  0  0  0  0  0  0  0  0  0  # atno 10764 bound_to 10752
  154.8703  135.4123  154.3234 H   0  0  0  0  0  0  0  0  0  0  0  0  # atno 10765 bound_to 10752
  140.8431  134.2377  157.4800 H   0  0  0  0  0  0  0  0  0  0  0  0  # atno 11005 bound_to 11000
  145.4863  141.0438  143.2618 LP  0  0  0  0  0  0  0  0  0  0  0  0  # atno 17320 bound_to 7965
  144.7884  139.6379  143.7124 LP  0  0  0  0  0  0  0  0  0  0  0  0  # atno 17321 bound_to 7965
  140.0830  143.4950  152.2520 LP  0  0  0  0  0  0  0  0  0  0  0  0  # atno 17342 bound_to 10162
  139.5923  144.7554  151.3370 LP  0  0  0  0  0  0  0  0  0  0  0  0  # atno 17343 bound_to 10162
  157.5169  131.0929  151.0128 LP  0  0  0  0  0  0  0  0  0  0  0  0  # atno 17370 bound_to 10713
  157.0468  130.5771  149.5364 LP  0  0  0  0  0  0  0  0  0  0  0  0  # atno 17371 bound_to 10713
  139.8703  134.9645  156.4499 LP  0  0  0  0  0  0  0  0  0  0  0  0  # atno 17394 bound_to 11000
  140.8873  133.7874  155.9533 LP  0  0  0  0  0  0  0  0  0  0  0  0  # atno 17395 bound_to 11000

$$$$
