AV-unprocessed.smi:1055|AV-procd|sdf|4624|dock4
  -GOLD-   22720 3123D 1   1.00000     0.00000
 Structure written by MMmdl.
 52 53  0  0  0  0  0  0  0  0  3 V2000
  145.8210  129.1693  151.5280 C   0  0  0  0  0  0  0  0  0  0  0  0
  147.0297  128.6706  151.8366 C   0  0  0  0  0  0  0  0  0  0  0  0
  147.7602  127.7086  150.9183 C   0  0  0  0  0  0  0  0  0  0  0  0
  147.7461  129.0306  153.1288 C   0  0  0  0  0  0  0  0  0  0  0  0
  148.1017  130.4707  153.1777 N   0  3  2  0  0  0  0  0  0  0  0  0
  149.1852  130.7500  154.1534 C   0  0  0  0  0  0  0  0  0  0  0  0
  149.6423  132.2157  154.0682 C   0  0  0  0  0  0  0  0  0  0  0  0
  148.4617  133.1822  154.2810 C   0  0  1  0  0  0  0  0  0  0  0  0
  148.8804  134.5684  154.0907 N   0  0  0  0  0  0  0  0  0  0  0  0
  149.2288  135.4120  155.0731 C   0  0  0  0  0  0  0  0  0  0  0  0
  149.2386  135.0970  156.2624 O   0  0  0  0  0  0  0  0  0  0  0  0
  149.5726  136.6153  154.5808 N   0  0  0  0  0  0  0  0  0  0  0  0
  150.0003  137.7784  155.2787 C   0  0  0  0  0  0  0  0  0  0  0  0
  149.7930  139.0272  154.6562 C   0  0  0  0  0  0  0  0  0  0  0  0
  150.1878  140.2132  155.3083 C   0  0  0  0  0  0  0  0  0  0  0  0
  150.7874  140.1467  156.5898 C   0  0  0  0  0  0  0  0  0  0  0  0
  151.2083  141.2877  157.3068 N   0  0  0  0  0  0  0  0  0  0  0  0
  150.8990  142.6188  156.7965 C   0  0  0  0  0  0  0  0  0  0  0  0
  151.8424  141.1308  158.6095 C   0  0  0  0  0  0  0  0  0  0  0  0
  150.9580  138.9250  157.1516 N   0  3  0  0  0  0  0  0  0  0  0  0
  150.5951  137.7648  156.5632 C   0  0  0  0  0  0  0  0  0  0  0  0
  147.3328  132.8406  153.2944 C   0  0  0  0  0  0  0  0  0  0  0  0
  146.9295  131.3597  153.3939 C   0  0  0  0  0  0  0  0  0  0  0  0
  145.3228  128.9027  150.6071 H   0  0  0  0  0  0  0  0  0  0  0  0
  145.3095  129.8522  152.1905 H   0  0  0  0  0  0  0  0  0  0  0  0
  147.9694  126.7736  151.4387 H   0  0  0  0  0  0  0  0  0  0  0  0
  148.7064  128.1369  150.5870 H   0  0  0  0  0  0  0  0  0  0  0  0
  147.1675  127.4767  150.0326 H   0  0  0  0  0  0  0  0  0  0  0  0
  147.1368  128.7703  153.9961 H   0  0  0  0  0  0  0  0  0  0  0  0
  148.6487  128.4205  153.1853 H   0  0  0  0  0  0  0  0  0  0  0  0
  148.8377  130.5207  155.1621 H   0  0  0  0  0  0  0  0  0  0  0  0
  150.0367  130.0979  153.9551 H   0  0  0  0  0  0  0  0  0  0  0  0
  150.4199  132.3977  154.8110 H   0  0  0  0  0  0  0  0  0  0  0  0
  150.0988  132.3963  153.0937 H   0  0  0  0  0  0  0  0  0  0  0  0
  148.0790  133.0619  155.2966 H   0  0  0  0  0  0  0  0  0  0  0  0
  148.9023  134.9102  153.1409 H   0  0  0  0  0  0  0  0  0  0  0  0
  149.5594  136.6989  153.5749 H   0  0  0  0  0  0  0  0  0  0  0  0
  149.3349  139.0817  153.6793 H   0  0  0  0  0  0  0  0  0  0  0  0
  150.0212  141.1576  154.8123 H   0  0  0  0  0  0  0  0  0  0  0  0
  151.2850  142.7437  155.7844 H   0  0  0  0  0  0  0  0  0  0  0  0
  151.3458  143.3950  157.4180 H   0  0  0  0  0  0  0  0  0  0  0  0
  149.8208  142.7804  156.7800 H   0  0  0  0  0  0  0  0  0  0  0  0
  152.7855  140.5922  158.5136 H   0  0  0  0  0  0  0  0  0  0  0  0
  151.1925  140.5798  159.2901 H   0  0  0  0  0  0  0  0  0  0  0  0
  152.0562  142.0982  159.0646 H   0  0  0  0  0  0  0  0  0  0  0  0
  150.7903  136.8835  157.1544 H   0  0  0  0  0  0  0  0  0  0  0  0
  146.4640  133.4713  153.4872 H   0  0  0  0  0  0  0  0  0  0  0  0
  147.6525  133.0580  152.2740 H   0  0  0  0  0  0  0  0  0  0  0  0
  146.1575  131.1539  152.6521 H   0  0  0  0  0  0  0  0  0  0  0  0
  146.4902  131.1543  154.3713 H   0  0  0  0  0  0  0  0  0  0  0  0
  148.4770  130.6975  152.2678 H   0  0  0  0  0  0  0  0  0  0  0  0
  151.3844  138.8772  158.0772 H   0  0  0  0  0  0  0  0  0  0  0  0
  1  2  2  0  0  0  0
  1 24  1  0  0  0  0
  1 25  1  0  0  0  0
  2  3  1  0  0  0  0
  2  4  1  0  0  0  0
  3 26  1  0  0  0  0
  3 27  1  0  0  0  0
  3 28  1  0  0  0  0
  4  5  1  0  0  0  0
  4 29  1  0  0  0  0
  4 30  1  0  0  0  0
  5 23  1  0  0  0  0
  5  6  1  0  0  0  0
  5 51  1  0  0  0  0
  6  7  1  0  0  0  0
  6 31  1  0  0  0  0
  6 32  1  0  0  0  0
  7  8  1  0  0  0  0
  7 33  1  0  0  0  0
  7 34  1  0  0  0  0
  8  9  1  0  0  0  0
  8 22  1  0  0  0  0
  8 35  1  0  0  0  0
  9 10  1  0  0  0  0
  9 36  1  0  0  0  0
 10 11  2  0  0  0  0
 10 12  1  0  0  0  0
 12 13  1  0  0  0  0
 12 37  1  0  0  0  0
 13 21  1  0  0  0  0
 13 14  2  0  0  0  0
 14 15  1  0  0  0  0
 14 38  1  0  0  0  0
 15 16  2  0  0  0  0
 15 39  1  0  0  0  0
 16 17  1  0  0  0  0
 16 20  1  0  0  0  0
 17 18  1  0  0  0  0
 17 19  1  0  0  0  0
 18 40  1  0  0  0  0
 18 41  1  0  0  0  0
 18 42  1  0  0  0  0
 19 43  1  0  0  0  0
 19 44  1  0  0  0  0
 19 45  1  0  0  0  0
 20 21  2  0  0  0  0
 20 52  1  0  0  0  0
 21 46  1  0  0  0  0
 22 23  1  0  0  0  0
 22 47  1  0  0  0  0
 22 48  1  0  0  0  0
 23 49  1  0  0  0  0
 23 50  1  0  0  0  0
M  CHG  1   5   1
M  CHG  1  20   1
M  END
> <s_m_source_file>
AV-unprocessed.smi

> <i_m_source_file_index>
1055

> <i_lp_mmshare_version>
43012

> <i_f3d_flags>
0

> <s_epik_input>
W0NIMl09QyhbQ0gzXSlbQ0gyXU4xW0NIMl1bQ0gyXVtDSF0oW0NIMl1bQ0gyXTEpW05IXUMoPU8pW05IXWMyW2NIXVtjSF1jKE4oW0NIM10pW0NIM10pbltjSF0y

> <s_epik_cmdline>
J2VwaWtfcHl0aG9uJywgJy1waCcsICc3LjAnLCAnLXRuJywgJzgnLCAnLW1hJywgJzIwMCcsICctbWV0YWxfYmluZGluZycsICctaW1hZScsICc8aW5maWxlLm1hZT4nLCAnLW9tYWUnLCAnPG91dGZpbGUubWFlPic=

> <r_lp_tautomer_probability>
0.999994

> <r_epik_Ionization_Penalty>
0.344238

> <r_epik_Ionization_Penalty_Charging>
0.344219

> <r_epik_Ionization_Penalty_Neutral>
1.87459e-05

> <r_epik_State_Penalty>
0.320654

> <r_epik_Charging_Adjusted_Penalty>
0.664873

> <i_epik_Tot_Q>
2

> <i_epik_Tot_abs_Q>
2

> <r_epik_Metal_State_Penalty>
0.58246

> <b_epik_Metal_Only>
0

> <s_lp_Force_Field>
OPLS_2005

> <r_lp_Energy>
26.1172

> <b_lp_Chiralities_Consistent>
1

> <s_lp_Variant>
AV-unprocessed.smi:1055-1

> <Gold.Version>
5.8.1

> <Gold.Id.Protein>
6NUR|6NUR_protein|mol2

> <Gold.PLP.Fitness>
47.0272

> <Gold.PLP.PLP>
-39.4748

> <Gold.PLP.part.hbond>
-3.0000

> <Gold.PLP.part.metal>
0.0000

> <Gold.PLP.part.buried>
-5.5576

> <Gold.PLP.part.nonpolar>
-30.7864

> <Gold.PLP.part.repulsive>
0.0773

> <Gold.PLP.ligand.clash>
0.0000

> <Gold.PLP.ligand.torsion>
0.6174

> <Gold.PLP.Chemscore.Hbond>
2.9000

> <Gold.PLP.Chemscore.CHOScore>
0.0000

> <Gold.PLP.Chemscore.Metal>
0.0000

> <Gold.Chemscore.Hbonds>
donor molecule, donor type, donor heavy atom, donor atom, acceptor molecule, acceptor atom, score
      L1  H     5    51       P1 10747  0.99
      L1  H     9    36       P1  7948  0.95
      L1  H    12    37       P1  7948  1.00

> <Gold.PLP.Chemscore.Internal.Correction>
0.0873

> <Gold.Rescore>
     Score         DG    S(hbond)    S(metal)    S(lipo)     H(rot)  DE(clash)    DE(int)     intcor
     20.58     -22.41       2.58        0.00     100.51       1.35       0.23       1.60       ----

> <Gold.Chemscore.Fitness>
20.5751

> <Gold.Chemscore.DG>
-22.4080

> <Gold.Chemscore.ZeroCoef>
-5.4800

> <Gold.Chemscore.Hbond>
2.5795

> <Gold.Chemscore.Metal>
0.0000

> <Gold.Chemscore.Lipo>
100.5082

> <Gold.Chemscore.Internal_Hbond>
0.0000

> <Gold.Chemscore.DEClash>
0.2334

> <Gold.Chemscore.DEInternal>
1.5994

> <Gold.Chemscore.Rot>
1.3465

> <Gold.Chemscore.Internal.Correction>
   9.000000E+99

> <Gold.Chemscore.Hbonds>
donor molecule, donor type, donor heavy atom, donor atom, acceptor molecule, acceptor atom, score
      L1  H     5    51       P1 10747  0.81
      L1  H     9    36       P1  7948  0.21
      L1  H    12    37       P1  7948  0.73

> <Gold.Chemscore.Hbond.Weighted>
-8.6155

> <Gold.Chemscore.Metal.Weighted>
-0.0000

> <Gold.Chemscore.Lipo.Weighted>
-11.7595

> <Gold.Chemscore.Internal_Hbond.Weighted>
0.0000

> <Gold.Chemscore.DEClash.Weighted>
0.2334

> <Gold.Chemscore.DEInternal.Weighted>
1.5994

> <Gold.Chemscore.Rot.Weighted>
3.4470

> <Gold.Chemscore.Internal.Correction.Weighted>
   9.000000E+99

> <Gold.Protein.RotatedTorsions>
[ 6907 6896 6895 6894 ] final  175.77 input  -60.11 | X-H torsion
[ 7974 7965 7964 7962 ] final  -84.15 input  175.53 | X-H torsion
[ 8008 7997 7996 7995 ] final  -65.17 input   59.86 | X-H torsion
[ 10167 10162 10161 10158 ] final  151.99 input  -65.29 | X-H torsion
[ 10718 10713 10712 10709 ] final -108.76 input   66.30 | X-H torsion
[ 10763 10752 10751 10750 ] final  129.61 input  -60.55 | X-H torsion
[ 11005 11000 10999 10996 ] final   61.13 input  -57.11 | X-H torsion

> <Gold.Protein.ActiveResidues>
 VAL166  LYS551  ARG553  GLY616  TRP617  ASP618  TYR619  PRO620  LYS621  CYS622 
 ASP623  PHE694  ASN695  SER759  ASP760  ASP761  ALA762  ILE779  LEU786  VAL792 
 PHE793  MET794  SER795  GLU796  ALA797  LYS798  CYS799  TRP800  GLU811  SER814 

> <Gold.Protein.RotatedAtoms>
  151.7309  133.3317  159.3339 H   0  0  0  0  0  0  0  0  0  0  0  0  # atno 6907 bound_to 6896
  150.7613  134.6364  159.6223 H   0  0  0  0  0  0  0  0  0  0  0  0  # atno 6908 bound_to 6896
  152.3592  134.6898  160.0264 H   0  0  0  0  0  0  0  0  0  0  0  0  # atno 6909 bound_to 6896
  145.5104  140.9540  143.1710 H   0  0  0  0  0  0  0  0  0  0  0  0  # atno 7974 bound_to 7965
  154.4656  140.0938  156.7010 H   0  0  0  0  0  0  0  0  0  0  0  0  # atno 8008 bound_to 7997
  155.4869  140.3469  155.4330 H   0  0  0  0  0  0  0  0  0  0  0  0  # atno 8009 bound_to 7997
  156.0949  140.1407  156.9532 H   0  0  0  0  0  0  0  0  0  0  0  0  # atno 8010 bound_to 7997
  139.4836  144.5395  151.7588 H   0  0  0  0  0  0  0  0  0  0  0  0  # atno 10167 bound_to 10162
  156.0502  130.5729  150.8006 H   0  0  0  0  0  0  0  0  0  0  0  0  # atno 10718 bound_to 10713
  153.7446  135.3219  155.3310 H   0  0  0  0  0  0  0  0  0  0  0  0  # atno 10763 bound_to 10752
  154.8283  135.4553  154.0992 H   0  0  0  0  0  0  0  0  0  0  0  0  # atno 10764 bound_to 10752
  153.2177  135.6944  153.8119 H   0  0  0  0  0  0  0  0  0  0  0  0  # atno 10765 bound_to 10752
  140.0182  134.6192  155.9678 H   0  0  0  0  0  0  0  0  0  0  0  0  # atno 11005 bound_to 11000
  144.7730  139.6692  143.7186 LP  0  0  0  0  0  0  0  0  0  0  0  0  # atno 17320 bound_to 7965
  146.2170  139.5567  142.9644 LP  0  0  0  0  0  0  0  0  0  0  0  0  # atno 17321 bound_to 7965
  140.4933  144.1278  150.5955 LP  0  0  0  0  0  0  0  0  0  0  0  0  # atno 17342 bound_to 10162
  140.4146  143.2640  151.9790 LP  0  0  0  0  0  0  0  0  0  0  0  0  # atno 17343 bound_to 10162
  157.5420  131.0941  150.9814 LP  0  0  0  0  0  0  0  0  0  0  0  0  # atno 17370 bound_to 10713
  157.0094  130.5631  149.5319 LP  0  0  0  0  0  0  0  0  0  0  0  0  # atno 17371 bound_to 10713
  141.1757  133.6540  156.4819 LP  0  0  0  0  0  0  0  0  0  0  0  0  # atno 17394 bound_to 11000
  140.4433  134.6996  157.5003 LP  0  0  0  0  0  0  0  0  0  0  0  0  # atno 17395 bound_to 11000

$$$$
