AV-unprocessed.smi:2857|AV-procd|sdf|10998|dock8
  -GOLD-   2272015453D 1   1.00000     0.00000
 Structure written by MMmdl.
 44 46  0  0  0  0  0  0  0  0  1 V2000
  150.8757  145.1685  159.3776 C   0  0  0  0  0  0  0  0  0  0  0  0
  151.6081  143.8684  159.6390 C   0  0  0  0  0  0  0  0  0  0  0  0
  152.2245  143.6353  160.8834 C   0  0  0  0  0  0  0  0  0  0  0  0
  152.9018  142.4248  161.1155 C   0  0  0  0  0  0  0  0  0  0  0  0
  152.9688  141.4416  160.1065 C   0  0  0  0  0  0  0  0  0  0  0  0
  153.7022  140.1409  160.3748 C   0  0  0  0  0  0  0  0  0  0  0  0
  152.3566  141.6635  158.8513 C   0  0  0  0  0  0  0  0  0  0  0  0
  152.4630  140.6627  157.9067 O   0  0  0  0  0  0  0  0  0  0  0  0
  151.8590  140.8677  156.6374 C   0  0  0  0  0  0  0  0  0  0  0  0
  152.2445  139.7114  155.6969 C   0  0  1  0  0  0  0  0  0  0  0  0
  153.4164  139.1004  156.1974 O   0  0  0  0  0  0  0  0  0  0  0  0
  151.1692  138.6098  155.5889 C   0  0  0  0  0  0  0  0  0  0  0  0
  149.9917  139.0344  154.8463 N   0  0  0  0  0  0  0  0  0  0  0  0
  149.9348  140.2975  154.3512 N   0  0  0  0  0  0  0  0  0  0  0  0
  148.7567  140.3949  153.7385 C   0  0  0  0  0  0  0  0  0  0  0  0
  148.0104  139.1877  153.8237 C   0  0  0  0  0  0  0  0  0  0  0  0
  146.6994  138.7468  153.3573 C   0  0  0  0  0  0  0  0  0  0  0  0
  146.3243  137.5373  153.6348 N   0  0  0  0  0  0  0  0  0  0  0  0
  147.1463  136.6696  154.3629 N   0  0  0  0  0  0  0  0  0  0  0  0
  146.5787  135.3445  154.6013 C   0  0  0  0  0  0  0  0  0  0  0  0
  148.3881  136.9823  154.8411 C   0  0  0  0  0  0  0  0  0  0  0  0
  149.0926  136.2070  155.4877 O   0  0  0  0  0  0  0  0  0  0  0  0
  148.8274  138.3634  154.5248 C   0  0  0  0  0  0  0  0  0  0  0  0
  151.6748  142.8879  158.6291 C   0  0  0  0  0  0  0  0  0  0  0  0
  150.7871  145.7653  160.2859 H   0  0  0  0  0  0  0  0  0  0  0  0
  149.8710  144.9696  159.0035 H   0  0  0  0  0  0  0  0  0  0  0  0
  151.4098  145.7578  158.6318 H   0  0  0  0  0  0  0  0  0  0  0  0
  152.1811  144.3813  161.6634 H   0  0  0  0  0  0  0  0  0  0  0  0
  153.3706  142.2544  162.0735 H   0  0  0  0  0  0  0  0  0  0  0  0
  154.4940  139.9930  159.6400 H   0  0  0  0  0  0  0  0  0  0  0  0
  153.0124  139.2991  160.3101 H   0  0  0  0  0  0  0  0  0  0  0  0
  154.1555  140.1338  161.3665 H   0  0  0  0  0  0  0  0  0  0  0  0
  150.7740  140.9567  156.7180 H   0  0  0  0  0  0  0  0  0  0  0  0
  152.2449  141.8066  156.2422 H   0  0  0  0  0  0  0  0  0  0  0  0
  152.4513  140.1034  154.7001 H   0  0  0  0  0  0  0  0  0  0  0  0
  153.1847  138.2604  156.5628 H   0  0  0  0  0  0  0  0  0  0  0  0
  151.5862  137.7336  155.0896 H   0  0  0  0  0  0  0  0  0  0  0  0
  150.8635  138.2710  156.5783 H   0  0  0  0  0  0  0  0  0  0  0  0
  148.4864  141.3265  153.2635 H   0  0  0  0  0  0  0  0  0  0  0  0
  146.0571  139.4217  152.7920 H   0  0  0  0  0  0  0  0  0  0  0  0
  147.1820  134.5772  154.1142 H   0  0  0  0  0  0  0  0  0  0  0  0
  145.5614  135.2603  154.2157 H   0  0  0  0  0  0  0  0  0  0  0  0
  146.5431  135.1253  155.6695 H   0  0  0  0  0  0  0  0  0  0  0  0
  151.1928  143.1007  157.6868 H   0  0  0  0  0  0  0  0  0  0  0  0
  1  2  1  0  0  0  0
  1 25  1  0  0  0  0
  1 26  1  0  0  0  0
  1 27  1  0  0  0  0
  2 24  1  0  0  0  0
  2  3  2  0  0  0  0
  3  4  1  0  0  0  0
  3 28  1  0  0  0  0
  4  5  2  0  0  0  0
  4 29  1  0  0  0  0
  5  6  1  0  0  0  0
  5  7  1  0  0  0  0
  6 30  1  0  0  0  0
  6 31  1  0  0  0  0
  6 32  1  0  0  0  0
  7  8  1  0  0  0  0
  7 24  2  0  0  0  0
  8  9  1  0  0  0  0
  9 10  1  0  0  0  0
  9 33  1  0  0  0  0
  9 34  1  0  0  0  0
 10 11  1  0  0  0  0
 10 12  1  0  0  0  0
 10 35  1  0  0  0  0
 11 36  1  0  0  0  0
 12 13  1  0  0  0  0
 12 37  1  0  0  0  0
 12 38  1  0  0  0  0
 13 23  1  0  0  0  0
 13 14  1  0  0  0  0
 14 15  2  0  0  0  0
 15 16  1  0  0  0  0
 15 39  1  0  0  0  0
 16 23  2  0  0  0  0
 16 17  1  0  0  0  0
 17 18  2  0  0  0  0
 17 40  1  0  0  0  0
 18 19  1  0  0  0  0
 19 20  1  0  0  0  0
 19 21  1  0  0  0  0
 20 41  1  0  0  0  0
 20 42  1  0  0  0  0
 20 43  1  0  0  0  0
 21 22  2  0  0  0  0
 21 23  1  0  0  0  0
 24 44  1  0  0  0  0
M  END
> <s_m_source_file>
AV-unprocessed.smi

> <i_m_source_file_index>
2857

> <i_lp_mmshare_version>
43012

> <i_f3d_flags>
0

> <s_epik_input>
W0NIM11jMVtjSF1bY0hdYyhbQ0gzXSljKFtjSF0xKU9bQ0gyXVtDQEhdKFtPSF0pW0NIMl1uKG5bY0hdMiljKGMyMyljKD1PKW4oW0NIM10pbltjSF0z

> <s_epik_cmdline>
J2VwaWtfcHl0aG9uJywgJy1waCcsICc3LjAnLCAnLXRuJywgJzgnLCAnLW1hJywgJzIwMCcsICctbWV0YWxfYmluZGluZycsICctaW1hZScsICc8aW5maWxlLm1hZT4nLCAnLW9tYWUnLCAnPG91dGZpbGUubWFlPic=

> <r_lp_tautomer_probability>
1

> <r_epik_Ionization_Penalty>
2.24607e-06

> <r_epik_Ionization_Penalty_Charging>
1.42095e-10

> <r_epik_Ionization_Penalty_Neutral>
2.24593e-06

> <r_epik_State_Penalty>
-0

> <r_epik_Charging_Adjusted_Penalty>
1.42095e-10

> <i_epik_Tot_Q>
0

> <i_epik_Tot_abs_Q>
0

> <r_epik_Metal_State_Penalty>
-0

> <b_epik_Metal_Only>
0

> <s_lp_Force_Field>
OPLS_2005

> <r_lp_Energy>
31.6427

> <b_lp_Chiralities_Consistent>
1

> <s_lp_Variant>
AV-unprocessed.smi:2857-2

> <Gold.Version>
5.8.1

> <Gold.Id.Protein>
6NUR|6NUR_protein|mol2

> <Gold.PLP.Fitness>
48.8634

> <Gold.PLP.PLP>
-41.1111

> <Gold.PLP.part.hbond>
-2.5962

> <Gold.PLP.part.metal>
0.0000

> <Gold.PLP.part.buried>
-2.2783

> <Gold.PLP.part.nonpolar>
-36.8226

> <Gold.PLP.part.repulsive>
0.3332

> <Gold.PLP.ligand.clash>
0.0000

> <Gold.PLP.ligand.torsion>
0.6144

> <Gold.PLP.Chemscore.Hbond>
1.9280

> <Gold.PLP.Chemscore.CHOScore>
1.0556

> <Gold.PLP.Chemscore.Metal>
0.0000

> <Gold.Chemscore.Hbonds>
donor molecule, donor type, donor heavy atom, donor atom, acceptor molecule, acceptor atom, score
      P1  H  7989  7998       L1    14  0.90
      P1  H  7997  8008       L1    11  0.67
      L1  C    15    39       P1  7957  0.01
      L1  C    17    40       P1 10175  0.79

> <Gold.PLP.Chemscore.Internal.Correction>
0.0302

> <Gold.Rescore>
     Score         DG    S(hbond)    S(metal)    S(lipo)     H(rot)  DE(clash)    DE(int)     intcor
     17.00     -19.33       1.56        0.00     124.55       2.32       1.65       0.68       ----

> <Gold.Chemscore.Fitness>
16.9961

> <Gold.Chemscore.DG>
-19.3294

> <Gold.Chemscore.ZeroCoef>
-5.4800

> <Gold.Chemscore.Hbond>
1.5645

> <Gold.Chemscore.Metal>
0.0000

> <Gold.Chemscore.Lipo>
124.5492

> <Gold.Chemscore.Internal_Hbond>
0.0000

> <Gold.Chemscore.DEClash>
1.6498

> <Gold.Chemscore.DEInternal>
0.6835

> <Gold.Chemscore.Rot>
2.3236

> <Gold.Chemscore.Internal.Correction>
   9.000000E+99

> <Gold.Chemscore.Hbonds>
donor molecule, donor type, donor heavy atom, donor atom, acceptor molecule, acceptor atom, score
      P1  H  7989  7998       L1    14  0.75
      P1  H  7997  8008       L1    11  0.47

> <Gold.Chemscore.Hbond.Weighted>
-5.2255

> <Gold.Chemscore.Metal.Weighted>
-0.0000

> <Gold.Chemscore.Lipo.Weighted>
-14.5723

> <Gold.Chemscore.Internal_Hbond.Weighted>
0.0000

> <Gold.Chemscore.DEClash.Weighted>
1.6498

> <Gold.Chemscore.DEInternal.Weighted>
0.6835

> <Gold.Chemscore.Rot.Weighted>
5.9484

> <Gold.Chemscore.Internal.Correction.Weighted>
   9.000000E+99

> <Gold.Protein.RotatedTorsions>
[ 6907 6896 6895 6894 ] final  123.54 input  -60.11 | X-H torsion
[ 7974 7965 7964 7962 ] final   40.57 input  175.53 | X-H torsion
[ 8008 7997 7996 7995 ] final  -54.93 input   59.86 | X-H torsion
[ 10167 10162 10161 10158 ] final   30.76 input  -65.29 | X-H torsion
[ 10718 10713 10712 10709 ] final    4.49 input   66.30 | X-H torsion
[ 10763 10752 10751 10750 ] final  155.19 input  -60.55 | X-H torsion
[ 11005 11000 10999 10996 ] final   -3.11 input  -57.11 | X-H torsion

> <Gold.Protein.ActiveResidues>
 VAL166  LYS551  ARG553  GLY616  TRP617  ASP618  TYR619  PRO620  LYS621  CYS622 
 ASP623  PHE694  ASN695  SER759  ASP760  ASP761  ALA762  ILE779  LEU786  VAL792 
 PHE793  MET794  SER795  GLU796  ALA797  LYS798  CYS799  TRP800  GLU811  SER814 

> <Gold.Protein.RotatedAtoms>
  152.4153  133.7028  159.6433 H   0  0  0  0  0  0  0  0  0  0  0  0  # atno 6907 bound_to 6896
  150.8031  133.8551  159.3225 H   0  0  0  0  0  0  0  0  0  0  0  0  # atno 6908 bound_to 6896
  151.6282  135.1027  160.0167 H   0  0  0  0  0  0  0  0  0  0  0  0  # atno 6909 bound_to 6896
  146.0894  139.5518  142.9485 H   0  0  0  0  0  0  0  0  0  0  0  0  # atno 7974 bound_to 7965
  154.4178  140.1164  156.5396 H   0  0  0  0  0  0  0  0  0  0  0  0  # atno 8008 bound_to 7997
  155.6522  140.3496  155.4733 H   0  0  0  0  0  0  0  0  0  0  0  0  # atno 8009 bound_to 7997
  155.9783  140.1155  157.0740 H   0  0  0  0  0  0  0  0  0  0  0  0  # atno 8010 bound_to 7997
  140.4649  144.0850  150.6222 H   0  0  0  0  0  0  0  0  0  0  0  0  # atno 10167 bound_to 10162
  156.8934  130.5696  149.5649 H   0  0  0  0  0  0  0  0  0  0  0  0  # atno 10718 bound_to 10713
  154.1644  135.2808  155.3099 H   0  0  0  0  0  0  0  0  0  0  0  0  # atno 10763 bound_to 10752
  154.6122  135.5495  153.7489 H   0  0  0  0  0  0  0  0  0  0  0  0  # atno 10764 bound_to 10752
  153.0183  135.6418  154.1785 H   0  0  0  0  0  0  0  0  0  0  0  0  # atno 10765 bound_to 10752
  140.6658  133.9280  155.8464 H   0  0  0  0  0  0  0  0  0  0  0  0  # atno 11005 bound_to 11000
  145.6067  141.0346  143.1988 LP  0  0  0  0  0  0  0  0  0  0  0  0  # atno 17320 bound_to 7965
  144.7349  139.7615  143.7333 LP  0  0  0  0  0  0  0  0  0  0  0  0  # atno 17321 bound_to 7965
  140.4048  143.2686  151.9904 LP  0  0  0  0  0  0  0  0  0  0  0  0  # atno 17342 bound_to 10162
  139.4811  144.5966  151.7678 LP  0  0  0  0  0  0  0  0  0  0  0  0  # atno 17343 bound_to 10162
  156.0617  130.5669  150.9207 LP  0  0  0  0  0  0  0  0  0  0  0  0  # atno 17370 bound_to 10713
  157.6070  131.0938  150.8862 LP  0  0  0  0  0  0  0  0  0  0  0  0  # atno 17371 bound_to 10713
  141.0430  134.0594  157.3878 LP  0  0  0  0  0  0  0  0  0  0  0  0  # atno 17394 bound_to 11000
  139.8998  135.0160  156.7211 LP  0  0  0  0  0  0  0  0  0  0  0  0  # atno 17395 bound_to 11000

$$$$
