AV-unprocessed.smi:2895|AV-procd|sdf|11128|dock5
  -GOLD-   2272016 03D 1   1.00000     0.00000
 Structure written by MMmdl.
 53 56  0  0  0  0  0  0  0  0  2 V2000
  148.7353  141.9991  153.9596 O   0  0  0  0  0  0  0  0  0  0  0  0
  148.6687  141.0270  154.7128 C   0  0  0  0  0  0  0  0  0  0  0  0
  149.5282  140.8557  155.7318 N   0  0  0  0  0  0  0  0  0  0  0  0
  150.6257  141.7552  156.0695 C   0  0  0  0  0  0  0  0  0  0  0  0
  151.2867  141.3724  157.4042 C   0  0  0  0  0  0  0  0  0  0  0  0
  151.6390  142.5891  158.2377 C   0  0  0  0  0  0  0  0  0  0  0  0
  151.3822  143.8892  157.7558 C   0  0  0  0  0  0  0  0  0  0  0  0
  151.7262  144.9872  158.5696 C   0  0  0  0  0  0  0  0  0  0  0  0
  152.2906  144.8580  159.7899 N   0  0  0  0  0  0  0  0  0  0  0  0
  152.5332  143.6097  160.2442 C   0  0  0  0  0  0  0  0  0  0  0  0
  152.2268  142.4457  159.5114 C   0  0  0  0  0  0  0  0  0  0  0  0
  147.7120  140.0697  154.6059 N   0  0  0  0  0  0  0  0  0  0  0  0
  147.5945  138.8580  155.4333 C   0  0  0  0  0  0  0  0  0  0  0  0
  147.9064  137.6159  154.5713 C   0  0  0  0  0  0  0  0  0  0  0  0
  147.0539  137.5456  153.3491 N   0  3  0  0  0  0  0  0  0  0  0  0
  145.6777  137.0258  153.6137 C   0  0  2  0  0  0  0  0  0  0  0  0
  145.6473  135.6153  154.2529 C   0  0  0  0  0  0  0  0  0  0  0  0
  144.6526  134.8456  153.3634 C   0  0  2  0  0  0  0  0  0  0  0  0
  145.3443  134.4966  152.0347 C   0  0  0  0  0  0  0  0  0  0  0  0
  145.4483  135.8673  151.3429 C   0  0  0  0  0  0  0  0  0  0  0  0
  144.7869  136.8215  152.3613 C   0  0  1  0  0  0  0  0  0  0  0  0
  143.6823  135.9380  152.9313 C   0  0  0  0  0  0  0  0  0  0  0  0
  147.0944  138.8264  152.5865 C   0  0  0  0  0  0  0  0  0  0  0  0
  146.7702  140.0381  153.4812 C   0  0  0  0  0  0  0  0  0  0  0  0
  149.4066  140.0464  156.3230 H   0  0  0  0  0  0  0  0  0  0  0  0
  151.3620  141.7632  155.2638 H   0  0  0  0  0  0  0  0  0  0  0  0
  150.2237  142.7667  156.1326 H   0  0  0  0  0  0  0  0  0  0  0  0
  150.6225  140.7244  157.9779 H   0  0  0  0  0  0  0  0  0  0  0  0
  152.1976  140.7989  157.2273 H   0  0  0  0  0  0  0  0  0  0  0  0
  150.9309  144.0443  156.7867 H   0  0  0  0  0  0  0  0  0  0  0  0
  151.5425  145.9962  158.2311 H   0  0  0  0  0  0  0  0  0  0  0  0
  152.9854  143.5355  161.2221 H   0  0  0  0  0  0  0  0  0  0  0  0
  152.4398  141.4689  159.9207 H   0  0  0  0  0  0  0  0  0  0  0  0
  148.2434  138.8535  156.3086 H   0  0  0  0  0  0  0  0  0  0  0  0
  146.5811  138.8010  155.8319 H   0  0  0  0  0  0  0  0  0  0  0  0
  148.9479  137.6610  154.2499 H   0  0  0  0  0  0  0  0  0  0  0  0
  147.8220  136.7110  155.1721 H   0  0  0  0  0  0  0  0  0  0  0  0
  145.1651  137.7218  154.2791 H   0  0  0  0  0  0  0  0  0  0  0  0
  146.6201  135.1219  154.2656 H   0  0  0  0  0  0  0  0  0  0  0  0
  145.2914  135.6722  155.2824 H   0  0  0  0  0  0  0  0  0  0  0  0
  144.1947  133.9870  153.8558 H   0  0  0  0  0  0  0  0  0  0  0  0
  146.3177  134.0271  152.1808 H   0  0  0  0  0  0  0  0  0  0  0  0
  144.7302  133.8149  151.4446 H   0  0  0  0  0  0  0  0  0  0  0  0
  146.4782  136.1384  151.1109 H   0  0  0  0  0  0  0  0  0  0  0  0
  144.8916  135.8607  150.4050 H   0  0  0  0  0  0  0  0  0  0  0  0
  144.4198  137.7493  151.9217 H   0  0  0  0  0  0  0  0  0  0  0  0
  142.9625  135.6058  152.1809 H   0  0  0  0  0  0  0  0  0  0  0  0
  143.1446  136.3949  153.7642 H   0  0  0  0  0  0  0  0  0  0  0  0
  148.1023  138.9436  152.1860 H   0  0  0  0  0  0  0  0  0  0  0  0
  146.4419  138.8034  151.7154 H   0  0  0  0  0  0  0  0  0  0  0  0
  145.7519  139.9697  153.8656 H   0  0  0  0  0  0  0  0  0  0  0  0
  146.7939  140.9503  152.8835 H   0  0  0  0  0  0  0  0  0  0  0  0
  147.4779  136.8535  152.7477 H   0  0  0  0  0  0  0  0  0  0  0  0
  1  2  2  0  0  0  0
  2  3  1  0  0  0  0
  2 12  1  0  0  0  0
  3  4  1  0  0  0  0
  3 25  1  0  0  0  0
  4  5  1  0  0  0  0
  4 26  1  0  0  0  0
  4 27  1  0  0  0  0
  5  6  1  0  0  0  0
  5 28  1  0  0  0  0
  5 29  1  0  0  0  0
  6 11  1  0  0  0  0
  6  7  2  0  0  0  0
  7  8  1  0  0  0  0
  7 30  1  0  0  0  0
  8  9  2  0  0  0  0
  8 31  1  0  0  0  0
  9 10  1  0  0  0  0
 10 11  2  0  0  0  0
 10 32  1  0  0  0  0
 11 33  1  0  0  0  0
 12 24  1  0  0  0  0
 12 13  1  0  0  0  0
 13 14  1  0  0  0  0
 13 34  1  0  0  0  0
 13 35  1  0  0  0  0
 14 15  1  0  0  0  0
 14 36  1  0  0  0  0
 14 37  1  0  0  0  0
 15 16  1  0  0  0  0
 15 23  1  0  0  0  0
 15 53  1  0  0  0  0
 16 21  1  0  0  0  0
 16 17  1  0  0  0  0
 16 38  1  0  0  0  0
 17 18  1  0  0  0  0
 17 39  1  0  0  0  0
 17 40  1  0  0  0  0
 18 22  1  0  0  0  0
 18 19  1  0  0  0  0
 18 41  1  0  0  0  0
 19 20  1  0  0  0  0
 19 42  1  0  0  0  0
 19 43  1  0  0  0  0
 20 21  1  0  0  0  0
 20 44  1  0  0  0  0
 20 45  1  0  0  0  0
 21 22  1  0  0  0  0
 21 46  1  0  0  0  0
 22 47  1  0  0  0  0
 22 48  1  0  0  0  0
 23 24  1  0  0  0  0
 23 49  1  0  0  0  0
 23 50  1  0  0  0  0
 24 51  1  0  0  0  0
 24 52  1  0  0  0  0
M  CHG  1  15   1
M  END
> <s_m_source_file>
AV-unprocessed.smi

> <i_m_source_file_index>
2895

> <i_lp_mmshare_version>
43012

> <i_f3d_flags>
0

> <s_epik_input>
W0NIMl0xW0NIMl1bQ0BASF0oW0NIMl0yKVtDQEBIXShbQ0gyXVtDQEhdMTIpTihbQ0gyXVtDSDJdMylbQ0gyXVtDSDJdTjNDKD1PKVtOSF1bQ0gyXVtDSDJdYzRbY0hdW2NIXW5bY0hdW2NIXTQ=

> <s_epik_cmdline>
J2VwaWtfcHl0aG9uJywgJy1waCcsICc3LjAnLCAnLXRuJywgJzgnLCAnLW1hJywgJzIwMCcsICctbWV0YWxfYmluZGluZycsICctaW1hZScsICc8aW5maWxlLm1hZT4nLCAnLW9tYWUnLCAnPG91dGZpbGUubWFlPic=

> <r_epik_Ionization_Penalty>
0.0566172

> <r_epik_Ionization_Penalty_Charging>
0.00262064

> <r_epik_Ionization_Penalty_Neutral>
0.0539965

> <r_epik_State_Penalty>
0.0463959

> <r_epik_Charging_Adjusted_Penalty>
0.0490165

> <i_epik_Tot_Q>
1

> <i_epik_Tot_abs_Q>
1

> <r_epik_Metal_State_Penalty>
0.0424856

> <b_epik_Metal_Only>
0

> <s_lp_Force_Field>
OPLS_2005

> <r_lp_Energy>
99.7754

> <b_lp_Chiralities_Consistent>
1

> <s_lp_Variant>
AV-unprocessed.smi:2895-1

> <Gold.Version>
5.8.1

> <Gold.Id.Protein>
6NUR|6NUR_protein|mol2

> <Gold.PLP.Fitness>
47.4385

> <Gold.PLP.PLP>
-40.8932

> <Gold.PLP.part.hbond>
-2.0000

> <Gold.PLP.part.metal>
0.0000

> <Gold.PLP.part.buried>
-3.2550

> <Gold.PLP.part.nonpolar>
-36.5420

> <Gold.PLP.part.repulsive>
0.3544

> <Gold.PLP.ligand.clash>
0.0000

> <Gold.PLP.ligand.torsion>
0.3531

> <Gold.PLP.Chemscore.Hbond>
2.3840

> <Gold.PLP.Chemscore.CHOScore>
0.0000

> <Gold.PLP.Chemscore.Metal>
0.0000

> <Gold.Chemscore.Hbonds>
donor molecule, donor type, donor heavy atom, donor atom, acceptor molecule, acceptor atom, score
      L1  H    15    53       P1  7948  1.98
      P1  H  8011  8017       L1     1  0.42

> <Gold.PLP.Chemscore.Internal.Correction>
0.0994

> <Gold.Rescore>
     Score         DG    S(hbond)    S(metal)    S(lipo)     H(rot)  DE(clash)    DE(int)     intcor
     19.43     -19.87       1.38        0.00     113.65       1.37       0.04       0.40       ----

> <Gold.Chemscore.Fitness>
19.4341

> <Gold.Chemscore.DG>
-19.8702

> <Gold.Chemscore.ZeroCoef>
-5.4800

> <Gold.Chemscore.Hbond>
1.3798

> <Gold.Chemscore.Metal>
0.0000

> <Gold.Chemscore.Lipo>
113.6478

> <Gold.Chemscore.Internal_Hbond>
0.0000

> <Gold.Chemscore.DEClash>
0.0387

> <Gold.Chemscore.DEInternal>
0.3974

> <Gold.Chemscore.Rot>
1.3731

> <Gold.Chemscore.Internal.Correction>
   9.000000E+99

> <Gold.Chemscore.Hbonds>
donor molecule, donor type, donor heavy atom, donor atom, acceptor molecule, acceptor atom, score
      L1  H    15    53       P1  7948  0.93
      P1  H  8011  8017       L1     1  0.41

> <Gold.Chemscore.Hbond.Weighted>
-4.6086

> <Gold.Chemscore.Metal.Weighted>
-0.0000

> <Gold.Chemscore.Lipo.Weighted>
-13.2968

> <Gold.Chemscore.Internal_Hbond.Weighted>
0.0000

> <Gold.Chemscore.DEClash.Weighted>
0.0387

> <Gold.Chemscore.DEInternal.Weighted>
0.3974

> <Gold.Chemscore.Rot.Weighted>
3.5152

> <Gold.Chemscore.Internal.Correction.Weighted>
   9.000000E+99

> <Gold.Protein.RotatedTorsions>
[ 6907 6896 6895 6894 ] final  -21.33 input  -60.11 | X-H torsion
[ 7974 7965 7964 7962 ] final  127.41 input  175.53 | X-H torsion
[ 8008 7997 7996 7995 ] final -106.01 input   59.86 | X-H torsion
[ 10167 10162 10161 10158 ] final  -71.08 input  -65.29 | X-H torsion
[ 10718 10713 10712 10709 ] final  127.63 input   66.30 | X-H torsion
[ 10763 10752 10751 10750 ] final  130.94 input  -60.55 | X-H torsion
[ 11005 11000 10999 10996 ] final   21.21 input  -57.11 | X-H torsion

> <Gold.Protein.ActiveResidues>
 VAL166  LYS551  ARG553  GLY616  TRP617  ASP618  TYR619  PRO620  LYS621  CYS622 
 ASP623  PHE694  ASN695  SER759  ASP760  ASP761  ALA762  ILE779  LEU786  VAL792 
 PHE793  MET794  SER795  GLU796  ALA797  LYS798  CYS799  TRP800  GLU811  SER814 

> <Gold.Protein.RotatedAtoms>
  151.2350  135.0568  159.9002 H   0  0  0  0  0  0  0  0  0  0  0  0  # atno 6907 bound_to 6896
  152.5400  134.0496  159.8114 H   0  0  0  0  0  0  0  0  0  0  0  0  # atno 6908 bound_to 6896
  151.0681  133.5440  159.2660 H   0  0  0  0  0  0  0  0  0  0  0  0  # atno 6909 bound_to 6896
  145.0509  139.3884  143.5054 H   0  0  0  0  0  0  0  0  0  0  0  0  # atno 7974 bound_to 7965
  154.9083  140.0411  157.1932 H   0  0  0  0  0  0  0  0  0  0  0  0  # atno 8008 bound_to 7997
  154.8374  140.2909  155.5660 H   0  0  0  0  0  0  0  0  0  0  0  0  # atno 8009 bound_to 7997
  156.2990  140.2489  156.3310 H   0  0  0  0  0  0  0  0  0  0  0  0  # atno 8010 bound_to 7997
  140.5301  143.2322  151.7277 H   0  0  0  0  0  0  0  0  0  0  0  0  # atno 10167 bound_to 10162
  157.5316  131.1098  150.9000 H   0  0  0  0  0  0  0  0  0  0  0  0  # atno 10718 bound_to 10713
  153.7662  135.3188  155.3345 H   0  0  0  0  0  0  0  0  0  0  0  0  # atno 10763 bound_to 10752
  154.8212  135.4601  154.0789 H   0  0  0  0  0  0  0  0  0  0  0  0  # atno 10764 bound_to 10752
  153.2035  135.6926  153.8286 H   0  0  0  0  0  0  0  0  0  0  0  0  # atno 10765 bound_to 10752
  140.3941  134.1787  155.7663 H   0  0  0  0  0  0  0  0  0  0  0  0  # atno 11005 bound_to 11000
  146.3518  140.0158  142.8663 LP  0  0  0  0  0  0  0  0  0  0  0  0  # atno 17320 bound_to 7965
  145.1529  140.9632  143.4422 LP  0  0  0  0  0  0  0  0  0  0  0  0  # atno 17321 bound_to 7965
  139.4951  144.4127  152.0063 LP  0  0  0  0  0  0  0  0  0  0  0  0  # atno 17342 bound_to 10162
  140.3228  144.3407  150.6005 LP  0  0  0  0  0  0  0  0  0  0  0  0  # atno 17343 bound_to 10162
  156.9580  130.5444  149.5285 LP  0  0  0  0  0  0  0  0  0  0  0  0  # atno 17370 bound_to 10713
  156.0427  130.5507  150.8808 LP  0  0  0  0  0  0  0  0  0  0  0  0  # atno 17371 bound_to 10713
  141.1880  133.8269  157.1010 LP  0  0  0  0  0  0  0  0  0  0  0  0  # atno 17394 bound_to 11000
  140.0384  134.9866  157.0916 LP  0  0  0  0  0  0  0  0  0  0  0  0  # atno 17395 bound_to 11000

$$$$
