AV-unprocessed.smi:1755|AV-procd|sdf|7070|dock6
  -GOLD-   22720 8293D 1   1.00000     0.00000
 Structure written by MMmdl.
 46 47  0  0  0  0  0  0  0  0  2 V2000
  147.4878  142.2843  154.0299 C   0  0  0  0  0  0  0  0  0  0  0  0
  147.6025  140.7967  153.8734 C   0  0  0  0  0  0  0  0  0  0  0  0
  146.8747  139.9489  152.9886 C   0  0  0  0  0  0  0  0  0  0  0  0
  147.3845  138.7109  153.2707 C   0  0  0  0  0  0  0  0  0  0  0  0
  147.0668  137.5092  152.7195 N   0  0  0  0  0  0  0  0  0  0  0  0
  145.8631  137.0599  152.3238 C   0  0  0  0  0  0  0  0  0  0  0  0
  144.7991  137.6664  152.4459 O   0  0  0  0  0  0  0  0  0  0  0  0
  145.9595  135.8443  151.7661 N   0  0  0  0  0  0  0  0  0  0  0  0
  144.8424  135.0646  151.2326 C   0  0  0  0  0  0  0  0  0  0  0  0
  144.6509  133.6860  151.9416 C   0  0  0  0  0  0  0  0  0  0  0  0
  144.2263  133.9148  153.3697 N   0  3  0  0  0  0  0  0  0  0  0  0
  143.0786  134.8317  153.5854 C   0  0  0  0  0  0  0  0  0  0  0  0
  145.3419  134.2472  154.2922 C   0  0  0  0  0  0  0  0  0  0  0  0
  143.6494  132.8223  151.1451 C   0  0  0  0  0  0  0  0  0  0  0  0
  144.4350  132.2338  149.9632 C   0  0  0  0  0  0  0  0  0  0  0  0
  145.9178  132.3047  150.3535 C   0  0  0  0  0  0  0  0  0  0  0  0
  145.9372  132.8316  151.7920 C   0  0  0  0  0  0  0  0  0  0  0  0
  148.3434  138.8374  154.2509 N   0  0  0  0  0  0  0  0  0  0  0  0
  149.1602  137.8166  154.8779 C   0  0  0  0  0  0  0  0  0  0  0  0
  148.4738  140.1292  154.6217 N   0  0  0  0  0  0  0  0  0  0  0  0
  146.7444  142.6962  153.3471 H   0  0  0  0  0  0  0  0  0  0  0  0
  148.4383  142.7754  153.8200 H   0  0  0  0  0  0  0  0  0  0  0  0
  147.1899  142.5510  155.0442 H   0  0  0  0  0  0  0  0  0  0  0  0
  146.1134  140.2253  152.2748 H   0  0  0  0  0  0  0  0  0  0  0  0
  147.8463  136.8839  152.5787 H   0  0  0  0  0  0  0  0  0  0  0  0
  146.8725  135.4154  151.7268 H   0  0  0  0  0  0  0  0  0  0  0  0
  143.9494  135.6770  151.3525 H   0  0  0  0  0  0  0  0  0  0  0  0
  144.9437  134.9506  150.1528 H   0  0  0  0  0  0  0  0  0  0  0  0
  143.2573  135.8117  153.1423 H   0  0  0  0  0  0  0  0  0  0  0  0
  142.8953  134.9777  154.6503 H   0  0  0  0  0  0  0  0  0  0  0  0
  142.1577  134.4177  153.1754 H   0  0  0  0  0  0  0  0  0  0  0  0
  145.7403  135.2423  154.0923 H   0  0  0  0  0  0  0  0  0  0  0  0
  146.1596  133.5315  154.2254 H   0  0  0  0  0  0  0  0  0  0  0  0
  144.9960  134.2317  155.3261 H   0  0  0  0  0  0  0  0  0  0  0  0
  143.2870  131.9989  151.7615 H   0  0  0  0  0  0  0  0  0  0  0  0
  142.7729  133.3800  150.8131 H   0  0  0  0  0  0  0  0  0  0  0  0
  144.1207  131.2107  149.7540 H   0  0  0  0  0  0  0  0  0  0  0  0
  144.2605  132.8180  149.0589 H   0  0  0  0  0  0  0  0  0  0  0  0
  146.4095  131.3347  150.2734 H   0  0  0  0  0  0  0  0  0  0  0  0
  146.4480  132.9903  149.6911 H   0  0  0  0  0  0  0  0  0  0  0  0
  146.8544  133.3674  152.0324 H   0  0  0  0  0  0  0  0  0  0  0  0
  145.9169  131.9467  152.4259 H   0  0  0  0  0  0  0  0  0  0  0  0
  149.7009  137.2583  154.1130 H   0  0  0  0  0  0  0  0  0  0  0  0
  148.5224  137.1311  155.4367 H   0  0  0  0  0  0  0  0  0  0  0  0
  149.8811  138.2674  155.5618 H   0  0  0  0  0  0  0  0  0  0  0  0
  143.8860  133.0155  153.6783 H   0  0  0  0  0  0  0  0  0  0  0  0
  1  2  1  0  0  0  0
  1 21  1  0  0  0  0
  1 22  1  0  0  0  0
  1 23  1  0  0  0  0
  2 20  2  0  0  0  0
  2  3  1  0  0  0  0
  3  4  2  0  0  0  0
  3 24  1  0  0  0  0
  4  5  1  0  0  0  0
  4 18  1  0  0  0  0
  5  6  1  0  0  0  0
  5 25  1  0  0  0  0
  6  7  2  0  0  0  0
  6  8  1  0  0  0  0
  8  9  1  0  0  0  0
  8 26  1  0  0  0  0
  9 10  1  0  0  0  0
  9 27  1  0  0  0  0
  9 28  1  0  0  0  0
 10 17  1  0  0  0  0
 10 11  1  0  0  0  0
 10 14  1  0  0  0  0
 11 12  1  0  0  0  0
 11 13  1  0  0  0  0
 11 46  1  0  0  0  0
 12 29  1  0  0  0  0
 12 30  1  0  0  0  0
 12 31  1  0  0  0  0
 13 32  1  0  0  0  0
 13 33  1  0  0  0  0
 13 34  1  0  0  0  0
 14 15  1  0  0  0  0
 14 35  1  0  0  0  0
 14 36  1  0  0  0  0
 15 16  1  0  0  0  0
 15 37  1  0  0  0  0
 15 38  1  0  0  0  0
 16 17  1  0  0  0  0
 16 39  1  0  0  0  0
 16 40  1  0  0  0  0
 17 41  1  0  0  0  0
 17 42  1  0  0  0  0
 18 19  1  0  0  0  0
 18 20  1  0  0  0  0
 19 43  1  0  0  0  0
 19 44  1  0  0  0  0
 19 45  1  0  0  0  0
M  CHG  1  11   1
M  END
> <s_m_source_file>
AV-unprocessed.smi

> <i_m_source_file_index>
1755

> <i_lp_mmshare_version>
43012

> <i_f3d_flags>
0

> <s_epik_input>
W0NIM11jMVtjSF1jKG4objEpW0NIM10pW05IXUMoPU8pW05IXVtDSDJdQzIoTihbQ0gzXSlbQ0gzXSlbQ0gyXVtDSDJdW0NIMl1bQ0gyXTI=

> <s_epik_cmdline>
J2VwaWtfcHl0aG9uJywgJy1waCcsICc3LjAnLCAnLXRuJywgJzgnLCAnLW1hJywgJzIwMCcsICctbWV0YWxfYmluZGluZycsICctaW1hZScsICc8aW5maWxlLm1hZT4nLCAnLW9tYWUnLCAnPG91dGZpbGUubWFlPic=

> <r_lp_tautomer_probability>
1

> <r_epik_Ionization_Penalty>
0.00248705

> <r_epik_Ionization_Penalty_Charging>
0.00240703

> <r_epik_Ionization_Penalty_Neutral>
8.00151e-05

> <r_epik_State_Penalty>
0.00166499

> <r_epik_Charging_Adjusted_Penalty>
0.00407202

> <i_epik_Tot_Q>
1

> <i_epik_Tot_abs_Q>
1

> <r_epik_Metal_State_Penalty>
-0

> <b_epik_Metal_Only>
0

> <s_lp_Force_Field>
OPLS_2005

> <r_lp_Energy>
45.253

> <b_lp_Chiralities_Consistent>
1

> <s_lp_Variant>
AV-unprocessed.smi:1755-1

> <Gold.Version>
5.8.1

> <Gold.Id.Protein>
6NUR|6NUR_protein|mol2

> <Gold.PLP.Fitness>
40.4019

> <Gold.PLP.PLP>
-31.5551

> <Gold.PLP.part.hbond>
-2.8457

> <Gold.PLP.part.metal>
0.0000

> <Gold.PLP.part.buried>
-6.1203

> <Gold.PLP.part.nonpolar>
-27.3117

> <Gold.PLP.part.repulsive>
2.5130

> <Gold.PLP.ligand.clash>
0.0000

> <Gold.PLP.ligand.torsion>
0.6622

> <Gold.PLP.Chemscore.Hbond>
3.3371

> <Gold.PLP.Chemscore.CHOScore>
0.0000

> <Gold.PLP.Chemscore.Metal>
0.0000

> <Gold.Chemscore.Hbonds>
donor molecule, donor type, donor heavy atom, donor atom, acceptor molecule, acceptor atom, score
      L1  H     5    25       P1  7948  0.84
      L1  H     8    26       P1  7948  0.38
      L1  H    11    46       P1 10957  1.85

> <Gold.PLP.Chemscore.Internal.Correction>
0.1597

> <Gold.Rescore>
     Score         DG    S(hbond)    S(metal)    S(lipo)     H(rot)  DE(clash)    DE(int)     intcor
     17.12     -18.10       2.60        0.00      66.11       1.49       0.03       0.95       ----

> <Gold.Chemscore.Fitness>
17.1186

> <Gold.Chemscore.DG>
-18.0959

> <Gold.Chemscore.ZeroCoef>
-5.4800

> <Gold.Chemscore.Hbond>
2.5997

> <Gold.Chemscore.Metal>
0.0000

> <Gold.Chemscore.Lipo>
66.1079

> <Gold.Chemscore.Internal_Hbond>
0.0000

> <Gold.Chemscore.DEClash>
0.0280

> <Gold.Chemscore.DEInternal>
0.9492

> <Gold.Chemscore.Rot>
1.4851

> <Gold.Chemscore.Internal.Correction>
   9.000000E+99

> <Gold.Chemscore.Hbonds>
donor molecule, donor type, donor heavy atom, donor atom, acceptor molecule, acceptor atom, score
      L1  H     5    25       P1  7948  0.81
      L1  H     8    26       P1  7948  0.38
      L1  H    11    46       P1 10957  0.79

> <Gold.Chemscore.Hbond.Weighted>
-8.6830

> <Gold.Chemscore.Metal.Weighted>
-0.0000

> <Gold.Chemscore.Lipo.Weighted>
-7.7346

> <Gold.Chemscore.Internal_Hbond.Weighted>
0.0000

> <Gold.Chemscore.DEClash.Weighted>
0.0280

> <Gold.Chemscore.DEInternal.Weighted>
0.9492

> <Gold.Chemscore.Rot.Weighted>
3.8018

> <Gold.Chemscore.Internal.Correction.Weighted>
   9.000000E+99

> <Gold.Protein.RotatedTorsions>
[ 6907 6896 6895 6894 ] final   11.24 input  -60.11 | X-H torsion
[ 7974 7965 7964 7962 ] final -126.54 input  175.53 | X-H torsion
[ 8008 7997 7996 7995 ] final   18.27 input   59.86 | X-H torsion
[ 10167 10162 10161 10158 ] final -110.06 input  -65.29 | X-H torsion
[ 10718 10713 10712 10709 ] final -170.05 input   66.30 | X-H torsion
[ 10763 10752 10751 10750 ] final  107.28 input  -60.55 | X-H torsion
[ 11005 11000 10999 10996 ] final   85.49 input  -57.11 | X-H torsion

> <Gold.Protein.ActiveResidues>
 VAL166  LYS551  ARG553  GLY616  TRP617  ASP618  TYR619  PRO620  LYS621  CYS622 
 ASP623  PHE694  ASN695  SER759  ASP760  ASP761  ALA762  ILE779  LEU786  VAL792 
 PHE793  MET794  SER795  GLU796  ALA797  LYS798  CYS799  TRP800  GLU811  SER814 

> <Gold.Protein.RotatedAtoms>
  151.7511  135.0832  160.0330 H   0  0  0  0  0  0  0  0  0  0  0  0  # atno 6907 bound_to 6896
  152.3416  133.6069  159.5889 H   0  0  0  0  0  0  0  0  0  0  0  0  # atno 6908 bound_to 6896
  150.7483  133.9629  159.3563 H   0  0  0  0  0  0  0  0  0  0  0  0  # atno 6909 bound_to 6896
  144.9863  140.7689  143.4581 H   0  0  0  0  0  0  0  0  0  0  0  0  # atno 7974 bound_to 7965
  154.9036  140.3004  155.5304 H   0  0  0  0  0  0  0  0  0  0  0  0  # atno 8008 bound_to 7997
  156.3017  140.2402  156.4002 H   0  0  0  0  0  0  0  0  0  0  0  0  # atno 8009 bound_to 7997
  154.8496  140.0410  157.1584 H   0  0  0  0  0  0  0  0  0  0  0  0  # atno 8010 bound_to 7997
  140.1486  143.4218  152.1511 H   0  0  0  0  0  0  0  0  0  0  0  0  # atno 10167 bound_to 10162
  156.7205  130.9268  151.3097 H   0  0  0  0  0  0  0  0  0  0  0  0  # atno 10718 bound_to 10713
  153.4046  135.3849  155.2010 H   0  0  0  0  0  0  0  0  0  0  0  0  # atno 10763 bound_to 10752
  154.8732  135.3779  154.4576 H   0  0  0  0  0  0  0  0  0  0  0  0  # atno 10764 bound_to 10752
  153.5077  135.7087  153.5859 H   0  0  0  0  0  0  0  0  0  0  0  0  # atno 10765 bound_to 10752
  139.8970  134.8290  156.2589 H   0  0  0  0  0  0  0  0  0  0  0  0  # atno 11005 bound_to 11000
  145.2349  139.2098  143.5023 LP  0  0  0  0  0  0  0  0  0  0  0  0  # atno 17320 bound_to 7965
  146.3420  140.2234  142.8592 LP  0  0  0  0  0  0  0  0  0  0  0  0  # atno 17321 bound_to 7965
  139.5437  144.7279  151.4652 LP  0  0  0  0  0  0  0  0  0  0  0  0  # atno 17342 bound_to 10162
  140.6716  143.8280  150.7007 LP  0  0  0  0  0  0  0  0  0  0  0  0  # atno 17343 bound_to 10162
  157.6900  130.9223  150.0487 LP  0  0  0  0  0  0  0  0  0  0  0  0  # atno 17370 bound_to 10713
  156.1597  130.3643  149.9316 LP  0  0  0  0  0  0  0  0  0  0  0  0  # atno 17371 bound_to 10713
  141.0175  133.7060  156.1213 LP  0  0  0  0  0  0  0  0  0  0  0  0  # atno 17394 bound_to 11000
  140.7281  134.4285  157.5568 LP  0  0  0  0  0  0  0  0  0  0  0  0  # atno 17395 bound_to 11000

$$$$
