AV-unprocessed.smi:2889|AV-procd|sdf|11111|dock2
  -GOLD-   2272015573D 1   1.00000     0.00000
 Structure written by MMmdl.
 36 37  0  0  0  0  0  0  0  0  1 V2000
  153.1501  143.0682  162.9833 C   0  0  0  0  0  0  0  0  0  0  0  0
  153.5967  142.1109  161.5089 S   0  0  0  0  0  0  0  0  0  0  0  0
  152.3369  142.6751  160.3201 C   0  0  1  0  0  0  0  0  0  0  0  0
  152.6206  144.1375  159.9279 C   0  0  0  0  0  0  0  0  0  0  0  0
  151.6149  144.6601  158.8912 C   0  0  0  0  0  0  0  0  0  0  0  0
  151.5997  143.7679  157.6423 C   0  0  0  0  0  0  0  0  0  0  0  0
  151.2960  142.3095  158.0131 C   0  0  0  0  0  0  0  0  0  0  0  0
  152.2863  141.7720  159.0643 C   0  0  2  0  0  0  0  0  0  0  0  0
  151.8939  140.4099  159.4311 N   0  0  0  0  0  0  0  0  0  0  0  0
  151.9874  139.1684  158.2373 S   0  0  0  0  0  0  0  0  0  0  0  0
  152.8044  139.6763  157.1239 O   0  0  0  0  0  0  0  0  0  0  0  0
  152.3689  137.9319  158.9362 O   0  0  0  0  0  0  0  0  0  0  0  0
  150.2332  139.0262  157.6839 C   0  0  0  0  0  0  0  0  0  0  0  0
  150.1545  139.1161  156.1850 C   0  0  0  0  0  0  0  0  0  0  0  0
  149.6691  138.1462  155.2640 C   0  0  0  0  0  0  0  0  0  0  0  0
  149.8288  138.7502  154.0505 C   0  0  0  0  0  0  0  0  0  0  0  0
  150.3724  139.9839  154.2020 O   0  0  0  0  0  0  0  0  0  0  0  0
  150.5783  140.2077  155.5681 N   0  0  0  0  0  0  0  0  0  0  0  0
  153.8578  142.8643  163.7865 H   0  0  0  0  0  0  0  0  0  0  0  0
  152.1529  142.8055  163.3341 H   0  0  0  0  0  0  0  0  0  0  0  0
  153.1745  144.1363  162.7671 H   0  0  0  0  0  0  0  0  0  0  0  0
  151.3675  142.6486  160.8199 H   0  0  0  0  0  0  0  0  0  0  0  0
  152.5939  144.7719  160.8143 H   0  0  0  0  0  0  0  0  0  0  0  0
  153.6300  144.2188  159.5221 H   0  0  0  0  0  0  0  0  0  0  0  0
  150.6176  144.6940  159.3314 H   0  0  0  0  0  0  0  0  0  0  0  0
  151.8660  145.6840  158.6134 H   0  0  0  0  0  0  0  0  0  0  0  0
  150.8577  144.1340  156.9320 H   0  0  0  0  0  0  0  0  0  0  0  0
  152.5654  143.8242  157.1386 H   0  0  0  0  0  0  0  0  0  0  0  0
  150.2773  142.2415  158.3978 H   0  0  0  0  0  0  0  0  0  0  0  0
  151.3275  141.6891  157.1164 H   0  0  0  0  0  0  0  0  0  0  0  0
  153.2845  141.7447  158.6244 H   0  0  0  0  0  0  0  0  0  0  0  0
  152.3555  140.1210  160.2931 H   0  0  0  0  0  0  0  0  0  0  0  0
  149.8524  138.0668  158.0354 H   0  0  0  0  0  0  0  0  0  0  0  0
  149.6468  139.8078  158.1662 H   0  0  0  0  0  0  0  0  0  0  0  0
  149.2620  137.1662  155.4633 H   0  0  0  0  0  0  0  0  0  0  0  0
  149.6157  138.4468  153.0360 H   0  0  0  0  0  0  0  0  0  0  0  0
  1  2  1  0  0  0  0
  1 19  1  0  0  0  0
  1 20  1  0  0  0  0
  1 21  1  0  0  0  0
  2  3  1  0  0  0  0
  3  8  1  0  0  0  0
  3  4  1  0  0  0  0
  3 22  1  0  0  0  0
  4  5  1  0  0  0  0
  4 23  1  0  0  0  0
  4 24  1  0  0  0  0
  5  6  1  0  0  0  0
  5 25  1  0  0  0  0
  5 26  1  0  0  0  0
  6  7  1  0  0  0  0
  6 27  1  0  0  0  0
  6 28  1  0  0  0  0
  7  8  1  0  0  0  0
  7 29  1  0  0  0  0
  7 30  1  0  0  0  0
  8  9  1  0  0  0  0
  8 31  1  0  0  0  0
  9 10  1  0  0  0  0
  9 32  1  0  0  0  0
 10 11  2  0  0  0  0
 10 12  2  0  0  0  0
 10 13  1  0  0  0  0
 13 14  1  0  0  0  0
 13 33  1  0  0  0  0
 13 34  1  0  0  0  0
 14 18  2  0  0  0  0
 14 15  1  0  0  0  0
 15 16  2  0  0  0  0
 15 35  1  0  0  0  0
 16 17  1  0  0  0  0
 16 36  1  0  0  0  0
 17 18  1  0  0  0  0
M  END
> <s_m_source_file>
AV-unprocessed.smi

> <i_m_source_file_index>
2889

> <i_lp_mmshare_version>
43012

> <i_f3d_flags>
0

> <s_epik_input>
W0NIM11TW0NAQEhdMVtDSDJdW0NIMl1bQ0gyXVtDSDJdW0NASF0xW05IXVMoPU8pKD1PKVtDSDJdYzJbY0hdW2NIXW9uMg==

> <s_epik_cmdline>
J2VwaWtfcHl0aG9uJywgJy1waCcsICc3LjAnLCAnLXRuJywgJzgnLCAnLW1hJywgJzIwMCcsICctbWV0YWxfYmluZGluZycsICctaW1hZScsICc8aW5maWxlLm1hZT4nLCAnLW9tYWUnLCAnPG91dGZpbGUubWFlPic=

> <r_lp_tautomer_probability>
1

> <r_epik_Ionization_Penalty>
0.000229547

> <r_epik_Ionization_Penalty_Charging>
0

> <r_epik_Ionization_Penalty_Neutral>
0.000229547

> <r_epik_State_Penalty>
-0

> <r_epik_Charging_Adjusted_Penalty>
0

> <i_epik_Tot_Q>
0

> <i_epik_Tot_abs_Q>
0

> <r_epik_Metal_State_Penalty>
0.145979

> <b_epik_Metal_Only>
0

> <s_lp_Force_Field>
OPLS_2005

> <r_lp_Energy>
3.91212

> <b_lp_Chiralities_Consistent>
1

> <s_lp_Variant>
AV-unprocessed.smi:2889-4

> <Gold.Version>
5.8.1

> <Gold.Id.Protein>
6NUR|6NUR_protein|mol2

> <Gold.PLP.Fitness>
46.9062

> <Gold.PLP.PLP>
-36.4321

> <Gold.PLP.part.hbond>
-2.0000

> <Gold.PLP.part.metal>
0.0000

> <Gold.PLP.part.buried>
-5.7754

> <Gold.PLP.part.nonpolar>
-29.6464

> <Gold.PLP.part.repulsive>
0.1634

> <Gold.PLP.ligand.clash>
0.0000

> <Gold.PLP.ligand.torsion>
0.6297

> <Gold.PLP.Chemscore.Hbond>
2.0000

> <Gold.PLP.Chemscore.CHOScore>
1.8499

> <Gold.PLP.Chemscore.Metal>
0.0000

> <Gold.Chemscore.Hbonds>
donor molecule, donor type, donor heavy atom, donor atom, acceptor molecule, acceptor atom, score
      P1  H  7989  7998       L1    17  1.00
      P1  H  7997  8008       L1    11  1.00
      L1  C    16    36       P1  7948  0.95
      L1  C    16    36       P1  7957  0.86

> <Gold.PLP.Chemscore.Internal.Correction>
0.1837

> <Gold.Rescore>
     Score         DG    S(hbond)    S(metal)    S(lipo)     H(rot)  DE(clash)    DE(int)     intcor
     17.37     -19.69       1.83        0.00     108.87       1.81       0.20       2.12       ----

> <Gold.Chemscore.Fitness>
17.3671

> <Gold.Chemscore.DG>
-19.6912

> <Gold.Chemscore.ZeroCoef>
-5.4800

> <Gold.Chemscore.Hbond>
1.8253

> <Gold.Chemscore.Metal>
0.0000

> <Gold.Chemscore.Lipo>
108.8670

> <Gold.Chemscore.Internal_Hbond>
0.0000

> <Gold.Chemscore.DEClash>
0.1999

> <Gold.Chemscore.DEInternal>
2.1243

> <Gold.Chemscore.Rot>
1.8058

> <Gold.Chemscore.Internal.Correction>
   9.000000E+99

> <Gold.Chemscore.Hbonds>
donor molecule, donor type, donor heavy atom, donor atom, acceptor molecule, acceptor atom, score
      P1  H  7989  7998       L1    17  0.39
      P1  H  7997  8008       L1    11  1.00

> <Gold.Chemscore.Hbond.Weighted>
-6.0966

> <Gold.Chemscore.Metal.Weighted>
-0.0000

> <Gold.Chemscore.Lipo.Weighted>
-12.7374

> <Gold.Chemscore.Internal_Hbond.Weighted>
0.0000

> <Gold.Chemscore.DEClash.Weighted>
0.1999

> <Gold.Chemscore.DEInternal.Weighted>
2.1243

> <Gold.Chemscore.Rot.Weighted>
4.6228

> <Gold.Chemscore.Internal.Correction.Weighted>
   9.000000E+99

> <Gold.Protein.RotatedTorsions>
[ 6907 6896 6895 6894 ] final  -20.53 input  -60.11 | X-H torsion
[ 7974 7965 7964 7962 ] final   57.85 input  175.53 | X-H torsion
[ 8008 7997 7996 7995 ] final  -72.77 input   59.86 | X-H torsion
[ 10167 10162 10161 10158 ] final  101.99 input  -65.29 | X-H torsion
[ 10718 10713 10712 10709 ] final  125.04 input   66.30 | X-H torsion
[ 10763 10752 10751 10750 ] final -144.65 input  -60.55 | X-H torsion
[ 11005 11000 10999 10996 ] final -116.47 input  -57.11 | X-H torsion

> <Gold.Protein.ActiveResidues>
 VAL166  LYS551  ARG553  GLY616  TRP617  ASP618  TYR619  PRO620  LYS621  CYS622 
 ASP623  PHE694  ASN695  SER759  ASP760  ASP761  ALA762  ILE779  LEU786  VAL792 
 PHE793  MET794  SER795  GLU796  ALA797  LYS798  CYS799  TRP800  GLU811  SER814 

> <Gold.Protein.RotatedAtoms>
  151.2468  135.0608  159.9046 H   0  0  0  0  0  0  0  0  0  0  0  0  # atno 6907 bound_to 6896
  152.5385  134.0375  159.8063 H   0  0  0  0  0  0  0  0  0  0  0  0  # atno 6908 bound_to 6896
  151.0577  133.5521  159.2668 H   0  0  0  0  0  0  0  0  0  0  0  0  # atno 6909 bound_to 6896
  145.9246  139.3757  143.0458 H   0  0  0  0  0  0  0  0  0  0  0  0  # atno 7974 bound_to 7965
  154.5193  140.0791  156.8141 H   0  0  0  0  0  0  0  0  0  0  0  0  # atno 8008 bound_to 7997
  155.3612  140.3418  155.4222 H   0  0  0  0  0  0  0  0  0  0  0  0  # atno 8009 bound_to 7997
  156.1663  140.1605  156.8513 H   0  0  0  0  0  0  0  0  0  0  0  0  # atno 8010 bound_to 7997
  139.7389  144.7016  151.0606 H   0  0  0  0  0  0  0  0  0  0  0  0  # atno 10167 bound_to 10162
  157.5536  131.1093  150.8660 H   0  0  0  0  0  0  0  0  0  0  0  0  # atno 10718 bound_to 10713
  154.8419  135.3434  154.6379 H   0  0  0  0  0  0  0  0  0  0  0  0  # atno 10763 bound_to 10752
  153.6990  135.6970  153.5073 H   0  0  0  0  0  0  0  0  0  0  0  0  # atno 10764 bound_to 10752
  153.2537  135.4345  155.0779 H   0  0  0  0  0  0  0  0  0  0  0  0  # atno 10765 bound_to 10752
  141.0420  133.9821  157.2979 H   0  0  0  0  0  0  0  0  0  0  0  0  # atno 11005 bound_to 11000
  145.8506  140.9531  143.0751 LP  0  0  0  0  0  0  0  0  0  0  0  0  # atno 17320 bound_to 7965
  144.6757  140.0402  143.7481 LP  0  0  0  0  0  0  0  0  0  0  0  0  # atno 17321 bound_to 7965
  140.7783  143.4949  150.9845 LP  0  0  0  0  0  0  0  0  0  0  0  0  # atno 17342 bound_to 10162
  139.8637  143.7281  152.3171 LP  0  0  0  0  0  0  0  0  0  0  0  0  # atno 17343 bound_to 10162
  156.9178  130.5304  149.5279 LP  0  0  0  0  0  0  0  0  0  0  0  0  # atno 17370 bound_to 10713
  156.0598  130.5653  150.9169 LP  0  0  0  0  0  0  0  0  0  0  0  0  # atno 17371 bound_to 10713
  139.9283  135.0201  156.8311 LP  0  0  0  0  0  0  0  0  0  0  0  0  # atno 17394 bound_to 11000
  140.6217  133.9987  155.7621 LP  0  0  0  0  0  0  0  0  0  0  0  0  # atno 17395 bound_to 11000

$$$$
