AV-unprocessed.smi:786|AV-procd|sdf|3721|dock10
  -GOLD-   22720 1143D 1   1.00000     0.00000
 Structure written by MMmdl.
 39 40  0  0  0  0  0  0  0  0  1 V2000
  152.3645  136.5812  156.0626 O   0  0  0  0  0  0  0  0  0  0  0  0
  151.6441  137.8574  155.9430 S   0  0  0  0  0  0  0  0  0  0  0  0
  152.1151  138.8903  155.0080 O   0  0  0  0  0  0  0  0  0  0  0  0
  149.8534  137.5313  155.6061 C   0  0  0  0  0  0  0  0  0  0  0  0
  149.2582  138.4662  154.5326 C   0  0  0  0  0  0  0  0  0  0  0  0
  149.1292  139.9277  155.0032 C   0  0  0  0  0  0  0  0  0  0  0  0
  148.4619  140.7928  153.9213 C   0  0  0  0  0  0  0  0  0  0  0  0
  147.1884  140.2540  153.5843 O   0  0  0  0  0  0  0  0  0  0  0  0
  147.2694  138.9424  153.0377 C   0  0  0  0  0  0  0  0  0  0  0  0
  147.8751  137.9781  154.0709 C   0  0  0  0  0  0  0  0  0  0  0  0
  151.6146  138.5631  157.5180 N   0  0  0  0  0  0  0  0  0  0  0  0
  151.0857  139.9115  157.7240 C   0  0  0  0  0  0  0  0  0  0  0  0
  151.5972  140.4865  159.0514 C   0  0  0  0  0  0  0  0  0  0  0  0
  151.4211  141.9914  159.1306 C   0  0  0  0  0  0  0  0  0  0  0  0
  151.7380  142.6928  160.3136 C   0  0  0  0  0  0  0  0  0  0  0  0
  151.5631  144.0901  160.3327 C   0  0  0  0  0  0  0  0  0  0  0  0
  151.0812  144.7292  159.1743 C   0  0  0  0  0  0  0  0  0  0  0  0
  150.7953  143.9391  158.0428 C   0  0  0  0  0  0  0  0  0  0  0  0
  150.9604  142.5988  158.0136 N   0  0  0  0  0  0  0  0  0  0  0  0
  149.7620  136.4854  155.3153 H   0  0  0  0  0  0  0  0  0  0  0  0
  149.3093  137.6384  156.5446 H   0  0  0  0  0  0  0  0  0  0  0  0
  149.9145  138.4415  153.6614 H   0  0  0  0  0  0  0  0  0  0  0  0
  148.5308  139.9707  155.9141 H   0  0  0  0  0  0  0  0  0  0  0  0
  150.1005  140.3501  155.2536 H   0  0  0  0  0  0  0  0  0  0  0  0
  148.3268  141.8105  154.2877 H   0  0  0  0  0  0  0  0  0  0  0  0
  149.0897  140.8565  153.0314 H   0  0  0  0  0  0  0  0  0  0  0  0
  146.2670  138.6146  152.7620 H   0  0  0  0  0  0  0  0  0  0  0  0
  147.8627  138.9548  152.1221 H   0  0  0  0  0  0  0  0  0  0  0  0
  147.9511  136.9791  153.6402 H   0  0  0  0  0  0  0  0  0  0  0  0
  147.2051  137.8984  154.9282 H   0  0  0  0  0  0  0  0  0  0  0  0
  151.4061  137.8998  158.2641 H   0  0  0  0  0  0  0  0  0  0  0  0
  151.3935  140.5522  156.8971 H   0  0  0  0  0  0  0  0  0  0  0  0
  149.9962  139.8729  157.7193 H   0  0  0  0  0  0  0  0  0  0  0  0
  151.0704  140.0246  159.8878 H   0  0  0  0  0  0  0  0  0  0  0  0
  152.6524  140.2424  159.1810 H   0  0  0  0  0  0  0  0  0  0  0  0
  152.1078  142.1746  161.1863 H   0  0  0  0  0  0  0  0  0  0  0  0
  151.7947  144.6611  161.2199 H   0  0  0  0  0  0  0  0  0  0  0  0
  150.9345  145.7990  159.1526 H   0  0  0  0  0  0  0  0  0  0  0  0
  150.4246  144.3956  157.1373 H   0  0  0  0  0  0  0  0  0  0  0  0
  1  2  2  0  0  0  0
  2  3  2  0  0  0  0
  2  4  1  0  0  0  0
  2 11  1  0  0  0  0
  4  5  1  0  0  0  0
  4 20  1  0  0  0  0
  4 21  1  0  0  0  0
  5 10  1  0  0  0  0
  5  6  1  0  0  0  0
  5 22  1  0  0  0  0
  6  7  1  0  0  0  0
  6 23  1  0  0  0  0
  6 24  1  0  0  0  0
  7  8  1  0  0  0  0
  7 25  1  0  0  0  0
  7 26  1  0  0  0  0
  8  9  1  0  0  0  0
  9 10  1  0  0  0  0
  9 27  1  0  0  0  0
  9 28  1  0  0  0  0
 10 29  1  0  0  0  0
 10 30  1  0  0  0  0
 11 12  1  0  0  0  0
 11 31  1  0  0  0  0
 12 13  1  0  0  0  0
 12 32  1  0  0  0  0
 12 33  1  0  0  0  0
 13 14  1  0  0  0  0
 13 34  1  0  0  0  0
 13 35  1  0  0  0  0
 14 19  1  0  0  0  0
 14 15  2  0  0  0  0
 15 16  1  0  0  0  0
 15 36  1  0  0  0  0
 16 17  2  0  0  0  0
 16 37  1  0  0  0  0
 17 18  1  0  0  0  0
 17 38  1  0  0  0  0
 18 19  2  0  0  0  0
 18 39  1  0  0  0  0
M  END
> <s_m_source_file>
AV-unprocessed.smi

> <i_m_source_file_index>
786

> <i_lp_mmshare_version>
43012

> <i_f3d_flags>
0

> <s_epik_input>
W0NIMl0xW0NIMl1PW0NIMl1bQ0gyXVtDSF0xW0NIMl1TKD1PKSg9TylbTkhdW0NIMl1bQ0gyXWMyW2NIXVtjSF1bY0hdW2NIXW4y

> <s_epik_cmdline>
J2VwaWtfcHl0aG9uJywgJy1waCcsICc3LjAnLCAnLXRuJywgJzgnLCAnLW1hJywgJzIwMCcsICctbWV0YWxfYmluZGluZycsICctaW1hZScsICc8aW5maWxlLm1hZT4nLCAnLW9tYWUnLCAnPG91dGZpbGUubWFlPic=

> <r_epik_Ionization_Penalty>
0.0207022

> <r_epik_Ionization_Penalty_Charging>
0

> <r_epik_Ionization_Penalty_Neutral>
0.0207022

> <r_epik_State_Penalty>
0.0165999

> <r_epik_Charging_Adjusted_Penalty>
0.0165999

> <i_epik_Tot_Q>
0

> <i_epik_Tot_abs_Q>
0

> <r_epik_Metal_State_Penalty>
0.0248737

> <b_epik_Metal_Only>
0

> <s_lp_Force_Field>
OPLS_2005

> <r_lp_Energy>
3.32782

> <b_lp_Chiralities_Consistent>
1

> <s_lp_Variant>
AV-unprocessed.smi:786-1

> <Gold.Version>
5.8.1

> <Gold.Id.Protein>
6NUR|6NUR_protein|mol2

> <Gold.PLP.Fitness>
44.8380

> <Gold.PLP.PLP>
-37.8954

> <Gold.PLP.part.hbond>
-2.0000

> <Gold.PLP.part.metal>
0.0000

> <Gold.PLP.part.buried>
-5.3840

> <Gold.PLP.part.nonpolar>
-31.5067

> <Gold.PLP.part.repulsive>
0.3119

> <Gold.PLP.ligand.clash>
0.0000

> <Gold.PLP.ligand.torsion>
0.6079

> <Gold.PLP.Chemscore.Hbond>
1.6640

> <Gold.PLP.Chemscore.CHOScore>
1.0000

> <Gold.PLP.Chemscore.Metal>
0.0000

> <Gold.Chemscore.Hbonds>
donor molecule, donor type, donor heavy atom, donor atom, acceptor molecule, acceptor atom, score
      P1  H 10752 10764       L1     1  1.00
      L1  C    18    39       P1  8028  1.00

> <Gold.PLP.Chemscore.Internal.Correction>
0.1664

> <Gold.Rescore>
     Score         DG    S(hbond)    S(metal)    S(lipo)     H(rot)  DE(clash)    DE(int)     intcor
     18.72     -19.17       1.92        0.00     101.92       1.81       0.03       0.43       ----

> <Gold.Chemscore.Fitness>
18.7195

> <Gold.Chemscore.DG>
-19.1720

> <Gold.Chemscore.ZeroCoef>
-5.4800

> <Gold.Chemscore.Hbond>
1.9193

> <Gold.Chemscore.Metal>
0.0000

> <Gold.Chemscore.Lipo>
101.9224

> <Gold.Chemscore.Internal_Hbond>
0.0000

> <Gold.Chemscore.DEClash>
0.0272

> <Gold.Chemscore.DEInternal>
0.4253

> <Gold.Chemscore.Rot>
1.8138

> <Gold.Chemscore.Internal.Correction>
   9.000000E+99

> <Gold.Chemscore.Hbonds>
donor molecule, donor type, donor heavy atom, donor atom, acceptor molecule, acceptor atom, score
      P1  H  7989  7998       L1     3  0.01
      P1  H 10752 10764       L1     1  0.96

> <Gold.Chemscore.Hbond.Weighted>
-6.4103

> <Gold.Chemscore.Metal.Weighted>
-0.0000

> <Gold.Chemscore.Lipo.Weighted>
-11.9249

> <Gold.Chemscore.Internal_Hbond.Weighted>
0.0000

> <Gold.Chemscore.DEClash.Weighted>
0.0272

> <Gold.Chemscore.DEInternal.Weighted>
0.4253

> <Gold.Chemscore.Rot.Weighted>
4.6432

> <Gold.Chemscore.Internal.Correction.Weighted>
   9.000000E+99

> <Gold.Protein.RotatedTorsions>
[ 6907 6896 6895 6894 ] final -144.56 input  -60.11 | X-H torsion
[ 7974 7965 7964 7962 ] final   24.44 input  175.53 | X-H torsion
[ 8008 7997 7996 7995 ] final -160.18 input   59.86 | X-H torsion
[ 10167 10162 10161 10158 ] final -104.44 input  -65.29 | X-H torsion
[ 10718 10713 10712 10709 ] final -152.38 input   66.30 | X-H torsion
[ 10763 10752 10751 10750 ] final  -38.69 input  -60.55 | X-H torsion
[ 11005 11000 10999 10996 ] final   80.60 input  -57.11 | X-H torsion

> <Gold.Protein.ActiveResidues>
 VAL166  LYS551  ARG553  GLY616  TRP617  ASP618  TYR619  PRO620  LYS621  CYS622 
 ASP623  PHE694  ASN695  SER759  ASP760  ASP761  ALA762  ILE779  LEU786  VAL792 
 PHE793  MET794  SER795  GLU796  ALA797  LYS798  CYS799  TRP800  GLU811  SER814 

> <Gold.Protein.RotatedAtoms>
  151.1157  133.5140  159.2603 H   0  0  0  0  0  0  0  0  0  0  0  0  # atno 6907 bound_to 6896
  151.1917  135.0405  159.8845 H   0  0  0  0  0  0  0  0  0  0  0  0  # atno 6908 bound_to 6896
  152.5453  134.0996  159.8365 H   0  0  0  0  0  0  0  0  0  0  0  0  # atno 6909 bound_to 6896
  146.1937  139.7605  142.8813 H   0  0  0  0  0  0  0  0  0  0  0  0  # atno 7974 bound_to 7965
  155.7737  140.0855  157.2095 H   0  0  0  0  0  0  0  0  0  0  0  0  # atno 8008 bound_to 7997
  154.3994  140.1520  156.3028 H   0  0  0  0  0  0  0  0  0  0  0  0  # atno 8009 bound_to 7997
  155.8722  140.3425  155.5832 H   0  0  0  0  0  0  0  0  0  0  0  0  # atno 8010 bound_to 7997
  140.2093  143.3759  152.1064 H   0  0  0  0  0  0  0  0  0  0  0  0  # atno 10167 bound_to 10162
  156.4717  130.8261  151.2491 H   0  0  0  0  0  0  0  0  0  0  0  0  # atno 10718 bound_to 10713
  153.9171  135.6786  153.4749 H   0  0  0  0  0  0  0  0  0  0  0  0  # atno 10763 bound_to 10752
  153.1048  135.4811  154.8929 H   0  0  0  0  0  0  0  0  0  0  0  0  # atno 10764 bound_to 10752
  154.7497  135.3181  154.8535 H   0  0  0  0  0  0  0  0  0  0  0  0  # atno 10765 bound_to 10752
  139.9128  134.7933  156.1931 H   0  0  0  0  0  0  0  0  0  0  0  0  # atno 11005 bound_to 11000
  145.3710  141.0343  143.3231 LP  0  0  0  0  0  0  0  0  0  0  0  0  # atno 17320 bound_to 7965
  144.8538  139.5281  143.6844 LP  0  0  0  0  0  0  0  0  0  0  0  0  # atno 17321 bound_to 7965
  139.5186  144.7008  151.5498 LP  0  0  0  0  0  0  0  0  0  0  0  0  # atno 17342 bound_to 10162
  140.6335  143.9030  150.6626 LP  0  0  0  0  0  0  0  0  0  0  0  0  # atno 17343 bound_to 10162
  157.7491  131.0074  150.3188 LP  0  0  0  0  0  0  0  0  0  0  0  0  # atno 17370 bound_to 10713
  156.3612  130.3847  149.7250 LP  0  0  0  0  0  0  0  0  0  0  0  0  # atno 17371 bound_to 10713
  141.0571  133.6860  156.1882 LP  0  0  0  0  0  0  0  0  0  0  0  0  # atno 17394 bound_to 11000
  140.6719  134.4859  157.5587 LP  0  0  0  0  0  0  0  0  0  0  0  0  # atno 17395 bound_to 11000

$$$$
