AV-unprocessed.smi:123|AV-procd|sdf|1144|dock10
  -GOLD-   2262018273D 1   1.00000     0.00000
 Structure written by MMmdl.
 43 45  0  0  0  0  0  0  0  0  1 V2000
  151.2927  138.7690  154.9329 C   0  0  0  0  0  0  0  0  0  0  0  0
  149.9547  138.5629  154.2092 C   0  0  1  0  0  0  0  0  0  0  0  0
  149.2511  137.4292  154.7941 N   0  0  0  0  0  0  0  0  0  0  0  0
  149.7147  136.1762  154.9357 C   0  0  0  0  0  0  0  0  0  0  0  0
  150.8581  135.8452  154.6247 O   0  0  0  0  0  0  0  0  0  0  0  0
  148.7510  135.1169  155.5038 C   0  0  0  0  0  0  0  0  0  0  0  0
  148.3897  134.0436  154.5475 N   0  0  0  0  0  0  0  0  0  0  0  0
  149.0625  132.7992  154.6307 C   0  0  0  0  0  0  0  0  0  0  0  0
  149.9527  132.6081  155.4599 O   0  0  0  0  0  0  0  0  0  0  0  0
  148.6175  131.7788  153.6882 C   0  0  0  0  0  0  0  0  0  0  0  0
  149.2158  130.5754  153.6796 F   0  0  0  0  0  0  0  0  0  0  0  0
  147.6074  132.0200  152.8272 C   0  0  0  0  0  0  0  0  0  0  0  0
  146.9373  133.2301  152.7784 N   0  0  0  0  0  0  0  0  0  0  0  0
  145.7834  133.4770  151.8272 C   0  0  2  0  0  0  0  0  0  0  0  0
  144.6502  132.4583  152.0718 C   0  0  0  0  0  0  0  0  0  0  0  0
  144.4382  131.8460  150.7009 C   0  0  0  0  0  0  0  0  0  0  0  0
  145.8103  132.0053  150.0642 C   0  0  0  0  0  0  0  0  0  0  0  0
  146.2080  133.2960  150.5064 O   0  0  0  0  0  0  0  0  0  0  0  0
  147.3400  134.2826  153.6284 C   0  0  0  0  0  0  0  0  0  0  0  0
  146.7738  135.3771  153.5836 O   0  0  0  0  0  0  0  0  0  0  0  0
  149.0850  139.7779  154.2645 C   0  0  0  0  0  0  0  0  0  0  0  0
  147.7829  140.0176  153.9219 C   0  0  0  0  0  0  0  0  0  0  0  0
  147.5367  141.3886  154.2102 C   0  0  0  0  0  0  0  0  0  0  0  0
  148.7097  141.8875  154.7005 C   0  0  0  0  0  0  0  0  0  0  0  0
  149.6654  140.9198  154.7372 O   0  0  0  0  0  0  0  0  0  0  0  0
  151.8483  139.5997  154.4971 H   0  0  0  0  0  0  0  0  0  0  0  0
  151.9205  137.8801  154.8612 H   0  0  0  0  0  0  0  0  0  0  0  0
  151.1434  138.9869  155.9911 H   0  0  0  0  0  0  0  0  0  0  0  0
  150.1656  138.3515  153.1594 H   0  0  0  0  0  0  0  0  0  0  0  0
  148.2997  137.6031  155.0839 H   0  0  0  0  0  0  0  0  0  0  0  0
  149.2044  134.6902  156.3999 H   0  0  0  0  0  0  0  0  0  0  0  0
  147.8651  135.6312  155.8791 H   0  0  0  0  0  0  0  0  0  0  0  0
  147.3275  131.2209  152.1579 H   0  0  0  0  0  0  0  0  0  0  0  0
  145.4940  134.5175  151.9852 H   0  0  0  0  0  0  0  0  0  0  0  0
  144.9708  131.6959  152.7828 H   0  0  0  0  0  0  0  0  0  0  0  0
  143.7590  132.9512  152.4611 H   0  0  0  0  0  0  0  0  0  0  0  0
  144.1045  130.8089  150.7433 H   0  0  0  0  0  0  0  0  0  0  0  0
  143.6988  132.4222  150.1431 H   0  0  0  0  0  0  0  0  0  0  0  0
  146.5016  131.2472  150.4353 H   0  0  0  0  0  0  0  0  0  0  0  0
  145.7816  131.9446  148.9763 H   0  0  0  0  0  0  0  0  0  0  0  0
  147.0913  139.2933  153.5174 H   0  0  0  0  0  0  0  0  0  0  0  0
  146.6183  141.9403  154.0746 H   0  0  0  0  0  0  0  0  0  0  0  0
  149.0225  142.8589  155.0544 H   0  0  0  0  0  0  0  0  0  0  0  0
  1  2  1  0  0  0  0
  1 26  1  0  0  0  0
  1 27  1  0  0  0  0
  1 28  1  0  0  0  0
  2  3  1  0  0  0  0
  2 21  1  0  0  0  0
  2 29  1  0  0  0  0
  3  4  1  0  0  0  0
  3 30  1  0  0  0  0
  4  5  2  0  0  0  0
  4  6  1  0  0  0  0
  6  7  1  0  0  0  0
  6 31  1  0  0  0  0
  6 32  1  0  0  0  0
  7 19  1  0  0  0  0
  7  8  1  0  0  0  0
  8  9  2  0  0  0  0
  8 10  1  0  0  0  0
 10 11  1  0  0  0  0
 10 12  2  0  0  0  0
 12 13  1  0  0  0  0
 12 33  1  0  0  0  0
 13 14  1  0  0  0  0
 13 19  1  0  0  0  0
 14 18  1  0  0  0  0
 14 15  1  0  0  0  0
 14 34  1  0  0  0  0
 15 16  1  0  0  0  0
 15 35  1  0  0  0  0
 15 36  1  0  0  0  0
 16 17  1  0  0  0  0
 16 37  1  0  0  0  0
 16 38  1  0  0  0  0
 17 18  1  0  0  0  0
 17 39  1  0  0  0  0
 17 40  1  0  0  0  0
 19 20  2  0  0  0  0
 21 25  1  0  0  0  0
 21 22  2  0  0  0  0
 22 23  1  0  0  0  0
 22 41  1  0  0  0  0
 23 24  2  0  0  0  0
 23 42  1  0  0  0  0
 24 25  1  0  0  0  0
 24 43  1  0  0  0  0
M  END
> <s_m_source_file>
AV-unprocessed.smi

> <i_m_source_file_index>
123

> <i_lp_mmshare_version>
43012

> <i_f3d_flags>
0

> <s_epik_input>
bzFbY0hdW2NIXVtjSF1jMVtDQEhdKFtDSDNdKVtOSF1DKD1PKVtDSDJdbjJjKD1PKWMoRilbY0hdbihjMj1PKVtDQEBIXTNbQ0gyXVtDSDJdW0NIMl1PMw==

> <s_epik_cmdline>
J2VwaWtfcHl0aG9uJywgJy1waCcsICc3LjAnLCAnLXRuJywgJzgnLCAnLW1hJywgJzIwMCcsICctbWV0YWxfYmluZGluZycsICctaW1hZScsICc8aW5maWxlLm1hZT4nLCAnLW9tYWUnLCAnPG91dGZpbGUubWFlPic=

> <r_lp_tautomer_probability>
1

> <r_epik_Ionization_Penalty>
2.31906e-08

> <r_epik_Ionization_Penalty_Charging>
3.85846e-09

> <r_epik_Ionization_Penalty_Neutral>
1.93321e-08

> <r_epik_State_Penalty>
-0

> <r_epik_Charging_Adjusted_Penalty>
3.85846e-09

> <i_epik_Tot_Q>
0

> <i_epik_Tot_abs_Q>
0

> <r_epik_Metal_State_Penalty>
-0

> <b_epik_Metal_Only>
0

> <s_epik_Chemistry_Notes>
This compound contains an acetal/aminal-like group ( X-CH(R)-Y where X, Y are N, S, or O) that may be acid/base labile, releasing an aldehyde.

> <s_lp_Force_Field>
OPLS_2005

> <r_lp_Energy>
20.7844

> <b_lp_Chiralities_Consistent>
1

> <s_lp_Variant>
AV-unprocessed.smi:123-2

> <Gold.Version>
5.8.1

> <Gold.Id.Protein>
6NUR|6NUR_protein|mol2

> <Gold.PLP.Fitness>
49.7923

> <Gold.PLP.PLP>
-40.5548

> <Gold.PLP.part.hbond>
-2.5519

> <Gold.PLP.part.metal>
0.0000

> <Gold.PLP.part.buried>
0.0690

> <Gold.PLP.part.nonpolar>
-38.9769

> <Gold.PLP.part.repulsive>
2.8270

> <Gold.PLP.ligand.clash>
0.0000

> <Gold.PLP.ligand.torsion>
0.5730

> <Gold.PLP.Chemscore.Hbond>
1.8320

> <Gold.PLP.Chemscore.CHOScore>
1.6177

> <Gold.PLP.Chemscore.Metal>
0.0000

> <Gold.Chemscore.Hbonds>
donor molecule, donor type, donor heavy atom, donor atom, acceptor molecule, acceptor atom, score
      P1  H  7989  7998       L1    25  0.19
      P1  H 10752 10763       L1     5  0.89
      L1  C    12    33       P1 10747  0.67
      L1  C    24    43       P1  8028  0.80

> <Gold.PLP.Chemscore.Internal.Correction>
0.0342

> <Gold.Rescore>
     Score         DG    S(hbond)    S(metal)    S(lipo)     H(rot)  DE(clash)    DE(int)     intcor
     12.21     -14.61       1.57        0.00      82.09       2.23       1.54       0.86       ----

> <Gold.Chemscore.Fitness>
12.2130

> <Gold.Chemscore.DG>
-14.6112

> <Gold.Chemscore.ZeroCoef>
-5.4800

> <Gold.Chemscore.Hbond>
1.5709

> <Gold.Chemscore.Metal>
0.0000

> <Gold.Chemscore.Lipo>
82.0949

> <Gold.Chemscore.Internal_Hbond>
0.0000

> <Gold.Chemscore.DEClash>
1.5421

> <Gold.Chemscore.DEInternal>
0.8562

> <Gold.Chemscore.Rot>
2.2347

> <Gold.Chemscore.Internal.Correction>
   9.000000E+99

> <Gold.Chemscore.Hbonds>
donor molecule, donor type, donor heavy atom, donor atom, acceptor molecule, acceptor atom, score
      P1  H  7989  7998       L1    25  0.04
      P1  H 10752 10763       L1     5  0.85

> <Gold.Chemscore.Hbond.Weighted>
-5.2469

> <Gold.Chemscore.Metal.Weighted>
-0.0000

> <Gold.Chemscore.Lipo.Weighted>
-9.6051

> <Gold.Chemscore.Internal_Hbond.Weighted>
0.0000

> <Gold.Chemscore.DEClash.Weighted>
1.5421

> <Gold.Chemscore.DEInternal.Weighted>
0.8562

> <Gold.Chemscore.Rot.Weighted>
5.7208

> <Gold.Chemscore.Internal.Correction.Weighted>
   9.000000E+99

> <Gold.Protein.RotatedTorsions>
[ 6907 6896 6895 6894 ] final  175.56 input  -60.11 | X-H torsion
[ 7974 7965 7964 7962 ] final -130.28 input  175.53 | X-H torsion
[ 8008 7997 7996 7995 ] final -114.95 input   59.86 | X-H torsion
[ 10167 10162 10161 10158 ] final -118.49 input  -65.29 | X-H torsion
[ 10718 10713 10712 10709 ] final -108.63 input   66.30 | X-H torsion
[ 10763 10752 10751 10750 ] final   51.61 input  -60.55 | X-H torsion
[ 11005 11000 10999 10996 ] final   87.06 input  -57.11 | X-H torsion

> <Gold.Protein.ActiveResidues>
 VAL166  LYS551  ARG553  GLY616  TRP617  ASP618  TYR619  PRO620  LYS621  CYS622 
 ASP623  PHE694  ASN695  SER759  ASP760  ASP761  ALA762  ILE779  LEU786  VAL792 
 PHE793  MET794  SER795  GLU796  ALA797  LYS798  CYS799  TRP800  GLU811  SER814 

> <Gold.Protein.RotatedAtoms>
  151.7342  133.3319  159.3348 H   0  0  0  0  0  0  0  0  0  0  0  0  # atno 6907 bound_to 6896
  150.7600  134.6336  159.6209 H   0  0  0  0  0  0  0  0  0  0  0  0  # atno 6908 bound_to 6896
  152.3572  134.6925  160.0270 H   0  0  0  0  0  0  0  0  0  0  0  0  # atno 6909 bound_to 6896
  144.9490  140.7323  143.4799 H   0  0  0  0  0  0  0  0  0  0  0  0  # atno 7974 bound_to 7965
  155.0443  140.0392  157.2521 H   0  0  0  0  0  0  0  0  0  0  0  0  # atno 8008 bound_to 7997
  154.7190  140.2708  155.6535 H   0  0  0  0  0  0  0  0  0  0  0  0  # atno 8009 bound_to 7997
  156.2811  140.2706  156.1856 H   0  0  0  0  0  0  0  0  0  0  0  0  # atno 8010 bound_to 7997
  140.0570  143.5005  152.2052 H   0  0  0  0  0  0  0  0  0  0  0  0  # atno 10167 bound_to 10162
  156.0495  130.5722  150.7988 H   0  0  0  0  0  0  0  0  0  0  0  0  # atno 10718 bound_to 10713
  152.9786  135.5840  154.4444 H   0  0  0  0  0  0  0  0  0  0  0  0  # atno 10763 bound_to 10752
  154.4041  135.2769  155.2080 H   0  0  0  0  0  0  0  0  0  0  0  0  # atno 10764 bound_to 10752
  154.3898  135.6128  153.5891 H   0  0  0  0  0  0  0  0  0  0  0  0  # atno 10765 bound_to 10752
  139.8929  134.8397  156.2807 H   0  0  0  0  0  0  0  0  0  0  0  0  # atno 11005 bound_to 11000
  145.2873  139.1896  143.4759 LP  0  0  0  0  0  0  0  0  0  0  0  0  # atno 17320 bound_to 7965
  146.3314  140.2845  142.8612 LP  0  0  0  0  0  0  0  0  0  0  0  0  # atno 17321 bound_to 7965
  139.5917  144.7552  151.3383 LP  0  0  0  0  0  0  0  0  0  0  0  0  # atno 17342 bound_to 10162
  140.7190  143.7188  150.7712 LP  0  0  0  0  0  0  0  0  0  0  0  0  # atno 17343 bound_to 10162
  157.5407  131.0940  150.9831 LP  0  0  0  0  0  0  0  0  0  0  0  0  # atno 17370 bound_to 10713
  157.0115  130.5638  149.5321 LP  0  0  0  0  0  0  0  0  0  0  0  0  # atno 17371 bound_to 10713
  141.0041  133.7134  156.1006 LP  0  0  0  0  0  0  0  0  0  0  0  0  # atno 17394 bound_to 11000
  140.7458  134.4099  157.5548 LP  0  0  0  0  0  0  0  0  0  0  0  0  # atno 17395 bound_to 11000

$$$$
