AV-unprocessed.smi:2018|AV-procd|sdf|8169|dock7
  -GOLD-   2272010413D 1   1.00000     0.00000
 Structure written by MMmdl.
 35 36  0  0  0  0  0  0  0  0  1 V2000
  156.7584  145.1800  163.0568 C   0  0  0  0  0  0  0  0  0  0  0  0
  157.1216  143.7565  163.3066 C   0  0  0  0  0  0  0  0  0  0  0  0
  156.7187  142.7445  162.5338 N   0  0  0  0  0  0  0  0  0  0  0  0
  157.1919  141.5059  162.9788 C   0  0  0  0  0  0  0  0  0  0  0  0
  156.8366  140.2561  162.2326 C   0  0  0  0  0  0  0  0  0  0  0  0
  156.6486  140.5099  160.7277 C   0  0  0  0  0  0  0  0  0  0  0  0
  155.4838  141.3475  160.4669 N   0  0  0  0  0  0  0  0  0  0  0  0
  154.4045  140.9738  159.7552 C   0  0  0  0  0  0  0  0  0  0  0  0
  154.2904  139.8561  159.2512 O   0  0  0  0  0  0  0  0  0  0  0  0
  153.3388  141.9998  159.5975 C   0  0  0  0  0  0  0  0  0  0  0  0
  152.3319  141.7746  158.8126 N   0  0  0  0  0  0  0  0  0  0  0  0
  151.3108  142.6886  158.6489 N   0  0  0  0  0  0  0  0  0  0  0  0
  150.1331  142.1749  157.9522 C   0  0  0  0  0  0  0  0  0  0  0  0
  151.3586  143.9803  159.0600 C   0  0  0  0  0  0  0  0  0  0  0  0
  150.4308  144.7772  158.9214 O   0  0  0  0  0  0  0  0  0  0  0  0
  152.6695  144.4448  159.7010 C   0  0  0  0  0  0  0  0  0  0  0  0
  153.4251  143.2903  160.3888 C   0  0  0  0  0  0  0  0  0  0  0  0
  157.9631  141.5962  164.1105 C   0  0  0  0  0  0  0  0  0  0  0  0
  158.1243  143.2423  164.6577 S   0  0  0  0  0  0  0  0  0  0  0  0
  156.3364  145.2991  162.0584 H   0  0  0  0  0  0  0  0  0  0  0  0
  157.6435  145.8111  163.1385 H   0  0  0  0  0  0  0  0  0  0  0  0
  156.0227  145.5102  163.7900 H   0  0  0  0  0  0  0  0  0  0  0  0
  157.6126  139.5037  162.3798 H   0  0  0  0  0  0  0  0  0  0  0  0
  155.9243  139.8274  162.6495 H   0  0  0  0  0  0  0  0  0  0  0  0
  157.5428  140.9685  160.3022 H   0  0  0  0  0  0  0  0  0  0  0  0
  156.5067  139.5634  160.2050 H   0  0  0  0  0  0  0  0  0  0  0  0
  155.4986  142.2831  160.8473 H   0  0  0  0  0  0  0  0  0  0  0  0
  149.9436  142.7458  157.0419 H   0  0  0  0  0  0  0  0  0  0  0  0
  149.2504  142.2455  158.5894 H   0  0  0  0  0  0  0  0  0  0  0  0
  150.2498  141.1280  157.6667 H   0  0  0  0  0  0  0  0  0  0  0  0
  153.2887  144.8681  158.9092 H   0  0  0  0  0  0  0  0  0  0  0  0
  152.4757  145.2484  160.4122 H   0  0  0  0  0  0  0  0  0  0  0  0
  153.0218  143.1255  161.3887 H   0  0  0  0  0  0  0  0  0  0  0  0
  154.4646  143.5919  160.5228 H   0  0  0  0  0  0  0  0  0  0  0  0
  158.4437  140.7960  164.6538 H   0  0  0  0  0  0  0  0  0  0  0  0
  1  2  1  0  0  0  0
  1 20  1  0  0  0  0
  1 21  1  0  0  0  0
  1 22  1  0  0  0  0
  2 19  1  0  0  0  0
  2  3  2  0  0  0  0
  3  4  1  0  0  0  0
  4  5  1  0  0  0  0
  4 18  2  0  0  0  0
  5  6  1  0  0  0  0
  5 23  1  0  0  0  0
  5 24  1  0  0  0  0
  6  7  1  0  0  0  0
  6 25  1  0  0  0  0
  6 26  1  0  0  0  0
  7  8  1  0  0  0  0
  7 27  1  0  0  0  0
  8  9  2  0  0  0  0
  8 10  1  0  0  0  0
 10 17  1  0  0  0  0
 10 11  2  0  0  0  0
 11 12  1  0  0  0  0
 12 13  1  0  0  0  0
 12 14  1  0  0  0  0
 13 28  1  0  0  0  0
 13 29  1  0  0  0  0
 13 30  1  0  0  0  0
 14 15  2  0  0  0  0
 14 16  1  0  0  0  0
 16 17  1  0  0  0  0
 16 31  1  0  0  0  0
 16 32  1  0  0  0  0
 17 33  1  0  0  0  0
 17 34  1  0  0  0  0
 18 19  1  0  0  0  0
 18 35  1  0  0  0  0
M  END
> <s_m_source_file>
AV-unprocessed.smi

> <i_m_source_file_index>
2018

> <i_lp_mmshare_version>
43012

> <i_f3d_flags>
0

> <s_epik_input>
W0NIM11jMW5jKFtjSF1zMSlbQ0gyXVtDSDJdW05IXUMoPU8pQzI9Tk4oW0NIM10pQyg9TylbQ0gyXVtDSDJdMg==

> <s_epik_cmdline>
J2VwaWtfcHl0aG9uJywgJy1waCcsICc3LjAnLCAnLXRuJywgJzgnLCAnLW1hJywgJzIwMCcsICctbWV0YWxfYmluZGluZycsICctaW1hZScsICc8aW5maWxlLm1hZT4nLCAnLW9tYWUnLCAnPG91dGZpbGUubWFlPic=

> <r_epik_Ionization_Penalty>
0.000694267

> <r_epik_Ionization_Penalty_Charging>
0

> <r_epik_Ionization_Penalty_Neutral>
0.000694267

> <r_epik_State_Penalty>
0.000389372

> <r_epik_Charging_Adjusted_Penalty>
0.000389372

> <i_epik_Tot_Q>
0

> <i_epik_Tot_abs_Q>
0

> <r_epik_Metal_State_Penalty>
0.0645979

> <b_epik_Metal_Only>
0

> <s_epik_Chemistry_Notes>
This compound has an imine and may undergo hydrolysis.

> <s_lp_Force_Field>
OPLS_2005

> <r_lp_Energy>
11.1599

> <b_lp_Chiralities_Consistent>
1

> <s_lp_Variant>
AV-unprocessed.smi:2018-1

> <Gold.Version>
5.8.1

> <Gold.Id.Protein>
6NUR|6NUR_protein|mol2

> <Gold.PLP.Fitness>
43.5873

> <Gold.PLP.PLP>
-41.4117

> <Gold.PLP.part.hbond>
-3.0000

> <Gold.PLP.part.metal>
0.0000

> <Gold.PLP.part.buried>
-4.4737

> <Gold.PLP.part.nonpolar>
-32.9766

> <Gold.PLP.part.repulsive>
0.1790

> <Gold.PLP.ligand.clash>
0.0000

> <Gold.PLP.ligand.torsion>
0.4166

> <Gold.PLP.Chemscore.Hbond>
1.0000

> <Gold.PLP.Chemscore.CHOScore>
0.0000

> <Gold.PLP.Chemscore.Metal>
0.0000

> <Gold.Chemscore.Hbonds>
donor molecule, donor type, donor heavy atom, donor atom, acceptor molecule, acceptor atom, score
      P1  H  7997  8010       L1     9  0.81

> <Gold.PLP.Chemscore.Internal.Correction>
0.0087

> <Gold.Rescore>
     Score         DG    S(hbond)    S(metal)    S(lipo)     H(rot)  DE(clash)    DE(int)     intcor
     13.79     -14.38       0.98        0.00      79.75       1.45       0.02       0.58       ----

> <Gold.Chemscore.Fitness>
13.7887

> <Gold.Chemscore.DG>
-14.3824

> <Gold.Chemscore.ZeroCoef>
-5.4800

> <Gold.Chemscore.Hbond>
0.9815

> <Gold.Chemscore.Metal>
0.0000

> <Gold.Chemscore.Lipo>
79.7546

> <Gold.Chemscore.Internal_Hbond>
0.0000

> <Gold.Chemscore.DEClash>
0.0164

> <Gold.Chemscore.DEInternal>
0.5773

> <Gold.Chemscore.Rot>
1.4480

> <Gold.Chemscore.Internal.Correction>
   9.000000E+99

> <Gold.Chemscore.Hbonds>
donor molecule, donor type, donor heavy atom, donor atom, acceptor molecule, acceptor atom, score
      P1  H  7997  8010       L1     9  0.38

> <Gold.Chemscore.Hbond.Weighted>
-3.2781

> <Gold.Chemscore.Metal.Weighted>
-0.0000

> <Gold.Chemscore.Lipo.Weighted>
-9.3313

> <Gold.Chemscore.Internal_Hbond.Weighted>
0.0000

> <Gold.Chemscore.DEClash.Weighted>
0.0164

> <Gold.Chemscore.DEInternal.Weighted>
0.5773

> <Gold.Chemscore.Rot.Weighted>
3.7070

> <Gold.Chemscore.Internal.Correction.Weighted>
   9.000000E+99

> <Gold.Protein.RotatedTorsions>
[ 6907 6896 6895 6894 ] final  -52.87 input  -60.11 | X-H torsion
[ 7974 7965 7964 7962 ] final   83.93 input  175.53 | X-H torsion
[ 8008 7997 7996 7995 ] final   -5.47 input   59.86 | X-H torsion
[ 10167 10162 10161 10158 ] final   88.26 input  -65.29 | X-H torsion
[ 10718 10713 10712 10709 ] final   95.62 input   66.30 | X-H torsion
[ 10763 10752 10751 10750 ] final   55.45 input  -60.55 | X-H torsion
[ 11005 11000 10999 10996 ] final  155.87 input  -57.11 | X-H torsion

> <Gold.Protein.ActiveResidues>
 VAL166  LYS551  ARG553  GLY616  TRP617  ASP618  TYR619  PRO620  LYS621  CYS622 
 ASP623  PHE694  ASN695  SER759  ASP760  ASP761  ALA762  ILE779  LEU786  VAL792 
 PHE793  MET794  SER795  GLU796  ALA797  LYS798  CYS799  TRP800  GLU811  SER814 

> <Gold.Protein.RotatedAtoms>
  150.8478  134.7793  159.6984 H   0  0  0  0  0  0  0  0  0  0  0  0  # atno 6907 bound_to 6896
  152.4551  134.5306  159.9820 H   0  0  0  0  0  0  0  0  0  0  0  0  # atno 6908 bound_to 6896
  151.5433  133.3391  159.2975 H   0  0  0  0  0  0  0  0  0  0  0  0  # atno 6909 bound_to 6896
  145.6054  139.2359  143.2222 H   0  0  0  0  0  0  0  0  0  0  0  0  # atno 7974 bound_to 7965
  154.6035  140.2457  155.7761 H   0  0  0  0  0  0  0  0  0  0  0  0  # atno 8008 bound_to 7997
  156.2326  140.2961  156.0180 H   0  0  0  0  0  0  0  0  0  0  0  0  # atno 8009 bound_to 7997
  155.2171  140.0399  157.2933 H   0  0  0  0  0  0  0  0  0  0  0  0  # atno 8010 bound_to 7997
  139.8690  144.6503  150.8971 H   0  0  0  0  0  0  0  0  0  0  0  0  # atno 10167 bound_to 10162
  157.6937  131.0551  150.4366 H   0  0  0  0  0  0  0  0  0  0  0  0  # atno 10718 bound_to 10713
  152.9817  135.5710  154.5069 H   0  0  0  0  0  0  0  0  0  0  0  0  # atno 10763 bound_to 10752
  154.4579  135.2780  155.1736 H   0  0  0  0  0  0  0  0  0  0  0  0  # atno 10764 bound_to 10752
  154.3336  135.6244  153.5616 H   0  0  0  0  0  0  0  0  0  0  0  0  # atno 10765 bound_to 10752
  140.1621  134.8602  157.2587 H   0  0  0  0  0  0  0  0  0  0  0  0  # atno 11005 bound_to 11000
  146.1544  140.6878  142.9307 LP  0  0  0  0  0  0  0  0  0  0  0  0  # atno 17320 bound_to 7965
  144.7292  140.4619  143.6950 LP  0  0  0  0  0  0  0  0  0  0  0  0  # atno 17321 bound_to 7965
  140.7763  143.3679  151.1703 LP  0  0  0  0  0  0  0  0  0  0  0  0  # atno 17342 bound_to 10162
  139.7301  143.9085  152.3016 LP  0  0  0  0  0  0  0  0  0  0  0  0  # atno 17343 bound_to 10162
  156.4728  130.4056  149.6508 LP  0  0  0  0  0  0  0  0  0  0  0  0  # atno 17370 bound_to 10713
  156.3582  130.7467  151.2436 LP  0  0  0  0  0  0  0  0  0  0  0  0  # atno 17371 bound_to 10713
  140.2477  134.3720  155.7455 LP  0  0  0  0  0  0  0  0  0  0  0  0  # atno 17394 bound_to 11000
  141.2210  133.7299  156.8887 LP  0  0  0  0  0  0  0  0  0  0  0  0  # atno 17395 bound_to 11000

$$$$
