AV-unprocessed.smi:99|AV-procd|sdf|875|dock6
  -GOLD-   2262017343D 1   1.00000     0.00000
 Structure written by MMmdl.
 53 56  0  0  0  0  0  0  0  0  1 V2000
  154.3843  139.5011  160.5575 O   0  0  0  0  0  0  0  0  0  0  0  0
  153.6156  140.1334  159.8310 C   0  0  0  0  0  0  0  0  0  0  0  0
  153.1378  139.6702  158.6625 O   0  0  0  0  0  0  0  0  0  0  0  0
  153.3582  138.3252  158.2628 C   0  0  0  0  0  0  0  0  0  0  0  0
  153.0933  138.1883  156.7544 C   0  0  2  0  0  0  0  0  0  0  0  0
  152.6232  139.4149  156.2125 O   0  0  0  0  0  0  0  0  0  0  0  0
  151.6990  139.1912  155.1921 C   0  0  2  0  0  0  0  0  0  0  0  0
  150.4424  139.9679  155.5609 N   0  0  0  0  0  0  0  0  0  0  0  0
  150.4065  140.9622  156.5351 C   0  0  0  0  0  0  0  0  0  0  0  0
  149.3173  141.7273  156.7819 C   0  0  0  0  0  0  0  0  0  0  0  0
  148.0988  141.5561  156.0013 C   0  0  0  0  0  0  0  0  0  0  0  0
  147.0628  142.1999  156.1520 O   0  0  0  0  0  0  0  0  0  0  0  0
  148.1823  140.5756  155.0112 N   0  0  0  0  0  0  0  0  0  0  0  0
  149.3024  139.7881  154.7420 C   0  0  0  0  0  0  0  0  0  0  0  0
  149.2679  138.9806  153.8140 O   0  0  0  0  0  0  0  0  0  0  0  0
  151.5149  137.6645  155.0314 C   0  0  1  0  0  0  0  0  0  0  0  0
  152.2182  137.1651  153.9115 O   0  0  0  0  0  0  0  0  0  0  0  0
  152.1158  137.0908  156.3114 C   0  0  2  0  0  0  0  0  0  0  0  0
  151.1035  136.8489  157.2821 O   0  0  0  0  0  0  0  0  0  0  0  0
  150.1126  135.9597  157.0563 C   0  0  0  0  0  0  0  0  0  0  0  0
  149.9690  135.3459  155.9976 O   0  0  0  0  0  0  0  0  0  0  0  0
  149.2109  135.7949  158.2316 C   0  0  0  0  0  0  0  0  0  0  0  0
  148.3304  134.6897  158.2848 C   0  0  0  0  0  0  0  0  0  0  0  0
  147.4732  134.5096  159.3882 C   0  0  0  0  0  0  0  0  0  0  0  0
  147.4834  135.4344  160.4489 C   0  0  0  0  0  0  0  0  0  0  0  0
  148.3490  136.5424  160.4034 C   0  0  0  0  0  0  0  0  0  0  0  0
  149.2060  136.7228  159.3011 C   0  0  0  0  0  0  0  0  0  0  0  0
  153.0911  141.4889  160.1628 C   0  0  0  0  0  0  0  0  0  0  0  0
  152.6374  142.3320  159.1225 C   0  0  0  0  0  0  0  0  0  0  0  0
  152.1601  143.6262  159.4065 C   0  0  0  0  0  0  0  0  0  0  0  0
  152.1271  144.0906  160.7343 C   0  0  0  0  0  0  0  0  0  0  0  0
  152.5684  143.2583  161.7790 C   0  0  0  0  0  0  0  0  0  0  0  0
  153.0459  141.9639  161.4971 C   0  0  0  0  0  0  0  0  0  0  0  0
  147.3682  140.4348  154.4309 H   0  0  0  0  0  0  0  0  0  0  0  0
  154.3921  138.0625  158.4883 H   0  0  0  0  0  0  0  0  0  0  0  0
  152.7173  137.6341  158.8124 H   0  0  0  0  0  0  0  0  0  0  0  0
  154.0436  137.9836  156.2597 H   0  0  0  0  0  0  0  0  0  0  0  0
  152.0440  139.6386  154.2576 H   0  0  0  0  0  0  0  0  0  0  0  0
  151.2632  141.1708  157.1491 H   0  0  0  0  0  0  0  0  0  0  0  0
  149.3514  142.4791  157.5574 H   0  0  0  0  0  0  0  0  0  0  0  0
  150.4764  137.3844  154.8654 H   0  0  0  0  0  0  0  0  0  0  0  0
  151.5938  136.9479  153.2363 H   0  0  0  0  0  0  0  0  0  0  0  0
  152.6672  136.1681  156.1222 H   0  0  0  0  0  0  0  0  0  0  0  0
  148.3075  133.9652  157.4833 H   0  0  0  0  0  0  0  0  0  0  0  0
  146.8079  133.6594  159.4206 H   0  0  0  0  0  0  0  0  0  0  0  0
  146.8269  135.2953  161.2952 H   0  0  0  0  0  0  0  0  0  0  0  0
  148.3574  137.2561  161.2142 H   0  0  0  0  0  0  0  0  0  0  0  0
  149.8526  137.5864  159.2927 H   0  0  0  0  0  0  0  0  0  0  0  0
  152.6606  141.9989  158.0950 H   0  0  0  0  0  0  0  0  0  0  0  0
  151.8214  144.2641  158.6034 H   0  0  0  0  0  0  0  0  0  0  0  0
  151.7620  145.0838  160.9513 H   0  0  0  0  0  0  0  0  0  0  0  0
  152.5415  143.6128  162.7988 H   0  0  0  0  0  0  0  0  0  0  0  0
  153.3774  141.3499  162.3218 H   0  0  0  0  0  0  0  0  0  0  0  0
  1  2  2  0  0  0  0
  2  3  1  0  0  0  0
  2 28  1  0  0  0  0
  3  4  1  0  0  0  0
  4  5  1  0  0  0  0
  4 35  1  0  0  0  0
  4 36  1  0  0  0  0
  5 18  1  0  0  0  0
  5  6  1  0  0  0  0
  5 37  1  0  0  0  0
  6  7  1  0  0  0  0
  7  8  1  0  0  0  0
  7 16  1  0  0  0  0
  7 38  1  0  0  0  0
  8 14  1  0  0  0  0
  8  9  1  0  0  0  0
  9 10  2  0  0  0  0
  9 39  1  0  0  0  0
 10 11  1  0  0  0  0
 10 40  1  0  0  0  0
 11 12  2  0  0  0  0
 11 13  1  0  0  0  0
 13 34  1  0  0  0  0
 13 14  1  0  0  0  0
 14 15  2  0  0  0  0
 16 17  1  0  0  0  0
 16 18  1  0  0  0  0
 16 41  1  0  0  0  0
 17 42  1  0  0  0  0
 18 19  1  0  0  0  0
 18 43  1  0  0  0  0
 19 20  1  0  0  0  0
 20 21  2  0  0  0  0
 20 22  1  0  0  0  0
 22 27  1  0  0  0  0
 22 23  2  0  0  0  0
 23 24  1  0  0  0  0
 23 44  1  0  0  0  0
 24 25  2  0  0  0  0
 24 45  1  0  0  0  0
 25 26  1  0  0  0  0
 25 46  1  0  0  0  0
 26 27  2  0  0  0  0
 26 47  1  0  0  0  0
 27 48  1  0  0  0  0
 28 33  1  0  0  0  0
 28 29  2  0  0  0  0
 29 30  1  0  0  0  0
 29 49  1  0  0  0  0
 30 31  2  0  0  0  0
 30 50  1  0  0  0  0
 31 32  1  0  0  0  0
 31 51  1  0  0  0  0
 32 33  2  0  0  0  0
 32 52  1  0  0  0  0
 33 53  1  0  0  0  0
M  END
> <s_m_source_file>
AV-unprocessed.smi

> <i_m_source_file_index>
99

> <i_lp_mmshare_version>
43012

> <i_f3d_flags>
0

> <s_epik_input>
W2NIXTFbY0hdW2NIXVtjSF1bY0hdYzFDKD1PKU9bQ0gyXVtDQEBIXTJPW0NAQEhdKG4zW2NIXVtjSF1jKD1PKVtuSF1jMz1PKVtDQEBIXShbT0hdKVtDQEhdMk9DKD1PKWM0W2NIXVtjSF1bY0hdW2NIXVtjSF00

> <s_epik_cmdline>
J2VwaWtfcHl0aG9uJywgJy1waCcsICc3LjAnLCAnLXRuJywgJzgnLCAnLW1hJywgJzIwMCcsICctbWV0YWxfYmluZGluZycsICctaW1hZScsICc8aW5maWxlLm1hZT4nLCAnLW9tYWUnLCAnPG91dGZpbGUubWFlPic=

> <r_lp_tautomer_probability>
1

> <r_epik_Ionization_Penalty>
0.00454555

> <r_epik_Ionization_Penalty_Charging>
0.0045191

> <r_epik_Ionization_Penalty_Neutral>
2.64449e-05

> <r_epik_State_Penalty>
-0

> <r_epik_Charging_Adjusted_Penalty>
0.0045191

> <i_epik_Tot_Q>
0

> <i_epik_Tot_abs_Q>
0

> <r_epik_Metal_State_Penalty>
1.27877

> <b_epik_Metal_Only>
0

> <s_epik_Chemistry_Notes>
This compound has an ester and may undergo hydrolysis at high or low pH. This compound contains an acetal/aminal-like group ( X-CH(R)-Y where X, Y are N, S, or O) that may be acid/base labile, releasing an aldehyde.

> <s_lp_Force_Field>
OPLS_2005

> <r_lp_Energy>
29.5489

> <b_lp_Chiralities_Consistent>
1

> <s_lp_Variant>
AV-unprocessed.smi:99-11

> <Gold.Version>
5.8.1

> <Gold.Id.Protein>
6NUR|6NUR_protein|mol2

> <Gold.PLP.Fitness>
58.0054

> <Gold.PLP.PLP>
-52.7394

> <Gold.PLP.part.hbond>
-3.5794

> <Gold.PLP.part.metal>
0.0000

> <Gold.PLP.part.buried>
-6.2688

> <Gold.PLP.part.nonpolar>
-45.6548

> <Gold.PLP.part.repulsive>
2.8810

> <Gold.PLP.ligand.clash>
0.0000

> <Gold.PLP.ligand.torsion>
1.4662

> <Gold.PLP.Chemscore.Hbond>
2.6020

> <Gold.PLP.Chemscore.CHOScore>
0.0000

> <Gold.PLP.Chemscore.Metal>
0.0000

> <Gold.Chemscore.Hbonds>
donor molecule, donor type, donor heavy atom, donor atom, acceptor molecule, acceptor atom, score
      L1  H    17    42       P1  7949  0.97
      P1  H  7997  8008       L1     6  0.60
      P1  H 10752 10765       L1    17  0.98

> <Gold.PLP.Chemscore.Internal.Correction>
0.3924

> <Gold.Rescore>
     Score         DG    S(hbond)    S(metal)    S(lipo)     H(rot)  DE(clash)    DE(int)     intcor
     14.17     -17.26       1.61        0.00     124.63       3.19       0.18       2.91       ----

> <Gold.Chemscore.Fitness>
14.1746

> <Gold.Chemscore.DG>
-17.2639

> <Gold.Chemscore.ZeroCoef>
-5.4800

> <Gold.Chemscore.Hbond>
1.6077

> <Gold.Chemscore.Metal>
0.0000

> <Gold.Chemscore.Lipo>
124.6270

> <Gold.Chemscore.Internal_Hbond>
0.0000

> <Gold.Chemscore.DEClash>
0.1836

> <Gold.Chemscore.DEInternal>
2.9057

> <Gold.Chemscore.Rot>
3.1903

> <Gold.Chemscore.Internal.Correction>
   9.000000E+99

> <Gold.Chemscore.Hbonds>
donor molecule, donor type, donor heavy atom, donor atom, acceptor molecule, acceptor atom, score
      L1  H    17    42       P1  7949  0.81
      P1  H  7997  8008       L1     6  0.04
      P1  H 10752 10765       L1    17  0.27

> <Gold.Chemscore.Hbond.Weighted>
-5.3696

> <Gold.Chemscore.Metal.Weighted>
-0.0000

> <Gold.Chemscore.Lipo.Weighted>
-14.5814

> <Gold.Chemscore.Internal_Hbond.Weighted>
0.0000

> <Gold.Chemscore.DEClash.Weighted>
0.1836

> <Gold.Chemscore.DEInternal.Weighted>
2.9057

> <Gold.Chemscore.Rot.Weighted>
8.1671

> <Gold.Chemscore.Internal.Correction.Weighted>
   9.000000E+99

> <Gold.Protein.RotatedTorsions>
[ 6907 6896 6895 6894 ] final   55.02 input  -60.11 | X-H torsion
[ 7974 7965 7964 7962 ] final -166.45 input  175.53 | X-H torsion
[ 8008 7997 7996 7995 ] final  -34.74 input   59.86 | X-H torsion
[ 10167 10162 10161 10158 ] final  156.74 input  -65.29 | X-H torsion
[ 10718 10713 10712 10709 ] final   48.75 input   66.30 | X-H torsion
[ 10763 10752 10751 10750 ] final  147.71 input  -60.55 | X-H torsion
[ 11005 11000 10999 10996 ] final  -68.61 input  -57.11 | X-H torsion

> <Gold.Protein.ActiveResidues>
 VAL166  LYS551  ARG553  GLY616  TRP617  ASP618  TYR619  PRO620  LYS621  CYS622 
 ASP623  PHE694  ASN695  SER759  ASP760  ASP761  ALA762  ILE779  LEU786  VAL792 
 PHE793  MET794  SER795  GLU796  ALA797  LYS798  CYS799  TRP800  GLU811  SER814 

> <Gold.Protein.RotatedAtoms>
  152.3497  134.7023  160.0239 H   0  0  0  0  0  0  0  0  0  0  0  0  # atno 6907 bound_to 6896
  151.7381  133.3315  159.3366 H   0  0  0  0  0  0  0  0  0  0  0  0  # atno 6908 bound_to 6896
  150.7532  134.6236  159.6193 H   0  0  0  0  0  0  0  0  0  0  0  0  # atno 6909 bound_to 6896
  144.7245  140.2664  143.6257 H   0  0  0  0  0  0  0  0  0  0  0  0  # atno 7974 bound_to 7965
  154.4113  140.1676  156.2099 H   0  0  0  0  0  0  0  0  0  0  0  0  # atno 8008 bound_to 7997
  155.9453  140.3405  155.6338 H   0  0  0  0  0  0  0  0  0  0  0  0  # atno 8009 bound_to 7997
  155.6938  140.0737  157.2428 H   0  0  0  0  0  0  0  0  0  0  0  0  # atno 8010 bound_to 7997
  139.4821  144.4981  151.8209 H   0  0  0  0  0  0  0  0  0  0  0  0  # atno 10167 bound_to 10162
  157.4718  130.8260  149.7996 H   0  0  0  0  0  0  0  0  0  0  0  0  # atno 10718 bound_to 10713
  154.0429  135.2888  155.3352 H   0  0  0  0  0  0  0  0  0  0  0  0  # atno 10763 bound_to 10752
  154.6918  135.5223  153.8406 H   0  0  0  0  0  0  0  0  0  0  0  0  # atno 10764 bound_to 10752
  153.0592  135.6607  154.0632 H   0  0  0  0  0  0  0  0  0  0  0  0  # atno 10765 bound_to 10752
  141.1536  133.6745  156.6473 H   0  0  0  0  0  0  0  0  0  0  0  0  # atno 11005 bound_to 11000
  145.8085  139.1993  143.2006 LP  0  0  0  0  0  0  0  0  0  0  0  0  # atno 17320 bound_to 7965
  146.0616  140.7965  142.9732 LP  0  0  0  0  0  0  0  0  0  0  0  0  # atno 17321 bound_to 7965
  140.4472  144.1905  150.5895 LP  0  0  0  0  0  0  0  0  0  0  0  0  # atno 17342 bound_to 10162
  140.4622  143.2444  151.9203 LP  0  0  0  0  0  0  0  0  0  0  0  0  # atno 17343 bound_to 10162
  156.0077  130.3848  150.2373 LP  0  0  0  0  0  0  0  0  0  0  0  0  # atno 17370 bound_to 10713
  157.0556  131.0075  151.3239 LP  0  0  0  0  0  0  0  0  0  0  0  0  # atno 17371 bound_to 10713
  140.3347  134.7899  157.4353 LP  0  0  0  0  0  0  0  0  0  0  0  0  # atno 17394 bound_to 11000
  140.0987  134.5502  155.8373 LP  0  0  0  0  0  0  0  0  0  0  0  0  # atno 17395 bound_to 11000

$$$$
