AV-unprocessed.smi:2061|AV-procd|sdf|8392|dock4
  -GOLD-   2272011 73D 1   1.00000     0.00000
 Structure written by MMmdl.
 45 46  0  0  0  0  0  0  0  0  3 V2000
  153.1421  142.0128  160.5246 C   0  0  0  0  0  0  0  0  0  0  0  0
  152.3809  142.5642  159.3674 C   0  0  0  0  0  0  0  0  0  0  0  0
  151.6780  141.9753  158.3544 C   0  0  0  0  0  0  0  0  0  0  0  0
  151.2048  143.0845  157.6043 C   0  0  0  0  0  0  0  0  0  0  0  0
  150.4256  142.8902  156.4334 N   0  0  0  0  0  0  0  0  0  0  0  0
  150.1980  141.7485  155.7602 C   0  0  0  0  0  0  0  0  0  0  0  0
  150.8004  140.7128  156.0674 O   0  0  0  0  0  0  0  0  0  0  0  0
  149.2654  141.8997  154.7791 N   0  5  0  0  0  0  0  0  0  0  0  0
  148.5807  140.7988  154.0918 C   0  0  0  0  0  0  0  0  0  0  0  0
  147.2595  140.4000  154.8081 C   0  0  2  0  0  0  0  0  0  0  0  0
  146.5556  139.1589  154.2044 C   0  0  0  0  0  0  0  0  0  0  0  0
  146.3669  141.5879  154.9965 N   0  3  1  0  0  0  0  0  0  0  0  0
  146.0521  142.3922  153.7872 C   0  0  0  0  0  0  0  0  0  0  0  0
  145.3762  143.7082  154.2036 C   0  0  1  0  0  0  0  0  0  0  0  0
  144.9826  144.5608  152.9928 C   0  0  0  0  0  0  0  0  0  0  0  0
  144.1920  143.4097  154.9403 O   0  0  0  0  0  0  0  0  0  0  0  0
  144.3963  142.6182  156.1121 C   0  0  2  0  0  0  0  0  0  0  0  0
  145.0806  143.4168  157.2360 C   0  0  0  0  0  0  0  0  0  0  0  0
  145.1279  141.3068  155.7600 C   0  0  0  0  0  0  0  0  0  0  0  0
  151.5933  144.2464  158.1093 N   0  0  0  0  0  0  0  0  0  0  0  0
  152.3456  143.9188  159.2433 O   0  0  0  0  0  0  0  0  0  0  0  0
  153.8937  141.2991  160.1873 H   0  0  0  0  0  0  0  0  0  0  0  0
  152.4737  141.4991  161.2156 H   0  0  0  0  0  0  0  0  0  0  0  0
  153.6516  142.8048  161.0740 H   0  0  0  0  0  0  0  0  0  0  0  0
  151.5261  140.9207  158.1803 H   0  0  0  0  0  0  0  0  0  0  0  0
  149.9453  143.7077  156.0879 H   0  0  0  0  0  0  0  0  0  0  0  0
  148.3492  141.0699  153.0617 H   0  0  0  0  0  0  0  0  0  0  0  0
  149.2130  139.9132  154.0121 H   0  0  0  0  0  0  0  0  0  0  0  0
  147.5785  140.0818  155.8016 H   0  0  0  0  0  0  0  0  0  0  0  0
  147.2074  138.2835  154.2114 H   0  0  0  0  0  0  0  0  0  0  0  0
  146.2336  139.3118  153.1729 H   0  0  0  0  0  0  0  0  0  0  0  0
  145.6742  138.8928  154.7881 H   0  0  0  0  0  0  0  0  0  0  0  0
  146.9622  142.6183  153.2319 H   0  0  0  0  0  0  0  0  0  0  0  0
  145.3973  141.8298  153.1202 H   0  0  0  0  0  0  0  0  0  0  0  0
  146.0602  144.2938  154.8184 H   0  0  0  0  0  0  0  0  0  0  0  0
  145.8583  144.8253  152.3994 H   0  0  0  0  0  0  0  0  0  0  0  0
  144.5042  145.4880  153.3088 H   0  0  0  0  0  0  0  0  0  0  0  0
  144.2851  144.0296  152.3443 H   0  0  0  0  0  0  0  0  0  0  0  0
  143.4024  142.3551  156.4749 H   0  0  0  0  0  0  0  0  0  0  0  0
  145.1051  142.8406  158.1611 H   0  0  0  0  0  0  0  0  0  0  0  0
  144.5411  144.3420  157.4392 H   0  0  0  0  0  0  0  0  0  0  0  0
  146.1100  143.6773  156.9926 H   0  0  0  0  0  0  0  0  0  0  0  0
  144.4805  140.6637  155.1617 H   0  0  0  0  0  0  0  0  0  0  0  0
  145.3601  140.7615  156.6760 H   0  0  0  0  0  0  0  0  0  0  0  0
  146.9097  142.2013  155.5893 H   0  0  0  0  0  0  0  0  0  0  0  0
  1  2  1  0  0  0  0
  1 22  1  0  0  0  0
  1 23  1  0  0  0  0
  1 24  1  0  0  0  0
  2 21  1  0  0  0  0
  2  3  2  0  0  0  0
  3  4  1  0  0  0  0
  3 25  1  0  0  0  0
  4  5  1  0  0  0  0
  4 20  2  0  0  0  0
  5  6  1  0  0  0  0
  5 26  1  0  0  0  0
  6  7  2  0  0  0  0
  6  8  1  0  0  0  0
  8  9  1  0  0  0  0
  9 10  1  0  0  0  0
  9 27  1  0  0  0  0
  9 28  1  0  0  0  0
 10 11  1  0  0  0  0
 10 12  1  0  0  0  0
 10 29  1  0  0  0  0
 11 30  1  0  0  0  0
 11 31  1  0  0  0  0
 11 32  1  0  0  0  0
 12 19  1  0  0  0  0
 12 13  1  0  0  0  0
 12 45  1  0  0  0  0
 13 14  1  0  0  0  0
 13 33  1  0  0  0  0
 13 34  1  0  0  0  0
 14 15  1  0  0  0  0
 14 16  1  0  0  0  0
 14 35  1  0  0  0  0
 15 36  1  0  0  0  0
 15 37  1  0  0  0  0
 15 38  1  0  0  0  0
 16 17  1  0  0  0  0
 17 18  1  0  0  0  0
 17 19  1  0  0  0  0
 17 39  1  0  0  0  0
 18 40  1  0  0  0  0
 18 41  1  0  0  0  0
 18 42  1  0  0  0  0
 19 43  1  0  0  0  0
 19 44  1  0  0  0  0
 20 21  1  0  0  0  0
M  CHG  1   8  -1
M  CHG  1  12   1
M  END
> <s_m_source_file>
AV-unprocessed.smi

> <i_m_source_file_index>
2061

> <i_lp_mmshare_version>
43012

> <i_f3d_flags>
0

> <s_epik_input>
W0NIM11jMVtjSF1jKG5vMSlbTkhdQyg9TylbTkhdW0NIMl1bQ0BIXShbQ0gzXSlOMltDSDJdW0NAQEhdKFtDSDNdKU9bQ0BASF0oW0NIM10pW0NIMl0y

> <s_epik_cmdline>
J2VwaWtfcHl0aG9uJywgJy1waCcsICc3LjAnLCAnLXRuJywgJzgnLCAnLW1hJywgJzIwMCcsICctbWV0YWxfYmluZGluZycsICctaW1hZScsICc8aW5maWxlLm1hZT4nLCAnLW9tYWUnLCAnPG91dGZpbGUubWFlPic=

> <r_epik_Ionization_Penalty>
6.8073

> <r_epik_Ionization_Penalty_Charging>
6.80729

> <r_epik_Ionization_Penalty_Neutral>
5.65391e-06

> <r_epik_State_Penalty>
7.47323

> <r_epik_Charging_Adjusted_Penalty>
14.2805

> <i_epik_Tot_Q>
0

> <i_epik_Tot_abs_Q>
2

> <r_epik_Metal_State_Penalty>
3.40035

> <b_epik_Metal_Only>
1

> <s_lp_Force_Field>
OPLS_2005

> <r_lp_Energy>
16.7719

> <b_lp_Chiralities_Consistent>
1

> <s_lp_Variant>
AV-unprocessed.smi:2061-33

> <Gold.Version>
5.8.1

> <Gold.Id.Protein>
6NUR|6NUR_protein|mol2

> <Gold.PLP.Fitness>
39.8132

> <Gold.PLP.PLP>
-37.3865

> <Gold.PLP.part.hbond>
-1.9842

> <Gold.PLP.part.metal>
0.0000

> <Gold.PLP.part.buried>
-8.3163

> <Gold.PLP.part.nonpolar>
-28.0366

> <Gold.PLP.part.repulsive>
1.1146

> <Gold.PLP.ligand.clash>
0.0000

> <Gold.PLP.ligand.torsion>
0.3910

> <Gold.PLP.Chemscore.Hbond>
1.0000

> <Gold.PLP.Chemscore.CHOScore>
0.0000

> <Gold.PLP.Chemscore.Metal>
0.0000

> <Gold.Chemscore.Hbonds>
donor molecule, donor type, donor heavy atom, donor atom, acceptor molecule, acceptor atom, score
      L1  H     5    26       P1  8028  0.98

> <Gold.PLP.Chemscore.Internal.Correction>
0.2087

> <Gold.Rescore>
     Score         DG    S(hbond)    S(metal)    S(lipo)     H(rot)  DE(clash)    DE(int)     intcor
     11.83     -13.95       1.00        0.00      77.94       1.56       0.34       1.78       ----

> <Gold.Chemscore.Fitness>
11.8326

> <Gold.Chemscore.DG>
-13.9470

> <Gold.Chemscore.ZeroCoef>
-5.4800

> <Gold.Chemscore.Hbond>
0.9968

> <Gold.Chemscore.Metal>
0.0000

> <Gold.Chemscore.Lipo>
77.9359

> <Gold.Chemscore.Internal_Hbond>
0.0000

> <Gold.Chemscore.DEClash>
0.3350

> <Gold.Chemscore.DEInternal>
1.7794

> <Gold.Chemscore.Rot>
1.5550

> <Gold.Chemscore.Internal.Correction>
   9.000000E+99

> <Gold.Chemscore.Hbonds>
donor molecule, donor type, donor heavy atom, donor atom, acceptor molecule, acceptor atom, score
      L1  H     5    26       P1  8028  0.91

> <Gold.Chemscore.Hbond.Weighted>
-3.3294

> <Gold.Chemscore.Metal.Weighted>
-0.0000

> <Gold.Chemscore.Lipo.Weighted>
-9.1185

> <Gold.Chemscore.Internal_Hbond.Weighted>
0.0000

> <Gold.Chemscore.DEClash.Weighted>
0.3350

> <Gold.Chemscore.DEInternal.Weighted>
1.7794

> <Gold.Chemscore.Rot.Weighted>
3.9809

> <Gold.Chemscore.Internal.Correction.Weighted>
   9.000000E+99

> <Gold.Protein.RotatedTorsions>
[ 6907 6896 6895 6894 ] final -164.88 input  -60.11 | X-H torsion
[ 7974 7965 7964 7962 ] final  144.67 input  175.53 | X-H torsion
[ 8008 7997 7996 7995 ] final   59.09 input   59.86 | X-H torsion
[ 10167 10162 10161 10158 ] final  -31.37 input  -65.29 | X-H torsion
[ 10718 10713 10712 10709 ] final  -56.98 input   66.30 | X-H torsion
[ 10763 10752 10751 10750 ] final  155.59 input  -60.55 | X-H torsion
[ 11005 11000 10999 10996 ] final  177.11 input  -57.11 | X-H torsion

> <Gold.Protein.ActiveResidues>
 VAL166  LYS551  ARG553  GLY616  TRP617  ASP618  TYR619  PRO620  LYS621  CYS622 
 ASP623  PHE694  ASN695  SER759  ASP760  ASP761  ALA762  ILE779  LEU786  VAL792 
 PHE793  MET794  SER795  GLU796  ALA797  LYS798  CYS799  TRP800  GLU811  SER814 

> <Gold.Protein.RotatedAtoms>
  151.4189  133.3704  159.2753 H   0  0  0  0  0  0  0  0  0  0  0  0  # atno 6907 bound_to 6896
  150.9308  134.8725  159.7561 H   0  0  0  0  0  0  0  0  0  0  0  0  # atno 6908 bound_to 6896
  152.5027  134.4133  159.9508 H   0  0  0  0  0  0  0  0  0  0  0  0  # atno 6909 bound_to 6896
  144.8816  139.5691  143.5840 H   0  0  0  0  0  0  0  0  0  0  0  0  # atno 7974 bound_to 7965
  155.5605  140.3488  155.4490 H   0  0  0  0  0  0  0  0  0  0  0  0  # atno 8008 bound_to 7997
  156.0517  140.1319  157.0068 H   0  0  0  0  0  0  0  0  0  0  0  0  # atno 8009 bound_to 7997
  154.4437  140.1003  156.6371 H   0  0  0  0  0  0  0  0  0  0  0  0  # atno 8010 bound_to 7997
  140.7237  143.3776  151.1661 H   0  0  0  0  0  0  0  0  0  0  0  0  # atno 10167 bound_to 10162
  156.1246  130.4163  150.0379 H   0  0  0  0  0  0  0  0  0  0  0  0  # atno 10718 bound_to 10713
  154.1708  135.2804  155.3081 H   0  0  0  0  0  0  0  0  0  0  0  0  # atno 10763 bound_to 10752
  154.6076  135.5509  153.7443 H   0  0  0  0  0  0  0  0  0  0  0  0  # atno 10764 bound_to 10752
  153.0165  135.6407  154.1849 H   0  0  0  0  0  0  0  0  0  0  0  0  # atno 10765 bound_to 10752
  140.3805  134.6951  157.4448 H   0  0  0  0  0  0  0  0  0  0  0  0  # atno 11005 bound_to 11000
  146.2998  139.7390  142.9100 LP  0  0  0  0  0  0  0  0  0  0  0  0  # atno 17320 bound_to 7965
  145.3944  141.0377  143.3106 LP  0  0  0  0  0  0  0  0  0  0  0  0  # atno 17321 bound_to 7965
  139.7359  143.9000  152.3034 LP  0  0  0  0  0  0  0  0  0  0  0  0  # atno 17342 bound_to 10162
  139.8805  144.7020  150.8884 LP  0  0  0  0  0  0  0  0  0  0  0  0  # atno 17343 bound_to 10162
  156.8308  130.9392  151.3637 LP  0  0  0  0  0  0  0  0  0  0  0  0  # atno 17370 bound_to 10713
  157.6428  130.8819  149.9480 LP  0  0  0  0  0  0  0  0  0  0  0  0  # atno 17371 bound_to 10713
  140.0482  134.6168  155.8894 LP  0  0  0  0  0  0  0  0  0  0  0  0  # atno 17394 bound_to 11000
  141.1925  133.6575  156.5505 LP  0  0  0  0  0  0  0  0  0  0  0  0  # atno 17395 bound_to 11000

$$$$
