AV-unprocessed.smi:2344|AV-procd|sdf|9359|dock5
  -GOLD-   2272012583D 1   1.00000     0.00000
 Structure written by MMmdl.
 35 36  0  0  0  0  0  0  0  0  1 V2000
  153.6787  141.6640  160.8602 C   0  0  0  0  0  0  0  0  0  0  0  0
  152.6237  141.9062  159.8013 C   0  0  0  0  0  0  0  0  0  0  0  0
  152.3381  143.2085  159.3504 C   0  0  0  0  0  0  0  0  0  0  0  0
  151.3463  143.3838  158.3663 C   0  0  0  0  0  0  0  0  0  0  0  0
  150.6638  142.2561  157.8574 C   0  0  0  0  0  0  0  0  0  0  0  0
  149.6850  142.5425  156.8688 N   0  0  0  0  0  0  0  0  0  0  0  0
  148.8880  141.6809  156.2126 C   0  0  0  0  0  0  0  0  0  0  0  0
  148.8712  140.4601  156.3733 O   0  0  0  0  0  0  0  0  0  0  0  0
  148.0937  142.3215  155.3429 N   0  0  0  0  0  0  0  0  0  0  0  0
  147.1087  141.6756  154.4827 C   0  0  2  0  0  0  0  0  0  0  0  0
  146.2323  140.7520  155.2830 C   0  0  0  0  0  0  0  0  0  0  0  0
  146.2958  139.4905  154.8631 C   0  0  0  0  0  0  0  0  0  0  0  0
  147.2480  139.3029  153.7114 C   0  0  1  0  0  0  0  0  0  0  0  0
  146.5713  138.6291  152.5064 C   0  0  0  0  0  0  0  0  0  0  0  0
  147.4457  138.6208  151.3979 O   0  0  0  0  0  0  0  0  0  0  0  0
  147.7545  140.7412  153.4261 C   0  0  0  0  0  0  0  0  0  0  0  0
  150.9453  141.0050  158.2992 N   0  0  0  0  0  0  0  0  0  0  0  0
  151.8957  140.8376  159.2427 C   0  0  0  0  0  0  0  0  0  0  0  0
  146.4760  142.4252  154.0039 H   0  0  0  0  0  0  0  0  0  0  0  0
  148.0711  138.6817  154.0672 H   0  0  0  0  0  0  0  0  0  0  0  0
  154.5351  142.3213  160.7074 H   0  0  0  0  0  0  0  0  0  0  0  0
  154.0331  140.6332  160.8298 H   0  0  0  0  0  0  0  0  0  0  0  0
  153.2678  141.8576  161.8512 H   0  0  0  0  0  0  0  0  0  0  0  0
  152.8680  144.0606  159.7502 H   0  0  0  0  0  0  0  0  0  0  0  0
  151.1157  144.3770  158.0088 H   0  0  0  0  0  0  0  0  0  0  0  0
  149.5815  143.5177  156.6313 H   0  0  0  0  0  0  0  0  0  0  0  0
  148.1706  143.3256  155.2737 H   0  0  0  0  0  0  0  0  0  0  0  0
  145.6173  141.1048  156.0979 H   0  0  0  0  0  0  0  0  0  0  0  0
  145.7476  138.6660  155.2945 H   0  0  0  0  0  0  0  0  0  0  0  0
  146.3088  137.5981  152.7451 H   0  0  0  0  0  0  0  0  0  0  0  0
  145.6486  139.1445  152.2368 H   0  0  0  0  0  0  0  0  0  0  0  0
  148.0941  139.2971  151.5214 H   0  0  0  0  0  0  0  0  0  0  0  0
  147.4669  141.0687  152.4262 H   0  0  0  0  0  0  0  0  0  0  0  0
  148.8444  140.7734  153.4595 H   0  0  0  0  0  0  0  0  0  0  0  0
  152.0775  139.8210  159.5591 H   0  0  0  0  0  0  0  0  0  0  0  0
  1  2  1  0  0  0  0
  1 21  1  0  0  0  0
  1 22  1  0  0  0  0
  1 23  1  0  0  0  0
  2 18  1  0  0  0  0
  2  3  2  0  0  0  0
  3  4  1  0  0  0  0
  3 24  1  0  0  0  0
  4  5  2  0  0  0  0
  4 25  1  0  0  0  0
  5  6  1  0  0  0  0
  5 17  1  0  0  0  0
  6  7  1  0  0  0  0
  6 26  1  0  0  0  0
  7  8  2  0  0  0  0
  7  9  1  0  0  0  0
  9 10  1  0  0  0  0
  9 27  1  0  0  0  0
 10 19  1  0  0  0  0
 10 16  1  0  0  0  0
 10 11  1  0  0  0  0
 11 12  2  0  0  0  0
 11 28  1  0  0  0  0
 12 13  1  0  0  0  0
 12 29  1  0  0  0  0
 13 20  1  0  0  0  0
 13 14  1  0  0  0  0
 13 16  1  0  0  0  0
 14 15  1  0  0  0  0
 14 30  1  0  0  0  0
 14 31  1  0  0  0  0
 15 32  1  0  0  0  0
 16 33  1  0  0  0  0
 16 34  1  0  0  0  0
 17 18  2  0  0  0  0
 18 35  1  0  0  0  0
M  END
> <s_m_source_file>
AV-unprocessed.smi

> <i_m_source_file_index>
2344

> <i_lp_mmshare_version>
43012

> <i_f3d_flags>
0

> <s_epik_input>
W0NIM11jMVtjSF1bY0hdYyhuW2NIXTEpW05IXUMoPU8pW05IXVtDQEBIXTJbQ0hdPVtDSF1bQ0BASF0oW0NIMl0yKVtDSDJdW09IXQ==

> <s_epik_cmdline>
J2VwaWtfcHl0aG9uJywgJy1waCcsICc3LjAnLCAnLXRuJywgJzgnLCAnLW1hJywgJzIwMCcsICctbWV0YWxfYmluZGluZycsICctaW1hZScsICc8aW5maWxlLm1hZT4nLCAnLW9tYWUnLCAnPG91dGZpbGUubWFlPic=

> <r_lp_tautomer_probability>
1

> <r_epik_Ionization_Penalty>
5.7643e-05

> <r_epik_Ionization_Penalty_Charging>
0

> <r_epik_Ionization_Penalty_Neutral>
5.7643e-05

> <r_epik_State_Penalty>
-0

> <r_epik_Charging_Adjusted_Penalty>
0

> <i_epik_Tot_Q>
0

> <i_epik_Tot_abs_Q>
0

> <r_epik_Metal_State_Penalty>
-0

> <b_epik_Metal_Only>
0

> <s_lp_Force_Field>
OPLS_2005

> <r_lp_Energy>
17.7036

> <b_lp_Chiralities_Consistent>
1

> <s_lp_Variant>
AV-unprocessed.smi:2344-3

> <Gold.Version>
5.8.1

> <Gold.Id.Protein>
6NUR|6NUR_protein|mol2

> <Gold.PLP.Fitness>
46.2327

> <Gold.PLP.PLP>
-34.9985

> <Gold.PLP.part.hbond>
-5.0000

> <Gold.PLP.part.metal>
0.0000

> <Gold.PLP.part.buried>
-2.3562

> <Gold.PLP.part.nonpolar>
-27.9455

> <Gold.PLP.part.repulsive>
0.1793

> <Gold.PLP.ligand.clash>
0.0000

> <Gold.PLP.ligand.torsion>
0.0803

> <Gold.PLP.Chemscore.Hbond>
3.7936

> <Gold.PLP.Chemscore.CHOScore>
0.0000

> <Gold.PLP.Chemscore.Metal>
0.0000

> <Gold.Chemscore.Hbonds>
donor molecule, donor type, donor heavy atom, donor atom, acceptor molecule, acceptor atom, score
      L1  H     6    26       P1  8028  1.00
      L1  H     9    27       P1  8028  1.00
      L1  H    15    32       P1  7957  1.00
      P1  H  7954  7966       L1    15  0.84

> <Gold.PLP.Chemscore.Internal.Correction>
0.0140

> <Gold.Rescore>
     Score         DG    S(hbond)    S(metal)    S(lipo)     H(rot)  DE(clash)    DE(int)     intcor
     17.00     -19.76       2.87        0.00      79.92       1.82       0.09       2.67       ----

> <Gold.Chemscore.Fitness>
16.9970

> <Gold.Chemscore.DG>
-19.7615

> <Gold.Chemscore.ZeroCoef>
-5.4800

> <Gold.Chemscore.Hbond>
2.8699

> <Gold.Chemscore.Metal>
0.0000

> <Gold.Chemscore.Lipo>
79.9227

> <Gold.Chemscore.Internal_Hbond>
0.0000

> <Gold.Chemscore.DEClash>
0.0939

> <Gold.Chemscore.DEInternal>
2.6706

> <Gold.Chemscore.Rot>
1.8184

> <Gold.Chemscore.Internal.Correction>
   9.000000E+99

> <Gold.Chemscore.Hbonds>
donor molecule, donor type, donor heavy atom, donor atom, acceptor molecule, acceptor atom, score
      L1  H     6    26       P1  8028  0.94
      L1  H     9    27       P1  8028  0.86
      L1  H    15    32       P1  7957  0.89
      P1  H  7954  7966       L1    15  0.14

> <Gold.Chemscore.Hbond.Weighted>
-9.5856

> <Gold.Chemscore.Metal.Weighted>
-0.0000

> <Gold.Chemscore.Lipo.Weighted>
-9.3510

> <Gold.Chemscore.Internal_Hbond.Weighted>
0.0000

> <Gold.Chemscore.DEClash.Weighted>
0.0939

> <Gold.Chemscore.DEInternal.Weighted>
2.6706

> <Gold.Chemscore.Rot.Weighted>
4.6551

> <Gold.Chemscore.Internal.Correction.Weighted>
   9.000000E+99

> <Gold.Protein.RotatedTorsions>
[ 6907 6896 6895 6894 ] final  -18.75 input  -60.11 | X-H torsion
[ 7974 7965 7964 7962 ] final -133.52 input  175.53 | X-H torsion
[ 8008 7997 7996 7995 ] final  -23.49 input   59.86 | X-H torsion
[ 10167 10162 10161 10158 ] final -125.36 input  -65.29 | X-H torsion
[ 10718 10713 10712 10709 ] final  -39.54 input   66.30 | X-H torsion
[ 10763 10752 10751 10750 ] final  171.07 input  -60.55 | X-H torsion
[ 11005 11000 10999 10996 ] final    2.20 input  -57.11 | X-H torsion

> <Gold.Protein.ActiveResidues>
 VAL166  LYS551  ARG553  GLY616  TRP617  ASP618  TYR619  PRO620  LYS621  CYS622 
 ASP623  PHE694  ASN695  SER759  ASP760  ASP761  ALA762  ILE779  LEU786  VAL792 
 PHE793  MET794  SER795  GLU796  ALA797  LYS798  CYS799  TRP800  GLU811  SER814 

> <Gold.Protein.RotatedAtoms>
  151.2735  135.0692  159.9142 H   0  0  0  0  0  0  0  0  0  0  0  0  # atno 6907 bound_to 6896
  152.5346  134.0106  159.7947 H   0  0  0  0  0  0  0  0  0  0  0  0  # atno 6908 bound_to 6896
  151.0348  133.5708  159.2688 H   0  0  0  0  0  0  0  0  0  0  0  0  # atno 6909 bound_to 6896
  144.9186  140.6986  143.4979 H   0  0  0  0  0  0  0  0  0  0  0  0  # atno 7974 bound_to 7965
  154.4582  140.1979  156.0318 H   0  0  0  0  0  0  0  0  0  0  0  0  # atno 8008 bound_to 7997
  156.0789  140.3274  155.7640 H   0  0  0  0  0  0  0  0  0  0  0  0  # atno 8009 bound_to 7997
  155.5144  140.0564  157.2908 H   0  0  0  0  0  0  0  0  0  0  0  0  # atno 8010 bound_to 7997
  139.9830  143.5722  152.2371 H   0  0  0  0  0  0  0  0  0  0  0  0  # atno 10167 bound_to 10162
  156.2913  130.4228  149.8235 H   0  0  0  0  0  0  0  0  0  0  0  0  # atno 10718 bound_to 10713
  154.4067  135.2755  155.2062 H   0  0  0  0  0  0  0  0  0  0  0  0  # atno 10763 bound_to 10752
  154.4065  135.6032  153.5931 H   0  0  0  0  0  0  0  0  0  0  0  0  # atno 10764 bound_to 10752
  152.9831  135.5939  154.4343 H   0  0  0  0  0  0  0  0  0  0  0  0  # atno 10765 bound_to 10752
  140.6070  133.9784  155.8159 H   0  0  0  0  0  0  0  0  0  0  0  0  # atno 11005 bound_to 11000
  145.3334  139.1753  143.4525 LP  0  0  0  0  0  0  0  0  0  0  0  0  # atno 17320 bound_to 7965
  146.3194  140.3366  142.8644 LP  0  0  0  0  0  0  0  0  0  0  0  0  # atno 17321 bound_to 7965
  139.6396  144.7653  151.2367 LP  0  0  0  0  0  0  0  0  0  0  0  0  # atno 17342 bound_to 10162
  140.7482  143.6340  150.8396 LP  0  0  0  0  0  0  0  0  0  0  0  0  # atno 17343 bound_to 10162
  156.5647  130.8399  151.3339 LP  0  0  0  0  0  0  0  0  0  0  0  0  # atno 17370 bound_to 10713
  157.7343  130.9744  150.2023 LP  0  0  0  0  0  0  0  0  0  0  0  0  # atno 17371 bound_to 10713
  141.0834  134.0027  157.3351 LP  0  0  0  0  0  0  0  0  0  0  0  0  # atno 17394 bound_to 11000
  139.9208  135.0200  156.8057 LP  0  0  0  0  0  0  0  0  0  0  0  0  # atno 17395 bound_to 11000

$$$$
