AV-unprocessed.smi:1219|AV-procd|sdf|5113|dock2
  -GOLD-   22720 4173D 1   1.00000     0.00000
 Structure written by MMmdl.
 43 44  0  0  0  0  0  0  0  0  2 V2000
  150.5679  140.7445  155.6873 O   0  0  0  0  0  0  0  0  0  0  0  0
  149.9004  141.7772  155.6281 C   0  0  0  0  0  0  0  0  0  0  0  0
  148.9363  141.9819  154.7185 N   0  0  0  0  0  0  0  0  0  0  0  0
  148.5373  141.0341  153.6813 C   0  0  0  0  0  0  0  0  0  0  0  0
  147.1258  140.4494  153.9052 C   0  0  1  0  0  0  0  0  0  0  0  0
  146.1884  141.4856  153.6947 O   0  0  0  0  0  0  0  0  0  0  0  0
  146.7828  139.2781  152.9587 C   0  0  0  0  0  0  0  0  0  0  0  0
  145.4222  138.7389  153.2104 N   0  3  0  0  0  0  0  0  0  0  0  0
  145.1948  137.4320  152.5410 C   0  0  0  0  0  0  0  0  0  0  0  0
  143.7349  136.9735  152.7003 C   0  0  0  0  0  0  0  0  0  0  0  0
  143.3351  136.9073  154.1802 C   0  0  0  0  0  0  0  0  0  0  0  0
  143.6141  138.2545  154.8595 C   0  0  0  0  0  0  0  0  0  0  0  0
  145.0779  138.6789  154.6571 C   0  0  0  0  0  0  0  0  0  0  0  0
  150.0337  142.8378  156.4433 N   0  0  0  0  0  0  0  0  0  0  0  0
  150.9825  143.0310  157.4823 C   0  0  0  0  0  0  0  0  0  0  0  0
  151.3226  144.3783  157.7399 C   0  0  0  0  0  0  0  0  0  0  0  0
  152.2610  144.6757  158.7471 C   0  0  0  0  0  0  0  0  0  0  0  0
  152.8370  143.6164  159.4706 C   0  0  0  0  0  0  0  0  0  0  0  0
  152.4441  142.3037  159.1508 C   0  0  0  0  0  0  0  0  0  0  0  0
  151.5453  142.0166  158.1854 N   0  0  0  0  0  0  0  0  0  0  0  0
  148.4327  142.8562  154.7513 H   0  0  0  0  0  0  0  0  0  0  0  0
  148.5939  141.5261  152.7088 H   0  0  0  0  0  0  0  0  0  0  0  0
  149.2758  140.2317  153.6644 H   0  0  0  0  0  0  0  0  0  0  0  0
  147.0342  140.1402  154.9453 H   0  0  0  0  0  0  0  0  0  0  0  0
  145.4814  141.1529  153.1625 H   0  0  0  0  0  0  0  0  0  0  0  0
  146.8699  139.6259  151.9280 H   0  0  0  0  0  0  0  0  0  0  0  0
  147.5007  138.4631  153.0596 H   0  0  0  0  0  0  0  0  0  0  0  0
  145.4266  137.5171  151.4785 H   0  0  0  0  0  0  0  0  0  0  0  0
  145.8739  136.6854  152.9562 H   0  0  0  0  0  0  0  0  0  0  0  0
  143.0752  137.6645  152.1737 H   0  0  0  0  0  0  0  0  0  0  0  0
  143.5968  135.9979  152.2334 H   0  0  0  0  0  0  0  0  0  0  0  0
  142.2803  136.6478  154.2757 H   0  0  0  0  0  0  0  0  0  0  0  0
  143.8982  136.1184  154.6805 H   0  0  0  0  0  0  0  0  0  0  0  0
  142.9513  139.0177  154.4495 H   0  0  0  0  0  0  0  0  0  0  0  0
  143.3888  138.1885  155.9244 H   0  0  0  0  0  0  0  0  0  0  0  0
  145.7427  137.9756  155.1613 H   0  0  0  0  0  0  0  0  0  0  0  0
  145.2346  139.6484  155.1289 H   0  0  0  0  0  0  0  0  0  0  0  0
  149.3938  143.6039  156.2935 H   0  0  0  0  0  0  0  0  0  0  0  0
  150.8709  145.1804  157.1742 H   0  0  0  0  0  0  0  0  0  0  0  0
  152.5341  145.6987  158.9594 H   0  0  0  0  0  0  0  0  0  0  0  0
  153.5607  143.8045  160.2499 H   0  0  0  0  0  0  0  0  0  0  0  0
  152.8627  141.4618  159.6819 H   0  0  0  0  0  0  0  0  0  0  0  0
  144.7797  139.3892  152.7799 H   0  0  0  0  0  0  0  0  0  0  0  0
  1  2  2  0  0  0  0
  2  3  1  0  0  0  0
  2 14  1  0  0  0  0
  3  4  1  0  0  0  0
  3 21  1  0  0  0  0
  4  5  1  0  0  0  0
  4 22  1  0  0  0  0
  4 23  1  0  0  0  0
  5  6  1  0  0  0  0
  5  7  1  0  0  0  0
  5 24  1  0  0  0  0
  6 25  1  0  0  0  0
  7  8  1  0  0  0  0
  7 26  1  0  0  0  0
  7 27  1  0  0  0  0
  8 13  1  0  0  0  0
  8  9  1  0  0  0  0
  8 43  1  0  0  0  0
  9 10  1  0  0  0  0
  9 28  1  0  0  0  0
  9 29  1  0  0  0  0
 10 11  1  0  0  0  0
 10 30  1  0  0  0  0
 10 31  1  0  0  0  0
 11 12  1  0  0  0  0
 11 32  1  0  0  0  0
 11 33  1  0  0  0  0
 12 13  1  0  0  0  0
 12 34  1  0  0  0  0
 12 35  1  0  0  0  0
 13 36  1  0  0  0  0
 13 37  1  0  0  0  0
 14 15  1  0  0  0  0
 14 38  1  0  0  0  0
 15 20  1  0  0  0  0
 15 16  2  0  0  0  0
 16 17  1  0  0  0  0
 16 39  1  0  0  0  0
 17 18  2  0  0  0  0
 17 40  1  0  0  0  0
 18 19  1  0  0  0  0
 18 41  1  0  0  0  0
 19 20  2  0  0  0  0
 19 42  1  0  0  0  0
M  CHG  1   8   1
M  END
> <s_m_source_file>
AV-unprocessed.smi

> <i_m_source_file_index>
1219

> <i_lp_mmshare_version>
43012

> <i_f3d_flags>
0

> <s_epik_input>
bjFbY0hdW2NIXVtjSF1bY0hdYzFbTkhdQyg9TylbTkhdW0NIMl1bQ0BIXShbT0hdKVtDSDJdTjJbQ0gyXVtDSDJdW0NIMl1bQ0gyXVtDSDJdMg==

> <s_epik_cmdline>
J2VwaWtfcHl0aG9uJywgJy1waCcsICc3LjAnLCAnLXRuJywgJzgnLCAnLW1hJywgJzIwMCcsICctbWV0YWxfYmluZGluZycsICctaW1hZScsICc8aW5maWxlLm1hZT4nLCAnLW9tYWUnLCAnPG91dGZpbGUubWFlPic=

> <r_epik_Ionization_Penalty>
0.00510026

> <r_epik_Ionization_Penalty_Charging>
0.00506051

> <r_epik_Ionization_Penalty_Neutral>
3.97538e-05

> <r_epik_State_Penalty>
0.00368188

> <r_epik_Charging_Adjusted_Penalty>
0.0087424

> <i_epik_Tot_Q>
1

> <i_epik_Tot_abs_Q>
1

> <r_epik_Metal_State_Penalty>
-0

> <b_epik_Metal_Only>
0

> <s_lp_Force_Field>
OPLS_2005

> <r_lp_Energy>
19.3775

> <b_lp_Chiralities_Consistent>
1

> <s_lp_Variant>
AV-unprocessed.smi:1219-2

> <Gold.Version>
5.8.1

> <Gold.Id.Protein>
6NUR|6NUR_protein|mol2

> <Gold.PLP.Fitness>
52.2434

> <Gold.PLP.PLP>
-37.6742

> <Gold.PLP.part.hbond>
-4.8974

> <Gold.PLP.part.metal>
0.0000

> <Gold.PLP.part.buried>
-1.7411

> <Gold.PLP.part.nonpolar>
-31.3718

> <Gold.PLP.part.repulsive>
0.3690

> <Gold.PLP.ligand.clash>
0.0000

> <Gold.PLP.ligand.torsion>
0.3943

> <Gold.PLP.Chemscore.Hbond>
5.0940

> <Gold.PLP.Chemscore.CHOScore>
0.0000

> <Gold.PLP.Chemscore.Metal>
0.0000

> <Gold.Chemscore.Hbonds>
donor molecule, donor type, donor heavy atom, donor atom, acceptor molecule, acceptor atom, score
      L1  H     3    21       P1  8028  0.56
      L1  H     6    25       P1 10175  1.00
      L1  H     8    43       P1 10175  2.00
      L1  H    14    38       P1  8028  0.62

> <Gold.PLP.Chemscore.Internal.Correction>
0.0757

> <Gold.Rescore>
     Score         DG    S(hbond)    S(metal)    S(lipo)     H(rot)  DE(clash)    DE(int)     intcor
     17.94     -19.52       3.22        0.00      80.60       2.41       0.03       1.54       ----

> <Gold.Chemscore.Fitness>
17.9419

> <Gold.Chemscore.DG>
-19.5157

> <Gold.Chemscore.ZeroCoef>
-5.4800

> <Gold.Chemscore.Hbond>
3.2237

> <Gold.Chemscore.Metal>
0.0000

> <Gold.Chemscore.Lipo>
80.5972

> <Gold.Chemscore.Internal_Hbond>
0.0000

> <Gold.Chemscore.DEClash>
0.0310

> <Gold.Chemscore.DEInternal>
1.5429

> <Gold.Chemscore.Rot>
2.4067

> <Gold.Chemscore.Internal.Correction>
   9.000000E+99

> <Gold.Chemscore.Hbonds>
donor molecule, donor type, donor heavy atom, donor atom, acceptor molecule, acceptor atom, score
      L1  H     3    21       P1  8028  0.54
      L1  H     6    25       P1 10175  0.24
      L1  H     8    43       P1 10175  0.97
      L1  H    14    38       P1  8028  0.62
      P1  H  7989  7998       L1     1  0.01

> <Gold.Chemscore.Hbond.Weighted>
-10.7671

> <Gold.Chemscore.Metal.Weighted>
-0.0000

> <Gold.Chemscore.Lipo.Weighted>
-9.4299

> <Gold.Chemscore.Internal_Hbond.Weighted>
0.0000

> <Gold.Chemscore.DEClash.Weighted>
0.0310

> <Gold.Chemscore.DEInternal.Weighted>
1.5429

> <Gold.Chemscore.Rot.Weighted>
6.1612

> <Gold.Chemscore.Internal.Correction.Weighted>
   9.000000E+99

> <Gold.Protein.RotatedTorsions>
[ 6907 6896 6895 6894 ] final   32.28 input  -60.11 | X-H torsion
[ 7974 7965 7964 7962 ] final -168.58 input  175.53 | X-H torsion
[ 8008 7997 7996 7995 ] final   78.37 input   59.86 | X-H torsion
[ 10167 10162 10161 10158 ] final  108.49 input  -65.29 | X-H torsion
[ 10718 10713 10712 10709 ] final   87.31 input   66.30 | X-H torsion
[ 10763 10752 10751 10750 ] final  -65.43 input  -60.55 | X-H torsion
[ 11005 11000 10999 10996 ] final  177.95 input  -57.11 | X-H torsion

> <Gold.Protein.ActiveResidues>
 VAL166  LYS551  ARG553  GLY616  TRP617  ASP618  TYR619  PRO620  LYS621  CYS622 
 ASP623  PHE694  ASN695  SER759  ASP760  ASP761  ALA762  ILE779  LEU786  VAL792 
 PHE793  MET794  SER795  GLU796  ALA797  LYS798  CYS799  TRP800  GLU811  SER814 

> <Gold.Protein.RotatedAtoms>
  152.0723  134.9525  160.0574 H   0  0  0  0  0  0  0  0  0  0  0  0  # atno 6907 bound_to 6896
  152.0846  133.4165  159.4525 H   0  0  0  0  0  0  0  0  0  0  0  0  # atno 6908 bound_to 6896
  150.6836  134.2862  159.4691 H   0  0  0  0  0  0  0  0  0  0  0  0  # atno 6909 bound_to 6896
  144.7200  140.2348  143.6299 H   0  0  0  0  0  0  0  0  0  0  0  0  # atno 7974 bound_to 7965
  155.8548  140.3456  155.5717 H   0  0  0  0  0  0  0  0  0  0  0  0  # atno 8008 bound_to 7997
  155.7998  140.0883  157.1983 H   0  0  0  0  0  0  0  0  0  0  0  0  # atno 8009 bound_to 7997
  154.4009  140.1467  156.3248 H   0  0  0  0  0  0  0  0  0  0  0  0  # atno 8010 bound_to 7997
  139.6842  144.7115  151.1462 H   0  0  0  0  0  0  0  0  0  0  0  0  # atno 10167 bound_to 10162
  157.6939  131.0250  150.3104 H   0  0  0  0  0  0  0  0  0  0  0  0  # atno 10718 bound_to 10713
  154.3450  135.6148  153.5614 H   0  0  0  0  0  0  0  0  0  0  0  0  # atno 10763 bound_to 10752
  152.9802  135.5778  154.4809 H   0  0  0  0  0  0  0  0  0  0  0  0  # atno 10764 bound_to 10752
  154.4520  135.2853  155.1751 H   0  0  0  0  0  0  0  0  0  0  0  0  # atno 10765 bound_to 10752
  140.3897  134.6873  157.4500 H   0  0  0  0  0  0  0  0  0  0  0  0  # atno 11005 bound_to 11000
  145.8376  139.2114  143.1846 LP  0  0  0  0  0  0  0  0  0  0  0  0  # atno 17320 bound_to 7965
  146.0375  140.8197  142.9845 LP  0  0  0  0  0  0  0  0  0  0  0  0  # atno 17321 bound_to 7965
  140.7662  143.5655  150.9053 LP  0  0  0  0  0  0  0  0  0  0  0  0  # atno 17342 bound_to 10162
  139.9328  143.6473  152.3072 LP  0  0  0  0  0  0  0  0  0  0  0  0  # atno 17343 bound_to 10162
  156.3607  130.3846  149.7254 LP  0  0  0  0  0  0  0  0  0  0  0  0  # atno 17370 bound_to 10713
  156.4701  130.7992  151.3011 LP  0  0  0  0  0  0  0  0  0  0  0  0  # atno 17371 bound_to 10713
  140.0416  134.6259  155.8974 LP  0  0  0  0  0  0  0  0  0  0  0  0  # atno 17394 bound_to 11000
  141.1895  133.6565  156.5371 LP  0  0  0  0  0  0  0  0  0  0  0  0  # atno 17395 bound_to 11000

$$$$
