AV-unprocessed.smi:3051|AV-procd|sdf|11634|dock3
  -GOLD-   2272017 23D 1   1.00000     0.00000
 Structure written by MMmdl.
 37 37  0  0  0  0  0  0  0  0  1 V2000
  145.8116  146.5484  159.5508 C   0  0  0  0  0  0  0  0  0  0  0  0
  146.6098  145.2819  159.8865 C   0  0  0  0  0  0  0  0  0  0  0  0
  148.0184  145.4286  159.5414 N   0  0  0  0  0  0  0  0  0  0  0  0
  149.0451  144.9288  160.2473 C   0  0  0  0  0  0  0  0  0  0  0  0
  148.9045  144.2683  161.2762 O   0  0  0  0  0  0  0  0  0  0  0  0
  150.4478  145.2170  159.7095 C   0  0  0  0  0  0  0  0  0  0  0  0
  151.2364  144.0008  159.6260 N   0  0  0  0  0  0  0  0  0  0  0  0
  152.3301  143.6339  160.3857 C   0  0  0  0  0  0  0  0  0  0  0  0
  152.7542  142.4164  159.9338 C   0  0  0  0  0  0  0  0  0  0  0  0
  151.8442  142.1247  158.8813 C   0  0  0  0  0  0  0  0  0  0  0  0
  151.9351  140.9494  158.1259 N   0  0  0  0  0  0  0  0  0  0  0  0
  150.9869  140.6768  157.0516 C   0  0  1  0  0  0  0  0  0  0  0  0
  149.5389  140.8508  157.5408 C   0  0  0  0  0  0  0  0  0  0  0  0
  151.2703  141.5909  155.8496 C   0  0  0  0  0  0  0  0  0  0  0  0
  150.6656  141.0431  154.6893 O   0  0  0  0  0  0  0  0  0  0  0  0
  149.5506  141.7987  154.2503 C   0  0  0  0  0  0  0  0  0  0  0  0
  150.9304  143.0657  158.6996 N   0  0  0  0  0  0  0  0  0  0  0  0
  144.7678  146.4361  159.8443 H   0  0  0  0  0  0  0  0  0  0  0  0
  145.8330  146.7603  158.4814 H   0  0  0  0  0  0  0  0  0  0  0  0
  146.2121  147.4173  160.0738 H   0  0  0  0  0  0  0  0  0  0  0  0
  146.5421  145.0773  160.9550 H   0  0  0  0  0  0  0  0  0  0  0  0
  146.1822  144.4168  159.3772 H   0  0  0  0  0  0  0  0  0  0  0  0
  148.2320  145.9624  158.7108 H   0  0  0  0  0  0  0  0  0  0  0  0
  150.3833  145.6622  158.7156 H   0  0  0  0  0  0  0  0  0  0  0  0
  150.9551  145.9384  160.3523 H   0  0  0  0  0  0  0  0  0  0  0  0
  152.7134  144.2663  161.1729 H   0  0  0  0  0  0  0  0  0  0  0  0
  153.5873  141.8321  160.2955 H   0  0  0  0  0  0  0  0  0  0  0  0
  152.6694  140.2820  158.3133 H   0  0  0  0  0  0  0  0  0  0  0  0
  151.1158  139.6443  156.7241 H   0  0  0  0  0  0  0  0  0  0  0  0
  148.8283  140.6272  156.7448 H   0  0  0  0  0  0  0  0  0  0  0  0
  149.3532  141.8724  157.8742 H   0  0  0  0  0  0  0  0  0  0  0  0
  149.3118  140.1841  158.3728 H   0  0  0  0  0  0  0  0  0  0  0  0
  150.8512  142.5819  156.0321 H   0  0  0  0  0  0  0  0  0  0  0  0
  152.3450  141.7147  155.7039 H   0  0  0  0  0  0  0  0  0  0  0  0
  149.1277  141.3423  153.3555 H   0  0  0  0  0  0  0  0  0  0  0  0
  149.8395  142.8209  154.0020 H   0  0  0  0  0  0  0  0  0  0  0  0
  148.7709  141.8303  155.0125 H   0  0  0  0  0  0  0  0  0  0  0  0
  1  2  1  0  0  0  0
  1 18  1  0  0  0  0
  1 19  1  0  0  0  0
  1 20  1  0  0  0  0
  2  3  1  0  0  0  0
  2 21  1  0  0  0  0
  2 22  1  0  0  0  0
  3  4  1  0  0  0  0
  3 23  1  0  0  0  0
  4  5  2  0  0  0  0
  4  6  1  0  0  0  0
  6  7  1  0  0  0  0
  6 24  1  0  0  0  0
  6 25  1  0  0  0  0
  7 17  1  0  0  0  0
  7  8  1  0  0  0  0
  8  9  2  0  0  0  0
  8 26  1  0  0  0  0
  9 10  1  0  0  0  0
  9 27  1  0  0  0  0
 10 11  1  0  0  0  0
 10 17  2  0  0  0  0
 11 12  1  0  0  0  0
 11 28  1  0  0  0  0
 12 13  1  0  0  0  0
 12 14  1  0  0  0  0
 12 29  1  0  0  0  0
 13 30  1  0  0  0  0
 13 31  1  0  0  0  0
 13 32  1  0  0  0  0
 14 15  1  0  0  0  0
 14 33  1  0  0  0  0
 14 34  1  0  0  0  0
 15 16  1  0  0  0  0
 16 35  1  0  0  0  0
 16 36  1  0  0  0  0
 16 37  1  0  0  0  0
M  END
> <s_m_source_file>
AV-unprocessed.smi

> <i_m_source_file_index>
3051

> <i_lp_mmshare_version>
43012

> <i_f3d_flags>
0

> <s_epik_input>
W0NIM11bQ0gyXVtOSF1DKD1PKVtDSDJdbjFbY0hdW2NIXWMobjEpW05IXVtDQEhdKFtDSDNdKVtDSDJdT1tDSDNd

> <s_epik_cmdline>
J2VwaWtfcHl0aG9uJywgJy1waCcsICc3LjAnLCAnLXRuJywgJzgnLCAnLW1hJywgJzIwMCcsICctbWV0YWxfYmluZGluZycsICctaW1hZScsICc8aW5maWxlLm1hZT4nLCAnLW9tYWUnLCAnPG91dGZpbGUubWFlPic=

> <r_lp_tautomer_probability>
1

> <r_epik_Ionization_Penalty>
0.00023157

> <r_epik_Ionization_Penalty_Charging>
0

> <r_epik_Ionization_Penalty_Neutral>
0.00023157

> <r_epik_State_Penalty>
-0

> <r_epik_Charging_Adjusted_Penalty>
0

> <i_epik_Tot_Q>
0

> <i_epik_Tot_abs_Q>
0

> <r_epik_Metal_State_Penalty>
-0

> <b_epik_Metal_Only>
0

> <s_lp_Force_Field>
OPLS_2005

> <r_lp_Energy>
3.21547

> <b_lp_Chiralities_Consistent>
1

> <s_lp_Variant>
AV-unprocessed.smi:3051-2

> <Gold.Version>
5.8.1

> <Gold.Id.Protein>
6NUR|6NUR_protein|mol2

> <Gold.PLP.Fitness>
40.1726

> <Gold.PLP.PLP>
-34.6689

> <Gold.PLP.part.hbond>
-2.8631

> <Gold.PLP.part.metal>
0.0000

> <Gold.PLP.part.buried>
-6.5856

> <Gold.PLP.part.nonpolar>
-26.1468

> <Gold.PLP.part.repulsive>
0.6766

> <Gold.PLP.ligand.clash>
0.0000

> <Gold.PLP.ligand.torsion>
0.9515

> <Gold.PLP.Chemscore.Hbond>
2.4511

> <Gold.PLP.Chemscore.CHOScore>
0.0000

> <Gold.PLP.Chemscore.Metal>
0.0000

> <Gold.Chemscore.Hbonds>
donor molecule, donor type, donor heavy atom, donor atom, acceptor molecule, acceptor atom, score
      L1  H     3    23       P1  8029  0.65
      P1  H  6933  6944       L1     5  0.66
      P1  H  7989  7998       L1    15  0.67

> <Gold.PLP.Chemscore.Internal.Correction>
0.0533

> <Gold.Rescore>
     Score         DG    S(hbond)    S(metal)    S(lipo)     H(rot)  DE(clash)    DE(int)     intcor
     13.33     -15.20       2.40        0.00      62.44       2.19       0.02       1.85       ----

> <Gold.Chemscore.Fitness>
13.3296

> <Gold.Chemscore.DG>
-15.1967

> <Gold.Chemscore.ZeroCoef>
-5.4800

> <Gold.Chemscore.Hbond>
2.3998

> <Gold.Chemscore.Metal>
0.0000

> <Gold.Chemscore.Lipo>
62.4371

> <Gold.Chemscore.Internal_Hbond>
0.0000

> <Gold.Chemscore.DEClash>
0.0155

> <Gold.Chemscore.DEInternal>
1.8516

> <Gold.Chemscore.Rot>
2.1890

> <Gold.Chemscore.Internal.Correction>
   9.000000E+99

> <Gold.Chemscore.Hbonds>
donor molecule, donor type, donor heavy atom, donor atom, acceptor molecule, acceptor atom, score
      L1  H     3    23       P1  8029  0.62
      P1  H  6933  6944       L1     5  0.66
      P1  H  7989  7998       L1    15  0.34

> <Gold.Chemscore.Hbond.Weighted>
-8.0155

> <Gold.Chemscore.Metal.Weighted>
-0.0000

> <Gold.Chemscore.Lipo.Weighted>
-7.3051

> <Gold.Chemscore.Internal_Hbond.Weighted>
0.0000

> <Gold.Chemscore.DEClash.Weighted>
0.0155

> <Gold.Chemscore.DEInternal.Weighted>
1.8516

> <Gold.Chemscore.Rot.Weighted>
5.6039

> <Gold.Chemscore.Internal.Correction.Weighted>
   9.000000E+99

> <Gold.Protein.RotatedTorsions>
[ 6907 6896 6895 6894 ] final   15.47 input  -60.11 | X-H torsion
[ 7974 7965 7964 7962 ] final   92.35 input  175.53 | X-H torsion
[ 8008 7997 7996 7995 ] final -109.55 input   59.86 | X-H torsion
[ 10167 10162 10161 10158 ] final   31.95 input  -65.29 | X-H torsion
[ 10718 10713 10712 10709 ] final -158.93 input   66.30 | X-H torsion
[ 10763 10752 10751 10750 ] final  155.09 input  -60.55 | X-H torsion
[ 11005 11000 10999 10996 ] final  -65.71 input  -57.11 | X-H torsion

> <Gold.Protein.ActiveResidues>
 VAL166  LYS551  ARG553  GLY616  TRP617  ASP618  TYR619  PRO620  LYS621  CYS622 
 ASP623  PHE694  ASN695  SER759  ASP760  ASP761  ALA762  ILE779  LEU786  VAL792 
 PHE793  MET794  SER795  GLU796  ALA797  LYS798  CYS799  TRP800  GLU811  SER814 

> <Gold.Protein.RotatedAtoms>
  151.8185  135.0659  160.0421 H   0  0  0  0  0  0  0  0  0  0  0  0  # atno 6907 bound_to 6896
  152.2968  133.5611  159.5601 H   0  0  0  0  0  0  0  0  0  0  0  0  # atno 6908 bound_to 6896
  150.7255  134.0265  159.3761 H   0  0  0  0  0  0  0  0  0  0  0  0  # atno 6909 bound_to 6896
  145.4934  139.2276  143.2817 H   0  0  0  0  0  0  0  0  0  0  0  0  # atno 7974 bound_to 7965
  154.9610  140.0399  157.2190 H   0  0  0  0  0  0  0  0  0  0  0  0  # atno 8008 bound_to 7997
  154.7889  140.2832  155.5984 H   0  0  0  0  0  0  0  0  0  0  0  0  # atno 8009 bound_to 7997
  156.2947  140.2577  156.2732 H   0  0  0  0  0  0  0  0  0  0  0  0  # atno 8010 bound_to 7997
  140.4542  144.1003  150.6198 H   0  0  0  0  0  0  0  0  0  0  0  0  # atno 10167 bound_to 10162
  156.5610  130.8647  151.2809 H   0  0  0  0  0  0  0  0  0  0  0  0  # atno 10718 bound_to 10713
  154.1627  135.2809  155.3104 H   0  0  0  0  0  0  0  0  0  0  0  0  # atno 10763 bound_to 10752
  154.6134  135.5491  153.7501 H   0  0  0  0  0  0  0  0  0  0  0  0  # atno 10764 bound_to 10752
  153.0187  135.6421  154.1769 H   0  0  0  0  0  0  0  0  0  0  0  0  # atno 10765 bound_to 10752
  141.1462  133.6686  156.6027 H   0  0  0  0  0  0  0  0  0  0  0  0  # atno 11005 bound_to 11000
  146.2270  140.5730  142.8992 LP  0  0  0  0  0  0  0  0  0  0  0  0  # atno 17320 bound_to 7965
  144.7821  140.5861  143.6599 LP  0  0  0  0  0  0  0  0  0  0  0  0  # atno 17321 bound_to 7965
  140.4171  143.2629  151.9762 LP  0  0  0  0  0  0  0  0  0  0  0  0  # atno 17342 bound_to 10162
  139.4799  144.5864  151.7846 LP  0  0  0  0  0  0  0  0  0  0  0  0  # atno 17343 bound_to 10162
  157.7368  130.9786  150.2159 LP  0  0  0  0  0  0  0  0  0  0  0  0  # atno 17370 bound_to 10713
  156.2799  130.3732  149.7946 LP  0  0  0  0  0  0  0  0  0  0  0  0  # atno 17371 bound_to 10713
  140.3676  134.7634  157.4576 LP  0  0  0  0  0  0  0  0  0  0  0  0  # atno 17394 bound_to 11000
  140.0736  134.5828  155.8615 LP  0  0  0  0  0  0  0  0  0  0  0  0  # atno 17395 bound_to 11000

$$$$
