AV-unprocessed.smi:1844|AV-procd|sdf|7508|dock9
  -GOLD-   22720 9213D 1   1.00000     0.00000
 Structure written by MMmdl.
 45 46  0  0  0  0  0  0  0  0  1 V2000
  146.8154  138.5324  151.5370 C   0  0  0  0  0  0  0  0  0  0  0  0
  147.9255  138.7938  152.4407 N   0  0  0  0  0  0  0  0  0  0  0  0
  147.9061  139.7055  153.4268 C   0  0  0  0  0  0  0  0  0  0  0  0
  146.9128  140.4018  153.6435 O   0  0  0  0  0  0  0  0  0  0  0  0
  149.1532  139.7772  154.1922 C   0  0  0  0  0  0  0  0  0  0  0  0
  150.0436  138.6401  154.3738 C   0  0  0  0  0  0  0  0  0  0  0  0
  151.1836  138.7679  155.0807 C   0  0  0  0  0  0  0  0  0  0  0  0
  151.5735  140.0407  155.6939 C   0  0  0  0  0  0  0  0  0  0  0  0
  152.6163  140.1641  156.3371 O   0  0  0  0  0  0  0  0  0  0  0  0
  150.7053  141.0806  155.5065 N   0  0  0  0  0  0  0  0  0  0  0  0
  150.9850  142.4091  156.0771 C   0  0  0  0  0  0  0  0  0  0  0  0
  151.2850  142.3808  157.5827 C   0  0  0  0  0  0  0  0  0  0  0  0
  150.4888  141.8844  158.3812 O   0  0  0  0  0  0  0  0  0  0  0  0
  152.4581  142.9170  157.9515 N   0  0  0  0  0  0  0  0  0  0  0  0
  152.9590  143.0033  159.3217 C   0  0  2  0  0  0  0  0  0  0  0  0
  153.1754  141.5823  159.8837 C   0  0  0  0  0  0  0  0  0  0  0  0
  153.6362  141.6131  161.3479 C   0  0  0  0  0  0  0  0  0  0  0  0
  152.6481  142.4002  162.2186 C   0  0  0  0  0  0  0  0  0  0  0  0
  152.4472  143.8221  161.6738 C   0  0  0  0  0  0  0  0  0  0  0  0
  151.9781  143.8150  160.2045 C   0  0  1  0  0  0  0  0  0  0  0  0
  151.7801  145.2541  159.6950 C   0  0  0  0  0  0  0  0  0  0  0  0
  149.5179  140.9429  154.7611 C   0  0  0  0  0  0  0  0  0  0  0  0
  147.0654  137.7069  150.8710 H   0  0  0  0  0  0  0  0  0  0  0  0
  146.5989  139.4098  150.9268 H   0  0  0  0  0  0  0  0  0  0  0  0
  145.9155  138.2623  152.0907 H   0  0  0  0  0  0  0  0  0  0  0  0
  148.7655  138.2496  152.3090 H   0  0  0  0  0  0  0  0  0  0  0  0
  149.8160  137.6741  153.9476 H   0  0  0  0  0  0  0  0  0  0  0  0
  151.8295  137.9101  155.1999 H   0  0  0  0  0  0  0  0  0  0  0  0
  151.8333  142.8704  155.5694 H   0  0  0  0  0  0  0  0  0  0  0  0
  150.1451  143.0820  155.8936 H   0  0  0  0  0  0  0  0  0  0  0  0
  153.0510  143.2973  157.2280 H   0  0  0  0  0  0  0  0  0  0  0  0
  153.9181  143.5251  159.3192 H   0  0  0  0  0  0  0  0  0  0  0  0
  152.2486  141.0115  159.8104 H   0  0  0  0  0  0  0  0  0  0  0  0
  153.9130  141.0486  159.2830 H   0  0  0  0  0  0  0  0  0  0  0  0
  153.7383  140.5959  161.7269 H   0  0  0  0  0  0  0  0  0  0  0  0
  154.6252  142.0686  161.4112 H   0  0  0  0  0  0  0  0  0  0  0  0
  151.6902  141.8795  162.2494 H   0  0  0  0  0  0  0  0  0  0  0  0
  153.0105  142.4434  163.2462 H   0  0  0  0  0  0  0  0  0  0  0  0
  151.7213  144.3482  162.2949 H   0  0  0  0  0  0  0  0  0  0  0  0
  153.3828  144.3768  161.7582 H   0  0  0  0  0  0  0  0  0  0  0  0
  151.0060  143.3204  160.1725 H   0  0  0  0  0  0  0  0  0  0  0  0
  152.7243  145.7994  159.6766 H   0  0  0  0  0  0  0  0  0  0  0  0
  151.0919  145.8050  160.3367 H   0  0  0  0  0  0  0  0  0  0  0  0
  151.3657  145.2734  158.6870 H   0  0  0  0  0  0  0  0  0  0  0  0
  148.9350  141.8501  154.6825 H   0  0  0  0  0  0  0  0  0  0  0  0
  1  2  1  0  0  0  0
  1 23  1  0  0  0  0
  1 24  1  0  0  0  0
  1 25  1  0  0  0  0
  2  3  1  0  0  0  0
  2 26  1  0  0  0  0
  3  4  2  0  0  0  0
  3  5  1  0  0  0  0
  5 22  2  0  0  0  0
  5  6  1  0  0  0  0
  6  7  2  0  0  0  0
  6 27  1  0  0  0  0
  7  8  1  0  0  0  0
  7 28  1  0  0  0  0
  8  9  2  0  0  0  0
  8 10  1  0  0  0  0
 10 11  1  0  0  0  0
 10 22  1  0  0  0  0
 11 12  1  0  0  0  0
 11 29  1  0  0  0  0
 11 30  1  0  0  0  0
 12 13  2  0  0  0  0
 12 14  1  0  0  0  0
 14 15  1  0  0  0  0
 14 31  1  0  0  0  0
 15 20  1  0  0  0  0
 15 16  1  0  0  0  0
 15 32  1  0  0  0  0
 16 17  1  0  0  0  0
 16 33  1  0  0  0  0
 16 34  1  0  0  0  0
 17 18  1  0  0  0  0
 17 35  1  0  0  0  0
 17 36  1  0  0  0  0
 18 19  1  0  0  0  0
 18 37  1  0  0  0  0
 18 38  1  0  0  0  0
 19 20  1  0  0  0  0
 19 39  1  0  0  0  0
 19 40  1  0  0  0  0
 20 21  1  0  0  0  0
 20 41  1  0  0  0  0
 21 42  1  0  0  0  0
 21 43  1  0  0  0  0
 21 44  1  0  0  0  0
 22 45  1  0  0  0  0
M  END
> <s_m_source_file>
AV-unprocessed.smi

> <i_m_source_file_index>
1844

> <i_lp_mmshare_version>
43012

> <i_f3d_flags>
0

> <s_epik_input>
W0NIM11bTkhdQyg9TyljMVtjSF1bY0hdYyg9TyluKFtjSF0xKVtDSDJdQyg9TylbTkhdW0NAQEhdMltDSDJdW0NIMl1bQ0gyXVtDSDJdW0NASF0yW0NIM10=

> <s_epik_cmdline>
J2VwaWtfcHl0aG9uJywgJy1waCcsICc3LjAnLCAnLXRuJywgJzgnLCAnLW1hJywgJzIwMCcsICctbWV0YWxfYmluZGluZycsICctaW1hZScsICc8aW5maWxlLm1hZT4nLCAnLW9tYWUnLCAnPG91dGZpbGUubWFlPic=

> <r_lp_tautomer_probability>
1

> <r_epik_Ionization_Penalty>
3.66612e-07

> <r_epik_Ionization_Penalty_Charging>
5.18929e-08

> <r_epik_Ionization_Penalty_Neutral>
3.14719e-07

> <r_epik_State_Penalty>
-0

> <r_epik_Charging_Adjusted_Penalty>
5.18929e-08

> <i_epik_Tot_Q>
0

> <i_epik_Tot_abs_Q>
0

> <r_epik_Metal_State_Penalty>
-0

> <b_epik_Metal_Only>
0

> <s_lp_Force_Field>
OPLS_2005

> <r_lp_Energy>
22.707

> <b_lp_Chiralities_Consistent>
1

> <s_lp_Variant>
AV-unprocessed.smi:1844-1

> <Gold.Version>
5.8.1

> <Gold.Id.Protein>
6NUR|6NUR_protein|mol2

> <Gold.PLP.Fitness>
56.7414

> <Gold.PLP.PLP>
-52.6081

> <Gold.PLP.part.hbond>
-3.0000

> <Gold.PLP.part.metal>
0.0000

> <Gold.PLP.part.buried>
0.4576

> <Gold.PLP.part.nonpolar>
-49.3875

> <Gold.PLP.part.repulsive>
0.2798

> <Gold.PLP.ligand.clash>
0.0000

> <Gold.PLP.ligand.torsion>
0.4370

> <Gold.PLP.Chemscore.Hbond>
1.6669

> <Gold.PLP.Chemscore.CHOScore>
0.0000

> <Gold.PLP.Chemscore.Metal>
0.0000

> <Gold.Chemscore.Hbonds>
donor molecule, donor type, donor heavy atom, donor atom, acceptor molecule, acceptor atom, score
      L1  H     2    26       P1  7948  0.58
      P1  H  7997  8009       L1     9  1.00

> <Gold.PLP.Chemscore.Internal.Correction>
0.0066

> <Gold.Rescore>
     Score         DG    S(hbond)    S(metal)    S(lipo)     H(rot)  DE(clash)    DE(int)     intcor
     17.45     -19.97       1.59        0.00     111.08       1.49       0.46       2.06       ----

> <Gold.Chemscore.Fitness>
17.4491

> <Gold.Chemscore.DG>
-19.9714

> <Gold.Chemscore.ZeroCoef>
-5.4800

> <Gold.Chemscore.Hbond>
1.5915

> <Gold.Chemscore.Metal>
0.0000

> <Gold.Chemscore.Lipo>
111.0778

> <Gold.Chemscore.Internal_Hbond>
0.0000

> <Gold.Chemscore.DEClash>
0.4607

> <Gold.Chemscore.DEInternal>
2.0615

> <Gold.Chemscore.Rot>
1.4923

> <Gold.Chemscore.Internal.Correction>
   9.000000E+99

> <Gold.Chemscore.Hbonds>
donor molecule, donor type, donor heavy atom, donor atom, acceptor molecule, acceptor atom, score
      L1  H     2    26       P1  7948  0.55
      P1  H  7997  8009       L1     9  0.98

> <Gold.Chemscore.Hbond.Weighted>
-5.3157

> <Gold.Chemscore.Metal.Weighted>
-0.0000

> <Gold.Chemscore.Lipo.Weighted>
-12.9961

> <Gold.Chemscore.Internal_Hbond.Weighted>
0.0000

> <Gold.Chemscore.DEClash.Weighted>
0.4607

> <Gold.Chemscore.DEInternal.Weighted>
2.0615

> <Gold.Chemscore.Rot.Weighted>
3.8204

> <Gold.Chemscore.Internal.Correction.Weighted>
   9.000000E+99

> <Gold.Protein.RotatedTorsions>
[ 6907 6896 6895 6894 ] final  -10.80 input  -60.11 | X-H torsion
[ 7974 7965 7964 7962 ] final  -91.98 input  175.53 | X-H torsion
[ 8008 7997 7996 7995 ] final -154.81 input   59.86 | X-H torsion
[ 10167 10162 10161 10158 ] final   53.36 input  -65.29 | X-H torsion
[ 10718 10713 10712 10709 ] final  113.83 input   66.30 | X-H torsion
[ 10763 10752 10751 10750 ] final   51.28 input  -60.55 | X-H torsion
[ 11005 11000 10999 10996 ] final   24.70 input  -57.11 | X-H torsion

> <Gold.Protein.ActiveResidues>
 VAL166  LYS551  ARG553  GLY616  TRP617  ASP618  TYR619  PRO620  LYS621  CYS622 
 ASP623  PHE694  ASN695  SER759  ASP760  ASP761  ALA762  ILE779  LEU786  VAL792 
 PHE793  MET794  SER795  GLU796  ALA797  LYS798  CYS799  TRP800  GLU811  SER814 

> <Gold.Protein.RotatedAtoms>
  151.3962  135.0964  159.9541 H   0  0  0  0  0  0  0  0  0  0  0  0  # atno 6907 bound_to 6896
  152.5064  133.8932  159.7415 H   0  0  0  0  0  0  0  0  0  0  0  0  # atno 6908 bound_to 6896
  150.9396  133.6615  159.2822 H   0  0  0  0  0  0  0  0  0  0  0  0  # atno 6909 bound_to 6896
  145.4060  140.9541  143.2261 H   0  0  0  0  0  0  0  0  0  0  0  0  # atno 7974 bound_to 7965
  155.6921  140.0756  157.2444 H   0  0  0  0  0  0  0  0  0  0  0  0  # atno 8008 bound_to 7997
  154.4087  140.1663  156.2150 H   0  0  0  0  0  0  0  0  0  0  0  0  # atno 8009 bound_to 7997
  155.9443  140.3382  155.6356 H   0  0  0  0  0  0  0  0  0  0  0  0  # atno 8010 bound_to 7997
  140.2416  144.3578  150.6378 H   0  0  0  0  0  0  0  0  0  0  0  0  # atno 10167 bound_to 10162
  157.6316  131.0989  150.7097 H   0  0  0  0  0  0  0  0  0  0  0  0  # atno 10718 bound_to 10713
  152.9785  135.5851  154.4390 H   0  0  0  0  0  0  0  0  0  0  0  0  # atno 10763 bound_to 10752
  154.3994  135.2768  155.2108 H   0  0  0  0  0  0  0  0  0  0  0  0  # atno 10764 bound_to 10752
  154.3945  135.6117  153.5916 H   0  0  0  0  0  0  0  0  0  0  0  0  # atno 10765 bound_to 10752
  140.3558  134.2179  155.7676 H   0  0  0  0  0  0  0  0  0  0  0  0  # atno 11005 bound_to 11000
  144.8341  139.5579  143.6930 LP  0  0  0  0  0  0  0  0  0  0  0  0  # atno 17320 bound_to 7965
  146.2728  139.6679  142.9284 LP  0  0  0  0  0  0  0  0  0  0  0  0  # atno 17321 bound_to 7965
  140.6109  143.2169  151.6887 LP  0  0  0  0  0  0  0  0  0  0  0  0  # atno 17342 bound_to 10162
  139.5075  144.3642  152.0533 LP  0  0  0  0  0  0  0  0  0  0  0  0  # atno 17343 bound_to 10162
  156.7436  130.4746  149.5472 LP  0  0  0  0  0  0  0  0  0  0  0  0  # atno 17370 bound_to 10713
  156.1524  130.6319  151.0613 LP  0  0  0  0  0  0  0  0  0  0  0  0  # atno 17371 bound_to 10713
  141.1999  133.8001  157.0516 LP  0  0  0  0  0  0  0  0  0  0  0  0  # atno 17394 bound_to 11000
  140.0666  134.9725  157.1396 LP  0  0  0  0  0  0  0  0  0  0  0  0  # atno 17395 bound_to 11000

$$$$
