AV-unprocessed.smi:1965|AV-procd|sdf|7934|dock3
  -GOLD-   2272010103D 1   1.00000     0.00000
 Structure written by MMmdl.
 37 39  0  0  0  0  0  0  0  0  2 V2000
  147.5024  127.5526  154.7744 O   0  0  0  0  0  0  0  0  0  0  0  0
  146.3834  128.0624  154.7748 C   0  0  0  0  0  0  0  0  0  0  0  0
  145.3735  127.5251  155.4919 N   0  0  0  0  0  0  0  0  0  0  0  0
  145.3176  126.3788  156.3376 C   0  0  0  0  0  0  0  0  0  0  0  0
  146.2030  125.3738  156.3396 N   0  0  0  0  0  0  0  0  0  0  0  0
  145.8878  124.3932  157.2837 C   0  0  0  0  0  0  0  0  0  0  0  0
  144.7513  124.6692  158.0014 C   0  0  0  0  0  0  0  0  0  0  0  0
  144.0279  126.1788  157.5157 S   0  0  0  0  0  0  0  0  0  0  0  0
  146.0920  129.1686  154.0713 N   0  0  0  0  0  0  0  0  0  0  0  0
  147.0206  129.9044  153.2198 C   0  0  2  0  0  0  0  0  0  0  0  0
  148.1291  130.6133  154.0182 C   0  0  0  0  0  0  0  0  0  0  0  0
  148.3499  131.9611  153.3036 C   0  0  0  0  0  0  0  0  0  0  0  0
  147.4743  131.9223  152.1169 N   0  3  2  0  0  0  0  0  0  0  0  0
  147.0508  133.2209  151.5494 C   0  0  0  0  0  0  0  0  0  0  0  0
  146.2190  132.9713  150.2753 C   0  0  0  0  0  0  0  0  0  0  0  0
  145.0485  132.0019  150.5373 C   0  0  0  0  0  0  0  0  0  0  0  0
  145.5383  130.7075  151.2151 C   0  0  0  0  0  0  0  0  0  0  0  0
  146.3405  131.0589  152.4799 C   0  0  1  0  0  0  0  0  0  0  0  0
  144.5054  128.0377  155.4345 H   0  0  0  0  0  0  0  0  0  0  0  0
  146.5293  123.5296  157.3792 H   0  0  0  0  0  0  0  0  0  0  0  0
  144.2978  124.0783  158.7834 H   0  0  0  0  0  0  0  0  0  0  0  0
  145.1471  129.5218  154.1294 H   0  0  0  0  0  0  0  0  0  0  0  0
  147.4928  129.2352  152.4973 H   0  0  0  0  0  0  0  0  0  0  0  0
  147.8262  130.7900  155.0515 H   0  0  0  0  0  0  0  0  0  0  0  0
  149.0389  130.0126  154.0427 H   0  0  0  0  0  0  0  0  0  0  0  0
  148.0580  132.7833  153.9588 H   0  0  0  0  0  0  0  0  0  0  0  0
  149.3895  132.1127  153.0119 H   0  0  0  0  0  0  0  0  0  0  0  0
  146.4668  133.7758  152.2853 H   0  0  0  0  0  0  0  0  0  0  0  0
  147.9296  133.8220  151.3136 H   0  0  0  0  0  0  0  0  0  0  0  0
  145.8409  133.9164  149.8845 H   0  0  0  0  0  0  0  0  0  0  0  0
  146.8635  132.5541  149.5003 H   0  0  0  0  0  0  0  0  0  0  0  0
  144.3118  132.4890  151.1774 H   0  0  0  0  0  0  0  0  0  0  0  0
  144.5386  131.7666  149.6025 H   0  0  0  0  0  0  0  0  0  0  0  0
  144.6855  130.0770  151.4676 H   0  0  0  0  0  0  0  0  0  0  0  0
  146.1576  130.1357  150.5228 H   0  0  0  0  0  0  0  0  0  0  0  0
  145.6989  131.6028  153.1775 H   0  0  0  0  0  0  0  0  0  0  0  0
  147.9865  131.4315  151.3979 H   0  0  0  0  0  0  0  0  0  0  0  0
  1  2  2  0  0  0  0
  2  3  1  0  0  0  0
  2  9  1  0  0  0  0
  3  4  1  0  0  0  0
  3 19  1  0  0  0  0
  4  8  1  0  0  0  0
  4  5  2  0  0  0  0
  5  6  1  0  0  0  0
  6  7  2  0  0  0  0
  6 20  1  0  0  0  0
  7  8  1  0  0  0  0
  7 21  1  0  0  0  0
  9 10  1  0  0  0  0
  9 22  1  0  0  0  0
 10 18  1  0  0  0  0
 10 11  1  0  0  0  0
 10 23  1  0  0  0  0
 11 12  1  0  0  0  0
 11 24  1  0  0  0  0
 11 25  1  0  0  0  0
 12 13  1  0  0  0  0
 12 26  1  0  0  0  0
 12 27  1  0  0  0  0
 13 18  1  0  0  0  0
 13 14  1  0  0  0  0
 13 37  1  0  0  0  0
 14 15  1  0  0  0  0
 14 28  1  0  0  0  0
 14 29  1  0  0  0  0
 15 16  1  0  0  0  0
 15 30  1  0  0  0  0
 15 31  1  0  0  0  0
 16 17  1  0  0  0  0
 16 32  1  0  0  0  0
 16 33  1  0  0  0  0
 17 18  1  0  0  0  0
 17 34  1  0  0  0  0
 17 35  1  0  0  0  0
 18 36  1  0  0  0  0
M  CHG  1  13   1
M  END
> <s_m_source_file>
AV-unprocessed.smi

> <i_m_source_file_index>
1965

> <i_lp_mmshare_version>
43012

> <i_f3d_flags>
0

> <s_epik_input>
czFbY0hdW2NIXW5jMVtOSF1DKD1PKVtOSF1bQ0BIXShbQ0gyXVtDSDJdMilbQ0BASF0oTjIzKVtDSDJdW0NIMl1bQ0gyXVtDSDJdMw==

> <s_epik_cmdline>
J2VwaWtfcHl0aG9uJywgJy1waCcsICc3LjAnLCAnLXRuJywgJzgnLCAnLW1hJywgJzIwMCcsICctbWV0YWxfYmluZGluZycsICctaW1hZScsICc8aW5maWxlLm1hZT4nLCAnLW9tYWUnLCAnPG91dGZpbGUubWFlPic=

> <r_lp_tautomer_probability>
1

> <r_epik_Ionization_Penalty>
0.00125962

> <r_epik_Ionization_Penalty_Charging>
0.00107044

> <r_epik_Ionization_Penalty_Neutral>
0.000189176

> <r_epik_State_Penalty>
-0

> <r_epik_Charging_Adjusted_Penalty>
0.00107044

> <i_epik_Tot_Q>
1

> <i_epik_Tot_abs_Q>
1

> <r_epik_Metal_State_Penalty>
0.0179285

> <b_epik_Metal_Only>
0

> <s_lp_Force_Field>
OPLS_2005

> <r_lp_Energy>
35.2759

> <b_lp_Chiralities_Consistent>
1

> <s_lp_Variant>
AV-unprocessed.smi:1965-3

> <Gold.Version>
5.8.1

> <Gold.Id.Protein>
6NUR|6NUR_protein|mol2

> <Gold.PLP.Fitness>
35.3689

> <Gold.PLP.PLP>
-26.5951

> <Gold.PLP.part.hbond>
-3.0000

> <Gold.PLP.part.metal>
0.0000

> <Gold.PLP.part.buried>
-3.6077

> <Gold.PLP.part.nonpolar>
-19.2301

> <Gold.PLP.part.repulsive>
0.0388

> <Gold.PLP.ligand.clash>
0.0000

> <Gold.PLP.ligand.torsion>
0.1178

> <Gold.PLP.Chemscore.Hbond>
3.0000

> <Gold.PLP.Chemscore.CHOScore>
0.0000

> <Gold.PLP.Chemscore.Metal>
0.0000

> <Gold.Chemscore.Hbonds>
donor molecule, donor type, donor heavy atom, donor atom, acceptor molecule, acceptor atom, score
      L1  H     3    19       P1 10956  1.00
      L1  H     9    22       P1 10956  1.00
      L1  H    13    37       P1 10747  1.00

> <Gold.PLP.Chemscore.Internal.Correction>
0.0094

> <Gold.Rescore>
     Score         DG    S(hbond)    S(metal)    S(lipo)     H(rot)  DE(clash)    DE(int)     intcor
     18.72     -19.95       2.78        0.00      66.25       1.00       0.03       1.20       ----

> <Gold.Chemscore.Fitness>
18.7184

> <Gold.Chemscore.DG>
-19.9524

> <Gold.Chemscore.ZeroCoef>
-5.4800

> <Gold.Chemscore.Hbond>
2.7788

> <Gold.Chemscore.Metal>
0.0000

> <Gold.Chemscore.Lipo>
66.2486

> <Gold.Chemscore.Internal_Hbond>
0.0000

> <Gold.Chemscore.DEClash>
0.0348

> <Gold.Chemscore.DEInternal>
1.1993

> <Gold.Chemscore.Rot>
1.0000

> <Gold.Chemscore.Internal.Correction>
   9.000000E+99

> <Gold.Chemscore.Hbonds>
donor molecule, donor type, donor heavy atom, donor atom, acceptor molecule, acceptor atom, score
      L1  H     3    19       P1 10956  0.92
      L1  H     9    22       P1 10956  0.85
      L1  H    13    37       P1 10747  0.99

> <Gold.Chemscore.Hbond.Weighted>
-9.2813

> <Gold.Chemscore.Metal.Weighted>
-0.0000

> <Gold.Chemscore.Lipo.Weighted>
-7.7511

> <Gold.Chemscore.Internal_Hbond.Weighted>
0.0000

> <Gold.Chemscore.DEClash.Weighted>
0.0348

> <Gold.Chemscore.DEInternal.Weighted>
1.1993

> <Gold.Chemscore.Rot.Weighted>
2.5600

> <Gold.Chemscore.Internal.Correction.Weighted>
   9.000000E+99

> <Gold.Protein.RotatedTorsions>
[ 6907 6896 6895 6894 ] final  145.87 input  -60.11 | X-H torsion
[ 7974 7965 7964 7962 ] final  138.38 input  175.53 | X-H torsion
[ 8008 7997 7996 7995 ] final   46.25 input   59.86 | X-H torsion
[ 10167 10162 10161 10158 ] final   50.30 input  -65.29 | X-H torsion
[ 10718 10713 10712 10709 ] final  169.02 input   66.30 | X-H torsion
[ 10763 10752 10751 10750 ] final   27.78 input  -60.55 | X-H torsion
[ 11005 11000 10999 10996 ] final   -2.34 input  -57.11 | X-H torsion

> <Gold.Protein.ActiveResidues>
 VAL166  LYS551  ARG553  GLY616  TRP617  ASP618  TYR619  PRO620  LYS621  CYS622 
 ASP623  PHE694  ASN695  SER759  ASP760  ASP761  ALA762  ILE779  LEU786  VAL792 
 PHE793  MET794  SER795  GLU796  ALA797  LYS798  CYS799  TRP800  GLU811  SER814 

> <Gold.Protein.RotatedAtoms>
  152.1753  133.4670  159.4929 H   0  0  0  0  0  0  0  0  0  0  0  0  # atno 6907 bound_to 6896
  150.6926  134.1902  159.4291 H   0  0  0  0  0  0  0  0  0  0  0  0  # atno 6908 bound_to 6896
  151.9811  135.0028  160.0608 H   0  0  0  0  0  0  0  0  0  0  0  0  # atno 6909 bound_to 6896
  144.9378  139.4968  143.5586 H   0  0  0  0  0  0  0  0  0  0  0  0  # atno 7974 bound_to 7965
  155.3494  140.3412  155.4239 H   0  0  0  0  0  0  0  0  0  0  0  0  # atno 8008 bound_to 7997
  156.1772  140.1651  156.8377 H   0  0  0  0  0  0  0  0  0  0  0  0  # atno 8009 bound_to 7997
  154.5294  140.0748  156.8301 H   0  0  0  0  0  0  0  0  0  0  0  0  # atno 8010 bound_to 7997
  140.2739  144.3234  150.6282 H   0  0  0  0  0  0  0  0  0  0  0  0  # atno 10167 bound_to 10162
  157.0287  131.0253  151.2751 H   0  0  0  0  0  0  0  0  0  0  0  0  # atno 10718 bound_to 10713
  153.0533  135.6529  154.0638 H   0  0  0  0  0  0  0  0  0  0  0  0  # atno 10763 bound_to 10752
  154.0322  135.2910  155.3368 H   0  0  0  0  0  0  0  0  0  0  0  0  # atno 10764 bound_to 10752
  154.6835  135.5311  153.8361 H   0  0  0  0  0  0  0  0  0  0  0  0  # atno 10765 bound_to 10752
  140.6573  133.9352  155.8415 H   0  0  0  0  0  0  0  0  0  0  0  0  # atno 11005 bound_to 11000
  146.3273  139.8375  142.8896 LP  0  0  0  0  0  0  0  0  0  0  0  0  # atno 17320 bound_to 7965
  145.3039  141.0202  143.3593 LP  0  0  0  0  0  0  0  0  0  0  0  0  # atno 17321 bound_to 7965
  140.5867  143.2169  151.7329 LP  0  0  0  0  0  0  0  0  0  0  0  0  # atno 17342 bound_to 10162
  139.4981  144.4000  152.0191 LP  0  0  0  0  0  0  0  0  0  0  0  0  # atno 17343 bound_to 10162
  157.5194  130.7988  149.7792 LP  0  0  0  0  0  0  0  0  0  0  0  0  # atno 17370 bound_to 10713
  156.0077  130.3848  150.2373 LP  0  0  0  0  0  0  0  0  0  0  0  0  # atno 17371 bound_to 10713
  141.0492  134.0509  157.3805 LP  0  0  0  0  0  0  0  0  0  0  0  0  # atno 17394 bound_to 11000
  139.9025  135.0169  156.7335 LP  0  0  0  0  0  0  0  0  0  0  0  0  # atno 17395 bound_to 11000

$$$$
