AV-unprocessed.smi:3063|AV-procd|sdf|11685|dock10
  -GOLD-   2272017 93D 1   1.00000     0.00000
 Structure written by MMmdl.
 44 45  0  0  0  0  0  0  0  0  1 V2000
  144.0649  137.0125  159.8989 C   0  0  0  0  0  0  0  0  0  0  0  0
  145.4198  137.1099  160.6034 C   0  0  0  0  0  0  0  0  0  0  0  0
  146.3404  137.6771  160.0147 O   0  0  0  0  0  0  0  0  0  0  0  0
  145.5691  136.5579  161.8320 N   0  0  0  0  0  0  0  0  0  0  0  0
  146.8769  136.5126  162.5030 C   0  0  0  0  0  0  0  0  0  0  0  0
  147.6517  135.2303  162.1333 C   0  0  0  0  0  0  0  0  0  0  0  0
  146.8985  133.9334  162.4997 C   0  0  0  0  0  0  0  0  0  0  0  0
  145.6352  133.8100  161.7465 N   0  0  0  0  0  0  0  0  0  0  0  0
  145.5183  133.2762  160.5022 C   0  0  0  0  0  0  0  0  0  0  0  0
  146.4728  133.1203  159.7397 O   0  0  0  0  0  0  0  0  0  0  0  0
  144.2646  132.9382  160.1532 N   0  0  0  0  0  0  0  0  0  0  0  0
  143.8421  132.4293  158.8494 C   0  0  2  0  0  0  0  0  0  0  0  0
  144.4645  133.3004  157.7469 C   0  0  0  0  0  0  0  0  0  0  0  0
  142.3023  132.3161  158.7490 C   0  0  0  0  0  0  0  0  0  0  0  0
  141.8056  130.9564  158.8746 N   0  0  0  0  0  0  0  0  0  0  0  0
  142.1608  129.8510  158.1334 C   0  0  0  0  0  0  0  0  0  0  0  0
  141.4379  128.7931  158.6035 C   0  0  0  0  0  0  0  0  0  0  0  0
  140.6505  129.3605  159.6439 C   0  0  0  0  0  0  0  0  0  0  0  0
  140.8691  130.6565  159.8008 N   0  0  0  0  0  0  0  0  0  0  0  0
  144.4707  134.3617  162.4634 C   0  0  0  0  0  0  0  0  0  0  0  0
  144.4838  135.9082  162.5873 C   0  0  0  0  0  0  0  0  0  0  0  0
  143.7017  135.9847  159.8882 H   0  0  0  0  0  0  0  0  0  0  0  0
  144.1472  137.3439  158.8631 H   0  0  0  0  0  0  0  0  0  0  0  0
  143.3275  137.6439  160.3949 H   0  0  0  0  0  0  0  0  0  0  0  0
  147.4752  137.3901  162.2535 H   0  0  0  0  0  0  0  0  0  0  0  0
  146.7510  136.5589  163.5853 H   0  0  0  0  0  0  0  0  0  0  0  0
  147.8879  135.2350  161.0688 H   0  0  0  0  0  0  0  0  0  0  0  0
  148.6113  135.2393  162.6509 H   0  0  0  0  0  0  0  0  0  0  0  0
  147.5426  133.0674  162.3419 H   0  0  0  0  0  0  0  0  0  0  0  0
  146.6962  133.9306  163.5716 H   0  0  0  0  0  0  0  0  0  0  0  0
  143.5356  133.0847  160.8364 H   0  0  0  0  0  0  0  0  0  0  0  0
  144.2535  131.4252  158.7328 H   0  0  0  0  0  0  0  0  0  0  0  0
  144.1531  132.9620  156.7582 H   0  0  0  0  0  0  0  0  0  0  0  0
  145.5533  133.2546  157.7814 H   0  0  0  0  0  0  0  0  0  0  0  0
  144.1773  134.3475  157.8472 H   0  0  0  0  0  0  0  0  0  0  0  0
  141.8374  132.9254  159.5256 H   0  0  0  0  0  0  0  0  0  0  0  0
  141.9500  132.7221  157.8000 H   0  0  0  0  0  0  0  0  0  0  0  0
  142.8930  129.9143  157.3442 H   0  0  0  0  0  0  0  0  0  0  0  0
  141.4659  127.7714  158.2551 H   0  0  0  0  0  0  0  0  0  0  0  0
  139.9305  128.8729  160.2840 H   0  0  0  0  0  0  0  0  0  0  0  0
  143.5321  134.0586  161.9975 H   0  0  0  0  0  0  0  0  0  0  0  0
  144.4261  133.9194  163.4595 H   0  0  0  0  0  0  0  0  0  0  0  0
  144.5855  136.1707  163.6410 H   0  0  0  0  0  0  0  0  0  0  0  0
  143.5053  136.3070  162.3204 H   0  0  0  0  0  0  0  0  0  0  0  0
  1  2  1  0  0  0  0
  1 22  1  0  0  0  0
  1 23  1  0  0  0  0
  1 24  1  0  0  0  0
  2  3  2  0  0  0  0
  2  4  1  0  0  0  0
  4 21  1  0  0  0  0
  4  5  1  0  0  0  0
  5  6  1  0  0  0  0
  5 25  1  0  0  0  0
  5 26  1  0  0  0  0
  6  7  1  0  0  0  0
  6 27  1  0  0  0  0
  6 28  1  0  0  0  0
  7  8  1  0  0  0  0
  7 29  1  0  0  0  0
  7 30  1  0  0  0  0
  8  9  1  0  0  0  0
  8 20  1  0  0  0  0
  9 10  2  0  0  0  0
  9 11  1  0  0  0  0
 11 12  1  0  0  0  0
 11 31  1  0  0  0  0
 12 13  1  0  0  0  0
 12 14  1  0  0  0  0
 12 32  1  0  0  0  0
 13 33  1  0  0  0  0
 13 34  1  0  0  0  0
 13 35  1  0  0  0  0
 14 15  1  0  0  0  0
 14 36  1  0  0  0  0
 14 37  1  0  0  0  0
 15 19  1  0  0  0  0
 15 16  1  0  0  0  0
 16 17  2  0  0  0  0
 16 38  1  0  0  0  0
 17 18  1  0  0  0  0
 17 39  1  0  0  0  0
 18 19  2  0  0  0  0
 18 40  1  0  0  0  0
 20 21  1  0  0  0  0
 20 41  1  0  0  0  0
 20 42  1  0  0  0  0
 21 43  1  0  0  0  0
 21 44  1  0  0  0  0
M  END
> <s_m_source_file>
AV-unprocessed.smi

> <i_m_source_file_index>
3063

> <i_lp_mmshare_version>
43012

> <i_f3d_flags>
0

> <s_epik_input>
W0NIM11DKD1PKU4xW0NIMl1bQ0gyXVtDSDJdTihbQ0gyXVtDSDJdMSlDKD1PKVtOSF1bQ0BIXShbQ0gzXSlbQ0gyXW4yW2NIXVtjSF1bY0hdbjI=

> <s_epik_cmdline>
J2VwaWtfcHl0aG9uJywgJy1waCcsICc3LjAnLCAnLXRuJywgJzgnLCAnLW1hJywgJzIwMCcsICctbWV0YWxfYmluZGluZycsICctaW1hZScsICc8aW5maWxlLm1hZT4nLCAnLW9tYWUnLCAnPG91dGZpbGUubWFlPic=

> <r_lp_tautomer_probability>
1

> <r_epik_Ionization_Penalty>
6.19559e-05

> <r_epik_Ionization_Penalty_Charging>
0

> <r_epik_Ionization_Penalty_Neutral>
6.19559e-05

> <r_epik_State_Penalty>
-0

> <r_epik_Charging_Adjusted_Penalty>
0

> <i_epik_Tot_Q>
0

> <i_epik_Tot_abs_Q>
0

> <r_epik_Metal_State_Penalty>
-0

> <b_epik_Metal_Only>
0

> <s_lp_Force_Field>
OPLS_2005

> <r_lp_Energy>
38.8795

> <b_lp_Chiralities_Consistent>
1

> <s_lp_Variant>
AV-unprocessed.smi:3063-1

> <Gold.Version>
5.8.1

> <Gold.Id.Protein>
6NUR|6NUR_protein|mol2

> <Gold.PLP.Fitness>
40.1302

> <Gold.PLP.PLP>
-37.0722

> <Gold.PLP.part.hbond>
-1.4169

> <Gold.PLP.part.metal>
0.0000

> <Gold.PLP.part.buried>
-5.9677

> <Gold.PLP.part.nonpolar>
-29.5997

> <Gold.PLP.part.repulsive>
0.0904

> <Gold.PLP.ligand.clash>
1.0357

> <Gold.PLP.ligand.torsion>
0.9249

> <Gold.PLP.Chemscore.Hbond>
1.0000

> <Gold.PLP.Chemscore.CHOScore>
0.9653

> <Gold.PLP.Chemscore.Metal>
0.0000

> <Gold.Chemscore.Hbonds>
donor molecule, donor type, donor heavy atom, donor atom, acceptor molecule, acceptor atom, score
      P1  H  6934  6947       L1     3  1.00
      L1  C    16    38       P1 10956  0.97

> <Gold.PLP.Chemscore.Internal.Correction>
0.0474

> <Gold.Rescore>
     Score         DG    S(hbond)    S(metal)    S(lipo)     H(rot)  DE(clash)    DE(int)     intcor
     12.57     -13.36       0.99        0.00      70.39       1.44       0.03       0.77       ----

> <Gold.Chemscore.Fitness>
12.5650

> <Gold.Chemscore.DG>
-13.3587

> <Gold.Chemscore.ZeroCoef>
-5.4800

> <Gold.Chemscore.Hbond>
0.9945

> <Gold.Chemscore.Metal>
0.0000

> <Gold.Chemscore.Lipo>
70.3864

> <Gold.Chemscore.Internal_Hbond>
0.0000

> <Gold.Chemscore.DEClash>
0.0278

> <Gold.Chemscore.DEInternal>
0.7658

> <Gold.Chemscore.Rot>
1.4368

> <Gold.Chemscore.Internal.Correction>
   9.000000E+99

> <Gold.Chemscore.Hbonds>
donor molecule, donor type, donor heavy atom, donor atom, acceptor molecule, acceptor atom, score
      P1  H  6934  6947       L1     3  0.93

> <Gold.Chemscore.Hbond.Weighted>
-3.3217

> <Gold.Chemscore.Metal.Weighted>
-0.0000

> <Gold.Chemscore.Lipo.Weighted>
-8.2352

> <Gold.Chemscore.Internal_Hbond.Weighted>
0.0000

> <Gold.Chemscore.DEClash.Weighted>
0.0278

> <Gold.Chemscore.DEInternal.Weighted>
0.7658

> <Gold.Chemscore.Rot.Weighted>
3.6782

> <Gold.Chemscore.Internal.Correction.Weighted>
   9.000000E+99

> <Gold.Protein.RotatedTorsions>
[ 6907 6896 6895 6894 ] final  -51.98 input  -60.11 | X-H torsion
[ 7974 7965 7964 7962 ] final  -70.36 input  175.53 | X-H torsion
[ 8008 7997 7996 7995 ] final -156.13 input   59.86 | X-H torsion
[ 10167 10162 10161 10158 ] final -164.70 input  -65.29 | X-H torsion
[ 10718 10713 10712 10709 ] final   91.94 input   66.30 | X-H torsion
[ 10763 10752 10751 10750 ] final  -39.95 input  -60.55 | X-H torsion
[ 11005 11000 10999 10996 ] final   52.94 input  -57.11 | X-H torsion

> <Gold.Protein.ActiveResidues>
 VAL166  LYS551  ARG553  GLY616  TRP617  ASP618  TYR619  PRO620  LYS621  CYS622 
 ASP623  PHE694  ASN695  SER759  ASP760  ASP761  ALA762  ILE779  LEU786  VAL792 
 PHE793  MET794  SER795  GLU796  ALA797  LYS798  CYS799  TRP800  GLU811  SER814 

> <Gold.Protein.RotatedAtoms>
  150.8560  134.7899  159.7045 H   0  0  0  0  0  0  0  0  0  0  0  0  # atno 6907 bound_to 6896
  152.4611  134.5178  159.9783 H   0  0  0  0  0  0  0  0  0  0  0  0  # atno 6908 bound_to 6896
  151.5290  133.3414  159.2950 H   0  0  0  0  0  0  0  0  0  0  0  0  # atno 6909 bound_to 6896
  145.6920  140.9149  143.0777 H   0  0  0  0  0  0  0  0  0  0  0  0  # atno 7974 bound_to 7965
  155.7125  140.0780  157.2365 H   0  0  0  0  0  0  0  0  0  0  0  0  # atno 8008 bound_to 7997
  154.4056  140.1627  156.2366 H   0  0  0  0  0  0  0  0  0  0  0  0  # atno 8009 bound_to 7997
  155.9270  140.3394  155.6221 H   0  0  0  0  0  0  0  0  0  0  0  0  # atno 8010 bound_to 7997
  139.6232  144.0583  152.1951 H   0  0  0  0  0  0  0  0  0  0  0  0  # atno 10167 bound_to 10162
  157.6959  131.0425  150.3807 H   0  0  0  0  0  0  0  0  0  0  0  0  # atno 10718 bound_to 10713
  153.9379  135.6764  153.4744 H   0  0  0  0  0  0  0  0  0  0  0  0  # atno 10763 bound_to 10752
  153.0946  135.4857  154.8751 H   0  0  0  0  0  0  0  0  0  0  0  0  # atno 10764 bound_to 10752
  154.7393  135.3156  154.8715 H   0  0  0  0  0  0  0  0  0  0  0  0  # atno 10765 bound_to 10752
  140.0808  134.5342  155.8949 H   0  0  0  0  0  0  0  0  0  0  0  0  # atno 11005 bound_to 11000
  144.6994  139.8834  143.7448 LP  0  0  0  0  0  0  0  0  0  0  0  0  # atno 17320 bound_to 7965
  146.0874  139.3862  143.0427 LP  0  0  0  0  0  0  0  0  0  0  0  0  # atno 17321 bound_to 7965
  140.0230  144.6138  150.7551 LP  0  0  0  0  0  0  0  0  0  0  0  0  # atno 17342 bound_to 10162
  140.7395  143.2792  151.3650 LP  0  0  0  0  0  0  0  0  0  0  0  0  # atno 17343 bound_to 10162
  156.4221  130.3955  149.6818 LP  0  0  0  0  0  0  0  0  0  0  0  0  # atno 17370 bound_to 10713
  156.4065  130.7701  151.2711 LP  0  0  0  0  0  0  0  0  0  0  0  0  # atno 17371 bound_to 10713
  141.2046  133.6640  156.6129 LP  0  0  0  0  0  0  0  0  0  0  0  0  # atno 17394 bound_to 11000
  140.3491  134.7784  157.4454 LP  0  0  0  0  0  0  0  0  0  0  0  0  # atno 17395 bound_to 11000

$$$$
