AV-unprocessed.smi:2958|AV-procd|sdf|11307|dock6
  -GOLD-   2272016203D 1   1.00000     0.00000
 Structure written by MMmdl.
 39 41  0  0  0  0  0  0  0  0  1 V2000
  151.7927  144.7491  158.8195 C   0  0  0  0  0  0  0  0  0  0  0  0
  152.2441  143.8586  159.9589 C   0  0  0  0  0  0  0  0  0  0  0  0
  152.0283  144.2486  161.2959 C   0  0  0  0  0  0  0  0  0  0  0  0
  152.4517  143.4154  162.3474 C   0  0  0  0  0  0  0  0  0  0  0  0
  153.0904  142.1932  162.0645 C   0  0  0  0  0  0  0  0  0  0  0  0
  153.3125  141.7864  160.7330 C   0  0  0  0  0  0  0  0  0  0  0  0
  153.9419  140.5742  160.5476 O   0  0  0  0  0  0  0  0  0  0  0  0
  153.8389  139.9524  159.2750 C   0  0  0  0  0  0  0  0  0  0  0  0
  152.3548  139.7517  158.9482 C   0  0  0  0  0  0  0  0  0  0  0  0
  152.1732  139.1761  157.6253 N   0  0  0  0  0  0  0  0  0  0  0  0
  152.7570  138.0680  157.1040 C   0  0  0  0  0  0  0  0  0  0  0  0
  153.7325  137.2383  157.8811 C   0  0  0  0  0  0  0  0  0  0  0  0
  154.3607  136.2527  157.0898 O   0  0  0  0  0  0  0  0  0  0  0  0
  152.4067  137.7613  155.8543 N   0  0  0  0  0  0  0  0  0  0  0  0
  151.5070  138.7605  155.5374 C   0  0  0  0  0  0  0  0  0  0  0  0
  150.7750  138.9952  154.3515 C   0  0  0  0  0  0  0  0  0  0  0  0
  149.8967  140.0951  154.2602 C   0  0  0  0  0  0  0  0  0  0  0  0
  149.7378  140.9742  155.3511 C   0  0  0  0  0  0  0  0  0  0  0  0
  150.4594  140.7601  156.5413 C   0  0  0  0  0  0  0  0  0  0  0  0
  151.3356  139.6615  156.6265 C   0  0  0  0  0  0  0  0  0  0  0  0
  152.8833  142.6329  159.6790 C   0  0  0  0  0  0  0  0  0  0  0  0
  151.3278  145.6639  159.1886 H   0  0  0  0  0  0  0  0  0  0  0  0
  151.0670  144.2264  158.1959 H   0  0  0  0  0  0  0  0  0  0  0  0
  152.6438  145.0276  158.1974 H   0  0  0  0  0  0  0  0  0  0  0  0
  151.5391  145.1852  161.5202 H   0  0  0  0  0  0  0  0  0  0  0  0
  152.2868  143.7135  163.3724 H   0  0  0  0  0  0  0  0  0  0  0  0
  153.4118  141.5599  162.8783 H   0  0  0  0  0  0  0  0  0  0  0  0
  154.3042  140.5780  158.5115 H   0  0  0  0  0  0  0  0  0  0  0  0
  154.3485  138.9874  159.2838 H   0  0  0  0  0  0  0  0  0  0  0  0
  151.8945  139.0894  159.6822 H   0  0  0  0  0  0  0  0  0  0  0  0
  151.8171  140.6977  159.0108 H   0  0  0  0  0  0  0  0  0  0  0  0
  154.4902  137.8806  158.3300 H   0  0  0  0  0  0  0  0  0  0  0  0
  153.2120  136.7466  158.7034 H   0  0  0  0  0  0  0  0  0  0  0  0
  155.1542  135.9803  157.5245 H   0  0  0  0  0  0  0  0  0  0  0  0
  150.8888  138.3273  153.5105 H   0  0  0  0  0  0  0  0  0  0  0  0
  149.3419  140.2644  153.3491 H   0  0  0  0  0  0  0  0  0  0  0  0
  149.0622  141.8135  155.2731 H   0  0  0  0  0  0  0  0  0  0  0  0
  150.3402  141.4318  157.3786 H   0  0  0  0  0  0  0  0  0  0  0  0
  153.0346  142.3629  158.6447 H   0  0  0  0  0  0  0  0  0  0  0  0
  1  2  1  0  0  0  0
  1 22  1  0  0  0  0
  1 23  1  0  0  0  0
  1 24  1  0  0  0  0
  2 21  1  0  0  0  0
  2  3  2  0  0  0  0
  3  4  1  0  0  0  0
  3 25  1  0  0  0  0
  4  5  2  0  0  0  0
  4 26  1  0  0  0  0
  5  6  1  0  0  0  0
  5 27  1  0  0  0  0
  6  7  1  0  0  0  0
  6 21  2  0  0  0  0
  7  8  1  0  0  0  0
  8  9  1  0  0  0  0
  8 28  1  0  0  0  0
  8 29  1  0  0  0  0
  9 10  1  0  0  0  0
  9 30  1  0  0  0  0
  9 31  1  0  0  0  0
 10 20  1  0  0  0  0
 10 11  1  0  0  0  0
 11 12  1  0  0  0  0
 11 14  2  0  0  0  0
 12 13  1  0  0  0  0
 12 32  1  0  0  0  0
 12 33  1  0  0  0  0
 13 34  1  0  0  0  0
 14 15  1  0  0  0  0
 15 20  2  0  0  0  0
 15 16  1  0  0  0  0
 16 17  2  0  0  0  0
 16 35  1  0  0  0  0
 17 18  1  0  0  0  0
 17 36  1  0  0  0  0
 18 19  2  0  0  0  0
 18 37  1  0  0  0  0
 19 20  1  0  0  0  0
 19 38  1  0  0  0  0
 21 39  1  0  0  0  0
M  END
> <s_m_source_file>
AV-unprocessed.smi

> <i_m_source_file_index>
2958

> <i_lp_mmshare_version>
43012

> <i_f3d_flags>
0

> <s_epik_input>
W0NIM11jMVtjSF1bY0hdW2NIXWMoW2NIXTEpT1tDSDJdW0NIMl1uKGMobjIpW0NIMl1bT0hdKWMoYzIzKVtjSF1bY0hdW2NIXVtjSF0z

> <s_epik_cmdline>
J2VwaWtfcHl0aG9uJywgJy1waCcsICc3LjAnLCAnLXRuJywgJzgnLCAnLW1hJywgJzIwMCcsICctbWV0YWxfYmluZGluZycsICctaW1hZScsICc8aW5maWxlLm1hZT4nLCAnLW9tYWUnLCAnPG91dGZpbGUubWFlPic=

> <r_lp_tautomer_probability>
1

> <r_epik_Ionization_Penalty>
0.0482759

> <r_epik_Ionization_Penalty_Charging>
0

> <r_epik_Ionization_Penalty_Neutral>
0.0482759

> <r_epik_State_Penalty>
0.0410957

> <r_epik_Charging_Adjusted_Penalty>
0.0410957

> <i_epik_Tot_Q>
0

> <i_epik_Tot_abs_Q>
0

> <r_epik_Metal_State_Penalty>
4.25529e-05

> <b_epik_Metal_Only>
0

> <s_lp_Force_Field>
OPLS_2005

> <r_lp_Energy>
16.0806

> <b_lp_Chiralities_Consistent>
1

> <s_lp_Variant>
AV-unprocessed.smi:2958-1

> <Gold.Version>
5.8.1

> <Gold.Id.Protein>
6NUR|6NUR_protein|mol2

> <Gold.PLP.Fitness>
50.4726

> <Gold.PLP.PLP>
-48.2097

> <Gold.PLP.part.hbond>
-1.1889

> <Gold.PLP.part.metal>
0.0000

> <Gold.PLP.part.buried>
-3.1550

> <Gold.PLP.part.nonpolar>
-43.2331

> <Gold.PLP.part.repulsive>
0.0049

> <Gold.PLP.ligand.clash>
0.0000

> <Gold.PLP.ligand.torsion>
0.3960

> <Gold.PLP.Chemscore.Hbond>
1.0000

> <Gold.PLP.Chemscore.CHOScore>
0.0000

> <Gold.PLP.Chemscore.Metal>
0.0000

> <Gold.Chemscore.Hbonds>
donor molecule, donor type, donor heavy atom, donor atom, acceptor molecule, acceptor atom, score
      P1  H 10752 10764       L1    13  1.00

> <Gold.PLP.Chemscore.Internal.Correction>
0.0549

> <Gold.Rescore>
     Score         DG    S(hbond)    S(metal)    S(lipo)     H(rot)  DE(clash)    DE(int)     intcor
     18.31     -19.92       0.97        0.00     142.59       2.15       0.46       1.15       ----

> <Gold.Chemscore.Fitness>
18.3083

> <Gold.Chemscore.DG>
-19.9151

> <Gold.Chemscore.ZeroCoef>
-5.4800

> <Gold.Chemscore.Hbond>
0.9748

> <Gold.Chemscore.Metal>
0.0000

> <Gold.Chemscore.Lipo>
142.5916

> <Gold.Chemscore.Internal_Hbond>
0.0000

> <Gold.Chemscore.DEClash>
0.4614

> <Gold.Chemscore.DEInternal>
1.1455

> <Gold.Chemscore.Rot>
2.1499

> <Gold.Chemscore.Internal.Correction>
   9.000000E+99

> <Gold.Chemscore.Hbonds>
donor molecule, donor type, donor heavy atom, donor atom, acceptor molecule, acceptor atom, score
      P1  H 10752 10764       L1    13  0.67

> <Gold.Chemscore.Hbond.Weighted>
-3.2557

> <Gold.Chemscore.Metal.Weighted>
-0.0000

> <Gold.Chemscore.Lipo.Weighted>
-16.6832

> <Gold.Chemscore.Internal_Hbond.Weighted>
0.0000

> <Gold.Chemscore.DEClash.Weighted>
0.4614

> <Gold.Chemscore.DEInternal.Weighted>
1.1455

> <Gold.Chemscore.Rot.Weighted>
5.5038

> <Gold.Chemscore.Internal.Correction.Weighted>
   9.000000E+99

> <Gold.Protein.RotatedTorsions>
[ 6907 6896 6895 6894 ] final  -49.37 input  -60.11 | X-H torsion
[ 7974 7965 7964 7962 ] final  156.60 input  175.53 | X-H torsion
[ 8008 7997 7996 7995 ] final  -94.41 input   59.86 | X-H torsion
[ 10167 10162 10161 10158 ] final -151.71 input  -65.29 | X-H torsion
[ 10718 10713 10712 10709 ] final -105.95 input   66.30 | X-H torsion
[ 10763 10752 10751 10750 ] final   38.58 input  -60.55 | X-H torsion
[ 11005 11000 10999 10996 ] final -118.12 input  -57.11 | X-H torsion

> <Gold.Protein.ActiveResidues>
 VAL166  LYS551  ARG553  GLY616  TRP617  ASP618  TYR619  PRO620  LYS621  CYS622 
 ASP623  PHE694  ASN695  SER759  ASP760  ASP761  ALA762  ILE779  LEU786  VAL792 
 PHE793  MET794  SER795  GLU796  ALA797  LYS798  CYS799  TRP800  GLU811  SER814 

> <Gold.Protein.RotatedAtoms>
  150.8812  134.8203  159.7226 H   0  0  0  0  0  0  0  0  0  0  0  0  # atno 6907 bound_to 6896
  152.4779  134.4793  159.9670 H   0  0  0  0  0  0  0  0  0  0  0  0  # atno 6908 bound_to 6896
  151.4867  133.3495  159.2882 H   0  0  0  0  0  0  0  0  0  0  0  0  # atno 6909 bound_to 6896
  144.7953  139.7226  143.6204 H   0  0  0  0  0  0  0  0  0  0  0  0  # atno 7974 bound_to 7965
  154.7480  140.0489  157.0869 H   0  0  0  0  0  0  0  0  0  0  0  0  # atno 8008 bound_to 7997
  155.0093  140.3134  155.4817 H   0  0  0  0  0  0  0  0  0  0  0  0  # atno 8009 bound_to 7997
  156.2879  140.2187  156.5206 H   0  0  0  0  0  0  0  0  0  0  0  0  # atno 8010 bound_to 7997
  139.7244  143.8906  152.2514 H   0  0  0  0  0  0  0  0  0  0  0  0  # atno 10167 bound_to 10162
  156.0368  130.5588  150.7611 H   0  0  0  0  0  0  0  0  0  0  0  0  # atno 10718 bound_to 10713
  152.9996  135.6245  154.2327 H   0  0  0  0  0  0  0  0  0  0  0  0  # atno 10763 bound_to 10752
  154.2069  135.2801  155.2973 H   0  0  0  0  0  0  0  0  0  0  0  0  # atno 10764 bound_to 10752
  154.5638  135.5697  153.7091 H   0  0  0  0  0  0  0  0  0  0  0  0  # atno 10765 bound_to 10752
  141.0308  133.9984  157.3146 H   0  0  0  0  0  0  0  0  0  0  0  0  # atno 11005 bound_to 11000
  146.2219  139.5652  142.9612 LP  0  0  0  0  0  0  0  0  0  0  0  0  # atno 17320 bound_to 7965
  145.5689  141.0396  143.2185 LP  0  0  0  0  0  0  0  0  0  0  0  0  # atno 17321 bound_to 7965
  139.8811  144.7017  150.8876 LP  0  0  0  0  0  0  0  0  0  0  0  0  # atno 17342 bound_to 10162
  140.7760  143.3660  151.1738 LP  0  0  0  0  0  0  0  0  0  0  0  0  # atno 17343 bound_to 10162
  157.5130  131.0927  151.0174 LP  0  0  0  0  0  0  0  0  0  0  0  0  # atno 17370 bound_to 10713
  157.0525  130.5793  149.5372 LP  0  0  0  0  0  0  0  0  0  0  0  0  # atno 17371 bound_to 10713
  139.9206  135.0200  156.8051 LP  0  0  0  0  0  0  0  0  0  0  0  0  # atno 17394 bound_to 11000
  140.6410  133.9818  155.7707 LP  0  0  0  0  0  0  0  0  0  0  0  0  # atno 17395 bound_to 11000

$$$$
