AV-unprocessed.smi:158|AV-procd|sdf|1325|dock5
  -GOLD-   2262019 23D 1   1.00000     0.00000
 Structure written by MMmdl.
 31 33  0  0  0  0  0  0  0  0  1 V2000
  144.3343  133.9740  155.3534 N   0  0  0  0  0  0  0  0  0  0  0  0
  144.9759  134.8695  154.5904 C   0  0  0  0  0  0  0  0  0  0  0  0
  144.7298  134.8756  153.2597 N   0  0  0  0  0  0  0  0  0  0  0  0
  145.3505  135.7532  152.4619 C   0  0  0  0  0  0  0  0  0  0  0  0
  144.9633  135.6727  150.7839 Cl  0  0  0  0  0  0  0  0  0  0  0  0
  146.2380  136.6869  152.8195 N   0  0  0  0  0  0  0  0  0  0  0  0
  146.4889  136.6845  154.1611 C   0  0  0  0  0  0  0  0  0  0  0  0
  145.8994  135.8085  155.1111 C   0  0  0  0  0  0  0  0  0  0  0  0
  146.3866  136.0881  156.3807 N   0  0  0  0  0  0  0  0  0  0  0  0
  147.2198  137.0753  156.1860 C   0  0  0  0  0  0  0  0  0  0  0  0
  147.3440  137.4961  154.8799 N   0  0  0  0  0  0  0  0  0  0  0  0
  148.2140  138.5942  154.3546 C   0  0  2  0  0  0  0  0  0  0  0  0
  149.0623  139.0383  155.3713 O   0  0  0  0  0  0  0  0  0  0  0  0
  148.9524  140.4517  155.5271 C   0  0  1  0  0  0  0  0  0  0  0  0
  150.3072  141.0680  155.9158 C   0  0  0  0  0  0  0  0  0  0  0  0
  151.3611  140.3854  155.2703 O   0  0  0  0  0  0  0  0  0  0  0  0
  148.3049  140.9565  154.2277 C   0  0  1  0  0  0  0  0  0  0  0  0
  149.2515  141.2061  153.2052 O   0  0  0  0  0  0  0  0  0  0  0  0
  147.4027  139.7979  153.8522 C   0  0  2  0  0  0  0  0  0  0  0  0
  146.2418  139.9009  154.5038 F   0  0  0  0  0  0  0  0  0  0  0  0
  148.8120  138.1309  153.5690 H   0  0  0  0  0  0  0  0  0  0  0  0
  148.2461  140.6148  156.3429 H   0  0  0  0  0  0  0  0  0  0  0  0
  147.7397  141.8749  154.3913 H   0  0  0  0  0  0  0  0  0  0  0  0
  147.1831  139.7180  152.7870 H   0  0  0  0  0  0  0  0  0  0  0  0
  144.5023  133.9501  156.3491 H   0  0  0  0  0  0  0  0  0  0  0  0
  143.6876  133.3230  154.9322 H   0  0  0  0  0  0  0  0  0  0  0  0
  147.7730  137.5264  156.9968 H   0  0  0  0  0  0  0  0  0  0  0  0
  150.3386  142.1138  155.6096 H   0  0  0  0  0  0  0  0  0  0  0  0
  150.4617  141.0490  156.9948 H   0  0  0  0  0  0  0  0  0  0  0  0
  152.1051  140.3622  155.8528 H   0  0  0  0  0  0  0  0  0  0  0  0
  149.1761  140.5214  152.5575 H   0  0  0  0  0  0  0  0  0  0  0  0
  1  2  1  0  0  0  0
  1 25  1  0  0  0  0
  1 26  1  0  0  0  0
  2  8  1  0  0  0  0
  2  3  2  0  0  0  0
  3  4  1  0  0  0  0
  4  5  1  0  0  0  0
  4  6  2  0  0  0  0
  6  7  1  0  0  0  0
  7 11  1  0  0  0  0
  7  8  2  0  0  0  0
  8  9  1  0  0  0  0
  9 10  2  0  0  0  0
 10 11  1  0  0  0  0
 10 27  1  0  0  0  0
 11 12  1  0  0  0  0
 12 21  1  0  0  0  0
 12 19  1  0  0  0  0
 12 13  1  0  0  0  0
 13 14  1  0  0  0  0
 14 22  1  0  0  0  0
 14 15  1  0  0  0  0
 14 17  1  0  0  0  0
 15 16  1  0  0  0  0
 15 28  1  0  0  0  0
 15 29  1  0  0  0  0
 16 30  1  0  0  0  0
 17 23  1  0  0  0  0
 17 18  1  0  0  0  0
 17 19  1  0  0  0  0
 18 31  1  0  0  0  0
 19 24  1  0  0  0  0
 19 20  1  0  0  0  0
M  END
> <s_m_source_file>
AV-unprocessed.smi

> <i_m_source_file_index>
158

> <i_lp_mmshare_version>
43012

> <i_f3d_flags>
0

> <s_epik_input>
Q2xjKG4xKW5jKFtOSDJdKWMoYzEyKW5bY0hdbjJbQ0BASF0zT1tDQEhdKFtDSDJdW09IXSlbQ0BASF0oW09IXSlbQ0BASF0zRg==

> <s_epik_cmdline>
J2VwaWtfcHl0aG9uJywgJy1waCcsICc3LjAnLCAnLXRuJywgJzgnLCAnLW1hJywgJzIwMCcsICctbWV0YWxfYmluZGluZycsICctaW1hZScsICc8aW5maWxlLm1hZT4nLCAnLW9tYWUnLCAnPG91dGZpbGUubWFlPic=

> <r_lp_tautomer_probability>
1

> <r_epik_Ionization_Penalty>
6.51543e-05

> <r_epik_Ionization_Penalty_Charging>
0

> <r_epik_Ionization_Penalty_Neutral>
6.51543e-05

> <r_epik_State_Penalty>
-0

> <r_epik_Charging_Adjusted_Penalty>
0

> <i_epik_Tot_Q>
0

> <i_epik_Tot_abs_Q>
0

> <r_epik_Metal_State_Penalty>
-0

> <b_epik_Metal_Only>
0

> <s_epik_Chemistry_Notes>
This compound contains an acetal/aminal-like group ( X-CH(R)-Y where X, Y are N, S, or O) that may be acid/base labile, releasing an aldehyde.

> <s_lp_Force_Field>
OPLS_2005

> <r_lp_Energy>
35.164

> <b_lp_Chiralities_Consistent>
1

> <s_lp_Variant>
AV-unprocessed.smi:158-3

> <Gold.Version>
5.8.1

> <Gold.Id.Protein>
6NUR|6NUR_protein|mol2

> <Gold.PLP.Fitness>
30.7243

> <Gold.PLP.PLP>
-19.9311

> <Gold.PLP.part.hbond>
-4.5044

> <Gold.PLP.part.metal>
0.0000

> <Gold.PLP.part.buried>
-4.0582

> <Gold.PLP.part.nonpolar>
-13.1429

> <Gold.PLP.part.repulsive>
1.5835

> <Gold.PLP.ligand.clash>
0.0000

> <Gold.PLP.ligand.torsion>
0.4116

> <Gold.PLP.Chemscore.Hbond>
3.8720

> <Gold.PLP.Chemscore.CHOScore>
0.0000

> <Gold.PLP.Chemscore.Metal>
0.0000

> <Gold.Chemscore.Hbonds>
donor molecule, donor type, donor heavy atom, donor atom, acceptor molecule, acceptor atom, score
      L1  H     1    26       P1 10957  1.00
      L1  H    18    31       P1  7957  0.90
      P1  H  7989  7998       L1    16  0.94
      P1  H  8011  8017       L1    18  1.00

> <Gold.PLP.Chemscore.Internal.Correction>
0.0004

> <Gold.Rescore>
     Score         DG    S(hbond)    S(metal)    S(lipo)     H(rot)  DE(clash)    DE(int)     intcor
     11.42     -11.86       3.22        0.00      30.82       3.12       0.14       0.29       ----

> <Gold.Chemscore.Fitness>
11.4231

> <Gold.Chemscore.DG>
-11.8569

> <Gold.Chemscore.ZeroCoef>
-5.4800

> <Gold.Chemscore.Hbond>
3.2232

> <Gold.Chemscore.Metal>
0.0000

> <Gold.Chemscore.Lipo>
30.8242

> <Gold.Chemscore.Internal_Hbond>
0.0000

> <Gold.Chemscore.DEClash>
0.1397

> <Gold.Chemscore.DEInternal>
0.2940

> <Gold.Chemscore.Rot>
3.1230

> <Gold.Chemscore.Internal.Correction>
   9.000000E+99

> <Gold.Chemscore.Hbonds>
donor molecule, donor type, donor heavy atom, donor atom, acceptor molecule, acceptor atom, score
      L1  H     1    26       P1 10957  0.98
      L1  H    18    31       P1  7957  0.82
      P1  H  7989  7998       L1    16  0.79
      P1  H  8011  8017       L1    18  0.29

> <Gold.Chemscore.Hbond.Weighted>
-10.7654

> <Gold.Chemscore.Metal.Weighted>
-0.0000

> <Gold.Chemscore.Lipo.Weighted>
-3.6064

> <Gold.Chemscore.Internal_Hbond.Weighted>
0.0000

> <Gold.Chemscore.DEClash.Weighted>
0.1397

> <Gold.Chemscore.DEInternal.Weighted>
0.2940

> <Gold.Chemscore.Rot.Weighted>
7.9950

> <Gold.Chemscore.Internal.Correction.Weighted>
   9.000000E+99

> <Gold.Protein.RotatedTorsions>
[ 6907 6896 6895 6894 ] final  -53.44 input  -60.11 | X-H torsion
[ 7974 7965 7964 7962 ] final  157.90 input  175.53 | X-H torsion
[ 8008 7997 7996 7995 ] final  111.04 input   59.86 | X-H torsion
[ 10167 10162 10161 10158 ] final  174.20 input  -65.29 | X-H torsion
[ 10718 10713 10712 10709 ] final  142.54 input   66.30 | X-H torsion
[ 10763 10752 10751 10750 ] final  106.98 input  -60.55 | X-H torsion
[ 11005 11000 10999 10996 ] final  177.80 input  -57.11 | X-H torsion

> <Gold.Protein.ActiveResidues>
 VAL166  LYS551  ARG553  GLY616  TRP617  ASP618  TYR619  PRO620  LYS621  CYS622 
 ASP623  PHE694  ASN695  SER759  ASP760  ASP761  ALA762  ILE779  LEU786  VAL792 
 PHE793  MET794  SER795  GLU796  ALA797  LYS798  CYS799  TRP800  GLU811  SER814 

> <Gold.Protein.RotatedAtoms>
  150.8426  134.7724  159.6944 H   0  0  0  0  0  0  0  0  0  0  0  0  # atno 6907 bound_to 6896
  152.4510  134.5390  159.9843 H   0  0  0  0  0  0  0  0  0  0  0  0  # atno 6908 bound_to 6896
  151.5527  133.3377  159.2992 H   0  0  0  0  0  0  0  0  0  0  0  0  # atno 6909 bound_to 6896
  144.7876  139.7404  143.6234 H   0  0  0  0  0  0  0  0  0  0  0  0  # atno 7974 bound_to 7965
  156.2096  140.3027  155.9702 H   0  0  0  0  0  0  0  0  0  0  0  0  # atno 8008 bound_to 7997
  155.2757  140.0435  157.3028 H   0  0  0  0  0  0  0  0  0  0  0  0  # atno 8009 bound_to 7997
  154.5680  140.2340  155.8242 H   0  0  0  0  0  0  0  0  0  0  0  0  # atno 8010 bound_to 7997
  139.5134  144.3173  152.0235 H   0  0  0  0  0  0  0  0  0  0  0  0  # atno 10167 bound_to 10162
  157.3794  131.0990  151.0753 H   0  0  0  0  0  0  0  0  0  0  0  0  # atno 10718 bound_to 10713
  153.4004  135.3859  155.1983 H   0  0  0  0  0  0  0  0  0  0  0  0  # atno 10763 bound_to 10752
  154.8728  135.3770  154.4626 H   0  0  0  0  0  0  0  0  0  0  0  0  # atno 10764 bound_to 10752
  153.5123  135.7087  153.5836 H   0  0  0  0  0  0  0  0  0  0  0  0  # atno 10765 bound_to 10752
  140.3881  134.6887  157.4491 H   0  0  0  0  0  0  0  0  0  0  0  0  # atno 11005 bound_to 11000
  146.2115  139.5475  142.9678 LP  0  0  0  0  0  0  0  0  0  0  0  0  # atno 17320 bound_to 7965
  145.5879  141.0373  143.2086 LP  0  0  0  0  0  0  0  0  0  0  0  0  # atno 17321 bound_to 7965
  140.2616  144.4061  150.6183 LP  0  0  0  0  0  0  0  0  0  0  0  0  # atno 17342 bound_to 10162
  140.6153  143.2172  151.6804 LP  0  0  0  0  0  0  0  0  0  0  0  0  # atno 17343 bound_to 10162
  157.1828  130.6317  149.5677 LP  0  0  0  0  0  0  0  0  0  0  0  0  # atno 17370 bound_to 10713
  155.9772  130.4748  150.6580 LP  0  0  0  0  0  0  0  0  0  0  0  0  # atno 17371 bound_to 10713
  140.0427  134.6243  155.8959 LP  0  0  0  0  0  0  0  0  0  0  0  0  # atno 17394 bound_to 11000
  141.1900  133.6567  156.5394 LP  0  0  0  0  0  0  0  0  0  0  0  0  # atno 17395 bound_to 11000

$$$$
