AV-unprocessed.smi:2301|AV-procd|sdf|9234|dock3
  -GOLD-   2272012453D 1   1.00000     0.00000
 Structure written by MMmdl.
 37 38  0  0  0  0  0  0  0  0  1 V2000
  153.5126  141.0001  160.2762 C   0  0  0  0  0  0  0  0  0  0  0  0
  152.8301  142.2083  159.6701 C   0  0  0  0  0  0  0  0  0  0  0  0
  153.0743  143.5041  160.1660 C   0  0  0  0  0  0  0  0  0  0  0  0
  152.4105  144.5831  159.5555 C   0  0  0  0  0  0  0  0  0  0  0  0
  151.5368  144.3243  158.4819 C   0  0  0  0  0  0  0  0  0  0  0  0
  151.3477  142.9938  158.0446 C   0  0  0  0  0  0  0  0  0  0  0  0
  150.4485  142.8392  156.9562 N   0  0  0  0  0  0  0  0  0  0  0  0
  150.3302  141.7944  156.1176 C   0  0  0  0  0  0  0  0  0  0  0  0
  151.0048  140.7651  156.1614 O   0  0  0  0  0  0  0  0  0  0  0  0
  149.3704  142.0105  155.2062 N   0  0  0  0  0  0  0  0  0  0  0  0
  148.9845  141.0774  154.1517 C   0  0  1  0  0  0  0  0  0  0  0  0
  148.9284  139.6474  154.7223 C   0  0  0  0  0  0  0  0  0  0  0  0
  148.4666  138.6349  153.6616 C   0  0  0  0  0  0  0  0  0  0  0  0
  147.1091  139.0411  153.0630 C   0  0  2  0  0  0  0  0  0  0  0  0
  146.7486  138.1295  152.0470 O   0  0  0  0  0  0  0  0  0  0  0  0
  147.1653  140.4637  152.4810 C   0  0  0  0  0  0  0  0  0  0  0  0
  147.6252  141.4778  153.5405 C   0  0  0  0  0  0  0  0  0  0  0  0
  151.9926  141.9598  158.6403 N   0  0  0  0  0  0  0  0  0  0  0  0
  149.7430  141.0972  153.3666 H   0  0  0  0  0  0  0  0  0  0  0  0
  146.3440  138.9975  153.8393 H   0  0  0  0  0  0  0  0  0  0  0  0
  154.0517  141.2659  161.1859 H   0  0  0  0  0  0  0  0  0  0  0  0
  154.2249  140.5748  159.5689 H   0  0  0  0  0  0  0  0  0  0  0  0
  152.7789  140.2338  160.5285 H   0  0  0  0  0  0  0  0  0  0  0  0
  153.7513  143.6698  160.9912 H   0  0  0  0  0  0  0  0  0  0  0  0
  152.5688  145.5930  159.9037 H   0  0  0  0  0  0  0  0  0  0  0  0
  151.0198  145.1425  158.0019 H   0  0  0  0  0  0  0  0  0  0  0  0
  149.8236  143.6152  156.7966 H   0  0  0  0  0  0  0  0  0  0  0  0
  148.8675  142.8849  155.2438 H   0  0  0  0  0  0  0  0  0  0  0  0
  149.9088  139.3575  155.1023 H   0  0  0  0  0  0  0  0  0  0  0  0
  148.2452  139.6143  155.5723 H   0  0  0  0  0  0  0  0  0  0  0  0
  149.2171  138.5714  152.8722 H   0  0  0  0  0  0  0  0  0  0  0  0
  148.3989  137.6410  154.1055 H   0  0  0  0  0  0  0  0  0  0  0  0
  147.4123  137.4584  151.9957 H   0  0  0  0  0  0  0  0  0  0  0  0
  147.8522  140.4919  151.6337 H   0  0  0  0  0  0  0  0  0  0  0  0
  146.1864  140.7517  152.0961 H   0  0  0  0  0  0  0  0  0  0  0  0
  146.8716  141.5455  154.3264 H   0  0  0  0  0  0  0  0  0  0  0  0
  147.6904  142.4688  153.0900 H   0  0  0  0  0  0  0  0  0  0  0  0
  1  2  1  0  0  0  0
  1 21  1  0  0  0  0
  1 22  1  0  0  0  0
  1 23  1  0  0  0  0
  2 18  1  0  0  0  0
  2  3  2  0  0  0  0
  3  4  1  0  0  0  0
  3 24  1  0  0  0  0
  4  5  2  0  0  0  0
  4 25  1  0  0  0  0
  5  6  1  0  0  0  0
  5 26  1  0  0  0  0
  6  7  1  0  0  0  0
  6 18  2  0  0  0  0
  7  8  1  0  0  0  0
  7 27  1  0  0  0  0
  8  9  2  0  0  0  0
  8 10  1  0  0  0  0
 10 11  1  0  0  0  0
 10 28  1  0  0  0  0
 11 19  1  0  0  0  0
 11 17  1  0  0  0  0
 11 12  1  0  0  0  0
 12 13  1  0  0  0  0
 12 29  1  0  0  0  0
 12 30  1  0  0  0  0
 13 14  1  0  0  0  0
 13 31  1  0  0  0  0
 13 32  1  0  0  0  0
 14 20  1  0  0  0  0
 14 15  1  0  0  0  0
 14 16  1  0  0  0  0
 15 33  1  0  0  0  0
 16 17  1  0  0  0  0
 16 34  1  0  0  0  0
 16 35  1  0  0  0  0
 17 36  1  0  0  0  0
 17 37  1  0  0  0  0
M  END
> <s_m_source_file>
AV-unprocessed.smi

> <i_m_source_file_index>
2301

> <i_lp_mmshare_version>
43012

> <i_f3d_flags>
0

> <s_epik_input>
W0NIM11jMVtjSF1bY0hdW2NIXWMobjEpW05IXUMoPU8pW05IXVtDQEhdMltDSDJdW0NIMl1bQ0BIXShbT0hdKVtDSDJdW0NIMl0y

> <s_epik_cmdline>
J2VwaWtfcHl0aG9uJywgJy1waCcsICc3LjAnLCAnLXRuJywgJzgnLCAnLW1hJywgJzIwMCcsICctbWV0YWxfYmluZGluZycsICctaW1hZScsICc8aW5maWxlLm1hZT4nLCAnLW9tYWUnLCAnPG91dGZpbGUubWFlPic=

> <r_lp_tautomer_probability>
1

> <r_epik_Ionization_Penalty>
9.15533e-05

> <r_epik_Ionization_Penalty_Charging>
0

> <r_epik_Ionization_Penalty_Neutral>
9.15533e-05

> <r_epik_State_Penalty>
-0

> <r_epik_Charging_Adjusted_Penalty>
0

> <i_epik_Tot_Q>
0

> <i_epik_Tot_abs_Q>
0

> <r_epik_Metal_State_Penalty>
-0

> <b_epik_Metal_Only>
0

> <s_lp_Force_Field>
OPLS_2005

> <r_lp_Energy>
9.20264

> <b_lp_Chiralities_Consistent>
1

> <s_lp_Variant>
AV-unprocessed.smi:2301-1

> <Gold.Version>
5.8.1

> <Gold.Id.Protein>
6NUR|6NUR_protein|mol2

> <Gold.PLP.Fitness>
47.4823

> <Gold.PLP.PLP>
-39.1854

> <Gold.PLP.part.hbond>
-3.0000

> <Gold.PLP.part.metal>
0.0000

> <Gold.PLP.part.buried>
-2.8985

> <Gold.PLP.part.nonpolar>
-33.5334

> <Gold.PLP.part.repulsive>
0.2273

> <Gold.PLP.ligand.clash>
0.0000

> <Gold.PLP.ligand.torsion>
0.2933

> <Gold.PLP.Chemscore.Hbond>
2.9600

> <Gold.PLP.Chemscore.CHOScore>
0.0000

> <Gold.PLP.Chemscore.Metal>
0.0000

> <Gold.Chemscore.Hbonds>
donor molecule, donor type, donor heavy atom, donor atom, acceptor molecule, acceptor atom, score
      L1  H     7    27       P1  8028  1.00
      L1  H    10    28       P1  8028  0.98
      L1  H    15    33       P1  7948  1.00

> <Gold.PLP.Chemscore.Internal.Correction>
0.0034

> <Gold.Rescore>
     Score         DG    S(hbond)    S(metal)    S(lipo)     H(rot)  DE(clash)    DE(int)     intcor
     19.47     -22.88       2.85        0.00      99.02       1.44       0.40       3.01       ----

> <Gold.Chemscore.Fitness>
19.4711

> <Gold.Chemscore.DG>
-22.8834

> <Gold.Chemscore.ZeroCoef>
-5.4800

> <Gold.Chemscore.Hbond>
2.8458

> <Gold.Chemscore.Metal>
0.0000

> <Gold.Chemscore.Lipo>
99.0198

> <Gold.Chemscore.Internal_Hbond>
0.0000

> <Gold.Chemscore.DEClash>
0.3981

> <Gold.Chemscore.DEInternal>
3.0142

> <Gold.Chemscore.Rot>
1.4402

> <Gold.Chemscore.Internal.Correction>
   9.000000E+99

> <Gold.Chemscore.Hbonds>
donor molecule, donor type, donor heavy atom, donor atom, acceptor molecule, acceptor atom, score
      L1  H     7    27       P1  8028  0.96
      L1  H    10    28       P1  8028  0.93
      L1  H    15    33       P1  7948  0.99

> <Gold.Chemscore.Hbond.Weighted>
-9.5049

> <Gold.Chemscore.Metal.Weighted>
-0.0000

> <Gold.Chemscore.Lipo.Weighted>
-11.5853

> <Gold.Chemscore.Internal_Hbond.Weighted>
0.0000

> <Gold.Chemscore.DEClash.Weighted>
0.3981

> <Gold.Chemscore.DEInternal.Weighted>
3.0142

> <Gold.Chemscore.Rot.Weighted>
3.6869

> <Gold.Chemscore.Internal.Correction.Weighted>
   9.000000E+99

> <Gold.Protein.RotatedTorsions>
[ 6907 6896 6895 6894 ] final -127.38 input  -60.11 | X-H torsion
[ 7974 7965 7964 7962 ] final   49.04 input  175.53 | X-H torsion
[ 8008 7997 7996 7995 ] final  -94.89 input   59.86 | X-H torsion
[ 10167 10162 10161 10158 ] final  -69.74 input  -65.29 | X-H torsion
[ 10718 10713 10712 10709 ] final   78.23 input   66.30 | X-H torsion
[ 10763 10752 10751 10750 ] final   40.63 input  -60.55 | X-H torsion
[ 11005 11000 10999 10996 ] final -155.40 input  -57.11 | X-H torsion

> <Gold.Protein.ActiveResidues>
 VAL166  LYS551  ARG553  GLY616  TRP617  ASP618  TYR619  PRO620  LYS621  CYS622 
 ASP623  PHE694  ASN695  SER759  ASP760  ASP761  ALA762  ILE779  LEU786  VAL792 
 PHE793  MET794  SER795  GLU796  ALA797  LYS798  CYS799  TRP800  GLU811  SER814 

> <Gold.Protein.RotatedAtoms>
  150.9067  133.7049  159.2864 H   0  0  0  0  0  0  0  0  0  0  0  0  # atno 6907 bound_to 6896
  151.4549  135.1032  159.9718 H   0  0  0  0  0  0  0  0  0  0  0  0  # atno 6908 bound_to 6896
  152.4907  133.8444  159.7225 H   0  0  0  0  0  0  0  0  0  0  0  0  # atno 6909 bound_to 6896
  146.0147  139.4583  142.9934 H   0  0  0  0  0  0  0  0  0  0  0  0  # atno 7974 bound_to 7965
  154.7543  140.0485  157.0920 H   0  0  0  0  0  0  0  0  0  0  0  0  # atno 8008 bound_to 7997
  155.0017  140.3125  155.4845 H   0  0  0  0  0  0  0  0  0  0  0  0  # atno 8009 bound_to 7997
  156.2891  140.2200  156.5128 H   0  0  0  0  0  0  0  0  0  0  0  0  # atno 8010 bound_to 7997
  140.5407  143.2315  151.7094 H   0  0  0  0  0  0  0  0  0  0  0  0  # atno 10167 bound_to 10162
  157.6738  130.9858  150.1756 H   0  0  0  0  0  0  0  0  0  0  0  0  # atno 10718 bound_to 10713
  152.9931  135.6185  154.2657 H   0  0  0  0  0  0  0  0  0  0  0  0  # atno 10763 bound_to 10752
  154.2392  135.2789  155.2862 H   0  0  0  0  0  0  0  0  0  0  0  0  # atno 10764 bound_to 10752
  154.5384  135.5768  153.6876 H   0  0  0  0  0  0  0  0  0  0  0  0  # atno 10765 bound_to 10752
  140.6869  134.4084  157.5222 H   0  0  0  0  0  0  0  0  0  0  0  0  # atno 11005 bound_to 11000
  145.7287  141.0050  143.1363 LP  0  0  0  0  0  0  0  0  0  0  0  0  # atno 17320 bound_to 7965
  144.6966  139.8958  143.7456 LP  0  0  0  0  0  0  0  0  0  0  0  0  # atno 17321 bound_to 7965
  139.4988  144.3973  152.0218 LP  0  0  0  0  0  0  0  0  0  0  0  0  # atno 17342 bound_to 10162
  140.3082  144.3569  150.6041 LP  0  0  0  0  0  0  0  0  0  0  0  0  # atno 17343 bound_to 10162
  156.2500  130.3699  149.8242 LP  0  0  0  0  0  0  0  0  0  0  0  0  # atno 17370 bound_to 10713
  156.6018  130.8549  151.3433 LP  0  0  0  0  0  0  0  0  0  0  0  0  # atno 17371 bound_to 10713
  139.8935  134.8729  156.2221 LP  0  0  0  0  0  0  0  0  0  0  0  0  # atno 17394 bound_to 11000
  141.0273  133.7008  156.1369 LP  0  0  0  0  0  0  0  0  0  0  0  0  # atno 17395 bound_to 11000

$$$$
