AV-unprocessed.smi:2527|AV-procd|sdf|9945|dock10
  -GOLD-   2272013583D 1   1.00000     0.00000
 Structure written by MMmdl.
 35 37  0  0  0  0  0  0  0  0  2 V2000
  154.5551  136.9527  164.1440 C   0  0  0  0  0  0  0  0  0  0  0  0
  153.5745  137.2482  163.1659 O   0  0  0  0  0  0  0  0  0  0  0  0
  154.0990  137.2410  161.8479 C   0  0  0  0  0  0  0  0  0  0  0  0
  154.8476  138.5550  161.5841 C   0  0  0  0  0  0  0  0  0  0  0  0
  154.1651  139.3851  160.6021 N   0  0  0  0  0  0  0  0  0  0  0  0
  153.8405  139.0672  159.3238 C   0  0  0  0  0  0  0  0  0  0  0  0
  154.2327  137.4806  158.6446 S   0  0  0  0  0  0  0  0  0  0  0  0
  152.5622  136.8423  158.3219 C   0  0  0  0  0  0  0  0  0  0  0  0
  152.0444  137.1515  156.9349 C   0  0  0  0  0  0  0  0  0  0  0  0
  151.6920  138.4393  156.6527 N   0  0  0  0  0  0  0  0  0  0  0  0
  151.2827  138.4494  155.3882 C   0  0  0  0  0  0  0  0  0  0  0  0
  150.8949  139.4722  154.8277 O   0  0  0  0  0  0  0  0  0  0  0  0
  151.3772  137.1925  154.8889 N   0  5  0  0  0  0  0  0  0  0  0  0
  151.8855  136.3599  155.9386 N   0  0  0  0  0  0  0  0  0  0  0  0
  153.2077  140.0240  158.6414 N   0  0  0  0  0  0  0  0  0  0  0  0
  153.1120  141.0498  159.5594 C   0  0  0  0  0  0  0  0  0  0  0  0
  152.5405  142.3367  159.4419 C   0  0  0  0  0  0  0  0  0  0  0  0
  152.5564  143.2273  160.5356 C   0  0  0  0  0  0  0  0  0  0  0  0
  151.8524  144.7942  160.3759 Cl  0  0  0  0  0  0  0  0  0  0  0  0
  153.1435  142.8431  161.7589 C   0  0  0  0  0  0  0  0  0  0  0  0
  153.7198  141.5656  161.8959 C   0  0  0  0  0  0  0  0  0  0  0  0
  153.7014  140.6817  160.8006 C   0  0  0  0  0  0  0  0  0  0  0  0
  151.7378  139.2220  157.2878 H   0  0  0  0  0  0  0  0  0  0  0  0
  154.1011  136.9737  165.1348 H   0  0  0  0  0  0  0  0  0  0  0  0
  155.3622  137.6863  164.1278 H   0  0  0  0  0  0  0  0  0  0  0  0
  154.9798  135.9601  163.9891 H   0  0  0  0  0  0  0  0  0  0  0  0
  154.7798  136.3977  161.7221 H   0  0  0  0  0  0  0  0  0  0  0  0
  153.2912  137.1185  161.1246 H   0  0  0  0  0  0  0  0  0  0  0  0
  154.9439  139.1203  162.5114 H   0  0  0  0  0  0  0  0  0  0  0  0
  155.8642  138.3554  161.2452 H   0  0  0  0  0  0  0  0  0  0  0  0
  152.5637  135.7624  158.4757 H   0  0  0  0  0  0  0  0  0  0  0  0
  151.8707  137.2676  159.0498 H   0  0  0  0  0  0  0  0  0  0  0  0
  152.0879  142.6374  158.5085 H   0  0  0  0  0  0  0  0  0  0  0  0
  153.1509  143.5283  162.5939 H   0  0  0  0  0  0  0  0  0  0  0  0
  154.1663  141.2678  162.8329 H   0  0  0  0  0  0  0  0  0  0  0  0
  1  2  1  0  0  0  0
  1 24  1  0  0  0  0
  1 25  1  0  0  0  0
  1 26  1  0  0  0  0
  2  3  1  0  0  0  0
  3  4  1  0  0  0  0
  3 27  1  0  0  0  0
  3 28  1  0  0  0  0
  4  5  1  0  0  0  0
  4 29  1  0  0  0  0
  4 30  1  0  0  0  0
  5 22  1  0  0  0  0
  5  6  1  0  0  0  0
  6  7  1  0  0  0  0
  6 15  2  0  0  0  0
  7  8  1  0  0  0  0
  8 31  1  0  0  0  0
  8 32  1  0  0  0  0
  8  9  1  0  0  0  0
  9 14  2  0  0  0  0
  9 10  1  0  0  0  0
 10 11  1  0  0  0  0
 10 23  1  0  0  0  0
 11 13  1  0  0  0  0
 11 12  2  0  0  0  0
 13 14  1  0  0  0  0
 15 16  1  0  0  0  0
 16 22  2  0  0  0  0
 16 17  1  0  0  0  0
 17 18  2  0  0  0  0
 17 33  1  0  0  0  0
 18 19  1  0  0  0  0
 18 20  1  0  0  0  0
 20 21  2  0  0  0  0
 20 34  1  0  0  0  0
 21 22  1  0  0  0  0
 21 35  1  0  0  0  0
M  CHG  1  13  -1
M  END
> <s_m_source_file>
AV-unprocessed.smi

> <i_m_source_file_index>
2527

> <i_lp_mmshare_version>
43012

> <i_f3d_flags>
0

> <s_epik_input>
W2NIXTFjKENsKVtjSF1bY0hdYyhjMTIpbihbQ0gyXVtDSDJdT1tDSDNdKWMobjIpU1tDSDJdYzNuYyg9TylbbkhdW25IXTM=

> <s_epik_cmdline>
J2VwaWtfcHl0aG9uJywgJy1waCcsICc3LjAnLCAnLXRuJywgJzgnLCAnLW1hJywgJzIwMCcsICctbWV0YWxfYmluZGluZycsICctaW1hZScsICc8aW5maWxlLm1hZT4nLCAnLW9tYWUnLCAnPG91dGZpbGUubWFlPic=

> <r_lp_tautomer_probability>
0.999897

> <r_epik_Ionization_Penalty>
2.94119

> <r_epik_Ionization_Penalty_Charging>
1.40065e-06

> <r_epik_Ionization_Penalty_Neutral>
2.94119

> <r_epik_State_Penalty>
4.57578

> <r_epik_Charging_Adjusted_Penalty>
4.57578

> <i_epik_Tot_Q>
-1

> <i_epik_Tot_abs_Q>
1

> <r_epik_Metal_State_Penalty>
2.1052

> <b_epik_Metal_Only>
1

> <s_lp_Force_Field>
OPLS_2005

> <r_lp_Energy>
14.3955

> <b_lp_Chiralities_Consistent>
1

> <s_lp_Variant>
AV-unprocessed.smi:2527-4

> <Gold.Version>
5.8.1

> <Gold.Id.Protein>
6NUR|6NUR_protein|mol2

> <Gold.PLP.Fitness>
51.9494

> <Gold.PLP.PLP>
-45.2275

> <Gold.PLP.part.hbond>
-3.7030

> <Gold.PLP.part.metal>
0.0000

> <Gold.PLP.part.buried>
-6.1445

> <Gold.PLP.part.nonpolar>
-34.9981

> <Gold.PLP.part.repulsive>
0.3594

> <Gold.PLP.ligand.clash>
0.0000

> <Gold.PLP.ligand.torsion>
0.7900

> <Gold.PLP.Chemscore.Hbond>
2.7600

> <Gold.PLP.Chemscore.CHOScore>
0.0000

> <Gold.PLP.Chemscore.Metal>
0.0000

> <Gold.Chemscore.Hbonds>
donor molecule, donor type, donor heavy atom, donor atom, acceptor molecule, acceptor atom, score
      P1  H  7989  7998       L1    12  0.93
      P1  H  7997  8010       L1    15  0.55
      P1  H 10752 10765       L1    14  0.85

> <Gold.PLP.Chemscore.Internal.Correction>
0.0219

> <Gold.Rescore>
     Score         DG    S(hbond)    S(metal)    S(lipo)     H(rot)  DE(clash)    DE(int)     intcor
     15.97     -16.81       1.88        0.00     104.56       2.81       0.05       0.80       ----

> <Gold.Chemscore.Fitness>
15.9690

> <Gold.Chemscore.DG>
-16.8148

> <Gold.Chemscore.ZeroCoef>
-5.4800

> <Gold.Chemscore.Hbond>
1.8840

> <Gold.Chemscore.Metal>
0.0000

> <Gold.Chemscore.Lipo>
104.5623

> <Gold.Chemscore.Internal_Hbond>
0.0000

> <Gold.Chemscore.DEClash>
0.0502

> <Gold.Chemscore.DEInternal>
0.7955

> <Gold.Chemscore.Rot>
2.8092

> <Gold.Chemscore.Internal.Correction>
   9.000000E+99

> <Gold.Chemscore.Hbonds>
donor molecule, donor type, donor heavy atom, donor atom, acceptor molecule, acceptor atom, score
      P1  H  7989  7998       L1    12  0.89
      P1  H  7997  8010       L1    15  0.10
      P1  H 10752 10765       L1    14  0.15

> <Gold.Chemscore.Hbond.Weighted>
-6.2926

> <Gold.Chemscore.Metal.Weighted>
-0.0000

> <Gold.Chemscore.Lipo.Weighted>
-12.2338

> <Gold.Chemscore.Internal_Hbond.Weighted>
0.0000

> <Gold.Chemscore.DEClash.Weighted>
0.0502

> <Gold.Chemscore.DEInternal.Weighted>
0.7955

> <Gold.Chemscore.Rot.Weighted>
7.1916

> <Gold.Chemscore.Internal.Correction.Weighted>
   9.000000E+99

> <Gold.Protein.RotatedTorsions>
[ 6907 6896 6895 6894 ] final  -75.51 input  -60.11 | X-H torsion
[ 7974 7965 7964 7962 ] final  126.20 input  175.53 | X-H torsion
[ 8008 7997 7996 7995 ] final   44.73 input   59.86 | X-H torsion
[ 10167 10162 10161 10158 ] final  157.79 input  -65.29 | X-H torsion
[ 10718 10713 10712 10709 ] final -123.92 input   66.30 | X-H torsion
[ 10763 10752 10751 10750 ] final -156.99 input  -60.55 | X-H torsion
[ 11005 11000 10999 10996 ] final  -65.03 input  -57.11 | X-H torsion

> <Gold.Protein.ActiveResidues>
 VAL166  LYS551  ARG553  GLY616  TRP617  ASP618  TYR619  PRO620  LYS621  CYS622 
 ASP623  PHE694  ASN695  SER759  ASP760  ASP761  ALA762  ILE779  LEU786  VAL792 
 PHE793  MET794  SER795  GLU796  ALA797  LYS798  CYS799  TRP800  GLU811  SER814 

> <Gold.Protein.RotatedAtoms>
  150.7057  134.4710  159.5425 H   0  0  0  0  0  0  0  0  0  0  0  0  # atno 6907 bound_to 6896
  152.2366  134.8266  160.0475 H   0  0  0  0  0  0  0  0  0  0  0  0  # atno 6908 bound_to 6896
  151.9063  133.3515  159.3885 H   0  0  0  0  0  0  0  0  0  0  0  0  # atno 6909 bound_to 6896
  145.0644  139.3779  143.4989 H   0  0  0  0  0  0  0  0  0  0  0  0  # atno 7974 bound_to 7965
  155.3241  140.3398  155.4240 H   0  0  0  0  0  0  0  0  0  0  0  0  # atno 8008 bound_to 7997
  156.1894  140.1692  156.8158 H   0  0  0  0  0  0  0  0  0  0  0  0  # atno 8009 bound_to 7997
  154.5425  140.0722  156.8516 H   0  0  0  0  0  0  0  0  0  0  0  0  # atno 8010 bound_to 7997
  139.4824  144.4885  151.8343 H   0  0  0  0  0  0  0  0  0  0  0  0  # atno 10167 bound_to 10162
  156.1543  130.6557  150.9959 H   0  0  0  0  0  0  0  0  0  0  0  0  # atno 10718 bound_to 10713
  154.7671  135.3134  154.8265 H   0  0  0  0  0  0  0  0  0  0  0  0  # atno 10763 bound_to 10752
  153.9010  135.6815  153.4759 H   0  0  0  0  0  0  0  0  0  0  0  0  # atno 10764 bound_to 10752
  153.1278  135.4793  154.9234 H   0  0  0  0  0  0  0  0  0  0  0  0  # atno 10765 bound_to 10752
  141.1442  133.6675  156.5923 H   0  0  0  0  0  0  0  0  0  0  0  0  # atno 11005 bound_to 11000
  146.3526  140.0358  142.8647 LP  0  0  0  0  0  0  0  0  0  0  0  0  # atno 17320 bound_to 7965
  145.1369  140.9549  143.4511 LP  0  0  0  0  0  0  0  0  0  0  0  0  # atno 17321 bound_to 7965
  140.4367  144.2042  150.5889 LP  0  0  0  0  0  0  0  0  0  0  0  0  # atno 17342 bound_to 10162
  140.4725  143.2408  151.9069 LP  0  0  0  0  0  0  0  0  0  0  0  0  # atno 17343 bound_to 10162
  157.6683  131.0867  150.7676 LP  0  0  0  0  0  0  0  0  0  0  0  0  # atno 17370 bound_to 10713
  156.7742  130.4838  149.5413 LP  0  0  0  0  0  0  0  0  0  0  0  0  # atno 17371 bound_to 10713
  140.3753  134.7570  157.4626 LP  0  0  0  0  0  0  0  0  0  0  0  0  # atno 17394 bound_to 11000
  140.0679  134.5904  155.8675 LP  0  0  0  0  0  0  0  0  0  0  0  0  # atno 17395 bound_to 11000

$$$$
