AV-unprocessed.smi:776|AV-procd|sdf|3700|dock1
  -GOLD-   22720 1123D 1   1.00000     0.00000
 Structure written by MMmdl.
 44 45  0  0  0  0  0  0  0  0  1 V2000
  146.6617  134.6400  162.1148 C   0  0  0  0  0  0  0  0  0  0  0  0
  147.3563  136.0093  162.0695 C   0  0  0  0  0  0  0  0  0  0  0  0
  146.3741  137.1856  162.1801 C   0  0  0  0  0  0  0  0  0  0  0  0
  148.2559  136.1399  160.8783 C   0  0  0  0  0  0  0  0  0  0  0  0
  148.3103  135.2001  159.9400 N   0  0  0  0  0  0  0  0  0  0  0  0
  149.2619  135.6958  159.0376 O   0  0  0  0  0  0  0  0  0  0  0  0
  149.6578  136.8905  159.5379 C   0  0  0  0  0  0  0  0  0  0  0  0
  150.7189  137.6557  158.8208 C   0  0  0  0  0  0  0  0  0  0  0  0
  150.2730  139.0835  158.4670 C   0  0  0  0  0  0  0  0  0  0  0  0
  151.2413  140.0758  158.9190 N   0  0  0  0  0  0  0  0  0  0  0  0
  151.0616  141.4071  158.8823 C   0  0  0  0  0  0  0  0  0  0  0  0
  150.0437  141.9186  158.4156 O   0  0  0  0  0  0  0  0  0  0  0  0
  152.1507  142.1111  159.2835 N   0  0  0  0  0  0  0  0  0  0  0  0
  153.0072  141.6263  160.3817 C   0  0  0  0  0  0  0  0  0  0  0  0
  152.5233  142.2444  161.7086 C   0  0  0  0  0  0  0  0  0  0  0  0
  152.5061  143.7824  161.6318 C   0  0  0  0  0  0  0  0  0  0  0  0
  151.7828  144.2859  160.3683 C   0  0  0  0  0  0  0  0  0  0  0  0
  152.3190  143.5713  159.1106 C   0  0  2  0  0  0  0  0  0  0  0  0
  151.7384  144.1561  157.8054 C   0  0  0  0  0  0  0  0  0  0  0  0
  149.0774  137.2100  160.6917 N   0  0  0  0  0  0  0  0  0  0  0  0
  147.3925  133.8305  162.1130 H   0  0  0  0  0  0  0  0  0  0  0  0
  146.0039  134.4985  161.2566 H   0  0  0  0  0  0  0  0  0  0  0  0
  146.0575  134.5366  163.0163 H   0  0  0  0  0  0  0  0  0  0  0  0
  147.9926  136.0588  162.9543 H   0  0  0  0  0  0  0  0  0  0  0  0
  146.9046  138.1373  162.2219 H   0  0  0  0  0  0  0  0  0  0  0  0
  145.7672  137.1060  163.0822 H   0  0  0  0  0  0  0  0  0  0  0  0
  145.6956  137.2185  161.3270 H   0  0  0  0  0  0  0  0  0  0  0  0
  151.6102  137.6850  159.4485 H   0  0  0  0  0  0  0  0  0  0  0  0
  150.9902  137.1067  157.9182 H   0  0  0  0  0  0  0  0  0  0  0  0
  150.1114  139.1791  157.3918 H   0  0  0  0  0  0  0  0  0  0  0  0
  149.3181  139.3031  158.9454 H   0  0  0  0  0  0  0  0  0  0  0  0
  152.1197  139.7278  159.2748 H   0  0  0  0  0  0  0  0  0  0  0  0
  153.0204  140.5396  160.4723 H   0  0  0  0  0  0  0  0  0  0  0  0
  154.0429  141.9110  160.1911 H   0  0  0  0  0  0  0  0  0  0  0  0
  151.5207  141.8799  161.9364 H   0  0  0  0  0  0  0  0  0  0  0  0
  153.1633  141.9203  162.5296 H   0  0  0  0  0  0  0  0  0  0  0  0
  152.0417  144.2005  162.5254 H   0  0  0  0  0  0  0  0  0  0  0  0
  153.5337  144.1476  161.6205 H   0  0  0  0  0  0  0  0  0  0  0  0
  150.7099  144.1121  160.4639 H   0  0  0  0  0  0  0  0  0  0  0  0
  151.9146  145.3645  160.2766 H   0  0  0  0  0  0  0  0  0  0  0  0
  153.3925  143.7605  159.0526 H   0  0  0  0  0  0  0  0  0  0  0  0
  152.0905  145.1771  157.6571 H   0  0  0  0  0  0  0  0  0  0  0  0
  150.6496  144.2002  157.8139 H   0  0  0  0  0  0  0  0  0  0  0  0
  152.0515  143.5755  156.9370 H   0  0  0  0  0  0  0  0  0  0  0  0
  1  2  1  0  0  0  0
  1 21  1  0  0  0  0
  1 22  1  0  0  0  0
  1 23  1  0  0  0  0
  2  3  1  0  0  0  0
  2  4  1  0  0  0  0
  2 24  1  0  0  0  0
  3 25  1  0  0  0  0
  3 26  1  0  0  0  0
  3 27  1  0  0  0  0
  4 20  1  0  0  0  0
  4  5  2  0  0  0  0
  5  6  1  0  0  0  0
  6  7  1  0  0  0  0
  7  8  1  0  0  0  0
  7 20  2  0  0  0  0
  8  9  1  0  0  0  0
  8 28  1  0  0  0  0
  8 29  1  0  0  0  0
  9 10  1  0  0  0  0
  9 30  1  0  0  0  0
  9 31  1  0  0  0  0
 10 11  1  0  0  0  0
 10 32  1  0  0  0  0
 11 12  2  0  0  0  0
 11 13  1  0  0  0  0
 13 18  1  0  0  0  0
 13 14  1  0  0  0  0
 14 15  1  0  0  0  0
 14 33  1  0  0  0  0
 14 34  1  0  0  0  0
 15 16  1  0  0  0  0
 15 35  1  0  0  0  0
 15 36  1  0  0  0  0
 16 17  1  0  0  0  0
 16 37  1  0  0  0  0
 16 38  1  0  0  0  0
 17 18  1  0  0  0  0
 17 39  1  0  0  0  0
 17 40  1  0  0  0  0
 18 19  1  0  0  0  0
 18 41  1  0  0  0  0
 19 42  1  0  0  0  0
 19 43  1  0  0  0  0
 19 44  1  0  0  0  0
M  END
> <s_m_source_file>
AV-unprocessed.smi

> <i_m_source_file_index>
776

> <i_lp_mmshare_version>
43012

> <i_f3d_flags>
0

> <s_epik_input>
W0NIM11bQ0hdKFtDSDNdKWMxbm9jKG4xKVtDSDJdW0NIMl1bTkhdQyg9TylOMltDSDJdW0NIMl1bQ0gyXVtDSDJdW0NASF0yW0NIM10=

> <s_epik_cmdline>
J2VwaWtfcHl0aG9uJywgJy1waCcsICc3LjAnLCAnLXRuJywgJzgnLCAnLW1hJywgJzIwMCcsICctbWV0YWxfYmluZGluZycsICctaW1hZScsICc8aW5maWxlLm1hZT4nLCAnLW9tYWUnLCAnPG91dGZpbGUubWFlPic=

> <r_lp_tautomer_probability>
1

> <r_epik_Ionization_Penalty>
6.23032e-05

> <r_epik_Ionization_Penalty_Charging>
0

> <r_epik_Ionization_Penalty_Neutral>
6.23032e-05

> <r_epik_State_Penalty>
-0

> <r_epik_Charging_Adjusted_Penalty>
0

> <i_epik_Tot_Q>
0

> <i_epik_Tot_abs_Q>
0

> <r_epik_Metal_State_Penalty>
-0

> <b_epik_Metal_Only>
0

> <s_lp_Force_Field>
OPLS_2005

> <r_lp_Energy>
25.3462

> <b_lp_Chiralities_Consistent>
1

> <s_lp_Variant>
AV-unprocessed.smi:776-2

> <Gold.Version>
5.8.1

> <Gold.Id.Protein>
6NUR|6NUR_protein|mol2

> <Gold.PLP.Fitness>
49.2471

> <Gold.PLP.PLP>
-45.2706

> <Gold.PLP.part.hbond>
-1.9726

> <Gold.PLP.part.metal>
0.0000

> <Gold.PLP.part.buried>
-3.7757

> <Gold.PLP.part.nonpolar>
-40.0505

> <Gold.PLP.part.repulsive>
0.2432

> <Gold.PLP.ligand.clash>
0.0000

> <Gold.PLP.ligand.torsion>
0.6937

> <Gold.PLP.Chemscore.Hbond>
1.6060

> <Gold.PLP.Chemscore.CHOScore>
0.0000

> <Gold.PLP.Chemscore.Metal>
0.0000

> <Gold.Chemscore.Hbonds>
donor molecule, donor type, donor heavy atom, donor atom, acceptor molecule, acceptor atom, score
      P1  H  6896  6908       L1     6  0.81
      P1  H  6931  6943       L1    20  0.66

> <Gold.PLP.Chemscore.Internal.Correction>
0.5458

> <Gold.Rescore>
     Score         DG    S(hbond)    S(metal)    S(lipo)     H(rot)  DE(clash)    DE(int)     intcor
     15.54     -17.69       1.36        0.00     101.62       1.65       0.15       1.99       ----

> <Gold.Chemscore.Fitness>
15.5441

> <Gold.Chemscore.DG>
-17.6875

> <Gold.Chemscore.ZeroCoef>
-5.4800

> <Gold.Chemscore.Hbond>
1.3576

> <Gold.Chemscore.Metal>
0.0000

> <Gold.Chemscore.Lipo>
101.6198

> <Gold.Chemscore.Internal_Hbond>
0.0000

> <Gold.Chemscore.DEClash>
0.1547

> <Gold.Chemscore.DEInternal>
1.9887

> <Gold.Chemscore.Rot>
1.6470

> <Gold.Chemscore.Internal.Correction>
   9.000000E+99

> <Gold.Chemscore.Hbonds>
donor molecule, donor type, donor heavy atom, donor atom, acceptor molecule, acceptor atom, score
      P1  H  6896  6908       L1     6  0.03
      P1  H  6931  6943       L1    20  0.58

> <Gold.Chemscore.Hbond.Weighted>
-4.5344

> <Gold.Chemscore.Metal.Weighted>
-0.0000

> <Gold.Chemscore.Lipo.Weighted>
-11.8895

> <Gold.Chemscore.Internal_Hbond.Weighted>
0.0000

> <Gold.Chemscore.DEClash.Weighted>
0.1547

> <Gold.Chemscore.DEInternal.Weighted>
1.9887

> <Gold.Chemscore.Rot.Weighted>
4.2164

> <Gold.Chemscore.Internal.Correction.Weighted>
   9.000000E+99

> <Gold.Protein.RotatedTorsions>
[ 6907 6896 6895 6894 ] final  177.29 input  -60.11 | X-H torsion
[ 7974 7965 7964 7962 ] final  176.65 input  175.53 | X-H torsion
[ 8008 7997 7996 7995 ] final  178.40 input   59.86 | X-H torsion
[ 10167 10162 10161 10158 ] final -106.86 input  -65.29 | X-H torsion
[ 10718 10713 10712 10709 ] final   63.34 input   66.30 | X-H torsion
[ 10763 10752 10751 10750 ] final   63.71 input  -60.55 | X-H torsion
[ 11005 11000 10999 10996 ] final  122.95 input  -57.11 | X-H torsion

> <Gold.Protein.ActiveResidues>
 VAL166  LYS551  ARG553  GLY616  TRP617  ASP618  TYR619  PRO620  LYS621  CYS622 
 ASP623  PHE694  ASN695  SER759  ASP760  ASP761  ALA762  ILE779  LEU786  VAL792 
 PHE793  MET794  SER795  GLU796  ALA797  LYS798  CYS799  TRP800  GLU811  SER814 

> <Gold.Protein.RotatedAtoms>
  151.7064  133.3311  159.3279 H   0  0  0  0  0  0  0  0  0  0  0  0  # atno 6907 bound_to 6896
  150.7713  134.6571  159.6328 H   0  0  0  0  0  0  0  0  0  0  0  0  # atno 6908 bound_to 6896
  152.3738  134.6697  160.0219 H   0  0  0  0  0  0  0  0  0  0  0  0  # atno 6909 bound_to 6896
  144.7181  140.0129  143.6440 H   0  0  0  0  0  0  0  0  0  0  0  0  # atno 7974 bound_to 7965
  156.0550  140.1334  157.0006 H   0  0  0  0  0  0  0  0  0  0  0  0  # atno 8008 bound_to 7997
  154.4453  140.1003  156.6503 H   0  0  0  0  0  0  0  0  0  0  0  0  # atno 8009 bound_to 7997
  155.5465  140.3462  155.4461 H   0  0  0  0  0  0  0  0  0  0  0  0  # atno 8010 bound_to 7997
  140.1832  143.3950  152.1265 H   0  0  0  0  0  0  0  0  0  0  0  0  # atno 10167 bound_to 10162
  157.5964  130.9100  149.9703 H   0  0  0  0  0  0  0  0  0  0  0  0  # atno 10718 bound_to 10713
  153.0028  135.5419  154.6396 H   0  0  0  0  0  0  0  0  0  0  0  0  # atno 10763 bound_to 10752
  154.5654  135.2837  155.0881 H   0  0  0  0  0  0  0  0  0  0  0  0  # atno 10764 bound_to 10752
  154.2067  135.6474  153.5156 H   0  0  0  0  0  0  0  0  0  0  0  0  # atno 10765 bound_to 10752
  139.9291  134.9641  156.8186 H   0  0  0  0  0  0  0  0  0  0  0  0  # atno 11005 bound_to 11000
  146.0244  139.3279  143.0793 LP  0  0  0  0  0  0  0  0  0  0  0  0  # atno 17320 bound_to 7965
  145.8529  140.9518  143.0740 LP  0  0  0  0  0  0  0  0  0  0  0  0  # atno 17321 bound_to 7965
  139.5287  144.7133  151.5135 LP  0  0  0  0  0  0  0  0  0  0  0  0  # atno 17342 bound_to 10162
  140.6505  143.8706  150.6781 LP  0  0  0  0  0  0  0  0  0  0  0  0  # atno 17343 bound_to 10162
  156.1027  130.3654  150.0188 LP  0  0  0  0  0  0  0  0  0  0  0  0  # atno 17370 bound_to 10713
  156.8301  130.9389  151.3637 LP  0  0  0  0  0  0  0  0  0  0  0  0  # atno 17371 bound_to 10713
  140.6253  133.9956  155.7637 LP  0  0  0  0  0  0  0  0  0  0  0  0  # atno 17394 bound_to 11000
  141.0868  133.9978  157.3301 LP  0  0  0  0  0  0  0  0  0  0  0  0  # atno 17395 bound_to 11000

$$$$
