AV-unprocessed.smi:3032|AV-procd|sdf|11557|dock3
  -GOLD-   2272016523D 1   1.00000     0.00000
 Structure written by MMmdl.
 37 38  0  0  0  0  0  0  0  0  1 V2000
  151.7740  145.8134  159.9040 C   0  0  0  0  0  0  0  0  0  0  0  0
  151.9175  144.2934  160.0643 C   0  0  2  0  0  0  0  0  0  0  0  0
  152.4606  143.9220  161.4565 C   0  0  0  0  0  0  0  0  0  0  0  0
  152.5833  142.4001  161.6275 C   0  0  0  0  0  0  0  0  0  0  0  0
  153.4343  141.7657  160.5089 C   0  0  0  0  0  0  0  0  0  0  0  0
  152.9855  142.1639  159.0813 C   0  0  1  0  0  0  0  0  0  0  0  0
  151.7263  141.4243  158.5921 C   0  0  0  0  0  0  0  0  0  0  0  0
  151.2271  140.5083  159.2455 O   0  0  0  0  0  0  0  0  0  0  0  0
  151.2128  141.8499  157.4279 N   0  0  0  0  0  0  0  0  0  0  0  0
  149.9797  141.3594  156.8185 C   0  0  0  0  0  0  0  0  0  0  0  0
  150.0621  141.2510  155.2812 C   0  0  0  0  0  0  0  0  0  0  0  0
  148.7418  141.3903  154.5893 C   0  0  0  0  0  0  0  0  0  0  0  0
  148.0387  142.5247  154.6179 N   0  0  0  0  0  0  0  0  0  0  0  0
  146.9114  142.3692  153.8931 N   0  0  0  0  0  0  0  0  0  0  0  0
  147.0221  141.1102  153.4735 C   0  0  0  0  0  0  0  0  0  0  0  0
  148.1456  140.4423  153.8745 N   0  0  0  0  0  0  0  0  0  0  0  0
  152.8246  143.6969  158.9684 C   0  0  0  0  0  0  0  0  0  0  0  0
  148.2812  143.3872  155.0846 H   0  0  0  0  0  0  0  0  0  0  0  0
  152.7373  146.3154  159.9981 H   0  0  0  0  0  0  0  0  0  0  0  0
  151.1070  146.2266  160.6609 H   0  0  0  0  0  0  0  0  0  0  0  0
  151.3601  146.0675  158.9277 H   0  0  0  0  0  0  0  0  0  0  0  0
  150.9204  143.8631  159.9627 H   0  0  0  0  0  0  0  0  0  0  0  0
  153.4374  144.3839  161.6063 H   0  0  0  0  0  0  0  0  0  0  0  0
  151.8076  144.3235  162.2323 H   0  0  0  0  0  0  0  0  0  0  0  0
  153.0290  142.1751  162.5967 H   0  0  0  0  0  0  0  0  0  0  0  0
  151.5884  141.9565  161.6490 H   0  0  0  0  0  0  0  0  0  0  0  0
  154.4715  142.0747  160.6444 H   0  0  0  0  0  0  0  0  0  0  0  0
  153.4341  140.6802  160.6176 H   0  0  0  0  0  0  0  0  0  0  0  0
  153.7887  141.8675  158.4043 H   0  0  0  0  0  0  0  0  0  0  0  0
  151.6861  142.6033  156.9502 H   0  0  0  0  0  0  0  0  0  0  0  0
  149.7914  140.3701  157.2359 H   0  0  0  0  0  0  0  0  0  0  0  0
  149.1360  141.9844  157.1139 H   0  0  0  0  0  0  0  0  0  0  0  0
  150.7409  142.0121  154.8949 H   0  0  0  0  0  0  0  0  0  0  0  0
  150.4989  140.2909  155.0036 H   0  0  0  0  0  0  0  0  0  0  0  0
  146.2651  140.6545  152.8526 H   0  0  0  0  0  0  0  0  0  0  0  0
  152.4360  143.9609  157.9835 H   0  0  0  0  0  0  0  0  0  0  0  0
  153.8106  144.1596  159.0273 H   0  0  0  0  0  0  0  0  0  0  0  0
  1  2  1  0  0  0  0
  1 19  1  0  0  0  0
  1 20  1  0  0  0  0
  1 21  1  0  0  0  0
  2 17  1  0  0  0  0
  2  3  1  0  0  0  0
  2 22  1  0  0  0  0
  3  4  1  0  0  0  0
  3 23  1  0  0  0  0
  3 24  1  0  0  0  0
  4  5  1  0  0  0  0
  4 25  1  0  0  0  0
  4 26  1  0  0  0  0
  5  6  1  0  0  0  0
  5 27  1  0  0  0  0
  5 28  1  0  0  0  0
  6  7  1  0  0  0  0
  6 17  1  0  0  0  0
  6 29  1  0  0  0  0
  7  8  2  0  0  0  0
  7  9  1  0  0  0  0
  9 10  1  0  0  0  0
  9 30  1  0  0  0  0
 10 11  1  0  0  0  0
 10 31  1  0  0  0  0
 10 32  1  0  0  0  0
 11 33  1  0  0  0  0
 11 34  1  0  0  0  0
 11 12  1  0  0  0  0
 12 16  2  0  0  0  0
 12 13  1  0  0  0  0
 13 18  1  0  0  0  0
 13 14  1  0  0  0  0
 14 15  2  0  0  0  0
 15 16  1  0  0  0  0
 15 35  1  0  0  0  0
 17 36  1  0  0  0  0
 17 37  1  0  0  0  0
M  END
> <s_m_source_file>
AV-unprocessed.smi

> <i_m_source_file_index>
3032

> <i_lp_mmshare_version>
43012

> <i_f3d_flags>
0

> <s_epik_input>
W0NIM11bQ0BASF0xW0NIMl1bQ0gyXVtDSDJdW0NASF0oW0NIMl0xKUMoPU8pW05IXVtDSDJdW0NIMl1jMm5uW2NIXVtuSF0y

> <s_epik_cmdline>
J2VwaWtfcHl0aG9uJywgJy1waCcsICc3LjAnLCAnLXRuJywgJzgnLCAnLW1hJywgJzIwMCcsICctbWV0YWxfYmluZGluZycsICctaW1hZScsICc8aW5maWxlLm1hZT4nLCAnLW9tYWUnLCAnPG91dGZpbGUubWFlPic=

> <r_lp_tautomer_probability>
0.948284

> <r_epik_Ionization_Penalty>
0.000474052

> <r_epik_Ionization_Penalty_Charging>
0

> <r_epik_Ionization_Penalty_Neutral>
0.000474052

> <r_epik_State_Penalty>
0.271807

> <r_epik_Charging_Adjusted_Penalty>
0.271807

> <i_epik_Tot_Q>
0

> <i_epik_Tot_abs_Q>
0

> <r_epik_Metal_State_Penalty>
0.397201

> <b_epik_Metal_Only>
0

> <s_lp_Force_Field>
OPLS_2005

> <r_lp_Energy>
8.45965

> <b_lp_Chiralities_Consistent>
1

> <s_lp_Variant>
AV-unprocessed.smi:3032-1

> <Gold.Version>
5.8.1

> <Gold.Id.Protein>
6NUR|6NUR_protein|mol2

> <Gold.PLP.Fitness>
46.2691

> <Gold.PLP.PLP>
-41.3206

> <Gold.PLP.part.hbond>
-1.0000

> <Gold.PLP.part.metal>
0.0000

> <Gold.PLP.part.buried>
-6.3534

> <Gold.PLP.part.nonpolar>
-34.6565

> <Gold.PLP.part.repulsive>
0.5408

> <Gold.PLP.ligand.clash>
0.0000

> <Gold.PLP.ligand.torsion>
0.5469

> <Gold.PLP.Chemscore.Hbond>
1.0000

> <Gold.PLP.Chemscore.CHOScore>
0.9952

> <Gold.PLP.Chemscore.Metal>
0.0000

> <Gold.Chemscore.Hbonds>
donor molecule, donor type, donor heavy atom, donor atom, acceptor molecule, acceptor atom, score
      L1  H    13    18       P1  8028  1.00
      L1  C    15    35       P1 10175  0.81

> <Gold.PLP.Chemscore.Internal.Correction>
0.0566

> <Gold.Rescore>
     Score         DG    S(hbond)    S(metal)    S(lipo)     H(rot)  DE(clash)    DE(int)     intcor
     13.91     -14.37       1.00        0.00      96.74       2.25       0.03       0.43       ----

> <Gold.Chemscore.Fitness>
13.9138

> <Gold.Chemscore.DG>
-14.3693

> <Gold.Chemscore.ZeroCoef>
-5.4800

> <Gold.Chemscore.Hbond>
0.9972

> <Gold.Chemscore.Metal>
0.0000

> <Gold.Chemscore.Lipo>
96.7425

> <Gold.Chemscore.Internal_Hbond>
0.0000

> <Gold.Chemscore.DEClash>
0.0252

> <Gold.Chemscore.DEInternal>
0.4303

> <Gold.Chemscore.Rot>
2.2501

> <Gold.Chemscore.Internal.Correction>
   9.000000E+99

> <Gold.Chemscore.Hbonds>
donor molecule, donor type, donor heavy atom, donor atom, acceptor molecule, acceptor atom, score
      L1  H    13    18       P1  8028  0.91

> <Gold.Chemscore.Hbond.Weighted>
-3.3307

> <Gold.Chemscore.Metal.Weighted>
-0.0000

> <Gold.Chemscore.Lipo.Weighted>
-11.3189

> <Gold.Chemscore.Internal_Hbond.Weighted>
0.0000

> <Gold.Chemscore.DEClash.Weighted>
0.0252

> <Gold.Chemscore.DEInternal.Weighted>
0.4303

> <Gold.Chemscore.Rot.Weighted>
5.7603

> <Gold.Chemscore.Internal.Correction.Weighted>
   9.000000E+99

> <Gold.Protein.RotatedTorsions>
[ 6907 6896 6895 6894 ] final   69.26 input  -60.11 | X-H torsion
[ 7974 7965 7964 7962 ] final   16.54 input  175.53 | X-H torsion
[ 8008 7997 7996 7995 ] final  -66.68 input   59.86 | X-H torsion
[ 10167 10162 10161 10158 ] final    6.08 input  -65.29 | X-H torsion
[ 10718 10713 10712 10709 ] final   -1.31 input   66.30 | X-H torsion
[ 10763 10752 10751 10750 ] final  128.67 input  -60.55 | X-H torsion
[ 11005 11000 10999 10996 ] final  166.38 input  -57.11 | X-H torsion

> <Gold.Protein.ActiveResidues>
 VAL166  LYS551  ARG553  GLY616  TRP617  ASP618  TYR619  PRO620  LYS621  CYS622 
 ASP623  PHE694  ASN695  SER759  ASP760  ASP761  ALA762  ILE779  LEU786  VAL792 
 PHE793  MET794  SER795  GLU796  ALA797  LYS798  CYS799  TRP800  GLU811  SER814 

> <Gold.Protein.RotatedAtoms>
  152.4675  134.5041  159.9733 H   0  0  0  0  0  0  0  0  0  0  0  0  # atno 6907 bound_to 6896
  151.5075  133.3485  159.2887 H   0  0  0  0  0  0  0  0  0  0  0  0  # atno 6908 bound_to 6896
  150.8666  134.8060  159.7185 H   0  0  0  0  0  0  0  0  0  0  0  0  # atno 6909 bound_to 6896
  146.2246  139.8733  142.8583 H   0  0  0  0  0  0  0  0  0  0  0  0  # atno 7974 bound_to 7965
  154.4750  140.0908  156.7240 H   0  0  0  0  0  0  0  0  0  0  0  0  # atno 8008 bound_to 7997
  155.4621  140.3461  155.4296 H   0  0  0  0  0  0  0  0  0  0  0  0  # atno 8009 bound_to 7997
  156.1102  140.1445  156.9338 H   0  0  0  0  0  0  0  0  0  0  0  0  # atno 8010 bound_to 7997
  140.6447  143.7690  150.7481 H   0  0  0  0  0  0  0  0  0  0  0  0  # atno 10167 bound_to 10162
  156.8075  130.5413  149.5713 H   0  0  0  0  0  0  0  0  0  0  0  0  # atno 10718 bound_to 10713
  153.7294  135.3241  155.3283 H   0  0  0  0  0  0  0  0  0  0  0  0  # atno 10763 bound_to 10752
  154.8331  135.4518  154.1137 H   0  0  0  0  0  0  0  0  0  0  0  0  # atno 10764 bound_to 10752
  153.2280  135.6956  153.8003 H   0  0  0  0  0  0  0  0  0  0  0  0  # atno 10765 bound_to 10752
  140.2659  134.7865  157.3631 H   0  0  0  0  0  0  0  0  0  0  0  0  # atno 11005 bound_to 11000
  145.2586  141.0069  143.3839 LP  0  0  0  0  0  0  0  0  0  0  0  0  # atno 17320 bound_to 7965
  144.9316  139.4292  143.6492 LP  0  0  0  0  0  0  0  0  0  0  0  0  # atno 17321 bound_to 7965
  140.1329  143.4510  152.2243 LP  0  0  0  0  0  0  0  0  0  0  0  0  # atno 17342 bound_to 10162
  139.5657  144.7433  151.4029 LP  0  0  0  0  0  0  0  0  0  0  0  0  # atno 17343 bound_to 10162
  156.1064  130.6008  150.9978 LP  0  0  0  0  0  0  0  0  0  0  0  0  # atno 17370 bound_to 10713
  157.6523  131.0895  150.8024 LP  0  0  0  0  0  0  0  0  0  0  0  0  # atno 17371 bound_to 10713
  140.1420  134.4960  155.8024 LP  0  0  0  0  0  0  0  0  0  0  0  0  # atno 17394 bound_to 11000
  141.2184  133.6829  156.7227 LP  0  0  0  0  0  0  0  0  0  0  0  0  # atno 17395 bound_to 11000

$$$$
