AV-unprocessed.smi:2342|AV-procd|sdf|9354|dock8
  -GOLD-   2272012573D 1   1.00000     0.00000
 Structure written by MMmdl.
 38 38  0  0  0  0  0  0  0  0  2 V2000
  152.9657  139.0957  158.5684 C   0  0  0  0  0  0  0  0  0  0  0  0
  152.6194  138.3137  157.2908 C   0  0  2  0  0  0  0  0  0  0  0  0
  151.4805  138.9975  156.4920 C   0  0  0  0  0  0  0  0  0  0  0  0
  150.2416  139.1132  157.2556 N   0  0  0  0  0  0  0  0  0  0  0  0
  149.0971  138.4723  156.9739 C   0  0  0  0  0  0  0  0  0  0  0  0
  148.9138  137.8266  155.9420 O   0  0  0  0  0  0  0  0  0  0  0  0
  148.0032  138.5441  158.0395 C   0  0  0  0  0  0  0  0  0  0  0  0
  147.9312  137.2338  158.7696 C   0  0  0  0  0  0  0  0  0  0  0  0
  148.3914  136.0189  158.3286 C   0  0  0  0  0  0  0  0  0  0  0  0
  148.1615  134.7689  159.5177 S   0  0  0  0  0  0  0  0  0  0  0  0
  147.4187  135.9566  160.5951 C   0  0  0  0  0  0  0  0  0  0  0  0
  146.8990  135.6620  161.9816 C   0  0  0  0  0  0  0  0  0  0  0  0
  147.6794  136.4909  163.0202 C   0  0  0  0  0  0  0  0  0  0  0  0
  147.0802  134.1721  162.3438 C   0  0  0  0  0  0  0  0  0  0  0  0
  145.3924  135.9779  162.0532 C   0  0  0  0  0  0  0  0  0  0  0  0
  147.3692  137.1770  160.0488 N   0  0  0  0  0  0  0  0  0  0  0  0
  152.2853  136.8533  157.6455 C   0  0  0  0  0  0  0  0  0  0  0  0
  152.3481  136.0074  156.7257 O   0  0  0  0  0  0  0  0  0  0  0  0
  151.9781  136.6085  158.8330 O   0  5  0  0  0  0  0  0  0  0  0  0
  153.7667  138.6100  159.1273 H   0  0  0  0  0  0  0  0  0  0  0  0
  152.1032  139.1842  159.2301 H   0  0  0  0  0  0  0  0  0  0  0  0
  153.3012  140.1042  158.3262 H   0  0  0  0  0  0  0  0  0  0  0  0
  153.5087  138.2991  156.6585 H   0  0  0  0  0  0  0  0  0  0  0  0
  151.7834  140.0040  156.2017 H   0  0  0  0  0  0  0  0  0  0  0  0
  151.2974  138.4583  155.5612 H   0  0  0  0  0  0  0  0  0  0  0  0
  150.2971  139.6152  158.1304 H   0  0  0  0  0  0  0  0  0  0  0  0
  148.2182  139.3656  158.7243 H   0  0  0  0  0  0  0  0  0  0  0  0
  147.0475  138.7739  157.5667 H   0  0  0  0  0  0  0  0  0  0  0  0
  148.8698  135.7896  157.3882 H   0  0  0  0  0  0  0  0  0  0  0  0
  147.3247  136.2974  164.0330 H   0  0  0  0  0  0  0  0  0  0  0  0
  147.5772  137.5614  162.8390 H   0  0  0  0  0  0  0  0  0  0  0  0
  148.7440  136.2552  162.9946 H   0  0  0  0  0  0  0  0  0  0  0  0
  148.1311  133.8799  162.3289 H   0  0  0  0  0  0  0  0  0  0  0  0
  146.5429  133.5214  161.6526 H   0  0  0  0  0  0  0  0  0  0  0  0
  146.7032  133.9595  163.3446 H   0  0  0  0  0  0  0  0  0  0  0  0
  144.9859  135.7585  163.0409 H   0  0  0  0  0  0  0  0  0  0  0  0
  144.8296  135.3905  161.3267 H   0  0  0  0  0  0  0  0  0  0  0  0
  145.1947  137.0308  161.8485 H   0  0  0  0  0  0  0  0  0  0  0  0
  1  2  1  0  0  0  0
  1 20  1  0  0  0  0
  1 21  1  0  0  0  0
  1 22  1  0  0  0  0
  2  3  1  0  0  0  0
  2 17  1  0  0  0  0
  2 23  1  0  0  0  0
  3  4  1  0  0  0  0
  3 24  1  0  0  0  0
  3 25  1  0  0  0  0
  4  5  1  0  0  0  0
  4 26  1  0  0  0  0
  5  6  2  0  0  0  0
  5  7  1  0  0  0  0
  7  8  1  0  0  0  0
  7 27  1  0  0  0  0
  7 28  1  0  0  0  0
  8 16  1  0  0  0  0
  8  9  2  0  0  0  0
  9 10  1  0  0  0  0
  9 29  1  0  0  0  0
 10 11  1  0  0  0  0
 11 12  1  0  0  0  0
 11 16  2  0  0  0  0
 12 13  1  0  0  0  0
 12 14  1  0  0  0  0
 12 15  1  0  0  0  0
 13 30  1  0  0  0  0
 13 31  1  0  0  0  0
 13 32  1  0  0  0  0
 14 33  1  0  0  0  0
 14 34  1  0  0  0  0
 14 35  1  0  0  0  0
 15 36  1  0  0  0  0
 15 37  1  0  0  0  0
 15 38  1  0  0  0  0
 17 18  2  0  0  0  0
 17 19  1  0  0  0  0
M  CHG  1  19  -1
M  END
> <s_m_source_file>
AV-unprocessed.smi

> <i_m_source_file_index>
2342

> <i_lp_mmshare_version>
43012

> <i_f3d_flags>
0

> <s_epik_input>
Tz1DKFtPSF0pW0NASF0oW0NIM10pW0NIMl1bTkhdQyg9TylbQ0gyXWMxW2NIXXNjKG4xKUMoW0NIM10pKFtDSDNdKVtDSDNd

> <s_epik_cmdline>
J2VwaWtfcHl0aG9uJywgJy1waCcsICc3LjAnLCAnLXRuJywgJzgnLCAnLW1hJywgJzIwMCcsICctbWV0YWxfYmluZGluZycsICctaW1hZScsICc8aW5maWxlLm1hZT4nLCAnLW9tYWUnLCAnPG91dGZpbGUubWFlPic=

> <r_epik_Ionization_Penalty>
0.00120065

> <r_epik_Ionization_Penalty_Charging>
0.00115909

> <r_epik_Ionization_Penalty_Neutral>
4.15663e-05

> <r_epik_State_Penalty>
0.00076313

> <r_epik_Charging_Adjusted_Penalty>
0.00192222

> <i_epik_Tot_Q>
-1

> <i_epik_Tot_abs_Q>
1

> <r_epik_Metal_State_Penalty>
-0

> <b_epik_Metal_Only>
0

> <s_lp_Force_Field>
OPLS_2005

> <r_lp_Energy>
-10.4991

> <b_lp_Chiralities_Consistent>
1

> <s_lp_Variant>
AV-unprocessed.smi:2342-1

> <Gold.Version>
5.8.1

> <Gold.Id.Protein>
6NUR|6NUR_protein|mol2

> <Gold.PLP.Fitness>
39.1426

> <Gold.PLP.PLP>
-26.9586

> <Gold.PLP.part.hbond>
-3.0000

> <Gold.PLP.part.metal>
0.0000

> <Gold.PLP.part.buried>
-3.3940

> <Gold.PLP.part.nonpolar>
-20.4891

> <Gold.PLP.part.repulsive>
0.0518

> <Gold.PLP.ligand.clash>
0.0000

> <Gold.PLP.ligand.torsion>
0.9635

> <Gold.PLP.Chemscore.Hbond>
4.6640

> <Gold.PLP.Chemscore.CHOScore>
0.0000

> <Gold.PLP.Chemscore.Metal>
0.0000

> <Gold.Chemscore.Hbonds>
donor molecule, donor type, donor heavy atom, donor atom, acceptor molecule, acceptor atom, score
      P1  H  6896  6908       L1    19  1.50
      P1  H  6934  6947       L1    16  0.96
      P1  H 10752 10765       L1    18  2.00

> <Gold.PLP.Chemscore.Internal.Correction>
0.1189

> <Gold.Rescore>
     Score         DG    S(hbond)    S(metal)    S(lipo)     H(rot)  DE(clash)    DE(int)     intcor
     14.42     -15.48       2.61        0.00      62.94       2.38       0.00       1.06       ----

> <Gold.Chemscore.Fitness>
14.4239

> <Gold.Chemscore.DG>
-15.4813

> <Gold.Chemscore.ZeroCoef>
-5.4800

> <Gold.Chemscore.Hbond>
2.6147

> <Gold.Chemscore.Metal>
0.0000

> <Gold.Chemscore.Lipo>
62.9412

> <Gold.Chemscore.Internal_Hbond>
0.0000

> <Gold.Chemscore.DEClash>
0.0000

> <Gold.Chemscore.DEInternal>
1.0574

> <Gold.Chemscore.Rot>
2.3812

> <Gold.Chemscore.Internal.Correction>
   9.000000E+99

> <Gold.Chemscore.Hbonds>
donor molecule, donor type, donor heavy atom, donor atom, acceptor molecule, acceptor atom, score
      P1  H  6896  6908       L1    19  0.76
      P1  H  6934  6947       L1    16  0.71
      P1  H 10752 10765       L1    18  0.99

> <Gold.Chemscore.Hbond.Weighted>
-8.7331

> <Gold.Chemscore.Metal.Weighted>
-0.0000

> <Gold.Chemscore.Lipo.Weighted>
-7.3641

> <Gold.Chemscore.Internal_Hbond.Weighted>
0.0000

> <Gold.Chemscore.DEClash.Weighted>
0.0000

> <Gold.Chemscore.DEInternal.Weighted>
1.0574

> <Gold.Chemscore.Rot.Weighted>
6.0959

> <Gold.Chemscore.Internal.Correction.Weighted>
   9.000000E+99

> <Gold.Protein.RotatedTorsions>
[ 6907 6896 6895 6894 ] final -127.21 input  -60.11 | X-H torsion
[ 7974 7965 7964 7962 ] final   12.77 input  175.53 | X-H torsion
[ 8008 7997 7996 7995 ] final -164.83 input   59.86 | X-H torsion
[ 10167 10162 10161 10158 ] final   25.34 input  -65.29 | X-H torsion
[ 10718 10713 10712 10709 ] final   39.40 input   66.30 | X-H torsion
[ 10763 10752 10751 10750 ] final -151.15 input  -60.55 | X-H torsion
[ 11005 11000 10999 10996 ] final -160.33 input  -57.11 | X-H torsion

> <Gold.Protein.ActiveResidues>
 VAL166  LYS551  ARG553  GLY616  TRP617  ASP618  TYR619  PRO620  LYS621  CYS622 
 ASP623  PHE694  ASN695  SER759  ASP760  ASP761  ALA762  ILE779  LEU786  VAL792 
 PHE793  MET794  SER795  GLU796  ALA797  LYS798  CYS799  TRP800  GLU811  SER814 

> <Gold.Protein.RotatedAtoms>
  150.9050  133.7070  159.2869 H   0  0  0  0  0  0  0  0  0  0  0  0  # atno 6907 bound_to 6896
  151.4576  135.1034  159.9725 H   0  0  0  0  0  0  0  0  0  0  0  0  # atno 6908 bound_to 6896
  152.4898  133.8421  159.7213 H   0  0  0  0  0  0  0  0  0  0  0  0  # atno 6909 bound_to 6896
  146.2344  139.9287  142.8499 H   0  0  0  0  0  0  0  0  0  0  0  0  # atno 7974 bound_to 7965
  155.8411  140.0948  157.1734 H   0  0  0  0  0  0  0  0  0  0  0  0  # atno 8008 bound_to 7997
  154.3982  140.1401  156.3791 H   0  0  0  0  0  0  0  0  0  0  0  0  # atno 8009 bound_to 7997
  155.8063  140.3451  155.5434 H   0  0  0  0  0  0  0  0  0  0  0  0  # atno 8010 bound_to 7997
  140.5114  144.0154  150.6374 H   0  0  0  0  0  0  0  0  0  0  0  0  # atno 10167 bound_to 10162
  157.3701  130.7696  149.7112 H   0  0  0  0  0  0  0  0  0  0  0  0  # atno 10718 bound_to 10713
  154.8075  135.3267  154.7392 H   0  0  0  0  0  0  0  0  0  0  0  0  # atno 10763 bound_to 10752
  153.8048  135.6900  153.4854 H   0  0  0  0  0  0  0  0  0  0  0  0  # atno 10764 bound_to 10752
  153.1831  135.4579  154.9998 H   0  0  0  0  0  0  0  0  0  0  0  0  # atno 10765 bound_to 10752
  140.6327  134.4634  157.5230 H   0  0  0  0  0  0  0  0  0  0  0  0  # atno 11005 bound_to 11000
  145.2066  140.9877  143.4125 LP  0  0  0  0  0  0  0  0  0  0  0  0  # atno 17320 bound_to 7965
  144.9728  139.3863  143.6301 LP  0  0  0  0  0  0  0  0  0  0  0  0  # atno 17321 bound_to 7965
  140.3478  143.2981  152.0520 LP  0  0  0  0  0  0  0  0  0  0  0  0  # atno 17342 bound_to 10162
  139.4897  144.6396  151.6905 LP  0  0  0  0  0  0  0  0  0  0  0  0  # atno 17343 bound_to 10162
  155.9754  130.4090  150.3854 LP  0  0  0  0  0  0  0  0  0  0  0  0  # atno 17370 bound_to 10713
  157.1944  131.0423  151.2683 LP  0  0  0  0  0  0  0  0  0  0  0  0  # atno 17371 bound_to 10713
  139.9110  134.8346  156.1530 LP  0  0  0  0  0  0  0  0  0  0  0  0  # atno 17394 bound_to 11000
  141.0663  133.6817  156.2052 LP  0  0  0  0  0  0  0  0  0  0  0  0  # atno 17395 bound_to 11000

$$$$
