AV-unprocessed.smi:1174|AV-procd|sdf|4948|dock5
  -GOLD-   22720 3533D 1   1.00000     0.00000
 Structure written by MMmdl.
 41 42  0  0  0  0  0  0  0  0  1 V2000
  153.4495  139.3501  160.0653 C   0  0  0  0  0  0  0  0  0  0  0  0
  153.0306  140.5740  159.2398 C   0  0  2  0  0  0  0  0  0  0  0  0
  153.1566  141.8758  160.0611 C   0  0  0  0  0  0  0  0  0  0  0  0
  152.5587  143.0204  159.3962 N   0  0  0  0  0  0  0  0  0  0  0  0
  152.4621  144.3199  159.8482 C   0  0  0  0  0  0  0  0  0  0  0  0
  151.7962  145.0336  158.8937 C   0  0  0  0  0  0  0  0  0  0  0  0
  151.5297  144.0725  157.8787 C   0  0  0  0  0  0  0  0  0  0  0  0
  151.9909  142.8694  158.1805 N   0  0  0  0  0  0  0  0  0  0  0  0
  151.6566  140.3846  158.7755 N   0  0  0  0  0  0  0  0  0  0  0  0
  151.2663  140.3005  157.4932 C   0  0  0  0  0  0  0  0  0  0  0  0
  152.0554  140.3381  156.5490 O   0  0  0  0  0  0  0  0  0  0  0  0
  149.7499  140.1860  157.2490 C   0  0  1  0  0  0  0  0  0  0  0  0
  149.1867  141.4318  156.5218 C   0  0  0  0  0  0  0  0  0  0  0  0
  149.4383  141.4168  155.0007 C   0  0  0  0  0  0  0  0  0  0  0  0
  149.0122  140.0726  154.3864 C   0  0  0  0  0  0  0  0  0  0  0  0
  149.7291  138.9793  155.0662 N   0  0  0  0  0  0  0  0  0  0  0  0
  150.6548  138.1549  154.5122 C   0  0  0  0  0  0  0  0  0  0  0  0
  150.7118  138.1719  153.1769 N   0  0  0  0  0  0  0  0  0  0  0  0
  151.4091  137.4362  155.1659 O   0  0  0  0  0  0  0  0  0  0  0  0
  149.3579  138.8941  156.4881 C   0  0  0  0  0  0  0  0  0  0  0  0
  154.4820  139.4409  160.4038 H   0  0  0  0  0  0  0  0  0  0  0  0
  153.3769  138.4352  159.4761 H   0  0  0  0  0  0  0  0  0  0  0  0
  152.8194  139.2302  160.9475 H   0  0  0  0  0  0  0  0  0  0  0  0
  153.7071  140.6309  158.3849 H   0  0  0  0  0  0  0  0  0  0  0  0
  152.6900  141.7576  161.0401 H   0  0  0  0  0  0  0  0  0  0  0  0
  154.2075  142.1038  160.2449 H   0  0  0  0  0  0  0  0  0  0  0  0
  152.8600  144.6214  160.8059 H   0  0  0  0  0  0  0  0  0  0  0  0
  151.5361  146.0812  158.9181 H   0  0  0  0  0  0  0  0  0  0  0  0
  151.0176  144.2123  156.9382 H   0  0  0  0  0  0  0  0  0  0  0  0
  150.9416  140.3420  159.4870 H   0  0  0  0  0  0  0  0  0  0  0  0
  149.2733  140.1409  158.2298 H   0  0  0  0  0  0  0  0  0  0  0  0
  148.1108  141.4755  156.6949 H   0  0  0  0  0  0  0  0  0  0  0  0
  149.5930  142.3472  156.9545 H   0  0  0  0  0  0  0  0  0  0  0  0
  148.8898  142.2325  154.5292 H   0  0  0  0  0  0  0  0  0  0  0  0
  150.4924  141.5989  154.7901 H   0  0  0  0  0  0  0  0  0  0  0  0
  147.9393  139.9288  154.5216 H   0  0  0  0  0  0  0  0  0  0  0  0
  149.1645  140.1013  153.3078 H   0  0  0  0  0  0  0  0  0  0  0  0
  151.3710  137.5797  152.6940 H   0  0  0  0  0  0  0  0  0  0  0  0
  150.0887  138.7732  152.6582 H   0  0  0  0  0  0  0  0  0  0  0  0
  149.7953  138.0269  156.9856 H   0  0  0  0  0  0  0  0  0  0  0  0
  148.2795  138.7453  156.5559 H   0  0  0  0  0  0  0  0  0  0  0  0
  1  2  1  0  0  0  0
  1 21  1  0  0  0  0
  1 22  1  0  0  0  0
  1 23  1  0  0  0  0
  2  3  1  0  0  0  0
  2  9  1  0  0  0  0
  2 24  1  0  0  0  0
  3  4  1  0  0  0  0
  3 25  1  0  0  0  0
  3 26  1  0  0  0  0
  4  8  1  0  0  0  0
  4  5  1  0  0  0  0
  5  6  2  0  0  0  0
  5 27  1  0  0  0  0
  6  7  1  0  0  0  0
  6 28  1  0  0  0  0
  7  8  2  0  0  0  0
  7 29  1  0  0  0  0
  9 10  1  0  0  0  0
  9 30  1  0  0  0  0
 10 11  2  0  0  0  0
 10 12  1  0  0  0  0
 12 20  1  0  0  0  0
 12 13  1  0  0  0  0
 12 31  1  0  0  0  0
 13 14  1  0  0  0  0
 13 32  1  0  0  0  0
 13 33  1  0  0  0  0
 14 15  1  0  0  0  0
 14 34  1  0  0  0  0
 14 35  1  0  0  0  0
 15 16  1  0  0  0  0
 15 36  1  0  0  0  0
 15 37  1  0  0  0  0
 16 17  1  0  0  0  0
 16 20  1  0  0  0  0
 17 18  1  0  0  0  0
 17 19  2  0  0  0  0
 18 38  1  0  0  0  0
 18 39  1  0  0  0  0
 20 40  1  0  0  0  0
 20 41  1  0  0  0  0
M  END
> <s_m_source_file>
AV-unprocessed.smi

> <i_m_source_file_index>
1174

> <i_lp_mmshare_version>
43012

> <i_f3d_flags>
0

> <s_epik_input>
bjFbY0hdW2NIXVtjSF1uMVtDSDJdW0NAQEhdKFtDSDNdKVtOSF1DKD1PKVtDQEBIXTJbQ0gyXVtDSDJdW0NIMl1OKFtDSDJdMilDKD1PKVtOSDJd

> <s_epik_cmdline>
J2VwaWtfcHl0aG9uJywgJy1waCcsICc3LjAnLCAnLXRuJywgJzgnLCAnLW1hJywgJzIwMCcsICctbWV0YWxfYmluZGluZycsICctaW1hZScsICc8aW5maWxlLm1hZT4nLCAnLW9tYWUnLCAnPG91dGZpbGUubWFlPic=

> <r_lp_tautomer_probability>
1

> <r_epik_Ionization_Penalty>
0.000372452

> <r_epik_Ionization_Penalty_Charging>
0

> <r_epik_Ionization_Penalty_Neutral>
0.000372452

> <r_epik_State_Penalty>
-0

> <r_epik_Charging_Adjusted_Penalty>
0

> <i_epik_Tot_Q>
0

> <i_epik_Tot_abs_Q>
0

> <r_epik_Metal_State_Penalty>
-0

> <b_epik_Metal_Only>
0

> <s_lp_Force_Field>
OPLS_2005

> <r_lp_Energy>
23.1922

> <b_lp_Chiralities_Consistent>
1

> <s_lp_Variant>
AV-unprocessed.smi:1174-3

> <Gold.Version>
5.8.1

> <Gold.Id.Protein>
6NUR|6NUR_protein|mol2

> <Gold.PLP.Fitness>
47.3418

> <Gold.PLP.PLP>
-38.3909

> <Gold.PLP.part.hbond>
-3.4993

> <Gold.PLP.part.metal>
0.0000

> <Gold.PLP.part.buried>
-0.3338

> <Gold.PLP.part.nonpolar>
-34.2138

> <Gold.PLP.part.repulsive>
0.3888

> <Gold.PLP.ligand.clash>
0.0000

> <Gold.PLP.ligand.torsion>
0.1706

> <Gold.PLP.Chemscore.Hbond>
2.0860

> <Gold.PLP.Chemscore.CHOScore>
0.9965

> <Gold.PLP.Chemscore.Metal>
0.0000

> <Gold.Chemscore.Hbonds>
donor molecule, donor type, donor heavy atom, donor atom, acceptor molecule, acceptor atom, score
      L1  H    18    38       P1  7949  0.67
      L1  H    18    39       P1  7957  1.00
      P1  H  7997  8009       L1    11  0.36
      L1  C     7    29       P1  8028  1.00

> <Gold.PLP.Chemscore.Internal.Correction>
0.0445

> <Gold.Rescore>
     Score         DG    S(hbond)    S(metal)    S(lipo)     H(rot)  DE(clash)    DE(int)     intcor
     11.91     -14.72       1.22        0.00      83.95       1.82       0.67       2.14       ----

> <Gold.Chemscore.Fitness>
11.9075

> <Gold.Chemscore.DG>
-14.7167

> <Gold.Chemscore.ZeroCoef>
-5.4800

> <Gold.Chemscore.Hbond>
1.2201

> <Gold.Chemscore.Metal>
0.0000

> <Gold.Chemscore.Lipo>
83.9499

> <Gold.Chemscore.Internal_Hbond>
0.0000

> <Gold.Chemscore.DEClash>
0.6690

> <Gold.Chemscore.DEInternal>
2.1402

> <Gold.Chemscore.Rot>
1.8206

> <Gold.Chemscore.Internal.Correction>
   9.000000E+99

> <Gold.Chemscore.Hbonds>
donor molecule, donor type, donor heavy atom, donor atom, acceptor molecule, acceptor atom, score
      L1  H    18    38       P1  7949  0.49
      L1  H    18    39       P1  7957  0.42
      P1  H  7997  8009       L1    11  0.34
      P1  H 10752 10764       L1    19  0.02

> <Gold.Chemscore.Hbond.Weighted>
-4.0753

> <Gold.Chemscore.Metal.Weighted>
-0.0000

> <Gold.Chemscore.Lipo.Weighted>
-9.8221

> <Gold.Chemscore.Internal_Hbond.Weighted>
0.0000

> <Gold.Chemscore.DEClash.Weighted>
0.6690

> <Gold.Chemscore.DEInternal.Weighted>
2.1402

> <Gold.Chemscore.Rot.Weighted>
4.6607

> <Gold.Chemscore.Internal.Correction.Weighted>
   9.000000E+99

> <Gold.Protein.RotatedTorsions>
[ 6907 6896 6895 6894 ] final   38.42 input  -60.11 | X-H torsion
[ 7974 7965 7964 7962 ] final  -44.34 input  175.53 | X-H torsion
[ 8008 7997 7996 7995 ] final -170.12 input   59.86 | X-H torsion
[ 10167 10162 10161 10158 ] final   44.51 input  -65.29 | X-H torsion
[ 10718 10713 10712 10709 ] final   96.87 input   66.30 | X-H torsion
[ 10763 10752 10751 10750 ] final  -73.01 input  -60.55 | X-H torsion
[ 11005 11000 10999 10996 ] final -154.16 input  -57.11 | X-H torsion

> <Gold.Protein.ActiveResidues>
 VAL166  LYS551  ARG553  GLY616  TRP617  ASP618  TYR619  PRO620  LYS621  CYS622 
 ASP623  PHE694  ASN695  SER759  ASP760  ASP761  ALA762  ILE779  LEU786  VAL792 
 PHE793  MET794  SER795  GLU796  ALA797  LYS798  CYS799  TRP800  GLU811  SER814 

> <Gold.Protein.RotatedAtoms>
  152.1561  134.8949  160.0544 H   0  0  0  0  0  0  0  0  0  0  0  0  # atno 6907 bound_to 6896
  151.9962  133.3804  159.4172 H   0  0  0  0  0  0  0  0  0  0  0  0  # atno 6908 bound_to 6896
  150.6881  134.3805  159.5076 H   0  0  0  0  0  0  0  0  0  0  0  0  # atno 6909 bound_to 6896
  145.9930  140.7160  142.9308 H   0  0  0  0  0  0  0  0  0  0  0  0  # atno 7974 bound_to 7965
  155.9141  140.1062  157.1257 H   0  0  0  0  0  0  0  0  0  0  0  0  # atno 8008 bound_to 7997
  154.4044  140.1268  156.4659 H   0  0  0  0  0  0  0  0  0  0  0  0  # atno 8009 bound_to 7997
  155.7275  140.3469  155.5046 H   0  0  0  0  0  0  0  0  0  0  0  0  # atno 8010 bound_to 7997
  140.3336  144.2558  150.6164 H   0  0  0  0  0  0  0  0  0  0  0  0  # atno 10167 bound_to 10162
  157.6921  131.0591  150.4557 H   0  0  0  0  0  0  0  0  0  0  0  0  # atno 10718 bound_to 10713
  154.4536  135.5911  153.6208 H   0  0  0  0  0  0  0  0  0  0  0  0  # atno 10763 bound_to 10752
  152.9816  135.6027  154.3573 H   0  0  0  0  0  0  0  0  0  0  0  0  # atno 10764 bound_to 10752
  154.3437  135.2841  155.2388 H   0  0  0  0  0  0  0  0  0  0  0  0  # atno 10765 bound_to 10752
  140.7003  134.3944  157.5210 H   0  0  0  0  0  0  0  0  0  0  0  0  # atno 11005 bound_to 11000
  144.6895  140.3102  143.7249 LP  0  0  0  0  0  0  0  0  0  0  0  0  # atno 17320 bound_to 7965
  145.7602  139.1822  143.2271 LP  0  0  0  0  0  0  0  0  0  0  0  0  # atno 17321 bound_to 7965
  140.5374  143.2230  151.8140 LP  0  0  0  0  0  0  0  0  0  0  0  0  # atno 17342 bound_to 10162
  139.4852  144.4643  151.9503 LP  0  0  0  0  0  0  0  0  0  0  0  0  # atno 17343 bound_to 10162
  156.4905  130.4094  149.6409 LP  0  0  0  0  0  0  0  0  0  0  0  0  # atno 17370 bound_to 10713
  156.3422  130.7388  151.2335 LP  0  0  0  0  0  0  0  0  0  0  0  0  # atno 17371 bound_to 10713
  139.8898  134.8819  156.2399 LP  0  0  0  0  0  0  0  0  0  0  0  0  # atno 17394 bound_to 11000
  141.0169  133.7063  156.1203 LP  0  0  0  0  0  0  0  0  0  0  0  0  # atno 17395 bound_to 11000

$$$$
