AV-unprocessed.smi:504|AV-procd|sdf|2747|dock9
  -GOLD-   2262023213D 1   1.00000     0.00000
 Structure written by MMmdl.
 35 36  0  0  0  0  0  0  0  0  1 V2000
  145.3323  136.0757  150.3704 N   0  0  0  0  0  0  0  0  0  0  0  0
  145.6196  135.0538  150.8313 C   0  0  0  0  0  0  0  0  0  0  0  0
  145.9856  133.7496  151.4206 C   0  0  0  0  0  0  0  0  0  0  0  0
  147.2625  133.8378  152.1331 N   0  0  0  0  0  0  0  0  0  0  0  0
  147.7757  132.9357  152.9857 C   0  0  0  0  0  0  0  0  0  0  0  0
  147.2214  131.8710  153.2608 O   0  0  0  0  0  0  0  0  0  0  0  0
  149.1351  133.2962  153.6029 C   0  0  0  0  0  0  0  0  0  0  0  0
  149.7547  132.1867  154.3429 N   0  0  0  0  0  0  0  0  0  0  0  0
  149.4694  130.9349  153.8267 N   0  0  0  0  0  0  0  0  0  0  0  0
  149.9488  129.8869  154.4030 C   0  0  0  0  0  0  0  0  0  0  0  0
  150.7862  129.9693  155.5793 C   0  0  0  0  0  0  0  0  0  0  0  0
  151.4002  128.5277  156.3089 Cl  0  0  0  0  0  0  0  0  0  0  0  0
  151.0645  131.2015  156.0743 C   0  0  0  0  0  0  0  0  0  0  0  0
  152.0602  131.3805  157.4781 Cl  0  0  0  0  0  0  0  0  0  0  0  0
  150.5363  132.4188  155.4426 C   0  0  0  0  0  0  0  0  0  0  0  0
  150.7693  133.5550  155.8577 O   0  0  0  0  0  0  0  0  0  0  0  0
  144.8748  133.2548  152.3816 C   0  0  0  0  0  0  0  0  0  0  0  0
  143.5529  132.9705  151.6475 C   0  0  0  0  0  0  0  0  0  0  0  0
  143.7561  131.9559  150.5134 C   0  0  0  0  0  0  0  0  0  0  0  0
  144.8521  132.4195  149.5432 C   0  0  0  0  0  0  0  0  0  0  0  0
  146.1651  132.7100  150.2906 C   0  0  0  0  0  0  0  0  0  0  0  0
  147.8007  134.6764  151.9721 H   0  0  0  0  0  0  0  0  0  0  0  0
  149.7927  133.6281  152.7974 H   0  0  0  0  0  0  0  0  0  0  0  0
  149.0197  134.1602  154.2604 H   0  0  0  0  0  0  0  0  0  0  0  0
  149.7492  128.8809  154.0337 H   0  0  0  0  0  0  0  0  0  0  0  0
  145.2029  132.3456  152.8873 H   0  0  0  0  0  0  0  0  0  0  0  0
  144.6921  133.9895  153.1663 H   0  0  0  0  0  0  0  0  0  0  0  0
  142.8109  132.5944  152.3523 H   0  0  0  0  0  0  0  0  0  0  0  0
  143.1474  133.8980  151.2418 H   0  0  0  0  0  0  0  0  0  0  0  0
  144.0281  130.9874  150.9351 H   0  0  0  0  0  0  0  0  0  0  0  0
  142.8199  131.8063  149.9750 H   0  0  0  0  0  0  0  0  0  0  0  0
  145.0194  131.6562  148.7828 H   0  0  0  0  0  0  0  0  0  0  0  0
  144.5203  133.3131  149.0131 H   0  0  0  0  0  0  0  0  0  0  0  0
  146.9165  133.0573  149.5799 H   0  0  0  0  0  0  0  0  0  0  0  0
  146.5482  131.7758  150.7048 H   0  0  0  0  0  0  0  0  0  0  0  0
  1  2  3  0  0  0  0
  2  3  1  0  0  0  0
  3 21  1  0  0  0  0
  3  4  1  0  0  0  0
  3 17  1  0  0  0  0
  4  5  1  0  0  0  0
  4 22  1  0  0  0  0
  5  6  2  0  0  0  0
  5  7  1  0  0  0  0
  7  8  1  0  0  0  0
  7 23  1  0  0  0  0
  7 24  1  0  0  0  0
  8 15  1  0  0  0  0
  8  9  1  0  0  0  0
  9 10  2  0  0  0  0
 10 11  1  0  0  0  0
 10 25  1  0  0  0  0
 11 12  1  0  0  0  0
 11 13  2  0  0  0  0
 13 14  1  0  0  0  0
 13 15  1  0  0  0  0
 15 16  2  0  0  0  0
 17 18  1  0  0  0  0
 17 26  1  0  0  0  0
 17 27  1  0  0  0  0
 18 19  1  0  0  0  0
 18 28  1  0  0  0  0
 18 29  1  0  0  0  0
 19 20  1  0  0  0  0
 19 30  1  0  0  0  0
 19 31  1  0  0  0  0
 20 21  1  0  0  0  0
 20 32  1  0  0  0  0
 20 33  1  0  0  0  0
 21 34  1  0  0  0  0
 21 35  1  0  0  0  0
M  END
> <s_m_source_file>
AV-unprocessed.smi

> <i_m_source_file_index>
504

> <i_lp_mmshare_version>
43012

> <i_f3d_flags>
0

> <s_epik_input>
W0NIMl0xW0NIMl1bQ0gyXVtDSDJdW0NIMl1DMShDI04pW05IXUMoPU8pW0NIMl1uMm5bY0hdYyhDbCljKENsKWMyPU8=

> <s_epik_cmdline>
J2VwaWtfcHl0aG9uJywgJy1waCcsICc3LjAnLCAnLXRuJywgJzgnLCAnLW1hJywgJzIwMCcsICctbWV0YWxfYmluZGluZycsICctaW1hZScsICc8aW5maWxlLm1hZT4nLCAnLW9tYWUnLCAnPG91dGZpbGUubWFlPic=

> <r_lp_tautomer_probability>
1

> <r_epik_Ionization_Penalty>
4.52612e-07

> <r_epik_Ionization_Penalty_Charging>
2.33921e-11

> <r_epik_Ionization_Penalty_Neutral>
4.52589e-07

> <r_epik_State_Penalty>
-0

> <r_epik_Charging_Adjusted_Penalty>
2.33921e-11

> <i_epik_Tot_Q>
0

> <i_epik_Tot_abs_Q>
0

> <r_epik_Metal_State_Penalty>
-0

> <b_epik_Metal_Only>
0

> <s_lp_Force_Field>
OPLS_2005

> <r_lp_Energy>
21.394

> <b_lp_Chiralities_Consistent>
1

> <s_lp_Variant>
AV-unprocessed.smi:504-1

> <Gold.Version>
5.8.1

> <Gold.Id.Protein>
6NUR|6NUR_protein|mol2

> <Gold.PLP.Fitness>
38.4406

> <Gold.PLP.PLP>
-36.8676

> <Gold.PLP.part.hbond>
-1.0000

> <Gold.PLP.part.metal>
0.0000

> <Gold.PLP.part.buried>
-5.0392

> <Gold.PLP.part.nonpolar>
-31.8064

> <Gold.PLP.part.repulsive>
1.9222

> <Gold.PLP.ligand.clash>
0.0000

> <Gold.PLP.ligand.torsion>
0.7162

> <Gold.PLP.Chemscore.Hbond>
1.0000

> <Gold.PLP.Chemscore.CHOScore>
0.0000

> <Gold.PLP.Chemscore.Metal>
0.0000

> <Gold.Chemscore.Hbonds>
donor molecule, donor type, donor heavy atom, donor atom, acceptor molecule, acceptor atom, score
      L1  H     4    22       P1  7948  1.00

> <Gold.PLP.Chemscore.Internal.Correction>
0.0055

> <Gold.Rescore>
     Score         DG    S(hbond)    S(metal)    S(lipo)     H(rot)  DE(clash)    DE(int)     intcor
      9.05     -12.34       0.65        0.00      74.99       1.60       0.07       3.22       ----

> <Gold.Chemscore.Fitness>
9.0502

> <Gold.Chemscore.DG>
-12.3382

> <Gold.Chemscore.ZeroCoef>
-5.4800

> <Gold.Chemscore.Hbond>
0.6533

> <Gold.Chemscore.Metal>
0.0000

> <Gold.Chemscore.Lipo>
74.9905

> <Gold.Chemscore.Internal_Hbond>
0.0000

> <Gold.Chemscore.DEClash>
0.0689

> <Gold.Chemscore.DEInternal>
3.2191

> <Gold.Chemscore.Rot>
1.6007

> <Gold.Chemscore.Internal.Correction>
   9.000000E+99

> <Gold.Chemscore.Hbonds>
donor molecule, donor type, donor heavy atom, donor atom, acceptor molecule, acceptor atom, score
      L1  H     4    22       P1  7948  0.40

> <Gold.Chemscore.Hbond.Weighted>
-2.1822

> <Gold.Chemscore.Metal.Weighted>
-0.0000

> <Gold.Chemscore.Lipo.Weighted>
-8.7739

> <Gold.Chemscore.Internal_Hbond.Weighted>
0.0000

> <Gold.Chemscore.DEClash.Weighted>
0.0689

> <Gold.Chemscore.DEInternal.Weighted>
3.2191

> <Gold.Chemscore.Rot.Weighted>
4.0978

> <Gold.Chemscore.Internal.Correction.Weighted>
   9.000000E+99

> <Gold.Protein.RotatedTorsions>
[ 6907 6896 6895 6894 ] final  -70.64 input  -60.11 | X-H torsion
[ 7974 7965 7964 7962 ] final  -97.45 input  175.53 | X-H torsion
[ 8008 7997 7996 7995 ] final  123.49 input   59.86 | X-H torsion
[ 10167 10162 10161 10158 ] final   -0.86 input  -65.29 | X-H torsion
[ 10718 10713 10712 10709 ] final -168.64 input   66.30 | X-H torsion
[ 10763 10752 10751 10750 ] final   64.10 input  -60.55 | X-H torsion
[ 11005 11000 10999 10996 ] final   11.18 input  -57.11 | X-H torsion

> <Gold.Protein.ActiveResidues>
 VAL166  LYS551  ARG553  GLY616  TRP617  ASP618  TYR619  PRO620  LYS621  CYS622 
 ASP623  PHE694  ASN695  SER759  ASP760  ASP761  ALA762  ILE779  LEU786  VAL792 
 PHE793  MET794  SER795  GLU796  ALA797  LYS798  CYS799  TRP800  GLU811  SER814 

> <Gold.Protein.RotatedAtoms>
  150.7248  134.5424  159.5753 H   0  0  0  0  0  0  0  0  0  0  0  0  # atno 6907 bound_to 6896
  152.2931  134.7695  160.0382 H   0  0  0  0  0  0  0  0  0  0  0  0  # atno 6908 bound_to 6896
  151.8301  133.3372  159.3647 H   0  0  0  0  0  0  0  0  0  0  0  0  # atno 6909 bound_to 6896
  145.3336  140.9446  143.2648 H   0  0  0  0  0  0  0  0  0  0  0  0  # atno 7974 bound_to 7965
  156.2768  140.2761  156.1637 H   0  0  0  0  0  0  0  0  0  0  0  0  # atno 8008 bound_to 7997
  155.0727  140.0387  157.2631 H   0  0  0  0  0  0  0  0  0  0  0  0  # atno 8009 bound_to 7997
  154.7027  140.2652  155.6710 H   0  0  0  0  0  0  0  0  0  0  0  0  # atno 8010 bound_to 7997
  140.6786  143.6844  150.8079 H   0  0  0  0  0  0  0  0  0  0  0  0  # atno 10167 bound_to 10162
  156.6999  130.9192  151.3078 H   0  0  0  0  0  0  0  0  0  0  0  0  # atno 10718 bound_to 10713
  153.0043  135.5405  154.6457 H   0  0  0  0  0  0  0  0  0  0  0  0  # atno 10763 bound_to 10752
  154.5701  135.2841  155.0837 H   0  0  0  0  0  0  0  0  0  0  0  0  # atno 10764 bound_to 10752
  154.2006  135.6484  153.5138 H   0  0  0  0  0  0  0  0  0  0  0  0  # atno 10765 bound_to 10752
  140.5062  134.0697  155.7806 H   0  0  0  0  0  0  0  0  0  0  0  0  # atno 11005 bound_to 11000
  144.8845  139.4858  143.6707 LP  0  0  0  0  0  0  0  0  0  0  0  0  # atno 17320 bound_to 7965
  146.3036  139.7506  142.9073 LP  0  0  0  0  0  0  0  0  0  0  0  0  # atno 17321 bound_to 7965
  140.0541  143.5221  152.2660 LP  0  0  0  0  0  0  0  0  0  0  0  0  # atno 17342 bound_to 10162
  139.6093  144.7604  151.2989 LP  0  0  0  0  0  0  0  0  0  0  0  0  # atno 17343 bound_to 10162
  157.6977  130.9299  150.0693 LP  0  0  0  0  0  0  0  0  0  0  0  0  # atno 17370 bound_to 10713
  156.1736  130.3647  149.9130 LP  0  0  0  0  0  0  0  0  0  0  0  0  # atno 17371 bound_to 10713
  141.1410  133.9138  157.2326 LP  0  0  0  0  0  0  0  0  0  0  0  0  # atno 17394 bound_to 11000
  139.9685  135.0135  156.9450 LP  0  0  0  0  0  0  0  0  0  0  0  0  # atno 17395 bound_to 11000

$$$$
