AV-unprocessed.smi:760|AV-procd|sdf|3627|dock8
  -GOLD-   22720 1 23D 1   1.00000     0.00000
 Structure written by MMmdl.
 44 45  0  0  0  0  0  0  0  0  2 V2000
  145.6338  131.3417  151.2304 C   0  0  0  0  0  0  0  0  0  0  0  0
  145.3042  132.5672  150.7901 C   0  0  0  0  0  0  0  0  0  0  0  0
  143.8828  132.9199  150.3886 C   0  0  0  0  0  0  0  0  0  0  0  0
  146.3307  133.6861  150.6981 C   0  0  0  0  0  0  0  0  0  0  0  0
  146.8945  134.0673  152.0199 N   0  3  2  0  0  0  0  0  0  0  0  0
  147.8258  133.0288  152.5326 C   0  0  0  0  0  0  0  0  0  0  0  0
  148.5232  133.4847  153.8245 C   0  0  0  0  0  0  0  0  0  0  0  0
  147.4961  133.8529  154.9052 C   0  0  1  0  0  0  0  0  0  0  0  0
  148.1831  134.3531  156.0925 N   0  0  0  0  0  0  0  0  0  0  0  0
  147.5798  134.7687  157.2156 C   0  0  0  0  0  0  0  0  0  0  0  0
  146.3586  134.7724  157.3699 O   0  0  0  0  0  0  0  0  0  0  0  0
  148.4761  135.1774  158.1279 N   0  0  0  0  0  0  0  0  0  0  0  0
  148.2106  135.6754  159.4279 C   0  0  0  0  0  0  0  0  0  0  0  0
  148.6813  136.8651  160.0529 C   0  0  0  0  0  0  0  0  0  0  0  0
  148.2006  136.9781  161.2820 N   0  0  0  0  0  0  0  0  0  0  0  0
  147.4276  135.8795  161.4605 N   0  0  0  0  0  0  0  0  0  0  0  0
  146.7416  135.6923  162.7210 C   0  0  0  0  0  0  0  0  0  0  0  0
  147.4103  135.0648  160.3461 C   0  0  0  0  0  0  0  0  0  0  0  0
  146.5273  134.9097  154.3465 C   0  0  0  0  0  0  0  0  0  0  0  0
  145.8733  134.4384  153.0364 C   0  0  0  0  0  0  0  0  0  0  0  0
  144.8976  130.5543  151.3047 H   0  0  0  0  0  0  0  0  0  0  0  0
  146.6464  131.1065  151.5245 H   0  0  0  0  0  0  0  0  0  0  0  0
  143.4803  133.6716  151.0680 H   0  0  0  0  0  0  0  0  0  0  0  0
  143.2309  132.0467  150.4310 H   0  0  0  0  0  0  0  0  0  0  0  0
  143.8383  133.3231  149.3780 H   0  0  0  0  0  0  0  0  0  0  0  0
  147.1291  133.4121  150.0065 H   0  0  0  0  0  0  0  0  0  0  0  0
  145.8308  134.5533  150.2636 H   0  0  0  0  0  0  0  0  0  0  0  0
  147.2766  132.1025  152.7098 H   0  0  0  0  0  0  0  0  0  0  0  0
  148.5827  132.8079  151.7790 H   0  0  0  0  0  0  0  0  0  0  0  0
  149.1801  132.6927  154.1867 H   0  0  0  0  0  0  0  0  0  0  0  0
  149.1620  134.3425  153.6082 H   0  0  0  0  0  0  0  0  0  0  0  0
  146.9348  132.9535  155.1671 H   0  0  0  0  0  0  0  0  0  0  0  0
  149.1915  134.3851  156.0571 H   0  0  0  0  0  0  0  0  0  0  0  0
  149.4498  135.1306  157.8655 H   0  0  0  0  0  0  0  0  0  0  0  0
  149.3356  137.6365  159.6752 H   0  0  0  0  0  0  0  0  0  0  0  0
  146.3179  134.6887  162.7706 H   0  0  0  0  0  0  0  0  0  0  0  0
  145.9374  136.4227  162.8135 H   0  0  0  0  0  0  0  0  0  0  0  0
  147.4409  135.8220  163.5479 H   0  0  0  0  0  0  0  0  0  0  0  0
  146.8444  134.1455  160.3060 H   0  0  0  0  0  0  0  0  0  0  0  0
  145.7522  135.1365  155.0794 H   0  0  0  0  0  0  0  0  0  0  0  0
  147.0620  135.8436  154.1665 H   0  0  0  0  0  0  0  0  0  0  0  0
  145.2497  135.2496  152.6641 H   0  0  0  0  0  0  0  0  0  0  0  0
  145.2171  133.5873  153.2250 H   0  0  0  0  0  0  0  0  0  0  0  0
  147.4527  134.8938  151.8596 H   0  0  0  0  0  0  0  0  0  0  0  0
  1  2  2  0  0  0  0
  1 21  1  0  0  0  0
  1 22  1  0  0  0  0
  2  3  1  0  0  0  0
  2  4  1  0  0  0  0
  3 23  1  0  0  0  0
  3 24  1  0  0  0  0
  3 25  1  0  0  0  0
  4  5  1  0  0  0  0
  4 26  1  0  0  0  0
  4 27  1  0  0  0  0
  5 20  1  0  0  0  0
  5  6  1  0  0  0  0
  5 44  1  0  0  0  0
  6  7  1  0  0  0  0
  6 28  1  0  0  0  0
  6 29  1  0  0  0  0
  7  8  1  0  0  0  0
  7 30  1  0  0  0  0
  7 31  1  0  0  0  0
  8  9  1  0  0  0  0
  8 19  1  0  0  0  0
  8 32  1  0  0  0  0
  9 10  1  0  0  0  0
  9 33  1  0  0  0  0
 10 11  2  0  0  0  0
 10 12  1  0  0  0  0
 12 13  1  0  0  0  0
 12 34  1  0  0  0  0
 13 18  2  0  0  0  0
 13 14  1  0  0  0  0
 14 15  2  0  0  0  0
 14 35  1  0  0  0  0
 15 16  1  0  0  0  0
 16 17  1  0  0  0  0
 16 18  1  0  0  0  0
 17 36  1  0  0  0  0
 17 37  1  0  0  0  0
 17 38  1  0  0  0  0
 18 39  1  0  0  0  0
 19 20  1  0  0  0  0
 19 40  1  0  0  0  0
 19 41  1  0  0  0  0
 20 42  1  0  0  0  0
 20 43  1  0  0  0  0
M  CHG  1   5   1
M  END
> <s_m_source_file>
AV-unprocessed.smi

> <i_m_source_file_index>
760

> <i_lp_mmshare_version>
43012

> <i_f3d_flags>
0

> <s_epik_input>
W0NIMl09QyhbQ0gzXSlbQ0gyXU4xW0NIMl1bQ0gyXVtDSF0oW0NIMl1bQ0gyXTEpW05IXUMoPU8pW05IXWMyW2NIXW5uKFtDSDNdKVtjSF0y

> <s_epik_cmdline>
J2VwaWtfcHl0aG9uJywgJy1waCcsICc3LjAnLCAnLXRuJywgJzgnLCAnLW1hJywgJzIwMCcsICctbWV0YWxfYmluZGluZycsICctaW1hZScsICc8aW5maWxlLm1hZT4nLCAnLW9tYWUnLCAnPG91dGZpbGUubWFlPic=

> <r_lp_tautomer_probability>
1

> <r_epik_Ionization_Penalty>
0.0194996

> <r_epik_Ionization_Penalty_Charging>
0.0193505

> <r_epik_Ionization_Penalty_Neutral>
0.000149098

> <r_epik_State_Penalty>
0.0154499

> <r_epik_Charging_Adjusted_Penalty>
0.0348004

> <i_epik_Tot_Q>
1

> <i_epik_Tot_abs_Q>
1

> <r_epik_Metal_State_Penalty>
0.0154507

> <b_epik_Metal_Only>
0

> <s_lp_Force_Field>
OPLS_2005

> <r_lp_Energy>
20.4425

> <b_lp_Chiralities_Consistent>
1

> <s_lp_Variant>
AV-unprocessed.smi:760-1

> <Gold.Version>
5.8.1

> <Gold.Id.Protein>
6NUR|6NUR_protein|mol2

> <Gold.PLP.Fitness>
40.5766

> <Gold.PLP.PLP>
-32.5699

> <Gold.PLP.part.hbond>
-2.0000

> <Gold.PLP.part.metal>
0.0000

> <Gold.PLP.part.buried>
-3.8032

> <Gold.PLP.part.nonpolar>
-27.0018

> <Gold.PLP.part.repulsive>
0.1117

> <Gold.PLP.ligand.clash>
0.0000

> <Gold.PLP.ligand.torsion>
0.5086

> <Gold.PLP.Chemscore.Hbond>
3.0000

> <Gold.PLP.Chemscore.CHOScore>
0.0000

> <Gold.PLP.Chemscore.Metal>
0.0000

> <Gold.Chemscore.Hbonds>
donor molecule, donor type, donor heavy atom, donor atom, acceptor molecule, acceptor atom, score
      L1  H     5    44       P1  7948  2.00
      P1  H  6931  6943       L1    15  1.00
      P1  H  6934  6947       L1    15  0.16

> <Gold.PLP.Chemscore.Internal.Correction>
0.0239

> <Gold.Rescore>
     Score         DG    S(hbond)    S(metal)    S(lipo)     H(rot)  DE(clash)    DE(int)     intcor
     14.57     -16.53       1.74        0.00      74.92       1.38       0.23       1.73       ----

> <Gold.Chemscore.Fitness>
14.5739

> <Gold.Chemscore.DG>
-16.5315

> <Gold.Chemscore.ZeroCoef>
-5.4800

> <Gold.Chemscore.Hbond>
1.7384

> <Gold.Chemscore.Metal>
0.0000

> <Gold.Chemscore.Lipo>
74.9210

> <Gold.Chemscore.Internal_Hbond>
0.0000

> <Gold.Chemscore.DEClash>
0.2266

> <Gold.Chemscore.DEInternal>
1.7310

> <Gold.Chemscore.Rot>
1.3752

> <Gold.Chemscore.Internal.Correction>
   9.000000E+99

> <Gold.Chemscore.Hbonds>
donor molecule, donor type, donor heavy atom, donor atom, acceptor molecule, acceptor atom, score
      L1  H     5    44       P1  7948  0.77
      P1  H  6931  6943       L1    15  0.39
      P1  H  6934  6947       L1    15  0.02

> <Gold.Chemscore.Hbond.Weighted>
-5.8062

> <Gold.Chemscore.Metal.Weighted>
-0.0000

> <Gold.Chemscore.Lipo.Weighted>
-8.7658

> <Gold.Chemscore.Internal_Hbond.Weighted>
0.0000

> <Gold.Chemscore.DEClash.Weighted>
0.2266

> <Gold.Chemscore.DEInternal.Weighted>
1.7310

> <Gold.Chemscore.Rot.Weighted>
3.5204

> <Gold.Chemscore.Internal.Correction.Weighted>
   9.000000E+99

> <Gold.Protein.RotatedTorsions>
[ 6907 6896 6895 6894 ] final  -10.77 input  -60.11 | X-H torsion
[ 7974 7965 7964 7962 ] final -149.65 input  175.53 | X-H torsion
[ 8008 7997 7996 7995 ] final   55.25 input   59.86 | X-H torsion
[ 10167 10162 10161 10158 ] final   88.81 input  -65.29 | X-H torsion
[ 10718 10713 10712 10709 ] final   91.14 input   66.30 | X-H torsion
[ 10763 10752 10751 10750 ] final  169.72 input  -60.55 | X-H torsion
[ 11005 11000 10999 10996 ] final -157.24 input  -57.11 | X-H torsion

> <Gold.Protein.ActiveResidues>
 VAL166  LYS551  ARG553  GLY616  TRP617  ASP618  TYR619  PRO620  LYS621  CYS622 
 ASP623  PHE694  ASN695  SER759  ASP760  ASP761  ALA762  ILE779  LEU786  VAL792 
 PHE793  MET794  SER795  GLU796  ALA797  LYS798  CYS799  TRP800  GLU811  SER814 

> <Gold.Protein.RotatedAtoms>
  151.3967  135.0964  159.9542 H   0  0  0  0  0  0  0  0  0  0  0  0  # atno 6907 bound_to 6896
  152.5063  133.8927  159.7412 H   0  0  0  0  0  0  0  0  0  0  0  0  # atno 6908 bound_to 6896
  150.9392  133.6620  159.2823 H   0  0  0  0  0  0  0  0  0  0  0  0  # atno 6909 bound_to 6896
  144.7954  140.5036  143.5743 H   0  0  0  0  0  0  0  0  0  0  0  0  # atno 7974 bound_to 7965
  155.4980  140.3473  155.4366 H   0  0  0  0  0  0  0  0  0  0  0  0  # atno 8008 bound_to 7997
  156.0933  140.1416  156.9592 H   0  0  0  0  0  0  0  0  0  0  0  0  # atno 8009 bound_to 7997
  154.4648  140.0921  156.6968 H   0  0  0  0  0  0  0  0  0  0  0  0  # atno 8010 bound_to 7997
  139.8636  144.6531  150.9030 H   0  0  0  0  0  0  0  0  0  0  0  0  # atno 10167 bound_to 10162
  157.6960  131.0396  150.3685 H   0  0  0  0  0  0  0  0  0  0  0  0  # atno 10718 bound_to 10713
  154.3872  135.2754  155.2176 H   0  0  0  0  0  0  0  0  0  0  0  0  # atno 10763 bound_to 10752
  154.4258  135.5989  153.6041 H   0  0  0  0  0  0  0  0  0  0  0  0  # atno 10764 bound_to 10752
  152.9833  135.5983  154.4122 H   0  0  0  0  0  0  0  0  0  0  0  0  # atno 10765 bound_to 10752
  140.6668  134.4290  157.5233 H   0  0  0  0  0  0  0  0  0  0  0  0  # atno 11005 bound_to 11000
  145.5686  139.1482  143.3301 LP  0  0  0  0  0  0  0  0  0  0  0  0  # atno 17320 bound_to 7965
  146.2221  140.5820  142.9013 LP  0  0  0  0  0  0  0  0  0  0  0  0  # atno 17321 bound_to 7965
  140.7771  143.3723  151.1626 LP  0  0  0  0  0  0  0  0  0  0  0  0  # atno 17342 bound_to 10162
  139.7350  143.9012  152.3032 LP  0  0  0  0  0  0  0  0  0  0  0  0  # atno 17343 bound_to 10162
  156.4112  130.3934  149.6890 LP  0  0  0  0  0  0  0  0  0  0  0  0  # atno 17370 bound_to 10713
  156.4173  130.7751  151.2767 LP  0  0  0  0  0  0  0  0  0  0  0  0  # atno 17371 bound_to 10713
  139.8994  134.8591  156.1959 LP  0  0  0  0  0  0  0  0  0  0  0  0  # atno 17394 bound_to 11000
  141.0423  133.6931  156.1620 LP  0  0  0  0  0  0  0  0  0  0  0  0  # atno 17395 bound_to 11000

$$$$
