AV-unprocessed.smi:2069|AV-procd|sdf|8434|dock4
  -GOLD-   2272011133D 1   1.00000     0.00000
 Structure written by MMmdl.
 39 40  0  0  0  0  0  0  0  0  2 V2000
  143.7588  133.3763  151.0299 C   0  0  0  0  0  0  0  0  0  0  0  0
  144.3656  134.6884  151.3924 C   0  0  0  0  0  0  0  0  0  0  0  0
  145.5015  135.1361  150.8437 N   0  0  0  0  0  0  0  0  0  0  0  0
  145.8668  136.3823  151.3332 N   0  0  0  0  0  0  0  0  0  0  0  0
  144.9912  136.8397  152.2387 C   0  0  0  0  0  0  0  0  0  0  0  0
  145.1173  138.0925  152.8951 N   0  0  0  0  0  0  0  0  0  0  0  0
  145.9041  138.4103  153.9381 C   0  0  0  0  0  0  0  0  0  0  0  0
  146.6551  137.6338  154.5291 O   0  0  0  0  0  0  0  0  0  0  0  0
  145.7770  139.7034  154.2680 N   0  0  0  0  0  0  0  0  0  0  0  0
  146.5071  140.3610  155.3478 C   0  0  0  0  0  0  0  0  0  0  0  0
  147.3290  141.5872  154.8681 C   0  0  1  0  0  0  0  0  0  0  0  0
  146.3861  142.6550  154.2616 C   0  0  0  0  0  0  0  0  0  0  0  0
  148.1831  142.1073  155.9854 N   0  3  0  0  0  0  0  0  0  0  0  0
  147.4201  142.2793  157.2522 C   0  0  0  0  0  0  0  0  0  0  0  0
  148.2985  142.9063  158.3465 C   0  0  0  0  0  0  0  0  0  0  0  0
  149.4366  142.0863  158.5654 O   0  0  0  0  0  0  0  0  0  0  0  0
  150.2376  141.9839  157.3976 C   0  0  0  0  0  0  0  0  0  0  0  0
  149.4283  141.3380  156.2594 C   0  0  0  0  0  0  0  0  0  0  0  0
  143.6368  135.7737  152.5700 S   0  0  0  0  0  0  0  0  0  0  0  0
  144.5350  132.6598  150.7593 H   0  0  0  0  0  0  0  0  0  0  0  0
  143.0839  133.5003  150.1829 H   0  0  0  0  0  0  0  0  0  0  0  0
  143.1950  132.9761  151.8725 H   0  0  0  0  0  0  0  0  0  0  0  0
  144.5473  138.8360  152.5194 H   0  0  0  0  0  0  0  0  0  0  0  0
  145.1367  140.2732  153.7345 H   0  0  0  0  0  0  0  0  0  0  0  0
  145.7805  140.6769  156.0970 H   0  0  0  0  0  0  0  0  0  0  0  0
  147.1322  139.6133  155.8345 H   0  0  0  0  0  0  0  0  0  0  0  0
  147.9996  141.2724  154.0667 H   0  0  0  0  0  0  0  0  0  0  0  0
  145.7600  142.2395  153.4723 H   0  0  0  0  0  0  0  0  0  0  0  0
  146.9382  143.4722  153.7974 H   0  0  0  0  0  0  0  0  0  0  0  0
  145.7214  143.0757  155.0168 H   0  0  0  0  0  0  0  0  0  0  0  0
  146.5464  142.9116  157.1061 H   0  0  0  0  0  0  0  0  0  0  0  0
  147.0513  141.3093  157.5894 H   0  0  0  0  0  0  0  0  0  0  0  0
  148.6053  143.9172  158.0724 H   0  0  0  0  0  0  0  0  0  0  0  0
  147.7374  142.9855  159.2779 H   0  0  0  0  0  0  0  0  0  0  0  0
  150.6016  142.9701  157.1041 H   0  0  0  0  0  0  0  0  0  0  0  0
  151.1145  141.3773  157.6245 H   0  0  0  0  0  0  0  0  0  0  0  0
  149.1752  140.3081  156.5164 H   0  0  0  0  0  0  0  0  0  0  0  0
  150.0702  141.3091  155.3796 H   0  0  0  0  0  0  0  0  0  0  0  0
  148.4890  143.0263  155.6996 H   0  0  0  0  0  0  0  0  0  0  0  0
  1  2  1  0  0  0  0
  1 20  1  0  0  0  0
  1 21  1  0  0  0  0
  1 22  1  0  0  0  0
  2 19  1  0  0  0  0
  2  3  2  0  0  0  0
  3  4  1  0  0  0  0
  4  5  2  0  0  0  0
  5  6  1  0  0  0  0
  5 19  1  0  0  0  0
  6  7  1  0  0  0  0
  6 23  1  0  0  0  0
  7  8  2  0  0  0  0
  7  9  1  0  0  0  0
  9 10  1  0  0  0  0
  9 24  1  0  0  0  0
 10 11  1  0  0  0  0
 10 25  1  0  0  0  0
 10 26  1  0  0  0  0
 11 12  1  0  0  0  0
 11 13  1  0  0  0  0
 11 27  1  0  0  0  0
 12 28  1  0  0  0  0
 12 29  1  0  0  0  0
 12 30  1  0  0  0  0
 13 18  1  0  0  0  0
 13 14  1  0  0  0  0
 13 39  1  0  0  0  0
 14 15  1  0  0  0  0
 14 31  1  0  0  0  0
 14 32  1  0  0  0  0
 15 16  1  0  0  0  0
 15 33  1  0  0  0  0
 15 34  1  0  0  0  0
 16 17  1  0  0  0  0
 17 18  1  0  0  0  0
 17 35  1  0  0  0  0
 17 36  1  0  0  0  0
 18 37  1  0  0  0  0
 18 38  1  0  0  0  0
M  CHG  1  13   1
M  END
> <s_m_source_file>
AV-unprocessed.smi

> <i_m_source_file_index>
2069

> <i_lp_mmshare_version>
43012

> <i_f3d_flags>
0

> <s_epik_input>
W0NIM11jMW5uYyhzMSlbTkhdQyg9TylbTkhdW0NIMl1bQ0BIXShbQ0gzXSlOMltDSDJdW0NIMl1PW0NIMl1bQ0gyXTI=

> <s_epik_cmdline>
J2VwaWtfcHl0aG9uJywgJy1waCcsICc3LjAnLCAnLXRuJywgJzgnLCAnLW1hJywgJzIwMCcsICctbWV0YWxfYmluZGluZycsICctaW1hZScsICc8aW5maWxlLm1hZT4nLCAnLW9tYWUnLCAnPG91dGZpbGUubWFlPic=

> <r_lp_tautomer_probability>
1

> <r_epik_Ionization_Penalty>
0.70016

> <r_epik_Ionization_Penalty_Charging>
0.695697

> <r_epik_Ionization_Penalty_Neutral>
0.00446266

> <r_epik_State_Penalty>
0.717972

> <r_epik_Charging_Adjusted_Penalty>
1.41367

> <i_epik_Tot_Q>
1

> <i_epik_Tot_abs_Q>
1

> <r_epik_Metal_State_Penalty>
1.06969

> <b_epik_Metal_Only>
0

> <s_lp_Force_Field>
OPLS_2005

> <r_lp_Energy>
18.8851

> <b_lp_Chiralities_Consistent>
1

> <s_lp_Variant>
AV-unprocessed.smi:2069-4

> <Gold.Version>
5.8.1

> <Gold.Id.Protein>
6NUR|6NUR_protein|mol2

> <Gold.PLP.Fitness>
35.8998

> <Gold.PLP.PLP>
-25.8937

> <Gold.PLP.part.hbond>
-3.3555

> <Gold.PLP.part.metal>
0.0000

> <Gold.PLP.part.buried>
-4.8780

> <Gold.PLP.part.nonpolar>
-18.0226

> <Gold.PLP.part.repulsive>
1.0705

> <Gold.PLP.ligand.clash>
0.0000

> <Gold.PLP.ligand.torsion>
1.0251

> <Gold.PLP.Chemscore.Hbond>
4.0000

> <Gold.PLP.Chemscore.CHOScore>
0.0000

> <Gold.PLP.Chemscore.Metal>
0.0000

> <Gold.Chemscore.Hbonds>
donor molecule, donor type, donor heavy atom, donor atom, acceptor molecule, acceptor atom, score
      L1  H     6    23       P1 10175  1.00
      L1  H     9    24       P1 10175  1.00
      L1  H    13    39       P1  8028  2.00

> <Gold.PLP.Chemscore.Internal.Correction>
0.0563

> <Gold.Rescore>
     Score         DG    S(hbond)    S(metal)    S(lipo)     H(rot)  DE(clash)    DE(int)     intcor
     15.64     -16.70       2.96        0.00      47.47       1.65       0.06       1.00       ----

> <Gold.Chemscore.Fitness>
15.6409

> <Gold.Chemscore.DG>
-16.6994

> <Gold.Chemscore.ZeroCoef>
-5.4800

> <Gold.Chemscore.Hbond>
2.9590

> <Gold.Chemscore.Metal>
0.0000

> <Gold.Chemscore.Lipo>
47.4726

> <Gold.Chemscore.Internal_Hbond>
0.0000

> <Gold.Chemscore.DEClash>
0.0550

> <Gold.Chemscore.DEInternal>
1.0035

> <Gold.Chemscore.Rot>
1.6476

> <Gold.Chemscore.Internal.Correction>
   9.000000E+99

> <Gold.Chemscore.Hbonds>
donor molecule, donor type, donor heavy atom, donor atom, acceptor molecule, acceptor atom, score
      L1  H     6    23       P1 10175  0.99
      L1  H     9    24       P1 10175  0.96
      L1  H    13    39       P1  8028  0.99

> <Gold.Chemscore.Hbond.Weighted>
-9.8830

> <Gold.Chemscore.Metal.Weighted>
-0.0000

> <Gold.Chemscore.Lipo.Weighted>
-5.5543

> <Gold.Chemscore.Internal_Hbond.Weighted>
0.0000

> <Gold.Chemscore.DEClash.Weighted>
0.0550

> <Gold.Chemscore.DEInternal.Weighted>
1.0035

> <Gold.Chemscore.Rot.Weighted>
4.2179

> <Gold.Chemscore.Internal.Correction.Weighted>
   9.000000E+99

> <Gold.Protein.RotatedTorsions>
[ 6907 6896 6895 6894 ] final  145.70 input  -60.11 | X-H torsion
[ 7974 7965 7964 7962 ] final  -98.06 input  175.53 | X-H torsion
[ 8008 7997 7996 7995 ] final   18.37 input   59.86 | X-H torsion
[ 10167 10162 10161 10158 ] final  -39.38 input  -65.29 | X-H torsion
[ 10718 10713 10712 10709 ] final   -3.81 input   66.30 | X-H torsion
[ 10763 10752 10751 10750 ] final  -20.70 input  -60.55 | X-H torsion
[ 11005 11000 10999 10996 ] final -149.19 input  -57.11 | X-H torsion

> <Gold.Protein.ActiveResidues>
 VAL166  LYS551  ARG553  GLY616  TRP617  ASP618  TYR619  PRO620  LYS621  CYS622 
 ASP623  PHE694  ASN695  SER759  ASP760  ASP761  ALA762  ILE779  LEU786  VAL792 
 PHE793  MET794  SER795  GLU796  ALA797  LYS798  CYS799  TRP800  GLU811  SER814 

> <Gold.Protein.RotatedAtoms>
  152.1774  133.4684  159.4940 H   0  0  0  0  0  0  0  0  0  0  0  0  # atno 6907 bound_to 6896
  150.6929  134.1876  159.4282 H   0  0  0  0  0  0  0  0  0  0  0  0  # atno 6908 bound_to 6896
  151.9786  135.0040  160.0607 H   0  0  0  0  0  0  0  0  0  0  0  0  # atno 6909 bound_to 6896
  145.3255  140.9431  143.2691 H   0  0  0  0  0  0  0  0  0  0  0  0  # atno 7974 bound_to 7965
  154.9050  140.3006  155.5297 H   0  0  0  0  0  0  0  0  0  0  0  0  # atno 8008 bound_to 7997
  156.3017  140.2400  156.4018 H   0  0  0  0  0  0  0  0  0  0  0  0  # atno 8009 bound_to 7997
  154.8483  140.0410  157.1576 H   0  0  0  0  0  0  0  0  0  0  0  0  # atno 8010 bound_to 7997
  140.7065  143.3218  151.2775 H   0  0  0  0  0  0  0  0  0  0  0  0  # atno 10167 bound_to 10162
  156.7705  130.5298  149.5768 H   0  0  0  0  0  0  0  0  0  0  0  0  # atno 10718 bound_to 10713
  153.6246  135.6991  153.5298 H   0  0  0  0  0  0  0  0  0  0  0  0  # atno 10763 bound_to 10752
  153.2909  135.4157  155.1166 H   0  0  0  0  0  0  0  0  0  0  0  0  # atno 10764 bound_to 10752
  154.8536  135.3625  154.5788 H   0  0  0  0  0  0  0  0  0  0  0  0  # atno 10765 bound_to 10752
  140.7534  134.3381  157.5120 H   0  0  0  0  0  0  0  0  0  0  0  0  # atno 11005 bound_to 11000
  144.8905  139.4781  143.6680 LP  0  0  0  0  0  0  0  0  0  0  0  0  # atno 17320 bound_to 7965
  146.3066  139.7600  142.9052 LP  0  0  0  0  0  0  0  0  0  0  0  0  # atno 17321 bound_to 7965
  139.6674  144.0081  152.2731 LP  0  0  0  0  0  0  0  0  0  0  0  0  # atno 17342 bound_to 10162
  139.9668  144.6520  150.8026 LP  0  0  0  0  0  0  0  0  0  0  0  0  # atno 17343 bound_to 10162
  156.1281  130.6158  151.0293 LP  0  0  0  0  0  0  0  0  0  0  0  0  # atno 17370 bound_to 10713
  157.6693  131.0865  150.7651 LP  0  0  0  0  0  0  0  0  0  0  0  0  # atno 17371 bound_to 10713
  139.8783  134.9156  156.3135 LP  0  0  0  0  0  0  0  0  0  0  0  0  # atno 17394 bound_to 11000
  140.9730  133.7315  156.0562 LP  0  0  0  0  0  0  0  0  0  0  0  0  # atno 17395 bound_to 11000

$$$$
