AV-unprocessed.smi:1019|AV-procd|sdf|4448|dock6
  -GOLD-   22720 2413D 1   1.00000     0.00000
 Structure written by MMmdl.
 45 47  0  0  0  0  0  0  0  0  3 V2000
  148.0584  136.1199  155.3612 C   0  0  0  0  0  0  0  0  0  0  0  0
  149.2779  135.7318  154.6154 N   0  3  2  0  0  0  0  0  0  0  0  0
  149.4939  134.2635  154.6390 C   0  0  0  0  0  0  0  0  0  0  0  0
  148.2344  133.4948  154.2753 C   0  0  0  0  0  0  0  0  0  0  0  0
  148.0127  133.0940  152.9406 C   0  0  0  0  0  0  0  0  0  0  0  0
  146.8532  132.3694  152.6027 C   0  0  0  0  0  0  0  0  0  0  0  0
  145.9094  132.0462  153.5964 C   0  0  0  0  0  0  0  0  0  0  0  0
  146.1241  132.4492  154.9283 C   0  0  0  0  0  0  0  0  0  0  0  0
  147.2835  133.1731  155.2675 C   0  0  0  0  0  0  0  0  0  0  0  0
  150.4735  136.5194  155.0196 C   0  0  0  0  0  0  0  0  0  0  0  0
  150.2452  138.0349  154.8628 C   0  0  2  0  0  0  0  0  0  0  0  0
  150.1982  138.3452  153.4829 O   0  0  0  0  0  0  0  0  0  0  0  0
  151.3601  138.8564  155.5398 C   0  0  0  0  0  0  0  0  0  0  0  0
  150.9520  140.2379  155.8331 N   0  0  0  0  0  0  0  0  0  0  0  0
  150.1120  141.0573  155.1435 C   0  0  0  0  0  0  0  0  0  0  0  0
  150.0496  142.2418  155.8121 N   0  3  0  0  0  0  0  0  0  0  0  0
  150.8603  142.1801  156.9469 C   0  0  0  0  0  0  0  0  0  0  0  0
  151.1207  143.1286  157.9311 C   0  0  0  0  0  0  0  0  0  0  0  0
  152.0035  142.7453  158.9617 C   0  0  0  0  0  0  0  0  0  0  0  0
  152.5893  141.4629  158.9873 C   0  0  0  0  0  0  0  0  0  0  0  0
  152.3176  140.5088  157.9845 C   0  0  0  0  0  0  0  0  0  0  0  0
  151.4434  140.8948  156.9684 C   0  0  0  0  0  0  0  0  0  0  0  0
  148.1519  135.8695  156.4186 H   0  0  0  0  0  0  0  0  0  0  0  0
  147.1845  135.6017  154.9654 H   0  0  0  0  0  0  0  0  0  0  0  0
  147.8658  137.1892  155.2803 H   0  0  0  0  0  0  0  0  0  0  0  0
  150.3153  133.9971  153.9717 H   0  0  0  0  0  0  0  0  0  0  0  0
  149.7912  133.9500  155.6410 H   0  0  0  0  0  0  0  0  0  0  0  0
  148.7336  133.3361  152.1734 H   0  0  0  0  0  0  0  0  0  0  0  0
  146.6872  132.0609  151.5809 H   0  0  0  0  0  0  0  0  0  0  0  0
  145.0200  131.4910  153.3365 H   0  0  0  0  0  0  0  0  0  0  0  0
  145.3991  132.2031  155.6901 H   0  0  0  0  0  0  0  0  0  0  0  0
  147.4412  133.4763  156.2923 H   0  0  0  0  0  0  0  0  0  0  0  0
  150.7347  136.2743  156.0501 H   0  0  0  0  0  0  0  0  0  0  0  0
  151.3432  136.2439  154.4232 H   0  0  0  0  0  0  0  0  0  0  0  0
  149.2893  138.3165  155.3044 H   0  0  0  0  0  0  0  0  0  0  0  0
  149.5901  137.7581  153.0597 H   0  0  0  0  0  0  0  0  0  0  0  0
  151.6302  138.3976  156.4917 H   0  0  0  0  0  0  0  0  0  0  0  0
  152.2699  138.8673  154.9390 H   0  0  0  0  0  0  0  0  0  0  0  0
  149.5886  140.8128  154.2304 H   0  0  0  0  0  0  0  0  0  0  0  0
  150.6737  144.1119  157.9138 H   0  0  0  0  0  0  0  0  0  0  0  0
  152.2361  143.4491  159.7479 H   0  0  0  0  0  0  0  0  0  0  0  0
  153.2616  141.2059  159.7929 H   0  0  0  0  0  0  0  0  0  0  0  0
  152.7754  139.5317  158.0159 H   0  0  0  0  0  0  0  0  0  0  0  0
  149.1065  135.9624  153.6467 H   0  0  0  0  0  0  0  0  0  0  0  0
  149.4931  143.0326  155.5138 H   0  0  0  0  0  0  0  0  0  0  0  0
  1  2  1  0  0  0  0
  1 23  1  0  0  0  0
  1 24  1  0  0  0  0
  1 25  1  0  0  0  0
  2  3  1  0  0  0  0
  2 10  1  0  0  0  0
  2 44  1  0  0  0  0
  3  4  1  0  0  0  0
  3 26  1  0  0  0  0
  3 27  1  0  0  0  0
  4  9  1  0  0  0  0
  4  5  2  0  0  0  0
  5  6  1  0  0  0  0
  5 28  1  0  0  0  0
  6  7  2  0  0  0  0
  6 29  1  0  0  0  0
  7  8  1  0  0  0  0
  7 30  1  0  0  0  0
  8  9  2  0  0  0  0
  8 31  1  0  0  0  0
  9 32  1  0  0  0  0
 10 11  1  0  0  0  0
 10 33  1  0  0  0  0
 10 34  1  0  0  0  0
 11 12  1  0  0  0  0
 11 13  1  0  0  0  0
 11 35  1  0  0  0  0
 12 36  1  0  0  0  0
 13 14  1  0  0  0  0
 13 37  1  0  0  0  0
 13 38  1  0  0  0  0
 14 22  1  0  0  0  0
 14 15  1  0  0  0  0
 15 16  2  0  0  0  0
 15 39  1  0  0  0  0
 16 17  1  0  0  0  0
 16 45  1  0  0  0  0
 17 22  2  0  0  0  0
 17 18  1  0  0  0  0
 18 19  2  0  0  0  0
 18 40  1  0  0  0  0
 19 20  1  0  0  0  0
 19 41  1  0  0  0  0
 20 21  2  0  0  0  0
 20 42  1  0  0  0  0
 21 22  1  0  0  0  0
 21 43  1  0  0  0  0
M  CHG  1   2   1
M  CHG  1  16   1
M  END
> <s_m_source_file>
AV-unprocessed.smi

> <i_m_source_file_index>
1019

> <i_lp_mmshare_version>
43012

> <i_f3d_flags>
0

> <s_epik_input>
W2NIXTFbY0hdW2NIXVtjSF1bY0hdYzFbQ0gyXU4oW0NIM10pW0NIMl1bQ0BIXShbT0hdKVtDSDJdbihbY0hdbjIpYyhjMjMpW2NIXVtjSF1bY0hdW2NIXTM=

> <s_epik_cmdline>
J2VwaWtfcHl0aG9uJywgJy1waCcsICc3LjAnLCAnLXRuJywgJzgnLCAnLW1hJywgJzIwMCcsICctbWV0YWxfYmluZGluZycsICctaW1hZScsICc8aW5maWxlLm1hZT4nLCAnLW9tYWUnLCAnPG91dGZpbGUubWFlPic=

> <r_epik_Ionization_Penalty>
1.5198

> <r_epik_Ionization_Penalty_Charging>
1.5198

> <r_epik_Ionization_Penalty_Neutral>
3.13312e-06

> <r_epik_State_Penalty>
1.624

> <r_epik_Charging_Adjusted_Penalty>
3.1438

> <i_epik_Tot_Q>
2

> <i_epik_Tot_abs_Q>
2

> <r_epik_Metal_State_Penalty>
5.67392

> <b_epik_Metal_Only>
0

> <s_lp_Force_Field>
OPLS_2005

> <r_lp_Energy>
24.0682

> <b_lp_Chiralities_Consistent>
1

> <s_lp_Variant>
AV-unprocessed.smi:1019-6

> <Gold.Version>
5.8.1

> <Gold.Id.Protein>
6NUR|6NUR_protein|mol2

> <Gold.PLP.Fitness>
54.0163

> <Gold.PLP.PLP>
-40.8433

> <Gold.PLP.part.hbond>
-4.3066

> <Gold.PLP.part.metal>
0.0000

> <Gold.PLP.part.buried>
-3.1792

> <Gold.PLP.part.nonpolar>
-32.8415

> <Gold.PLP.part.repulsive>
0.1584

> <Gold.PLP.ligand.clash>
0.0000

> <Gold.PLP.ligand.torsion>
1.0169

> <Gold.PLP.Chemscore.Hbond>
5.0000

> <Gold.PLP.Chemscore.CHOScore>
0.0000

> <Gold.PLP.Chemscore.Metal>
0.0000

> <Gold.Chemscore.Hbonds>
donor molecule, donor type, donor heavy atom, donor atom, acceptor molecule, acceptor atom, score
      L1  H     2    44       P1  7948  2.00
      L1  H    12    36       P1  7948  1.00
      L1  H    16    45       P1  8028  2.00

> <Gold.PLP.Chemscore.Internal.Correction>
0.2067

> <Gold.Rescore>
     Score         DG    S(hbond)    S(metal)    S(lipo)     H(rot)  DE(clash)    DE(int)     intcor
     19.29     -20.35       2.72        0.00     103.08       2.46       0.02       1.04       ----

> <Gold.Chemscore.Fitness>
19.2900

> <Gold.Chemscore.DG>
-20.3475

> <Gold.Chemscore.ZeroCoef>
-5.4800

> <Gold.Chemscore.Hbond>
2.7222

> <Gold.Chemscore.Metal>
0.0000

> <Gold.Chemscore.Lipo>
103.0825

> <Gold.Chemscore.Internal_Hbond>
0.0000

> <Gold.Chemscore.DEClash>
0.0189

> <Gold.Chemscore.DEInternal>
1.0386

> <Gold.Chemscore.Rot>
2.4552

> <Gold.Chemscore.Internal.Correction>
   9.000000E+99

> <Gold.Chemscore.Hbonds>
donor molecule, donor type, donor heavy atom, donor atom, acceptor molecule, acceptor atom, score
      L1  H     2    44       P1  7948  0.91
      L1  H    12    36       P1  7948  0.74
      L1  H    16    45       P1  8028  0.98

> <Gold.Chemscore.Hbond.Weighted>
-9.0922

> <Gold.Chemscore.Metal.Weighted>
-0.0000

> <Gold.Chemscore.Lipo.Weighted>
-12.0607

> <Gold.Chemscore.Internal_Hbond.Weighted>
0.0000

> <Gold.Chemscore.DEClash.Weighted>
0.0189

> <Gold.Chemscore.DEInternal.Weighted>
1.0386

> <Gold.Chemscore.Rot.Weighted>
6.2854

> <Gold.Chemscore.Internal.Correction.Weighted>
   9.000000E+99

> <Gold.Protein.RotatedTorsions>
[ 6907 6896 6895 6894 ] final    1.18 input  -60.11 | X-H torsion
[ 7974 7965 7964 7962 ] final -165.91 input  175.53 | X-H torsion
[ 8008 7997 7996 7995 ] final  -85.05 input   59.86 | X-H torsion
[ 10167 10162 10161 10158 ] final   49.24 input  -65.29 | X-H torsion
[ 10718 10713 10712 10709 ] final  -26.30 input   66.30 | X-H torsion
[ 10763 10752 10751 10750 ] final -165.93 input  -60.55 | X-H torsion
[ 11005 11000 10999 10996 ] final -131.20 input  -57.11 | X-H torsion

> <Gold.Protein.ActiveResidues>
 VAL166  LYS551  ARG553  GLY616  TRP617  ASP618  TYR619  PRO620  LYS621  CYS622 
 ASP623  PHE694  ASN695  SER759  ASP760  ASP761  ALA762  ILE779  LEU786  VAL792 
 PHE793  MET794  SER795  GLU796  ALA797  LYS798  CYS799  TRP800  GLU811  SER814 

> <Gold.Protein.RotatedAtoms>
  151.5885  135.1055  160.0033 H   0  0  0  0  0  0  0  0  0  0  0  0  # atno 6907 bound_to 6896
  152.4318  133.7287  159.6586 H   0  0  0  0  0  0  0  0  0  0  0  0  # atno 6908 bound_to 6896
  150.8211  133.8180  159.3161 H   0  0  0  0  0  0  0  0  0  0  0  0  # atno 6909 bound_to 6896
  144.7258  140.2744  143.6245 H   0  0  0  0  0  0  0  0  0  0  0  0  # atno 7974 bound_to 7965
  154.6364  140.0597  156.9794 H   0  0  0  0  0  0  0  0  0  0  0  0  # atno 8008 bound_to 7997
  155.1584  140.3280  155.4398 H   0  0  0  0  0  0  0  0  0  0  0  0  # atno 8009 bound_to 7997
  156.2509  140.1935  156.6693 H   0  0  0  0  0  0  0  0  0  0  0  0  # atno 8010 bound_to 7997
  140.2850  144.3113  150.6254 H   0  0  0  0  0  0  0  0  0  0  0  0  # atno 10167 bound_to 10162
  156.4530  130.4488  149.6977 H   0  0  0  0  0  0  0  0  0  0  0  0  # atno 10718 bound_to 10713
  154.6884  135.2966  154.9515 H   0  0  0  0  0  0  0  0  0  0  0  0  # atno 10763 bound_to 10752
  154.0486  135.6647  153.4802 H   0  0  0  0  0  0  0  0  0  0  0  0  # atno 10764 bound_to 10752
  153.0595  135.5124  154.7963 H   0  0  0  0  0  0  0  0  0  0  0  0  # atno 10765 bound_to 10752
  140.9279  134.1358  157.4259 H   0  0  0  0  0  0  0  0  0  0  0  0  # atno 11005 bound_to 11000
  145.8011  139.1965  143.2047 LP  0  0  0  0  0  0  0  0  0  0  0  0  # atno 17320 bound_to 7965
  146.0676  140.7904  142.9704 LP  0  0  0  0  0  0  0  0  0  0  0  0  # atno 17321 bound_to 7965
  140.5780  143.2175  151.7479 LP  0  0  0  0  0  0  0  0  0  0  0  0  # atno 17342 bound_to 10162
  139.4953  144.4121  152.0069 LP  0  0  0  0  0  0  0  0  0  0  0  0  # atno 17343 bound_to 10162
  156.3796  130.7572  151.2563 LP  0  0  0  0  0  0  0  0  0  0  0  0  # atno 17370 bound_to 10713
  157.7502  131.0299  150.4115 LP  0  0  0  0  0  0  0  0  0  0  0  0  # atno 17371 bound_to 10713
  139.8789  134.9995  156.5957 LP  0  0  0  0  0  0  0  0  0  0  0  0  # atno 17394 bound_to 11000
  140.7901  133.8589  155.8639 LP  0  0  0  0  0  0  0  0  0  0  0  0  # atno 17395 bound_to 11000

$$$$
