AV-unprocessed.smi:197|AV-procd|sdf|1551|dock4
  -GOLD-   2262019413D 1   1.00000     0.00000
 Structure written by MMmdl.
 54 57  0  0  0  0  0  0  0  0  1 V2000
  146.1259  136.7594  160.2028 C   0  0  0  0  0  0  0  0  0  0  0  0
  146.9611  137.7001  159.5454 O   0  0  0  0  0  0  0  0  0  0  0  0
  147.6629  137.1758  158.4265 C   0  0  0  0  0  0  0  0  0  0  0  0
  147.1412  137.7590  157.1002 C   0  0  0  0  0  0  0  0  0  0  0  0
  147.6340  136.9948  155.8466 C   0  0  1  0  0  0  0  0  0  0  0  0
  146.6367  135.9186  155.3638 C   0  0  0  0  0  0  0  0  0  0  0  0
  145.4670  136.5352  154.8341 O   0  0  0  0  0  0  0  0  0  0  0  0
  145.7582  137.3371  153.6946 C   0  0  0  0  0  0  0  0  0  0  0  0
  146.7306  138.4617  154.0845 C   0  0  0  0  0  0  0  0  0  0  0  0
  147.9177  137.8995  154.7277 N   0  0  0  0  0  0  0  0  0  0  0  0
  149.0174  138.6905  154.8469 C   0  0  0  0  0  0  0  0  0  0  0  0
  150.2155  138.2500  154.3767 N   0  0  0  0  0  0  0  0  0  0  0  0
  151.3026  139.0215  154.4612 C   0  0  0  0  0  0  0  0  0  0  0  0
  151.4163  140.2485  154.9711 N   0  0  0  0  0  0  0  0  0  0  0  0
  150.2219  140.6957  155.4535 C   0  0  0  0  0  0  0  0  0  0  0  0
  148.9863  139.9873  155.4364 C   0  0  0  0  0  0  0  0  0  0  0  0
  147.9964  140.7575  156.0364 N   0  0  0  0  0  0  0  0  0  0  0  0
  148.6064  141.8609  156.3723 C   0  0  0  0  0  0  0  0  0  0  0  0
  149.9437  141.9123  156.0516 N   0  0  0  0  0  0  0  0  0  0  0  0
  150.8567  143.0163  156.3051 C   0  0  0  0  0  0  0  0  0  0  0  0
  150.9250  143.4268  157.7996 C   0  0  2  0  0  0  0  0  0  0  0  0
  149.6876  144.0307  158.1402 O   0  0  0  0  0  0  0  0  0  0  0  0
  152.0341  144.4262  158.1117 C   0  0  0  0  0  0  0  0  0  0  0  0
  152.3394  144.1483  159.5755 C   0  0  0  0  0  0  0  0  0  0  0  0
  152.2587  142.7356  159.6448 O   0  0  0  0  0  0  0  0  0  0  0  0
  151.1859  142.2837  158.8208 C   0  0  2  0  0  0  0  0  0  0  0  0
  151.5995  140.9219  158.2406 C   0  0  0  0  0  0  0  0  0  0  0  0
  145.5838  137.2578  161.0062 H   0  0  0  0  0  0  0  0  0  0  0  0
  146.6972  135.9454  160.6482 H   0  0  0  0  0  0  0  0  0  0  0  0
  145.3904  136.3368  159.5172 H   0  0  0  0  0  0  0  0  0  0  0  0
  148.7368  137.3376  158.5330 H   0  0  0  0  0  0  0  0  0  0  0  0
  147.5106  136.0974  158.4392 H   0  0  0  0  0  0  0  0  0  0  0  0
  146.0514  137.7889  157.1208 H   0  0  0  0  0  0  0  0  0  0  0  0
  147.4671  138.7957  157.0274 H   0  0  0  0  0  0  0  0  0  0  0  0
  148.5484  136.4735  156.1228 H   0  0  0  0  0  0  0  0  0  0  0  0
  147.0972  135.2921  154.5979 H   0  0  0  0  0  0  0  0  0  0  0  0
  146.3520  135.2474  156.1726 H   0  0  0  0  0  0  0  0  0  0  0  0
  146.1804  136.7183  152.9011 H   0  0  0  0  0  0  0  0  0  0  0  0
  144.8304  137.7596  153.3090 H   0  0  0  0  0  0  0  0  0  0  0  0
  147.0132  139.0194  153.1905 H   0  0  0  0  0  0  0  0  0  0  0  0
  146.2421  139.1627  154.7624 H   0  0  0  0  0  0  0  0  0  0  0  0
  152.2106  138.5952  154.0608 H   0  0  0  0  0  0  0  0  0  0  0  0
  148.0937  142.6760  156.8622 H   0  0  0  0  0  0  0  0  0  0  0  0
  151.8449  142.7284  155.9443 H   0  0  0  0  0  0  0  0  0  0  0  0
  150.5365  143.8576  155.6901 H   0  0  0  0  0  0  0  0  0  0  0  0
  149.1625  144.0971  157.3573 H   0  0  0  0  0  0  0  0  0  0  0  0
  152.9215  144.1974  157.5208 H   0  0  0  0  0  0  0  0  0  0  0  0
  151.7628  145.4646  157.9165 H   0  0  0  0  0  0  0  0  0  0  0  0
  153.3214  144.5106  159.8796 H   0  0  0  0  0  0  0  0  0  0  0  0
  151.5868  144.5938  160.2277 H   0  0  0  0  0  0  0  0  0  0  0  0
  150.3126  142.1345  159.4589 H   0  0  0  0  0  0  0  0  0  0  0  0
  150.8189  140.5050  157.6041 H   0  0  0  0  0  0  0  0  0  0  0  0
  151.7839  140.2044  159.0405 H   0  0  0  0  0  0  0  0  0  0  0  0
  152.5155  140.9982  157.6543 H   0  0  0  0  0  0  0  0  0  0  0  0
  1  2  1  0  0  0  0
  1 28  1  0  0  0  0
  1 29  1  0  0  0  0
  1 30  1  0  0  0  0
  2  3  1  0  0  0  0
  3  4  1  0  0  0  0
  3 31  1  0  0  0  0
  3 32  1  0  0  0  0
  4  5  1  0  0  0  0
  4 33  1  0  0  0  0
  4 34  1  0  0  0  0
  5 10  1  0  0  0  0
  5  6  1  0  0  0  0
  5 35  1  0  0  0  0
  6  7  1  0  0  0  0
  6 36  1  0  0  0  0
  6 37  1  0  0  0  0
  7  8  1  0  0  0  0
  8  9  1  0  0  0  0
  8 38  1  0  0  0  0
  8 39  1  0  0  0  0
  9 10  1  0  0  0  0
  9 40  1  0  0  0  0
  9 41  1  0  0  0  0
 10 11  1  0  0  0  0
 11 16  1  0  0  0  0
 11 12  2  0  0  0  0
 12 13  1  0  0  0  0
 13 14  2  0  0  0  0
 13 42  1  0  0  0  0
 14 15  1  0  0  0  0
 15 19  1  0  0  0  0
 15 16  2  0  0  0  0
 16 17  1  0  0  0  0
 17 18  2  0  0  0  0
 18 19  1  0  0  0  0
 18 43  1  0  0  0  0
 19 20  1  0  0  0  0
 20 21  1  0  0  0  0
 20 44  1  0  0  0  0
 20 45  1  0  0  0  0
 21 26  1  0  0  0  0
 21 22  1  0  0  0  0
 21 23  1  0  0  0  0
 22 46  1  0  0  0  0
 23 24  1  0  0  0  0
 23 47  1  0  0  0  0
 23 48  1  0  0  0  0
 24 25  1  0  0  0  0
 24 49  1  0  0  0  0
 24 50  1  0  0  0  0
 25 26  1  0  0  0  0
 26 27  1  0  0  0  0
 26 51  1  0  0  0  0
 27 52  1  0  0  0  0
 27 53  1  0  0  0  0
 27 54  1  0  0  0  0
M  END
> <s_m_source_file>
AV-unprocessed.smi

> <i_m_source_file_index>
197

> <i_lp_mmshare_version>
43012

> <i_f3d_flags>
0

> <s_epik_input>
W0NIM11PW0NIMl1bQ0gyXVtDQEBIXTFbQ0gyXU9bQ0gyXVtDSDJdTjFjKG5bY0hdbjIpYyhjMjMpbltjSF1uM1tDSDJdW0NAQF00KFtPSF0pW0NIMl1bQ0gyXU9bQ0BIXTRbQ0gzXQ==

> <s_epik_cmdline>
J2VwaWtfcHl0aG9uJywgJy1waCcsICc3LjAnLCAnLXRuJywgJzgnLCAnLW1hJywgJzIwMCcsICctbWV0YWxfYmluZGluZycsICctaW1hZScsICc8aW5maWxlLm1hZT4nLCAnLW9tYWUnLCAnPG91dGZpbGUubWFlPic=

> <r_lp_tautomer_probability>
1

> <r_epik_Ionization_Penalty>
0.000106218

> <r_epik_Ionization_Penalty_Charging>
0

> <r_epik_Ionization_Penalty_Neutral>
0.000106218

> <r_epik_State_Penalty>
-0

> <r_epik_Charging_Adjusted_Penalty>
0

> <i_epik_Tot_Q>
0

> <i_epik_Tot_abs_Q>
0

> <r_epik_Metal_State_Penalty>
-0

> <b_epik_Metal_Only>
0

> <s_lp_Force_Field>
OPLS_2005

> <r_lp_Energy>
41.9523

> <b_lp_Chiralities_Consistent>
1

> <s_lp_Variant>
AV-unprocessed.smi:197-8

> <Gold.Version>
5.8.1

> <Gold.Id.Protein>
6NUR|6NUR_protein|mol2

> <Gold.PLP.Fitness>
41.5911

> <Gold.PLP.PLP>
-33.3145

> <Gold.PLP.part.hbond>
-3.9999

> <Gold.PLP.part.metal>
0.0000

> <Gold.PLP.part.buried>
-4.5485

> <Gold.PLP.part.nonpolar>
-25.4810

> <Gold.PLP.part.repulsive>
0.4301

> <Gold.PLP.ligand.clash>
0.0000

> <Gold.PLP.ligand.torsion>
1.3831

> <Gold.PLP.Chemscore.Hbond>
2.8800

> <Gold.PLP.Chemscore.CHOScore>
0.6245

> <Gold.PLP.Chemscore.Metal>
0.0000

> <Gold.Chemscore.Hbonds>
donor molecule, donor type, donor heavy atom, donor atom, acceptor molecule, acceptor atom, score
      L1  H    22    46       P1  8028  0.70
      P1  H  6934  6947       L1     2  0.85
      P1  H  7989  7998       L1    14  0.55
      L1  C    18    43       P1  8028  0.51

> <Gold.PLP.Chemscore.Internal.Correction>
0.5293

> <Gold.Rescore>
     Score         DG    S(hbond)    S(metal)    S(lipo)     H(rot)  DE(clash)    DE(int)     intcor
      5.86     -10.19       0.94        0.00      75.39       2.84       0.37       3.95       ----

> <Gold.Chemscore.Fitness>
5.8593

> <Gold.Chemscore.DG>
-10.1865

> <Gold.Chemscore.ZeroCoef>
-5.4800

> <Gold.Chemscore.Hbond>
0.9416

> <Gold.Chemscore.Metal>
0.0000

> <Gold.Chemscore.Lipo>
75.3929

> <Gold.Chemscore.Internal_Hbond>
0.0000

> <Gold.Chemscore.DEClash>
0.3726

> <Gold.Chemscore.DEInternal>
3.9545

> <Gold.Chemscore.Rot>
2.8358

> <Gold.Chemscore.Internal.Correction>
   9.000000E+99

> <Gold.Chemscore.Hbonds>
donor molecule, donor type, donor heavy atom, donor atom, acceptor molecule, acceptor atom, score
      L1  H    22    46       P1  8028  0.07
      P1  H  6934  6947       L1     2  0.29
      P1  H  7989  7998       L1    14  0.02

> <Gold.Chemscore.Hbond.Weighted>
-3.1451

> <Gold.Chemscore.Metal.Weighted>
-0.0000

> <Gold.Chemscore.Lipo.Weighted>
-8.8210

> <Gold.Chemscore.Internal_Hbond.Weighted>
0.0000

> <Gold.Chemscore.DEClash.Weighted>
0.3726

> <Gold.Chemscore.DEInternal.Weighted>
3.9545

> <Gold.Chemscore.Rot.Weighted>
7.2596

> <Gold.Chemscore.Internal.Correction.Weighted>
   9.000000E+99

> <Gold.Protein.RotatedTorsions>
[ 6907 6896 6895 6894 ] final  -69.94 input  -60.11 | X-H torsion
[ 7974 7965 7964 7962 ] final   95.13 input  175.53 | X-H torsion
[ 8008 7997 7996 7995 ] final -125.60 input   59.86 | X-H torsion
[ 10167 10162 10161 10158 ] final -156.23 input  -65.29 | X-H torsion
[ 10718 10713 10712 10709 ] final   14.07 input   66.30 | X-H torsion
[ 10763 10752 10751 10750 ] final  105.28 input  -60.55 | X-H torsion
[ 11005 11000 10999 10996 ] final -102.69 input  -57.11 | X-H torsion

> <Gold.Protein.ActiveResidues>
 VAL166  LYS551  ARG553  GLY616  TRP617  ASP618  TYR619  PRO620  LYS621  CYS622 
 ASP623  PHE694  ASN695  SER759  ASP760  ASP761  ALA762  ILE779  LEU786  VAL792 
 PHE793  MET794  SER795  GLU796  ALA797  LYS798  CYS799  TRP800  GLU811  SER814 

> <Gold.Protein.RotatedAtoms>
  150.7281  134.5525  159.5801 H   0  0  0  0  0  0  0  0  0  0  0  0  # atno 6907 bound_to 6896
  152.3008  134.7610  160.0367 H   0  0  0  0  0  0  0  0  0  0  0  0  # atno 6908 bound_to 6896
  151.8191  133.3356  159.3615 H   0  0  0  0  0  0  0  0  0  0  0  0  # atno 6909 bound_to 6896
  145.4563  139.2290  143.3012 H   0  0  0  0  0  0  0  0  0  0  0  0  # atno 7974 bound_to 7965
  155.2160  140.0420  157.2941 H   0  0  0  0  0  0  0  0  0  0  0  0  # atno 8008 bound_to 7997
  154.5981  140.2444  155.7801 H   0  0  0  0  0  0  0  0  0  0  0  0  # atno 8009 bound_to 7997
  156.2303  140.2940  156.0180 H   0  0  0  0  0  0  0  0  0  0  0  0  # atno 8010 bound_to 7997
  139.6867  143.9490  152.2364 H   0  0  0  0  0  0  0  0  0  0  0  0  # atno 10167 bound_to 10162
  157.0338  130.6203  149.5739 H   0  0  0  0  0  0  0  0  0  0  0  0  # atno 10718 bound_to 10713
  153.3772  135.3915  155.1831 H   0  0  0  0  0  0  0  0  0  0  0  0  # atno 10763 bound_to 10752
  154.8702  135.3717  154.4903 H   0  0  0  0  0  0  0  0  0  0  0  0  # atno 10764 bound_to 10752
  153.5376  135.7085  153.5713 H   0  0  0  0  0  0  0  0  0  0  0  0  # atno 10765 bound_to 10752
  141.1178  133.8579  157.1392 H   0  0  0  0  0  0  0  0  0  0  0  0  # atno 11005 bound_to 11000
  146.2476  140.5327  142.8907 LP  0  0  0  0  0  0  0  0  0  0  0  0  # atno 17320 bound_to 7965
  144.8030  140.6249  143.6465 LP  0  0  0  0  0  0  0  0  0  0  0  0  # atno 17321 bound_to 7965
  139.9295  144.6750  150.8378 LP  0  0  0  0  0  0  0  0  0  0  0  0  # atno 17342 bound_to 10162
  140.7670  143.3319  151.2392 LP  0  0  0  0  0  0  0  0  0  0  0  0  # atno 17343 bound_to 10162
  156.0061  130.5147  150.7833 LP  0  0  0  0  0  0  0  0  0  0  0  0  # atno 17370 bound_to 10713
  157.5157  131.0928  151.0142 LP  0  0  0  0  0  0  0  0  0  0  0  0  # atno 17371 bound_to 10713
  140.0113  134.9987  157.0400 LP  0  0  0  0  0  0  0  0  0  0  0  0  # atno 17394 bound_to 11000
  140.4595  134.1499  155.7190 LP  0  0  0  0  0  0  0  0  0  0  0  0  # atno 17395 bound_to 11000

$$$$
