AV-unprocessed.smi:3285|AV-procd|sdf|12587|dock6
  -GOLD-   2272018513D 1   1.00000     0.00000
 Structure written by MMmdl.
 45 46  0  0  0  0  0  0  0  0  2 V2000
  149.2982  129.7838  153.7070 C   0  0  0  0  0  0  0  0  0  0  0  0
  149.9408  130.8687  154.5228 C   0  0  0  0  0  0  0  0  0  0  0  0
  150.7723  130.5476  155.4995 N   0  0  0  0  0  0  0  0  0  0  0  0
  151.1945  131.7582  156.0569 O   0  0  0  0  0  0  0  0  0  0  0  0
  150.5950  132.7731  155.3843 C   0  0  0  0  0  0  0  0  0  0  0  0
  150.9206  134.1576  155.8329 C   0  0  0  0  0  0  0  0  0  0  0  0
  149.7867  132.2791  154.3975 C   0  0  0  0  0  0  0  0  0  0  0  0
  148.9383  133.0346  153.4109 C   0  0  0  0  0  0  0  0  0  0  0  0
  147.9597  133.9797  154.1199 C   0  0  0  0  0  0  0  0  0  0  0  0
  147.1823  134.7676  153.1409 N   0  3  0  0  0  0  0  0  0  0  0  0
  146.1948  133.9980  152.3522 C   0  0  1  0  0  0  0  0  0  0  0  0
  145.1273  134.9515  151.7865 C   0  0  0  0  0  0  0  0  0  0  0  0
  144.0985  134.2066  150.9215 C   0  0  0  0  0  0  0  0  0  0  0  0
  144.7826  133.4284  149.7805 C   0  0  2  0  0  0  0  0  0  0  0  0
  143.7582  132.7516  148.8551 C   0  0  0  0  0  0  0  0  0  0  0  0
  145.8606  132.4551  150.3222 C   0  0  2  0  0  0  0  0  0  0  0  0
  145.2897  131.2197  151.0479 C   0  0  0  0  0  0  0  0  0  0  0  0
  146.8733  133.2159  151.2047 C   0  0  0  0  0  0  0  0  0  0  0  0
  149.6222  129.8358  152.6678 H   0  0  0  0  0  0  0  0  0  0  0  0
  148.2123  129.8764  153.7218 H   0  0  0  0  0  0  0  0  0  0  0  0
  149.5486  128.7912  154.0834 H   0  0  0  0  0  0  0  0  0  0  0  0
  151.0340  134.8265  154.9801 H   0  0  0  0  0  0  0  0  0  0  0  0
  151.8515  134.1769  156.4001 H   0  0  0  0  0  0  0  0  0  0  0  0
  150.1284  134.5517  156.4692 H   0  0  0  0  0  0  0  0  0  0  0  0
  149.5643  133.6100  152.7281 H   0  0  0  0  0  0  0  0  0  0  0  0
  148.3787  132.3406  152.7825 H   0  0  0  0  0  0  0  0  0  0  0  0
  147.2844  133.4012  154.7499 H   0  0  0  0  0  0  0  0  0  0  0  0
  148.5081  134.6596  154.7736 H   0  0  0  0  0  0  0  0  0  0  0  0
  146.6774  135.4724  153.6590 H   0  0  0  0  0  0  0  0  0  0  0  0
  145.6984  133.2995  153.0269 H   0  0  0  0  0  0  0  0  0  0  0  0
  144.6144  135.4645  152.6007 H   0  0  0  0  0  0  0  0  0  0  0  0
  145.6055  135.7274  151.1868 H   0  0  0  0  0  0  0  0  0  0  0  0
  143.5140  133.5285  151.5441 H   0  0  0  0  0  0  0  0  0  0  0  0
  143.3893  134.9242  150.5072 H   0  0  0  0  0  0  0  0  0  0  0  0
  145.3050  134.1635  149.1660 H   0  0  0  0  0  0  0  0  0  0  0  0
  143.1183  132.0563  149.3986 H   0  0  0  0  0  0  0  0  0  0  0  0
  144.2539  132.1985  148.0568 H   0  0  0  0  0  0  0  0  0  0  0  0
  143.1092  133.4920  148.3866 H   0  0  0  0  0  0  0  0  0  0  0  0
  146.4153  132.0739  149.4635 H   0  0  0  0  0  0  0  0  0  0  0  0
  144.6588  131.4919  151.8934 H   0  0  0  0  0  0  0  0  0  0  0  0
  146.0919  130.5872  151.4288 H   0  0  0  0  0  0  0  0  0  0  0  0
  144.6938  130.6019  150.3762 H   0  0  0  0  0  0  0  0  0  0  0  0
  147.4325  133.9134  150.5791 H   0  0  0  0  0  0  0  0  0  0  0  0
  147.6075  132.5120  151.5964 H   0  0  0  0  0  0  0  0  0  0  0  0
  147.8165  135.2308  152.5058 H   0  0  0  0  0  0  0  0  0  0  0  0
  1  2  1  0  0  0  0
  1 19  1  0  0  0  0
  1 20  1  0  0  0  0
  1 21  1  0  0  0  0
  2  7  1  0  0  0  0
  2  3  2  0  0  0  0
  3  4  1  0  0  0  0
  4  5  1  0  0  0  0
  5  6  1  0  0  0  0
  5  7  2  0  0  0  0
  6 22  1  0  0  0  0
  6 23  1  0  0  0  0
  6 24  1  0  0  0  0
  7  8  1  0  0  0  0
  8  9  1  0  0  0  0
  8 25  1  0  0  0  0
  8 26  1  0  0  0  0
  9 10  1  0  0  0  0
  9 27  1  0  0  0  0
  9 28  1  0  0  0  0
 10 11  1  0  0  0  0
 10 29  1  0  0  0  0
 10 45  1  0  0  0  0
 11 18  1  0  0  0  0
 11 12  1  0  0  0  0
 11 30  1  0  0  0  0
 12 13  1  0  0  0  0
 12 31  1  0  0  0  0
 12 32  1  0  0  0  0
 13 14  1  0  0  0  0
 13 33  1  0  0  0  0
 13 34  1  0  0  0  0
 14 15  1  0  0  0  0
 14 16  1  0  0  0  0
 14 35  1  0  0  0  0
 15 36  1  0  0  0  0
 15 37  1  0  0  0  0
 15 38  1  0  0  0  0
 16 17  1  0  0  0  0
 16 18  1  0  0  0  0
 16 39  1  0  0  0  0
 17 40  1  0  0  0  0
 17 41  1  0  0  0  0
 17 42  1  0  0  0  0
 18 43  1  0  0  0  0
 18 44  1  0  0  0  0
M  CHG  1  10   1
M  END
> <s_m_source_file>
AV-unprocessed.smi

> <i_m_source_file_index>
3285

> <i_lp_mmshare_version>
43012

> <i_f3d_flags>
0

> <s_epik_input>
W0NIM11jMW5vYyhbQ0gzXSljMVtDSDJdW0NIMl1bTkhdW0NAQEhdMltDSDJdW0NIMl1bQ0BASF0oW0NIM10pW0NAQEhdKFtDSDNdKVtDSDJdMg==

> <s_epik_cmdline>
J2VwaWtfcHl0aG9uJywgJy1waCcsICc3LjAnLCAnLXRuJywgJzgnLCAnLW1hJywgJzIwMCcsICctbWV0YWxfYmluZGluZycsICctaW1hZScsICc8aW5maWxlLm1hZT4nLCAnLW9tYWUnLCAnPG91dGZpbGUubWFlPic=

> <r_lp_tautomer_probability>
1

> <r_epik_Ionization_Penalty>
0.000204615

> <r_epik_Ionization_Penalty_Charging>
0.000204615

> <r_epik_Ionization_Penalty_Neutral>
9.28663e-11

> <r_epik_State_Penalty>
-0

> <r_epik_Charging_Adjusted_Penalty>
0.000204615

> <i_epik_Tot_Q>
1

> <i_epik_Tot_abs_Q>
1

> <r_epik_Metal_State_Penalty>
-0

> <b_epik_Metal_Only>
0

> <s_lp_Force_Field>
OPLS_2005

> <r_lp_Energy>
12.1842

> <b_lp_Chiralities_Consistent>
1

> <s_lp_Variant>
AV-unprocessed.smi:3285-8

> <Gold.Version>
5.8.1

> <Gold.Id.Protein>
6NUR|6NUR_protein|mol2

> <Gold.PLP.Fitness>
41.8840

> <Gold.PLP.PLP>
-36.3161

> <Gold.PLP.part.hbond>
-1.0000

> <Gold.PLP.part.metal>
0.0000

> <Gold.PLP.part.buried>
-3.6786

> <Gold.PLP.part.nonpolar>
-32.0382

> <Gold.PLP.part.repulsive>
0.0000

> <Gold.PLP.ligand.clash>
0.0000

> <Gold.PLP.ligand.torsion>
0.2296

> <Gold.PLP.Chemscore.Hbond>
2.0000

> <Gold.PLP.Chemscore.CHOScore>
0.0000

> <Gold.PLP.Chemscore.Metal>
0.0000

> <Gold.Chemscore.Hbonds>
donor molecule, donor type, donor heavy atom, donor atom, acceptor molecule, acceptor atom, score
      L1  H    10    45       P1  7948  2.00

> <Gold.PLP.Chemscore.Internal.Correction>
0.0270

> <Gold.Rescore>
     Score         DG    S(hbond)    S(metal)    S(lipo)     H(rot)  DE(clash)    DE(int)     intcor
     16.76     -17.20       0.99        0.00     101.42       1.35       0.10       0.34       ----

> <Gold.Chemscore.Fitness>
16.7583

> <Gold.Chemscore.DG>
-17.1987

> <Gold.Chemscore.ZeroCoef>
-5.4800

> <Gold.Chemscore.Hbond>
0.9880

> <Gold.Chemscore.Metal>
0.0000

> <Gold.Chemscore.Lipo>
101.4177

> <Gold.Chemscore.Internal_Hbond>
0.0000

> <Gold.Chemscore.DEClash>
0.1027

> <Gold.Chemscore.DEInternal>
0.3377

> <Gold.Chemscore.Rot>
1.3465

> <Gold.Chemscore.Internal.Correction>
   9.000000E+99

> <Gold.Chemscore.Hbonds>
donor molecule, donor type, donor heavy atom, donor atom, acceptor molecule, acceptor atom, score
      L1  H    10    45       P1  7948  0.98

> <Gold.Chemscore.Hbond.Weighted>
-3.2998

> <Gold.Chemscore.Metal.Weighted>
-0.0000

> <Gold.Chemscore.Lipo.Weighted>
-11.8659

> <Gold.Chemscore.Internal_Hbond.Weighted>
0.0000

> <Gold.Chemscore.DEClash.Weighted>
0.1027

> <Gold.Chemscore.DEInternal.Weighted>
0.3377

> <Gold.Chemscore.Rot.Weighted>
3.4470

> <Gold.Chemscore.Internal.Correction.Weighted>
   9.000000E+99

> <Gold.Protein.RotatedTorsions>
[ 6907 6896 6895 6894 ] final   92.56 input  -60.11 | X-H torsion
[ 7974 7965 7964 7962 ] final   71.27 input  175.53 | X-H torsion
[ 8008 7997 7996 7995 ] final   48.31 input   59.86 | X-H torsion
[ 10167 10162 10161 10158 ] final  106.53 input  -65.29 | X-H torsion
[ 10718 10713 10712 10709 ] final   89.48 input   66.30 | X-H torsion
[ 10763 10752 10751 10750 ] final -148.15 input  -60.55 | X-H torsion
[ 11005 11000 10999 10996 ] final -139.77 input  -57.11 | X-H torsion

> <Gold.Protein.ActiveResidues>
 VAL166  LYS551  ARG553  GLY616  TRP617  ASP618  TYR619  PRO620  LYS621  CYS622 
 ASP623  PHE694  ASN695  SER759  ASP760  ASP761  ALA762  ILE779  LEU786  VAL792 
 PHE793  MET794  SER795  GLU796  ALA797  LYS798  CYS799  TRP800  GLU811  SER814 

> <Gold.Protein.RotatedAtoms>
  152.5452  134.1483  159.8507 H   0  0  0  0  0  0  0  0  0  0  0  0  # atno 6907 bound_to 6896
  151.1512  133.4899  159.2602 H   0  0  0  0  0  0  0  0  0  0  0  0  # atno 6908 bound_to 6896
  151.1470  135.0219  159.8706 H   0  0  0  0  0  0  0  0  0  0  0  0  # atno 6909 bound_to 6896
  145.7678  139.2829  143.1338 H   0  0  0  0  0  0  0  0  0  0  0  0  # atno 7974 bound_to 7965
  155.3835  140.3430  155.4248 H   0  0  0  0  0  0  0  0  0  0  0  0  # atno 8008 bound_to 7997
  156.1597  140.1597  156.8666 H   0  0  0  0  0  0  0  0  0  0  0  0  # atno 8009 bound_to 7997
  154.5128  140.0786  156.8005 H   0  0  0  0  0  0  0  0  0  0  0  0  # atno 8010 bound_to 7997
  139.7002  144.7095  151.1199 H   0  0  0  0  0  0  0  0  0  0  0  0  # atno 10167 bound_to 10162
  157.6955  131.0335  150.3433 H   0  0  0  0  0  0  0  0  0  0  0  0  # atno 10718 bound_to 10713
  154.8248  135.3342  154.6930 H   0  0  0  0  0  0  0  0  0  0  0  0  # atno 10763 bound_to 10752
  153.7557  135.6936  153.4940 H   0  0  0  0  0  0  0  0  0  0  0  0  # atno 10764 bound_to 10752
  153.2145  135.4470  155.0368 H   0  0  0  0  0  0  0  0  0  0  0  0  # atno 10765 bound_to 10752
  140.8487  134.2312  157.4772 H   0  0  0  0  0  0  0  0  0  0  0  0  # atno 11005 bound_to 11000
  146.0200  140.8357  142.9928 LP  0  0  0  0  0  0  0  0  0  0  0  0  # atno 17320 bound_to 7965
  144.6818  140.2614  143.7318 LP  0  0  0  0  0  0  0  0  0  0  0  0  # atno 17321 bound_to 7965
  140.7707  143.5435  150.9285 LP  0  0  0  0  0  0  0  0  0  0  0  0  # atno 17342 bound_to 10162
  139.9116  143.6713  152.3114 LP  0  0  0  0  0  0  0  0  0  0  0  0  # atno 17343 bound_to 10162
  156.3891  130.3894  149.7044 LP  0  0  0  0  0  0  0  0  0  0  0  0  # atno 17370 bound_to 10713
  156.4400  130.7856  151.2877 LP  0  0  0  0  0  0  0  0  0  0  0  0  # atno 17371 bound_to 10713
  139.8704  134.9672  156.4590 LP  0  0  0  0  0  0  0  0  0  0  0  0  # atno 17394 bound_to 11000
  140.8814  133.7915  155.9471 LP  0  0  0  0  0  0  0  0  0  0  0  0  # atno 17395 bound_to 11000

$$$$
