AV-unprocessed.smi:3341|AV-procd|sdf|12885|dock9
  -GOLD-   2272019293D 1   1.00000     0.00000
 Structure written by MMmdl.
 46 47  0  0  0  0  0  0  0  0  2 V2000
  136.5579  137.2512  154.7841 C   0  0  0  0  0  0  0  0  0  0  0  0
  137.4209  138.3381  154.1324 C   0  0  0  0  0  0  0  0  0  0  0  0
  138.7855  137.8920  153.9303 N   0  0  0  0  0  0  0  0  0  0  0  0
  139.8335  138.5835  153.3556 C   0  0  0  0  0  0  0  0  0  0  0  0
  140.9038  137.7354  153.4000 C   0  0  0  0  0  0  0  0  0  0  0  0
  142.2303  137.9353  152.9408 N   0  0  0  0  0  0  0  0  0  0  0  0
  143.2509  137.0641  152.9918 C   0  0  0  0  0  0  0  0  0  0  0  0
  143.1857  135.9203  153.4425 O   0  0  0  0  0  0  0  0  0  0  0  0
  144.3704  137.5929  152.4784 N   0  0  0  0  0  0  0  0  0  0  0  0
  145.6542  136.9069  152.3892 C   0  0  0  0  0  0  0  0  0  0  0  0
  145.7473  136.0445  151.1155 C   0  0  0  0  0  0  0  0  0  0  0  0
  145.3798  134.6273  151.3622 N   0  3  1  0  0  0  0  0  0  0  0  0
  143.9348  134.3735  151.1269 C   0  0  0  0  0  0  0  0  0  0  0  0
  143.5483  132.9437  151.5362 C   0  0  0  0  0  0  0  0  0  0  0  0
  144.4144  131.9076  150.8065 C   0  0  0  0  0  0  0  0  0  0  0  0
  145.9140  132.2006  150.9965 C   0  0  2  0  0  0  0  0  0  0  0  0
  146.4187  131.8437  152.4058 C   0  0  0  0  0  0  0  0  0  0  0  0
  146.2324  133.6615  150.6160 C   0  0  0  0  0  0  0  0  0  0  0  0
  140.4308  136.5468  154.0144 C   0  0  0  0  0  0  0  0  0  0  0  0
  139.1497  136.6495  154.3337 N   0  0  0  0  0  0  0  0  0  0  0  0
  135.5383  137.6054  154.9365 H   0  0  0  0  0  0  0  0  0  0  0  0
  136.9585  136.9611  155.7559 H   0  0  0  0  0  0  0  0  0  0  0  0
  136.5098  136.3579  154.1606 H   0  0  0  0  0  0  0  0  0  0  0  0
  137.0002  138.6310  153.1694 H   0  0  0  0  0  0  0  0  0  0  0  0
  137.4352  139.2321  154.7569 H   0  0  0  0  0  0  0  0  0  0  0  0
  139.7185  139.5888  152.9781 H   0  0  0  0  0  0  0  0  0  0  0  0
  142.4208  138.8385  152.5320 H   0  0  0  0  0  0  0  0  0  0  0  0
  144.3335  138.5406  152.1317 H   0  0  0  0  0  0  0  0  0  0  0  0
  146.4284  137.6727  152.4002 H   0  0  0  0  0  0  0  0  0  0  0  0
  145.8118  136.2937  153.2783 H   0  0  0  0  0  0  0  0  0  0  0  0
  145.0678  136.4614  150.3708 H   0  0  0  0  0  0  0  0  0  0  0  0
  146.7469  136.0976  150.6815 H   0  0  0  0  0  0  0  0  0  0  0  0
  143.3354  135.0802  151.7020 H   0  0  0  0  0  0  0  0  0  0  0  0
  143.7014  134.5419  150.0742 H   0  0  0  0  0  0  0  0  0  0  0  0
  143.6563  132.8275  152.6151 H   0  0  0  0  0  0  0  0  0  0  0  0
  142.4952  132.7668  151.3151 H   0  0  0  0  0  0  0  0  0  0  0  0
  144.1728  130.9012  151.1500 H   0  0  0  0  0  0  0  0  0  0  0  0
  144.1764  131.9316  149.7420 H   0  0  0  0  0  0  0  0  0  0  0  0
  146.4592  131.5570  150.3046 H   0  0  0  0  0  0  0  0  0  0  0  0
  145.9476  132.4550  153.1754 H   0  0  0  0  0  0  0  0  0  0  0  0
  147.4963  131.9916  152.4838 H   0  0  0  0  0  0  0  0  0  0  0  0
  146.2153  130.7987  152.6417 H   0  0  0  0  0  0  0  0  0  0  0  0
  146.0755  133.8046  149.5456 H   0  0  0  0  0  0  0  0  0  0  0  0
  147.2883  133.8563  150.8001 H   0  0  0  0  0  0  0  0  0  0  0  0
  140.9621  135.6328  154.2348 H   0  0  0  0  0  0  0  0  0  0  0  0
  145.5356  134.4599  152.3461 H   0  0  0  0  0  0  0  0  0  0  0  0
  1  2  1  0  0  0  0
  1 21  1  0  0  0  0
  1 22  1  0  0  0  0
  1 23  1  0  0  0  0
  2  3  1  0  0  0  0
  2 24  1  0  0  0  0
  2 25  1  0  0  0  0
  3 20  1  0  0  0  0
  3  4  1  0  0  0  0
  4  5  2  0  0  0  0
  4 26  1  0  0  0  0
  5  6  1  0  0  0  0
  5 19  1  0  0  0  0
  6  7  1  0  0  0  0
  6 27  1  0  0  0  0
  7  8  2  0  0  0  0
  7  9  1  0  0  0  0
  9 10  1  0  0  0  0
  9 28  1  0  0  0  0
 10 11  1  0  0  0  0
 10 29  1  0  0  0  0
 10 30  1  0  0  0  0
 11 12  1  0  0  0  0
 11 31  1  0  0  0  0
 11 32  1  0  0  0  0
 12 18  1  0  0  0  0
 12 13  1  0  0  0  0
 12 46  1  0  0  0  0
 13 14  1  0  0  0  0
 13 33  1  0  0  0  0
 13 34  1  0  0  0  0
 14 15  1  0  0  0  0
 14 35  1  0  0  0  0
 14 36  1  0  0  0  0
 15 16  1  0  0  0  0
 15 37  1  0  0  0  0
 15 38  1  0  0  0  0
 16 17  1  0  0  0  0
 16 18  1  0  0  0  0
 16 39  1  0  0  0  0
 17 40  1  0  0  0  0
 17 41  1  0  0  0  0
 17 42  1  0  0  0  0
 18 43  1  0  0  0  0
 18 44  1  0  0  0  0
 19 20  2  0  0  0  0
 19 45  1  0  0  0  0
M  CHG  1  12   1
M  END
> <s_m_source_file>
AV-unprocessed.smi

> <i_m_source_file_index>
3341

> <i_lp_mmshare_version>
43012

> <i_f3d_flags>
0

> <s_epik_input>
W0NIM11bQ0gyXW4xW2NIXWMoW2NIXW4xKVtOSF1DKD1PKVtOSF1bQ0gyXVtDSDJdTjJbQ0gyXVtDSDJdW0NIMl1bQ0BASF0oW0NIM10pW0NIMl0y

> <s_epik_cmdline>
J2VwaWtfcHl0aG9uJywgJy1waCcsICc3LjAnLCAnLXRuJywgJzgnLCAnLW1hJywgJzIwMCcsICctbWV0YWxfYmluZGluZycsICctaW1hZScsICc8aW5maWxlLm1hZT4nLCAnLW9tYWUnLCAnPG91dGZpbGUubWFlPic=

> <r_lp_tautomer_probability>
1

> <r_epik_Ionization_Penalty>
0.00203389

> <r_epik_Ionization_Penalty_Charging>
0.00188267

> <r_epik_Ionization_Penalty_Neutral>
0.000151224

> <r_epik_State_Penalty>
0.0012808

> <r_epik_Charging_Adjusted_Penalty>
0.00316346

> <i_epik_Tot_Q>
1

> <i_epik_Tot_abs_Q>
1

> <r_epik_Metal_State_Penalty>
-0

> <b_epik_Metal_Only>
0

> <s_lp_Force_Field>
OPLS_2005

> <r_lp_Energy>
23.1635

> <b_lp_Chiralities_Consistent>
1

> <s_lp_Variant>
AV-unprocessed.smi:3341-3

> <Gold.Version>
5.8.1

> <Gold.Id.Protein>
6NUR|6NUR_protein|mol2

> <Gold.PLP.Fitness>
46.1549

> <Gold.PLP.PLP>
-39.2486

> <Gold.PLP.part.hbond>
-3.0000

> <Gold.PLP.part.metal>
0.0000

> <Gold.PLP.part.buried>
-5.8871

> <Gold.PLP.part.nonpolar>
-31.3164

> <Gold.PLP.part.repulsive>
0.2926

> <Gold.PLP.ligand.clash>
0.0000

> <Gold.PLP.ligand.torsion>
0.8910

> <Gold.PLP.Chemscore.Hbond>
1.9280

> <Gold.PLP.Chemscore.CHOScore>
0.9583

> <Gold.PLP.Chemscore.Metal>
0.0000

> <Gold.Chemscore.Hbonds>
donor molecule, donor type, donor heavy atom, donor atom, acceptor molecule, acceptor atom, score
      L1  H     6    27       P1 10175  0.98
      L1  H     9    28       P1 10175  0.90
      L1  C     4    26       P1 10160  0.98

> <Gold.PLP.Chemscore.Internal.Correction>
0.0294

> <Gold.Rescore>
     Score         DG    S(hbond)    S(metal)    S(lipo)     H(rot)  DE(clash)    DE(int)     intcor
     16.41     -18.93       1.92        0.00      94.85       1.59       0.14       2.38       ----

> <Gold.Chemscore.Fitness>
16.4050

> <Gold.Chemscore.DG>
-18.9272

> <Gold.Chemscore.ZeroCoef>
-5.4800

> <Gold.Chemscore.Hbond>
1.9228

> <Gold.Chemscore.Metal>
0.0000

> <Gold.Chemscore.Lipo>
94.8521

> <Gold.Chemscore.Internal_Hbond>
0.0000

> <Gold.Chemscore.DEClash>
0.1448

> <Gold.Chemscore.DEInternal>
2.3773

> <Gold.Chemscore.Rot>
1.5909

> <Gold.Chemscore.Internal.Correction>
   9.000000E+99

> <Gold.Chemscore.Hbonds>
donor molecule, donor type, donor heavy atom, donor atom, acceptor molecule, acceptor atom, score
      L1  H     6    27       P1 10175  0.88
      L1  H     9    28       P1 10175  0.84

> <Gold.Chemscore.Hbond.Weighted>
-6.4223

> <Gold.Chemscore.Metal.Weighted>
-0.0000

> <Gold.Chemscore.Lipo.Weighted>
-11.0977

> <Gold.Chemscore.Internal_Hbond.Weighted>
0.0000

> <Gold.Chemscore.DEClash.Weighted>
0.1448

> <Gold.Chemscore.DEInternal.Weighted>
2.3773

> <Gold.Chemscore.Rot.Weighted>
4.0728

> <Gold.Chemscore.Internal.Correction.Weighted>
   9.000000E+99

> <Gold.Protein.RotatedTorsions>
[ 6907 6896 6895 6894 ] final  -92.31 input  -60.11 | X-H torsion
[ 7974 7965 7964 7962 ] final  -76.18 input  175.53 | X-H torsion
[ 8008 7997 7996 7995 ] final  -24.02 input   59.86 | X-H torsion
[ 10167 10162 10161 10158 ] final  159.42 input  -65.29 | X-H torsion
[ 10718 10713 10712 10709 ] final -166.75 input   66.30 | X-H torsion
[ 10763 10752 10751 10750 ] final   74.04 input  -60.55 | X-H torsion
[ 11005 11000 10999 10996 ] final   65.81 input  -57.11 | X-H torsion

> <Gold.Protein.ActiveResidues>
 VAL166  LYS551  ARG553  GLY616  TRP617  ASP618  TYR619  PRO620  LYS621  CYS622 
 ASP623  PHE694  ASN695  SER759  ASP760  ASP761  ALA762  ILE779  LEU786  VAL792 
 PHE793  MET794  SER795  GLU796  ALA797  LYS798  CYS799  TRP800  GLU811  SER814 

> <Gold.Protein.RotatedAtoms>
  150.6904  134.2141  159.4370 H   0  0  0  0  0  0  0  0  0  0  0  0  # atno 6907 bound_to 6896
  152.0101  134.9878  160.0577 H   0  0  0  0  0  0  0  0  0  0  0  0  # atno 6908 bound_to 6896
  152.1496  133.4479  159.4844 H   0  0  0  0  0  0  0  0  0  0  0  0  # atno 6909 bound_to 6896
  145.6162  140.9374  143.1162 H   0  0  0  0  0  0  0  0  0  0  0  0  # atno 7974 bound_to 7965
  154.4552  140.1965  156.0399 H   0  0  0  0  0  0  0  0  0  0  0  0  # atno 8008 bound_to 7997
  156.0732  140.3281  155.7573 H   0  0  0  0  0  0  0  0  0  0  0  0  # atno 8009 bound_to 7997
  155.5230  140.0571  157.2894 H   0  0  0  0  0  0  0  0  0  0  0  0  # atno 8010 bound_to 7997
  139.4832  144.4732  151.8548 H   0  0  0  0  0  0  0  0  0  0  0  0  # atno 10167 bound_to 10162
  156.6723  130.9089  151.3045 H   0  0  0  0  0  0  0  0  0  0  0  0  # atno 10718 bound_to 10713
  153.0560  135.5040  154.7983 H   0  0  0  0  0  0  0  0  0  0  0  0  # atno 10763 bound_to 10752
  154.6808  135.2968  154.9618 H   0  0  0  0  0  0  0  0  0  0  0  0  # atno 10764 bound_to 10752
  154.0405  135.6717  153.4842 H   0  0  0  0  0  0  0  0  0  0  0  0  # atno 10765 bound_to 10752
  139.9871  134.6651  156.0157 H   0  0  0  0  0  0  0  0  0  0  0  0  # atno 11005 bound_to 11000
  144.7249  139.7907  143.7368 LP  0  0  0  0  0  0  0  0  0  0  0  0  # atno 17320 bound_to 7965
  146.1466  139.4537  143.0075 LP  0  0  0  0  0  0  0  0  0  0  0  0  # atno 17321 bound_to 7965
  140.4202  144.2253  150.5887 LP  0  0  0  0  0  0  0  0  0  0  0  0  # atno 17342 bound_to 10162
  140.4881  143.2356  151.8858 LP  0  0  0  0  0  0  0  0  0  0  0  0  # atno 17343 bound_to 10162
  157.7073  130.9399  150.0971 LP  0  0  0  0  0  0  0  0  0  0  0  0  # atno 17370 bound_to 10713
  156.1929  130.3655  149.8886 LP  0  0  0  0  0  0  0  0  0  0  0  0  # atno 17371 bound_to 10713
  141.1534  133.6545  156.4084 LP  0  0  0  0  0  0  0  0  0  0  0  0  # atno 17394 bound_to 11000
  140.4981  134.6511  157.5238 LP  0  0  0  0  0  0  0  0  0  0  0  0  # atno 17395 bound_to 11000

$$$$
