AV-unprocessed.smi:390|AV-procd|sdf|2478|dock8
  -GOLD-   2262022423D 1   1.00000     0.00000
 Structure written by MMmdl.
 31 32  0  0  0  0  0  0  0  0  1 V2000
  149.4469  141.7016  154.3418 N   0  0  0  0  0  0  0  0  0  0  0  0
  149.9849  141.7326  155.3659 C   0  0  0  0  0  0  0  0  0  0  0  0
  150.6447  141.8020  156.6274 C   0  0  0  0  0  0  0  0  0  0  0  0
  150.9987  142.9821  157.1807 C   0  0  0  0  0  0  0  0  0  0  0  0
  151.6330  143.0759  158.4026 N   0  0  0  0  0  0  0  0  0  0  0  0
  152.1397  144.3285  158.8871 C   0  0  0  0  0  0  0  0  0  0  0  0
  151.8983  144.7481  160.3241 C   0  0  0  0  0  0  0  0  0  0  0  0
  151.1642  145.4414  159.2023 C   0  0  0  0  0  0  0  0  0  0  0  0
  152.0126  141.9071  159.0982 C   0  0  0  0  0  0  0  0  0  0  0  0
  152.6734  141.9663  160.1387 O   0  0  0  0  0  0  0  0  0  0  0  0
  151.6161  140.6697  158.5347 N   0  0  0  0  0  0  0  0  0  0  0  0
  151.9894  139.4507  159.2396 C   0  0  0  0  0  0  0  0  0  0  0  0
  152.7703  138.4363  158.3885 C   0  0  0  0  0  0  0  0  0  0  0  0
  153.9780  138.5897  158.1870 O   0  0  0  0  0  0  0  0  0  0  0  0
  152.0319  137.4140  157.9112 N   0  0  0  0  0  0  0  0  0  0  0  0
  152.4513  136.3887  157.1446 C   0  0  0  0  0  0  0  0  0  0  0  0
  151.4539  135.5523  156.8518 N   0  0  0  0  0  0  0  0  0  0  0  0
  153.5998  136.2051  156.7408 O   0  0  0  0  0  0  0  0  0  0  0  0
  150.9330  140.5364  157.2986 C   0  0  0  0  0  0  0  0  0  0  0  0
  150.6320  139.4341  156.8364 O   0  0  0  0  0  0  0  0  0  0  0  0
  150.7739  143.8947  156.6475 H   0  0  0  0  0  0  0  0  0  0  0  0
  153.0905  144.6399  158.4581 H   0  0  0  0  0  0  0  0  0  0  0  0
  151.3168  144.0864  160.9636 H   0  0  0  0  0  0  0  0  0  0  0  0
  152.6910  145.3005  160.8246 H   0  0  0  0  0  0  0  0  0  0  0  0
  151.4659  146.4575  158.9567 H   0  0  0  0  0  0  0  0  0  0  0  0
  150.1003  145.2348  159.1023 H   0  0  0  0  0  0  0  0  0  0  0  0
  152.5658  139.7357  160.1212 H   0  0  0  0  0  0  0  0  0  0  0  0
  151.0771  139.0016  159.6355 H   0  0  0  0  0  0  0  0  0  0  0  0
  151.0534  137.4203  158.1577 H   0  0  0  0  0  0  0  0  0  0  0  0
  151.6216  134.7364  156.2820 H   0  0  0  0  0  0  0  0  0  0  0  0
  150.5273  135.7425  157.2056 H   0  0  0  0  0  0  0  0  0  0  0  0
  1  2  3  0  0  0  0
  2  3  1  0  0  0  0
  3 19  1  0  0  0  0
  3  4  2  0  0  0  0
  4  5  1  0  0  0  0
  4 21  1  0  0  0  0
  5  6  1  0  0  0  0
  5  9  1  0  0  0  0
  6  8  1  0  0  0  0
  6  7  1  0  0  0  0
  6 22  1  0  0  0  0
  7  8  1  0  0  0  0
  7 23  1  0  0  0  0
  7 24  1  0  0  0  0
  8 25  1  0  0  0  0
  8 26  1  0  0  0  0
  9 10  2  0  0  0  0
  9 11  1  0  0  0  0
 11 12  1  0  0  0  0
 11 19  1  0  0  0  0
 12 13  1  0  0  0  0
 12 27  1  0  0  0  0
 12 28  1  0  0  0  0
 13 14  2  0  0  0  0
 13 15  1  0  0  0  0
 15 16  1  0  0  0  0
 15 29  1  0  0  0  0
 16 17  1  0  0  0  0
 16 18  2  0  0  0  0
 17 30  1  0  0  0  0
 17 31  1  0  0  0  0
 19 20  2  0  0  0  0
M  END
> <s_m_source_file>
AV-unprocessed.smi

> <i_m_source_file_index>
390

> <i_lp_mmshare_version>
43012

> <i_f3d_flags>
0

> <s_epik_input>
TiNDYzFbY0hdbihbQ0hdMltDSDJdW0NIMl0yKWMoPU8pbihjMT1PKVtDSDJdQyg9TylbTkhdQyg9TylbTkgyXQ==

> <s_epik_cmdline>
J2VwaWtfcHl0aG9uJywgJy1waCcsICc3LjAnLCAnLXRuJywgJzgnLCAnLW1hJywgJzIwMCcsICctbWV0YWxfYmluZGluZycsICctaW1hZScsICc8aW5maWxlLm1hZT4nLCAnLW9tYWUnLCAnPG91dGZpbGUubWFlPic=

> <r_lp_tautomer_probability>
1

> <r_epik_Ionization_Penalty>
3.12406e-05

> <r_epik_Ionization_Penalty_Charging>
4.21484e-11

> <r_epik_Ionization_Penalty_Neutral>
3.12406e-05

> <r_epik_State_Penalty>
-0

> <r_epik_Charging_Adjusted_Penalty>
4.21484e-11

> <i_epik_Tot_Q>
0

> <i_epik_Tot_abs_Q>
0

> <r_epik_Metal_State_Penalty>
-0

> <b_epik_Metal_Only>
0

> <s_lp_Force_Field>
OPLS_2005

> <r_lp_Energy>
30.8642

> <b_lp_Chiralities_Consistent>
1

> <s_lp_Variant>
AV-unprocessed.smi:390-1

> <Gold.Version>
5.8.1

> <Gold.Id.Protein>
6NUR|6NUR_protein|mol2

> <Gold.PLP.Fitness>
44.5818

> <Gold.PLP.PLP>
-35.3830

> <Gold.PLP.part.hbond>
-4.0000

> <Gold.PLP.part.metal>
0.0000

> <Gold.PLP.part.buried>
-2.5807

> <Gold.PLP.part.nonpolar>
-28.8725

> <Gold.PLP.part.repulsive>
0.4764

> <Gold.PLP.ligand.clash>
0.0000

> <Gold.PLP.ligand.torsion>
0.4489

> <Gold.PLP.Chemscore.Hbond>
2.2942

> <Gold.PLP.Chemscore.CHOScore>
1.0000

> <Gold.PLP.Chemscore.Metal>
0.0000

> <Gold.Chemscore.Hbonds>
donor molecule, donor type, donor heavy atom, donor atom, acceptor molecule, acceptor atom, score
      P1  H  7997  8009       L1    14  1.00
      P1  H  8011  8017       L1     1  0.35
      P1  H 10752 10763       L1    18  0.93
      L1  C     4    21       P1  8028  1.00

> <Gold.PLP.Chemscore.Internal.Correction>
0.2139

> <Gold.Rescore>
     Score         DG    S(hbond)    S(metal)    S(lipo)     H(rot)  DE(clash)    DE(int)     intcor
      9.83     -14.69       2.22        0.00      61.06       2.09       0.14       4.71       ----

> <Gold.Chemscore.Fitness>
9.8304

> <Gold.Chemscore.DG>
-14.6860

> <Gold.Chemscore.ZeroCoef>
-5.4800

> <Gold.Chemscore.Hbond>
2.2204

> <Gold.Chemscore.Metal>
0.0000

> <Gold.Chemscore.Lipo>
61.0551

> <Gold.Chemscore.Internal_Hbond>
0.0000

> <Gold.Chemscore.DEClash>
0.1425

> <Gold.Chemscore.DEInternal>
4.7130

> <Gold.Chemscore.Rot>
2.0913

> <Gold.Chemscore.Internal.Correction>
   9.000000E+99

> <Gold.Chemscore.Hbonds>
donor molecule, donor type, donor heavy atom, donor atom, acceptor molecule, acceptor atom, score
      P1  H  7997  8009       L1    14  0.99
      P1  H  8011  8017       L1     1  0.34
      P1  H 10752 10763       L1    18  0.89

> <Gold.Chemscore.Hbond.Weighted>
-7.4162

> <Gold.Chemscore.Metal.Weighted>
-0.0000

> <Gold.Chemscore.Lipo.Weighted>
-7.1434

> <Gold.Chemscore.Internal_Hbond.Weighted>
0.0000

> <Gold.Chemscore.DEClash.Weighted>
0.1425

> <Gold.Chemscore.DEInternal.Weighted>
4.7130

> <Gold.Chemscore.Rot.Weighted>
5.3537

> <Gold.Chemscore.Internal.Correction.Weighted>
   9.000000E+99

> <Gold.Protein.RotatedTorsions>
[ 6907 6896 6895 6894 ] final  -48.24 input  -60.11 | X-H torsion
[ 7974 7965 7964 7962 ] final   88.61 input  175.53 | X-H torsion
[ 8008 7997 7996 7995 ] final  142.81 input   59.86 | X-H torsion
[ 10167 10162 10161 10158 ] final   80.89 input  -65.29 | X-H torsion
[ 10718 10713 10712 10709 ] final  -53.58 input   66.30 | X-H torsion
[ 10763 10752 10751 10750 ] final  146.75 input  -60.55 | X-H torsion
[ 11005 11000 10999 10996 ] final    5.31 input  -57.11 | X-H torsion

> <Gold.Protein.ActiveResidues>
 VAL166  LYS551  ARG553  GLY616  TRP617  ASP618  TYR619  PRO620  LYS621  CYS622 
 ASP623  PHE694  ASN695  SER759  ASP760  ASP761  ALA762  ILE779  LEU786  VAL792 
 PHE793  MET794  SER795  GLU796  ALA797  LYS798  CYS799  TRP800  GLU811  SER814 

> <Gold.Protein.RotatedAtoms>
  150.8926  134.8331  159.7303 H   0  0  0  0  0  0  0  0  0  0  0  0  # atno 6907 bound_to 6896
  152.4846  134.4625  159.9619 H   0  0  0  0  0  0  0  0  0  0  0  0  # atno 6908 bound_to 6896
  151.4686  133.3536  159.2855 H   0  0  0  0  0  0  0  0  0  0  0  0  # atno 6909 bound_to 6896
  145.5433  139.2290  143.2553 H   0  0  0  0  0  0  0  0  0  0  0  0  # atno 7974 bound_to 7965
  156.2942  140.2279  156.4788 H   0  0  0  0  0  0  0  0  0  0  0  0  # atno 8008 bound_to 7997
  154.7871  140.0456  157.1193 H   0  0  0  0  0  0  0  0  0  0  0  0  # atno 8009 bound_to 7997
  154.9689  140.3064  155.5000 H   0  0  0  0  0  0  0  0  0  0  0  0  # atno 8010 bound_to 7997
  139.9450  144.6064  150.8215 H   0  0  0  0  0  0  0  0  0  0  0  0  # atno 10167 bound_to 10162
  156.1523  130.4151  149.9925 H   0  0  0  0  0  0  0  0  0  0  0  0  # atno 10718 bound_to 10713
  154.0269  135.2901  155.3373 H   0  0  0  0  0  0  0  0  0  0  0  0  # atno 10763 bound_to 10752
  154.7012  135.5188  153.8532 H   0  0  0  0  0  0  0  0  0  0  0  0  # atno 10764 bound_to 10752
  153.0656  135.6630  154.0486 H   0  0  0  0  0  0  0  0  0  0  0  0  # atno 10765 bound_to 10752
  140.5722  134.0092  155.8013 H   0  0  0  0  0  0  0  0  0  0  0  0  # atno 11005 bound_to 11000
  146.1966  140.6254  142.9121 LP  0  0  0  0  0  0  0  0  0  0  0  0  # atno 17320 bound_to 7965
  144.7566  140.5321  143.6765 LP  0  0  0  0  0  0  0  0  0  0  0  0  # atno 17321 bound_to 7965
  140.7600  143.3141  151.2775 LP  0  0  0  0  0  0  0  0  0  0  0  0  # atno 17342 bound_to 10162
  139.6674  144.0080  152.2732 LP  0  0  0  0  0  0  0  0  0  0  0  0  # atno 17343 bound_to 10162
  156.7779  130.9210  151.3645 LP  0  0  0  0  0  0  0  0  0  0  0  0  # atno 17370 bound_to 10713
  157.6667  130.9014  149.9948 LP  0  0  0  0  0  0  0  0  0  0  0  0  # atno 17371 bound_to 10713
  141.1049  133.9709  157.3014 LP  0  0  0  0  0  0  0  0  0  0  0  0  # atno 17394 bound_to 11000
  139.9356  135.0196  156.8546 LP  0  0  0  0  0  0  0  0  0  0  0  0  # atno 17395 bound_to 11000

$$$$
