AV-unprocessed.smi:1430|AV-procd|sdf|5827|dock9
  -GOLD-   22720 5483D 1   1.00000     0.00000
 Structure written by MMmdl.
 47 48  0  0  0  0  0  0  0  0  2 V2000
  153.1479  142.0648  161.7691 C   0  0  0  0  0  0  0  0  0  0  0  0
  153.0847  143.2084  160.9244 O   0  0  0  0  0  0  0  0  0  0  0  0
  152.3989  143.1051  159.7316 C   0  0  0  0  0  0  0  0  0  0  0  0
  152.3158  144.2405  158.9016 C   0  0  0  0  0  0  0  0  0  0  0  0
  151.6179  144.1445  157.6825 C   0  0  0  0  0  0  0  0  0  0  0  0
  151.0286  142.9077  157.3265 C   0  0  0  0  0  0  0  0  0  0  0  0
  150.2843  142.6850  156.1360 N   0  0  0  0  0  0  0  0  0  0  0  0
  149.9821  141.5185  155.5413 C   0  0  0  0  0  0  0  0  0  0  0  0
  150.2758  140.4023  155.9669 O   0  0  0  0  0  0  0  0  0  0  0  0
  149.3013  141.7165  154.4036 N   0  0  0  0  0  0  0  0  0  0  0  0
  148.8117  140.6629  153.5160 C   0  0  0  0  0  0  0  0  0  0  0  0
  147.3614  140.8854  153.0303 C   0  0  0  0  0  0  0  0  0  0  0  0
  146.5254  139.6611  153.1060 N   0  3  1  0  0  0  0  0  0  0  0  0
  146.7320  138.7485  151.9595 C   0  0  0  0  0  0  0  0  0  0  0  0
  145.7359  137.5771  152.0277 C   0  0  1  0  0  0  0  0  0  0  0  0
  145.9710  136.5572  150.9083 C   0  0  0  0  0  0  0  0  0  0  0  0
  145.8788  136.9027  153.2758 O   0  0  0  0  0  0  0  0  0  0  0  0
  145.6982  137.7243  154.4302 C   0  0  2  0  0  0  0  0  0  0  0  0
  144.2276  138.1311  154.6338 C   0  0  0  0  0  0  0  0  0  0  0  0
  146.6632  138.9245  154.3846 C   0  0  0  0  0  0  0  0  0  0  0  0
  151.1584  141.8356  158.2336 C   0  0  0  0  0  0  0  0  0  0  0  0
  151.8257  141.9208  159.4034 N   0  0  0  0  0  0  0  0  0  0  0  0
  153.7201  142.3086  162.6641 H   0  0  0  0  0  0  0  0  0  0  0  0
  153.6475  141.2308  161.2743 H   0  0  0  0  0  0  0  0  0  0  0  0
  152.1538  141.7492  162.0887 H   0  0  0  0  0  0  0  0  0  0  0  0
  152.7768  145.1713  159.1971 H   0  0  0  0  0  0  0  0  0  0  0  0
  151.5394  145.0213  157.0593 H   0  0  0  0  0  0  0  0  0  0  0  0
  149.8989  143.5148  155.7090 H   0  0  0  0  0  0  0  0  0  0  0  0
  149.0902  142.6675  154.1379 H   0  0  0  0  0  0  0  0  0  0  0  0
  149.4820  140.5598  152.6613 H   0  0  0  0  0  0  0  0  0  0  0  0
  148.8753  139.7218  154.0622 H   0  0  0  0  0  0  0  0  0  0  0  0
  146.9091  141.6539  153.6584 H   0  0  0  0  0  0  0  0  0  0  0  0
  147.3545  141.2850  152.0152 H   0  0  0  0  0  0  0  0  0  0  0  0
  146.5908  139.2927  151.0247 H   0  0  0  0  0  0  0  0  0  0  0  0
  147.7593  138.3800  151.9653 H   0  0  0  0  0  0  0  0  0  0  0  0
  144.7183  137.9565  151.9296 H   0  0  0  0  0  0  0  0  0  0  0  0
  145.8669  137.0203  149.9266 H   0  0  0  0  0  0  0  0  0  0  0  0
  145.2510  135.7405  150.9669 H   0  0  0  0  0  0  0  0  0  0  0  0
  146.9704  136.1254  150.9701 H   0  0  0  0  0  0  0  0  0  0  0  0
  145.9756  137.1079  155.2858 H   0  0  0  0  0  0  0  0  0  0  0  0
  144.0980  138.6437  155.5873 H   0  0  0  0  0  0  0  0  0  0  0  0
  143.5796  137.2545  154.6418 H   0  0  0  0  0  0  0  0  0  0  0  0
  143.8710  138.8047  153.8548 H   0  0  0  0  0  0  0  0  0  0  0  0
  147.6919  138.5746  154.4850 H   0  0  0  0  0  0  0  0  0  0  0  0
  146.4709  139.5835  155.2313 H   0  0  0  0  0  0  0  0  0  0  0  0
  150.7150  140.8752  158.0139 H   0  0  0  0  0  0  0  0  0  0  0  0
  145.5663  139.9725  153.0471 H   0  0  0  0  0  0  0  0  0  0  0  0
  1  2  1  0  0  0  0
  1 23  1  0  0  0  0
  1 24  1  0  0  0  0
  1 25  1  0  0  0  0
  2  3  1  0  0  0  0
  3 22  1  0  0  0  0
  3  4  2  0  0  0  0
  4  5  1  0  0  0  0
  4 26  1  0  0  0  0
  5  6  2  0  0  0  0
  5 27  1  0  0  0  0
  6  7  1  0  0  0  0
  6 21  1  0  0  0  0
  7  8  1  0  0  0  0
  7 28  1  0  0  0  0
  8  9  2  0  0  0  0
  8 10  1  0  0  0  0
 10 11  1  0  0  0  0
 10 29  1  0  0  0  0
 11 12  1  0  0  0  0
 11 30  1  0  0  0  0
 11 31  1  0  0  0  0
 12 13  1  0  0  0  0
 12 32  1  0  0  0  0
 12 33  1  0  0  0  0
 13 20  1  0  0  0  0
 13 14  1  0  0  0  0
 13 47  1  0  0  0  0
 14 15  1  0  0  0  0
 14 34  1  0  0  0  0
 14 35  1  0  0  0  0
 15 16  1  0  0  0  0
 15 17  1  0  0  0  0
 15 36  1  0  0  0  0
 16 37  1  0  0  0  0
 16 38  1  0  0  0  0
 16 39  1  0  0  0  0
 17 18  1  0  0  0  0
 18 19  1  0  0  0  0
 18 20  1  0  0  0  0
 18 40  1  0  0  0  0
 19 41  1  0  0  0  0
 19 42  1  0  0  0  0
 19 43  1  0  0  0  0
 20 44  1  0  0  0  0
 20 45  1  0  0  0  0
 21 22  2  0  0  0  0
 21 46  1  0  0  0  0
M  CHG  1  13   1
M  END
> <s_m_source_file>
AV-unprocessed.smi

> <i_m_source_file_index>
1430

> <i_lp_mmshare_version>
43012

> <i_f3d_flags>
0

> <s_epik_input>
W0NIM11PYzFbY0hdW2NIXWMoW2NIXW4xKVtOSF1DKD1PKVtOSF1bQ0gyXVtDSDJdTjJbQ0gyXVtDQEBIXShbQ0gzXSlPW0NAQEhdKFtDSDNdKVtDSDJdMg==

> <s_epik_cmdline>
J2VwaWtfcHl0aG9uJywgJy1waCcsICc3LjAnLCAnLXRuJywgJzgnLCAnLW1hJywgJzIwMCcsICctbWV0YWxfYmluZGluZycsICctaW1hZScsICc8aW5maWxlLm1hZT4nLCAnLW9tYWUnLCAnPG91dGZpbGUubWFlPic=

> <r_lp_tautomer_probability>
1

> <r_epik_Ionization_Penalty>
0.602607

> <r_epik_Ionization_Penalty_Charging>
0.602531

> <r_epik_Ionization_Penalty_Neutral>
7.66983e-05

> <r_epik_State_Penalty>
0.617039

> <r_epik_Charging_Adjusted_Penalty>
1.21957

> <i_epik_Tot_Q>
1

> <i_epik_Tot_abs_Q>
1

> <r_epik_Metal_State_Penalty>
0.617043

> <b_epik_Metal_Only>
0

> <s_lp_Force_Field>
OPLS_2005

> <r_lp_Energy>
27.5675

> <b_lp_Chiralities_Consistent>
1

> <s_lp_Variant>
AV-unprocessed.smi:1430-6

> <Gold.Version>
5.8.1

> <Gold.Id.Protein>
6NUR|6NUR_protein|mol2

> <Gold.PLP.Fitness>
47.7377

> <Gold.PLP.PLP>
-40.0579

> <Gold.PLP.part.hbond>
-2.1471

> <Gold.PLP.part.metal>
0.0000

> <Gold.PLP.part.buried>
-2.1117

> <Gold.PLP.part.nonpolar>
-36.8362

> <Gold.PLP.part.repulsive>
0.4993

> <Gold.PLP.ligand.clash>
0.0000

> <Gold.PLP.ligand.torsion>
0.6598

> <Gold.PLP.Chemscore.Hbond>
2.9920

> <Gold.PLP.Chemscore.CHOScore>
0.0000

> <Gold.PLP.Chemscore.Metal>
0.0000

> <Gold.Chemscore.Hbonds>
donor molecule, donor type, donor heavy atom, donor atom, acceptor molecule, acceptor atom, score
      L1  H     7    28       P1  8028  1.00
      L1  H    13    47       P1 10175  1.98

> <Gold.PLP.Chemscore.Internal.Correction>
0.0234

> <Gold.Rescore>
     Score         DG    S(hbond)    S(metal)    S(lipo)     H(rot)  DE(clash)    DE(int)     intcor
     15.49     -18.76       1.97        0.00      95.76       1.76       1.31       1.96       ----

> <Gold.Chemscore.Fitness>
15.4866

> <Gold.Chemscore.DG>
-18.7567

> <Gold.Chemscore.ZeroCoef>
-5.4800

> <Gold.Chemscore.Hbond>
1.9700

> <Gold.Chemscore.Metal>
0.0000

> <Gold.Chemscore.Lipo>
95.7619

> <Gold.Chemscore.Internal_Hbond>
0.0000

> <Gold.Chemscore.DEClash>
1.3086

> <Gold.Chemscore.DEInternal>
1.9614

> <Gold.Chemscore.Rot>
1.7606

> <Gold.Chemscore.Internal.Correction>
   9.000000E+99

> <Gold.Chemscore.Hbonds>
donor molecule, donor type, donor heavy atom, donor atom, acceptor molecule, acceptor atom, score
      L1  H     7    28       P1  8028  0.94
      L1  H    13    47       P1 10175  0.92

> <Gold.Chemscore.Hbond.Weighted>
-6.5797

> <Gold.Chemscore.Metal.Weighted>
-0.0000

> <Gold.Chemscore.Lipo.Weighted>
-11.2041

> <Gold.Chemscore.Internal_Hbond.Weighted>
0.0000

> <Gold.Chemscore.DEClash.Weighted>
1.3086

> <Gold.Chemscore.DEInternal.Weighted>
1.9614

> <Gold.Chemscore.Rot.Weighted>
4.5072

> <Gold.Chemscore.Internal.Correction.Weighted>
   9.000000E+99

> <Gold.Protein.RotatedTorsions>
[ 6907 6896 6895 6894 ] final -175.93 input  -60.11 | X-H torsion
[ 7974 7965 7964 7962 ] final -133.70 input  175.53 | X-H torsion
[ 8008 7997 7996 7995 ] final   95.15 input   59.86 | X-H torsion
[ 10167 10162 10161 10158 ] final -127.56 input  -65.29 | X-H torsion
[ 10718 10713 10712 10709 ] final -128.14 input   66.30 | X-H torsion
[ 10763 10752 10751 10750 ] final -134.56 input  -60.55 | X-H torsion
[ 11005 11000 10999 10996 ] final  -24.71 input  -57.11 | X-H torsion

> <Gold.Protein.ActiveResidues>
 VAL166  LYS551  ARG553  GLY616  TRP617  ASP618  TYR619  PRO620  LYS621  CYS622 
 ASP623  PHE694  ASN695  SER759  ASP760  ASP761  ALA762  ILE779  LEU786  VAL792 
 PHE793  MET794  SER795  GLU796  ALA797  LYS798  CYS799  TRP800  GLU811  SER814 

> <Gold.Protein.RotatedAtoms>
  151.5966  133.3361  159.3038 H   0  0  0  0  0  0  0  0  0  0  0  0  # atno 6907 bound_to 6896
  150.8231  134.7452  159.6801 H   0  0  0  0  0  0  0  0  0  0  0  0  # atno 6908 bound_to 6896
  152.4323  134.5760  159.9986 H   0  0  0  0  0  0  0  0  0  0  0  0  # atno 6909 bound_to 6896
  144.9169  140.6966  143.4989 H   0  0  0  0  0  0  0  0  0  0  0  0  # atno 7974 bound_to 7965
  156.0657  140.3290  155.7515 H   0  0  0  0  0  0  0  0  0  0  0  0  # atno 8008 bound_to 7997
  155.5384  140.0599  157.2892 H   0  0  0  0  0  0  0  0  0  0  0  0  # atno 8009 bound_to 7997
  154.4504  140.1915  156.0555 H   0  0  0  0  0  0  0  0  0  0  0  0  # atno 8010 bound_to 7997
  139.9595  143.5965  152.2449 H   0  0  0  0  0  0  0  0  0  0  0  0  # atno 10167 bound_to 10162
  156.1923  130.6803  151.0439 H   0  0  0  0  0  0  0  0  0  0  0  0  # atno 10718 bound_to 10713
  154.8717  135.3731  154.4755 H   0  0  0  0  0  0  0  0  0  0  0  0  # atno 10763 bound_to 10752
  153.5412  135.7026  153.5641 H   0  0  0  0  0  0  0  0  0  0  0  0  # atno 10764 bound_to 10752
  153.3801  135.3999  155.1815 H   0  0  0  0  0  0  0  0  0  0  0  0  # atno 10765 bound_to 10752
  140.8870  133.7614  156.0373 H   0  0  0  0  0  0  0  0  0  0  0  0  # atno 11005 bound_to 11000
  145.3360  139.1746  143.4511 LP  0  0  0  0  0  0  0  0  0  0  0  0  # atno 17320 bound_to 7965
  146.3186  140.3395  142.8647 LP  0  0  0  0  0  0  0  0  0  0  0  0  # atno 17321 bound_to 7965
  139.6565  144.7662  151.2046 LP  0  0  0  0  0  0  0  0  0  0  0  0  # atno 17342 bound_to 10162
  140.7557  143.6078  150.8636 LP  0  0  0  0  0  0  0  0  0  0  0  0  # atno 17343 bound_to 10162
  157.6936  131.0801  150.7035 LP  0  0  0  0  0  0  0  0  0  0  0  0  # atno 17370 bound_to 10713
  156.7091  130.4646  149.5552 LP  0  0  0  0  0  0  0  0  0  0  0  0  # atno 17371 bound_to 10713
  140.8392  134.3086  157.5320 LP  0  0  0  0  0  0  0  0  0  0  0  0  # atno 17394 bound_to 11000
  139.8725  134.9407  156.3776 LP  0  0  0  0  0  0  0  0  0  0  0  0  # atno 17395 bound_to 11000

$$$$
