AV-unprocessed.smi:1207|AV-procd|sdf|5058|dock6
  -GOLD-   22720 4 93D 1   1.00000     0.00000
 Structure written by MMmdl.
 53 55  0  0  0  0  0  0  0  0  3 V2000
  147.0473  128.5457  152.1506 C   0  0  0  0  0  0  0  0  0  0  0  0
  146.4198  129.9256  152.2530 C   0  0  0  0  0  0  0  0  0  0  0  0
  145.4566  130.3013  151.2896 C   0  0  0  0  0  0  0  0  0  0  0  0
  144.9030  131.5706  151.4079 C   0  0  0  0  0  0  0  0  0  0  0  0
  143.9468  132.2284  150.6313 N   0  3  0  0  0  0  0  0  0  0  0  0
  143.7227  133.4711  151.1419 C   0  0  0  0  0  0  0  0  0  0  0  0
  144.5243  133.6169  152.2325 N   0  0  0  0  0  0  0  0  0  0  0  0
  144.6824  134.7566  153.1462 C   0  0  0  0  0  0  0  0  0  0  0  0
  145.9668  135.5645  152.8758 C   0  0  1  0  0  0  0  0  0  0  0  0
  146.2095  135.6030  151.4827 O   0  0  0  0  0  0  0  0  0  0  0  0
  145.8692  137.0093  153.4049 C   0  0  0  0  0  0  0  0  0  0  0  0
  147.1901  137.6880  153.3999 N   0  3  1  0  0  0  0  0  0  0  0  0
  147.1461  139.0033  152.7201 C   0  0  0  0  0  0  0  0  0  0  0  0
  147.8164  137.7619  154.7449 C   0  0  0  0  0  0  0  0  0  0  0  0
  149.2018  138.3443  154.6599 C   0  0  0  0  0  0  0  0  0  0  0  0
  150.4402  137.6439  154.7285 C   0  0  0  0  0  0  0  0  0  0  0  0
  150.6689  136.1684  154.8931 C   0  0  0  0  0  0  0  0  0  0  0  0
  151.4750  138.4582  154.6170 N   0  0  0  0  0  0  0  0  0  0  0  0
  150.9390  139.7417  154.4767 O   0  0  0  0  0  0  0  0  0  0  0  0
  149.5855  139.6488  154.5056 C   0  0  0  0  0  0  0  0  0  0  0  0
  148.8319  140.9286  154.3691 C   0  0  0  0  0  0  0  0  0  0  0  0
  145.2751  132.4546  152.4390 C   0  0  0  0  0  0  0  0  0  0  0  0
  146.2197  132.0992  153.3989 C   0  0  0  0  0  0  0  0  0  0  0  0
  146.7964  130.8133  153.2944 C   0  0  0  0  0  0  0  0  0  0  0  0
  147.8334  130.3985  154.3244 C   0  0  0  0  0  0  0  0  0  0  0  0
  146.6480  127.9872  151.3037 H   0  0  0  0  0  0  0  0  0  0  0  0
  146.8507  127.9667  153.0532 H   0  0  0  0  0  0  0  0  0  0  0  0
  148.1265  128.6253  152.0174 H   0  0  0  0  0  0  0  0  0  0  0  0
  145.1644  129.6302  150.4950 H   0  0  0  0  0  0  0  0  0  0  0  0
  143.0363  134.2075  150.7494 H   0  0  0  0  0  0  0  0  0  0  0  0
  143.8019  135.3913  153.0357 H   0  0  0  0  0  0  0  0  0  0  0  0
  144.6662  134.3782  154.1692 H   0  0  0  0  0  0  0  0  0  0  0  0
  146.8066  135.0512  153.3419 H   0  0  0  0  0  0  0  0  0  0  0  0
  147.0902  135.9138  151.3358 H   0  0  0  0  0  0  0  0  0  0  0  0
  145.1578  137.5597  152.7868 H   0  0  0  0  0  0  0  0  0  0  0  0
  145.4638  137.0248  154.4181 H   0  0  0  0  0  0  0  0  0  0  0  0
  146.5019  139.7003  153.2575 H   0  0  0  0  0  0  0  0  0  0  0  0
  146.7654  138.9002  151.7035 H   0  0  0  0  0  0  0  0  0  0  0  0
  148.1415  139.4418  152.6491 H   0  0  0  0  0  0  0  0  0  0  0  0
  147.1748  138.3354  155.4151 H   0  0  0  0  0  0  0  0  0  0  0  0
  147.8707  136.7679  155.1880 H   0  0  0  0  0  0  0  0  0  0  0  0
  150.0726  135.7688  155.7135 H   0  0  0  0  0  0  0  0  0  0  0  0
  151.7141  135.9427  155.1072 H   0  0  0  0  0  0  0  0  0  0  0  0
  150.3920  135.6287  153.9874 H   0  0  0  0  0  0  0  0  0  0  0  0
  147.7758  140.7465  154.1721 H   0  0  0  0  0  0  0  0  0  0  0  0
  149.2288  141.5242  153.5468 H   0  0  0  0  0  0  0  0  0  0  0  0
  148.9086  141.5197  155.2818 H   0  0  0  0  0  0  0  0  0  0  0  0
  146.5050  132.7737  154.1922 H   0  0  0  0  0  0  0  0  0  0  0  0
  148.0164  131.1922  155.0494 H   0  0  0  0  0  0  0  0  0  0  0  0
  148.7821  130.1647  153.8406 H   0  0  0  0  0  0  0  0  0  0  0  0
  147.4977  129.5178  154.8727 H   0  0  0  0  0  0  0  0  0  0  0  0
  147.7887  137.1022  152.8345 H   0  0  0  0  0  0  0  0  0  0  0  0
  143.4792  131.8587  149.8130 H   0  0  0  0  0  0  0  0  0  0  0  0
  1  2  1  0  0  0  0
  1 26  1  0  0  0  0
  1 27  1  0  0  0  0
  1 28  1  0  0  0  0
  2 24  1  0  0  0  0
  2  3  2  0  0  0  0
  3  4  1  0  0  0  0
  3 29  1  0  0  0  0
  4 22  2  0  0  0  0
  4  5  1  0  0  0  0
  5  6  2  0  0  0  0
  5 53  1  0  0  0  0
  6  7  1  0  0  0  0
  6 30  1  0  0  0  0
  7  8  1  0  0  0  0
  7 22  1  0  0  0  0
  8  9  1  0  0  0  0
  8 31  1  0  0  0  0
  8 32  1  0  0  0  0
  9 10  1  0  0  0  0
  9 11  1  0  0  0  0
  9 33  1  0  0  0  0
 10 34  1  0  0  0  0
 11 12  1  0  0  0  0
 11 35  1  0  0  0  0
 11 36  1  0  0  0  0
 12 13  1  0  0  0  0
 12 14  1  0  0  0  0
 12 52  1  0  0  0  0
 13 37  1  0  0  0  0
 13 38  1  0  0  0  0
 13 39  1  0  0  0  0
 14 15  1  0  0  0  0
 14 40  1  0  0  0  0
 14 41  1  0  0  0  0
 15 20  2  0  0  0  0
 15 16  1  0  0  0  0
 16 17  1  0  0  0  0
 16 18  2  0  0  0  0
 17 42  1  0  0  0  0
 17 43  1  0  0  0  0
 17 44  1  0  0  0  0
 18 19  1  0  0  0  0
 19 20  1  0  0  0  0
 20 21  1  0  0  0  0
 21 45  1  0  0  0  0
 21 46  1  0  0  0  0
 21 47  1  0  0  0  0
 22 23  1  0  0  0  0
 23 24  2  0  0  0  0
 23 48  1  0  0  0  0
 24 25  1  0  0  0  0
 25 49  1  0  0  0  0
 25 50  1  0  0  0  0
 25 51  1  0  0  0  0
M  CHG  1   5   1
M  CHG  1  12   1
M  END
> <s_m_source_file>
AV-unprocessed.smi

> <i_m_source_file_index>
1207

> <i_lp_mmshare_version>
43012

> <i_f3d_flags>
0

> <s_epik_input>
W0NIM11jKFtjSF0xKWMoW0NIM10pW2NIXWMoYzEyKW4oW2NIXW4yKVtDSDJdW0NASF0oW09IXSlbQ0gyXU4oW0NIM10pW0NIMl1jM2MoW0NIM10pbm9jM1tDSDNd

> <s_epik_cmdline>
J2VwaWtfcHl0aG9uJywgJy1waCcsICc3LjAnLCAnLXRuJywgJzgnLCAnLW1hJywgJzIwMCcsICctbWV0YWxfYmluZGluZycsICctaW1hZScsICc8aW5maWxlLm1hZT4nLCAnLW9tYWUnLCAnPG91dGZpbGUubWFlPic=

> <r_epik_Ionization_Penalty>
1.77463

> <r_epik_Ionization_Penalty_Charging>
1.77463

> <r_epik_Ionization_Penalty_Neutral>
3.70885e-06

> <r_epik_State_Penalty>
1.85225

> <r_epik_Charging_Adjusted_Penalty>
3.62688

> <i_epik_Tot_Q>
2

> <i_epik_Tot_abs_Q>
2

> <r_epik_Metal_State_Penalty>
1.92674

> <b_epik_Metal_Only>
0

> <s_lp_Force_Field>
OPLS_2005

> <r_lp_Energy>
18.8212

> <b_lp_Chiralities_Consistent>
1

> <s_lp_Variant>
AV-unprocessed.smi:1207-10

> <Gold.Version>
5.8.1

> <Gold.Id.Protein>
6NUR|6NUR_protein|mol2

> <Gold.PLP.Fitness>
52.7775

> <Gold.PLP.PLP>
-40.4055

> <Gold.PLP.part.hbond>
-3.0000

> <Gold.PLP.part.metal>
0.0000

> <Gold.PLP.part.buried>
-4.5483

> <Gold.PLP.part.nonpolar>
-31.9417

> <Gold.PLP.part.repulsive>
0.3453

> <Gold.PLP.ligand.clash>
0.0000

> <Gold.PLP.ligand.torsion>
1.4314

> <Gold.PLP.Chemscore.Hbond>
4.0000

> <Gold.PLP.Chemscore.CHOScore>
1.0000

> <Gold.PLP.Chemscore.Metal>
0.0000

> <Gold.Chemscore.Hbonds>
donor molecule, donor type, donor heavy atom, donor atom, acceptor molecule, acceptor atom, score
      L1  H    10    34       P1  7948  1.00
      L1  H    12    52       P1  7948  2.00
      P1  H  7989  7998       L1    19  1.00
      L1  C     6    30       P1 10186  1.00

> <Gold.PLP.Chemscore.Internal.Correction>
0.2348

> <Gold.Rescore>
     Score         DG    S(hbond)    S(metal)    S(lipo)     H(rot)  DE(clash)    DE(int)     intcor
     18.96     -20.93       2.90        0.00     104.72       2.54       0.45       1.52       ----

> <Gold.Chemscore.Fitness>
18.9631

> <Gold.Chemscore.DG>
-20.9279

> <Gold.Chemscore.ZeroCoef>
-5.4800

> <Gold.Chemscore.Hbond>
2.8999

> <Gold.Chemscore.Metal>
0.0000

> <Gold.Chemscore.Lipo>
104.7190

> <Gold.Chemscore.Internal_Hbond>
0.0000

> <Gold.Chemscore.DEClash>
0.4475

> <Gold.Chemscore.DEInternal>
1.5173

> <Gold.Chemscore.Rot>
2.5351

> <Gold.Chemscore.Internal.Correction>
   9.000000E+99

> <Gold.Chemscore.Hbonds>
donor molecule, donor type, donor heavy atom, donor atom, acceptor molecule, acceptor atom, score
      L1  H    10    34       P1  7948  0.97
      L1  H    12    52       P1  7948  1.00
      P1  H  7989  7998       L1    19  0.95

> <Gold.Chemscore.Hbond.Weighted>
-9.6857

> <Gold.Chemscore.Metal.Weighted>
-0.0000

> <Gold.Chemscore.Lipo.Weighted>
-12.2521

> <Gold.Chemscore.Internal_Hbond.Weighted>
0.0000

> <Gold.Chemscore.DEClash.Weighted>
0.4475

> <Gold.Chemscore.DEInternal.Weighted>
1.5173

> <Gold.Chemscore.Rot.Weighted>
6.4900

> <Gold.Chemscore.Internal.Correction.Weighted>
   9.000000E+99

> <Gold.Protein.RotatedTorsions>
[ 6907 6896 6895 6894 ] final  -95.18 input  -60.11 | X-H torsion
[ 7974 7965 7964 7962 ] final -154.92 input  175.53 | X-H torsion
[ 8008 7997 7996 7995 ] final -162.03 input   59.86 | X-H torsion
[ 10167 10162 10161 10158 ] final   95.06 input  -65.29 | X-H torsion
[ 10718 10713 10712 10709 ] final   61.70 input   66.30 | X-H torsion
[ 10763 10752 10751 10750 ] final  -31.58 input  -60.55 | X-H torsion
[ 11005 11000 10999 10996 ] final  149.94 input  -57.11 | X-H torsion

> <Gold.Protein.ActiveResidues>
 VAL166  LYS551  ARG553  GLY616  TRP617  ASP618  TYR619  PRO620  LYS621  CYS622 
 ASP623  PHE694  ASN695  SER759  ASP760  ASP761  ALA762  ILE779  LEU786  VAL792 
 PHE793  MET794  SER795  GLU796  ALA797  LYS798  CYS799  TRP800  GLU811  SER814 

> <Gold.Protein.RotatedAtoms>
  150.6958  134.1697  159.4207 H   0  0  0  0  0  0  0  0  0  0  0  0  # atno 6907 bound_to 6896
  151.9675  135.0091  160.0560 H   0  0  0  0  0  0  0  0  0  0  0  0  # atno 6908 bound_to 6896
  152.1871  133.4712  159.5025 H   0  0  0  0  0  0  0  0  0  0  0  0  # atno 6909 bound_to 6896
  144.7665  140.4321  143.5938 H   0  0  0  0  0  0  0  0  0  0  0  0  # atno 7974 bound_to 7965
  155.8009  140.0891  157.1958 H   0  0  0  0  0  0  0  0  0  0  0  0  # atno 8008 bound_to 7997
  154.3982  140.1472  156.3332 H   0  0  0  0  0  0  0  0  0  0  0  0  # atno 8009 bound_to 7997
  155.8464  140.3436  155.5667 H   0  0  0  0  0  0  0  0  0  0  0  0  # atno 8010 bound_to 7997
  139.8024  144.6808  150.9747 H   0  0  0  0  0  0  0  0  0  0  0  0  # atno 10167 bound_to 10162
  157.5847  130.9009  149.9494 H   0  0  0  0  0  0  0  0  0  0  0  0  # atno 10718 bound_to 10713
  153.7996  135.6891  153.4858 H   0  0  0  0  0  0  0  0  0  0  0  0  # atno 10763 bound_to 10752
  153.1697  135.4547  154.9884 H   0  0  0  0  0  0  0  0  0  0  0  0  # atno 10764 bound_to 10752
  154.8012  135.3338  154.7486 H   0  0  0  0  0  0  0  0  0  0  0  0  # atno 10765 bound_to 10752
  140.1088  134.8937  157.1906 H   0  0  0  0  0  0  0  0  0  0  0  0  # atno 11005 bound_to 11000
  145.6454  139.1556  143.2892 LP  0  0  0  0  0  0  0  0  0  0  0  0  # atno 17320 bound_to 7965
  146.1777  140.6547  142.9204 LP  0  0  0  0  0  0  0  0  0  0  0  0  # atno 17321 bound_to 7965
  140.7820  143.4268  151.0756 LP  0  0  0  0  0  0  0  0  0  0  0  0  # atno 17342 bound_to 10162
  139.7939  143.8180  152.3155 LP  0  0  0  0  0  0  0  0  0  0  0  0  # atno 17343 bound_to 10162
  156.0895  130.3664  150.0422 LP  0  0  0  0  0  0  0  0  0  0  0  0  # atno 17370 bound_to 10713
  156.8555  130.9473  151.3622 LP  0  0  0  0  0  0  0  0  0  0  0  0  # atno 17371 bound_to 10713
  140.3119  134.3014  155.7265 LP  0  0  0  0  0  0  0  0  0  0  0  0  # atno 17394 bound_to 11000
  141.2125  133.7655  156.9788 LP  0  0  0  0  0  0  0  0  0  0  0  0  # atno 17395 bound_to 11000

$$$$
