AV-unprocessed.smi:2769|AV-procd|sdf|10656|dock3
  -GOLD-   2272015103D 1   1.00000     0.00000
 Structure written by MMmdl.
 20 21  0  0  0  0  0  0  0  0  2 V2000
  145.6022  128.5954  152.3543 C   0  0  0  0  0  0  0  0  0  0  0  0
  145.7594  129.9999  151.8805 C   0  0  0  0  0  0  0  0  0  0  0  0
  146.5722  130.8487  152.4972 N   0  0  0  0  0  0  0  0  0  0  0  0
  146.4217  132.0327  151.7615 O   0  0  0  0  0  0  0  0  0  0  0  0
  145.5641  131.7367  150.7555 C   0  0  0  0  0  0  0  0  0  0  0  0
  145.1197  132.8311  149.8439 C   0  0  0  0  0  0  0  0  0  0  0  0
  144.4089  134.0812  150.3464 C   0  0  0  0  0  0  0  0  0  0  0  0
  143.7968  134.1530  149.0200 N   0  3  0  0  0  0  0  0  0  0  0  0
  143.9279  132.7013  148.9020 C   0  0  0  0  0  0  0  0  0  0  0  0
  145.0876  130.4954  150.8049 N   0  0  0  0  0  0  0  0  0  0  0  0
  145.8080  128.5223  153.4228 H   0  0  0  0  0  0  0  0  0  0  0  0
  146.2927  127.9408  151.8223 H   0  0  0  0  0  0  0  0  0  0  0  0
  144.5853  128.2443  152.1769 H   0  0  0  0  0  0  0  0  0  0  0  0
  145.9968  133.1282  149.2620 H   0  0  0  0  0  0  0  0  0  0  0  0
  143.6811  133.8873  151.1374 H   0  0  0  0  0  0  0  0  0  0  0  0
  145.0633  134.9206  150.5832 H   0  0  0  0  0  0  0  0  0  0  0  0
  142.8420  134.4831  149.0225 H   0  0  0  0  0  0  0  0  0  0  0  0
  144.1691  132.3548  147.8967 H   0  0  0  0  0  0  0  0  0  0  0  0
  143.0773  132.1672  149.3311 H   0  0  0  0  0  0  0  0  0  0  0  0
  144.3916  134.6350  148.3610 H   0  0  0  0  0  0  0  0  0  0  0  0
  1  2  1  0  0  0  0
  1 11  1  0  0  0  0
  1 12  1  0  0  0  0
  1 13  1  0  0  0  0
  2 10  1  0  0  0  0
  2  3  2  0  0  0  0
  3  4  1  0  0  0  0
  4  5  1  0  0  0  0
  5  6  1  0  0  0  0
  5 10  2  0  0  0  0
  6  9  1  0  0  0  0
  6  7  1  0  0  0  0
  6 14  1  0  0  0  0
  7  8  1  0  0  0  0
  7 15  1  0  0  0  0
  7 16  1  0  0  0  0
  8  9  1  0  0  0  0
  8 17  1  0  0  0  0
  8 20  1  0  0  0  0
  9 18  1  0  0  0  0
  9 19  1  0  0  0  0
M  CHG  1   8   1
M  END
> <s_m_source_file>
AV-unprocessed.smi

> <i_m_source_file_index>
2769

> <i_lp_mmshare_version>
43012

> <i_f3d_flags>
0

> <s_epik_input>
W0NIM11jMW5vYyhuMSlbQ0hdMltDSDJdW05IXVtDSDJdMg==

> <s_epik_cmdline>
J2VwaWtfcHl0aG9uJywgJy1waCcsICc3LjAnLCAnLXRuJywgJzgnLCAnLW1hJywgJzIwMCcsICctbWV0YWxfYmluZGluZycsICctaW1hZScsICc8aW5maWxlLm1hZT4nLCAnLW9tYWUnLCAnPG91dGZpbGUubWFlPic=

> <r_lp_tautomer_probability>
1

> <r_epik_Ionization_Penalty>
0.0104968

> <r_epik_Ionization_Penalty_Charging>
0.0104968

> <r_epik_Ionization_Penalty_Neutral>
4.87029e-13

> <r_epik_State_Penalty>
0.00803009

> <r_epik_Charging_Adjusted_Penalty>
0.0185269

> <i_epik_Tot_Q>
1

> <i_epik_Tot_abs_Q>
1

> <r_epik_Metal_State_Penalty>
0.00803009

> <b_epik_Metal_Only>
0

> <s_lp_Force_Field>
OPLS_2005

> <r_lp_Energy>
11.9904

> <b_lp_Chiralities_Consistent>
1

> <s_lp_Variant>
AV-unprocessed.smi:2769-1

> <Gold.Version>
5.8.1

> <Gold.Id.Protein>
6NUR|6NUR_protein|mol2

> <Gold.PLP.Fitness>
28.3817

> <Gold.PLP.PLP>
-19.5432

> <Gold.PLP.part.hbond>
-2.5944

> <Gold.PLP.part.metal>
0.0000

> <Gold.PLP.part.buried>
-0.9055

> <Gold.PLP.part.nonpolar>
-16.3084

> <Gold.PLP.part.repulsive>
0.5134

> <Gold.PLP.ligand.clash>
0.0000

> <Gold.PLP.ligand.torsion>
0.1368

> <Gold.PLP.Chemscore.Hbond>
2.9600

> <Gold.PLP.Chemscore.CHOScore>
0.0000

> <Gold.PLP.Chemscore.Metal>
0.0000

> <Gold.Chemscore.Hbonds>
donor molecule, donor type, donor heavy atom, donor atom, acceptor molecule, acceptor atom, score
      L1  H     8    17       P1 10186  2.00
      L1  H     8    20       P1  7921  0.96

> <Gold.PLP.Chemscore.Internal.Correction>
0.2321

> <Gold.Rescore>
     Score         DG    S(hbond)    S(metal)    S(lipo)     H(rot)  DE(clash)    DE(int)     intcor
     13.59     -13.73       1.97        0.00      36.26       1.00       0.01       0.14       ----

> <Gold.Chemscore.Fitness>
13.5870

> <Gold.Chemscore.DG>
-13.7322

> <Gold.Chemscore.ZeroCoef>
-5.4800

> <Gold.Chemscore.Hbond>
1.9670

> <Gold.Chemscore.Metal>
0.0000

> <Gold.Chemscore.Lipo>
36.2610

> <Gold.Chemscore.Internal_Hbond>
0.0000

> <Gold.Chemscore.DEClash>
0.0073

> <Gold.Chemscore.DEInternal>
0.1378

> <Gold.Chemscore.Rot>
1.0000

> <Gold.Chemscore.Internal.Correction>
   9.000000E+99

> <Gold.Chemscore.Hbonds>
donor molecule, donor type, donor heavy atom, donor atom, acceptor molecule, acceptor atom, score
      L1  H     8    17       P1 10186  0.98
      L1  H     8    20       P1  7921  0.92

> <Gold.Chemscore.Hbond.Weighted>
-6.5696

> <Gold.Chemscore.Metal.Weighted>
-0.0000

> <Gold.Chemscore.Lipo.Weighted>
-4.2425

> <Gold.Chemscore.Internal_Hbond.Weighted>
0.0000

> <Gold.Chemscore.DEClash.Weighted>
0.0073

> <Gold.Chemscore.DEInternal.Weighted>
0.1378

> <Gold.Chemscore.Rot.Weighted>
2.5600

> <Gold.Chemscore.Internal.Correction.Weighted>
   9.000000E+99

> <Gold.Protein.RotatedTorsions>
[ 6907 6896 6895 6894 ] final   85.15 input  -60.11 | X-H torsion
[ 7974 7965 7964 7962 ] final  -41.56 input  175.53 | X-H torsion
[ 8008 7997 7996 7995 ] final  160.36 input   59.86 | X-H torsion
[ 10167 10162 10161 10158 ] final -169.97 input  -65.29 | X-H torsion
[ 10718 10713 10712 10709 ] final  -87.64 input   66.30 | X-H torsion
[ 10763 10752 10751 10750 ] final   80.90 input  -60.55 | X-H torsion
[ 11005 11000 10999 10996 ] final  107.86 input  -57.11 | X-H torsion

> <Gold.Protein.ActiveResidues>
 VAL166  LYS551  ARG553  GLY616  TRP617  ASP618  TYR619  PRO620  LYS621  CYS622 
 ASP623  PHE694  ASN695  SER759  ASP760  ASP761  ALA762  ILE779  LEU786  VAL792 
 PHE793  MET794  SER795  GLU796  ALA797  LYS798  CYS799  TRP800  GLU811  SER814 

> <Gold.Protein.RotatedAtoms>
  152.5368  134.2630  159.8942 H   0  0  0  0  0  0  0  0  0  0  0  0  # atno 6907 bound_to 6896
  151.2590  133.4305  159.2623 H   0  0  0  0  0  0  0  0  0  0  0  0  # atno 6908 bound_to 6896
  151.0470  134.9661  159.8248 H   0  0  0  0  0  0  0  0  0  0  0  0  # atno 6909 bound_to 6896
  146.0199  140.6862  142.9183 H   0  0  0  0  0  0  0  0  0  0  0  0  # atno 7974 bound_to 7965
  156.2177  140.1806  156.7550 H   0  0  0  0  0  0  0  0  0  0  0  0  # atno 8008 bound_to 7997
  154.5817  140.0665  156.9142 H   0  0  0  0  0  0  0  0  0  0  0  0  # atno 8009 bound_to 7997
  155.2491  140.3327  155.4286 H   0  0  0  0  0  0  0  0  0  0  0  0  # atno 8010 bound_to 7997
  139.5890  144.1254  152.1611 H   0  0  0  0  0  0  0  0  0  0  0  0  # atno 10167 bound_to 10162
  155.9985  130.4807  150.4897 H   0  0  0  0  0  0  0  0  0  0  0  0  # atno 10718 bound_to 10713
  153.1072  135.4785  154.8971 H   0  0  0  0  0  0  0  0  0  0  0  0  # atno 10763 bound_to 10752
  154.7442  135.3090  154.8676 H   0  0  0  0  0  0  0  0  0  0  0  0  # atno 10764 bound_to 10752
  153.9276  135.6848  153.4799 H   0  0  0  0  0  0  0  0  0  0  0  0  # atno 10765 bound_to 10752
  139.8835  134.9413  156.5884 H   0  0  0  0  0  0  0  0  0  0  0  0  # atno 11005 bound_to 11000
  144.6986  140.3547  143.7175 LP  0  0  0  0  0  0  0  0  0  0  0  0  # atno 17320 bound_to 7965
  145.7209  139.1709  143.2485 LP  0  0  0  0  0  0  0  0  0  0  0  0  # atno 17321 bound_to 7965
  140.0824  144.5689  150.7112 LP  0  0  0  0  0  0  0  0  0  0  0  0  # atno 17342 bound_to 10162
  140.7157  143.2542  151.4442 LP  0  0  0  0  0  0  0  0  0  0  0  0  # atno 17343 bound_to 10162
  157.2894  131.0623  151.2144 LP  0  0  0  0  0  0  0  0  0  0  0  0  # atno 17370 bound_to 10713
  157.3162  130.6914  149.6243 LP  0  0  0  0  0  0  0  0  0  0  0  0  # atno 17371 bound_to 10713
  140.7974  133.8533  155.8697 LP  0  0  0  0  0  0  0  0  0  0  0  0  # atno 17394 bound_to 11000
  140.9623  134.1639  157.4644 LP  0  0  0  0  0  0  0  0  0  0  0  0  # atno 17395 bound_to 11000

$$$$
