AV-unprocessed.smi:2986|AV-procd|sdf|11381|dock5
  -GOLD-   2272016303D 1   1.00000     0.00000
 Structure written by MMmdl.
 42 44  0  0  0  0  0  0  0  0  1 V2000
  148.4099  141.0042  154.1862 C   0  0  0  0  0  0  0  0  0  0  0  0
  149.7545  140.7384  154.5438 O   0  0  0  0  0  0  0  0  0  0  0  0
  150.0103  140.9878  155.9150 C   0  0  0  0  0  0  0  0  0  0  0  0
  151.4287  140.5104  156.2457 C   0  0  0  0  0  0  0  0  0  0  0  0
  151.8332  140.9156  157.5821 N   0  0  0  0  0  0  0  0  0  0  0  0
  152.2301  140.1253  158.6089 C   0  0  0  0  0  0  0  0  0  0  0  0
  152.3178  138.3701  158.4542 S   0  0  0  0  0  0  0  0  0  0  0  0
  150.5691  138.0456  158.0644 C   0  0  0  0  0  0  0  0  0  0  0  0
  149.9362  136.9547  158.9318 C   0  0  0  0  0  0  0  0  0  0  0  0
  150.2037  135.7758  158.7050 O   0  0  0  0  0  0  0  0  0  0  0  0
  149.1157  137.3817  159.9091 N   0  0  0  0  0  0  0  0  0  0  0  0
  148.3354  136.6116  160.8081 C   0  0  0  0  0  0  0  0  0  0  0  0
  148.1476  135.1994  160.7682 C   0  0  0  0  0  0  0  0  0  0  0  0
  147.3234  134.9702  161.8336 C   0  0  0  0  0  0  0  0  0  0  0  0
  146.7169  133.7322  162.3989 C   0  0  0  0  0  0  0  0  0  0  0  0
  147.0329  136.1380  162.4677 O   0  0  0  0  0  0  0  0  0  0  0  0
  147.6858  137.1836  161.8049 N   0  0  0  0  0  0  0  0  0  0  0  0
  152.5559  140.7597  159.7351 N   0  0  0  0  0  0  0  0  0  0  0  0
  152.3477  142.0856  159.4089 C   0  0  0  0  0  0  0  0  0  0  0  0
  152.5146  143.2589  160.1789 C   0  0  0  0  0  0  0  0  0  0  0  0
  152.2304  144.5236  159.6231 C   0  0  0  0  0  0  0  0  0  0  0  0
  151.7759  144.6331  158.2928 C   0  0  0  0  0  0  0  0  0  0  0  0
  151.6042  143.4770  157.5076 C   0  0  0  0  0  0  0  0  0  0  0  0
  151.8906  142.2174  158.0670 C   0  0  0  0  0  0  0  0  0  0  0  0
  148.2632  140.7897  153.1277 H   0  0  0  0  0  0  0  0  0  0  0  0
  148.1570  142.0517  154.3561 H   0  0  0  0  0  0  0  0  0  0  0  0
  147.7193  140.3801  154.7548 H   0  0  0  0  0  0  0  0  0  0  0  0
  149.9140  142.0540  156.1273 H   0  0  0  0  0  0  0  0  0  0  0  0
  149.2807  140.4601  156.5317 H   0  0  0  0  0  0  0  0  0  0  0  0
  151.4970  139.4261  156.1601 H   0  0  0  0  0  0  0  0  0  0  0  0
  152.1400  140.9174  155.5264 H   0  0  0  0  0  0  0  0  0  0  0  0
  150.0050  138.9733  158.1699 H   0  0  0  0  0  0  0  0  0  0  0  0
  150.4952  137.7501  157.0177 H   0  0  0  0  0  0  0  0  0  0  0  0
  148.9982  138.3818  159.9843 H   0  0  0  0  0  0  0  0  0  0  0  0
  148.5421  134.4638  160.0838 H   0  0  0  0  0  0  0  0  0  0  0  0
  147.0596  132.8493  161.8591 H   0  0  0  0  0  0  0  0  0  0  0  0
  145.6296  133.7688  162.3312 H   0  0  0  0  0  0  0  0  0  0  0  0
  146.9873  133.6136  163.4483 H   0  0  0  0  0  0  0  0  0  0  0  0
  152.8619  143.1858  161.1989 H   0  0  0  0  0  0  0  0  0  0  0  0
  152.3618  145.4139  160.2205 H   0  0  0  0  0  0  0  0  0  0  0  0
  151.5598  145.6056  157.8752 H   0  0  0  0  0  0  0  0  0  0  0  0
  151.2563  143.5578  156.4884 H   0  0  0  0  0  0  0  0  0  0  0  0
  1  2  1  0  0  0  0
  1 25  1  0  0  0  0
  1 26  1  0  0  0  0
  1 27  1  0  0  0  0
  2  3  1  0  0  0  0
  3  4  1  0  0  0  0
  3 28  1  0  0  0  0
  3 29  1  0  0  0  0
  4  5  1  0  0  0  0
  4 30  1  0  0  0  0
  4 31  1  0  0  0  0
  5 24  1  0  0  0  0
  5  6  1  0  0  0  0
  6  7  1  0  0  0  0
  6 18  2  0  0  0  0
  7  8  1  0  0  0  0
  8  9  1  0  0  0  0
  8 32  1  0  0  0  0
  8 33  1  0  0  0  0
  9 10  2  0  0  0  0
  9 11  1  0  0  0  0
 11 12  1  0  0  0  0
 11 34  1  0  0  0  0
 12 17  2  0  0  0  0
 12 13  1  0  0  0  0
 13 14  2  0  0  0  0
 13 35  1  0  0  0  0
 14 15  1  0  0  0  0
 14 16  1  0  0  0  0
 15 36  1  0  0  0  0
 15 37  1  0  0  0  0
 15 38  1  0  0  0  0
 16 17  1  0  0  0  0
 18 19  1  0  0  0  0
 19 24  2  0  0  0  0
 19 20  1  0  0  0  0
 20 21  2  0  0  0  0
 20 39  1  0  0  0  0
 21 22  1  0  0  0  0
 21 40  1  0  0  0  0
 22 23  2  0  0  0  0
 22 41  1  0  0  0  0
 23 24  1  0  0  0  0
 23 42  1  0  0  0  0
M  END
> <s_m_source_file>
AV-unprocessed.smi

> <i_m_source_file_index>
2986

> <i_lp_mmshare_version>
43012

> <i_f3d_flags>
0

> <s_epik_input>
W2NIXTFbY0hdW2NIXVtjSF1jKGMxMiluKFtDSDJdW0NIMl1PW0NIM10pYyhuMilTW0NIMl1DKD1PKVtOSF1jM1tjSF1jKFtDSDNdKW9uMw==

> <s_epik_cmdline>
J2VwaWtfcHl0aG9uJywgJy1waCcsICc3LjAnLCAnLXRuJywgJzgnLCAnLW1hJywgJzIwMCcsICctbWV0YWxfYmluZGluZycsICctaW1hZScsICc8aW5maWxlLm1hZT4nLCAnLW9tYWUnLCAnPG91dGZpbGUubWFlPic=

> <r_epik_Ionization_Penalty>
0.0256487

> <r_epik_Ionization_Penalty_Charging>
0

> <r_epik_Ionization_Penalty_Neutral>
0.0256487

> <r_epik_State_Penalty>
0.0204505

> <r_epik_Charging_Adjusted_Penalty>
0.0204505

> <i_epik_Tot_Q>
0

> <i_epik_Tot_abs_Q>
0

> <r_epik_Metal_State_Penalty>
0.237509

> <b_epik_Metal_Only>
0

> <s_lp_Force_Field>
OPLS_2005

> <r_lp_Energy>
8.97746

> <b_lp_Chiralities_Consistent>
1

> <s_lp_Variant>
AV-unprocessed.smi:2986-1

> <Gold.Version>
5.8.1

> <Gold.Id.Protein>
6NUR|6NUR_protein|mol2

> <Gold.PLP.Fitness>
57.6526

> <Gold.PLP.PLP>
-49.7086

> <Gold.PLP.part.hbond>
-4.0907

> <Gold.PLP.part.metal>
0.0000

> <Gold.PLP.part.buried>
-6.3215

> <Gold.PLP.part.nonpolar>
-39.0381

> <Gold.PLP.part.repulsive>
1.1237

> <Gold.PLP.ligand.clash>
0.0000

> <Gold.PLP.ligand.torsion>
0.6067

> <Gold.PLP.Chemscore.Hbond>
3.0079

> <Gold.PLP.Chemscore.CHOScore>
0.0000

> <Gold.PLP.Chemscore.Metal>
0.0000

> <Gold.Chemscore.Hbonds>
donor molecule, donor type, donor heavy atom, donor atom, acceptor molecule, acceptor atom, score
      P1  H  6896  6908       L1    10  0.91
      P1  H  6931  6943       L1    17  0.35
      P1  H  6934  6947       L1    17  0.59
      P1  H  7989  7998       L1     2  0.53

> <Gold.PLP.Chemscore.Internal.Correction>
0.1337

> <Gold.Rescore>
     Score         DG    S(hbond)    S(metal)    S(lipo)     H(rot)  DE(clash)    DE(int)     intcor
     18.89     -20.64       2.19        0.00     117.07       2.28       0.06       1.69       ----

> <Gold.Chemscore.Fitness>
18.8904

> <Gold.Chemscore.DG>
-20.6411

> <Gold.Chemscore.ZeroCoef>
-5.4800

> <Gold.Chemscore.Hbond>
2.1860

> <Gold.Chemscore.Metal>
0.0000

> <Gold.Chemscore.Lipo>
117.0743

> <Gold.Chemscore.Internal_Hbond>
0.0000

> <Gold.Chemscore.DEClash>
0.0558

> <Gold.Chemscore.DEInternal>
1.6949

> <Gold.Chemscore.Rot>
2.2804

> <Gold.Chemscore.Internal.Correction>
   9.000000E+99

> <Gold.Chemscore.Hbonds>
donor molecule, donor type, donor heavy atom, donor atom, acceptor molecule, acceptor atom, score
      P1  H  6896  6908       L1    10  0.83
      P1  H  6931  6943       L1    17  0.01
      P1  H  6934  6947       L1    17  0.17
      P1  H  7989  7998       L1     2  0.34

> <Gold.Chemscore.Hbond.Weighted>
-7.3013

> <Gold.Chemscore.Metal.Weighted>
-0.0000

> <Gold.Chemscore.Lipo.Weighted>
-13.6977

> <Gold.Chemscore.Internal_Hbond.Weighted>
0.0000

> <Gold.Chemscore.DEClash.Weighted>
0.0558

> <Gold.Chemscore.DEInternal.Weighted>
1.6949

> <Gold.Chemscore.Rot.Weighted>
5.8379

> <Gold.Chemscore.Internal.Correction.Weighted>
   9.000000E+99

> <Gold.Protein.RotatedTorsions>
[ 6907 6896 6895 6894 ] final  177.09 input  -60.11 | X-H torsion
[ 7974 7965 7964 7962 ] final  -23.14 input  175.53 | X-H torsion
[ 8008 7997 7996 7995 ] final -148.03 input   59.86 | X-H torsion
[ 10167 10162 10161 10158 ] final -120.19 input  -65.29 | X-H torsion
[ 10718 10713 10712 10709 ] final   88.44 input   66.30 | X-H torsion
[ 10763 10752 10751 10750 ] final   66.73 input  -60.55 | X-H torsion
[ 11005 11000 10999 10996 ] final  117.72 input  -57.11 | X-H torsion

> <Gold.Protein.ActiveResidues>
 VAL166  LYS551  ARG553  GLY616  TRP617  ASP618  TYR619  PRO620  LYS621  CYS622 
 ASP623  PHE694  ASN695  SER759  ASP760  ASP761  ALA762  ILE779  LEU786  VAL792 
 PHE793  MET794  SER795  GLU796  ALA797  LYS798  CYS799  TRP800  GLU811  SER814 

> <Gold.Protein.RotatedAtoms>
  151.7097  133.3312  159.3287 H   0  0  0  0  0  0  0  0  0  0  0  0  # atno 6907 bound_to 6896
  150.7699  134.6543  159.6314 H   0  0  0  0  0  0  0  0  0  0  0  0  # atno 6908 bound_to 6896
  152.3719  134.6724  160.0225 H   0  0  0  0  0  0  0  0  0  0  0  0  # atno 6909 bound_to 6896
  146.1634  140.4575  142.8562 H   0  0  0  0  0  0  0  0  0  0  0  0  # atno 7974 bound_to 7965
  155.5851  140.0647  157.2773 H   0  0  0  0  0  0  0  0  0  0  0  0  # atno 8008 bound_to 7997
  154.4321  140.1845  156.1063 H   0  0  0  0  0  0  0  0  0  0  0  0  # atno 8009 bound_to 7997
  156.0275  140.3310  155.7108 H   0  0  0  0  0  0  0  0  0  0  0  0  # atno 8010 bound_to 7997
  140.0385  143.5177  152.2141 H   0  0  0  0  0  0  0  0  0  0  0  0  # atno 10167 bound_to 10162
  157.6949  131.0294  150.3274 H   0  0  0  0  0  0  0  0  0  0  0  0  # atno 10718 bound_to 10713
  153.0153  135.5310  154.6870 H   0  0  0  0  0  0  0  0  0  0  0  0  # atno 10763 bound_to 10752
  154.6014  135.2868  155.0533 H   0  0  0  0  0  0  0  0  0  0  0  0  # atno 10764 bound_to 10752
  154.1588  135.6551  153.5033 H   0  0  0  0  0  0  0  0  0  0  0  0  # atno 10765 bound_to 10752
  139.9084  134.9613  156.7393 H   0  0  0  0  0  0  0  0  0  0  0  0  # atno 11005 bound_to 11000
  144.8058  140.6297  143.6448 LP  0  0  0  0  0  0  0  0  0  0  0  0  # atno 17320 bound_to 7965
  145.4530  139.1521  143.3908 LP  0  0  0  0  0  0  0  0  0  0  0  0  # atno 17321 bound_to 7965
  139.6029  144.7588  151.3130 LP  0  0  0  0  0  0  0  0  0  0  0  0  # atno 17342 bound_to 10162
  140.7270  143.6974  150.7873 LP  0  0  0  0  0  0  0  0  0  0  0  0  # atno 17343 bound_to 10162
  156.3753  130.3870  149.7144 LP  0  0  0  0  0  0  0  0  0  0  0  0  # atno 17370 bound_to 10713
  156.4544  130.7922  151.2943 LP  0  0  0  0  0  0  0  0  0  0  0  0  # atno 17371 bound_to 10713
  140.6862  133.9430  155.7939 LP  0  0  0  0  0  0  0  0  0  0  0  0  # atno 17394 bound_to 11000
  141.0475  134.0533  157.3826 LP  0  0  0  0  0  0  0  0  0  0  0  0  # atno 17395 bound_to 11000

$$$$
