AV-unprocessed.smi:781|AV-procd|sdf|3707|dock8
  -GOLD-   22720 1133D 1   1.00000     0.00000
 Structure written by MMmdl.
 38 40  0  0  0  0  0  0  0  0  1 V2000
  153.4334  142.2177  160.8315 C   0  0  0  0  0  0  0  0  0  0  0  0
  152.6643  142.7519  159.6722 C   0  0  0  0  0  0  0  0  0  0  0  0
  151.8059  142.1742  158.7797 C   0  0  0  0  0  0  0  0  0  0  0  0
  151.4379  143.2597  157.9410 C   0  0  0  0  0  0  0  0  0  0  0  0
  150.5365  143.0721  156.8626 N   0  0  0  0  0  0  0  0  0  0  0  0
  150.3338  141.9517  156.1488 C   0  0  0  0  0  0  0  0  0  0  0  0
  150.9164  140.8815  156.3257 O   0  0  0  0  0  0  0  0  0  0  0  0
  149.4030  142.1411  155.2032 N   0  0  0  0  0  0  0  0  0  0  0  0
  148.9439  141.1240  154.2607 C   0  0  2  0  0  0  0  0  0  0  0  0
  147.4912  141.4118  153.8220 C   0  0  1  0  0  0  0  0  0  0  0  0
  147.1829  140.5869  152.5595 C   0  0  0  0  0  0  0  0  0  0  0  0
  147.0726  139.1551  153.1167 C   0  0  0  0  0  0  0  0  0  0  0  0
  147.3514  139.3465  154.6233 C   0  0  2  0  0  0  0  0  0  0  0  0
  146.6644  140.6822  154.8775 C   0  0  0  0  0  0  0  0  0  0  0  0
  148.8298  139.7168  154.9018 C   0  0  1  0  0  0  0  0  0  0  0  0
  149.8884  138.7117  154.4074 C   0  0  0  0  0  0  0  0  0  0  0  0
  151.1661  139.3123  154.3887 O   0  0  0  0  0  0  0  0  0  0  0  0
  152.0197  144.3972  158.2892 N   0  0  0  0  0  0  0  0  0  0  0  0
  152.8092  144.0774  159.4003 O   0  0  0  0  0  0  0  0  0  0  0  0
  153.0669  141.2328  161.1212 H   0  0  0  0  0  0  0  0  0  0  0  0
  153.3427  142.8774  161.6944 H   0  0  0  0  0  0  0  0  0  0  0  0
  154.4909  142.1263  160.5839 H   0  0  0  0  0  0  0  0  0  0  0  0
  151.4931  141.1415  158.7363 H   0  0  0  0  0  0  0  0  0  0  0  0
  149.9874  143.8789  156.6058 H   0  0  0  0  0  0  0  0  0  0  0  0
  148.9748  143.0523  155.1308 H   0  0  0  0  0  0  0  0  0  0  0  0
  149.6036  141.1218  153.3905 H   0  0  0  0  0  0  0  0  0  0  0  0
  147.2626  142.4721  153.7066 H   0  0  0  0  0  0  0  0  0  0  0  0
  146.2377  140.8977  152.1129 H   0  0  0  0  0  0  0  0  0  0  0  0
  147.9581  140.6811  151.7982 H   0  0  0  0  0  0  0  0  0  0  0  0
  146.0630  138.7712  152.9649 H   0  0  0  0  0  0  0  0  0  0  0  0
  147.7556  138.4584  152.6328 H   0  0  0  0  0  0  0  0  0  0  0  0
  146.9857  138.5259  155.2413 H   0  0  0  0  0  0  0  0  0  0  0  0
  146.8156  141.0637  155.8889 H   0  0  0  0  0  0  0  0  0  0  0  0
  145.5952  140.6701  154.6587 H   0  0  0  0  0  0  0  0  0  0  0  0
  148.9447  139.8057  155.9842 H   0  0  0  0  0  0  0  0  0  0  0  0
  149.9158  137.8107  155.0189 H   0  0  0  0  0  0  0  0  0  0  0  0
  149.6490  138.3907  153.3935 H   0  0  0  0  0  0  0  0  0  0  0  0
  151.7051  138.8902  155.0401 H   0  0  0  0  0  0  0  0  0  0  0  0
  1  2  1  0  0  0  0
  1 20  1  0  0  0  0
  1 21  1  0  0  0  0
  1 22  1  0  0  0  0
  2 19  1  0  0  0  0
  2  3  2  0  0  0  0
  3  4  1  0  0  0  0
  3 23  1  0  0  0  0
  4  5  1  0  0  0  0
  4 18  2  0  0  0  0
  5  6  1  0  0  0  0
  5 24  1  0  0  0  0
  6  7  2  0  0  0  0
  6  8  1  0  0  0  0
  8  9  1  0  0  0  0
  8 25  1  0  0  0  0
  9 15  1  0  0  0  0
  9 10  1  0  0  0  0
  9 26  1  0  0  0  0
 10 14  1  0  0  0  0
 10 11  1  0  0  0  0
 10 27  1  0  0  0  0
 11 12  1  0  0  0  0
 11 28  1  0  0  0  0
 11 29  1  0  0  0  0
 12 13  1  0  0  0  0
 12 30  1  0  0  0  0
 12 31  1  0  0  0  0
 13 14  1  0  0  0  0
 13 15  1  0  0  0  0
 13 32  1  0  0  0  0
 14 33  1  0  0  0  0
 14 34  1  0  0  0  0
 15 16  1  0  0  0  0
 15 35  1  0  0  0  0
 16 17  1  0  0  0  0
 16 36  1  0  0  0  0
 16 37  1  0  0  0  0
 17 38  1  0  0  0  0
 18 19  1  0  0  0  0
M  END
> <s_m_source_file>
AV-unprocessed.smi

> <i_m_source_file_index>
781

> <i_lp_mmshare_version>
43012

> <i_f3d_flags>
0

> <s_epik_input>
W0NIM11jMVtjSF1jKG5vMSlbTkhdQyg9TylbTkhdW0NASF0oW0NAQEhdMjMpW0NASF0oW0NIMl1bT0hdKVtDQEBIXShbQ0gyXTMpW0NIMl1bQ0gyXTI=

> <s_epik_cmdline>
J2VwaWtfcHl0aG9uJywgJy1waCcsICc3LjAnLCAnLXRuJywgJzgnLCAnLW1hJywgJzIwMCcsICctbWV0YWxfYmluZGluZycsICctaW1hZScsICc8aW5maWxlLm1hZT4nLCAnLW9tYWUnLCAnPG91dGZpbGUubWFlPic=

> <r_lp_tautomer_probability>
1

> <r_epik_Ionization_Penalty>
2.32222e-05

> <r_epik_Ionization_Penalty_Charging>
0

> <r_epik_Ionization_Penalty_Neutral>
2.32222e-05

> <r_epik_State_Penalty>
-0

> <r_epik_Charging_Adjusted_Penalty>
0

> <i_epik_Tot_Q>
0

> <i_epik_Tot_abs_Q>
0

> <r_epik_Metal_State_Penalty>
-0

> <b_epik_Metal_Only>
0

> <s_lp_Force_Field>
OPLS_2005

> <r_lp_Energy>
47.0606

> <b_lp_Chiralities_Consistent>
1

> <s_lp_Variant>
AV-unprocessed.smi:781-1

> <Gold.Version>
5.8.1

> <Gold.Id.Protein>
6NUR|6NUR_protein|mol2

> <Gold.PLP.Fitness>
43.4535

> <Gold.PLP.PLP>
-35.6836

> <Gold.PLP.part.hbond>
-3.0000

> <Gold.PLP.part.metal>
0.0000

> <Gold.PLP.part.buried>
-4.4934

> <Gold.PLP.part.nonpolar>
-28.2218

> <Gold.PLP.part.repulsive>
0.3353

> <Gold.PLP.ligand.clash>
0.0000

> <Gold.PLP.ligand.torsion>
0.6243

> <Gold.PLP.Chemscore.Hbond>
3.0000

> <Gold.PLP.Chemscore.CHOScore>
0.0000

> <Gold.PLP.Chemscore.Metal>
0.0000

> <Gold.Chemscore.Hbonds>
donor molecule, donor type, donor heavy atom, donor atom, acceptor molecule, acceptor atom, score
      L1  H     5    24       P1  8028  1.00
      L1  H     8    25       P1  8028  1.00
      P1  H  7989  7998       L1    17  1.00

> <Gold.PLP.Chemscore.Internal.Correction>
0.0185

> <Gold.Rescore>
     Score         DG    S(hbond)    S(metal)    S(lipo)     H(rot)  DE(clash)    DE(int)     intcor
     15.03     -19.04       2.76        0.00      77.70       1.86       0.16       3.85       ----

> <Gold.Chemscore.Fitness>
15.0278

> <Gold.Chemscore.DG>
-19.0438

> <Gold.Chemscore.ZeroCoef>
-5.4800

> <Gold.Chemscore.Hbond>
2.7638

> <Gold.Chemscore.Metal>
0.0000

> <Gold.Chemscore.Lipo>
77.7018

> <Gold.Chemscore.Internal_Hbond>
0.0000

> <Gold.Chemscore.DEClash>
0.1648

> <Gold.Chemscore.DEInternal>
3.8513

> <Gold.Chemscore.Rot>
1.8587

> <Gold.Chemscore.Internal.Correction>
   9.000000E+99

> <Gold.Chemscore.Hbonds>
donor molecule, donor type, donor heavy atom, donor atom, acceptor molecule, acceptor atom, score
      L1  H     5    24       P1  8028  0.98
      L1  H     8    25       P1  8028  0.94
      P1  H  7989  7998       L1    17  0.99

> <Gold.Chemscore.Hbond.Weighted>
-9.2310

> <Gold.Chemscore.Metal.Weighted>
-0.0000

> <Gold.Chemscore.Lipo.Weighted>
-9.0911

> <Gold.Chemscore.Internal_Hbond.Weighted>
0.0000

> <Gold.Chemscore.DEClash.Weighted>
0.1648

> <Gold.Chemscore.DEInternal.Weighted>
3.8513

> <Gold.Chemscore.Rot.Weighted>
4.7583

> <Gold.Chemscore.Internal.Correction.Weighted>
   9.000000E+99

> <Gold.Protein.RotatedTorsions>
[ 6907 6896 6895 6894 ] final   61.98 input  -60.11 | X-H torsion
[ 7974 7965 7964 7962 ] final -156.88 input  175.53 | X-H torsion
[ 8008 7997 7996 7995 ] final  -67.52 input   59.86 | X-H torsion
[ 10167 10162 10161 10158 ] final  -33.74 input  -65.29 | X-H torsion
[ 10718 10713 10712 10709 ] final   61.37 input   66.30 | X-H torsion
[ 10763 10752 10751 10750 ] final  132.68 input  -60.55 | X-H torsion
[ 11005 11000 10999 10996 ] final -172.15 input  -57.11 | X-H torsion

> <Gold.Protein.ActiveResidues>
 VAL166  LYS551  ARG553  GLY616  TRP617  ASP618  TYR619  PRO620  LYS621  CYS622 
 ASP623  PHE694  ASN695  SER759  ASP760  ASP761  ALA762  ILE779  LEU786  VAL792 
 PHE793  MET794  SER795  GLU796  ALA797  LYS798  CYS799  TRP800  GLU811  SER814 

> <Gold.Protein.RotatedAtoms>
  152.4134  134.6084  160.0018 H   0  0  0  0  0  0  0  0  0  0  0  0  # atno 6907 bound_to 6896
  151.6254  133.3330  159.3105 H   0  0  0  0  0  0  0  0  0  0  0  0  # atno 6908 bound_to 6896
  150.8024  134.7166  159.6679 H   0  0  0  0  0  0  0  0  0  0  0  0  # atno 6909 bound_to 6896
  144.7573  140.4047  143.6003 H   0  0  0  0  0  0  0  0  0  0  0  0  # atno 7974 bound_to 7965
  154.4806  140.0891  156.7367 H   0  0  0  0  0  0  0  0  0  0  0  0  # atno 8008 bound_to 7997
  155.4481  140.3456  155.4279 H   0  0  0  0  0  0  0  0  0  0  0  0  # atno 8009 bound_to 7997
  156.1185  140.1467  156.9227 H   0  0  0  0  0  0  0  0  0  0  0  0  # atno 8010 bound_to 7997
  140.7199  143.3598  151.1986 H   0  0  0  0  0  0  0  0  0  0  0  0  # atno 10167 bound_to 10162
  157.5823  130.8991  149.9453 H   0  0  0  0  0  0  0  0  0  0  0  0  # atno 10718 bound_to 10713
  153.7947  135.3150  155.3383 H   0  0  0  0  0  0  0  0  0  0  0  0  # atno 10763 bound_to 10752
  154.8112  135.4666  154.0525 H   0  0  0  0  0  0  0  0  0  0  0  0  # atno 10764 bound_to 10752
  153.1854  135.6900  153.8510 H   0  0  0  0  0  0  0  0  0  0  0  0  # atno 10765 bound_to 10752
  140.5002  134.5901  157.4985 H   0  0  0  0  0  0  0  0  0  0  0  0  # atno 11005 bound_to 11000
  145.6736  139.1604  143.2740 LP  0  0  0  0  0  0  0  0  0  0  0  0  # atno 17320 bound_to 7965
  146.1597  140.6805  142.9283 LP  0  0  0  0  0  0  0  0  0  0  0  0  # atno 17321 bound_to 7965
  139.7147  143.9319  152.2962 LP  0  0  0  0  0  0  0  0  0  0  0  0  # atno 17342 bound_to 10162
  139.9056  144.6886  150.8618 LP  0  0  0  0  0  0  0  0  0  0  0  0  # atno 17343 bound_to 10162
  156.0869  130.3667  150.0469 LP  0  0  0  0  0  0  0  0  0  0  0  0  # atno 17370 bound_to 10713
  156.8606  130.9490  151.3618 LP  0  0  0  0  0  0  0  0  0  0  0  0  # atno 17371 bound_to 10713
  139.9718  134.7281  156.0027 LP  0  0  0  0  0  0  0  0  0  0  0  0  # atno 17394 bound_to 11000
  141.1439  133.6559  156.3811 LP  0  0  0  0  0  0  0  0  0  0  0  0  # atno 17395 bound_to 11000

$$$$
