AV-unprocessed.smi:1648|AV-procd|sdf|6630|dock8
  -GOLD-   22720 7333D 1   1.00000     0.00000
 Structure written by MMmdl.
 42 42  0  0  0  0  0  0  0  0  2 V2000
  153.1318  137.7684  159.8913 C   0  0  0  0  0  0  0  0  0  0  0  0
  153.4511  139.1096  159.2282 C   0  0  0  0  0  0  0  0  0  0  0  0
  154.6002  139.3412  158.8606 O   0  0  0  0  0  0  0  0  0  0  0  0
  152.4681  140.0104  159.0561 N   0  0  0  0  0  0  0  0  0  0  0  0
  152.5775  141.3382  158.4468 C   0  0  1  0  0  0  0  0  0  0  0  0
  151.4583  141.4499  157.3960 C   0  0  0  0  0  0  0  0  0  0  0  0
  150.6133  142.3427  157.4779 O   0  0  0  0  0  0  0  0  0  0  0  0
  151.4587  140.5246  156.4233 N   0  0  0  0  0  0  0  0  0  0  0  0
  150.4690  140.4131  155.3528 C   0  0  1  0  0  0  0  0  0  0  0  0
  150.8723  139.2594  154.4254 C   0  0  0  0  0  0  0  0  0  0  0  0
  149.0501  140.1990  155.9259 C   0  0  0  0  0  0  0  0  0  0  0  0
  147.9879  140.6882  155.0386 N   0  0  0  0  0  0  0  0  0  0  0  0
  147.7929  141.9753  154.6065 C   0  0  0  0  0  0  0  0  0  0  0  0
  146.6767  141.9559  153.8105 C   0  0  0  0  0  0  0  0  0  0  0  0
  146.2442  140.6574  153.7807 N   0  3  0  0  0  0  0  0  0  0  0  0
  147.0482  139.8869  154.5197 C   0  0  0  0  0  0  0  0  0  0  0  0
  152.3829  142.4200  159.5494 C   0  0  0  0  0  0  0  0  0  0  0  0
  152.4651  143.8585  158.9979 C   0  0  0  0  0  0  0  0  0  0  0  0
  153.4031  142.2603  160.6938 C   0  0  0  0  0  0  0  0  0  0  0  0
  152.6525  137.9090  160.8595 H   0  0  0  0  0  0  0  0  0  0  0  0
  154.0437  137.1918  160.0501 H   0  0  0  0  0  0  0  0  0  0  0  0
  152.4686  137.1802  159.2567 H   0  0  0  0  0  0  0  0  0  0  0  0
  151.5375  139.7278  159.3285 H   0  0  0  0  0  0  0  0  0  0  0  0
  153.5547  141.4768  157.9809 H   0  0  0  0  0  0  0  0  0  0  0  0
  152.1977  139.8362  156.4306 H   0  0  0  0  0  0  0  0  0  0  0  0
  150.4740  141.3243  154.7518 H   0  0  0  0  0  0  0  0  0  0  0  0
  150.1768  139.1660  153.5908 H   0  0  0  0  0  0  0  0  0  0  0  0
  150.8841  138.3067  154.9564 H   0  0  0  0  0  0  0  0  0  0  0  0
  151.8665  139.4201  154.0069 H   0  0  0  0  0  0  0  0  0  0  0  0
  148.8652  139.1358  156.0846 H   0  0  0  0  0  0  0  0  0  0  0  0
  148.9470  140.6850  156.8976 H   0  0  0  0  0  0  0  0  0  0  0  0
  148.4399  142.7899  154.8985 H   0  0  0  0  0  0  0  0  0  0  0  0
  146.1718  142.7481  153.2768 H   0  0  0  0  0  0  0  0  0  0  0  0
  146.9494  138.8275  154.6731 H   0  0  0  0  0  0  0  0  0  0  0  0
  151.3914  142.2982  159.9893 H   0  0  0  0  0  0  0  0  0  0  0  0
  153.4226  144.0387  158.5081 H   0  0  0  0  0  0  0  0  0  0  0  0
  152.3615  144.5909  159.7990 H   0  0  0  0  0  0  0  0  0  0  0  0
  151.6760  144.0698  158.2760 H   0  0  0  0  0  0  0  0  0  0  0  0
  154.4259  142.3407  160.3245 H   0  0  0  0  0  0  0  0  0  0  0  0
  153.3056  141.2981  161.1968 H   0  0  0  0  0  0  0  0  0  0  0  0
  153.2646  143.0300  161.4536 H   0  0  0  0  0  0  0  0  0  0  0  0
  145.4342  140.3255  153.2720 H   0  0  0  0  0  0  0  0  0  0  0  0
  1  2  1  0  0  0  0
  1 20  1  0  0  0  0
  1 21  1  0  0  0  0
  1 22  1  0  0  0  0
  2  3  2  0  0  0  0
  2  4  1  0  0  0  0
  4  5  1  0  0  0  0
  4 23  1  0  0  0  0
  5  6  1  0  0  0  0
  5 17  1  0  0  0  0
  5 24  1  0  0  0  0
  6  7  2  0  0  0  0
  6  8  1  0  0  0  0
  8  9  1  0  0  0  0
  8 25  1  0  0  0  0
  9 10  1  0  0  0  0
  9 11  1  0  0  0  0
  9 26  1  0  0  0  0
 10 27  1  0  0  0  0
 10 28  1  0  0  0  0
 10 29  1  0  0  0  0
 11 12  1  0  0  0  0
 11 30  1  0  0  0  0
 11 31  1  0  0  0  0
 12 16  1  0  0  0  0
 12 13  1  0  0  0  0
 13 14  2  0  0  0  0
 13 32  1  0  0  0  0
 14 15  1  0  0  0  0
 14 33  1  0  0  0  0
 15 16  2  0  0  0  0
 15 42  1  0  0  0  0
 16 34  1  0  0  0  0
 17 18  1  0  0  0  0
 17 19  1  0  0  0  0
 17 35  1  0  0  0  0
 18 36  1  0  0  0  0
 18 37  1  0  0  0  0
 18 38  1  0  0  0  0
 19 39  1  0  0  0  0
 19 40  1  0  0  0  0
 19 41  1  0  0  0  0
M  CHG  1  15   1
M  END
> <s_m_source_file>
AV-unprocessed.smi

> <i_m_source_file_index>
1648

> <i_lp_mmshare_version>
43012

> <i_f3d_flags>
0

> <s_epik_input>
W0NIM11DKD1PKVtOSF1bQ0BASF0oW0NIXShbQ0gzXSlbQ0gzXSlDKD1PKVtOSF1bQ0BIXShbQ0gzXSlbQ0gyXW4xW2NIXVtjSF1uW2NIXTE=

> <s_epik_cmdline>
J2VwaWtfcHl0aG9uJywgJy1waCcsICc3LjAnLCAnLXRuJywgJzgnLCAnLW1hJywgJzIwMCcsICctbWV0YWxfYmluZGluZycsICctaW1hZScsICc8aW5maWxlLm1hZT4nLCAnLW9tYWUnLCAnPG91dGZpbGUubWFlPic=

> <r_lp_tautomer_probability>
1

> <r_epik_Ionization_Penalty>
0.251562

> <r_epik_Ionization_Penalty_Charging>
0

> <r_epik_Ionization_Penalty_Neutral>
0.251562

> <r_epik_State_Penalty>
0.242926

> <r_epik_Charging_Adjusted_Penalty>
0.242926

> <i_epik_Tot_Q>
1

> <i_epik_Tot_abs_Q>
1

> <r_epik_Metal_State_Penalty>
0.53388

> <b_epik_Metal_Only>
0

> <s_lp_Force_Field>
OPLS_2005

> <r_lp_Energy>
9.97271

> <b_lp_Chiralities_Consistent>
1

> <s_lp_Variant>
AV-unprocessed.smi:1648-4

> <Gold.Version>
5.8.1

> <Gold.Id.Protein>
6NUR|6NUR_protein|mol2

> <Gold.PLP.Fitness>
46.4038

> <Gold.PLP.PLP>
-35.1735

> <Gold.PLP.part.hbond>
-2.0000

> <Gold.PLP.part.metal>
0.0000

> <Gold.PLP.part.buried>
-4.3757

> <Gold.PLP.part.nonpolar>
-28.7165

> <Gold.PLP.part.repulsive>
0.3592

> <Gold.PLP.ligand.clash>
0.0000

> <Gold.PLP.ligand.torsion>
0.4176

> <Gold.PLP.Chemscore.Hbond>
3.0000

> <Gold.PLP.Chemscore.CHOScore>
1.0000

> <Gold.PLP.Chemscore.Metal>
0.0000

> <Gold.Chemscore.Hbonds>
donor molecule, donor type, donor heavy atom, donor atom, acceptor molecule, acceptor atom, score
      L1  H    15    42       P1 10175  2.00
      P1  H  7997  8009       L1     3  1.00
      L1  C    13    32       P1  8028  1.00

> <Gold.PLP.Chemscore.Internal.Correction>
0.0655

> <Gold.Rescore>
     Score         DG    S(hbond)    S(metal)    S(lipo)     H(rot)  DE(clash)    DE(int)     intcor
     14.26     -15.06       1.98        0.00      82.52       2.61       0.08       0.72       ----

> <Gold.Chemscore.Fitness>
14.2636

> <Gold.Chemscore.DG>
-15.0568

> <Gold.Chemscore.ZeroCoef>
-5.4800

> <Gold.Chemscore.Hbond>
1.9797

> <Gold.Chemscore.Metal>
0.0000

> <Gold.Chemscore.Lipo>
82.5223

> <Gold.Chemscore.Internal_Hbond>
0.0000

> <Gold.Chemscore.DEClash>
0.0774

> <Gold.Chemscore.DEInternal>
0.7157

> <Gold.Chemscore.Rot>
2.6135

> <Gold.Chemscore.Internal.Correction>
   9.000000E+99

> <Gold.Chemscore.Hbonds>
donor molecule, donor type, donor heavy atom, donor atom, acceptor molecule, acceptor atom, score
      L1  H    15    42       P1 10175  0.97
      P1  H  7997  8009       L1     3  1.00

> <Gold.Chemscore.Hbond.Weighted>
-6.6123

> <Gold.Chemscore.Metal.Weighted>
-0.0000

> <Gold.Chemscore.Lipo.Weighted>
-9.6551

> <Gold.Chemscore.Internal_Hbond.Weighted>
0.0000

> <Gold.Chemscore.DEClash.Weighted>
0.0774

> <Gold.Chemscore.DEInternal.Weighted>
0.7157

> <Gold.Chemscore.Rot.Weighted>
6.6906

> <Gold.Chemscore.Internal.Correction.Weighted>
   9.000000E+99

> <Gold.Protein.RotatedTorsions>
[ 6907 6896 6895 6894 ] final -146.96 input  -60.11 | X-H torsion
[ 7974 7965 7964 7962 ] final   92.63 input  175.53 | X-H torsion
[ 8008 7997 7996 7995 ] final  121.40 input   59.86 | X-H torsion
[ 10167 10162 10161 10158 ] final  140.32 input  -65.29 | X-H torsion
[ 10718 10713 10712 10709 ] final   55.26 input   66.30 | X-H torsion
[ 10763 10752 10751 10750 ] final  132.11 input  -60.55 | X-H torsion
[ 11005 11000 10999 10996 ] final   33.30 input  -57.11 | X-H torsion

> <Gold.Protein.ActiveResidues>
 VAL166  LYS551  ARG553  GLY616  TRP617  ASP618  TYR619  PRO620  LYS621  CYS622 
 ASP623  PHE694  ASN695  SER759  ASP760  ASP761  ALA762  ILE779  LEU786  VAL792 
 PHE793  MET794  SER795  GLU796  ALA797  LYS798  CYS799  TRP800  GLU811  SER814 

> <Gold.Protein.RotatedAtoms>
  151.1490  133.4920  159.2595 H   0  0  0  0  0  0  0  0  0  0  0  0  # atno 6907 bound_to 6896
  151.1574  135.0256  159.8705 H   0  0  0  0  0  0  0  0  0  0  0  0  # atno 6908 bound_to 6896
  152.5463  134.1367  159.8515 H   0  0  0  0  0  0  0  0  0  0  0  0  # atno 6909 bound_to 6896
  145.4897  139.2277  143.2837 H   0  0  0  0  0  0  0  0  0  0  0  0  # atno 7974 bound_to 7965
  156.2685  140.2809  156.1303 H   0  0  0  0  0  0  0  0  0  0  0  0  # atno 8008 bound_to 7997
  155.1062  140.0390  157.2728 H   0  0  0  0  0  0  0  0  0  0  0  0  # atno 8009 bound_to 7997
  154.6778  140.2602  155.6946 H   0  0  0  0  0  0  0  0  0  0  0  0  # atno 8010 bound_to 7997
  139.5052  144.6241  151.5979 H   0  0  0  0  0  0  0  0  0  0  0  0  # atno 10167 bound_to 10162
  157.5330  130.8643  149.8713 H   0  0  0  0  0  0  0  0  0  0  0  0  # atno 10718 bound_to 10713
  153.7853  135.3162  155.3371 H   0  0  0  0  0  0  0  0  0  0  0  0  # atno 10763 bound_to 10752
  154.8146  135.4645  154.0611 H   0  0  0  0  0  0  0  0  0  0  0  0  # atno 10764 bound_to 10752
  153.1912  135.6909  153.8435 H   0  0  0  0  0  0  0  0  0  0  0  0  # atno 10765 bound_to 10752
  140.2645  134.3153  155.7847 H   0  0  0  0  0  0  0  0  0  0  0  0  # atno 11005 bound_to 11000
  146.2291  140.5690  142.8983 LP  0  0  0  0  0  0  0  0  0  0  0  0  # atno 17320 bound_to 7965
  144.7841  140.5900  143.6586 LP  0  0  0  0  0  0  0  0  0  0  0  0  # atno 17321 bound_to 7965
  140.5953  143.9707  150.6350 LP  0  0  0  0  0  0  0  0  0  0  0  0  # atno 17342 bound_to 10162
  140.2901  143.3330  152.1070 LP  0  0  0  0  0  0  0  0  0  0  0  0  # atno 17343 bound_to 10162
  156.0437  130.3733  150.1372 LP  0  0  0  0  0  0  0  0  0  0  0  0  # atno 17370 bound_to 10713
  156.9556  130.9788  151.3489 LP  0  0  0  0  0  0  0  0  0  0  0  0  # atno 17371 bound_to 10713
  141.2186  133.7429  156.9239 LP  0  0  0  0  0  0  0  0  0  0  0  0  # atno 17394 bound_to 11000
  140.1432  134.9279  157.2495 LP  0  0  0  0  0  0  0  0  0  0  0  0  # atno 17395 bound_to 11000

$$$$
