AV-unprocessed.smi:2408|AV-procd|sdf|9520|dock3
  -GOLD-   2272013153D 1   1.00000     0.00000
 Structure written by MMmdl.
 47 49  0  0  0  0  0  0  0  0  1 V2000
  148.9505  139.4055  153.6774 C   0  0  0  0  0  0  0  0  0  0  0  0
  150.1218  139.1949  154.6212 C   0  0  0  0  0  0  0  0  0  0  0  0
  150.7090  140.3235  155.0782 N   0  0  0  0  0  0  0  0  0  0  0  0
  151.7551  140.2030  155.9220 C   0  0  0  0  0  0  0  0  0  0  0  0
  152.2671  138.9613  156.3426 C   0  0  0  0  0  0  0  0  0  0  0  0
  151.6543  137.7870  155.8665 C   0  0  0  0  0  0  0  0  0  0  0  0
  150.5456  137.8953  154.9928 C   0  0  0  0  0  0  0  0  0  0  0  0
  149.8813  136.7629  154.4467 N   0  0  0  0  0  0  0  0  0  0  0  0
  149.6244  135.5907  155.0501 C   0  0  0  0  0  0  0  0  0  0  0  0
  149.9460  135.3031  156.2030 O   0  0  0  0  0  0  0  0  0  0  0  0
  148.9268  134.7730  154.2418 N   0  0  0  0  0  0  0  0  0  0  0  0
  148.4057  133.4264  154.5433 C   0  0  0  0  0  0  0  0  0  0  0  0
  147.5790  132.8181  153.3735 C   0  0  0  0  0  0  0  0  0  0  0  0
  147.0993  131.6885  153.4820 O   0  0  0  0  0  0  0  0  0  0  0  0
  147.4288  133.5482  152.2562 N   0  0  0  0  0  0  0  0  0  0  0  0
  146.6830  133.1352  151.0781 C   0  0  0  0  0  0  0  0  0  0  0  0
  145.1871  133.0625  151.3021 C   0  0  0  0  0  0  0  0  0  0  0  0
  144.2315  133.0826  150.1322 C   0  0  0  0  0  0  0  0  0  0  0  0
  144.3056  134.2666  151.0665 C   0  0  0  0  0  0  0  0  0  0  0  0
  149.6100  132.4966  154.8310 C   0  0  0  0  0  0  0  0  0  0  0  0
  149.1733  131.5580  155.9537 C   0  0  0  0  0  0  0  0  0  0  0  0
  148.2974  132.4344  156.8380 C   0  0  0  0  0  0  0  0  0  0  0  0
  147.6048  133.4156  155.8841 C   0  0  0  0  0  0  0  0  0  0  0  0
  148.0527  138.9317  154.0751 H   0  0  0  0  0  0  0  0  0  0  0  0
  149.1672  138.9709  152.7014 H   0  0  0  0  0  0  0  0  0  0  0  0
  148.7349  140.4653  153.5350 H   0  0  0  0  0  0  0  0  0  0  0  0
  152.2013  141.1237  156.2673 H   0  0  0  0  0  0  0  0  0  0  0  0
  153.1135  138.9107  157.0114 H   0  0  0  0  0  0  0  0  0  0  0  0
  152.0507  136.8285  156.1657 H   0  0  0  0  0  0  0  0  0  0  0  0
  149.4690  136.8966  153.5350 H   0  0  0  0  0  0  0  0  0  0  0  0
  148.7167  135.1198  153.3175 H   0  0  0  0  0  0  0  0  0  0  0  0
  147.8484  134.4662  152.2321 H   0  0  0  0  0  0  0  0  0  0  0  0
  146.8956  133.8229  150.2580 H   0  0  0  0  0  0  0  0  0  0  0  0
  147.0280  132.1489  150.7642 H   0  0  0  0  0  0  0  0  0  0  0  0
  144.9010  132.4110  152.1261 H   0  0  0  0  0  0  0  0  0  0  0  0
  144.6514  133.2031  149.1355 H   0  0  0  0  0  0  0  0  0  0  0  0
  143.3491  132.4487  150.1936 H   0  0  0  0  0  0  0  0  0  0  0  0
  143.4753  134.4208  151.7523 H   0  0  0  0  0  0  0  0  0  0  0  0
  144.7740  135.1739  150.6899 H   0  0  0  0  0  0  0  0  0  0  0  0
  149.9495  131.9416  153.9545 H   0  0  0  0  0  0  0  0  0  0  0  0
  150.4661  133.0777  155.1788 H   0  0  0  0  0  0  0  0  0  0  0  0
  148.5845  130.7353  155.5455 H   0  0  0  0  0  0  0  0  0  0  0  0
  150.0169  131.1276  156.4941 H   0  0  0  0  0  0  0  0  0  0  0  0
  147.5882  131.8539  157.4288 H   0  0  0  0  0  0  0  0  0  0  0  0
  148.9281  132.9894  157.5338 H   0  0  0  0  0  0  0  0  0  0  0  0
  147.5551  134.3962  156.3582 H   0  0  0  0  0  0  0  0  0  0  0  0
  146.5683  133.1098  155.7346 H   0  0  0  0  0  0  0  0  0  0  0  0
  1  2  1  0  0  0  0
  1 24  1  0  0  0  0
  1 25  1  0  0  0  0
  1 26  1  0  0  0  0
  2  7  1  0  0  0  0
  2  3  2  0  0  0  0
  3  4  1  0  0  0  0
  4  5  2  0  0  0  0
  4 27  1  0  0  0  0
  5  6  1  0  0  0  0
  5 28  1  0  0  0  0
  6  7  2  0  0  0  0
  6 29  1  0  0  0  0
  7  8  1  0  0  0  0
  8  9  1  0  0  0  0
  8 30  1  0  0  0  0
  9 10  2  0  0  0  0
  9 11  1  0  0  0  0
 11 12  1  0  0  0  0
 11 31  1  0  0  0  0
 12 23  1  0  0  0  0
 12 13  1  0  0  0  0
 12 20  1  0  0  0  0
 13 14  2  0  0  0  0
 13 15  1  0  0  0  0
 15 16  1  0  0  0  0
 15 32  1  0  0  0  0
 16 17  1  0  0  0  0
 16 33  1  0  0  0  0
 16 34  1  0  0  0  0
 17 19  1  0  0  0  0
 17 18  1  0  0  0  0
 17 35  1  0  0  0  0
 18 19  1  0  0  0  0
 18 36  1  0  0  0  0
 18 37  1  0  0  0  0
 19 38  1  0  0  0  0
 19 39  1  0  0  0  0
 20 21  1  0  0  0  0
 20 40  1  0  0  0  0
 20 41  1  0  0  0  0
 21 22  1  0  0  0  0
 21 42  1  0  0  0  0
 21 43  1  0  0  0  0
 22 23  1  0  0  0  0
 22 44  1  0  0  0  0
 22 45  1  0  0  0  0
 23 46  1  0  0  0  0
 23 47  1  0  0  0  0
M  END
> <s_m_source_file>
AV-unprocessed.smi

> <i_m_source_file_index>
2408

> <i_lp_mmshare_version>
43012

> <i_f3d_flags>
0

> <s_epik_input>
W0NIM11jMW5bY0hdW2NIXVtjSF1jMVtOSF1DKD1PKVtOSF1DMihbQ0gyXVtDSDJdW0NIMl1bQ0gyXTIpQyg9TylbTkhdW0NIMl1bQ0hdM1tDSDJdW0NIMl0z

> <s_epik_cmdline>
J2VwaWtfcHl0aG9uJywgJy1waCcsICc3LjAnLCAnLXRuJywgJzgnLCAnLW1hJywgJzIwMCcsICctbWV0YWxfYmluZGluZycsICctaW1hZScsICc8aW5maWxlLm1hZT4nLCAnLW9tYWUnLCAnPG91dGZpbGUubWFlPic=

> <r_epik_Ionization_Penalty>
0.0173464

> <r_epik_Ionization_Penalty_Charging>
0

> <r_epik_Ionization_Penalty_Neutral>
0.0173464

> <r_epik_State_Penalty>
0.0137159

> <r_epik_Charging_Adjusted_Penalty>
0.0137159

> <i_epik_Tot_Q>
0

> <i_epik_Tot_abs_Q>
0

> <r_epik_Metal_State_Penalty>
0.0133255

> <b_epik_Metal_Only>
0

> <s_lp_Force_Field>
OPLS_2005

> <r_lp_Energy>
32.4155

> <b_lp_Chiralities_Consistent>
1

> <s_lp_Variant>
AV-unprocessed.smi:2408-1

> <Gold.Version>
5.8.1

> <Gold.Id.Protein>
6NUR|6NUR_protein|mol2

> <Gold.PLP.Fitness>
46.9437

> <Gold.PLP.PLP>
-35.8967

> <Gold.PLP.part.hbond>
-4.5528

> <Gold.PLP.part.metal>
0.0000

> <Gold.PLP.part.buried>
-2.0696

> <Gold.PLP.part.nonpolar>
-30.3085

> <Gold.PLP.part.repulsive>
0.2640

> <Gold.PLP.ligand.clash>
0.0000

> <Gold.PLP.ligand.torsion>
0.6630

> <Gold.PLP.Chemscore.Hbond>
3.9100

> <Gold.PLP.Chemscore.CHOScore>
0.0000

> <Gold.PLP.Chemscore.Metal>
0.0000

> <Gold.Chemscore.Hbonds>
donor molecule, donor type, donor heavy atom, donor atom, acceptor molecule, acceptor atom, score
      L1  H     8    30       P1  7948  1.00
      L1  H    11    31       P1  7948  1.00
      L1  H    15    32       P1  7948  0.91
      P1  H  7989  7998       L1     3  1.00

> <Gold.PLP.Chemscore.Internal.Correction>
0.6429

> <Gold.Rescore>
     Score         DG    S(hbond)    S(metal)    S(lipo)     H(rot)  DE(clash)    DE(int)     intcor
     16.02     -18.60       2.24        0.00      83.04       1.59       0.02       2.55       ----

> <Gold.Chemscore.Fitness>
16.0190

> <Gold.Chemscore.DG>
-18.5979

> <Gold.Chemscore.ZeroCoef>
-5.4800

> <Gold.Chemscore.Hbond>
2.2405

> <Gold.Chemscore.Metal>
0.0000

> <Gold.Chemscore.Lipo>
83.0387

> <Gold.Chemscore.Internal_Hbond>
0.0000

> <Gold.Chemscore.DEClash>
0.0249

> <Gold.Chemscore.DEInternal>
2.5539

> <Gold.Chemscore.Rot>
1.5941

> <Gold.Chemscore.Internal.Correction>
   9.000000E+99

> <Gold.Chemscore.Hbonds>
donor molecule, donor type, donor heavy atom, donor atom, acceptor molecule, acceptor atom, score
      L1  H     8    30       P1  7948  0.83
      L1  H    11    31       P1  7948  0.68
      L1  H    15    32       P1  7948  0.35
      P1  H  7989  7998       L1     3  0.06

> <Gold.Chemscore.Hbond.Weighted>
-7.4833

> <Gold.Chemscore.Metal.Weighted>
-0.0000

> <Gold.Chemscore.Lipo.Weighted>
-9.7155

> <Gold.Chemscore.Internal_Hbond.Weighted>
0.0000

> <Gold.Chemscore.DEClash.Weighted>
0.0249

> <Gold.Chemscore.DEInternal.Weighted>
2.5539

> <Gold.Chemscore.Rot.Weighted>
4.0809

> <Gold.Chemscore.Internal.Correction.Weighted>
   9.000000E+99

> <Gold.Protein.RotatedTorsions>
[ 6907 6896 6895 6894 ] final -176.29 input  -60.11 | X-H torsion
[ 7974 7965 7964 7962 ] final  147.35 input  175.53 | X-H torsion
[ 8008 7997 7996 7995 ] final  -15.99 input   59.86 | X-H torsion
[ 10167 10162 10161 10158 ] final   34.97 input  -65.29 | X-H torsion
[ 10718 10713 10712 10709 ] final  133.10 input   66.30 | X-H torsion
[ 10763 10752 10751 10750 ] final -142.41 input  -60.55 | X-H torsion
[ 11005 11000 10999 10996 ] final  -69.79 input  -57.11 | X-H torsion

> <Gold.Protein.ActiveResidues>
 VAL166  LYS551  ARG553  GLY616  TRP617  ASP618  TYR619  PRO620  LYS621  CYS622 
 ASP623  PHE694  ASN695  SER759  ASP760  ASP761  ALA762  ILE779  LEU786  VAL792 
 PHE793  MET794  SER795  GLU796  ALA797  LYS798  CYS799  TRP800  GLU811  SER814 

> <Gold.Protein.RotatedAtoms>
  151.6023  133.3355  159.3049 H   0  0  0  0  0  0  0  0  0  0  0  0  # atno 6907 bound_to 6896
  150.8201  134.7407  159.6776 H   0  0  0  0  0  0  0  0  0  0  0  0  # atno 6908 bound_to 6896
  152.4295  134.5811  159.9999 H   0  0  0  0  0  0  0  0  0  0  0  0  # atno 6909 bound_to 6896
  144.8598  139.6018  143.5936 H   0  0  0  0  0  0  0  0  0  0  0  0  # atno 7974 bound_to 7965
  154.5087  140.2181  155.9199 H   0  0  0  0  0  0  0  0  0  0  0  0  # atno 8008 bound_to 7997
  156.1526  140.3158  155.8639 H   0  0  0  0  0  0  0  0  0  0  0  0  # atno 8009 bound_to 7997
  155.3910  140.0478  157.3031 H   0  0  0  0  0  0  0  0  0  0  0  0  # atno 8010 bound_to 7997
  140.4265  144.1385  150.6154 H   0  0  0  0  0  0  0  0  0  0  0  0  # atno 10167 bound_to 10162
  157.4806  131.1085  150.9686 H   0  0  0  0  0  0  0  0  0  0  0  0  # atno 10718 bound_to 10713
  154.8510  135.3497  154.6023 H   0  0  0  0  0  0  0  0  0  0  0  0  # atno 10763 bound_to 10752
  153.6632  135.6988  153.5175 H   0  0  0  0  0  0  0  0  0  0  0  0  # atno 10764 bound_to 10752
  153.2801  135.4266  155.1027 H   0  0  0  0  0  0  0  0  0  0  0  0  # atno 10765 bound_to 10752
  141.1561  133.6773  156.6653 H   0  0  0  0  0  0  0  0  0  0  0  0  # atno 11005 bound_to 11000
  146.2852  139.6983  142.9201 LP  0  0  0  0  0  0  0  0  0  0  0  0  # atno 17320 bound_to 7965
  145.4334  141.0417  143.2898 LP  0  0  0  0  0  0  0  0  0  0  0  0  # atno 17321 bound_to 7965
  140.4475  143.2500  151.9392 LP  0  0  0  0  0  0  0  0  0  0  0  0  # atno 17342 bound_to 10162
  139.4783  144.5594  151.8262 LP  0  0  0  0  0  0  0  0  0  0  0  0  # atno 17343 bound_to 10162
  157.0420  130.5753  149.5357 LP  0  0  0  0  0  0  0  0  0  0  0  0  # atno 17370 bound_to 10713
  156.0120  130.5212  150.8017 LP  0  0  0  0  0  0  0  0  0  0  0  0  # atno 17371 bound_to 10713
  140.3216  134.8003  157.4257 LP  0  0  0  0  0  0  0  0  0  0  0  0  # atno 17394 bound_to 11000
  140.1092  134.5368  155.8282 LP  0  0  0  0  0  0  0  0  0  0  0  0  # atno 17395 bound_to 11000

$$$$
