AV-unprocessed.smi:102|AV-procd|sdf|948|dock4
  -GOLD-   2262017473D 1   1.00000     0.00000
 Structure written by MMmdl.
 44 45  0  0  0  0  0  0  0  0  1 V2000
  155.1089  136.4665  158.8280 C   0  0  0  0  0  0  0  0  0  0  0  0
  154.2268  137.5518  158.2239 C   0  0  0  0  0  0  0  0  0  0  0  0
  154.4918  138.7457  158.3657 O   0  0  0  0  0  0  0  0  0  0  0  0
  153.1780  137.0522  157.5528 O   0  0  0  0  0  0  0  0  0  0  0  0
  152.2372  137.9376  156.9693 C   0  0  0  0  0  0  0  0  0  0  0  0
  151.8164  137.3999  155.5880 C   0  0  1  0  0  0  0  0  0  0  0  0
  151.8131  135.9766  155.6191 O   0  0  0  0  0  0  0  0  0  0  0  0
  150.5874  135.5246  156.1106 C   0  0  2  0  0  0  0  0  0  0  0  0
  150.2294  134.2322  155.4121 N   0  0  0  0  0  0  0  0  0  0  0  0
  149.4077  134.2481  154.2928 C   0  0  0  0  0  0  0  0  0  0  0  0
  149.0224  133.1244  153.6429 C   0  0  0  0  0  0  0  0  0  0  0  0
  148.2299  133.2220  152.5621 F   0  0  0  0  0  0  0  0  0  0  0  0
  149.4549  131.8099  154.1078 C   0  0  0  0  0  0  0  0  0  0  0  0
  149.1658  130.7368  153.5822 O   0  0  0  0  0  0  0  0  0  0  0  0
  150.2575  131.8393  155.2516 N   0  0  0  0  0  0  0  0  0  0  0  0
  150.6559  132.9895  155.9350 C   0  0  0  0  0  0  0  0  0  0  0  0
  151.3449  132.8887  156.9481 O   0  0  0  0  0  0  0  0  0  0  0  0
  149.5451  136.6387  155.8920 C   0  0  1  0  0  0  0  0  0  0  0  0
  149.0525  137.0593  157.1618 O   0  0  0  0  0  0  0  0  0  0  0  0
  148.6434  136.1560  158.0700 C   0  0  0  0  0  0  0  0  0  0  0  0
  148.2194  136.8049  159.3805 C   0  0  0  0  0  0  0  0  0  0  0  0
  148.5890  134.9370  157.9090 O   0  0  0  0  0  0  0  0  0  0  0  0
  150.3680  137.7232  155.1962 C   0  0  1  0  0  0  0  0  0  0  0  0
  149.9470  139.0418  155.5321 O   0  0  0  0  0  0  0  0  0  0  0  0
  150.6916  140.1038  155.1821 C   0  0  0  0  0  0  0  0  0  0  0  0
  149.9187  141.4118  155.2850 C   0  0  0  0  0  0  0  0  0  0  0  0
  151.8684  140.0773  154.8224 O   0  0  0  0  0  0  0  0  0  0  0  0
  150.5700  130.9522  155.6189 H   0  0  0  0  0  0  0  0  0  0  0  0
  154.7966  135.4772  158.4923 H   0  0  0  0  0  0  0  0  0  0  0  0
  155.0507  136.4971  159.9160 H   0  0  0  0  0  0  0  0  0  0  0  0
  156.1475  136.6173  158.5333 H   0  0  0  0  0  0  0  0  0  0  0  0
  151.3751  138.0653  157.6249 H   0  0  0  0  0  0  0  0  0  0  0  0
  152.7096  138.9146  156.8607 H   0  0  0  0  0  0  0  0  0  0  0  0
  152.5065  137.7629  154.8256 H   0  0  0  0  0  0  0  0  0  0  0  0
  150.7099  135.2729  157.1654 H   0  0  0  0  0  0  0  0  0  0  0  0
  149.0544  135.1938  153.9074 H   0  0  0  0  0  0  0  0  0  0  0  0
  148.7385  136.2798  155.2517 H   0  0  0  0  0  0  0  0  0  0  0  0
  148.9938  137.4848  159.7364 H   0  0  0  0  0  0  0  0  0  0  0  0
  148.0472  136.0472  160.1455 H   0  0  0  0  0  0  0  0  0  0  0  0
  147.2978  137.3702  159.2409 H   0  0  0  0  0  0  0  0  0  0  0  0
  150.2620  137.5739  154.1212 H   0  0  0  0  0  0  0  0  0  0  0  0
  148.9128  141.2925  154.8820 H   0  0  0  0  0  0  0  0  0  0  0  0
  150.4239  142.2000  154.7262 H   0  0  0  0  0  0  0  0  0  0  0  0
  149.8405  141.7214  156.3273 H   0  0  0  0  0  0  0  0  0  0  0  0
  1  2  1  0  0  0  0
  1 29  1  0  0  0  0
  1 30  1  0  0  0  0
  1 31  1  0  0  0  0
  2  3  2  0  0  0  0
  2  4  1  0  0  0  0
  4  5  1  0  0  0  0
  5  6  1  0  0  0  0
  5 32  1  0  0  0  0
  5 33  1  0  0  0  0
  6 23  1  0  0  0  0
  6  7  1  0  0  0  0
  6 34  1  0  0  0  0
  7  8  1  0  0  0  0
  8  9  1  0  0  0  0
  8 18  1  0  0  0  0
  8 35  1  0  0  0  0
  9 16  1  0  0  0  0
  9 10  1  0  0  0  0
 10 11  2  0  0  0  0
 10 36  1  0  0  0  0
 11 12  1  0  0  0  0
 11 13  1  0  0  0  0
 13 14  2  0  0  0  0
 13 15  1  0  0  0  0
 15 28  1  0  0  0  0
 15 16  1  0  0  0  0
 16 17  2  0  0  0  0
 18 19  1  0  0  0  0
 18 23  1  0  0  0  0
 18 37  1  0  0  0  0
 19 20  1  0  0  0  0
 20 21  1  0  0  0  0
 20 22  2  0  0  0  0
 21 38  1  0  0  0  0
 21 39  1  0  0  0  0
 21 40  1  0  0  0  0
 23 24  1  0  0  0  0
 23 41  1  0  0  0  0
 24 25  1  0  0  0  0
 25 26  1  0  0  0  0
 25 27  2  0  0  0  0
 26 42  1  0  0  0  0
 26 43  1  0  0  0  0
 26 44  1  0  0  0  0
M  END
> <s_m_source_file>
AV-unprocessed.smi

> <i_m_source_file_index>
102

> <i_lp_mmshare_version>
43012

> <i_f3d_flags>
0

> <s_epik_input>
W0NIM11DKD1PKU9bQ0gyXVtDQEBIXTFPW0NASF0oW0NAQEhdKE9DKD1PKVtDSDNdKVtDQEhdMU9DKD1PKVtDSDNdKW4yW2NIXWMoRiljKD1PKVtuSF1jMj1P

> <s_epik_cmdline>
J2VwaWtfcHl0aG9uJywgJy1waCcsICc3LjAnLCAnLXRuJywgJzgnLCAnLW1hJywgJzIwMCcsICctbWV0YWxfYmluZGluZycsICctaW1hZScsICc8aW5maWxlLm1hZT4nLCAnLW9tYWUnLCAnPG91dGZpbGUubWFlPic=

> <r_lp_tautomer_probability>
0.999537

> <r_epik_Ionization_Penalty>
0.058267

> <r_epik_Ionization_Penalty_Charging>
0.058267

> <r_epik_Ionization_Penalty_Neutral>
6.57791e-16

> <r_epik_State_Penalty>
0.0503774

> <r_epik_Charging_Adjusted_Penalty>
0.108644

> <i_epik_Tot_Q>
0

> <i_epik_Tot_abs_Q>
0

> <r_epik_Metal_State_Penalty>
2.6644

> <b_epik_Metal_Only>
0

> <s_epik_Chemistry_Notes>
This compound has an ester and may undergo hydrolysis at high or low pH. This compound contains an acetal/aminal-like group ( X-CH(R)-Y where X, Y are N, S, or O) that may be acid/base labile, releasing an aldehyde.

> <s_lp_Force_Field>
OPLS_2005

> <r_lp_Energy>
11.7279

> <b_lp_Chiralities_Consistent>
1

> <s_lp_Variant>
AV-unprocessed.smi:102-4

> <Gold.Version>
5.8.1

> <Gold.Id.Protein>
6NUR|6NUR_protein|mol2

> <Gold.PLP.Fitness>
45.1657

> <Gold.PLP.PLP>
-34.4253

> <Gold.PLP.part.hbond>
-4.0312

> <Gold.PLP.part.metal>
0.0000

> <Gold.PLP.part.buried>
-5.4616

> <Gold.PLP.part.nonpolar>
-25.1821

> <Gold.PLP.part.repulsive>
0.2101

> <Gold.PLP.ligand.clash>
0.0000

> <Gold.PLP.ligand.torsion>
1.7536

> <Gold.PLP.Chemscore.Hbond>
3.7760

> <Gold.PLP.Chemscore.CHOScore>
0.9311

> <Gold.PLP.Chemscore.Metal>
0.0000

> <Gold.Chemscore.Hbonds>
donor molecule, donor type, donor heavy atom, donor atom, acceptor molecule, acceptor atom, score
      P1  H  6896  6908       L1    17  0.22
      P1  H  7989  7998       L1    27  0.78
      P1  H  7997  8008       L1     3  1.00
      P1  H 10752 10764       L1     7  0.94
      L1  C    10    36       P1  7948  1.00

> <Gold.PLP.Chemscore.Internal.Correction>
0.1261

> <Gold.Rescore>
     Score         DG    S(hbond)    S(metal)    S(lipo)     H(rot)  DE(clash)    DE(int)     intcor
      9.24     -12.39       3.74        0.00      40.96       4.05       0.00       3.15       ----

> <Gold.Chemscore.Fitness>
9.2394

> <Gold.Chemscore.DG>
-12.3860

> <Gold.Chemscore.ZeroCoef>
-5.4800

> <Gold.Chemscore.Hbond>
3.7386

> <Gold.Chemscore.Metal>
0.0000

> <Gold.Chemscore.Lipo>
40.9601

> <Gold.Chemscore.Internal_Hbond>
0.0000

> <Gold.Chemscore.DEClash>
0.0000

> <Gold.Chemscore.DEInternal>
3.1466

> <Gold.Chemscore.Rot>
4.0520

> <Gold.Chemscore.Internal.Correction>
   9.000000E+99

> <Gold.Chemscore.Hbonds>
donor molecule, donor type, donor heavy atom, donor atom, acceptor molecule, acceptor atom, score
      P1  H  6896  6908       L1    17  0.23
      P1  H  7989  7998       L1    27  0.12
      P1  H  7997  8008       L1     3  0.95
      P1  H 10752 10764       L1     7  0.63

> <Gold.Chemscore.Hbond.Weighted>
-12.4868

> <Gold.Chemscore.Metal.Weighted>
-0.0000

> <Gold.Chemscore.Lipo.Weighted>
-4.7923

> <Gold.Chemscore.Internal_Hbond.Weighted>
0.0000

> <Gold.Chemscore.DEClash.Weighted>
0.0000

> <Gold.Chemscore.DEInternal.Weighted>
3.1466

> <Gold.Chemscore.Rot.Weighted>
10.3732

> <Gold.Chemscore.Internal.Correction.Weighted>
   9.000000E+99

> <Gold.Protein.RotatedTorsions>
[ 6907 6896 6895 6894 ] final   67.61 input  -60.11 | X-H torsion
[ 7974 7965 7964 7962 ] final    0.32 input  175.53 | X-H torsion
[ 8008 7997 7996 7995 ] final -128.09 input   59.86 | X-H torsion
[ 10167 10162 10161 10158 ] final -115.37 input  -65.29 | X-H torsion
[ 10718 10713 10712 10709 ] final   38.14 input   66.30 | X-H torsion
[ 10763 10752 10751 10750 ] final  -20.54 input  -60.55 | X-H torsion
[ 11005 11000 10999 10996 ] final  122.90 input  -57.11 | X-H torsion

> <Gold.Protein.ActiveResidues>
 VAL166  LYS551  ARG553  GLY616  TRP617  ASP618  TYR619  PRO620  LYS621  CYS622 
 ASP623  PHE694  ASN695  SER759  ASP760  ASP761  ALA762  ILE779  LEU786  VAL792 
 PHE793  MET794  SER795  GLU796  ALA797  LYS798  CYS799  TRP800  GLU811  SER814 

> <Gold.Protein.RotatedAtoms>
  152.4563  134.5283  159.9803 H   0  0  0  0  0  0  0  0  0  0  0  0  # atno 6907 bound_to 6896
  151.5343  133.3438  159.2932 H   0  0  0  0  0  0  0  0  0  0  0  0  # atno 6908 bound_to 6896
  150.8509  134.7864  159.7070 H   0  0  0  0  0  0  0  0  0  0  0  0  # atno 6909 bound_to 6896
  146.2433  140.1155  142.8342 H   0  0  0  0  0  0  0  0  0  0  0  0  # atno 7974 bound_to 7965
  155.2569  140.0434  157.2993 H   0  0  0  0  0  0  0  0  0  0  0  0  # atno 8008 bound_to 7997
  154.5735  140.2380  155.8127 H   0  0  0  0  0  0  0  0  0  0  0  0  # atno 8009 bound_to 7997
  156.2140  140.2990  155.9805 H   0  0  0  0  0  0  0  0  0  0  0  0  # atno 8010 bound_to 7997
  140.0908  143.4701  152.1871 H   0  0  0  0  0  0  0  0  0  0  0  0  # atno 10167 bound_to 10162
  157.3552  130.7620  149.7007 H   0  0  0  0  0  0  0  0  0  0  0  0  # atno 10718 bound_to 10713
  153.6221  135.6992  153.5307 H   0  0  0  0  0  0  0  0  0  0  0  0  # atno 10763 bound_to 10752
  153.2929  135.4151  155.1183 H   0  0  0  0  0  0  0  0  0  0  0  0  # atno 10764 bound_to 10752
  154.8541  135.3630  154.5762 H   0  0  0  0  0  0  0  0  0  0  0  0  # atno 10765 bound_to 10752
  139.9288  134.9641  156.8178 H   0  0  0  0  0  0  0  0  0  0  0  0  # atno 11005 bound_to 11000
  145.0451  140.8975  143.5029 LP  0  0  0  0  0  0  0  0  0  0  0  0  # atno 17320 bound_to 7965
  145.1243  139.2673  143.5572 LP  0  0  0  0  0  0  0  0  0  0  0  0  # atno 17321 bound_to 7965
  139.5726  144.7470  151.3851 LP  0  0  0  0  0  0  0  0  0  0  0  0  # atno 17342 bound_to 10162
  140.7029  143.7586  150.7433 LP  0  0  0  0  0  0  0  0  0  0  0  0  # atno 17343 bound_to 10162
  155.9728  130.4129  150.4056 LP  0  0  0  0  0  0  0  0  0  0  0  0  # atno 17370 bound_to 10713
  157.2125  131.0463  151.2591 LP  0  0  0  0  0  0  0  0  0  0  0  0  # atno 17371 bound_to 10713
  140.6259  133.9951  155.7639 LP  0  0  0  0  0  0  0  0  0  0  0  0  # atno 17394 bound_to 11000
  141.0864  133.9984  157.3306 LP  0  0  0  0  0  0  0  0  0  0  0  0  # atno 17395 bound_to 11000

$$$$
