AV-unprocessed.smi:293|AV-procd|sdf|2251|dock6
  -GOLD-   2262022133D 1   1.00000     0.00000
 Structure written by MMmdl.
 32 33  0  0  0  0  0  0  0  0  1 V2000
  153.8785  135.4425  156.9435 N   0  0  0  0  0  0  0  0  0  0  0  0
  153.5934  136.0326  157.8975 C   0  0  0  0  0  0  0  0  0  0  0  0
  153.2352  136.7734  159.0951 C   0  0  0  0  0  0  0  0  0  0  0  0
  152.2997  136.3042  159.9710 N   0  0  0  0  0  0  0  0  0  0  0  0
  152.3339  137.2915  160.8577 C   0  0  0  0  0  0  0  0  0  0  0  0
  153.2007  138.2638  160.5548 N   0  0  0  0  0  0  0  0  0  0  0  0
  153.5356  139.4837  161.2672 C   0  0  0  0  0  0  0  0  0  0  0  0
  153.4979  140.6939  160.3331 C   0  0  0  0  0  0  0  0  0  0  0  0
  153.7756  140.5604  159.1416 O   0  0  0  0  0  0  0  0  0  0  0  0
  153.1484  141.8657  160.8871 N   0  0  0  0  0  0  0  0  0  0  0  0
  153.0185  143.1336  160.1770 C   0  0  0  0  0  0  0  0  0  0  0  0
  152.2290  144.1302  161.0472 C   0  0  0  0  0  0  0  0  0  0  0  0
  152.0046  145.4641  160.3169 C   0  0  0  0  0  0  0  0  0  0  0  0
  151.3091  145.2481  158.9639 C   0  0  0  0  0  0  0  0  0  0  0  0
  152.0963  144.2607  158.0882 C   0  0  0  0  0  0  0  0  0  0  0  0
  152.3215  142.9253  158.8157 C   0  0  0  0  0  0  0  0  0  0  0  0
  153.8088  137.9388  159.3874 N   0  0  0  0  0  0  0  0  0  0  0  0
  151.7207  137.3048  161.7471 H   0  0  0  0  0  0  0  0  0  0  0  0
  152.8389  139.6283  162.0942 H   0  0  0  0  0  0  0  0  0  0  0  0
  154.5314  139.3739  161.6990 H   0  0  0  0  0  0  0  0  0  0  0  0
  152.9390  141.8755  161.8752 H   0  0  0  0  0  0  0  0  0  0  0  0
  154.0144  143.5471  160.0054 H   0  0  0  0  0  0  0  0  0  0  0  0
  151.2626  143.7009  161.3158 H   0  0  0  0  0  0  0  0  0  0  0  0
  152.7580  144.3099  161.9840 H   0  0  0  0  0  0  0  0  0  0  0  0
  151.4080  146.1322  160.9387 H   0  0  0  0  0  0  0  0  0  0  0  0
  152.9631  145.9606  160.1605 H   0  0  0  0  0  0  0  0  0  0  0  0
  150.3001  144.8675  159.1277 H   0  0  0  0  0  0  0  0  0  0  0  0
  151.2000  146.2008  158.4448 H   0  0  0  0  0  0  0  0  0  0  0  0
  151.5648  144.0888  157.1519 H   0  0  0  0  0  0  0  0  0  0  0  0
  153.0596  144.6972  157.8210 H   0  0  0  0  0  0  0  0  0  0  0  0
  152.9152  142.2639  158.1837 H   0  0  0  0  0  0  0  0  0  0  0  0
  151.3615  142.4285  158.9646 H   0  0  0  0  0  0  0  0  0  0  0  0
  1  2  3  0  0  0  0
  2  3  1  0  0  0  0
  3 17  2  0  0  0  0
  3  4  1  0  0  0  0
  4  5  2  0  0  0  0
  5  6  1  0  0  0  0
  5 18  1  0  0  0  0
  6  7  1  0  0  0  0
  6 17  1  0  0  0  0
  7  8  1  0  0  0  0
  7 19  1  0  0  0  0
  7 20  1  0  0  0  0
  8  9  2  0  0  0  0
  8 10  1  0  0  0  0
 10 11  1  0  0  0  0
 10 21  1  0  0  0  0
 11 16  1  0  0  0  0
 11 12  1  0  0  0  0
 11 22  1  0  0  0  0
 12 13  1  0  0  0  0
 12 23  1  0  0  0  0
 12 24  1  0  0  0  0
 13 14  1  0  0  0  0
 13 25  1  0  0  0  0
 13 26  1  0  0  0  0
 14 15  1  0  0  0  0
 14 27  1  0  0  0  0
 14 28  1  0  0  0  0
 15 16  1  0  0  0  0
 15 29  1  0  0  0  0
 15 30  1  0  0  0  0
 16 31  1  0  0  0  0
 16 32  1  0  0  0  0
M  END
> <s_m_source_file>
AV-unprocessed.smi

> <i_m_source_file_index>
293

> <i_lp_mmshare_version>
43012

> <i_f3d_flags>
0

> <s_epik_input>
TiNDYzFuW2NIXW4objEpW0NIMl1DKD1PKVtOSF1bQ0hdMltDSDJdW0NIMl1bQ0gyXVtDSDJdW0NIMl0y

> <s_epik_cmdline>
J2VwaWtfcHl0aG9uJywgJy1waCcsICc3LjAnLCAnLXRuJywgJzgnLCAnLW1hJywgJzIwMCcsICctbWV0YWxfYmluZGluZycsICctaW1hZScsICc8aW5maWxlLm1hZT4nLCAnLW9tYWUnLCAnPG91dGZpbGUubWFlPic=

> <r_lp_tautomer_probability>
1

> <r_epik_Ionization_Penalty>
5.31112e-08

> <r_epik_Ionization_Penalty_Charging>
0

> <r_epik_Ionization_Penalty_Neutral>
5.31112e-08

> <r_epik_State_Penalty>
-0

> <r_epik_Charging_Adjusted_Penalty>
0

> <i_epik_Tot_Q>
0

> <i_epik_Tot_abs_Q>
0

> <r_epik_Metal_State_Penalty>
-0

> <b_epik_Metal_Only>
0

> <s_lp_Force_Field>
OPLS_2005

> <r_lp_Energy>
12.166

> <b_lp_Chiralities_Consistent>
1

> <s_lp_Variant>
AV-unprocessed.smi:293-1

> <Gold.Version>
5.8.1

> <Gold.Id.Protein>
6NUR|6NUR_protein|mol2

> <Gold.PLP.Fitness>
42.9079

> <Gold.PLP.PLP>
-36.3596

> <Gold.PLP.part.hbond>
-3.0000

> <Gold.PLP.part.metal>
0.0000

> <Gold.PLP.part.buried>
-3.1927

> <Gold.PLP.part.nonpolar>
-29.9699

> <Gold.PLP.part.repulsive>
0.0382

> <Gold.PLP.ligand.clash>
0.0000

> <Gold.PLP.ligand.torsion>
0.7038

> <Gold.PLP.Chemscore.Hbond>
2.6503

> <Gold.PLP.Chemscore.CHOScore>
0.0000

> <Gold.PLP.Chemscore.Metal>
0.0000

> <Gold.Chemscore.Hbonds>
donor molecule, donor type, donor heavy atom, donor atom, acceptor molecule, acceptor atom, score
      P1  H  6896  6909       L1     4  0.34
      P1  H  7997  8008       L1     9  0.34
      P1  H 10752 10765       L1     1  1.00

> <Gold.PLP.Chemscore.Internal.Correction>
0.0051

> <Gold.Rescore>
     Score         DG    S(hbond)    S(metal)    S(lipo)     H(rot)  DE(clash)    DE(int)     intcor
     14.42     -18.53       2.63        0.00      79.51       1.96       1.29       2.82       ----

> <Gold.Chemscore.Fitness>
14.4217

> <Gold.Chemscore.DG>
-18.5315

> <Gold.Chemscore.ZeroCoef>
-5.4800

> <Gold.Chemscore.Hbond>
2.6259

> <Gold.Chemscore.Metal>
0.0000

> <Gold.Chemscore.Lipo>
79.5062

> <Gold.Chemscore.Internal_Hbond>
0.0000

> <Gold.Chemscore.DEClash>
1.2860

> <Gold.Chemscore.DEInternal>
2.8237

> <Gold.Chemscore.Rot>
1.9615

> <Gold.Chemscore.Internal.Correction>
   9.000000E+99

> <Gold.Chemscore.Hbonds>
donor molecule, donor type, donor heavy atom, donor atom, acceptor molecule, acceptor atom, score
      P1  H  6896  6909       L1     4  0.33
      P1  H  7997  8008       L1     9  0.35
      P1  H 10752 10765       L1     1  0.94

> <Gold.Chemscore.Hbond.Weighted>
-8.7706

> <Gold.Chemscore.Metal.Weighted>
-0.0000

> <Gold.Chemscore.Lipo.Weighted>
-9.3022

> <Gold.Chemscore.Internal_Hbond.Weighted>
0.0000

> <Gold.Chemscore.DEClash.Weighted>
1.2860

> <Gold.Chemscore.DEInternal.Weighted>
2.8237

> <Gold.Chemscore.Rot.Weighted>
5.0214

> <Gold.Chemscore.Internal.Correction.Weighted>
   9.000000E+99

> <Gold.Protein.RotatedTorsions>
[ 6907 6896 6895 6894 ] final  142.90 input  -60.11 | X-H torsion
[ 7974 7965 7964 7962 ] final  129.63 input  175.53 | X-H torsion
[ 8008 7997 7996 7995 ] final -109.91 input   59.86 | X-H torsion
[ 10167 10162 10161 10158 ] final  127.41 input  -65.29 | X-H torsion
[ 10718 10713 10712 10709 ] final  131.36 input   66.30 | X-H torsion
[ 10763 10752 10751 10750 ] final  -96.22 input  -60.55 | X-H torsion
[ 11005 11000 10999 10996 ] final   53.86 input  -57.11 | X-H torsion

> <Gold.Protein.ActiveResidues>
 VAL166  LYS551  ARG553  GLY616  TRP617  ASP618  TYR619  PRO620  LYS621  CYS622 
 ASP623  PHE694  ASN695  SER759  ASP760  ASP761  ALA762  ILE779  LEU786  VAL792 
 PHE793  MET794  SER795  GLU796  ALA797  LYS798  CYS799  TRP800  GLU811  SER814 

> <Gold.Protein.RotatedAtoms>
  152.2129  133.4925  159.5119 H   0  0  0  0  0  0  0  0  0  0  0  0  # atno 6907 bound_to 6896
  150.6994  134.1443  159.4125 H   0  0  0  0  0  0  0  0  0  0  0  0  # atno 6908 bound_to 6896
  151.9363  135.0233  160.0583 H   0  0  0  0  0  0  0  0  0  0  0  0  # atno 6909 bound_to 6896
  145.0266  139.4083  143.5170 H   0  0  0  0  0  0  0  0  0  0  0  0  # atno 7974 bound_to 7965
  154.9665  140.0398  157.2215 H   0  0  0  0  0  0  0  0  0  0  0  0  # atno 8008 bound_to 7997
  154.7840  140.2824  155.6020 H   0  0  0  0  0  0  0  0  0  0  0  0  # atno 8009 bound_to 7997
  156.2940  140.2586  156.2672 H   0  0  0  0  0  0  0  0  0  0  0  0  # atno 8010 bound_to 7997
  139.5580  144.6862  151.4126 H   0  0  0  0  0  0  0  0  0  0  0  0  # atno 10167 bound_to 10162
  157.4975  131.1093  150.9473 H   0  0  0  0  0  0  0  0  0  0  0  0  # atno 10718 bound_to 10713
  154.7220  135.5091  153.8826 H   0  0  0  0  0  0  0  0  0  0  0  0  # atno 10763 bound_to 10752
  153.0871  135.6648  153.9937 H   0  0  0  0  0  0  0  0  0  0  0  0  # atno 10764 bound_to 10752
  153.9758  135.3034  155.3403 H   0  0  0  0  0  0  0  0  0  0  0  0  # atno 10765 bound_to 10752
  140.0733  134.5439  155.9023 H   0  0  0  0  0  0  0  0  0  0  0  0  # atno 11005 bound_to 11000
  146.3493  139.9794  142.8697 LP  0  0  0  0  0  0  0  0  0  0  0  0  # atno 17320 bound_to 7965
  145.1825  140.9774  143.4258 LP  0  0  0  0  0  0  0  0  0  0  0  0  # atno 17321 bound_to 7965
  140.6856  143.7982  150.7181 LP  0  0  0  0  0  0  0  0  0  0  0  0  # atno 17342 bound_to 10162
  140.1449  143.4409  152.2170 LP  0  0  0  0  0  0  0  0  0  0  0  0  # atno 17343 bound_to 10162
  157.0155  130.5653  149.5325 LP  0  0  0  0  0  0  0  0  0  0  0  0  # atno 17370 bound_to 10713
  156.0209  130.5304  150.8272 LP  0  0  0  0  0  0  0  0  0  0  0  0  # atno 17371 bound_to 10713
  141.2020  133.6622  156.5982 LP  0  0  0  0  0  0  0  0  0  0  0  0  # atno 17394 bound_to 11000
  140.3595  134.7700  157.4523 LP  0  0  0  0  0  0  0  0  0  0  0  0  # atno 17395 bound_to 11000

$$$$
