AV-unprocessed.smi:1762|AV-procd|sdf|7103|dock1
  -GOLD-   22720 8323D 1   1.00000     0.00000
 Structure written by MMmdl.
 52 53  0  0  0  0  0  0  0  0  1 V2000
  152.1308  139.2518  156.8863 C   0  0  0  0  0  0  0  0  0  0  0  0
  151.9558  139.0996  155.3649 C   0  0  1  0  0  0  0  0  0  0  0  0
  151.3632  137.7379  154.9502 C   0  0  0  0  0  0  0  0  0  0  0  0
  149.9311  137.6086  155.2477 N   0  0  0  0  0  0  0  0  0  0  0  0
  149.3750  136.2786  154.8694 C   0  0  2  0  0  0  0  0  0  0  0  0
  147.8278  136.2367  154.8850 C   0  0  0  0  0  0  0  0  0  0  0  0
  147.2071  136.5134  155.9121 O   0  0  0  0  0  0  0  0  0  0  0  0
  147.2218  135.9121  153.7318 N   0  0  0  0  0  0  0  0  0  0  0  0
  145.7772  135.8490  153.5339 C   0  0  0  0  0  0  0  0  0  0  0  0
  145.3753  135.8402  152.0457 C   0  0  0  0  0  0  0  0  0  0  0  0
  145.3036  134.4471  151.4418 C   0  0  0  0  0  0  0  0  0  0  0  0
  144.2689  134.1089  150.5438 C   0  0  0  0  0  0  0  0  0  0  0  0
  144.2321  132.8005  150.0237 C   0  0  0  0  0  0  0  0  0  0  0  0
  145.2255  131.8843  150.4200 C   0  0  0  0  0  0  0  0  0  0  0  0
  146.2155  132.3195  151.3227 C   0  0  0  0  0  0  0  0  0  0  0  0
  146.2591  133.5712  151.8269 N   0  0  0  0  0  0  0  0  0  0  0  0
  149.9678  135.0657  155.6631 C   0  0  0  0  0  0  0  0  0  0  0  0
  149.6067  133.6947  155.0561 C   0  0  0  0  0  0  0  0  0  0  0  0
  149.6420  135.0884  157.1697 C   0  0  0  0  0  0  0  0  0  0  0  0
  149.2271  138.7522  154.6456 C   0  0  0  0  0  0  0  0  0  0  0  0
  149.7959  140.1103  155.0937 C   0  0  2  0  0  0  0  0  0  0  0  0
  149.1214  141.2839  154.3744 C   0  0  0  0  0  0  0  0  0  0  0  0
  151.1896  140.1652  154.8087 O   0  0  0  0  0  0  0  0  0  0  0  0
  152.8192  138.5010  157.2749 H   0  0  0  0  0  0  0  0  0  0  0  0
  151.1892  139.1347  157.4224 H   0  0  0  0  0  0  0  0  0  0  0  0
  152.5383  140.2318  157.1346 H   0  0  0  0  0  0  0  0  0  0  0  0
  152.9496  139.1792  154.9237 H   0  0  0  0  0  0  0  0  0  0  0  0
  151.5272  137.5911  153.8814 H   0  0  0  0  0  0  0  0  0  0  0  0
  151.9428  136.9705  155.4588 H   0  0  0  0  0  0  0  0  0  0  0  0
  149.6580  136.1118  153.8278 H   0  0  0  0  0  0  0  0  0  0  0  0
  147.8029  135.7089  152.9315 H   0  0  0  0  0  0  0  0  0  0  0  0
  145.4147  134.9396  154.0137 H   0  0  0  0  0  0  0  0  0  0  0  0
  145.2920  136.6795  154.0490 H   0  0  0  0  0  0  0  0  0  0  0  0
  144.4049  136.3237  151.9283 H   0  0  0  0  0  0  0  0  0  0  0  0
  146.0799  136.4421  151.4694 H   0  0  0  0  0  0  0  0  0  0  0  0
  143.5183  134.8327  150.2624 H   0  0  0  0  0  0  0  0  0  0  0  0
  143.4547  132.5045  149.3349 H   0  0  0  0  0  0  0  0  0  0  0  0
  145.2284  130.8728  150.0416 H   0  0  0  0  0  0  0  0  0  0  0  0
  146.9920  131.6444  151.6506 H   0  0  0  0  0  0  0  0  0  0  0  0
  151.0518  135.1095  155.5733 H   0  0  0  0  0  0  0  0  0  0  0  0
  148.5486  133.4585  155.1722 H   0  0  0  0  0  0  0  0  0  0  0  0
  150.1694  132.8960  155.5401 H   0  0  0  0  0  0  0  0  0  0  0  0
  149.8438  133.6605  153.9925 H   0  0  0  0  0  0  0  0  0  0  0  0
  148.5785  134.9450  157.3586 H   0  0  0  0  0  0  0  0  0  0  0  0
  149.9384  136.0310  157.6301 H   0  0  0  0  0  0  0  0  0  0  0  0
  150.1741  134.2936  157.6930 H   0  0  0  0  0  0  0  0  0  0  0  0
  149.2717  138.6773  153.5577 H   0  0  0  0  0  0  0  0  0  0  0  0
  148.1721  138.7575  154.9167 H   0  0  0  0  0  0  0  0  0  0  0  0
  149.6379  140.2328  156.1654 H   0  0  0  0  0  0  0  0  0  0  0  0
  148.0458  141.2879  154.5527 H   0  0  0  0  0  0  0  0  0  0  0  0
  149.2823  141.2316  153.2974 H   0  0  0  0  0  0  0  0  0  0  0  0
  149.5203  142.2364  154.7241 H   0  0  0  0  0  0  0  0  0  0  0  0
  1  2  1  0  0  0  0
  1 24  1  0  0  0  0
  1 25  1  0  0  0  0
  1 26  1  0  0  0  0
  2 23  1  0  0  0  0
  2  3  1  0  0  0  0
  2 27  1  0  0  0  0
  3  4  1  0  0  0  0
  3 28  1  0  0  0  0
  3 29  1  0  0  0  0
  4  5  1  0  0  0  0
  4 20  1  0  0  0  0
  5  6  1  0  0  0  0
  5 17  1  0  0  0  0
  5 30  1  0  0  0  0
  6  7  2  0  0  0  0
  6  8  1  0  0  0  0
  8  9  1  0  0  0  0
  8 31  1  0  0  0  0
  9 10  1  0  0  0  0
  9 32  1  0  0  0  0
  9 33  1  0  0  0  0
 10 11  1  0  0  0  0
 10 34  1  0  0  0  0
 10 35  1  0  0  0  0
 11 16  1  0  0  0  0
 11 12  2  0  0  0  0
 12 13  1  0  0  0  0
 12 36  1  0  0  0  0
 13 14  2  0  0  0  0
 13 37  1  0  0  0  0
 14 15  1  0  0  0  0
 14 38  1  0  0  0  0
 15 16  2  0  0  0  0
 15 39  1  0  0  0  0
 17 18  1  0  0  0  0
 17 19  1  0  0  0  0
 17 40  1  0  0  0  0
 18 41  1  0  0  0  0
 18 42  1  0  0  0  0
 18 43  1  0  0  0  0
 19 44  1  0  0  0  0
 19 45  1  0  0  0  0
 19 46  1  0  0  0  0
 20 21  1  0  0  0  0
 20 47  1  0  0  0  0
 20 48  1  0  0  0  0
 21 22  1  0  0  0  0
 21 23  1  0  0  0  0
 21 49  1  0  0  0  0
 22 50  1  0  0  0  0
 22 51  1  0  0  0  0
 22 52  1  0  0  0  0
M  END
> <s_m_source_file>
AV-unprocessed.smi

> <i_m_source_file_index>
1762

> <i_lp_mmshare_version>
43012

> <i_f3d_flags>
0

> <s_epik_input>
W0NIM11bQ0BASF0xW0NIMl1OKFtDSDJdW0NASF0oTzEpW0NIM10pW0NAQEhdKFtDSF0oW0NIM10pW0NIM10pQyg9TylbTkhdW0NIMl1bQ0gyXWMyW2NIXVtjSF1bY0hdW2NIXW4y

> <s_epik_cmdline>
J2VwaWtfcHl0aG9uJywgJy1waCcsICc3LjAnLCAnLXRuJywgJzgnLCAnLW1hJywgJzIwMCcsICctbWV0YWxfYmluZGluZycsICctaW1hZScsICc8aW5maWxlLm1hZT4nLCAnLW9tYWUnLCAnPG91dGZpbGUubWFlPic=

> <r_epik_Ionization_Penalty>
0.0399736

> <r_epik_Ionization_Penalty_Charging>
0

> <r_epik_Ionization_Penalty_Neutral>
0.0399736

> <r_epik_State_Penalty>
0.0317634

> <r_epik_Charging_Adjusted_Penalty>
0.0317634

> <i_epik_Tot_Q>
0

> <i_epik_Tot_abs_Q>
0

> <r_epik_Metal_State_Penalty>
0.0307795

> <b_epik_Metal_Only>
0

> <s_lp_Force_Field>
OPLS_2005

> <r_lp_Energy>
29.7417

> <b_lp_Chiralities_Consistent>
1

> <s_lp_Variant>
AV-unprocessed.smi:1762-5

> <Gold.Version>
5.8.1

> <Gold.Id.Protein>
6NUR|6NUR_protein|mol2

> <Gold.PLP.Fitness>
44.3787

> <Gold.PLP.PLP>
-36.7706

> <Gold.PLP.part.hbond>
-1.7468

> <Gold.PLP.part.metal>
0.0000

> <Gold.PLP.part.buried>
-2.6589

> <Gold.PLP.part.nonpolar>
-32.9230

> <Gold.PLP.part.repulsive>
0.3703

> <Gold.PLP.ligand.clash>
0.0000

> <Gold.PLP.ligand.torsion>
0.8942

> <Gold.PLP.Chemscore.Hbond>
1.9913

> <Gold.PLP.Chemscore.CHOScore>
1.0000

> <Gold.PLP.Chemscore.Metal>
0.0000

> <Gold.Chemscore.Hbonds>
donor molecule, donor type, donor heavy atom, donor atom, acceptor molecule, acceptor atom, score
      L1  H     8    31       P1  7948  0.99
      P1  H  7989  7998       L1    23  1.00
      L1  C    15    39       P1 10747  0.90

> <Gold.PLP.Chemscore.Internal.Correction>
0.4228

> <Gold.Rescore>
     Score         DG    S(hbond)    S(metal)    S(lipo)     H(rot)  DE(clash)    DE(int)     intcor
     18.07     -19.18       1.79        0.00     101.03       1.60       0.12       0.99       ----

> <Gold.Chemscore.Fitness>
18.0703

> <Gold.Chemscore.DG>
-19.1845

> <Gold.Chemscore.ZeroCoef>
-5.4800

> <Gold.Chemscore.Hbond>
1.7898

> <Gold.Chemscore.Metal>
0.0000

> <Gold.Chemscore.Lipo>
101.0317

> <Gold.Chemscore.Internal_Hbond>
0.0000

> <Gold.Chemscore.DEClash>
0.1227

> <Gold.Chemscore.DEInternal>
0.9915

> <Gold.Chemscore.Rot>
1.5993

> <Gold.Chemscore.Internal.Correction>
   9.000000E+99

> <Gold.Chemscore.Hbonds>
donor molecule, donor type, donor heavy atom, donor atom, acceptor molecule, acceptor atom, score
      L1  H     8    31       P1  7948  0.93
      P1  H  7989  7998       L1    23  0.90

> <Gold.Chemscore.Hbond.Weighted>
-5.9779

> <Gold.Chemscore.Metal.Weighted>
-0.0000

> <Gold.Chemscore.Lipo.Weighted>
-11.8207

> <Gold.Chemscore.Internal_Hbond.Weighted>
0.0000

> <Gold.Chemscore.DEClash.Weighted>
0.1227

> <Gold.Chemscore.DEInternal.Weighted>
0.9915

> <Gold.Chemscore.Rot.Weighted>
4.0941

> <Gold.Chemscore.Internal.Correction.Weighted>
   9.000000E+99

> <Gold.Protein.RotatedTorsions>
[ 6907 6896 6895 6894 ] final -123.32 input  -60.11 | X-H torsion
[ 7974 7965 7964 7962 ] final  -79.98 input  175.53 | X-H torsion
[ 8008 7997 7996 7995 ] final   13.67 input   59.86 | X-H torsion
[ 10167 10162 10161 10158 ] final  119.24 input  -65.29 | X-H torsion
[ 10718 10713 10712 10709 ] final  146.05 input   66.30 | X-H torsion
[ 10763 10752 10751 10750 ] final -133.18 input  -60.55 | X-H torsion
[ 11005 11000 10999 10996 ] final  178.44 input  -57.11 | X-H torsion

> <Gold.Protein.ActiveResidues>
 VAL166  LYS551  ARG553  GLY616  TRP617  ASP618  TYR619  PRO620  LYS621  CYS622 
 ASP623  PHE694  ASN695  SER759  ASP760  ASP761  ALA762  ILE779  LEU786  VAL792 
 PHE793  MET794  SER795  GLU796  ALA797  LYS798  CYS799  TRP800  GLU811  SER814 

> <Gold.Protein.RotatedAtoms>
  150.8660  133.7574  159.2976 H   0  0  0  0  0  0  0  0  0  0  0  0  # atno 6907 bound_to 6896
  151.5202  135.1065  159.9886 H   0  0  0  0  0  0  0  0  0  0  0  0  # atno 6908 bound_to 6896
  152.4661  133.7881  159.6943 H   0  0  0  0  0  0  0  0  0  0  0  0  # atno 6909 bound_to 6896
  145.5661  140.9474  143.1421 H   0  0  0  0  0  0  0  0  0  0  0  0  # atno 7974 bound_to 7965
  154.8378  140.2910  155.5679 H   0  0  0  0  0  0  0  0  0  0  0  0  # atno 8008 bound_to 7997
  156.3010  140.2520  156.3246 H   0  0  0  0  0  0  0  0  0  0  0  0  # atno 8009 bound_to 7997
  154.9159  140.0387  157.1961 H   0  0  0  0  0  0  0  0  0  0  0  0  # atno 8010 bound_to 7997
  139.6059  144.7069  151.2956 H   0  0  0  0  0  0  0  0  0  0  0  0  # atno 10167 bound_to 10162
  157.3379  131.0931  151.1107 H   0  0  0  0  0  0  0  0  0  0  0  0  # atno 10718 bound_to 10713
  154.8735  135.3774  154.4530 H   0  0  0  0  0  0  0  0  0  0  0  0  # atno 10763 bound_to 10752
  153.5205  135.7029  153.5739 H   0  0  0  0  0  0  0  0  0  0  0  0  # atno 10764 bound_to 10752
  153.3988  135.3953  155.1939 H   0  0  0  0  0  0  0  0  0  0  0  0  # atno 10765 bound_to 10752
  140.3951  134.6827  157.4530 H   0  0  0  0  0  0  0  0  0  0  0  0  # atno 11005 bound_to 11000
  144.7460  139.7320  143.7292 LP  0  0  0  0  0  0  0  0  0  0  0  0  # atno 17320 bound_to 7965
  146.1817  139.5013  142.9862 LP  0  0  0  0  0  0  0  0  0  0  0  0  # atno 17321 bound_to 7965
  140.7284  143.6936  150.7901 LP  0  0  0  0  0  0  0  0  0  0  0  0  # atno 17342 bound_to 10162
  140.0522  143.5238  152.2668 LP  0  0  0  0  0  0  0  0  0  0  0  0  # atno 17343 bound_to 10162
  157.2330  130.6534  149.5858 LP  0  0  0  0  0  0  0  0  0  0  0  0  # atno 17370 bound_to 10713
  155.9704  130.4592  150.6029 LP  0  0  0  0  0  0  0  0  0  0  0  0  # atno 17371 bound_to 10713
  140.0378  134.6312  155.9021 LP  0  0  0  0  0  0  0  0  0  0  0  0  # atno 17394 bound_to 11000
  141.1877  133.6560  156.5292 LP  0  0  0  0  0  0  0  0  0  0  0  0  # atno 17395 bound_to 11000

$$$$
