AV-unprocessed.smi:513|AV-procd|sdf|2773|dock5
  -GOLD-   2262023243D 1   1.00000     0.00000
 Structure written by MMmdl.
 42 44  0  0  0  0  0  0  0  0  1 V2000
  152.1699  139.0007  154.9124 C   0  0  0  0  0  0  0  0  0  0  0  0
  151.5000  139.5571  156.0286 O   0  0  0  0  0  0  0  0  0  0  0  0
  152.2814  139.5168  157.2117 C   0  0  0  0  0  0  0  0  0  0  0  0
  151.5327  140.2322  158.3444 C   0  0  0  0  0  0  0  0  0  0  0  0
  152.3992  140.4801  159.4952 N   0  0  0  0  0  0  0  0  0  0  0  0
  152.7283  141.6621  160.0890 C   0  0  0  0  0  0  0  0  0  0  0  0
  152.2005  142.8845  159.6714 N   0  0  0  0  0  0  0  0  0  0  0  0
  151.5131  143.8288  160.5478 C   0  0  0  0  0  0  0  0  0  0  0  0
  152.0400  145.2625  160.3345 C   0  0  0  0  0  0  0  0  0  0  0  0
  151.8126  145.6741  158.9529 N   0  0  0  0  0  0  0  0  0  0  0  0
  152.5084  144.7448  158.0693 C   0  0  0  0  0  0  0  0  0  0  0  0
  151.9657  143.3199  158.2964 C   0  0  0  0  0  0  0  0  0  0  0  0
  153.6286  141.5581  161.0715 N   0  0  0  0  0  0  0  0  0  0  0  0
  153.8716  140.1954  161.1309 C   0  0  0  0  0  0  0  0  0  0  0  0
  153.1495  139.5326  160.1938 C   0  0  0  0  0  0  0  0  0  0  0  0
  153.2453  138.0782  160.0126 C   0  0  0  0  0  0  0  0  0  0  0  0
  152.6132  137.4571  159.1609 O   0  0  0  0  0  0  0  0  0  0  0  0
  154.1079  137.4910  160.8775 N   0  0  0  0  0  0  0  0  0  0  0  0
  154.8606  138.0991  161.8448 C   0  0  0  0  0  0  0  0  0  0  0  0
  155.6055  137.4217  162.5524 O   0  0  0  0  0  0  0  0  0  0  0  0
  154.7464  139.4608  161.9783 N   0  0  0  0  0  0  0  0  0  0  0  0
  155.5117  140.2087  162.9777 C   0  0  0  0  0  0  0  0  0  0  0  0
  154.2101  136.4897  160.7962 H   0  0  0  0  0  0  0  0  0  0  0  0
  151.5269  139.0594  154.0343 H   0  0  0  0  0  0  0  0  0  0  0  0
  152.4140  137.9513  155.0824 H   0  0  0  0  0  0  0  0  0  0  0  0
  153.0896  139.5448  154.6933 H   0  0  0  0  0  0  0  0  0  0  0  0
  152.4779  138.4818  157.4945 H   0  0  0  0  0  0  0  0  0  0  0  0
  153.2461  139.9964  157.0386 H   0  0  0  0  0  0  0  0  0  0  0  0
  151.1187  141.1624  157.9698 H   0  0  0  0  0  0  0  0  0  0  0  0
  150.6720  139.6463  158.6641 H   0  0  0  0  0  0  0  0  0  0  0  0
  150.4379  143.7823  160.3681 H   0  0  0  0  0  0  0  0  0  0  0  0
  151.6687  143.5372  161.5870 H   0  0  0  0  0  0  0  0  0  0  0  0
  151.5239  145.9552  160.9995 H   0  0  0  0  0  0  0  0  0  0  0  0
  153.1033  145.3230  160.5706 H   0  0  0  0  0  0  0  0  0  0  0  0
  152.1696  146.6085  158.8131 H   0  0  0  0  0  0  0  0  0  0  0  0
  152.3437  145.0506  157.0360 H   0  0  0  0  0  0  0  0  0  0  0  0
  153.5829  144.7890  158.2524 H   0  0  0  0  0  0  0  0  0  0  0  0
  152.4123  142.6183  157.5931 H   0  0  0  0  0  0  0  0  0  0  0  0
  150.8941  143.2930  158.0932 H   0  0  0  0  0  0  0  0  0  0  0  0
  156.1192  139.5831  163.6324 H   0  0  0  0  0  0  0  0  0  0  0  0
  154.8349  140.7811  163.6129 H   0  0  0  0  0  0  0  0  0  0  0  0
  156.1810  140.9126  162.4822 H   0  0  0  0  0  0  0  0  0  0  0  0
  1  2  1  0  0  0  0
  1 24  1  0  0  0  0
  1 25  1  0  0  0  0
  1 26  1  0  0  0  0
  2  3  1  0  0  0  0
  3  4  1  0  0  0  0
  3 27  1  0  0  0  0
  3 28  1  0  0  0  0
  4  5  1  0  0  0  0
  4 29  1  0  0  0  0
  4 30  1  0  0  0  0
  5 15  1  0  0  0  0
  5  6  1  0  0  0  0
  6  7  1  0  0  0  0
  6 13  2  0  0  0  0
  7 12  1  0  0  0  0
  7  8  1  0  0  0  0
  8  9  1  0  0  0  0
  8 31  1  0  0  0  0
  8 32  1  0  0  0  0
  9 10  1  0  0  0  0
  9 33  1  0  0  0  0
  9 34  1  0  0  0  0
 10 11  1  0  0  0  0
 10 35  1  0  0  0  0
 11 12  1  0  0  0  0
 11 36  1  0  0  0  0
 11 37  1  0  0  0  0
 12 38  1  0  0  0  0
 12 39  1  0  0  0  0
 13 14  1  0  0  0  0
 14 21  1  0  0  0  0
 14 15  2  0  0  0  0
 15 16  1  0  0  0  0
 16 17  2  0  0  0  0
 16 18  1  0  0  0  0
 18 23  1  0  0  0  0
 18 19  1  0  0  0  0
 19 20  2  0  0  0  0
 19 21  1  0  0  0  0
 21 22  1  0  0  0  0
 22 40  1  0  0  0  0
 22 41  1  0  0  0  0
 22 42  1  0  0  0  0
M  END
> <s_m_source_file>
AV-unprocessed.smi

> <i_m_source_file_index>
513

> <i_lp_mmshare_version>
43012

> <i_f3d_flags>
0

> <s_epik_input>
W0NIM11uMWMoPU8pW25IXWMoPU8pYyhjMTIpbihbQ0gyXVtDSDJdT1tDSDNdKWMobjIpTjNbQ0gyXVtDSDJdW05IXVtDSDJdW0NIMl0z

> <s_epik_cmdline>
J2VwaWtfcHl0aG9uJywgJy1waCcsICc3LjAnLCAnLXRuJywgJzgnLCAnLW1hJywgJzIwMCcsICctbWV0YWxfYmluZGluZycsICctaW1hZScsICc8aW5maWxlLm1hZT4nLCAnLW9tYWUnLCAnPG91dGZpbGUubWFlPic=

> <r_epik_Ionization_Penalty>
2.51416

> <r_epik_Ionization_Penalty_Charging>
1.6225e-05

> <r_epik_Ionization_Penalty_Neutral>
2.51414

> <r_epik_State_Penalty>
2.67993

> <r_epik_Charging_Adjusted_Penalty>
2.67995

> <i_epik_Tot_Q>
0

> <i_epik_Tot_abs_Q>
0

> <r_epik_Metal_State_Penalty>
2.70812

> <b_epik_Metal_Only>
0

> <s_lp_Force_Field>
OPLS_2005

> <r_lp_Energy>
48.0947

> <b_lp_Chiralities_Consistent>
1

> <s_lp_Variant>
AV-unprocessed.smi:513-2

> <Gold.Version>
5.8.1

> <Gold.Id.Protein>
6NUR|6NUR_protein|mol2

> <Gold.PLP.Fitness>
41.3090

> <Gold.PLP.PLP>
-42.7885

> <Gold.PLP.part.hbond>
-1.0000

> <Gold.PLP.part.metal>
0.0000

> <Gold.PLP.part.buried>
-4.2521

> <Gold.PLP.part.nonpolar>
-36.9392

> <Gold.PLP.part.repulsive>
0.0329

> <Gold.PLP.ligand.clash>
0.0000

> <Gold.PLP.ligand.torsion>
0.8941

> <Gold.PLP.Chemscore.Hbond>
0.0000

> <Gold.PLP.Chemscore.CHOScore>
0.0000

> <Gold.PLP.Chemscore.Metal>
0.0000

> <Gold.PLP.Chemscore.Internal.Correction>
0.3086

> <Gold.Rescore>
     Score         DG    S(hbond)    S(metal)    S(lipo)     H(rot)  DE(clash)    DE(int)     intcor
     11.59     -13.69       0.96        0.00      76.77       1.55       0.07       2.03       ----

> <Gold.Chemscore.Fitness>
11.5895

> <Gold.Chemscore.DG>
-13.6926

> <Gold.Chemscore.ZeroCoef>
-5.4800

> <Gold.Chemscore.Hbond>
0.9597

> <Gold.Chemscore.Metal>
0.0000

> <Gold.Chemscore.Lipo>
76.7666

> <Gold.Chemscore.Internal_Hbond>
0.0000

> <Gold.Chemscore.DEClash>
0.0683

> <Gold.Chemscore.DEInternal>
2.0348

> <Gold.Chemscore.Rot>
1.5526

> <Gold.Chemscore.Internal.Correction>
   9.000000E+99

> <Gold.Chemscore.Hbond.Weighted>
-3.2055

> <Gold.Chemscore.Metal.Weighted>
-0.0000

> <Gold.Chemscore.Lipo.Weighted>
-8.9817

> <Gold.Chemscore.Internal_Hbond.Weighted>
0.0000

> <Gold.Chemscore.DEClash.Weighted>
0.0683

> <Gold.Chemscore.DEInternal.Weighted>
2.0348

> <Gold.Chemscore.Rot.Weighted>
3.9745

> <Gold.Chemscore.Internal.Correction.Weighted>
   9.000000E+99

> <Gold.Protein.RotatedTorsions>
[ 6907 6896 6895 6894 ] final  148.95 input  -60.11 | X-H torsion
[ 7974 7965 7964 7962 ] final -175.73 input  175.53 | X-H torsion
[ 8008 7997 7996 7995 ] final  -89.44 input   59.86 | X-H torsion
[ 10167 10162 10161 10158 ] final   71.53 input  -65.29 | X-H torsion
[ 10718 10713 10712 10709 ] final   47.94 input   66.30 | X-H torsion
[ 10763 10752 10751 10750 ] final    6.93 input  -60.55 | X-H torsion
[ 11005 11000 10999 10996 ] final  -31.36 input  -57.11 | X-H torsion

> <Gold.Protein.ActiveResidues>
 VAL166  LYS551  ARG553  GLY616  TRP617  ASP618  TYR619  PRO620  LYS621  CYS622 
 ASP623  PHE694  ASN695  SER759  ASP760  ASP761  ALA762  ILE779  LEU786  VAL792 
 PHE793  MET794  SER795  GLU796  ALA797  LYS798  CYS799  TRP800  GLU811  SER814 

> <Gold.Protein.RotatedAtoms>
  152.1346  133.4428  159.4737 H   0  0  0  0  0  0  0  0  0  0  0  0  # atno 6907 bound_to 6896
  150.6881  134.2379  159.4469 H   0  0  0  0  0  0  0  0  0  0  0  0  # atno 6908 bound_to 6896
  152.0265  134.9792  160.0622 H   0  0  0  0  0  0  0  0  0  0  0  0  # atno 6909 bound_to 6896
  144.7127  140.1277  143.6401 H   0  0  0  0  0  0  0  0  0  0  0  0  # atno 7974 bound_to 7965
  154.6867  140.0542  157.0321 H   0  0  0  0  0  0  0  0  0  0  0  0  # atno 8008 bound_to 7997
  155.0875  140.3216  155.4564 H   0  0  0  0  0  0  0  0  0  0  0  0  # atno 8009 bound_to 7997
  156.2713  140.2054  156.6002 H   0  0  0  0  0  0  0  0  0  0  0  0  # atno 8010 bound_to 7997
  140.0451  144.5357  150.7405 H   0  0  0  0  0  0  0  0  0  0  0  0  # atno 10167 bound_to 10162
  157.4636  130.8212  149.7913 H   0  0  0  0  0  0  0  0  0  0  0  0  # atno 10718 bound_to 10713
  153.2421  135.6904  153.7771 H   0  0  0  0  0  0  0  0  0  0  0  0  # atno 10763 bound_to 10752
  153.6897  135.3315  155.3200 H   0  0  0  0  0  0  0  0  0  0  0  0  # atno 10764 bound_to 10752
  154.8360  135.4542  154.1347 H   0  0  0  0  0  0  0  0  0  0  0  0  # atno 10765 bound_to 10752
  140.9461  133.7249  156.1149 H   0  0  0  0  0  0  0  0  0  0  0  0  # atno 11005 bound_to 11000
  145.9315  139.2609  143.1322 LP  0  0  0  0  0  0  0  0  0  0  0  0  # atno 17320 bound_to 7965
  145.9518  140.8903  143.0255 LP  0  0  0  0  0  0  0  0  0  0  0  0  # atno 17321 bound_to 7965
  140.7242  143.2619  151.4176 LP  0  0  0  0  0  0  0  0  0  0  0  0  # atno 17342 bound_to 10162
  139.5989  144.1339  152.2175 LP  0  0  0  0  0  0  0  0  0  0  0  0  # atno 17343 bound_to 10162
  156.0040  130.3865  150.2499 LP  0  0  0  0  0  0  0  0  0  0  0  0  # atno 17370 bound_to 10713
  157.0678  131.0108  151.3200 LP  0  0  0  0  0  0  0  0  0  0  0  0  # atno 17371 bound_to 10713
  140.7667  134.3879  157.5515 LP  0  0  0  0  0  0  0  0  0  0  0  0  # atno 17394 bound_to 11000
  139.8834  134.8996  156.2770 LP  0  0  0  0  0  0  0  0  0  0  0  0  # atno 17395 bound_to 11000

$$$$
