AV-unprocessed.smi:1995|AV-procd|sdf|8081|dock1
  -GOLD-   2272010293D 1   1.00000     0.00000
 Structure written by MMmdl.
 41 42  0  0  0  0  0  0  0  0  2 V2000
  152.3532  137.8086  155.3671 C   0  0  0  0  0  0  0  0  0  0  0  0
  152.2273  139.0594  156.2560 C   0  0  0  0  0  0  0  0  0  0  0  0
  151.4739  138.8550  157.6093 C   0  0  2  0  0  0  0  0  0  0  0  0
  152.3632  137.9140  158.4659 C   0  0  0  0  0  0  0  0  0  0  0  0
  150.1199  138.1309  157.3112 C   0  0  0  0  0  0  0  0  0  0  0  0
  149.2050  138.0866  158.4532 N   0  0  0  0  0  0  0  0  0  0  0  0
  148.6931  136.9884  159.0280 C   0  0  0  0  0  0  0  0  0  0  0  0
  148.9921  135.8705  158.6019 O   0  0  0  0  0  0  0  0  0  0  0  0
  147.8566  137.2551  160.0569 N   0  5  0  0  0  0  0  0  0  0  0  0
  147.2625  136.2474  160.7167 C   0  0  0  0  0  0  0  0  0  0  0  0
  147.1095  135.0238  160.1975 N   0  0  0  0  0  0  0  0  0  0  0  0
  146.4694  134.1311  161.0595 C   0  0  0  0  0  0  0  0  0  0  0  0
  146.1347  134.6862  162.2662 C   0  0  0  0  0  0  0  0  0  0  0  0
  146.6174  136.3560  162.3572 S   0  0  0  0  0  0  0  0  0  0  0  0
  151.2701  140.1543  158.3121 N   0  0  0  0  0  0  0  0  0  0  0  0
  150.6584  141.2140  157.5008 C   0  0  0  0  0  0  0  0  0  0  0  0
  150.3482  142.4704  158.3323 C   0  0  0  0  0  0  0  0  0  0  0  0
  151.5373  142.9403  158.9565 O   0  0  0  0  0  0  0  0  0  0  0  0
  152.1339  141.9593  159.7961 C   0  0  0  0  0  0  0  0  0  0  0  0
  152.4609  140.7018  158.9728 C   0  0  0  0  0  0  0  0  0  0  0  0
  152.9013  138.0446  154.4551 H   0  0  0  0  0  0  0  0  0  0  0  0
  151.3781  137.4257  155.0678 H   0  0  0  0  0  0  0  0  0  0  0  0
  152.8908  137.0045  155.8696 H   0  0  0  0  0  0  0  0  0  0  0  0
  153.2231  139.4642  156.4354 H   0  0  0  0  0  0  0  0  0  0  0  0
  151.7266  139.8264  155.6640 H   0  0  0  0  0  0  0  0  0  0  0  0
  152.7317  137.0633  157.8919 H   0  0  0  0  0  0  0  0  0  0  0  0
  151.8188  137.4982  159.3138 H   0  0  0  0  0  0  0  0  0  0  0  0
  153.2354  138.4334  158.8630 H   0  0  0  0  0  0  0  0  0  0  0  0
  149.6146  138.5771  156.4547 H   0  0  0  0  0  0  0  0  0  0  0  0
  150.2990  137.0925  157.0351 H   0  0  0  0  0  0  0  0  0  0  0  0
  148.9258  138.9761  158.8401 H   0  0  0  0  0  0  0  0  0  0  0  0
  146.2932  133.1175  160.7313 H   0  0  0  0  0  0  0  0  0  0  0  0
  145.6382  134.2183  163.1027 H   0  0  0  0  0  0  0  0  0  0  0  0
  151.3201  141.4945  156.6814 H   0  0  0  0  0  0  0  0  0  0  0  0
  149.7265  140.8744  157.0524 H   0  0  0  0  0  0  0  0  0  0  0  0
  149.9472  143.2573  157.6934 H   0  0  0  0  0  0  0  0  0  0  0  0
  149.5918  142.2550  159.0887 H   0  0  0  0  0  0  0  0  0  0  0  0
  153.0427  142.3714  160.2347 H   0  0  0  0  0  0  0  0  0  0  0  0
  151.4609  141.7169  160.6201 H   0  0  0  0  0  0  0  0  0  0  0  0
  152.9067  139.9709  159.6448 H   0  0  0  0  0  0  0  0  0  0  0  0
  153.2201  140.9571  158.2338 H   0  0  0  0  0  0  0  0  0  0  0  0
  1  2  1  0  0  0  0
  1 21  1  0  0  0  0
  1 22  1  0  0  0  0
  1 23  1  0  0  0  0
  2  3  1  0  0  0  0
  2 24  1  0  0  0  0
  2 25  1  0  0  0  0
  3  4  1  0  0  0  0
  3  5  1  0  0  0  0
  3 15  1  0  0  0  0
  4 26  1  0  0  0  0
  4 27  1  0  0  0  0
  4 28  1  0  0  0  0
  5  6  1  0  0  0  0
  5 29  1  0  0  0  0
  5 30  1  0  0  0  0
  6  7  1  0  0  0  0
  6 31  1  0  0  0  0
  7  8  2  0  0  0  0
  7  9  1  0  0  0  0
  9 10  1  0  0  0  0
 10 14  1  0  0  0  0
 10 11  2  0  0  0  0
 11 12  1  0  0  0  0
 12 13  2  0  0  0  0
 12 32  1  0  0  0  0
 13 14  1  0  0  0  0
 13 33  1  0  0  0  0
 15 20  1  0  0  0  0
 15 16  1  0  0  0  0
 16 17  1  0  0  0  0
 16 34  1  0  0  0  0
 16 35  1  0  0  0  0
 17 18  1  0  0  0  0
 17 36  1  0  0  0  0
 17 37  1  0  0  0  0
 18 19  1  0  0  0  0
 19 20  1  0  0  0  0
 19 38  1  0  0  0  0
 19 39  1  0  0  0  0
 20 40  1  0  0  0  0
 20 41  1  0  0  0  0
M  CHG  1   9  -1
M  END
> <s_m_source_file>
AV-unprocessed.smi

> <i_m_source_file_index>
1995

> <i_lp_mmshare_version>
43012

> <i_f3d_flags>
0

> <s_epik_input>
W0NIMl0xW0NIMl1PW0NIMl1bQ0gyXU4xW0NAQF0oW0NIM10pKFtDSDJdW0NIM10pW0NIMl1bTkhdQyg9TylbTkhdYzJuW2NIXVtjSF1zMg==

> <s_epik_cmdline>
J2VwaWtfcHl0aG9uJywgJy1waCcsICc3LjAnLCAnLXRuJywgJzgnLCAnLW1hJywgJzIwMCcsICctbWV0YWxfYmluZGluZycsICctaW1hZScsICc8aW5maWxlLm1hZT4nLCAnLW9tYWUnLCAnPG91dGZpbGUubWFlPic=

> <r_lp_tautomer_probability>
0.999

> <r_epik_Ionization_Penalty>
8.86479

> <r_epik_Ionization_Penalty_Charging>
6.76546

> <r_epik_Ionization_Penalty_Neutral>
2.09933

> <r_epik_State_Penalty>
7.05418

> <r_epik_Charging_Adjusted_Penalty>
13.8196

> <i_epik_Tot_Q>
-1

> <i_epik_Tot_abs_Q>
1

> <r_epik_Metal_State_Penalty>
2.97744

> <b_epik_Metal_Only>
1

> <s_lp_Force_Field>
OPLS_2005

> <r_lp_Energy>
37.8837

> <b_lp_Chiralities_Consistent>
1

> <s_lp_Variant>
AV-unprocessed.smi:1995-6

> <Gold.Version>
5.8.1

> <Gold.Id.Protein>
6NUR|6NUR_protein|mol2

> <Gold.PLP.Fitness>
44.0101

> <Gold.PLP.PLP>
-35.1229

> <Gold.PLP.part.hbond>
-3.0000

> <Gold.PLP.part.metal>
0.0000

> <Gold.PLP.part.buried>
-5.9208

> <Gold.PLP.part.nonpolar>
-28.8913

> <Gold.PLP.part.repulsive>
0.2168

> <Gold.PLP.ligand.clash>
0.0000

> <Gold.PLP.ligand.torsion>
0.5613

> <Gold.PLP.Chemscore.Hbond>
3.2549

> <Gold.PLP.Chemscore.CHOScore>
0.0000

> <Gold.PLP.Chemscore.Metal>
0.0000

> <Gold.Chemscore.Hbonds>
donor molecule, donor type, donor heavy atom, donor atom, acceptor molecule, acceptor atom, score
      P1  H  6896  6908       L1     8  0.29
      P1  H  6931  6943       L1     9  0.09
      P1  H  6934  6947       L1     9  1.40

> <Gold.PLP.Chemscore.Internal.Correction>
0.2452

> <Gold.Rescore>
     Score         DG    S(hbond)    S(metal)    S(lipo)     H(rot)  DE(clash)    DE(int)     intcor
     15.01     -17.07       2.05        0.00      77.68       1.70       0.15       1.91       ----

> <Gold.Chemscore.Fitness>
15.0138

> <Gold.Chemscore.DG>
-17.0702

> <Gold.Chemscore.ZeroCoef>
-5.4800

> <Gold.Chemscore.Hbond>
2.0507

> <Gold.Chemscore.Metal>
0.0000

> <Gold.Chemscore.Lipo>
77.6826

> <Gold.Chemscore.Internal_Hbond>
0.0000

> <Gold.Chemscore.DEClash>
0.1464

> <Gold.Chemscore.DEInternal>
1.9100

> <Gold.Chemscore.Rot>
1.6985

> <Gold.Chemscore.Internal.Correction>
   9.000000E+99

> <Gold.Chemscore.Hbonds>
donor molecule, donor type, donor heavy atom, donor atom, acceptor molecule, acceptor atom, score
      P1  H  6896  6908       L1     8  0.29
      P1  H  6931  6943       L1     9  0.01
      P1  H  6934  6947       L1     9  0.43

> <Gold.Chemscore.Hbond.Weighted>
-6.8495

> <Gold.Chemscore.Metal.Weighted>
-0.0000

> <Gold.Chemscore.Lipo.Weighted>
-9.0889

> <Gold.Chemscore.Internal_Hbond.Weighted>
0.0000

> <Gold.Chemscore.DEClash.Weighted>
0.1464

> <Gold.Chemscore.DEInternal.Weighted>
1.9100

> <Gold.Chemscore.Rot.Weighted>
4.3482

> <Gold.Chemscore.Internal.Correction.Weighted>
   9.000000E+99

> <Gold.Protein.RotatedTorsions>
[ 6907 6896 6895 6894 ] final  173.66 input  -60.11 | X-H torsion
[ 7974 7965 7964 7962 ] final  -36.31 input  175.53 | X-H torsion
[ 8008 7997 7996 7995 ] final   -8.20 input   59.86 | X-H torsion
[ 10167 10162 10161 10158 ] final  -30.77 input  -65.29 | X-H torsion
[ 10718 10713 10712 10709 ] final  -10.07 input   66.30 | X-H torsion
[ 10763 10752 10751 10750 ] final   45.37 input  -60.55 | X-H torsion
[ 11005 11000 10999 10996 ] final -170.26 input  -57.11 | X-H torsion

> <Gold.Protein.ActiveResidues>
 VAL166  LYS551  ARG553  GLY616  TRP617  ASP618  TYR619  PRO620  LYS621  CYS622 
 ASP623  PHE694  ASN695  SER759  ASP760  ASP761  ALA762  ILE779  LEU786  VAL792 
 PHE793  MET794  SER795  GLU796  ALA797  LYS798  CYS799  TRP800  GLU811  SER814 

> <Gold.Protein.RotatedAtoms>
  151.7648  133.3336  159.3427 H   0  0  0  0  0  0  0  0  0  0  0  0  # atno 6907 bound_to 6896
  150.7484  134.6073  159.6077 H   0  0  0  0  0  0  0  0  0  0  0  0  # atno 6908 bound_to 6896
  152.3381  134.7173  160.0323 H   0  0  0  0  0  0  0  0  0  0  0  0  # atno 6909 bound_to 6896
  146.0672  140.6263  142.8969 H   0  0  0  0  0  0  0  0  0  0  0  0  # atno 7974 bound_to 7965
  154.5764  140.2387  155.8116 H   0  0  0  0  0  0  0  0  0  0  0  0  # atno 8008 bound_to 7997
  156.2146  140.3016  155.9768 H   0  0  0  0  0  0  0  0  0  0  0  0  # atno 8009 bound_to 7997
  155.2619  140.0415  157.2988 H   0  0  0  0  0  0  0  0  0  0  0  0  # atno 8010 bound_to 7997
  140.7245  143.3823  151.1579 H   0  0  0  0  0  0  0  0  0  0  0  0  # atno 10167 bound_to 10162
  156.6789  130.5031  149.5977 H   0  0  0  0  0  0  0  0  0  0  0  0  # atno 10718 bound_to 10713
  152.9825  135.6041  154.3426 H   0  0  0  0  0  0  0  0  0  0  0  0  # atno 10763 bound_to 10752
  154.3121  135.2771  155.2562 H   0  0  0  0  0  0  0  0  0  0  0  0  # atno 10764 bound_to 10752
  154.4767  135.5928  153.6416 H   0  0  0  0  0  0  0  0  0  0  0  0  # atno 10765 bound_to 10752
  140.5215  134.5704  157.5049 H   0  0  0  0  0  0  0  0  0  0  0  0  # atno 11005 bound_to 11000
  144.7210  140.4372  143.7008 LP  0  0  0  0  0  0  0  0  0  0  0  0  # atno 17320 bound_to 7965
  145.6455  139.1556  143.2891 LP  0  0  0  0  0  0  0  0  0  0  0  0  # atno 17321 bound_to 7965
  139.7414  143.8919  152.3051 LP  0  0  0  0  0  0  0  0  0  0  0  0  # atno 17342 bound_to 10162
  139.8741  144.7052  150.8953 LP  0  0  0  0  0  0  0  0  0  0  0  0  # atno 17343 bound_to 10162
  156.1882  130.6543  151.1031 LP  0  0  0  0  0  0  0  0  0  0  0  0  # atno 17370 bound_to 10713
  157.7051  131.0760  150.6695 LP  0  0  0  0  0  0  0  0  0  0  0  0  # atno 17371 bound_to 10713
  139.9603  134.7464  156.0251 LP  0  0  0  0  0  0  0  0  0  0  0  0  # atno 17394 bound_to 11000
  141.1331  133.6581  156.3520 LP  0  0  0  0  0  0  0  0  0  0  0  0  # atno 17395 bound_to 11000

$$$$
