AV-unprocessed.smi:598|AV-procd|sdf|3023|dock9
  -GOLD-   2262023533D 1   1.00000     0.00000
 Structure written by MMmdl.
 43 44  0  0  0  0  0  0  0  0  3 V2000
  152.9476  142.8519  162.8713 C   0  0  0  0  0  0  0  0  0  0  0  0
  152.9137  143.3930  161.4298 C   0  0  2  0  0  0  0  0  0  0  0  0
  152.0021  144.6347  161.3674 C   0  0  0  0  0  0  0  0  0  0  0  0
  151.9584  145.2385  159.9600 C   0  0  0  0  0  0  0  0  0  0  0  0
  151.4872  144.1964  158.9419 C   0  0  0  0  0  0  0  0  0  0  0  0
  152.3836  142.9428  158.9639 C   0  0  2  0  0  0  0  0  0  0  0  0
  151.8637  141.9634  158.0106 N   0  0  0  0  0  0  0  0  0  0  0  0
  150.5957  141.5283  157.9544 C   0  0  0  0  0  0  0  0  0  0  0  0
  149.7103  141.9267  158.7123 O   0  0  0  0  0  0  0  0  0  0  0  0
  150.2878  140.4967  156.8598 C   0  0  0  0  0  0  0  0  0  0  0  0
  149.2766  140.9601  155.8949 N   0  0  0  0  0  0  0  0  0  0  0  0
  148.1669  141.6565  156.4138 C   0  0  0  0  0  0  0  0  0  0  0  0
  147.1787  142.1195  155.6233 C   0  0  0  0  0  0  0  0  0  0  0  0
  146.0437  142.8270  156.1738 N   0  3  0  0  0  0  0  0  0  0  0  0
  145.1969  143.2701  155.4044 O   0  0  0  0  0  0  0  0  0  0  0  0
  145.9608  142.9648  157.3907 O   0  5  0  0  0  0  0  0  0  0  0  0
  147.2882  141.8804  154.1972 C   0  0  0  0  0  0  0  0  0  0  0  0
  148.3449  141.2115  153.6953 C   0  0  0  0  0  0  0  0  0  0  0  0
  149.4168  140.7044  154.5579 C   0  0  0  0  0  0  0  0  0  0  0  0
  150.3818  140.0876  154.1062 O   0  0  0  0  0  0  0  0  0  0  0  0
  152.4799  142.3248  160.3855 C   0  0  1  0  0  0  0  0  0  0  0  0
  153.4167  141.0966  160.3934 C   0  0  0  0  0  0  0  0  0  0  0  0
  151.9870  142.4220  163.1572 H   0  0  0  0  0  0  0  0  0  0  0  0
  153.1785  143.6463  163.5817 H   0  0  0  0  0  0  0  0  0  0  0  0
  153.7120  142.0865  163.0006 H   0  0  0  0  0  0  0  0  0  0  0  0
  153.9254  143.7172  161.1798 H   0  0  0  0  0  0  0  0  0  0  0  0
  150.9918  144.3672  161.6802 H   0  0  0  0  0  0  0  0  0  0  0  0
  152.3516  145.3910  162.0713 H   0  0  0  0  0  0  0  0  0  0  0  0
  151.2915  146.1008  159.9454 H   0  0  0  0  0  0  0  0  0  0  0  0
  152.9473  145.6056  159.6833 H   0  0  0  0  0  0  0  0  0  0  0  0
  150.4550  143.9180  159.1598 H   0  0  0  0  0  0  0  0  0  0  0  0
  151.4827  144.6406  157.9457 H   0  0  0  0  0  0  0  0  0  0  0  0
  153.3907  143.2340  158.6581 H   0  0  0  0  0  0  0  0  0  0  0  0
  152.5227  141.5857  157.3453 H   0  0  0  0  0  0  0  0  0  0  0  0
  151.2217  140.2541  156.3509 H   0  0  0  0  0  0  0  0  0  0  0  0
  149.9652  139.5615  157.3216 H   0  0  0  0  0  0  0  0  0  0  0  0
  148.1750  141.7760  157.4876 H   0  0  0  0  0  0  0  0  0  0  0  0
  146.5237  142.2349  153.5217 H   0  0  0  0  0  0  0  0  0  0  0  0
  148.4054  141.0438  152.6298 H   0  0  0  0  0  0  0  0  0  0  0  0
  151.4832  141.9773  160.6629 H   0  0  0  0  0  0  0  0  0  0  0  0
  154.4459  141.3848  160.1776 H   0  0  0  0  0  0  0  0  0  0  0  0
  153.1216  140.3535  159.6529 H   0  0  0  0  0  0  0  0  0  0  0  0
  153.4067  140.5854  161.3550 H   0  0  0  0  0  0  0  0  0  0  0  0
  1  2  1  0  0  0  0
  1 23  1  0  0  0  0
  1 24  1  0  0  0  0
  1 25  1  0  0  0  0
  2 21  1  0  0  0  0
  2  3  1  0  0  0  0
  2 26  1  0  0  0  0
  3  4  1  0  0  0  0
  3 27  1  0  0  0  0
  3 28  1  0  0  0  0
  4  5  1  0  0  0  0
  4 29  1  0  0  0  0
  4 30  1  0  0  0  0
  5  6  1  0  0  0  0
  5 31  1  0  0  0  0
  5 32  1  0  0  0  0
  6  7  1  0  0  0  0
  6 21  1  0  0  0  0
  6 33  1  0  0  0  0
  7  8  1  0  0  0  0
  7 34  1  0  0  0  0
  8  9  2  0  0  0  0
  8 10  1  0  0  0  0
 10 11  1  0  0  0  0
 10 35  1  0  0  0  0
 10 36  1  0  0  0  0
 11 19  1  0  0  0  0
 11 12  1  0  0  0  0
 12 13  2  0  0  0  0
 12 37  1  0  0  0  0
 13 14  1  0  0  0  0
 13 17  1  0  0  0  0
 14 15  2  0  0  0  0
 14 16  1  0  0  0  0
 17 18  2  0  0  0  0
 17 38  1  0  0  0  0
 18 19  1  0  0  0  0
 18 39  1  0  0  0  0
 19 20  2  0  0  0  0
 21 22  1  0  0  0  0
 21 40  1  0  0  0  0
 22 41  1  0  0  0  0
 22 42  1  0  0  0  0
 22 43  1  0  0  0  0
M  CHG  1  14   1
M  CHG  1  16  -1
M  END
> <s_m_source_file>
AV-unprocessed.smi

> <i_m_source_file_index>
598

> <i_lp_mmshare_version>
43012

> <i_f3d_flags>
0

> <s_epik_input>
W0NIM11bQ0BASF0xW0NIMl1bQ0gyXVtDSDJdW0NASF0oW0NASF0xW0NIM10pW05IXUMoPU8pW0NIMl1uMltjSF1jKFtOK10oPU8pW08tXSlbY0hdW2NIXWMyPU8=

> <s_epik_cmdline>
J2VwaWtfcHl0aG9uJywgJy1waCcsICc3LjAnLCAnLXRuJywgJzgnLCAnLW1hJywgJzIwMCcsICctbWV0YWxfYmluZGluZycsICctaW1hZScsICc8aW5maWxlLm1hZT4nLCAnLW9tYWUnLCAnPG91dGZpbGUubWFlPic=

> <r_lp_tautomer_probability>
1

> <r_epik_Ionization_Penalty>
1.91291e-08

> <r_epik_Ionization_Penalty_Charging>
8.21931e-11

> <r_epik_Ionization_Penalty_Neutral>
1.90469e-08

> <r_epik_State_Penalty>
-0

> <r_epik_Charging_Adjusted_Penalty>
8.21931e-11

> <i_epik_Tot_Q>
0

> <i_epik_Tot_abs_Q>
2

> <r_epik_Metal_State_Penalty>
-0

> <b_epik_Metal_Only>
0

> <s_lp_Force_Field>
OPLS_2005

> <r_lp_Energy>
24.1223

> <b_lp_Chiralities_Consistent>
1

> <s_lp_Variant>
AV-unprocessed.smi:598-3

> <Gold.Version>
5.8.1

> <Gold.Id.Protein>
6NUR|6NUR_protein|mol2

> <Gold.PLP.Fitness>
48.5581

> <Gold.PLP.PLP>
-46.2840

> <Gold.PLP.part.hbond>
-1.9124

> <Gold.PLP.part.metal>
0.0000

> <Gold.PLP.part.buried>
-3.7823

> <Gold.PLP.part.nonpolar>
-41.3499

> <Gold.PLP.part.repulsive>
1.1520

> <Gold.PLP.ligand.clash>
0.0000

> <Gold.PLP.ligand.torsion>
0.3667

> <Gold.PLP.Chemscore.Hbond>
1.0000

> <Gold.PLP.Chemscore.CHOScore>
0.0000

> <Gold.PLP.Chemscore.Metal>
0.0000

> <Gold.Chemscore.Hbonds>
donor molecule, donor type, donor heavy atom, donor atom, acceptor molecule, acceptor atom, score
      P1  H  7989  7998       L1    20  1.00

> <Gold.PLP.Chemscore.Internal.Correction>
0.0077

> <Gold.Rescore>
     Score         DG    S(hbond)    S(metal)    S(lipo)     H(rot)  DE(clash)    DE(int)     intcor
     15.27     -18.66       0.95        0.00     119.19       1.54       0.59       2.79       ----

> <Gold.Chemscore.Fitness>
15.2743

> <Gold.Chemscore.DG>
-18.6558

> <Gold.Chemscore.ZeroCoef>
-5.4800

> <Gold.Chemscore.Hbond>
0.9494

> <Gold.Chemscore.Metal>
0.0000

> <Gold.Chemscore.Lipo>
119.1926

> <Gold.Chemscore.Internal_Hbond>
0.0000

> <Gold.Chemscore.DEClash>
0.5923

> <Gold.Chemscore.DEInternal>
2.7892

> <Gold.Chemscore.Rot>
1.5393

> <Gold.Chemscore.Internal.Correction>
   9.000000E+99

> <Gold.Chemscore.Hbonds>
donor molecule, donor type, donor heavy atom, donor atom, acceptor molecule, acceptor atom, score
      P1  H  7989  7998       L1    20  0.93

> <Gold.Chemscore.Hbond.Weighted>
-3.1710

> <Gold.Chemscore.Metal.Weighted>
-0.0000

> <Gold.Chemscore.Lipo.Weighted>
-13.9455

> <Gold.Chemscore.Internal_Hbond.Weighted>
0.0000

> <Gold.Chemscore.DEClash.Weighted>
0.5923

> <Gold.Chemscore.DEInternal.Weighted>
2.7892

> <Gold.Chemscore.Rot.Weighted>
3.9407

> <Gold.Chemscore.Internal.Correction.Weighted>
   9.000000E+99

> <Gold.Protein.RotatedTorsions>
[ 6907 6896 6895 6894 ] final    7.04 input  -60.11 | X-H torsion
[ 7974 7965 7964 7962 ] final -123.39 input  175.53 | X-H torsion
[ 8008 7997 7996 7995 ] final   74.81 input   59.86 | X-H torsion
[ 10167 10162 10161 10158 ] final   77.75 input  -65.29 | X-H torsion
[ 10718 10713 10712 10709 ] final   72.21 input   66.30 | X-H torsion
[ 10763 10752 10751 10750 ] final  -75.41 input  -60.55 | X-H torsion
[ 11005 11000 10999 10996 ] final -115.98 input  -57.11 | X-H torsion

> <Gold.Protein.ActiveResidues>
 VAL166  LYS551  ARG553  GLY616  TRP617  ASP618  TYR619  PRO620  LYS621  CYS622 
 ASP623  PHE694  ASN695  SER759  ASP760  ASP761  ALA762  ILE779  LEU786  VAL792 
 PHE793  MET794  SER795  GLU796  ALA797  LYS798  CYS799  TRP800  GLU811  SER814 

> <Gold.Protein.RotatedAtoms>
  151.6835  135.0958  160.0220 H   0  0  0  0  0  0  0  0  0  0  0  0  # atno 6907 bound_to 6896
  152.3821  133.6556  159.6178 H   0  0  0  0  0  0  0  0  0  0  0  0  # atno 6908 bound_to 6896
  150.7755  133.9013  159.3383 H   0  0  0  0  0  0  0  0  0  0  0  0  # atno 6909 bound_to 6896
  145.0191  140.7973  143.4391 H   0  0  0  0  0  0  0  0  0  0  0  0  # atno 7974 bound_to 7965
  155.8038  140.3475  155.5418 H   0  0  0  0  0  0  0  0  0  0  0  0  # atno 8008 bound_to 7997
  155.8511  140.0956  157.1694 H   0  0  0  0  0  0  0  0  0  0  0  0  # atno 8009 bound_to 7997
  154.4008  140.1376  156.3833 H   0  0  0  0  0  0  0  0  0  0  0  0  # atno 8010 bound_to 7997
  139.9783  144.5845  150.7923 H   0  0  0  0  0  0  0  0  0  0  0  0  # atno 10167 bound_to 10162
  157.6489  130.9567  150.0896 H   0  0  0  0  0  0  0  0  0  0  0  0  # atno 10718 bound_to 10713
  154.4861  135.5832  153.6425 H   0  0  0  0  0  0  0  0  0  0  0  0  # atno 10763 bound_to 10752
  152.9855  135.6101  154.3184 H   0  0  0  0  0  0  0  0  0  0  0  0  # atno 10764 bound_to 10752
  154.3080  135.2845  155.2559 H   0  0  0  0  0  0  0  0  0  0  0  0  # atno 10765 bound_to 10752
  141.0452  133.9774  157.2929 H   0  0  0  0  0  0  0  0  0  0  0  0  # atno 11005 bound_to 11000
  145.1919  139.2296  143.5238 LP  0  0  0  0  0  0  0  0  0  0  0  0  # atno 17320 bound_to 7965
  146.3482  140.1717  142.8589 LP  0  0  0  0  0  0  0  0  0  0  0  0  # atno 17321 bound_to 7965
  140.7498  143.2945  151.3242 LP  0  0  0  0  0  0  0  0  0  0  0  0  # atno 17342 bound_to 10162
  139.6429  144.0505  152.2568 LP  0  0  0  0  0  0  0  0  0  0  0  0  # atno 17343 bound_to 10162
  156.1849  130.3652  149.8986 LP  0  0  0  0  0  0  0  0  0  0  0  0  # atno 17370 bound_to 10713
  156.6929  130.8903  151.3590 LP  0  0  0  0  0  0  0  0  0  0  0  0  # atno 17371 bound_to 10713
  139.9306  135.0200  156.8387 LP  0  0  0  0  0  0  0  0  0  0  0  0  # atno 17394 bound_to 11000
  140.6160  134.0038  155.7597 LP  0  0  0  0  0  0  0  0  0  0  0  0  # atno 17395 bound_to 11000

$$$$
