AV-unprocessed.smi:3167|AV-procd|sdf|12098|dock2
  -GOLD-   2272017533D 1   1.00000     0.00000
 Structure written by MMmdl.
 37 38  0  0  0  0  0  0  0  0  2 V2000
  148.6695  138.4135  146.6503 C   0  0  0  0  0  0  0  0  0  0  0  0
  148.8547  137.9215  148.1039 C   0  0  1  0  0  0  0  0  0  0  0  0
  148.9920  139.1191  149.0748 C   0  0  0  0  0  0  0  0  0  0  0  0
  148.8234  138.7176  150.4665 N   0  0  0  0  0  0  0  0  0  0  0  0
  148.7349  139.5743  151.4923 C   0  0  0  0  0  0  0  0  0  0  0  0
  148.7838  140.7972  151.3590 O   0  0  0  0  0  0  0  0  0  0  0  0
  148.5888  138.9273  152.6602 N   0  0  0  0  0  0  0  0  0  0  0  0
  148.4622  139.5001  153.9512 C   0  0  0  0  0  0  0  0  0  0  0  0
  147.7653  138.9029  155.0367 C   0  0  0  0  0  0  0  0  0  0  0  0
  147.8127  139.6650  156.1199 N   0  0  0  0  0  0  0  0  0  0  0  0
  148.5324  140.7434  155.7362 N   0  0  0  0  0  0  0  0  0  0  0  0
  148.9484  140.6865  154.4243 C   0  0  0  0  0  0  0  0  0  0  0  0
  147.7321  137.0314  148.5208 N   0  3  0  0  0  0  0  0  0  0  0  0
  146.3862  137.6461  148.5130 C   0  0  0  0  0  0  0  0  0  0  0  0
  145.4143  136.4731  148.4711 C   0  0  0  0  0  0  0  0  0  0  0  0
  146.1242  135.4727  147.5672 C   0  0  0  0  0  0  0  0  0  0  0  0
  147.6196  135.7571  147.7651 C   0  0  0  0  0  0  0  0  0  0  0  0
  148.7284  141.5019  156.3737 H   0  0  0  0  0  0  0  0  0  0  0  0
  149.4811  139.0709  146.3389 H   0  0  0  0  0  0  0  0  0  0  0  0
  147.7370  138.9671  146.5365 H   0  0  0  0  0  0  0  0  0  0  0  0
  148.6585  137.5896  145.9371 H   0  0  0  0  0  0  0  0  0  0  0  0
  149.7749  137.3360  148.1447 H   0  0  0  0  0  0  0  0  0  0  0  0
  149.9708  139.5861  148.9525 H   0  0  0  0  0  0  0  0  0  0  0  0
  148.2482  139.8870  148.8599 H   0  0  0  0  0  0  0  0  0  0  0  0
  148.7744  137.7280  150.6608 H   0  0  0  0  0  0  0  0  0  0  0  0
  148.5666  137.9188  152.6242 H   0  0  0  0  0  0  0  0  0  0  0  0
  147.2376  137.9615  155.0739 H   0  0  0  0  0  0  0  0  0  0  0  0
  149.5321  141.4722  153.9685 H   0  0  0  0  0  0  0  0  0  0  0  0
  146.2207  138.2803  149.3844 H   0  0  0  0  0  0  0  0  0  0  0  0
  146.2643  138.2564  147.6164 H   0  0  0  0  0  0  0  0  0  0  0  0
  145.2962  136.0524  149.4707 H   0  0  0  0  0  0  0  0  0  0  0  0
  144.4266  136.7521  148.1029 H   0  0  0  0  0  0  0  0  0  0  0  0
  145.8584  134.4409  147.7986 H   0  0  0  0  0  0  0  0  0  0  0  0
  145.8502  135.6593  146.5280 H   0  0  0  0  0  0  0  0  0  0  0  0
  148.1109  135.8174  146.7930 H   0  0  0  0  0  0  0  0  0  0  0  0
  148.1024  134.9612  148.3329 H   0  0  0  0  0  0  0  0  0  0  0  0
  147.9052  136.7690  149.4807 H   0  0  0  0  0  0  0  0  0  0  0  0
  1  2  1  0  0  0  0
  1 19  1  0  0  0  0
  1 20  1  0  0  0  0
  1 21  1  0  0  0  0
  2  3  1  0  0  0  0
  2 13  1  0  0  0  0
  2 22  1  0  0  0  0
  3  4  1  0  0  0  0
  3 23  1  0  0  0  0
  3 24  1  0  0  0  0
  4  5  1  0  0  0  0
  4 25  1  0  0  0  0
  5  6  2  0  0  0  0
  5  7  1  0  0  0  0
  7  8  1  0  0  0  0
  7 26  1  0  0  0  0
  8 12  2  0  0  0  0
  8  9  1  0  0  0  0
  9 10  2  0  0  0  0
  9 27  1  0  0  0  0
 10 11  1  0  0  0  0
 11 18  1  0  0  0  0
 11 12  1  0  0  0  0
 12 28  1  0  0  0  0
 13 17  1  0  0  0  0
 13 14  1  0  0  0  0
 13 37  1  0  0  0  0
 14 15  1  0  0  0  0
 14 29  1  0  0  0  0
 14 30  1  0  0  0  0
 15 16  1  0  0  0  0
 15 31  1  0  0  0  0
 15 32  1  0  0  0  0
 16 17  1  0  0  0  0
 16 33  1  0  0  0  0
 16 34  1  0  0  0  0
 17 35  1  0  0  0  0
 17 36  1  0  0  0  0
M  CHG  1  13   1
M  END
> <s_m_source_file>
AV-unprocessed.smi

> <i_m_source_file_index>
3167

> <i_lp_mmshare_version>
43012

> <i_f3d_flags>
0

> <s_epik_input>
W0NIMl0xW0NIMl1bQ0gyXVtDSDJdTjFbQ0BIXShbQ0gzXSlbQ0gyXVtOSF1DKD1PKVtOSF1jMltjSF1uW25IXVtjSF0y

> <s_epik_cmdline>
J2VwaWtfcHl0aG9uJywgJy1waCcsICc3LjAnLCAnLXRuJywgJzgnLCAnLW1hJywgJzIwMCcsICctbWV0YWxfYmluZGluZycsICctaW1hZScsICc8aW5maWxlLm1hZT4nLCAnLW9tYWUnLCAnPG91dGZpbGUubWFlPic=

> <r_lp_tautomer_probability>
0.5

> <r_epik_Ionization_Penalty>
0.000801258

> <r_epik_Ionization_Penalty_Charging>
0.000761583

> <r_epik_Ionization_Penalty_Neutral>
3.96747e-05

> <r_epik_State_Penalty>
0.000487427

> <r_epik_Charging_Adjusted_Penalty>
0.00124901

> <i_epik_Tot_Q>
1

> <i_epik_Tot_abs_Q>
1

> <r_epik_Metal_State_Penalty>
-0

> <b_epik_Metal_Only>
0

> <s_lp_Force_Field>
OPLS_2005

> <r_lp_Energy>
33.9812

> <b_lp_Chiralities_Consistent>
1

> <s_lp_Variant>
AV-unprocessed.smi:3167-2

> <Gold.Version>
5.8.1

> <Gold.Id.Protein>
6NUR|6NUR_protein|mol2

> <Gold.PLP.Fitness>
39.3671

> <Gold.PLP.PLP>
-28.6030

> <Gold.PLP.part.hbond>
-5.0000

> <Gold.PLP.part.metal>
0.0000

> <Gold.PLP.part.buried>
-4.2765

> <Gold.PLP.part.nonpolar>
-21.2645

> <Gold.PLP.part.repulsive>
0.9311

> <Gold.PLP.ligand.clash>
0.0000

> <Gold.PLP.ligand.torsion>
0.3618

> <Gold.PLP.Chemscore.Hbond>
3.8160

> <Gold.PLP.Chemscore.CHOScore>
0.0000

> <Gold.PLP.Chemscore.Metal>
0.0000

> <Gold.Chemscore.Hbonds>
donor molecule, donor type, donor heavy atom, donor atom, acceptor molecule, acceptor atom, score
      L1  H     4    25       P1  7948  0.70
      L1  H     7    26       P1  7948  1.00
      P1  H  8011  8017       L1     6  0.61

> <Gold.PLP.Chemscore.Internal.Correction>
0.0397

> <Gold.Rescore>
     Score         DG    S(hbond)    S(metal)    S(lipo)     H(rot)  DE(clash)    DE(int)     intcor
     16.42     -17.49       2.83        0.00      57.60       1.63       0.00       1.08       ----

> <Gold.Chemscore.Fitness>
16.4184

> <Gold.Chemscore.DG>
-17.4947

> <Gold.Chemscore.ZeroCoef>
-5.4800

> <Gold.Chemscore.Hbond>
2.8298

> <Gold.Chemscore.Metal>
0.0000

> <Gold.Chemscore.Lipo>
57.5968

> <Gold.Chemscore.Internal_Hbond>
0.0000

> <Gold.Chemscore.DEClash>
0.0000

> <Gold.Chemscore.DEInternal>
1.0763

> <Gold.Chemscore.Rot>
1.6311

> <Gold.Chemscore.Internal.Correction>
   9.000000E+99

> <Gold.Chemscore.Hbonds>
donor molecule, donor type, donor heavy atom, donor atom, acceptor molecule, acceptor atom, score
      L1  H     4    25       P1  7948  0.07
      L1  H     7    26       P1  7948  0.97
      P1  H  8011  8017       L1     6  0.61

> <Gold.Chemscore.Hbond.Weighted>
-9.4515

> <Gold.Chemscore.Metal.Weighted>
-0.0000

> <Gold.Chemscore.Lipo.Weighted>
-6.7388

> <Gold.Chemscore.Internal_Hbond.Weighted>
0.0000

> <Gold.Chemscore.DEClash.Weighted>
0.0000

> <Gold.Chemscore.DEInternal.Weighted>
1.0763

> <Gold.Chemscore.Rot.Weighted>
4.1757

> <Gold.Chemscore.Internal.Correction.Weighted>
   9.000000E+99

> <Gold.Protein.RotatedTorsions>
[ 6907 6896 6895 6894 ] final  -88.47 input  -60.11 | X-H torsion
[ 7974 7965 7964 7962 ] final -158.40 input  175.53 | X-H torsion
[ 8008 7997 7996 7995 ] final  131.99 input   59.86 | X-H torsion
[ 10167 10162 10161 10158 ] final  118.02 input  -65.29 | X-H torsion
[ 10718 10713 10712 10709 ] final   62.17 input   66.30 | X-H torsion
[ 10763 10752 10751 10750 ] final -151.22 input  -60.55 | X-H torsion
[ 11005 11000 10999 10996 ] final   -9.23 input  -57.11 | X-H torsion

> <Gold.Protein.ActiveResidues>
 VAL166  LYS551  ARG553  GLY616  TRP617  ASP618  TYR619  PRO620  LYS621  CYS622 
 ASP623  PHE694  ASN695  SER759  ASP760  ASP761  ALA762  ILE779  LEU786  VAL792 
 PHE793  MET794  SER795  GLU796  ALA797  LYS798  CYS799  TRP800  GLU811  SER814 

> <Gold.Protein.RotatedAtoms>
  150.6869  134.2736  159.4598 H   0  0  0  0  0  0  0  0  0  0  0  0  # atno 6907 bound_to 6896
  152.0656  134.9564  160.0584 H   0  0  0  0  0  0  0  0  0  0  0  0  # atno 6908 bound_to 6896
  152.0974  133.4197  159.4608 H   0  0  0  0  0  0  0  0  0  0  0  0  # atno 6909 bound_to 6896
  144.7507  140.3833  143.6050 H   0  0  0  0  0  0  0  0  0  0  0  0  # atno 7974 bound_to 7965
  156.2977  140.2557  156.3015 H   0  0  0  0  0  0  0  0  0  0  0  0  # atno 8008 bound_to 7997
  154.9413  140.0396  157.2117 H   0  0  0  0  0  0  0  0  0  0  0  0  # atno 8009 bound_to 7997
  154.8124  140.2846  155.5848 H   0  0  0  0  0  0  0  0  0  0  0  0  # atno 8010 bound_to 7997
  139.6139  144.7088  151.2782 H   0  0  0  0  0  0  0  0  0  0  0  0  # atno 10167 bound_to 10162
  157.5881  130.9035  149.9553 H   0  0  0  0  0  0  0  0  0  0  0  0  # atno 10718 bound_to 10713
  154.8071  135.3265  154.7403 H   0  0  0  0  0  0  0  0  0  0  0  0  # atno 10763 bound_to 10752
  153.8059  135.6899  153.4852 H   0  0  0  0  0  0  0  0  0  0  0  0  # atno 10764 bound_to 10752
  153.1824  135.4582  154.9989 H   0  0  0  0  0  0  0  0  0  0  0  0  # atno 10765 bound_to 10752
  140.7320  133.8741  155.8900 H   0  0  0  0  0  0  0  0  0  0  0  0  # atno 11005 bound_to 11000
  145.6954  139.1648  143.2623 LP  0  0  0  0  0  0  0  0  0  0  0  0  # atno 17320 bound_to 7965
  146.1453  140.7000  142.9347 LP  0  0  0  0  0  0  0  0  0  0  0  0  # atno 17321 bound_to 7965
  140.7338  143.6785  150.8021 LP  0  0  0  0  0  0  0  0  0  0  0  0  # atno 17342 bound_to 10162
  140.0384  143.5371  152.2729 LP  0  0  0  0  0  0  0  0  0  0  0  0  # atno 17343 bound_to 10162
  156.0932  130.3661  150.0355 LP  0  0  0  0  0  0  0  0  0  0  0  0  # atno 17370 bound_to 10713
  156.8482  130.9450  151.3627 LP  0  0  0  0  0  0  0  0  0  0  0  0  # atno 17371 bound_to 10713
  140.9913  134.1275  157.4405 LP  0  0  0  0  0  0  0  0  0  0  0  0  # atno 17394 bound_to 11000
  139.8824  135.0041  156.6228 LP  0  0  0  0  0  0  0  0  0  0  0  0  # atno 17395 bound_to 11000

$$$$
