AV-unprocessed.smi:2124|AV-procd|sdf|8652|dock5
  -GOLD-   2272011403D 1   1.00000     0.00000
 Structure written by MMmdl.
 47 49  0  0  0  0  0  0  0  0  1 V2000
  143.9614  139.6121  155.9982 C   0  0  0  0  0  0  0  0  0  0  0  0
  145.2797  140.1861  155.5244 C   0  0  0  0  0  0  0  0  0  0  0  0
  145.4036  141.3529  154.9829 N   0  0  0  0  0  0  0  0  0  0  0  0
  146.6778  141.7778  154.5819 C   0  0  0  0  0  0  0  0  0  0  0  0
  146.7416  143.1610  153.9583 C   0  0  0  0  0  0  0  0  0  0  0  0
  147.7800  140.9891  154.7467 C   0  0  0  0  0  0  0  0  0  0  0  0
  149.1827  141.4212  154.3208 C   0  0  0  0  0  0  0  0  0  0  0  0
  150.3191  141.0902  155.2919 C   0  0  0  0  0  0  0  0  0  0  0  0
  151.2100  140.3035  154.9705 O   0  0  0  0  0  0  0  0  0  0  0  0
  150.2724  141.7142  156.4792 N   0  0  0  0  0  0  0  0  0  0  0  0
  151.2493  141.5819  157.5592 C   0  0  2  0  0  0  0  0  0  0  0  0
  151.0185  140.2310  158.2563 C   0  0  0  0  0  0  0  0  0  0  0  0
  151.1330  142.7775  158.5380 C   0  0  1  0  0  0  0  0  0  0  0  0
  152.1324  142.7073  159.7191 C   0  0  0  0  0  0  0  0  0  0  0  0
  152.8546  144.0646  159.6559 C   0  0  2  0  0  0  0  0  0  0  0  0
  151.8820  145.1860  160.0635 C   0  0  0  0  0  0  0  0  0  0  0  0
  150.9375  145.2690  158.8503 C   0  0  0  0  0  0  0  0  0  0  0  0
  151.4744  144.1609  157.9240 C   0  0  1  0  0  0  0  0  0  0  0  0
  152.9774  144.2767  158.1531 C   0  0  0  0  0  0  0  0  0  0  0  0
  147.6280  139.6609  155.3714 C   0  0  0  0  0  0  0  0  0  0  0  0
  148.5540  138.8783  155.5792 O   0  0  0  0  0  0  0  0  0  0  0  0
  146.3647  139.3342  155.7254 N   0  0  0  0  0  0  0  0  0  0  0  0
  146.2086  138.4352  156.1571 H   0  0  0  0  0  0  0  0  0  0  0  0
  143.5275  140.2535  156.7656 H   0  0  0  0  0  0  0  0  0  0  0  0
  144.0836  138.6125  156.4173 H   0  0  0  0  0  0  0  0  0  0  0  0
  143.2596  139.5499  155.1664 H   0  0  0  0  0  0  0  0  0  0  0  0
  147.0342  143.0939  152.9103 H   0  0  0  0  0  0  0  0  0  0  0  0
  147.4636  143.7875  154.4822 H   0  0  0  0  0  0  0  0  0  0  0  0
  145.7733  143.6607  154.0046 H   0  0  0  0  0  0  0  0  0  0  0  0
  149.4253  140.9955  153.3461 H   0  0  0  0  0  0  0  0  0  0  0  0
  149.1847  142.4994  154.1609 H   0  0  0  0  0  0  0  0  0  0  0  0
  149.5001  142.3426  156.6467 H   0  0  0  0  0  0  0  0  0  0  0  0
  152.2595  141.5683  157.1469 H   0  0  0  0  0  0  0  0  0  0  0  0
  151.7569  140.0496  159.0370 H   0  0  0  0  0  0  0  0  0  0  0  0
  151.0914  139.4070  157.5455 H   0  0  0  0  0  0  0  0  0  0  0  0
  150.0312  140.1852  158.7172 H   0  0  0  0  0  0  0  0  0  0  0  0
  150.1114  142.7986  158.9218 H   0  0  0  0  0  0  0  0  0  0  0  0
  151.6338  142.5458  160.6756 H   0  0  0  0  0  0  0  0  0  0  0  0
  152.8558  141.9020  159.5856 H   0  0  0  0  0  0  0  0  0  0  0  0
  153.7980  144.0831  160.2024 H   0  0  0  0  0  0  0  0  0  0  0  0
  151.3530  144.9570  160.9894 H   0  0  0  0  0  0  0  0  0  0  0  0
  152.4109  146.1299  160.2028 H   0  0  0  0  0  0  0  0  0  0  0  0
  149.8922  145.1181  159.1220 H   0  0  0  0  0  0  0  0  0  0  0  0
  151.0183  146.2454  158.3710 H   0  0  0  0  0  0  0  0  0  0  0  0
  151.1611  144.2939  156.8887 H   0  0  0  0  0  0  0  0  0  0  0  0
  153.3819  145.2544  157.8852 H   0  0  0  0  0  0  0  0  0  0  0  0
  153.5566  143.5009  157.6497 H   0  0  0  0  0  0  0  0  0  0  0  0
  1  2  1  0  0  0  0
  1 24  1  0  0  0  0
  1 25  1  0  0  0  0
  1 26  1  0  0  0  0
  2 22  1  0  0  0  0
  2  3  2  0  0  0  0
  3  4  1  0  0  0  0
  4  5  1  0  0  0  0
  4  6  2  0  0  0  0
  5 27  1  0  0  0  0
  5 28  1  0  0  0  0
  5 29  1  0  0  0  0
  6  7  1  0  0  0  0
  6 20  1  0  0  0  0
  7  8  1  0  0  0  0
  7 30  1  0  0  0  0
  7 31  1  0  0  0  0
  8  9  2  0  0  0  0
  8 10  1  0  0  0  0
 10 11  1  0  0  0  0
 10 32  1  0  0  0  0
 11 12  1  0  0  0  0
 11 13  1  0  0  0  0
 11 33  1  0  0  0  0
 12 34  1  0  0  0  0
 12 35  1  0  0  0  0
 12 36  1  0  0  0  0
 13 18  1  0  0  0  0
 13 14  1  0  0  0  0
 13 37  1  0  0  0  0
 14 15  1  0  0  0  0
 14 38  1  0  0  0  0
 14 39  1  0  0  0  0
 15 19  1  0  0  0  0
 15 16  1  0  0  0  0
 15 40  1  0  0  0  0
 16 17  1  0  0  0  0
 16 41  1  0  0  0  0
 16 42  1  0  0  0  0
 17 18  1  0  0  0  0
 17 43  1  0  0  0  0
 17 44  1  0  0  0  0
 18 19  1  0  0  0  0
 18 45  1  0  0  0  0
 19 46  1  0  0  0  0
 19 47  1  0  0  0  0
 20 21  2  0  0  0  0
 20 22  1  0  0  0  0
 22 23  1  0  0  0  0
M  END
> <s_m_source_file>
AV-unprocessed.smi

> <i_m_source_file_index>
2124

> <i_lp_mmshare_version>
43012

> <i_f3d_flags>
0

> <s_epik_input>
W0NIM11jMW5jKFtDSDNdKWMoYyg9TylbbkhdMSlbQ0gyXUMoPU8pW05IXVtDQEhdKFtDSDNdKVtDQEhdKFtDSDJdW0NASF0yMylbQ0BIXShbQ0gyXTMpW0NIMl1bQ0gyXTI=

> <s_epik_cmdline>
J2VwaWtfcHl0aG9uJywgJy1waCcsICc3LjAnLCAnLXRuJywgJzgnLCAnLW1hJywgJzIwMCcsICctbWV0YWxfYmluZGluZycsICctaW1hZScsICc8aW5maWxlLm1hZT4nLCAnLW9tYWUnLCAnPG91dGZpbGUubWFlPic=

> <r_lp_tautomer_probability>
0.839158

> <r_epik_Ionization_Penalty>
0.000383628

> <r_epik_Ionization_Penalty_Charging>
0.00035045

> <r_epik_Ionization_Penalty_Neutral>
3.31781e-05

> <r_epik_State_Penalty>
0.09125

> <r_epik_Charging_Adjusted_Penalty>
0.0916005

> <i_epik_Tot_Q>
0

> <i_epik_Tot_abs_Q>
0

> <r_epik_Metal_State_Penalty>
0.255229

> <b_epik_Metal_Only>
0

> <s_lp_Force_Field>
OPLS_2005

> <r_lp_Energy>
52.5512

> <b_lp_Chiralities_Consistent>
1

> <s_lp_Variant>
AV-unprocessed.smi:2124-3

> <Gold.Version>
5.8.1

> <Gold.Id.Protein>
6NUR|6NUR_protein|mol2

> <Gold.PLP.Fitness>
44.5705

> <Gold.PLP.PLP>
-42.5803

> <Gold.PLP.part.hbond>
-1.0000

> <Gold.PLP.part.metal>
0.0000

> <Gold.PLP.part.buried>
-4.6187

> <Gold.PLP.part.nonpolar>
-37.2544

> <Gold.PLP.part.repulsive>
0.2648

> <Gold.PLP.ligand.clash>
0.0000

> <Gold.PLP.ligand.torsion>
0.5231

> <Gold.PLP.Chemscore.Hbond>
1.0000

> <Gold.PLP.Chemscore.CHOScore>
0.0000

> <Gold.PLP.Chemscore.Metal>
0.0000

> <Gold.Chemscore.Hbonds>
donor molecule, donor type, donor heavy atom, donor atom, acceptor molecule, acceptor atom, score
      P1  H  7989  7998       L1     9  1.00

> <Gold.PLP.Chemscore.Internal.Correction>
0.0364

> <Gold.Rescore>
     Score         DG    S(hbond)    S(metal)    S(lipo)     H(rot)  DE(clash)    DE(int)     intcor
     16.62     -17.14       0.85        0.00     111.50       1.65       0.11       0.40       ----

> <Gold.Chemscore.Fitness>
16.6236

> <Gold.Chemscore.DG>
-17.1404

> <Gold.Chemscore.ZeroCoef>
-5.4800

> <Gold.Chemscore.Hbond>
0.8525

> <Gold.Chemscore.Metal>
0.0000

> <Gold.Chemscore.Lipo>
111.5027

> <Gold.Chemscore.Internal_Hbond>
0.0000

> <Gold.Chemscore.DEClash>
0.1139

> <Gold.Chemscore.DEInternal>
0.4029

> <Gold.Chemscore.Rot>
1.6534

> <Gold.Chemscore.Internal.Correction>
   9.000000E+99

> <Gold.Chemscore.Hbonds>
donor molecule, donor type, donor heavy atom, donor atom, acceptor molecule, acceptor atom, score
      P1  H  7989  7998       L1     9  0.34

> <Gold.Chemscore.Hbond.Weighted>
-2.8472

> <Gold.Chemscore.Metal.Weighted>
-0.0000

> <Gold.Chemscore.Lipo.Weighted>
-13.0458

> <Gold.Chemscore.Internal_Hbond.Weighted>
0.0000

> <Gold.Chemscore.DEClash.Weighted>
0.1139

> <Gold.Chemscore.DEInternal.Weighted>
0.4029

> <Gold.Chemscore.Rot.Weighted>
4.2326

> <Gold.Chemscore.Internal.Correction.Weighted>
   9.000000E+99

> <Gold.Protein.RotatedTorsions>
[ 6907 6896 6895 6894 ] final -141.61 input  -60.11 | X-H torsion
[ 7974 7965 7964 7962 ] final  158.97 input  175.53 | X-H torsion
[ 8008 7997 7996 7995 ] final   80.86 input   59.86 | X-H torsion
[ 10167 10162 10161 10158 ] final  168.87 input  -65.29 | X-H torsion
[ 10718 10713 10712 10709 ] final   66.28 input   66.30 | X-H torsion
[ 10763 10752 10751 10750 ] final  -73.62 input  -60.55 | X-H torsion
[ 11005 11000 10999 10996 ] final -128.93 input  -57.11 | X-H torsion

> <Gold.Protein.ActiveResidues>
 VAL166  LYS551  ARG553  GLY616  TRP617  ASP618  TYR619  PRO620  LYS621  CYS622 
 ASP623  PHE694  ASN695  SER759  ASP760  ASP761  ALA762  ILE779  LEU786  VAL792 
 PHE793  MET794  SER795  GLU796  ALA797  LYS798  CYS799  TRP800  GLU811  SER814 

> <Gold.Protein.RotatedAtoms>
  151.0761  133.5427  159.2623 H   0  0  0  0  0  0  0  0  0  0  0  0  # atno 6907 bound_to 6896
  151.2348  135.0567  159.9012 H   0  0  0  0  0  0  0  0  0  0  0  0  # atno 6908 bound_to 6896
  152.5418  134.0545  159.8178 H   0  0  0  0  0  0  0  0  0  0  0  0  # atno 6909 bound_to 6896
  144.7816  139.7552  143.6257 H   0  0  0  0  0  0  0  0  0  0  0  0  # atno 7974 bound_to 7965
  155.8893  140.3440  155.5944 H   0  0  0  0  0  0  0  0  0  0  0  0  # atno 8008 bound_to 7997
  155.7629  140.0835  157.2165 H   0  0  0  0  0  0  0  0  0  0  0  0  # atno 8009 bound_to 7997
  154.4032  140.1532  156.2841 H   0  0  0  0  0  0  0  0  0  0  0  0  # atno 8010 bound_to 7997
  139.4978  144.3768  151.9666 H   0  0  0  0  0  0  0  0  0  0  0  0  # atno 10167 bound_to 10162
  157.6159  130.9259  150.0087 H   0  0  0  0  0  0  0  0  0  0  0  0  # atno 10718 bound_to 10713
  154.4620  135.5891  153.6262 H   0  0  0  0  0  0  0  0  0  0  0  0  # atno 10763 bound_to 10752
  152.9824  135.6046  154.3474 H   0  0  0  0  0  0  0  0  0  0  0  0  # atno 10764 bound_to 10752
  154.3347  135.2842  155.2433 H   0  0  0  0  0  0  0  0  0  0  0  0  # atno 10765 bound_to 10752
  140.9475  134.1111  157.4094 H   0  0  0  0  0  0  0  0  0  0  0  0  # atno 11005 bound_to 11000
  146.2027  139.5331  142.9733 LP  0  0  0  0  0  0  0  0  0  0  0  0  # atno 17320 bound_to 7965
  145.6035  141.0351  143.2005 LP  0  0  0  0  0  0  0  0  0  0  0  0  # atno 17321 bound_to 7965
  140.3204  144.3435  150.6011 LP  0  0  0  0  0  0  0  0  0  0  0  0  # atno 17342 bound_to 10162
  140.5727  143.2179  151.7570 LP  0  0  0  0  0  0  0  0  0  0  0  0  # atno 17343 bound_to 10162
  156.1281  130.3644  149.9777 LP  0  0  0  0  0  0  0  0  0  0  0  0  # atno 17370 bound_to 10713
  156.7844  130.9233  151.3646 LP  0  0  0  0  0  0  0  0  0  0  0  0  # atno 17371 bound_to 10713
  139.8837  135.0056  156.6322 LP  0  0  0  0  0  0  0  0  0  0  0  0  # atno 17394 bound_to 11000
  140.7649  133.8786  155.8447 LP  0  0  0  0  0  0  0  0  0  0  0  0  # atno 17395 bound_to 11000

$$$$
