AV-unprocessed.smi:1005|AV-procd|sdf|4376|dock1
  -GOLD-   22720 2293D 1   1.00000     0.00000
 Structure written by MMmdl.
 57 59  0  0  0  0  0  0  0  0  3 V2000
  152.4462  144.0247  160.4458 C   0  0  0  0  0  0  0  0  0  0  0  0
  152.1327  143.0148  159.3549 C   0  0  0  0  0  0  0  0  0  0  0  0
  151.2293  143.3843  158.3334 C   0  0  0  0  0  0  0  0  0  0  0  0
  150.9670  142.4414  157.3468 C   0  0  0  0  0  0  0  0  0  0  0  0
  150.1415  142.5014  156.2221 N   0  3  0  0  0  0  0  0  0  0  0  0
  150.2131  141.3239  155.5423 C   0  0  0  0  0  0  0  0  0  0  0  0
  151.0734  140.5125  156.2151 N   0  0  0  0  0  0  0  0  0  0  0  0
  151.4969  139.1398  155.9050 C   0  0  0  0  0  0  0  0  0  0  0  0
  150.3382  138.1245  155.9646 C   0  0  2  0  0  0  0  0  0  0  0  0
  149.8614  138.1101  157.2936 O   0  0  0  0  0  0  0  0  0  0  0  0
  150.7575  136.6884  155.5823 C   0  0  0  0  0  0  0  0  0  0  0  0
  149.6789  135.6997  155.5529 N   0  0  0  0  0  0  0  0  0  0  0  0
  150.1389  134.4552  154.9463 C   0  0  0  0  0  0  0  0  0  0  0  0
  149.0276  133.3949  154.8969 C   0  0  0  0  0  0  0  0  0  0  0  0
  147.9091  133.9188  154.1898 O   0  0  0  0  0  0  0  0  0  0  0  0
  147.3838  135.1068  154.7773 C   0  0  2  0  0  0  0  0  0  0  0  0
  146.1907  135.5696  153.9226 C   0  0  0  0  0  0  0  0  0  0  0  0
  146.4938  135.5546  152.4687 N   0  3  0  0  0  0  0  0  0  0  0  0
  146.4427  134.2002  151.8713 C   0  0  0  0  0  0  0  0  0  0  0  0
  145.6575  136.5136  151.7136 C   0  0  0  0  0  0  0  0  0  0  0  0
  148.5002  136.1709  154.8274 C   0  0  0  0  0  0  0  0  0  0  0  0
  151.5649  141.1659  157.3522 C   0  0  0  0  0  0  0  0  0  0  0  0
  152.4543  140.7848  158.3547 C   0  0  0  0  0  0  0  0  0  0  0  0
  152.7388  141.7320  159.3642 C   0  0  0  0  0  0  0  0  0  0  0  0
  153.7134  141.3466  160.4642 C   0  0  0  0  0  0  0  0  0  0  0  0
  151.8571  144.9347  160.3282 H   0  0  0  0  0  0  0  0  0  0  0  0
  153.5000  144.3029  160.4163 H   0  0  0  0  0  0  0  0  0  0  0  0
  152.2242  143.6101  161.4294 H   0  0  0  0  0  0  0  0  0  0  0  0
  150.7651  144.3597  158.3190 H   0  0  0  0  0  0  0  0  0  0  0  0
  149.6829  141.0778  154.6334 H   0  0  0  0  0  0  0  0  0  0  0  0
  151.9916  139.1229  154.9336 H   0  0  0  0  0  0  0  0  0  0  0  0
  152.2602  138.8730  156.6374 H   0  0  0  0  0  0  0  0  0  0  0  0
  149.5368  138.4813  155.3185 H   0  0  0  0  0  0  0  0  0  0  0  0
  149.5189  137.2489  157.4793 H   0  0  0  0  0  0  0  0  0  0  0  0
  151.2438  136.6961  154.6067 H   0  0  0  0  0  0  0  0  0  0  0  0
  151.5225  136.3653  156.2902 H   0  0  0  0  0  0  0  0  0  0  0  0
  150.4985  134.6470  153.9338 H   0  0  0  0  0  0  0  0  0  0  0  0
  150.9866  134.0600  155.5075 H   0  0  0  0  0  0  0  0  0  0  0  0
  149.3818  132.4971  154.3901 H   0  0  0  0  0  0  0  0  0  0  0  0
  148.7275  133.0993  155.9034 H   0  0  0  0  0  0  0  0  0  0  0  0
  147.0588  134.8921  155.7960 H   0  0  0  0  0  0  0  0  0  0  0  0
  145.3130  134.9515  154.1181 H   0  0  0  0  0  0  0  0  0  0  0  0
  145.9263  136.5830  154.2288 H   0  0  0  0  0  0  0  0  0  0  0  0
  145.4436  133.7716  151.9594 H   0  0  0  0  0  0  0  0  0  0  0  0
  147.1484  133.5230  152.3509 H   0  0  0  0  0  0  0  0  0  0  0  0
  146.7020  134.2390  150.8128 H   0  0  0  0  0  0  0  0  0  0  0  0
  144.6025  136.2414  151.7700 H   0  0  0  0  0  0  0  0  0  0  0  0
  145.9498  136.5367  150.6631 H   0  0  0  0  0  0  0  0  0  0  0  0
  145.7728  137.5240  152.1079 H   0  0  0  0  0  0  0  0  0  0  0  0
  148.1007  137.0684  155.2977 H   0  0  0  0  0  0  0  0  0  0  0  0
  148.7816  136.4504  153.8108 H   0  0  0  0  0  0  0  0  0  0  0  0
  152.9191  139.8101  158.3637 H   0  0  0  0  0  0  0  0  0  0  0  0
  154.1405  140.3584  160.2911 H   0  0  0  0  0  0  0  0  0  0  0  0
  153.2096  141.3282  161.4308 H   0  0  0  0  0  0  0  0  0  0  0  0
  154.5373  142.0589  160.5156 H   0  0  0  0  0  0  0  0  0  0  0  0
  147.4451  135.8825  152.3739 H   0  0  0  0  0  0  0  0  0  0  0  0
  149.5693  143.2864  155.9378 H   0  0  0  0  0  0  0  0  0  0  0  0
  1  2  1  0  0  0  0
  1 26  1  0  0  0  0
  1 27  1  0  0  0  0
  1 28  1  0  0  0  0
  2 24  1  0  0  0  0
  2  3  2  0  0  0  0
  3  4  1  0  0  0  0
  3 29  1  0  0  0  0
  4 22  2  0  0  0  0
  4  5  1  0  0  0  0
  5  6  2  0  0  0  0
  5 57  1  0  0  0  0
  6  7  1  0  0  0  0
  6 30  1  0  0  0  0
  7  8  1  0  0  0  0
  7 22  1  0  0  0  0
  8  9  1  0  0  0  0
  8 31  1  0  0  0  0
  8 32  1  0  0  0  0
  9 10  1  0  0  0  0
  9 11  1  0  0  0  0
  9 33  1  0  0  0  0
 10 34  1  0  0  0  0
 11 12  1  0  0  0  0
 11 35  1  0  0  0  0
 11 36  1  0  0  0  0
 12 21  1  0  0  0  0
 12 13  1  0  0  0  0
 13 14  1  0  0  0  0
 13 37  1  0  0  0  0
 13 38  1  0  0  0  0
 14 15  1  0  0  0  0
 14 39  1  0  0  0  0
 14 40  1  0  0  0  0
 15 16  1  0  0  0  0
 16 17  1  0  0  0  0
 16 21  1  0  0  0  0
 16 41  1  0  0  0  0
 17 18  1  0  0  0  0
 17 42  1  0  0  0  0
 17 43  1  0  0  0  0
 18 19  1  0  0  0  0
 18 20  1  0  0  0  0
 18 56  1  0  0  0  0
 19 44  1  0  0  0  0
 19 45  1  0  0  0  0
 19 46  1  0  0  0  0
 20 47  1  0  0  0  0
 20 48  1  0  0  0  0
 20 49  1  0  0  0  0
 21 50  1  0  0  0  0
 21 51  1  0  0  0  0
 22 23  1  0  0  0  0
 23 24  2  0  0  0  0
 23 52  1  0  0  0  0
 24 25  1  0  0  0  0
 25 53  1  0  0  0  0
 25 54  1  0  0  0  0
 25 55  1  0  0  0  0
M  CHG  1   5   1
M  CHG  1  18   1
M  END
> <s_m_source_file>
AV-unprocessed.smi

> <i_m_source_file_index>
1005

> <i_lp_mmshare_version>
43012

> <i_f3d_flags>
0

> <s_epik_input>
W0NIM11jKFtjSF0xKWMoW0NIM10pW2NIXWMoYzEyKW4oW2NIXW4yKVtDSDJdW0NASF0oW09IXSlbQ0gyXU4zW0NIMl1bQ0gyXU9bQ0BIXShbQ0gyXTMpW0NIMl1OKFtDSDNdKVtDSDNd

> <s_epik_cmdline>
J2VwaWtfcHl0aG9uJywgJy1waCcsICc3LjAnLCAnLXRuJywgJzgnLCAnLW1hJywgJzIwMCcsICctbWV0YWxfYmluZGluZycsICctaW1hZScsICc8aW5maWxlLm1hZT4nLCAnLW9tYWUnLCAnPG91dGZpbGUubWFlPic=

> <r_epik_Ionization_Penalty>
1.3281

> <r_epik_Ionization_Penalty_Charging>
1.21988

> <r_epik_Ionization_Penalty_Neutral>
0.10822

> <r_epik_State_Penalty>
1.32886

> <r_epik_Charging_Adjusted_Penalty>
2.54875

> <i_epik_Tot_Q>
2

> <i_epik_Tot_abs_Q>
2

> <r_epik_Metal_State_Penalty>
5.33912

> <b_epik_Metal_Only>
0

> <s_lp_Force_Field>
OPLS_2005

> <r_lp_Energy>
45.8235

> <b_lp_Chiralities_Consistent>
1

> <s_lp_Variant>
AV-unprocessed.smi:1005-15

> <Gold.Version>
5.8.1

> <Gold.Id.Protein>
6NUR|6NUR_protein|mol2

> <Gold.PLP.Fitness>
53.5802

> <Gold.PLP.PLP>
-42.3127

> <Gold.PLP.part.hbond>
-2.0000

> <Gold.PLP.part.metal>
0.0000

> <Gold.PLP.part.buried>
-4.8600

> <Gold.PLP.part.nonpolar>
-35.7881

> <Gold.PLP.part.repulsive>
0.2868

> <Gold.PLP.ligand.clash>
0.0000

> <Gold.PLP.ligand.torsion>
0.4025

> <Gold.PLP.Chemscore.Hbond>
4.0000

> <Gold.PLP.Chemscore.CHOScore>
0.0000

> <Gold.PLP.Chemscore.Metal>
0.0000

> <Gold.Chemscore.Hbonds>
donor molecule, donor type, donor heavy atom, donor atom, acceptor molecule, acceptor atom, score
      L1  H     5    57       P1  8028  2.00
      L1  H    18    56       P1  7948  2.00

> <Gold.PLP.Chemscore.Internal.Correction>
0.0725

> <Gold.Rescore>
     Score         DG    S(hbond)    S(metal)    S(lipo)     H(rot)  DE(clash)    DE(int)     intcor
     17.73     -19.50       1.99        0.00     117.46       2.49       0.02       1.75       ----

> <Gold.Chemscore.Fitness>
17.7267

> <Gold.Chemscore.DG>
-19.5001

> <Gold.Chemscore.ZeroCoef>
-5.4800

> <Gold.Chemscore.Hbond>
1.9912

> <Gold.Chemscore.Metal>
0.0000

> <Gold.Chemscore.Lipo>
117.4629

> <Gold.Chemscore.Internal_Hbond>
0.0000

> <Gold.Chemscore.DEClash>
0.0200

> <Gold.Chemscore.DEInternal>
1.7534

> <Gold.Chemscore.Rot>
2.4897

> <Gold.Chemscore.Internal.Correction>
   9.000000E+99

> <Gold.Chemscore.Hbonds>
donor molecule, donor type, donor heavy atom, donor atom, acceptor molecule, acceptor atom, score
      L1  H     5    57       P1  8028  0.99
      L1  H    18    56       P1  7948  0.99

> <Gold.Chemscore.Hbond.Weighted>
-6.6506

> <Gold.Chemscore.Metal.Weighted>
-0.0000

> <Gold.Chemscore.Lipo.Weighted>
-13.7432

> <Gold.Chemscore.Internal_Hbond.Weighted>
0.0000

> <Gold.Chemscore.DEClash.Weighted>
0.0200

> <Gold.Chemscore.DEInternal.Weighted>
1.7534

> <Gold.Chemscore.Rot.Weighted>
6.3737

> <Gold.Chemscore.Internal.Correction.Weighted>
   9.000000E+99

> <Gold.Protein.RotatedTorsions>
[ 6907 6896 6895 6894 ] final -112.87 input  -60.11 | X-H torsion
[ 7974 7965 7964 7962 ] final   -3.05 input  175.53 | X-H torsion
[ 8008 7997 7996 7995 ] final -109.21 input   59.86 | X-H torsion
[ 10167 10162 10161 10158 ] final -168.24 input  -65.29 | X-H torsion
[ 10718 10713 10712 10709 ] final  151.11 input   66.30 | X-H torsion
[ 10763 10752 10751 10750 ] final   56.30 input  -60.55 | X-H torsion
[ 11005 11000 10999 10996 ] final -165.43 input  -57.11 | X-H torsion

> <Gold.Protein.ActiveResidues>
 VAL166  LYS551  ARG553  GLY616  TRP617  ASP618  TYR619  PRO620  LYS621  CYS622 
 ASP623  PHE694  ASN695  SER759  ASP760  ASP761  ALA762  ILE779  LEU786  VAL792 
 PHE793  MET794  SER795  GLU796  ALA797  LYS798  CYS799  TRP800  GLU811  SER814 

> <Gold.Protein.RotatedAtoms>
  150.7789  133.9027  159.3345 H   0  0  0  0  0  0  0  0  0  0  0  0  # atno 6907 bound_to 6896
  151.6894  135.0947  160.0240 H   0  0  0  0  0  0  0  0  0  0  0  0  # atno 6908 bound_to 6896
  152.3834  133.6539  159.6214 H   0  0  0  0  0  0  0  0  0  0  0  0  # atno 6909 bound_to 6896
  146.2395  140.1662  142.8332 H   0  0  0  0  0  0  0  0  0  0  0  0  # atno 7974 bound_to 7965
  154.9559  140.0400  157.2166 H   0  0  0  0  0  0  0  0  0  0  0  0  # atno 8008 bound_to 7997
  154.7935  140.2839  155.5952 H   0  0  0  0  0  0  0  0  0  0  0  0  # atno 8009 bound_to 7997
  156.2952  140.2569  156.2787 H   0  0  0  0  0  0  0  0  0  0  0  0  # atno 8010 bound_to 7997
  139.5997  144.1036  152.1729 H   0  0  0  0  0  0  0  0  0  0  0  0  # atno 10167 bound_to 10162
  157.2749  131.0824  151.1573 H   0  0  0  0  0  0  0  0  0  0  0  0  # atno 10718 bound_to 10713
  152.9830  135.5681  154.5206 H   0  0  0  0  0  0  0  0  0  0  0  0  # atno 10763 bound_to 10752
  154.4694  135.2784  155.1656 H   0  0  0  0  0  0  0  0  0  0  0  0  # atno 10764 bound_to 10752
  154.3210  135.6269  153.5561 H   0  0  0  0  0  0  0  0  0  0  0  0  # atno 10765 bound_to 10752
  140.5757  134.5192  157.5170 H   0  0  0  0  0  0  0  0  0  0  0  0  # atno 11005 bound_to 11000
  145.0048  140.8664  143.5259 LP  0  0  0  0  0  0  0  0  0  0  0  0  # atno 17320 bound_to 7965
  145.1687  139.2416  143.5353 LP  0  0  0  0  0  0  0  0  0  0  0  0  # atno 17321 bound_to 7965
  140.0629  144.5842  150.7249 LP  0  0  0  0  0  0  0  0  0  0  0  0  # atno 17342 bound_to 10162
  140.7240  143.2617  151.4182 LP  0  0  0  0  0  0  0  0  0  0  0  0  # atno 17343 bound_to 10162
  157.3031  130.6852  149.6174 LP  0  0  0  0  0  0  0  0  0  0  0  0  # atno 17370 bound_to 10713
  155.9663  130.4386  150.5224 LP  0  0  0  0  0  0  0  0  0  0  0  0  # atno 17371 bound_to 10713
  139.9340  134.7909  156.0852 LP  0  0  0  0  0  0  0  0  0  0  0  0  # atno 17394 bound_to 11000
  141.1028  133.6671  156.2793 LP  0  0  0  0  0  0  0  0  0  0  0  0  # atno 17395 bound_to 11000

$$$$
