AV-unprocessed.smi:1385|AV-procd|sdf|5633|dock5
  -GOLD-   22720 5253D 1   1.00000     0.00000
 Structure written by MMmdl.
 38 39  0  0  0  0  0  0  0  0  3 V2000
  153.7403  137.8164  158.3072 C   0  0  0  0  0  0  0  0  0  0  0  0
  152.9187  137.5920  157.0844 C   0  0  0  0  0  0  0  0  0  0  0  0
  152.6904  136.3776  156.5783 N   0  0  0  0  0  0  0  0  0  0  0  0
  151.8971  136.4260  155.4415 N   0  0  0  0  0  0  0  0  0  0  0  0
  151.5282  137.6714  155.1103 C   0  0  0  0  0  0  0  0  0  0  0  0
  150.7604  137.9327  154.0394 N   0  5  0  0  0  0  0  0  0  0  0  0
  149.9026  138.9774  154.0621 C   0  0  0  0  0  0  0  0  0  0  0  0
  150.1204  140.0945  154.5363 O   0  0  0  0  0  0  0  0  0  0  0  0
  148.7149  138.7060  153.5033 N   0  0  0  0  0  0  0  0  0  0  0  0
  147.5794  139.6212  153.3938 C   0  0  2  0  0  0  0  0  0  0  0  0
  146.4649  139.2705  154.3999 C   0  0  0  0  0  0  0  0  0  0  0  0
  145.7678  137.9464  154.0425 C   0  0  0  0  0  0  0  0  0  0  0  0
  145.2279  137.9830  152.6570 N   0  3  2  0  0  0  0  0  0  0  0  0
  144.4292  136.7788  152.3113 C   0  0  0  0  0  0  0  0  0  0  0  0
  143.0285  136.7893  152.9325 C   0  0  0  0  0  0  0  0  0  0  0  0
  142.3282  137.9205  152.8209 N   0  0  0  0  0  0  0  0  0  0  0  0
  142.5891  135.8021  153.5194 O   0  0  0  0  0  0  0  0  0  0  0  0
  146.2930  138.2622  151.6602 C   0  0  0  0  0  0  0  0  0  0  0  0
  147.0092  139.5909  151.9655 C   0  0  0  0  0  0  0  0  0  0  0  0
  152.1675  138.9059  156.1952 S   0  0  0  0  0  0  0  0  0  0  0  0
  153.1028  137.7988  159.1910 H   0  0  0  0  0  0  0  0  0  0  0  0
  154.2393  138.7841  158.2529 H   0  0  0  0  0  0  0  0  0  0  0  0
  154.4985  137.0388  158.4046 H   0  0  0  0  0  0  0  0  0  0  0  0
  148.5928  137.7791  153.1226 H   0  0  0  0  0  0  0  0  0  0  0  0
  147.9380  140.6317  153.5967 H   0  0  0  0  0  0  0  0  0  0  0  0
  146.8630  139.2204  155.4141 H   0  0  0  0  0  0  0  0  0  0  0  0
  145.7248  140.0717  154.4078 H   0  0  0  0  0  0  0  0  0  0  0  0
  146.4652  137.1131  154.1430 H   0  0  0  0  0  0  0  0  0  0  0  0
  144.9617  137.7667  154.7540 H   0  0  0  0  0  0  0  0  0  0  0  0
  144.2878  136.7296  151.2308 H   0  0  0  0  0  0  0  0  0  0  0  0
  144.9706  135.8754  152.5973 H   0  0  0  0  0  0  0  0  0  0  0  0
  141.3982  137.9830  153.2099 H   0  0  0  0  0  0  0  0  0  0  0  0
  142.7317  138.7140  152.3432 H   0  0  0  0  0  0  0  0  0  0  0  0
  147.0068  137.4370  151.6481 H   0  0  0  0  0  0  0  0  0  0  0  0
  145.8570  138.3162  150.6620 H   0  0  0  0  0  0  0  0  0  0  0  0
  146.3025  140.4130  151.8445 H   0  0  0  0  0  0  0  0  0  0  0  0
  147.8027  139.7652  151.2377 H   0  0  0  0  0  0  0  0  0  0  0  0
  144.5886  138.7640  152.6129 H   0  0  0  0  0  0  0  0  0  0  0  0
  1  2  1  0  0  0  0
  1 21  1  0  0  0  0
  1 22  1  0  0  0  0
  1 23  1  0  0  0  0
  2 20  1  0  0  0  0
  2  3  2  0  0  0  0
  3  4  1  0  0  0  0
  4  5  2  0  0  0  0
  5  6  1  0  0  0  0
  5 20  1  0  0  0  0
  6  7  1  0  0  0  0
  7  8  2  0  0  0  0
  7  9  1  0  0  0  0
  9 10  1  0  0  0  0
  9 24  1  0  0  0  0
 10 19  1  0  0  0  0
 10 11  1  0  0  0  0
 10 25  1  0  0  0  0
 11 12  1  0  0  0  0
 11 26  1  0  0  0  0
 11 27  1  0  0  0  0
 12 13  1  0  0  0  0
 12 28  1  0  0  0  0
 12 29  1  0  0  0  0
 13 14  1  0  0  0  0
 13 18  1  0  0  0  0
 13 38  1  0  0  0  0
 14 15  1  0  0  0  0
 14 30  1  0  0  0  0
 14 31  1  0  0  0  0
 15 16  1  0  0  0  0
 15 17  2  0  0  0  0
 16 32  1  0  0  0  0
 16 33  1  0  0  0  0
 18 19  1  0  0  0  0
 18 34  1  0  0  0  0
 18 35  1  0  0  0  0
 19 36  1  0  0  0  0
 19 37  1  0  0  0  0
M  CHG  1   6  -1
M  CHG  1  13   1
M  END
> <s_m_source_file>
AV-unprocessed.smi

> <i_m_source_file_index>
1385

> <i_lp_mmshare_version>
43012

> <i_f3d_flags>
0

> <s_epik_input>
W0NIM11jMW5uYyhzMSlbTkhdQyg9TylbTkhdW0NIXTJbQ0gyXVtDSDJdTihbQ0gyXVtDSDJdMilbQ0gyXUMoPU8pW05IMl0=

> <s_epik_cmdline>
J2VwaWtfcHl0aG9uJywgJy1waCcsICc3LjAnLCAnLXRuJywgJzgnLCAnLW1hJywgJzIwMCcsICctbWV0YWxfYmluZGluZycsICctaW1hZScsICc8aW5maWxlLm1hZT4nLCAnLW9tYWUnLCAnPG91dGZpbGUubWFlPic=

> <r_lp_tautomer_probability>
1

> <r_epik_Ionization_Penalty>
3.90109

> <r_epik_Ionization_Penalty_Charging>
3.79141

> <r_epik_Ionization_Penalty_Neutral>
0.109679

> <r_epik_State_Penalty>
3.87237

> <r_epik_Charging_Adjusted_Penalty>
7.66378

> <i_epik_Tot_Q>
0

> <i_epik_Tot_abs_Q>
2

> <r_epik_Metal_State_Penalty>
1.33354

> <b_epik_Metal_Only>
1

> <s_lp_Force_Field>
OPLS_2005

> <r_lp_Energy>
6.54798

> <b_lp_Chiralities_Consistent>
1

> <s_lp_Variant>
AV-unprocessed.smi:1385-6

> <Gold.Version>
5.8.1

> <Gold.Id.Protein>
6NUR|6NUR_protein|mol2

> <Gold.PLP.Fitness>
43.4122

> <Gold.PLP.PLP>
-28.1261

> <Gold.PLP.part.hbond>
-7.0744

> <Gold.PLP.part.metal>
0.0000

> <Gold.PLP.part.buried>
1.2819

> <Gold.PLP.part.nonpolar>
-23.8567

> <Gold.PLP.part.repulsive>
0.5865

> <Gold.PLP.ligand.clash>
0.0000

> <Gold.PLP.ligand.torsion>
1.0398

> <Gold.PLP.Chemscore.Hbond>
5.7807

> <Gold.PLP.Chemscore.CHOScore>
0.0000

> <Gold.PLP.Chemscore.Metal>
0.0000

> <Gold.Chemscore.Hbonds>
donor molecule, donor type, donor heavy atom, donor atom, acceptor molecule, acceptor atom, score
      L1  H     9    24       P1  7948  1.00
      L1  H    13    38       P1 10175  2.00
      L1  H    16    33       P1 10175  0.98
      P1  H  7989  7998       L1     8  1.00
      P1  H 10752 10763       L1     4  0.76

> <Gold.PLP.Chemscore.Internal.Correction>
0.0234

> <Gold.Rescore>
     Score         DG    S(hbond)    S(metal)    S(lipo)     H(rot)  DE(clash)    DE(int)     intcor
     14.40     -20.01       4.02        0.00      54.17       2.04       3.47       2.14       ----

> <Gold.Chemscore.Fitness>
14.4001

> <Gold.Chemscore.DG>
-20.0064

> <Gold.Chemscore.ZeroCoef>
-5.4800

> <Gold.Chemscore.Hbond>
4.0164

> <Gold.Chemscore.Metal>
0.0000

> <Gold.Chemscore.Lipo>
54.1706

> <Gold.Chemscore.Internal_Hbond>
0.0000

> <Gold.Chemscore.DEClash>
3.4664

> <Gold.Chemscore.DEInternal>
2.1399

> <Gold.Chemscore.Rot>
2.0415

> <Gold.Chemscore.Internal.Correction>
   9.000000E+99

> <Gold.Chemscore.Hbonds>
donor molecule, donor type, donor heavy atom, donor atom, acceptor molecule, acceptor atom, score
      L1  H     9    24       P1  7948  0.93
      L1  H    13    38       P1 10175  1.00
      L1  H    16    33       P1 10175  0.92
      P1  H  7989  7998       L1     8  0.57
      P1  H 10752 10763       L1     4  0.12

> <Gold.Chemscore.Hbond.Weighted>
-13.4146

> <Gold.Chemscore.Metal.Weighted>
-0.0000

> <Gold.Chemscore.Lipo.Weighted>
-6.3380

> <Gold.Chemscore.Internal_Hbond.Weighted>
0.0000

> <Gold.Chemscore.DEClash.Weighted>
3.4664

> <Gold.Chemscore.DEInternal.Weighted>
2.1399

> <Gold.Chemscore.Rot.Weighted>
5.2262

> <Gold.Chemscore.Internal.Correction.Weighted>
   9.000000E+99

> <Gold.Protein.RotatedTorsions>
[ 6907 6896 6895 6894 ] final -120.34 input  -60.11 | X-H torsion
[ 7974 7965 7964 7962 ] final -165.15 input  175.53 | X-H torsion
[ 8008 7997 7996 7995 ] final  -95.84 input   59.86 | X-H torsion
[ 10167 10162 10161 10158 ] final   19.99 input  -65.29 | X-H torsion
[ 10718 10713 10712 10709 ] final  -70.63 input   66.30 | X-H torsion
[ 10763 10752 10751 10750 ] final   49.56 input  -60.55 | X-H torsion
[ 11005 11000 10999 10996 ] final  141.26 input  -57.11 | X-H torsion

> <Gold.Protein.ActiveResidues>
 VAL166  LYS551  ARG553  GLY616  TRP617  ASP618  TYR619  PRO620  LYS621  CYS622 
 ASP623  PHE694  ASN695  SER759  ASP760  ASP761  ALA762  ILE779  LEU786  VAL792 
 PHE793  MET794  SER795  GLU796  ALA797  LYS798  CYS799  TRP800  GLU811  SER814 

> <Gold.Protein.RotatedAtoms>
  150.8384  133.7975  159.3070 H   0  0  0  0  0  0  0  0  0  0  0  0  # atno 6907 bound_to 6896
  151.5684  135.1061  159.9999 H   0  0  0  0  0  0  0  0  0  0  0  0  # atno 6908 bound_to 6896
  152.4452  133.7481  159.6735 H   0  0  0  0  0  0  0  0  0  0  0  0  # atno 6909 bound_to 6896
  144.7277  140.2856  143.6229 H   0  0  0  0  0  0  0  0  0  0  0  0  # atno 7974 bound_to 7965
  154.7666  140.0476  157.1017 H   0  0  0  0  0  0  0  0  0  0  0  0  # atno 8008 bound_to 7997
  154.9872  140.3109  155.4902 H   0  0  0  0  0  0  0  0  0  0  0  0  # atno 8009 bound_to 7997
  156.2914  140.2225  156.4975 H   0  0  0  0  0  0  0  0  0  0  0  0  # atno 8010 bound_to 7997
  140.5537  143.9462  150.6595 H   0  0  0  0  0  0  0  0  0  0  0  0  # atno 10167 bound_to 10162
  156.0399  130.4335  150.2324 H   0  0  0  0  0  0  0  0  0  0  0  0  # atno 10718 bound_to 10713
  152.9786  135.5907  154.4110 H   0  0  0  0  0  0  0  0  0  0  0  0  # atno 10763 bound_to 10752
  154.3745  135.2767  155.2249 H   0  0  0  0  0  0  0  0  0  0  0  0  # atno 10764 bound_to 10752
  154.4190  135.6063  153.6053 H   0  0  0  0  0  0  0  0  0  0  0  0  # atno 10765 bound_to 10752
  140.0388  134.9315  157.0803 H   0  0  0  0  0  0  0  0  0  0  0  0  # atno 11005 bound_to 11000
  145.7906  139.1925  143.2105 LP  0  0  0  0  0  0  0  0  0  0  0  0  # atno 17320 bound_to 7965
  146.0759  140.7818  142.9665 LP  0  0  0  0  0  0  0  0  0  0  0  0  # atno 17321 bound_to 7965
  140.2895  143.3334  152.1076 LP  0  0  0  0  0  0  0  0  0  0  0  0  # atno 17342 bound_to 10162
  139.5038  144.6764  151.6118 LP  0  0  0  0  0  0  0  0  0  0  0  0  # atno 17343 bound_to 10162
  157.0420  131.0038  151.3280 LP  0  0  0  0  0  0  0  0  0  0  0  0  # atno 17370 bound_to 10713
  157.5202  130.7993  149.7801 LP  0  0  0  0  0  0  0  0  0  0  0  0  # atno 17371 bound_to 10713
  140.4103  134.1988  155.7163 LP  0  0  0  0  0  0  0  0  0  0  0  0  # atno 17394 bound_to 11000
  141.1872  133.8287  157.1041 LP  0  0  0  0  0  0  0  0  0  0  0  0  # atno 17395 bound_to 11000

$$$$
