AV-unprocessed.smi:2597|AV-procd|sdf|10172|dock1
  -GOLD-   2272014183D 1   1.00000     0.00000
 Structure written by MMmdl.
 31 32  0  0  0  0  0  0  0  0  2 V2000
  148.7762  143.5128  158.4238 N   0  3  0  0  0  0  0  0  0  0  0  0
  150.2391  143.7016  158.4381 C   0  0  1  0  0  0  0  0  0  0  0  0
  150.6332  144.6891  159.5531 C   0  0  0  0  0  0  0  0  0  0  0  0
  152.1555  144.8891  159.6182 C   0  0  0  0  0  0  0  0  0  0  0  0
  152.8832  143.5490  159.7994 C   0  0  0  0  0  0  0  0  0  0  0  0
  152.5045  142.5589  158.6877 C   0  0  0  0  0  0  0  0  0  0  0  0
  150.9777  142.3489  158.6117 C   0  0  2  0  0  0  0  0  0  0  0  0
  150.6466  141.3909  157.5640 N   0  0  0  0  0  0  0  0  0  0  0  0
  149.9314  141.6118  156.4050 C   0  0  0  0  0  0  0  0  0  0  0  0
  149.8944  140.3817  155.8115 C   0  0  0  0  0  0  0  0  0  0  0  0
  149.2549  139.9691  154.5212 C   0  0  0  0  0  0  0  0  0  0  0  0
  149.8094  140.7879  153.5146 O   0  0  0  0  0  0  0  0  0  0  0  0
  150.5762  139.4753  156.6215 N   0  0  0  0  0  0  0  0  0  0  0  0
  151.0104  140.0887  157.6761 N   0  0  0  0  0  0  0  0  0  0  0  0
  150.5154  144.1452  157.4805 H   0  0  0  0  0  0  0  0  0  0  0  0
  150.6567  141.9079  159.5572 H   0  0  0  0  0  0  0  0  0  0  0  0
  148.5331  142.7999  157.7509 H   0  0  0  0  0  0  0  0  0  0  0  0
  148.3285  144.3820  158.1691 H   0  0  0  0  0  0  0  0  0  0  0  0
  150.1465  145.6516  159.3905 H   0  0  0  0  0  0  0  0  0  0  0  0
  150.2774  144.3219  160.5168 H   0  0  0  0  0  0  0  0  0  0  0  0
  152.5018  145.3732  158.7041 H   0  0  0  0  0  0  0  0  0  0  0  0
  152.4079  145.5617  160.4387 H   0  0  0  0  0  0  0  0  0  0  0  0
  153.9619  143.7090  159.8022 H   0  0  0  0  0  0  0  0  0  0  0  0
  152.6311  143.1227  160.7711 H   0  0  0  0  0  0  0  0  0  0  0  0
  152.8787  142.9314  157.7330 H   0  0  0  0  0  0  0  0  0  0  0  0
  153.0042  141.6051  158.8620 H   0  0  0  0  0  0  0  0  0  0  0  0
  149.5247  142.5706  156.1195 H   0  0  0  0  0  0  0  0  0  0  0  0
  149.4580  138.9223  154.2954 H   0  0  0  0  0  0  0  0  0  0  0  0
  148.1729  140.1023  154.5455 H   0  0  0  0  0  0  0  0  0  0  0  0
  149.5372  140.4552  152.6730 H   0  0  0  0  0  0  0  0  0  0  0  0
  148.4632  143.2301  159.3416 H   0  0  0  0  0  0  0  0  0  0  0  0
  1  2  1  0  0  0  0
  1 17  1  0  0  0  0
  1 18  1  0  0  0  0
  1 31  1  0  0  0  0
  2 15  1  0  0  0  0
  2  7  1  0  0  0  0
  2  3  1  0  0  0  0
  3  4  1  0  0  0  0
  3 19  1  0  0  0  0
  3 20  1  0  0  0  0
  4  5  1  0  0  0  0
  4 21  1  0  0  0  0
  4 22  1  0  0  0  0
  5  6  1  0  0  0  0
  5 23  1  0  0  0  0
  5 24  1  0  0  0  0
  6  7  1  0  0  0  0
  6 25  1  0  0  0  0
  6 26  1  0  0  0  0
  7 16  1  0  0  0  0
  7  8  1  0  0  0  0
  8 14  1  0  0  0  0
  8  9  1  0  0  0  0
  9 10  2  0  0  0  0
  9 27  1  0  0  0  0
 10 11  1  0  0  0  0
 10 13  1  0  0  0  0
 11 12  1  0  0  0  0
 11 28  1  0  0  0  0
 11 29  1  0  0  0  0
 12 30  1  0  0  0  0
 13 14  2  0  0  0  0
M  CHG  1   1   1
M  END
> <s_m_source_file>
AV-unprocessed.smi

> <i_m_source_file_index>
2597

> <i_lp_mmshare_version>
43012

> <i_f3d_flags>
0

> <s_epik_input>
W05IMl1bQ0BIXTFbQ0gyXVtDSDJdW0NIMl1bQ0gyXVtDQEhdMW4yW2NIXWMobm4yKVtDSDJdW09IXQ==

> <s_epik_cmdline>
J2VwaWtfcHl0aG9uJywgJy1waCcsICc3LjAnLCAnLXRuJywgJzgnLCAnLW1hJywgJzIwMCcsICctbWV0YWxfYmluZGluZycsICctaW1hZScsICc8aW5maWxlLm1hZT4nLCAnLW9tYWUnLCAnPG91dGZpbGUubWFlPic=

> <r_lp_tautomer_probability>
1

> <r_epik_Ionization_Penalty>
0.014346

> <r_epik_Ionization_Penalty_Charging>
0.014316

> <r_epik_Ionization_Penalty_Neutral>
3.00097e-05

> <r_epik_State_Penalty>
0.0111909

> <r_epik_Charging_Adjusted_Penalty>
0.0255069

> <i_epik_Tot_Q>
1

> <i_epik_Tot_abs_Q>
1

> <r_epik_Metal_State_Penalty>
0.011192

> <b_epik_Metal_Only>
0

> <s_lp_Force_Field>
OPLS_2005

> <r_lp_Energy>
13.7949

> <b_lp_Chiralities_Consistent>
1

> <s_lp_Variant>
AV-unprocessed.smi:2597-3

> <Gold.Version>
5.8.1

> <Gold.Id.Protein>
6NUR|6NUR_protein|mol2

> <Gold.PLP.Fitness>
42.4644

> <Gold.PLP.PLP>
-29.6195

> <Gold.PLP.part.hbond>
-4.5309

> <Gold.PLP.part.metal>
0.0000

> <Gold.PLP.part.buried>
-2.7723

> <Gold.PLP.part.nonpolar>
-22.0312

> <Gold.PLP.part.repulsive>
0.0874

> <Gold.PLP.ligand.clash>
0.0000

> <Gold.PLP.ligand.torsion>
0.1435

> <Gold.PLP.Chemscore.Hbond>
3.3680

> <Gold.PLP.Chemscore.CHOScore>
1.0000

> <Gold.PLP.Chemscore.Metal>
0.0000

> <Gold.Chemscore.Hbonds>
donor molecule, donor type, donor heavy atom, donor atom, acceptor molecule, acceptor atom, score
      L1  H     1    18       P1  8029  2.00
      L1  H    12    30       P1  7957  1.00
      P1  H  7989  7998       L1    12  0.37
      L1  C     9    27       P1  8028  1.00

> <Gold.PLP.Chemscore.Internal.Correction>
0.0279

> <Gold.Rescore>
     Score         DG    S(hbond)    S(metal)    S(lipo)     H(rot)  DE(clash)    DE(int)     intcor
     15.75     -16.84       1.98        0.00      81.32       1.86       0.11       0.99       ----

> <Gold.Chemscore.Fitness>
15.7508

> <Gold.Chemscore.DG>
-16.8447

> <Gold.Chemscore.ZeroCoef>
-5.4800

> <Gold.Chemscore.Hbond>
1.9757

> <Gold.Chemscore.Metal>
0.0000

> <Gold.Chemscore.Lipo>
81.3224

> <Gold.Chemscore.Internal_Hbond>
0.0000

> <Gold.Chemscore.DEClash>
0.1062

> <Gold.Chemscore.DEInternal>
0.9877

> <Gold.Chemscore.Rot>
1.8551

> <Gold.Chemscore.Internal.Correction>
   9.000000E+99

> <Gold.Chemscore.Hbonds>
donor molecule, donor type, donor heavy atom, donor atom, acceptor molecule, acceptor atom, score
      L1  H     1    18       P1  8029  0.40
      L1  H    12    30       P1  7957  0.96
      P1  H  7989  7998       L1    12  0.19

> <Gold.Chemscore.Hbond.Weighted>
-6.5989

> <Gold.Chemscore.Metal.Weighted>
-0.0000

> <Gold.Chemscore.Lipo.Weighted>
-9.5147

> <Gold.Chemscore.Internal_Hbond.Weighted>
0.0000

> <Gold.Chemscore.DEClash.Weighted>
0.1062

> <Gold.Chemscore.DEInternal.Weighted>
0.9877

> <Gold.Chemscore.Rot.Weighted>
4.7489

> <Gold.Chemscore.Internal.Correction.Weighted>
   9.000000E+99

> <Gold.Protein.RotatedTorsions>
[ 6907 6896 6895 6894 ] final   24.50 input  -60.11 | X-H torsion
[ 7974 7965 7964 7962 ] final  149.29 input  175.53 | X-H torsion
[ 8008 7997 7996 7995 ] final  -56.90 input   59.86 | X-H torsion
[ 10167 10162 10161 10158 ] final -151.15 input  -65.29 | X-H torsion
[ 10718 10713 10712 10709 ] final  -63.26 input   66.30 | X-H torsion
[ 10763 10752 10751 10750 ] final -131.56 input  -60.55 | X-H torsion
[ 11005 11000 10999 10996 ] final   81.13 input  -57.11 | X-H torsion

> <Gold.Protein.ActiveResidues>
 VAL166  LYS551  ARG553  GLY616  TRP617  ASP618  TYR619  PRO620  LYS621  CYS622 
 ASP623  PHE694  ASN695  SER759  ASP760  ASP761  ALA762  ILE779  LEU786  VAL792 
 PHE793  MET794  SER795  GLU796  ALA797  LYS798  CYS799  TRP800  GLU811  SER814 

> <Gold.Protein.RotatedAtoms>
  151.9585  135.0135  160.0545 H   0  0  0  0  0  0  0  0  0  0  0  0  # atno 6907 bound_to 6896
  152.1890  133.4755  159.5006 H   0  0  0  0  0  0  0  0  0  0  0  0  # atno 6908 bound_to 6896
  150.6931  134.1654  159.4235 H   0  0  0  0  0  0  0  0  0  0  0  0  # atno 6909 bound_to 6896
  144.8449  139.6261  143.6000 H   0  0  0  0  0  0  0  0  0  0  0  0  # atno 7974 bound_to 7965
  154.4247  140.1119  156.5712 H   0  0  0  0  0  0  0  0  0  0  0  0  # atno 8008 bound_to 7997
  155.6210  140.3495  155.4633 H   0  0  0  0  0  0  0  0  0  0  0  0  # atno 8009 bound_to 7997
  156.0024  140.1202  157.0524 H   0  0  0  0  0  0  0  0  0  0  0  0  # atno 8010 bound_to 7997
  139.7293  143.8834  152.2529 H   0  0  0  0  0  0  0  0  0  0  0  0  # atno 10167 bound_to 10162
  156.0802  130.4218  150.1251 H   0  0  0  0  0  0  0  0  0  0  0  0  # atno 10718 bound_to 10713
  154.8750  135.3826  154.4266 H   0  0  0  0  0  0  0  0  0  0  0  0  # atno 10763 bound_to 10752
  153.4964  135.7030  153.5861 H   0  0  0  0  0  0  0  0  0  0  0  0  # atno 10764 bound_to 10752
  153.4212  135.3901  155.2079 H   0  0  0  0  0  0  0  0  0  0  0  0  # atno 10765 bound_to 10752
  139.9109  134.7973  156.2001 H   0  0  0  0  0  0  0  0  0  0  0  0  # atno 11005 bound_to 11000
  146.2735  139.6695  142.9279 LP  0  0  0  0  0  0  0  0  0  0  0  0  # atno 17320 bound_to 7965
  145.4617  141.0433  143.2748 LP  0  0  0  0  0  0  0  0  0  0  0  0  # atno 17321 bound_to 7965
  139.8752  144.7047  150.8941 LP  0  0  0  0  0  0  0  0  0  0  0  0  # atno 17342 bound_to 10162
  140.7768  143.3705  151.1658 LP  0  0  0  0  0  0  0  0  0  0  0  0  # atno 17343 bound_to 10162
  156.9284  130.9706  151.3537 LP  0  0  0  0  0  0  0  0  0  0  0  0  # atno 17370 bound_to 10713
  157.5916  130.8448  149.8667 LP  0  0  0  0  0  0  0  0  0  0  0  0  # atno 17371 bound_to 10713
  141.0530  133.6879  156.1808 LP  0  0  0  0  0  0  0  0  0  0  0  0  # atno 17394 bound_to 11000
  140.6780  134.4797  157.5588 LP  0  0  0  0  0  0  0  0  0  0  0  0  # atno 17395 bound_to 11000

$$$$
