AV-unprocessed.smi:1464|AV-procd|sdf|5947|dock3
  -GOLD-   22720 6 33D 1   1.00000     0.00000
 Structure written by MMmdl.
 41 42  0  0  0  0  0  0  0  0  1 V2000
  151.8005  144.5410  160.5838 C   0  0  0  0  0  0  0  0  0  0  0  0
  152.7921  143.8960  159.5937 C   0  0  2  0  0  0  0  0  0  0  0  0
  152.4765  144.2889  158.1363 C   0  0  0  0  0  0  0  0  0  0  0  0
  151.2174  143.5863  157.6055 C   0  0  0  0  0  0  0  0  0  0  0  0
  151.3368  142.0620  157.7384 C   0  0  0  0  0  0  0  0  0  0  0  0
  151.6477  141.6306  159.1848 C   0  0  1  0  0  0  0  0  0  0  0  0
  151.8283  140.1796  159.2067 N   0  0  0  0  0  0  0  0  0  0  0  0
  152.9514  139.5178  158.8867 C   0  0  0  0  0  0  0  0  0  0  0  0
  153.9827  140.0738  158.5058 O   0  0  0  0  0  0  0  0  0  0  0  0
  152.8765  137.9877  158.9918 C   0  0  0  0  0  0  0  0  0  0  0  0
  151.5615  137.4403  158.6289 N   0  0  0  0  0  0  0  0  0  0  0  0
  150.5785  137.6458  159.5850 N   0  0  0  0  0  0  0  0  0  0  0  0
  149.3788  137.2188  159.3778 C   0  0  0  0  0  0  0  0  0  0  0  0
  148.4358  137.4465  160.3494 O   0  0  0  0  0  0  0  0  0  0  0  0
  149.0325  136.5203  158.1599 C   0  0  0  0  0  0  0  0  0  0  0  0
  149.9978  136.3218  157.2357 C   0  0  0  0  0  0  0  0  0  0  0  0
  151.3688  136.7934  157.4383 C   0  0  0  0  0  0  0  0  0  0  0  0
  152.2684  136.6250  156.6151 O   0  0  0  0  0  0  0  0  0  0  0  0
  152.9096  142.3537  159.7270 C   0  0  2  0  0  0  0  0  0  0  0  0
  153.2926  141.9179  161.1554 C   0  0  0  0  0  0  0  0  0  0  0  0
  148.1931  136.5909  160.6684 H   0  0  0  0  0  0  0  0  0  0  0  0
  150.7919  144.1433  160.4758 H   0  0  0  0  0  0  0  0  0  0  0  0
  151.7447  145.6188  160.4306 H   0  0  0  0  0  0  0  0  0  0  0  0
  152.1076  144.3847  161.6176 H   0  0  0  0  0  0  0  0  0  0  0  0
  153.7709  144.3177  159.8266 H   0  0  0  0  0  0  0  0  0  0  0  0
  152.3639  145.3703  158.0513 H   0  0  0  0  0  0  0  0  0  0  0  0
  153.3239  144.0244  157.5023 H   0  0  0  0  0  0  0  0  0  0  0  0
  150.3373  143.9355  158.1459 H   0  0  0  0  0  0  0  0  0  0  0  0
  151.0591  143.8536  156.5605 H   0  0  0  0  0  0  0  0  0  0  0  0
  150.4121  141.5927  157.4001 H   0  0  0  0  0  0  0  0  0  0  0  0
  152.1234  141.7066  157.0711 H   0  0  0  0  0  0  0  0  0  0  0  0
  150.7938  141.9063  159.8053 H   0  0  0  0  0  0  0  0  0  0  0  0
  151.0314  139.6329  159.4990 H   0  0  0  0  0  0  0  0  0  0  0  0
  153.6502  137.5400  158.3650 H   0  0  0  0  0  0  0  0  0  0  0  0
  153.1323  137.7086  160.0156 H   0  0  0  0  0  0  0  0  0  0  0  0
  148.0234  136.1692  158.0022 H   0  0  0  0  0  0  0  0  0  0  0  0
  149.7532  135.8016  156.3214 H   0  0  0  0  0  0  0  0  0  0  0  0
  153.7435  142.0560  159.0887 H   0  0  0  0  0  0  0  0  0  0  0  0
  152.4629  142.0490  161.8505 H   0  0  0  0  0  0  0  0  0  0  0  0
  154.1387  142.4945  161.5294 H   0  0  0  0  0  0  0  0  0  0  0  0
  153.5820  140.8674  161.1881 H   0  0  0  0  0  0  0  0  0  0  0  0
  1  2  1  0  0  0  0
  1 22  1  0  0  0  0
  1 23  1  0  0  0  0
  1 24  1  0  0  0  0
  2 19  1  0  0  0  0
  2  3  1  0  0  0  0
  2 25  1  0  0  0  0
  3  4  1  0  0  0  0
  3 26  1  0  0  0  0
  3 27  1  0  0  0  0
  4  5  1  0  0  0  0
  4 28  1  0  0  0  0
  4 29  1  0  0  0  0
  5  6  1  0  0  0  0
  5 30  1  0  0  0  0
  5 31  1  0  0  0  0
  6  7  1  0  0  0  0
  6 19  1  0  0  0  0
  6 32  1  0  0  0  0
  7  8  1  0  0  0  0
  7 33  1  0  0  0  0
  8  9  2  0  0  0  0
  8 10  1  0  0  0  0
 10 34  1  0  0  0  0
 10 35  1  0  0  0  0
 10 11  1  0  0  0  0
 11 12  1  0  0  0  0
 11 17  1  0  0  0  0
 12 13  2  0  0  0  0
 13 14  1  0  0  0  0
 13 15  1  0  0  0  0
 14 21  1  0  0  0  0
 15 36  1  0  0  0  0
 15 16  2  0  0  0  0
 16 37  1  0  0  0  0
 16 17  1  0  0  0  0
 17 18  2  0  0  0  0
 19 20  1  0  0  0  0
 19 38  1  0  0  0  0
 20 39  1  0  0  0  0
 20 40  1  0  0  0  0
 20 41  1  0  0  0  0
M  END
> <s_m_source_file>
AV-unprocessed.smi

> <i_m_source_file_index>
1464

> <i_lp_mmshare_version>
43012

> <i_f3d_flags>
0

> <s_epik_input>
W0NIM11bQ0BASF0xW0NIMl1bQ0gyXVtDSDJdW0NASF0oW0NASF0xW0NIM10pW05IXUMoPU8pW0NIMl1uMltuSF1jKD1PKVtjSF1bY0hdYzI9Tw==

> <s_epik_cmdline>
J2VwaWtfcHl0aG9uJywgJy1waCcsICc3LjAnLCAnLXRuJywgJzgnLCAnLW1hJywgJzIwMCcsICctbWV0YWxfYmluZGluZycsICctaW1hZScsICc8aW5maWxlLm1hZT4nLCAnLW9tYWUnLCAnPG91dGZpbGUubWFlPic=

> <r_lp_tautomer_probability>
0.9996

> <r_epik_Ionization_Penalty>
2.10335

> <r_epik_Ionization_Penalty_Charging>
3.98079e-08

> <r_epik_Ionization_Penalty_Neutral>
2.10335

> <r_epik_State_Penalty>
1.67957

> <r_epik_Charging_Adjusted_Penalty>
1.67957

> <i_epik_Tot_Q>
0

> <i_epik_Tot_abs_Q>
0

> <r_epik_Metal_State_Penalty>
1.67957

> <b_epik_Metal_Only>
0

> <s_lp_Force_Field>
OPLS_2005

> <r_lp_Energy>
25.8074

> <b_lp_Chiralities_Consistent>
1

> <s_lp_Variant>
AV-unprocessed.smi:1464-13

> <Gold.Version>
5.8.1

> <Gold.Id.Protein>
6NUR|6NUR_protein|mol2

> <Gold.PLP.Fitness>
44.8844

> <Gold.PLP.PLP>
-38.0837

> <Gold.PLP.part.hbond>
-4.6996

> <Gold.PLP.part.metal>
0.0000

> <Gold.PLP.part.buried>
-2.3363

> <Gold.PLP.part.nonpolar>
-31.2260

> <Gold.PLP.part.repulsive>
0.1668

> <Gold.PLP.ligand.clash>
0.0000

> <Gold.PLP.ligand.torsion>
0.8164

> <Gold.PLP.Chemscore.Hbond>
2.8081

> <Gold.PLP.Chemscore.CHOScore>
0.0000

> <Gold.PLP.Chemscore.Metal>
0.0000

> <Gold.Chemscore.Hbonds>
donor molecule, donor type, donor heavy atom, donor atom, acceptor molecule, acceptor atom, score
      P1  H  6931  6943       L1    14  0.56
      P1  H  6934  6947       L1    14  0.42
      P1  H  7997  8010       L1     9  1.00
      P1  H 10752 10765       L1    18  0.80

> <Gold.PLP.Chemscore.Internal.Correction>
0.0092

> <Gold.Rescore>
     Score         DG    S(hbond)    S(metal)    S(lipo)     H(rot)  DE(clash)    DE(int)     intcor
     16.55     -19.86       2.60        0.00      97.31       2.22       0.06       3.26       ----

> <Gold.Chemscore.Fitness>
16.5474

> <Gold.Chemscore.DG>
-19.8646

> <Gold.Chemscore.ZeroCoef>
-5.4800

> <Gold.Chemscore.Hbond>
2.6015

> <Gold.Chemscore.Metal>
0.0000

> <Gold.Chemscore.Lipo>
97.3079

> <Gold.Chemscore.Internal_Hbond>
0.0000

> <Gold.Chemscore.DEClash>
0.0609

> <Gold.Chemscore.DEInternal>
3.2563

> <Gold.Chemscore.Rot>
2.2224

> <Gold.Chemscore.Internal.Correction>
   9.000000E+99

> <Gold.Chemscore.Hbonds>
donor molecule, donor type, donor heavy atom, donor atom, acceptor molecule, acceptor atom, score
      P1  H  6931  6943       L1    14  0.18
      P1  H  6934  6947       L1    14  0.39
      P1  H  7997  8010       L1     9  0.88
      P1  H 10752 10765       L1    18  0.78

> <Gold.Chemscore.Hbond.Weighted>
-8.6889

> <Gold.Chemscore.Metal.Weighted>
-0.0000

> <Gold.Chemscore.Lipo.Weighted>
-11.3850

> <Gold.Chemscore.Internal_Hbond.Weighted>
0.0000

> <Gold.Chemscore.DEClash.Weighted>
0.0609

> <Gold.Chemscore.DEInternal.Weighted>
3.2563

> <Gold.Chemscore.Rot.Weighted>
5.6893

> <Gold.Chemscore.Internal.Correction.Weighted>
   9.000000E+99

> <Gold.Protein.RotatedTorsions>
[ 6907 6896 6895 6894 ] final   59.62 input  -60.11 | X-H torsion
[ 7974 7965 7964 7962 ] final   93.54 input  175.53 | X-H torsion
[ 8008 7997 7996 7995 ] final   18.68 input   59.86 | X-H torsion
[ 10167 10162 10161 10158 ] final -157.15 input  -65.29 | X-H torsion
[ 10718 10713 10712 10709 ] final  167.41 input   66.30 | X-H torsion
[ 10763 10752 10751 10750 ] final -143.83 input  -60.55 | X-H torsion
[ 11005 11000 10999 10996 ] final   79.65 input  -57.11 | X-H torsion

> <Gold.Protein.ActiveResidues>
 VAL166  LYS551  ARG553  GLY616  TRP617  ASP618  TYR619  PRO620  LYS621  CYS622 
 ASP623  PHE694  ASN695  SER759  ASP760  ASP761  ALA762  ILE779  LEU786  VAL792 
 PHE793  MET794  SER795  GLU796  ALA797  LYS798  CYS799  TRP800  GLU811  SER814 

> <Gold.Protein.RotatedAtoms>
  152.3931  134.6409  160.0099 H   0  0  0  0  0  0  0  0  0  0  0  0  # atno 6907 bound_to 6896
  151.6637  133.3310  159.3188 H   0  0  0  0  0  0  0  0  0  0  0  0  # atno 6908 bound_to 6896
  150.7843  134.6859  159.6514 H   0  0  0  0  0  0  0  0  0  0  0  0  # atno 6909 bound_to 6896
  145.4776  139.2279  143.2900 H   0  0  0  0  0  0  0  0  0  0  0  0  # atno 7974 bound_to 7965
  154.9095  140.3012  155.5274 H   0  0  0  0  0  0  0  0  0  0  0  0  # atno 8008 bound_to 7997
  156.3015  140.2392  156.4068 H   0  0  0  0  0  0  0  0  0  0  0  0  # atno 8009 bound_to 7997
  154.8440  140.0412  157.1549 H   0  0  0  0  0  0  0  0  0  0  0  0  # atno 8010 bound_to 7997
  139.6794  143.9608  152.2328 H   0  0  0  0  0  0  0  0  0  0  0  0  # atno 10167 bound_to 10162
  157.0519  131.0316  151.2678 H   0  0  0  0  0  0  0  0  0  0  0  0  # atno 10718 bound_to 10713
  154.8454  135.3457  154.6249 H   0  0  0  0  0  0  0  0  0  0  0  0  # atno 10763 bound_to 10752
  153.6859  135.6977  153.5109 H   0  0  0  0  0  0  0  0  0  0  0  0  # atno 10764 bound_to 10752
  153.2633  135.4316  155.0871 H   0  0  0  0  0  0  0  0  0  0  0  0  # atno 10765 bound_to 10752
  139.9164  134.7859  156.1807 H   0  0  0  0  0  0  0  0  0  0  0  0  # atno 11005 bound_to 11000
  146.2360  140.5559  142.8954 LP  0  0  0  0  0  0  0  0  0  0  0  0  # atno 17320 bound_to 7965
  144.7908  140.6028  143.6543 LP  0  0  0  0  0  0  0  0  0  0  0  0  # atno 17321 bound_to 7965
  139.9394  144.6691  150.8282 LP  0  0  0  0  0  0  0  0  0  0  0  0  # atno 17342 bound_to 10162
  140.7647  143.3255  151.2526 LP  0  0  0  0  0  0  0  0  0  0  0  0  # atno 17343 bound_to 10162
  157.5023  130.7888  149.7618 LP  0  0  0  0  0  0  0  0  0  0  0  0  # atno 17370 bound_to 10713
  156.0005  130.3883  150.2625 LP  0  0  0  0  0  0  0  0  0  0  0  0  # atno 17371 bound_to 10713
  141.0644  133.6826  156.2016 LP  0  0  0  0  0  0  0  0  0  0  0  0  # atno 17394 bound_to 11000
  140.6609  134.4969  157.5583 LP  0  0  0  0  0  0  0  0  0  0  0  0  # atno 17395 bound_to 11000

$$$$
