AV-unprocessed.smi:1672|AV-procd|sdf|6705|dock3
  -GOLD-   22720 7443D 1   1.00000     0.00000
 Structure written by MMmdl.
 49 51  0  0  0  0  0  0  0  0  3 V2000
  144.4745  136.3597  152.3586 C   0  0  0  0  0  0  0  0  0  0  0  0
  145.4569  136.9693  153.3682 C   0  0  2  0  0  0  0  0  0  0  0  0
  146.3442  138.0454  152.7200 C   0  0  0  0  0  0  0  0  0  0  0  0
  147.3460  138.6265  153.7314 C   0  0  0  0  0  0  0  0  0  0  0  0
  148.1873  137.5549  154.3281 N   0  3  1  0  0  0  0  0  0  0  0  0
  149.2568  138.0781  155.2160 C   0  0  0  0  0  0  0  0  0  0  0  0
  150.4983  138.5621  154.4336 C   0  0  2  0  0  0  0  0  0  0  0  0
  151.1313  137.4485  153.8371 O   0  0  0  0  0  0  0  0  0  0  0  0
  151.5474  139.2632  155.3204 C   0  0  0  0  0  0  0  0  0  0  0  0
  151.0675  140.5334  155.8876 N   0  0  0  0  0  0  0  0  0  0  0  0
  150.1101  141.4047  155.4502 C   0  0  0  0  0  0  0  0  0  0  0  0
  149.2695  141.2903  154.2185 C   0  0  0  0  0  0  0  0  0  0  0  0
  148.5161  142.4565  153.9679 O   0  0  0  0  0  0  0  0  0  0  0  0
  150.0555  142.4261  156.3518 N   0  3  0  0  0  0  0  0  0  0  0  0
  150.9797  142.2088  157.3734 C   0  0  0  0  0  0  0  0  0  0  0  0
  151.2866  142.9637  158.5011 C   0  0  0  0  0  0  0  0  0  0  0  0
  152.2889  142.4522  159.3513 C   0  0  0  0  0  0  0  0  0  0  0  0
  152.9430  141.2361  159.0663 C   0  0  0  0  0  0  0  0  0  0  0  0
  152.6237  140.4801  157.9190 C   0  0  0  0  0  0  0  0  0  0  0  0
  151.6317  140.9933  157.0835 C   0  0  0  0  0  0  0  0  0  0  0  0
  147.3552  136.5211  154.9956 C   0  0  0  0  0  0  0  0  0  0  0  0
  146.3511  135.8966  154.0119 C   0  0  0  0  0  0  0  0  0  0  0  0
  145.0001  135.8691  151.5386 H   0  0  0  0  0  0  0  0  0  0  0  0
  143.8283  137.1254  151.9286 H   0  0  0  0  0  0  0  0  0  0  0  0
  143.8331  135.6172  152.8345 H   0  0  0  0  0  0  0  0  0  0  0  0
  144.8705  137.4419  154.1576 H   0  0  0  0  0  0  0  0  0  0  0  0
  146.8863  137.6198  151.8741 H   0  0  0  0  0  0  0  0  0  0  0  0
  145.7242  138.8469  152.3169 H   0  0  0  0  0  0  0  0  0  0  0  0
  147.9683  139.3646  153.2271 H   0  0  0  0  0  0  0  0  0  0  0  0
  146.8123  139.1554  154.5226 H   0  0  0  0  0  0  0  0  0  0  0  0
  148.8362  138.8796  155.8242 H   0  0  0  0  0  0  0  0  0  0  0  0
  149.5737  137.3049  155.9177 H   0  0  0  0  0  0  0  0  0  0  0  0
  150.2077  139.2454  153.6370 H   0  0  0  0  0  0  0  0  0  0  0  0
  150.9741  137.4652  152.9057 H   0  0  0  0  0  0  0  0  0  0  0  0
  151.8456  138.6162  156.1457 H   0  0  0  0  0  0  0  0  0  0  0  0
  152.4590  139.4657  154.7563 H   0  0  0  0  0  0  0  0  0  0  0  0
  149.8959  141.0953  153.3490 H   0  0  0  0  0  0  0  0  0  0  0  0
  148.5921  140.4432  154.3270 H   0  0  0  0  0  0  0  0  0  0  0  0
  148.6177  143.0438  154.7018 H   0  0  0  0  0  0  0  0  0  0  0  0
  150.7856  143.8948  158.7229 H   0  0  0  0  0  0  0  0  0  0  0  0
  152.5603  143.0026  160.2407 H   0  0  0  0  0  0  0  0  0  0  0  0
  153.7044  140.8750  159.7427 H   0  0  0  0  0  0  0  0  0  0  0  0
  153.1297  139.5486  157.7123 H   0  0  0  0  0  0  0  0  0  0  0  0
  147.9959  135.7344  155.3960 H   0  0  0  0  0  0  0  0  0  0  0  0
  146.8292  136.9646  155.8427 H   0  0  0  0  0  0  0  0  0  0  0  0
  145.7365  135.1618  154.5332 H   0  0  0  0  0  0  0  0  0  0  0  0
  146.8923  135.3515  153.2373 H   0  0  0  0  0  0  0  0  0  0  0  0
  148.6539  137.0841  153.5663 H   0  0  0  0  0  0  0  0  0  0  0  0
  149.4278  143.2158  156.2677 H   0  0  0  0  0  0  0  0  0  0  0  0
  1  2  1  0  0  0  0
  1 23  1  0  0  0  0
  1 24  1  0  0  0  0
  1 25  1  0  0  0  0
  2 22  1  0  0  0  0
  2  3  1  0  0  0  0
  2 26  1  0  0  0  0
  3  4  1  0  0  0  0
  3 27  1  0  0  0  0
  3 28  1  0  0  0  0
  4  5  1  0  0  0  0
  4 29  1  0  0  0  0
  4 30  1  0  0  0  0
  5  6  1  0  0  0  0
  5 21  1  0  0  0  0
  5 48  1  0  0  0  0
  6  7  1  0  0  0  0
  6 31  1  0  0  0  0
  6 32  1  0  0  0  0
  7  8  1  0  0  0  0
  7  9  1  0  0  0  0
  7 33  1  0  0  0  0
  8 34  1  0  0  0  0
  9 10  1  0  0  0  0
  9 35  1  0  0  0  0
  9 36  1  0  0  0  0
 10 20  1  0  0  0  0
 10 11  1  0  0  0  0
 11 12  1  0  0  0  0
 11 14  2  0  0  0  0
 12 13  1  0  0  0  0
 12 37  1  0  0  0  0
 12 38  1  0  0  0  0
 13 39  1  0  0  0  0
 14 15  1  0  0  0  0
 14 49  1  0  0  0  0
 15 20  2  0  0  0  0
 15 16  1  0  0  0  0
 16 17  2  0  0  0  0
 16 40  1  0  0  0  0
 17 18  1  0  0  0  0
 17 41  1  0  0  0  0
 18 19  2  0  0  0  0
 18 42  1  0  0  0  0
 19 20  1  0  0  0  0
 19 43  1  0  0  0  0
 21 22  1  0  0  0  0
 21 44  1  0  0  0  0
 21 45  1  0  0  0  0
 22 46  1  0  0  0  0
 22 47  1  0  0  0  0
M  CHG  1   5   1
M  CHG  1  14   1
M  END
> <s_m_source_file>
AV-unprocessed.smi

> <i_m_source_file_index>
1672

> <i_lp_mmshare_version>
43012

> <i_f3d_flags>
0

> <s_epik_input>
W0NIM11bQ0hdMVtDSDJdW0NIMl1OKFtDSDJdW0NIMl0xKVtDSDJdW0NASF0oW09IXSlbQ0gyXW4oYyhuMilbQ0gyXVtPSF0pYyhjMjMpW2NIXVtjSF1bY0hdW2NIXTM=

> <s_epik_cmdline>
J2VwaWtfcHl0aG9uJywgJy1waCcsICc3LjAnLCAnLXRuJywgJzgnLCAnLW1hJywgJzIwMCcsICctbWV0YWxfYmluZGluZycsICctaW1hZScsICc8aW5maWxlLm1hZT4nLCAnLW9tYWUnLCAnPG91dGZpbGUubWFlPic=

> <r_epik_Ionization_Penalty>
1.51642

> <r_epik_Ionization_Penalty_Charging>
1.51557

> <r_epik_Ionization_Penalty_Neutral>
0.000856474

> <r_epik_State_Penalty>
1.6048

> <r_epik_Charging_Adjusted_Penalty>
3.12037

> <i_epik_Tot_Q>
2

> <i_epik_Tot_abs_Q>
2

> <r_epik_Metal_State_Penalty>
5.65673

> <b_epik_Metal_Only>
0

> <s_lp_Force_Field>
OPLS_2005

> <r_lp_Energy>
31.4563

> <b_lp_Chiralities_Consistent>
1

> <s_lp_Variant>
AV-unprocessed.smi:1672-5

> <Gold.Version>
5.8.1

> <Gold.Id.Protein>
6NUR|6NUR_protein|mol2

> <Gold.PLP.Fitness>
55.4359

> <Gold.PLP.PLP>
-40.4350

> <Gold.PLP.part.hbond>
-5.9512

> <Gold.PLP.part.metal>
0.0000

> <Gold.PLP.part.buried>
-4.1012

> <Gold.PLP.part.nonpolar>
-31.0167

> <Gold.PLP.part.repulsive>
0.0597

> <Gold.PLP.ligand.clash>
0.0056

> <Gold.PLP.ligand.torsion>
0.7470

> <Gold.PLP.Chemscore.Hbond>
5.4844

> <Gold.PLP.Chemscore.CHOScore>
0.0000

> <Gold.PLP.Chemscore.Metal>
0.0000

> <Gold.Chemscore.Hbonds>
donor molecule, donor type, donor heavy atom, donor atom, acceptor molecule, acceptor atom, score
      L1  H     5    48       P1  7948  2.00
      L1  H     8    34       P1  7949  0.59
      L1  H    13    39       P1  8028  1.00
      L1  H    14    49       P1  8028  2.00

> <Gold.PLP.Chemscore.Internal.Correction>
0.0475

> <Gold.Rescore>
     Score         DG    S(hbond)    S(metal)    S(lipo)     H(rot)  DE(clash)    DE(int)     intcor
     17.54     -19.68       3.13        0.00      96.56       2.96       0.21       1.93       ----

> <Gold.Chemscore.Fitness>
17.5426

> <Gold.Chemscore.DG>
-19.6795

> <Gold.Chemscore.ZeroCoef>
-5.4800

> <Gold.Chemscore.Hbond>
3.1341

> <Gold.Chemscore.Metal>
0.0000

> <Gold.Chemscore.Lipo>
96.5617

> <Gold.Chemscore.Internal_Hbond>
0.0000

> <Gold.Chemscore.DEClash>
0.2084

> <Gold.Chemscore.DEInternal>
1.9285

> <Gold.Chemscore.Rot>
2.9555

> <Gold.Chemscore.Internal.Correction>
   9.000000E+99

> <Gold.Chemscore.Hbonds>
donor molecule, donor type, donor heavy atom, donor atom, acceptor molecule, acceptor atom, score
      L1  H     5    48       P1  7948  0.99
      L1  H     8    34       P1  7949  0.14
      L1  H    13    39       P1  8028  0.98
      L1  H    14    49       P1  8028  0.98

> <Gold.Chemscore.Hbond.Weighted>
-10.4678

> <Gold.Chemscore.Metal.Weighted>
-0.0000

> <Gold.Chemscore.Lipo.Weighted>
-11.2977

> <Gold.Chemscore.Internal_Hbond.Weighted>
0.0000

> <Gold.Chemscore.DEClash.Weighted>
0.2084

> <Gold.Chemscore.DEInternal.Weighted>
1.9285

> <Gold.Chemscore.Rot.Weighted>
7.5660

> <Gold.Chemscore.Internal.Correction.Weighted>
   9.000000E+99

> <Gold.Protein.RotatedTorsions>
[ 6907 6896 6895 6894 ] final -113.07 input  -60.11 | X-H torsion
[ 7974 7965 7964 7962 ] final -117.90 input  175.53 | X-H torsion
[ 8008 7997 7996 7995 ] final  -43.46 input   59.86 | X-H torsion
[ 10167 10162 10161 10158 ] final  178.41 input  -65.29 | X-H torsion
[ 10718 10713 10712 10709 ] final  166.10 input   66.30 | X-H torsion
[ 10763 10752 10751 10750 ] final   14.02 input  -60.55 | X-H torsion
[ 11005 11000 10999 10996 ] final -167.50 input  -57.11 | X-H torsion

> <Gold.Protein.ActiveResidues>
 VAL166  LYS551  ARG553  GLY616  TRP617  ASP618  TYR619  PRO620  LYS621  CYS622 
 ASP623  PHE694  ASN695  SER759  ASP760  ASP761  ALA762  ILE779  LEU786  VAL792 
 PHE793  MET794  SER795  GLU796  ALA797  LYS798  CYS799  TRP800  GLU811  SER814 

> <Gold.Protein.RotatedAtoms>
  150.7803  133.8998  159.3337 H   0  0  0  0  0  0  0  0  0  0  0  0  # atno 6907 bound_to 6896
  151.6863  135.0952  160.0235 H   0  0  0  0  0  0  0  0  0  0  0  0  # atno 6908 bound_to 6896
  152.3852  133.6562  159.6228 H   0  0  0  0  0  0  0  0  0  0  0  0  # atno 6909 bound_to 6896
  145.0800  140.8419  143.4045 H   0  0  0  0  0  0  0  0  0  0  0  0  # atno 7974 bound_to 7965
  154.3997  140.1447  156.3523 H   0  0  0  0  0  0  0  0  0  0  0  0  # atno 8008 bound_to 7997
  155.8258  140.3467  155.5521 H   0  0  0  0  0  0  0  0  0  0  0  0  # atno 8009 bound_to 7997
  155.8240  140.0902  157.1822 H   0  0  0  0  0  0  0  0  0  0  0  0  # atno 8010 bound_to 7997
  139.5293  144.2683  152.0649 H   0  0  0  0  0  0  0  0  0  0  0  0  # atno 10167 bound_to 10162
  157.0707  131.0365  151.2613 H   0  0  0  0  0  0  0  0  0  0  0  0  # atno 10718 bound_to 10713
  153.1663  135.6804  153.8671 H   0  0  0  0  0  0  0  0  0  0  0  0  # atno 10763 bound_to 10752
  153.8050  135.3150  155.3395 H   0  0  0  0  0  0  0  0  0  0  0  0  # atno 10764 bound_to 10752
  154.7967  135.4802  154.0269 H   0  0  0  0  0  0  0  0  0  0  0  0  # atno 10765 bound_to 10752
  140.5525  134.5414  157.5125 H   0  0  0  0  0  0  0  0  0  0  0  0  # atno 11005 bound_to 11000
  145.1190  139.2706  143.5598 LP  0  0  0  0  0  0  0  0  0  0  0  0  # atno 17320 bound_to 7965
  146.3531  140.0808  142.8618 LP  0  0  0  0  0  0  0  0  0  0  0  0  # atno 17321 bound_to 7965
  140.2144  144.4530  150.6371 LP  0  0  0  0  0  0  0  0  0  0  0  0  # atno 17342 bound_to 10162
  140.6460  143.2213  151.6186 LP  0  0  0  0  0  0  0  0  0  0  0  0  # atno 17343 bound_to 10162
  157.4880  130.7805  149.7479 LP  0  0  0  0  0  0  0  0  0  0  0  0  # atno 17370 bound_to 10713
  155.9951  130.3914  150.2831 LP  0  0  0  0  0  0  0  0  0  0  0  0  # atno 17371 bound_to 10713
  139.9448  134.7722  156.0589 LP  0  0  0  0  0  0  0  0  0  0  0  0  # atno 17394 bound_to 11000
  141.1163  133.6627  156.3102 LP  0  0  0  0  0  0  0  0  0  0  0  0  # atno 17395 bound_to 11000

$$$$
