AV-unprocessed.smi:1865|AV-procd|sdf|7555|dock10
  -GOLD-   22720 9273D 1   1.00000     0.00000
 Structure written by MMmdl.
 41 42  0  0  0  0  0  0  0  0  2 V2000
  146.1638  136.8531  155.6760 O   0  0  0  0  0  0  0  0  0  0  0  0
  147.0554  136.9965  154.8389 C   0  0  0  0  0  0  0  0  0  0  0  0
  148.2904  137.8459  155.1538 C   0  0  0  0  0  0  0  0  0  0  0  0
  148.6156  138.8697  154.0495 C   0  0  0  0  0  0  0  0  0  0  0  0
  150.0987  139.2812  154.0270 C   0  0  0  0  0  0  0  0  0  0  0  0
  151.0619  138.0933  154.0733 C   0  0  0  0  0  0  0  0  0  0  0  0
  152.4019  138.6980  154.4999 C   0  0  0  0  0  0  0  0  0  0  0  0
  152.0596  139.9477  155.3245 C   0  0  0  0  0  0  0  0  0  0  0  0
  150.5393  140.1304  155.2250 C   0  0  0  0  0  0  0  0  0  0  0  0
  147.0094  136.4435  153.6170 N   0  0  0  0  0  0  0  0  0  0  0  0
  145.9116  135.6299  153.1078 C   0  0  0  0  0  0  0  0  0  0  0  0
  146.3793  134.2185  152.7150 C   0  0  0  0  0  0  0  0  0  0  0  0
  145.5389  133.6312  151.5981 C   0  0  0  0  0  0  0  0  0  0  0  0
  145.9378  132.4452  150.9431 C   0  0  0  0  0  0  0  0  0  0  0  0
  145.1374  131.9271  149.9035 C   0  0  0  0  0  0  0  0  0  0  0  0
  143.9562  132.6072  149.5421 C   0  0  0  0  0  0  0  0  0  0  0  0
  143.6071  133.7398  150.1911 N   0  3  0  0  0  0  0  0  0  0  0  0
  144.3460  134.2680  151.1915 C   0  0  0  0  0  0  0  0  0  0  0  0
  148.1397  138.3669  156.1007 H   0  0  0  0  0  0  0  0  0  0  0  0
  149.1337  137.1704  155.2997 H   0  0  0  0  0  0  0  0  0  0  0  0
  148.3352  138.4708  153.0733 H   0  0  0  0  0  0  0  0  0  0  0  0
  148.0056  139.7617  154.2003 H   0  0  0  0  0  0  0  0  0  0  0  0
  150.3010  139.8413  153.1125 H   0  0  0  0  0  0  0  0  0  0  0  0
  150.7315  137.3743  154.8244 H   0  0  0  0  0  0  0  0  0  0  0  0
  151.1272  137.5688  153.1196 H   0  0  0  0  0  0  0  0  0  0  0  0
  153.0080  137.9861  155.0607 H   0  0  0  0  0  0  0  0  0  0  0  0
  152.9725  138.9889  153.6171 H   0  0  0  0  0  0  0  0  0  0  0  0
  152.3692  139.8383  156.3645 H   0  0  0  0  0  0  0  0  0  0  0  0
  152.5795  140.8169  154.9201 H   0  0  0  0  0  0  0  0  0  0  0  0
  150.2563  141.1782  155.1192 H   0  0  0  0  0  0  0  0  0  0  0  0
  150.0721  139.7557  156.1368 H   0  0  0  0  0  0  0  0  0  0  0  0
  147.7827  136.6134  152.9901 H   0  0  0  0  0  0  0  0  0  0  0  0
  145.1156  135.5769  153.8527 H   0  0  0  0  0  0  0  0  0  0  0  0
  145.4901  136.1366  152.2391 H   0  0  0  0  0  0  0  0  0  0  0  0
  147.4246  134.2430  152.4031 H   0  0  0  0  0  0  0  0  0  0  0  0
  146.3319  133.5491  153.5750 H   0  0  0  0  0  0  0  0  0  0  0  0
  146.8473  131.9380  151.2306 H   0  0  0  0  0  0  0  0  0  0  0  0
  145.4263  131.0215  149.3901 H   0  0  0  0  0  0  0  0  0  0  0  0
  143.2861  132.2827  148.7594 H   0  0  0  0  0  0  0  0  0  0  0  0
  143.9648  135.1783  151.6312 H   0  0  0  0  0  0  0  0  0  0  0  0
  142.7491  134.2171  149.9132 H   0  0  0  0  0  0  0  0  0  0  0  0
  1  2  2  0  0  0  0
  2  3  1  0  0  0  0
  2 10  1  0  0  0  0
  3  4  1  0  0  0  0
  3 19  1  0  0  0  0
  3 20  1  0  0  0  0
  4  5  1  0  0  0  0
  4 21  1  0  0  0  0
  4 22  1  0  0  0  0
  5  9  1  0  0  0  0
  5  6  1  0  0  0  0
  5 23  1  0  0  0  0
  6  7  1  0  0  0  0
  6 24  1  0  0  0  0
  6 25  1  0  0  0  0
  7  8  1  0  0  0  0
  7 26  1  0  0  0  0
  7 27  1  0  0  0  0
  8  9  1  0  0  0  0
  8 28  1  0  0  0  0
  8 29  1  0  0  0  0
  9 30  1  0  0  0  0
  9 31  1  0  0  0  0
 10 11  1  0  0  0  0
 10 32  1  0  0  0  0
 11 12  1  0  0  0  0
 11 33  1  0  0  0  0
 11 34  1  0  0  0  0
 12 13  1  0  0  0  0
 12 35  1  0  0  0  0
 12 36  1  0  0  0  0
 13 18  1  0  0  0  0
 13 14  2  0  0  0  0
 14 15  1  0  0  0  0
 14 37  1  0  0  0  0
 15 16  2  0  0  0  0
 15 38  1  0  0  0  0
 16 17  1  0  0  0  0
 16 39  1  0  0  0  0
 17 18  2  0  0  0  0
 17 41  1  0  0  0  0
 18 40  1  0  0  0  0
M  CHG  1  17   1
M  END
> <s_m_source_file>
AV-unprocessed.smi

> <i_m_source_file_index>
1865

> <i_lp_mmshare_version>
43012

> <i_f3d_flags>
0

> <s_epik_input>
W0NIMl0xW0NIMl1bQ0gyXVtDSDJdW0NIXTFbQ0gyXVtDSDJdQyg9TylbTkhdW0NIMl1bQ0gyXWMyW2NIXVtjSF1bY0hdbltjSF0y

> <s_epik_cmdline>
J2VwaWtfcHl0aG9uJywgJy1waCcsICc3LjAnLCAnLXRuJywgJzgnLCAnLW1hJywgJzIwMCcsICctbWV0YWxfYmluZGluZycsICctaW1hZScsICc8aW5maWxlLm1hZT4nLCAnLW9tYWUnLCAnPG91dGZpbGUubWFlPic=

> <r_epik_Ionization_Penalty>
2.25234

> <r_epik_Ionization_Penalty_Charging>
2.25234

> <r_epik_Ionization_Penalty_Neutral>
2.26352e-08

> <r_epik_State_Penalty>
2.39956

> <r_epik_Charging_Adjusted_Penalty>
4.6519

> <i_epik_Tot_Q>
1

> <i_epik_Tot_abs_Q>
1

> <r_epik_Metal_State_Penalty>
2.41271

> <b_epik_Metal_Only>
0

> <s_lp_Force_Field>
OPLS_2005

> <r_lp_Energy>
27.3415

> <b_lp_Chiralities_Consistent>
1

> <s_lp_Variant>
AV-unprocessed.smi:1865-2

> <Gold.Version>
5.8.1

> <Gold.Id.Protein>
6NUR|6NUR_protein|mol2

> <Gold.PLP.Fitness>
44.1943

> <Gold.PLP.PLP>
-36.3126

> <Gold.PLP.part.hbond>
-2.0000

> <Gold.PLP.part.metal>
0.0000

> <Gold.PLP.part.buried>
-3.2859

> <Gold.PLP.part.nonpolar>
-30.5253

> <Gold.PLP.part.repulsive>
0.0415

> <Gold.PLP.ligand.clash>
0.0000

> <Gold.PLP.ligand.torsion>
0.5873

> <Gold.PLP.Chemscore.Hbond>
3.0000

> <Gold.PLP.Chemscore.CHOScore>
0.0000

> <Gold.PLP.Chemscore.Metal>
0.0000

> <Gold.Chemscore.Hbonds>
donor molecule, donor type, donor heavy atom, donor atom, acceptor molecule, acceptor atom, score
      L1  H    10    32       P1  7948  1.00
      L1  H    17    41       P1 10186  2.00

> <Gold.PLP.Chemscore.Internal.Correction>
0.0563

> <Gold.Rescore>
     Score         DG    S(hbond)    S(metal)    S(lipo)     H(rot)  DE(clash)    DE(int)     intcor
     18.61     -19.06       1.98        0.00      96.45       1.69       0.01       0.44       ----

> <Gold.Chemscore.Fitness>
18.6123

> <Gold.Chemscore.DG>
-19.0647

> <Gold.Chemscore.ZeroCoef>
-5.4800

> <Gold.Chemscore.Hbond>
1.9814

> <Gold.Chemscore.Metal>
0.0000

> <Gold.Chemscore.Lipo>
96.4538

> <Gold.Chemscore.Internal_Hbond>
0.0000

> <Gold.Chemscore.DEClash>
0.0121

> <Gold.Chemscore.DEInternal>
0.4403

> <Gold.Chemscore.Rot>
1.6868

> <Gold.Chemscore.Internal.Correction>
   9.000000E+99

> <Gold.Chemscore.Hbonds>
donor molecule, donor type, donor heavy atom, donor atom, acceptor molecule, acceptor atom, score
      L1  H    10    32       P1  7948  0.99
      L1  H    17    41       P1 10186  0.98

> <Gold.Chemscore.Hbond.Weighted>
-6.6180

> <Gold.Chemscore.Metal.Weighted>
-0.0000

> <Gold.Chemscore.Lipo.Weighted>
-11.2851

> <Gold.Chemscore.Internal_Hbond.Weighted>
0.0000

> <Gold.Chemscore.DEClash.Weighted>
0.0121

> <Gold.Chemscore.DEInternal.Weighted>
0.4403

> <Gold.Chemscore.Rot.Weighted>
4.3183

> <Gold.Chemscore.Internal.Correction.Weighted>
   9.000000E+99

> <Gold.Protein.RotatedTorsions>
[ 6907 6896 6895 6894 ] final -151.43 input  -60.11 | X-H torsion
[ 7974 7965 7964 7962 ] final   64.35 input  175.53 | X-H torsion
[ 8008 7997 7996 7995 ] final  100.67 input   59.86 | X-H torsion
[ 10167 10162 10161 10158 ] final   35.34 input  -65.29 | X-H torsion
[ 10718 10713 10712 10709 ] final  -16.50 input   66.30 | X-H torsion
[ 10763 10752 10751 10750 ] final  121.76 input  -60.55 | X-H torsion
[ 11005 11000 10999 10996 ] final  -78.57 input  -57.11 | X-H torsion

> <Gold.Protein.ActiveResidues>
 VAL166  LYS551  ARG553  GLY616  TRP617  ASP618  TYR619  PRO620  LYS621  CYS622 
 ASP623  PHE694  ASN695  SER759  ASP760  ASP761  ALA762  ILE779  LEU786  VAL792 
 PHE793  MET794  SER795  GLU796  ALA797  LYS798  CYS799  TRP800  GLU811  SER814 

> <Gold.Protein.RotatedAtoms>
  151.2130  133.4545  159.2598 H   0  0  0  0  0  0  0  0  0  0  0  0  # atno 6907 bound_to 6896
  151.0958  134.9943  159.8435 H   0  0  0  0  0  0  0  0  0  0  0  0  # atno 6908 bound_to 6896
  152.5439  134.2060  159.8784 H   0  0  0  0  0  0  0  0  0  0  0  0  # atno 6909 bound_to 6896
  145.8512  139.3255  143.0874 H   0  0  0  0  0  0  0  0  0  0  0  0  # atno 7974 bound_to 7965
  156.1226  140.3209  155.8230 H   0  0  0  0  0  0  0  0  0  0  0  0  # atno 8008 bound_to 7997
  155.4478  140.0530  157.3021 H   0  0  0  0  0  0  0  0  0  0  0  0  # atno 8009 bound_to 7997
  154.4838  140.2064  155.9715 H   0  0  0  0  0  0  0  0  0  0  0  0  # atno 8010 bound_to 7997
  140.4231  144.1431  150.6150 H   0  0  0  0  0  0  0  0  0  0  0  0  # atno 10167 bound_to 10162
  156.5867  130.4788  149.6297 H   0  0  0  0  0  0  0  0  0  0  0  0  # atno 10718 bound_to 10713
  153.6191  135.3416  155.3005 H   0  0  0  0  0  0  0  0  0  0  0  0  # atno 10763 bound_to 10752
  154.8603  135.4268  154.2227 H   0  0  0  0  0  0  0  0  0  0  0  0  # atno 10764 bound_to 10752
  153.3095  135.7030  153.7201 H   0  0  0  0  0  0  0  0  0  0  0  0  # atno 10765 bound_to 10752
  141.1665  133.7069  156.7992 H   0  0  0  0  0  0  0  0  0  0  0  0  # atno 11005 bound_to 11000
  145.9355  140.9018  143.0334 LP  0  0  0  0  0  0  0  0  0  0  0  0  # atno 17320 bound_to 7965
  144.6729  140.1477  143.7432 LP  0  0  0  0  0  0  0  0  0  0  0  0  # atno 17321 bound_to 7965
  140.4511  143.2486  151.9346 LP  0  0  0  0  0  0  0  0  0  0  0  0  # atno 17342 bound_to 10162
  139.4783  144.5561  151.8312 LP  0  0  0  0  0  0  0  0  0  0  0  0  # atno 17343 bound_to 10162
  156.2585  130.6948  151.1709 LP  0  0  0  0  0  0  0  0  0  0  0  0  # atno 17370 bound_to 10713
  157.7313  131.0609  150.5682 LP  0  0  0  0  0  0  0  0  0  0  0  0  # atno 17371 bound_to 10713
  140.2269  134.8715  157.3436 LP  0  0  0  0  0  0  0  0  0  0  0  0  # atno 17394 bound_to 11000
  140.1931  134.4347  155.7704 LP  0  0  0  0  0  0  0  0  0  0  0  0  # atno 17395 bound_to 11000

$$$$
