AV-unprocessed.smi:512|AV-procd|sdf|2768|dock4
  -GOLD-   2262023233D 1   1.00000     0.00000
 Structure written by MMmdl.
 49 51  0  0  0  0  0  0  0  0  2 V2000
  144.2124  144.8153  154.6335 C   0  0  0  0  0  0  0  0  0  0  0  0
  145.3212  143.9063  155.1684 C   0  0  0  0  0  0  0  0  0  0  0  0
  145.2988  142.6930  154.4389 O   0  0  0  0  0  0  0  0  0  0  0  0
  146.2365  141.7399  154.9126 C   0  0  0  0  0  0  0  0  0  0  0  0
  147.5781  141.9601  154.2003 C   0  0  0  0  0  0  0  0  0  0  0  0
  148.3798  140.7384  154.1747 N   0  0  0  0  0  0  0  0  0  0  0  0
  148.0766  139.5332  153.6220 C   0  0  0  0  0  0  0  0  0  0  0  0
  146.8893  139.3215  152.9229 N   0  0  0  0  0  0  0  0  0  0  0  0
  146.7746  139.2368  151.4690 C   0  0  0  0  0  0  0  0  0  0  0  0
  146.5757  137.7816  151.0057 C   0  0  0  0  0  0  0  0  0  0  0  0
  145.3979  137.1689  151.6655 N   0  3  0  0  0  0  0  0  0  0  0  0
  145.1662  135.7733  151.2367 C   0  0  0  0  0  0  0  0  0  0  0  0
  145.4567  137.3111  153.1394 C   0  0  0  0  0  0  0  0  0  0  0  0
  145.6783  138.7814  153.5324 C   0  0  0  0  0  0  0  0  0  0  0  0
  148.9826  138.5754  153.8360 N   0  0  0  0  0  0  0  0  0  0  0  0
  149.9599  139.2303  154.5706 C   0  0  0  0  0  0  0  0  0  0  0  0
  149.6146  140.5249  154.7879 C   0  0  0  0  0  0  0  0  0  0  0  0
  150.4525  141.4436  155.5696 C   0  0  0  0  0  0  0  0  0  0  0  0
  150.1471  142.6122  155.7969 O   0  0  0  0  0  0  0  0  0  0  0  0
  151.5956  140.8694  156.0170 N   0  0  0  0  0  0  0  0  0  0  0  0
  152.0084  139.5792  155.8256 C   0  0  0  0  0  0  0  0  0  0  0  0
  153.0838  139.2021  156.2906 O   0  0  0  0  0  0  0  0  0  0  0  0
  151.1869  138.7470  155.1082 N   0  0  0  0  0  0  0  0  0  0  0  0
  151.5752  137.3545  154.8777 C   0  0  0  0  0  0  0  0  0  0  0  0
  152.2124  141.4606  156.5549 H   0  0  0  0  0  0  0  0  0  0  0  0
  144.1924  145.7640  155.1702 H   0  0  0  0  0  0  0  0  0  0  0  0
  143.2347  144.3461  154.7455 H   0  0  0  0  0  0  0  0  0  0  0  0
  144.3609  145.0316  153.5754 H   0  0  0  0  0  0  0  0  0  0  0  0
  146.2910  144.3938  155.0600 H   0  0  0  0  0  0  0  0  0  0  0  0
  145.1636  143.7109  156.2301 H   0  0  0  0  0  0  0  0  0  0  0  0
  146.3649  141.8445  155.9908 H   0  0  0  0  0  0  0  0  0  0  0  0
  145.8732  140.7289  154.7221 H   0  0  0  0  0  0  0  0  0  0  0  0
  147.3952  142.3111  153.1879 H   0  0  0  0  0  0  0  0  0  0  0  0
  148.1454  142.7544  154.6832 H   0  0  0  0  0  0  0  0  0  0  0  0
  145.9460  139.8627  151.1348 H   0  0  0  0  0  0  0  0  0  0  0  0
  147.6770  139.6308  151.0019 H   0  0  0  0  0  0  0  0  0  0  0  0
  146.4475  137.7512  149.9230 H   0  0  0  0  0  0  0  0  0  0  0  0
  147.4668  137.1956  151.2382 H   0  0  0  0  0  0  0  0  0  0  0  0
  145.9971  135.1304  151.5300 H   0  0  0  0  0  0  0  0  0  0  0  0
  145.0556  135.7179  150.1533 H   0  0  0  0  0  0  0  0  0  0  0  0
  144.2536  135.3796  151.6855 H   0  0  0  0  0  0  0  0  0  0  0  0
  144.5291  136.9452  153.5809 H   0  0  0  0  0  0  0  0  0  0  0  0
  146.2653  136.6940  153.5350 H   0  0  0  0  0  0  0  0  0  0  0  0
  145.7460  138.8712  154.6173 H   0  0  0  0  0  0  0  0  0  0  0  0
  144.8253  139.3889  153.2269 H   0  0  0  0  0  0  0  0  0  0  0  0
  152.4473  137.3084  154.2244 H   0  0  0  0  0  0  0  0  0  0  0  0
  150.7823  136.7705  154.4106 H   0  0  0  0  0  0  0  0  0  0  0  0
  151.8264  136.8604  155.8173 H   0  0  0  0  0  0  0  0  0  0  0  0
  144.5948  137.7016  151.3626 H   0  0  0  0  0  0  0  0  0  0  0  0
  1  2  1  0  0  0  0
  1 26  1  0  0  0  0
  1 27  1  0  0  0  0
  1 28  1  0  0  0  0
  2  3  1  0  0  0  0
  2 29  1  0  0  0  0
  2 30  1  0  0  0  0
  3  4  1  0  0  0  0
  4  5  1  0  0  0  0
  4 31  1  0  0  0  0
  4 32  1  0  0  0  0
  5  6  1  0  0  0  0
  5 33  1  0  0  0  0
  5 34  1  0  0  0  0
  6 17  1  0  0  0  0
  6  7  1  0  0  0  0
  7  8  1  0  0  0  0
  7 15  2  0  0  0  0
  8 14  1  0  0  0  0
  8  9  1  0  0  0  0
  9 10  1  0  0  0  0
  9 35  1  0  0  0  0
  9 36  1  0  0  0  0
 10 11  1  0  0  0  0
 10 37  1  0  0  0  0
 10 38  1  0  0  0  0
 11 12  1  0  0  0  0
 11 13  1  0  0  0  0
 11 49  1  0  0  0  0
 12 39  1  0  0  0  0
 12 40  1  0  0  0  0
 12 41  1  0  0  0  0
 13 14  1  0  0  0  0
 13 42  1  0  0  0  0
 13 43  1  0  0  0  0
 14 44  1  0  0  0  0
 14 45  1  0  0  0  0
 15 16  1  0  0  0  0
 16 23  1  0  0  0  0
 16 17  2  0  0  0  0
 17 18  1  0  0  0  0
 18 19  2  0  0  0  0
 18 20  1  0  0  0  0
 20 25  1  0  0  0  0
 20 21  1  0  0  0  0
 21 22  2  0  0  0  0
 21 23  1  0  0  0  0
 23 24  1  0  0  0  0
 24 46  1  0  0  0  0
 24 47  1  0  0  0  0
 24 48  1  0  0  0  0
M  CHG  1  11   1
M  END
> <s_m_source_file>
AV-unprocessed.smi

> <i_m_source_file_index>
512

> <i_lp_mmshare_version>
43012

> <i_f3d_flags>
0

> <s_epik_input>
W0NIM11uMWMoPU8pW25IXWMoPU8pYyhjMTIpbihbQ0gyXVtDSDJdT1tDSDJdW0NIM10pYyhuMilOM1tDSDJdW0NIMl1OKFtDSDNdKVtDSDJdW0NIMl0z

> <s_epik_cmdline>
J2VwaWtfcHl0aG9uJywgJy1waCcsICc3LjAnLCAnLXRuJywgJzgnLCAnLW1hJywgJzIwMCcsICctbWV0YWxfYmluZGluZycsICctaW1hZScsICc8aW5maWxlLm1hZT4nLCAnLW9tYWUnLCAnPG91dGZpbGUubWFlPic=

> <r_epik_Ionization_Penalty>
0.06478

> <r_epik_Ionization_Penalty_Charging>
0.0647782

> <r_epik_Ionization_Penalty_Neutral>
1.82007e-06

> <r_epik_State_Penalty>
0.0564218

> <r_epik_Charging_Adjusted_Penalty>
0.1212

> <i_epik_Tot_Q>
1

> <i_epik_Tot_abs_Q>
1

> <r_epik_Metal_State_Penalty>
0.0827594

> <b_epik_Metal_Only>
0

> <s_lp_Force_Field>
OPLS_2005

> <r_lp_Energy>
46.3907

> <b_lp_Chiralities_Consistent>
1

> <s_lp_Variant>
AV-unprocessed.smi:512-1

> <Gold.Version>
5.8.1

> <Gold.Id.Protein>
6NUR|6NUR_protein|mol2

> <Gold.PLP.Fitness>
37.0888

> <Gold.PLP.PLP>
-34.4554

> <Gold.PLP.part.hbond>
-1.9808

> <Gold.PLP.part.metal>
0.0000

> <Gold.PLP.part.buried>
6.2901

> <Gold.PLP.part.nonpolar>
-43.7580

> <Gold.PLP.part.repulsive>
5.9914

> <Gold.PLP.ligand.clash>
0.0000

> <Gold.PLP.ligand.torsion>
1.7738

> <Gold.PLP.Chemscore.Hbond>
1.8320

> <Gold.PLP.Chemscore.CHOScore>
0.0000

> <Gold.PLP.Chemscore.Metal>
0.0000

> <Gold.Chemscore.Hbonds>
donor molecule, donor type, donor heavy atom, donor atom, acceptor molecule, acceptor atom, score
      L1  H    11    49       P1 10171  0.83
      P1  H  7997  8010       L1    22  1.00

> <Gold.PLP.Chemscore.Internal.Correction>
0.6850

> <Gold.Rescore>
     Score         DG    S(hbond)    S(metal)    S(lipo)     H(rot)  DE(clash)    DE(int)     intcor
      8.54     -14.76       1.73        0.00      66.24       1.66       4.57       1.65       ----

> <Gold.Chemscore.Fitness>
8.5418

> <Gold.Chemscore.DG>
-14.7626

> <Gold.Chemscore.ZeroCoef>
-5.4800

> <Gold.Chemscore.Hbond>
1.7297

> <Gold.Chemscore.Metal>
0.0000

> <Gold.Chemscore.Lipo>
66.2370

> <Gold.Chemscore.Internal_Hbond>
0.0000

> <Gold.Chemscore.DEClash>
4.5685

> <Gold.Chemscore.DEInternal>
1.6523

> <Gold.Chemscore.Rot>
1.6579

> <Gold.Chemscore.Internal.Correction>
   9.000000E+99

> <Gold.Chemscore.Hbonds>
donor molecule, donor type, donor heavy atom, donor atom, acceptor molecule, acceptor atom, score
      L1  H    11    49       P1 10171  0.83
      P1  H  7997  8010       L1    22  0.93

> <Gold.Chemscore.Hbond.Weighted>
-5.7770

> <Gold.Chemscore.Metal.Weighted>
-0.0000

> <Gold.Chemscore.Lipo.Weighted>
-7.7497

> <Gold.Chemscore.Internal_Hbond.Weighted>
0.0000

> <Gold.Chemscore.DEClash.Weighted>
4.5685

> <Gold.Chemscore.DEInternal.Weighted>
1.6523

> <Gold.Chemscore.Rot.Weighted>
4.2442

> <Gold.Chemscore.Internal.Correction.Weighted>
   9.000000E+99

> <Gold.Protein.RotatedTorsions>
[ 6907 6896 6895 6894 ] final  -21.62 input  -60.11 | X-H torsion
[ 7974 7965 7964 7962 ] final   40.96 input  175.53 | X-H torsion
[ 8008 7997 7996 7995 ] final   89.85 input   59.86 | X-H torsion
[ 10167 10162 10161 10158 ] final   -5.73 input  -65.29 | X-H torsion
[ 10718 10713 10712 10709 ] final   -5.30 input   66.30 | X-H torsion
[ 10763 10752 10751 10750 ] final  163.14 input  -60.55 | X-H torsion
[ 11005 11000 10999 10996 ] final   54.11 input  -57.11 | X-H torsion

> <Gold.Protein.ActiveResidues>
 VAL166  LYS551  ARG553  GLY616  TRP617  ASP618  TYR619  PRO620  LYS621  CYS622 
 ASP623  PHE694  ASN695  SER759  ASP760  ASP761  ALA762  ILE779  LEU786  VAL792 
 PHE793  MET794  SER795  GLU796  ALA797  LYS798  CYS799  TRP800  GLU811  SER814 

> <Gold.Protein.RotatedAtoms>
  151.2306  135.0553  159.8985 H   0  0  0  0  0  0  0  0  0  0  0  0  # atno 6907 bound_to 6896
  152.5405  134.0541  159.8133 H   0  0  0  0  0  0  0  0  0  0  0  0  # atno 6908 bound_to 6896
  151.0720  133.5410  159.2658 H   0  0  0  0  0  0  0  0  0  0  0  0  # atno 6909 bound_to 6896
  146.0862  139.5471  142.9505 H   0  0  0  0  0  0  0  0  0  0  0  0  # atno 7974 bound_to 7965
  156.0049  140.3356  155.6883 H   0  0  0  0  0  0  0  0  0  0  0  0  # atno 8008 bound_to 7997
  155.6238  140.0678  157.2688 H   0  0  0  0  0  0  0  0  0  0  0  0  # atno 8009 bound_to 7997
  154.4261  140.1772  156.1388 H   0  0  0  0  0  0  0  0  0  0  0  0  # atno 8010 bound_to 7997
  140.6973  143.6275  150.8554 H   0  0  0  0  0  0  0  0  0  0  0  0  # atno 10167 bound_to 10162
  156.7485  130.5232  149.5809 H   0  0  0  0  0  0  0  0  0  0  0  0  # atno 10718 bound_to 10713
  154.2891  135.2761  155.2663 H   0  0  0  0  0  0  0  0  0  0  0  0  # atno 10763 bound_to 10752
  154.5150  135.5772  153.6638 H   0  0  0  0  0  0  0  0  0  0  0  0  # atno 10764 bound_to 10752
  152.9917  135.6190  154.3054 H   0  0  0  0  0  0  0  0  0  0  0  0  # atno 10765 bound_to 10752
  140.0713  134.5466  155.9044 H   0  0  0  0  0  0  0  0  0  0  0  0  # atno 11005 bound_to 11000
  145.6125  141.0337  143.1959 LP  0  0  0  0  0  0  0  0  0  0  0  0  # atno 17320 bound_to 7965
  144.7327  139.7676  143.7341 LP  0  0  0  0  0  0  0  0  0  0  0  0  # atno 17321 bound_to 7965
  139.9994  143.5760  152.2881 LP  0  0  0  0  0  0  0  0  0  0  0  0  # atno 17342 bound_to 10162
  139.6444  144.7657  151.2273 LP  0  0  0  0  0  0  0  0  0  0  0  0  # atno 17343 bound_to 10162
  156.1417  130.6249  151.0476 LP  0  0  0  0  0  0  0  0  0  0  0  0  # atno 17370 bound_to 10713
  157.6787  131.0843  150.7426 LP  0  0  0  0  0  0  0  0  0  0  0  0  # atno 17371 bound_to 10713
  141.2013  133.6617  156.5941 LP  0  0  0  0  0  0  0  0  0  0  0  0  # atno 17394 bound_to 11000
  140.3623  134.7676  157.4542 LP  0  0  0  0  0  0  0  0  0  0  0  0  # atno 17395 bound_to 11000

$$$$
