AV-unprocessed.smi:2433|AV-procd|sdf|9590|dock9
  -GOLD-   2272013223D 1   1.00000     0.00000
 Structure written by MMmdl.
 38 40  0  0  0  0  0  0  0  0  1 V2000
  152.5982  139.5551  157.5671 O   0  0  0  0  0  0  0  0  0  0  0  0
  152.0940  140.6612  157.7634 C   0  0  0  0  0  0  0  0  0  0  0  0
  152.6817  141.6456  158.6725 C   0  0  0  0  0  0  0  0  0  0  0  0
  152.1001  142.8538  158.8599 C   0  0  0  0  0  0  0  0  0  0  0  0
  152.7107  143.8792  159.8120 C   0  0  0  0  0  0  0  0  0  0  0  0
  152.4577  143.6440  161.3113 C   0  0  0  0  0  0  0  0  0  0  0  0
  151.3728  144.7263  161.2792 C   0  0  0  0  0  0  0  0  0  0  0  0
  151.9181  145.1910  159.9240 C   0  0  0  0  0  0  0  0  0  0  0  0
  150.9057  143.1753  158.2011 N   0  0  0  0  0  0  0  0  0  0  0  0
  150.3643  142.3216  157.3923 C   0  0  0  0  0  0  0  0  0  0  0  0
  150.9447  141.0631  157.1466 N   0  0  0  0  0  0  0  0  0  0  0  0
  150.2448  140.1958  156.1845 C   0  0  0  0  0  0  0  0  0  0  0  0
  149.8047  140.9552  154.9136 C   0  0  1  0  0  0  0  0  0  0  0  0
  149.9749  140.1073  153.7946 O   0  0  0  0  0  0  0  0  0  0  0  0
  148.3643  141.4290  155.0412 C   0  0  0  0  0  0  0  0  0  0  0  0
  147.7124  142.0004  153.9270 C   0  0  0  0  0  0  0  0  0  0  0  0
  146.3839  142.4555  154.0371 C   0  0  0  0  0  0  0  0  0  0  0  0
  145.7003  142.3451  155.2631 C   0  0  0  0  0  0  0  0  0  0  0  0
  144.4237  142.7835  155.3692 F   0  0  0  0  0  0  0  0  0  0  0  0
  146.3463  141.7808  156.3796 C   0  0  0  0  0  0  0  0  0  0  0  0
  147.6747  141.3259  156.2701 C   0  0  0  0  0  0  0  0  0  0  0  0
  153.5968  141.3998  159.1916 H   0  0  0  0  0  0  0  0  0  0  0  0
  153.7665  144.0520  159.5976 H   0  0  0  0  0  0  0  0  0  0  0  0
  152.0983  142.6494  161.5777 H   0  0  0  0  0  0  0  0  0  0  0  0
  153.3111  143.9319  161.9268 H   0  0  0  0  0  0  0  0  0  0  0  0
  150.3652  144.3139  161.2107 H   0  0  0  0  0  0  0  0  0  0  0  0
  151.4509  145.4676  162.0749 H   0  0  0  0  0  0  0  0  0  0  0  0
  152.5652  146.0648  160.0111 H   0  0  0  0  0  0  0  0  0  0  0  0
  151.1545  145.3354  159.1586 H   0  0  0  0  0  0  0  0  0  0  0  0
  149.4334  142.5219  156.8589 H   0  0  0  0  0  0  0  0  0  0  0  0
  150.8303  139.3132  155.9181 H   0  0  0  0  0  0  0  0  0  0  0  0
  149.3610  139.7922  156.6826 H   0  0  0  0  0  0  0  0  0  0  0  0
  150.4364  141.8309  154.7589 H   0  0  0  0  0  0  0  0  0  0  0  0
  149.4967  140.4741  153.0665 H   0  0  0  0  0  0  0  0  0  0  0  0
  148.2304  142.0954  152.9839 H   0  0  0  0  0  0  0  0  0  0  0  0
  145.8903  142.8913  153.1810 H   0  0  0  0  0  0  0  0  0  0  0  0
  145.8239  141.6990  157.3212 H   0  0  0  0  0  0  0  0  0  0  0  0
  148.1626  140.9006  157.1349 H   0  0  0  0  0  0  0  0  0  0  0  0
  1  2  2  0  0  0  0
  2 11  1  0  0  0  0
  2  3  1  0  0  0  0
  3  4  2  0  0  0  0
  3 22  1  0  0  0  0
  4  5  1  0  0  0  0
  4  9  1  0  0  0  0
  5  8  1  0  0  0  0
  5  6  1  0  0  0  0
  5 23  1  0  0  0  0
  6  7  1  0  0  0  0
  6 24  1  0  0  0  0
  6 25  1  0  0  0  0
  7  8  1  0  0  0  0
  7 26  1  0  0  0  0
  7 27  1  0  0  0  0
  8 28  1  0  0  0  0
  8 29  1  0  0  0  0
  9 10  2  0  0  0  0
 10 11  1  0  0  0  0
 10 30  1  0  0  0  0
 11 12  1  0  0  0  0
 12 13  1  0  0  0  0
 12 31  1  0  0  0  0
 12 32  1  0  0  0  0
 13 14  1  0  0  0  0
 13 15  1  0  0  0  0
 13 33  1  0  0  0  0
 14 34  1  0  0  0  0
 15 21  1  0  0  0  0
 15 16  2  0  0  0  0
 16 17  1  0  0  0  0
 16 35  1  0  0  0  0
 17 18  2  0  0  0  0
 17 36  1  0  0  0  0
 18 19  1  0  0  0  0
 18 20  1  0  0  0  0
 20 21  2  0  0  0  0
 20 37  1  0  0  0  0
 21 38  1  0  0  0  0
M  END
> <s_m_source_file>
AV-unprocessed.smi

> <i_m_source_file_index>
2433

> <i_lp_mmshare_version>
43012

> <i_f3d_flags>
0

> <s_epik_input>
W0NIMl0xW0NIMl1bQ0gyXVtDSF0xYyhbY0hdYzI9TyluW2NIXW4yW0NIMl1bQ0BIXShbT0hdKWMzW2NIXVtjSF1jKEYpW2NIXVtjSF0z

> <s_epik_cmdline>
J2VwaWtfcHl0aG9uJywgJy1waCcsICc3LjAnLCAnLXRuJywgJzgnLCAnLW1hJywgJzIwMCcsICctbWV0YWxfYmluZGluZycsICctaW1hZScsICc8aW5maWxlLm1hZT4nLCAnLW9tYWUnLCAnPG91dGZpbGUubWFlPic=

> <r_lp_tautomer_probability>
1

> <r_epik_Ionization_Penalty>
2.57762e-05

> <r_epik_Ionization_Penalty_Charging>
5.39435e-08

> <r_epik_Ionization_Penalty_Neutral>
2.57223e-05

> <r_epik_State_Penalty>
-0

> <r_epik_Charging_Adjusted_Penalty>
5.39435e-08

> <i_epik_Tot_Q>
0

> <i_epik_Tot_abs_Q>
0

> <r_epik_Metal_State_Penalty>
-0

> <b_epik_Metal_Only>
0

> <s_lp_Force_Field>
OPLS_2005

> <r_lp_Energy>
28.3662

> <b_lp_Chiralities_Consistent>
1

> <s_lp_Variant>
AV-unprocessed.smi:2433-2

> <Gold.Version>
5.8.1

> <Gold.Id.Protein>
6NUR|6NUR_protein|mol2

> <Gold.PLP.Fitness>
50.3930

> <Gold.PLP.PLP>
-43.9150

> <Gold.PLP.part.hbond>
-3.0000

> <Gold.PLP.part.metal>
0.0000

> <Gold.PLP.part.buried>
-3.1500

> <Gold.PLP.part.nonpolar>
-37.8469

> <Gold.PLP.part.repulsive>
0.1165

> <Gold.PLP.ligand.clash>
0.0000

> <Gold.PLP.ligand.torsion>
1.1037

> <Gold.PLP.Chemscore.Hbond>
1.9824

> <Gold.PLP.Chemscore.CHOScore>
0.7950

> <Gold.PLP.Chemscore.Metal>
0.0000

> <Gold.Chemscore.Hbonds>
donor molecule, donor type, donor heavy atom, donor atom, acceptor molecule, acceptor atom, score
      L1  H    14    34       P1  7957  0.59
      P1  H  7989  7998       L1    14  0.35
      P1  H  7997  8008       L1     1  0.93
      L1  C    10    30       P1  8028  0.82

> <Gold.PLP.Chemscore.Internal.Correction>
0.3532

> <Gold.Rescore>
     Score         DG    S(hbond)    S(metal)    S(lipo)     H(rot)  DE(clash)    DE(int)     intcor
     16.43     -18.74       1.77        0.00     109.59       2.14       1.39       0.92       ----

> <Gold.Chemscore.Fitness>
16.4298

> <Gold.Chemscore.DG>
-18.7420

> <Gold.Chemscore.ZeroCoef>
-5.4800

> <Gold.Chemscore.Hbond>
1.7697

> <Gold.Chemscore.Metal>
0.0000

> <Gold.Chemscore.Lipo>
109.5886

> <Gold.Chemscore.Internal_Hbond>
0.0000

> <Gold.Chemscore.DEClash>
1.3875

> <Gold.Chemscore.DEInternal>
0.9247

> <Gold.Chemscore.Rot>
2.1370

> <Gold.Chemscore.Internal.Correction>
   9.000000E+99

> <Gold.Chemscore.Hbonds>
donor molecule, donor type, donor heavy atom, donor atom, acceptor molecule, acceptor atom, score
      L1  H    14    34       P1  7957  0.59
      P1  H  7997  8008       L1     1  0.31

> <Gold.Chemscore.Hbond.Weighted>
-5.9108

> <Gold.Chemscore.Metal.Weighted>
-0.0000

> <Gold.Chemscore.Lipo.Weighted>
-12.8219

> <Gold.Chemscore.Internal_Hbond.Weighted>
0.0000

> <Gold.Chemscore.DEClash.Weighted>
1.3875

> <Gold.Chemscore.DEInternal.Weighted>
0.9247

> <Gold.Chemscore.Rot.Weighted>
5.4707

> <Gold.Chemscore.Internal.Correction.Weighted>
   9.000000E+99

> <Gold.Protein.RotatedTorsions>
[ 6907 6896 6895 6894 ] final   62.59 input  -60.11 | X-H torsion
[ 7974 7965 7964 7962 ] final   65.95 input  175.53 | X-H torsion
[ 8008 7997 7996 7995 ] final  -70.86 input   59.86 | X-H torsion
[ 10167 10162 10161 10158 ] final   71.31 input  -65.29 | X-H torsion
[ 10718 10713 10712 10709 ] final  141.09 input   66.30 | X-H torsion
[ 10763 10752 10751 10750 ] final  -48.54 input  -60.55 | X-H torsion
[ 11005 11000 10999 10996 ] final  -88.01 input  -57.11 | X-H torsion

> <Gold.Protein.ActiveResidues>
 VAL166  LYS551  ARG553  GLY616  TRP617  ASP618  TYR619  PRO620  LYS621  CYS622 
 ASP623  PHE694  ASN695  SER759  ASP760  ASP761  ALA762  ILE779  LEU786  VAL792 
 PHE793  MET794  SER795  GLU796  ALA797  LYS798  CYS799  TRP800  GLU811  SER814 

> <Gold.Protein.RotatedAtoms>
  152.4184  134.5999  159.9997 H   0  0  0  0  0  0  0  0  0  0  0  0  # atno 6907 bound_to 6896
  151.6156  133.3338  159.3085 H   0  0  0  0  0  0  0  0  0  0  0  0  # atno 6908 bound_to 6896
  150.8073  134.7244  159.6721 H   0  0  0  0  0  0  0  0  0  0  0  0  # atno 6909 bound_to 6896
  145.8324  139.3147  143.0979 H   0  0  0  0  0  0  0  0  0  0  0  0  # atno 7974 bound_to 7965
  154.5043  140.0826  156.7863 H   0  0  0  0  0  0  0  0  0  0  0  0  # atno 8008 bound_to 7997
  155.3929  140.3433  155.4234 H   0  0  0  0  0  0  0  0  0  0  0  0  # atno 8009 bound_to 7997
  156.1496  140.1554  156.8778 H   0  0  0  0  0  0  0  0  0  0  0  0  # atno 8010 bound_to 7997
  140.0475  144.5339  150.7388 H   0  0  0  0  0  0  0  0  0  0  0  0  # atno 10167 bound_to 10162
  157.3959  131.1010  151.0600 H   0  0  0  0  0  0  0  0  0  0  0  0  # atno 10718 bound_to 10713
  154.0795  135.6593  153.4836 H   0  0  0  0  0  0  0  0  0  0  0  0  # atno 10763 bound_to 10752
  153.0361  135.5176  154.7488 H   0  0  0  0  0  0  0  0  0  0  0  0  # atno 10764 bound_to 10752
  154.6578  135.3010  154.9873 H   0  0  0  0  0  0  0  0  0  0  0  0  # atno 10765 bound_to 10752
  141.1608  133.7544  156.9389 H   0  0  0  0  0  0  0  0  0  0  0  0  # atno 11005 bound_to 11000
  145.9556  140.8875  143.0237 LP  0  0  0  0  0  0  0  0  0  0  0  0  # atno 17320 bound_to 7965
  144.6739  140.1741  143.7411 LP  0  0  0  0  0  0  0  0  0  0  0  0  # atno 17321 bound_to 7965
  140.7232  143.2609  151.4208 LP  0  0  0  0  0  0  0  0  0  0  0  0  # atno 17342 bound_to 10162
  139.5974  144.1367  152.2160 LP  0  0  0  0  0  0  0  0  0  0  0  0  # atno 17343 bound_to 10162
  157.1616  130.6228  149.5612 LP  0  0  0  0  0  0  0  0  0  0  0  0  # atno 17370 bound_to 10713
  155.9810  130.4815  150.6805 LP  0  0  0  0  0  0  0  0  0  0  0  0  # atno 17371 bound_to 10713
  140.1335  134.9340  157.2370 LP  0  0  0  0  0  0  0  0  0  0  0  0  # atno 17394 bound_to 11000
  140.2924  134.3225  155.7311 LP  0  0  0  0  0  0  0  0  0  0  0  0  # atno 17395 bound_to 11000

$$$$
