AV-unprocessed.smi:2429|AV-procd|sdf|9582|dock6
  -GOLD-   2272013213D 1   1.00000     0.00000
 Structure written by MMmdl.
 34 35  0  0  0  0  0  0  0  0  1 V2000
  145.5296  134.2079  154.6276 C   0  0  0  0  0  0  0  0  0  0  0  0
  145.7715  134.6506  153.1684 C   0  0  0  0  0  0  0  0  0  0  0  0
  146.6951  135.7950  153.1375 N   0  0  0  0  0  0  0  0  0  0  0  0
  146.5482  137.0056  153.7017 C   0  0  0  0  0  0  0  0  0  0  0  0
  145.5666  137.3425  154.3627 O   0  0  0  0  0  0  0  0  0  0  0  0
  147.6216  137.7773  153.4603 N   0  0  0  0  0  0  0  0  0  0  0  0
  147.8643  139.1195  153.8611 C   0  0  0  0  0  0  0  0  0  0  0  0
  146.8677  140.1234  153.9267 C   0  0  0  0  0  0  0  0  0  0  0  0
  147.2439  141.4225  154.3234 C   0  0  0  0  0  0  0  0  0  0  0  0
  148.5106  141.7673  154.6382 N   0  0  0  0  0  0  0  0  0  0  0  0
  149.4602  140.8113  154.5601 C   0  0  0  0  0  0  0  0  0  0  0  0
  149.1910  139.4827  154.1748 C   0  0  0  0  0  0  0  0  0  0  0  0
  150.1933  138.5728  154.1122 F   0  0  0  0  0  0  0  0  0  0  0  0
  146.2931  133.4686  152.3152 C   0  0  0  0  0  0  0  0  0  0  0  0
  146.3320  133.8135  150.8157 C   0  0  0  0  0  0  0  0  0  0  0  0
  145.0359  134.2021  150.3762 O   0  0  0  0  0  0  0  0  0  0  0  0
  144.5528  135.3670  151.0349 C   0  0  0  0  0  0  0  0  0  0  0  0
  144.4332  135.1083  152.5489 C   0  0  0  0  0  0  0  0  0  0  0  0
  144.7805  133.4173  154.6811 H   0  0  0  0  0  0  0  0  0  0  0  0
  145.1731  135.0371  155.2397 H   0  0  0  0  0  0  0  0  0  0  0  0
  146.4348  133.8186  155.0937 H   0  0  0  0  0  0  0  0  0  0  0  0
  147.5513  135.6403  152.6255 H   0  0  0  0  0  0  0  0  0  0  0  0
  148.3859  137.3325  152.9733 H   0  0  0  0  0  0  0  0  0  0  0  0
  145.8368  139.9317  153.6725 H   0  0  0  0  0  0  0  0  0  0  0  0
  146.5062  142.2090  154.3830 H   0  0  0  0  0  0  0  0  0  0  0  0
  150.4662  141.1140  154.8105 H   0  0  0  0  0  0  0  0  0  0  0  0
  147.2774  133.1393  152.6473 H   0  0  0  0  0  0  0  0  0  0  0  0
  145.6351  132.6091  152.4518 H   0  0  0  0  0  0  0  0  0  0  0  0
  147.0534  134.6057  150.6100 H   0  0  0  0  0  0  0  0  0  0  0  0
  146.6484  132.9424  150.2418 H   0  0  0  0  0  0  0  0  0  0  0  0
  145.2100  136.2128  150.8282 H   0  0  0  0  0  0  0  0  0  0  0  0
  143.5760  135.6215  150.6232 H   0  0  0  0  0  0  0  0  0  0  0  0
  143.6744  134.3406  152.7083 H   0  0  0  0  0  0  0  0  0  0  0  0
  144.0660  136.0046  153.0507 H   0  0  0  0  0  0  0  0  0  0  0  0
  1  2  1  0  0  0  0
  1 19  1  0  0  0  0
  1 20  1  0  0  0  0
  1 21  1  0  0  0  0
  2 18  1  0  0  0  0
  2  3  1  0  0  0  0
  2 14  1  0  0  0  0
  3  4  1  0  0  0  0
  3 22  1  0  0  0  0
  4  5  2  0  0  0  0
  4  6  1  0  0  0  0
  6  7  1  0  0  0  0
  6 23  1  0  0  0  0
  7 12  1  0  0  0  0
  7  8  2  0  0  0  0
  8  9  1  0  0  0  0
  8 24  1  0  0  0  0
  9 10  2  0  0  0  0
  9 25  1  0  0  0  0
 10 11  1  0  0  0  0
 11 12  2  0  0  0  0
 11 26  1  0  0  0  0
 12 13  1  0  0  0  0
 14 15  1  0  0  0  0
 14 27  1  0  0  0  0
 14 28  1  0  0  0  0
 15 16  1  0  0  0  0
 15 29  1  0  0  0  0
 15 30  1  0  0  0  0
 16 17  1  0  0  0  0
 17 18  1  0  0  0  0
 17 31  1  0  0  0  0
 17 32  1  0  0  0  0
 18 33  1  0  0  0  0
 18 34  1  0  0  0  0
M  END
> <s_m_source_file>
AV-unprocessed.smi

> <i_m_source_file_index>
2429

> <i_lp_mmshare_version>
43012

> <i_f3d_flags>
0

> <s_epik_input>
W0NIMl0xW0NIMl1PW0NIMl1bQ0gyXUMxKFtDSDNdKVtOSF1DKD1PKVtOSF1jMltjSF1bY0hdbltjSF1jMkY=

> <s_epik_cmdline>
J2VwaWtfcHl0aG9uJywgJy1waCcsICc3LjAnLCAnLXRuJywgJzgnLCAnLW1hJywgJzIwMCcsICctbWV0YWxfYmluZGluZycsICctaW1hZScsICc8aW5maWxlLm1hZT4nLCAnLW9tYWUnLCAnPG91dGZpbGUubWFlPic=

> <r_epik_Ionization_Penalty>
0.00367474

> <r_epik_Ionization_Penalty_Charging>
0

> <r_epik_Ionization_Penalty_Neutral>
0.00367474

> <r_epik_State_Penalty>
0.00258877

> <r_epik_Charging_Adjusted_Penalty>
0.00258877

> <i_epik_Tot_Q>
0

> <i_epik_Tot_abs_Q>
0

> <r_epik_Metal_State_Penalty>
-0

> <b_epik_Metal_Only>
0

> <s_lp_Force_Field>
OPLS_2005

> <r_lp_Energy>
14.8008

> <b_lp_Chiralities_Consistent>
1

> <s_lp_Variant>
AV-unprocessed.smi:2429-1

> <Gold.Version>
5.8.1

> <Gold.Id.Protein>
6NUR|6NUR_protein|mol2

> <Gold.PLP.Fitness>
31.2097

> <Gold.PLP.PLP>
-25.9198

> <Gold.PLP.part.hbond>
-2.6674

> <Gold.PLP.part.metal>
0.0000

> <Gold.PLP.part.buried>
-2.3749

> <Gold.PLP.part.nonpolar>
-22.4284

> <Gold.PLP.part.repulsive>
0.6406

> <Gold.PLP.ligand.clash>
0.0000

> <Gold.PLP.ligand.torsion>
0.2627

> <Gold.PLP.Chemscore.Hbond>
1.9360

> <Gold.PLP.Chemscore.CHOScore>
0.0000

> <Gold.PLP.Chemscore.Metal>
0.0000

> <Gold.Chemscore.Hbonds>
donor molecule, donor type, donor heavy atom, donor atom, acceptor molecule, acceptor atom, score
      L1  H     3    22       P1  7948  1.00
      L1  H     6    23       P1  7948  1.00

> <Gold.PLP.Chemscore.Internal.Correction>
0.0074

> <Gold.Rescore>
     Score         DG    S(hbond)    S(metal)    S(lipo)     H(rot)  DE(clash)    DE(int)     intcor
     15.56     -15.91       1.93        0.00      55.86       1.00       0.08       0.27       ----

> <Gold.Chemscore.Fitness>
15.5610

> <Gold.Chemscore.DG>
-15.9059

> <Gold.Chemscore.ZeroCoef>
-5.4800

> <Gold.Chemscore.Hbond>
1.9313

> <Gold.Chemscore.Metal>
0.0000

> <Gold.Chemscore.Lipo>
55.8575

> <Gold.Chemscore.Internal_Hbond>
0.0000

> <Gold.Chemscore.DEClash>
0.0756

> <Gold.Chemscore.DEInternal>
0.2694

> <Gold.Chemscore.Rot>
1.0000

> <Gold.Chemscore.Internal.Correction>
   9.000000E+99

> <Gold.Chemscore.Hbonds>
donor molecule, donor type, donor heavy atom, donor atom, acceptor molecule, acceptor atom, score
      L1  H     3    22       P1  7948  0.96
      L1  H     6    23       P1  7948  0.95

> <Gold.Chemscore.Hbond.Weighted>
-6.4506

> <Gold.Chemscore.Metal.Weighted>
-0.0000

> <Gold.Chemscore.Lipo.Weighted>
-6.5353

> <Gold.Chemscore.Internal_Hbond.Weighted>
0.0000

> <Gold.Chemscore.DEClash.Weighted>
0.0756

> <Gold.Chemscore.DEInternal.Weighted>
0.2694

> <Gold.Chemscore.Rot.Weighted>
2.5600

> <Gold.Chemscore.Internal.Correction.Weighted>
   9.000000E+99

> <Gold.Protein.RotatedTorsions>
[ 6907 6896 6895 6894 ] final -144.08 input  -60.11 | X-H torsion
[ 7974 7965 7964 7962 ] final  110.83 input  175.53 | X-H torsion
[ 8008 7997 7996 7995 ] final   26.87 input   59.86 | X-H torsion
[ 10167 10162 10161 10158 ] final  155.93 input  -65.29 | X-H torsion
[ 10718 10713 10712 10709 ] final  -47.10 input   66.30 | X-H torsion
[ 10763 10752 10751 10750 ] final    5.42 input  -60.55 | X-H torsion
[ 11005 11000 10999 10996 ] final  -49.76 input  -57.11 | X-H torsion

> <Gold.Protein.ActiveResidues>
 VAL166  LYS551  ARG553  GLY616  TRP617  ASP618  TYR619  PRO620  LYS621  CYS622 
 ASP623  PHE694  ASN695  SER759  ASP760  ASP761  ALA762  ILE779  LEU786  VAL792 
 PHE793  MET794  SER795  GLU796  ALA797  LYS798  CYS799  TRP800  GLU811  SER814 

> <Gold.Protein.RotatedAtoms>
  151.1091  133.5186  159.2606 H   0  0  0  0  0  0  0  0  0  0  0  0  # atno 6907 bound_to 6896
  151.1987  135.0433  159.8873 H   0  0  0  0  0  0  0  0  0  0  0  0  # atno 6908 bound_to 6896
  152.5449  134.0922  159.8335 H   0  0  0  0  0  0  0  0  0  0  0  0  # atno 6909 bound_to 6896
  145.2500  139.2743  143.4072 H   0  0  0  0  0  0  0  0  0  0  0  0  # atno 7974 bound_to 7965
  155.0341  140.3162  155.4748 H   0  0  0  0  0  0  0  0  0  0  0  0  # atno 8008 bound_to 7997
  156.2868  140.2175  156.5405 H   0  0  0  0  0  0  0  0  0  0  0  0  # atno 8009 bound_to 7997
  154.7346  140.0478  157.0744 H   0  0  0  0  0  0  0  0  0  0  0  0  # atno 8010 bound_to 7997
  139.4821  144.5054  151.8105 H   0  0  0  0  0  0  0  0  0  0  0  0  # atno 10167 bound_to 10162
  156.2117  130.4161  149.9106 H   0  0  0  0  0  0  0  0  0  0  0  0  # atno 10718 bound_to 10713
  153.2597  135.6922  153.7592 H   0  0  0  0  0  0  0  0  0  0  0  0  # atno 10763 bound_to 10752
  153.6656  135.3353  155.3140 H   0  0  0  0  0  0  0  0  0  0  0  0  # atno 10764 bound_to 10752
  154.8425  135.4487  154.1582 H   0  0  0  0  0  0  0  0  0  0  0  0  # atno 10765 bound_to 10752
  141.0778  133.6661  156.3633 H   0  0  0  0  0  0  0  0  0  0  0  0  # atno 11005 bound_to 11000
  146.3305  140.2888  142.8614 LP  0  0  0  0  0  0  0  0  0  0  0  0  # atno 17320 bound_to 7965
  144.9511  140.8180  143.5571 LP  0  0  0  0  0  0  0  0  0  0  0  0  # atno 17321 bound_to 7965
  140.4552  144.1800  150.5901 LP  0  0  0  0  0  0  0  0  0  0  0  0  # atno 17342 bound_to 10162
  140.4543  143.2474  151.9305 LP  0  0  0  0  0  0  0  0  0  0  0  0  # atno 17343 bound_to 10162
  156.6782  130.8847  151.3572 LP  0  0  0  0  0  0  0  0  0  0  0  0  # atno 17370 bound_to 10713
  157.7042  130.9366  150.0879 LP  0  0  0  0  0  0  0  0  0  0  0  0  # atno 17371 bound_to 10713
  140.5536  134.6003  157.5414 LP  0  0  0  0  0  0  0  0  0  0  0  0  # atno 17394 bound_to 11000
  139.9590  134.7485  156.0278 LP  0  0  0  0  0  0  0  0  0  0  0  0  # atno 17395 bound_to 11000

$$$$
