AV-unprocessed.smi:2971|AV-procd|sdf|11333|dock6
  -GOLD-   2272016243D 1   1.00000     0.00000
 Structure written by MMmdl.
 36 38  0  0  0  0  0  0  0  0  1 V2000
  154.1395  139.8968  156.8645 O   0  0  0  0  0  0  0  0  0  0  0  0
  153.0963  139.7484  157.8082 C   0  0  1  0  0  0  0  0  0  0  0  0
  152.4240  141.1156  158.0097 C   0  0  0  0  0  0  0  0  0  0  0  0
  153.1742  141.8623  158.9588 O   0  0  0  0  0  0  0  0  0  0  0  0
  152.6106  143.0051  159.4867 C   0  0  0  0  0  0  0  0  0  0  0  0
  151.6862  143.8285  158.7942 C   0  0  0  0  0  0  0  0  0  0  0  0
  151.1576  144.9809  159.4080 C   0  0  0  0  0  0  0  0  0  0  0  0
  151.5423  145.3247  160.7168 C   0  0  0  0  0  0  0  0  0  0  0  0
  152.4577  144.5136  161.4122 C   0  0  0  0  0  0  0  0  0  0  0  0
  152.9883  143.3617  160.7991 C   0  0  0  0  0  0  0  0  0  0  0  0
  153.8701  142.5907  161.4793 F   0  0  0  0  0  0  0  0  0  0  0  0
  152.1013  138.6907  157.2920 C   0  0  0  0  0  0  0  0  0  0  0  0
  151.2276  139.2059  156.2523 N   0  0  0  0  0  0  0  0  0  0  0  0
  151.5442  139.4131  154.9598 C   0  0  0  0  0  0  0  0  0  0  0  0
  150.5890  139.8897  154.1664 N   0  0  0  0  0  0  0  0  0  0  0  0
  149.5275  140.0066  155.0476 C   0  0  0  0  0  0  0  0  0  0  0  0
  148.2049  140.4572  154.8349 C   0  0  0  0  0  0  0  0  0  0  0  0
  147.2810  140.4895  155.9003 C   0  0  0  0  0  0  0  0  0  0  0  0
  147.6646  140.0743  157.1922 C   0  0  0  0  0  0  0  0  0  0  0  0
  148.9767  139.6213  157.4284 C   0  0  0  0  0  0  0  0  0  0  0  0
  149.8947  139.5880  156.3623 C   0  0  0  0  0  0  0  0  0  0  0  0
  154.9364  139.5598  157.2451 H   0  0  0  0  0  0  0  0  0  0  0  0
  153.5195  139.4056  158.7535 H   0  0  0  0  0  0  0  0  0  0  0  0
  152.3311  141.6454  157.0597 H   0  0  0  0  0  0  0  0  0  0  0  0
  151.4190  140.9670  158.4083 H   0  0  0  0  0  0  0  0  0  0  0  0
  151.3652  143.5986  157.7899 H   0  0  0  0  0  0  0  0  0  0  0  0
  150.4548  145.6021  158.8722 H   0  0  0  0  0  0  0  0  0  0  0  0
  151.1362  146.2085  161.1865 H   0  0  0  0  0  0  0  0  0  0  0  0
  152.7542  144.7746  162.4174 H   0  0  0  0  0  0  0  0  0  0  0  0
  152.6402  137.8344  156.8846 H   0  0  0  0  0  0  0  0  0  0  0  0
  151.4880  138.3096  158.1099 H   0  0  0  0  0  0  0  0  0  0  0  0
  152.5328  139.2006  154.5797 H   0  0  0  0  0  0  0  0  0  0  0  0
  147.9006  140.7789  153.8499 H   0  0  0  0  0  0  0  0  0  0  0  0
  146.2729  140.8353  155.7256 H   0  0  0  0  0  0  0  0  0  0  0  0
  146.9507  140.1051  158.0024 H   0  0  0  0  0  0  0  0  0  0  0  0
  149.2755  139.3059  158.4170 H   0  0  0  0  0  0  0  0  0  0  0  0
  1  2  1  0  0  0  0
  1 22  1  0  0  0  0
  2  3  1  0  0  0  0
  2 12  1  0  0  0  0
  2 23  1  0  0  0  0
  3  4  1  0  0  0  0
  3 24  1  0  0  0  0
  3 25  1  0  0  0  0
  4  5  1  0  0  0  0
  5 10  1  0  0  0  0
  5  6  2  0  0  0  0
  6  7  1  0  0  0  0
  6 26  1  0  0  0  0
  7  8  2  0  0  0  0
  7 27  1  0  0  0  0
  8  9  1  0  0  0  0
  8 28  1  0  0  0  0
  9 10  2  0  0  0  0
  9 29  1  0  0  0  0
 10 11  1  0  0  0  0
 12 13  1  0  0  0  0
 12 30  1  0  0  0  0
 12 31  1  0  0  0  0
 13 21  1  0  0  0  0
 13 14  1  0  0  0  0
 14 15  2  0  0  0  0
 14 32  1  0  0  0  0
 15 16  1  0  0  0  0
 16 21  2  0  0  0  0
 16 17  1  0  0  0  0
 17 18  2  0  0  0  0
 17 33  1  0  0  0  0
 18 19  1  0  0  0  0
 18 34  1  0  0  0  0
 19 20  2  0  0  0  0
 19 35  1  0  0  0  0
 20 21  1  0  0  0  0
 20 36  1  0  0  0  0
M  END
> <s_m_source_file>
AV-unprocessed.smi

> <i_m_source_file_index>
2971

> <i_lp_mmshare_version>
43012

> <i_f3d_flags>
0

> <s_epik_input>
W2NIXTFbY0hdW2NIXVtjSF1jKGMxMiluKFtjSF1uMilbQ0gyXVtDQEhdKFtPSF0pW0NIMl1PYzNbY0hdW2NIXVtjSF1bY0hdYzNG

> <s_epik_cmdline>
J2VwaWtfcHl0aG9uJywgJy1waCcsICc3LjAnLCAnLXRuJywgJzgnLCAnLW1hJywgJzIwMCcsICctbWV0YWxfYmluZGluZycsICctaW1hZScsICc8aW5maWxlLm1hZT4nLCAnLW9tYWUnLCAnPG91dGZpbGUubWFlPic=

> <r_lp_tautomer_probability>
1

> <r_epik_Ionization_Penalty>
0.0600913

> <r_epik_Ionization_Penalty_Charging>
0

> <r_epik_Ionization_Penalty_Neutral>
0.0600913

> <r_epik_State_Penalty>
0.0520726

> <r_epik_Charging_Adjusted_Penalty>
0.0520726

> <i_epik_Tot_Q>
0

> <i_epik_Tot_abs_Q>
0

> <r_epik_Metal_State_Penalty>
5.44269e-05

> <b_epik_Metal_Only>
0

> <s_lp_Force_Field>
OPLS_2005

> <r_lp_Energy>
16.3694

> <b_lp_Chiralities_Consistent>
1

> <s_lp_Variant>
AV-unprocessed.smi:2971-2

> <Gold.Version>
5.8.1

> <Gold.Id.Protein>
6NUR|6NUR_protein|mol2

> <Gold.PLP.Fitness>
50.9480

> <Gold.PLP.PLP>
-46.9484

> <Gold.PLP.part.hbond>
-1.9533

> <Gold.PLP.part.metal>
0.0000

> <Gold.PLP.part.buried>
-5.0883

> <Gold.PLP.part.nonpolar>
-40.6383

> <Gold.PLP.part.repulsive>
0.3039

> <Gold.PLP.ligand.clash>
0.0000

> <Gold.PLP.ligand.torsion>
1.0308

> <Gold.PLP.Chemscore.Hbond>
2.0000

> <Gold.PLP.Chemscore.CHOScore>
0.0000

> <Gold.PLP.Chemscore.Metal>
0.0000

> <Gold.Chemscore.Hbonds>
donor molecule, donor type, donor heavy atom, donor atom, acceptor molecule, acceptor atom, score
      P1  H  7989  7998       L1    15  0.55

> <Gold.PLP.Chemscore.Internal.Correction>
0.0612

> <Gold.Rescore>
     Score         DG    S(hbond)    S(metal)    S(lipo)     H(rot)  DE(clash)    DE(int)     intcor
     16.55     -17.78       1.47        0.00     114.97       2.37       0.31       0.92       ----

> <Gold.Chemscore.Fitness>
16.5545

> <Gold.Chemscore.DG>
-17.7808

> <Gold.Chemscore.ZeroCoef>
-5.4800

> <Gold.Chemscore.Hbond>
1.4747

> <Gold.Chemscore.Metal>
0.0000

> <Gold.Chemscore.Lipo>
114.9707

> <Gold.Chemscore.Internal_Hbond>
0.0000

> <Gold.Chemscore.DEClash>
0.3089

> <Gold.Chemscore.DEInternal>
0.9174

> <Gold.Chemscore.Rot>
2.3735

> <Gold.Chemscore.Internal.Correction>
   9.000000E+99

> <Gold.Chemscore.Hbonds>
donor molecule, donor type, donor heavy atom, donor atom, acceptor molecule, acceptor atom, score
      P1  H  7989  7998       L1    15  0.03

> <Gold.Chemscore.Hbond.Weighted>
-4.9254

> <Gold.Chemscore.Metal.Weighted>
-0.0000

> <Gold.Chemscore.Lipo.Weighted>
-13.4516

> <Gold.Chemscore.Internal_Hbond.Weighted>
0.0000

> <Gold.Chemscore.DEClash.Weighted>
0.3089

> <Gold.Chemscore.DEInternal.Weighted>
0.9174

> <Gold.Chemscore.Rot.Weighted>
6.0762

> <Gold.Chemscore.Internal.Correction.Weighted>
   9.000000E+99

> <Gold.Protein.RotatedTorsions>
[ 6907 6896 6895 6894 ] final   54.14 input  -60.11 | X-H torsion
[ 7974 7965 7964 7962 ] final -159.07 input  175.53 | X-H torsion
[ 8008 7997 7996 7995 ] final  163.73 input   59.86 | X-H torsion
[ 10167 10162 10161 10158 ] final   70.48 input  -65.29 | X-H torsion
[ 10718 10713 10712 10709 ] final -105.18 input   66.30 | X-H torsion
[ 10763 10752 10751 10750 ] final    1.10 input  -60.55 | X-H torsion
[ 11005 11000 10999 10996 ] final -176.78 input  -57.11 | X-H torsion

> <Gold.Protein.ActiveResidues>
 VAL166  LYS551  ARG553  GLY616  TRP617  ASP618  TYR619  PRO620  LYS621  CYS622 
 ASP623  PHE694  ASN695  SER759  ASP760  ASP761  ALA762  ILE779  LEU786  VAL792 
 PHE793  MET794  SER795  GLU796  ALA797  LYS798  CYS799  TRP800  GLU811  SER814 

> <Gold.Protein.RotatedAtoms>
  152.3409  134.7136  160.0263 H   0  0  0  0  0  0  0  0  0  0  0  0  # atno 6907 bound_to 6896
  151.7521  133.3322  159.3402 H   0  0  0  0  0  0  0  0  0  0  0  0  # atno 6908 bound_to 6896
  150.7479  134.6115  159.6133 H   0  0  0  0  0  0  0  0  0  0  0  0  # atno 6909 bound_to 6896
  144.7480  140.3737  143.6070 H   0  0  0  0  0  0  0  0  0  0  0  0  # atno 7974 bound_to 7965
  156.1934  140.1715  156.8046 H   0  0  0  0  0  0  0  0  0  0  0  0  # atno 8008 bound_to 7997
  154.5500  140.0719  156.8683 H   0  0  0  0  0  0  0  0  0  0  0  0  # atno 8009 bound_to 7997
  155.3048  140.3364  155.4248 H   0  0  0  0  0  0  0  0  0  0  0  0  # atno 8010 bound_to 7997
  140.0565  144.5268  150.7325 H   0  0  0  0  0  0  0  0  0  0  0  0  # atno 10167 bound_to 10162
  156.0335  130.5551  150.7502 H   0  0  0  0  0  0  0  0  0  0  0  0  # atno 10718 bound_to 10713
  153.3122  135.6963  153.7105 H   0  0  0  0  0  0  0  0  0  0  0  0  # atno 10763 bound_to 10752
  153.5978  135.3468  155.2935 H   0  0  0  0  0  0  0  0  0  0  0  0  # atno 10764 bound_to 10752
  154.8578  135.4333  154.2264 H   0  0  0  0  0  0  0  0  0  0  0  0  # atno 10765 bound_to 10752
  140.4483  134.6367  157.4789 H   0  0  0  0  0  0  0  0  0  0  0  0  # atno 11005 bound_to 11000
  145.7051  139.1670  143.2571 LP  0  0  0  0  0  0  0  0  0  0  0  0  # atno 17320 bound_to 7965
  146.1388  140.7086  142.9377 LP  0  0  0  0  0  0  0  0  0  0  0  0  # atno 17321 bound_to 7965
  140.7192  143.2572  151.4335 LP  0  0  0  0  0  0  0  0  0  0  0  0  # atno 17342 bound_to 10162
  139.5920  144.1478  152.2099 LP  0  0  0  0  0  0  0  0  0  0  0  0  # atno 17343 bound_to 10162
  157.5048  131.0921  151.0270 LP  0  0  0  0  0  0  0  0  0  0  0  0  # atno 17370 bound_to 10713
  157.0641  130.5837  149.5391 LP  0  0  0  0  0  0  0  0  0  0  0  0  # atno 17371 bound_to 10713
  140.0024  134.6816  155.9510 LP  0  0  0  0  0  0  0  0  0  0  0  0  # atno 17394 bound_to 11000
  141.1675  133.6537  156.4533 LP  0  0  0  0  0  0  0  0  0  0  0  0  # atno 17395 bound_to 11000

$$$$
