AV-unprocessed.smi:285|AV-procd|sdf|2165|dock2
  -GOLD-   2262021523D 1   1.00000     0.00000
 Structure written by MMmdl.
 31 33  0  0  0  0  0  0  0  0  1 V2000
  151.8639  141.8151  157.7187 N   0  0  0  0  0  0  0  0  0  0  0  0
  151.6058  140.9119  156.7627 C   0  0  0  0  0  0  0  0  0  0  0  0
  152.5396  139.9673  156.5024 N   0  0  0  0  0  0  0  0  0  0  0  0
  152.3075  139.0548  155.5534 C   0  0  0  0  0  0  0  0  0  0  0  0
  151.2343  138.9182  154.7701 N   0  0  0  0  0  0  0  0  0  0  0  0
  150.2927  139.8723  155.0314 C   0  0  0  0  0  0  0  0  0  0  0  0
  150.4024  140.9004  156.0133 C   0  0  0  0  0  0  0  0  0  0  0  0
  149.2585  141.6887  156.0133 N   0  0  0  0  0  0  0  0  0  0  0  0
  148.5330  141.1417  155.0782 C   0  0  0  0  0  0  0  0  0  0  0  0
  146.8097  141.8398  154.6653 Br  0  0  0  0  0  0  0  0  0  0  0  0
  149.0642  140.0519  154.4258 N   0  0  0  0  0  0  0  0  0  0  0  0
  148.4744  139.2379  153.3184 C   0  0  2  0  0  0  0  0  0  0  0  0
  147.6892  140.1203  152.3479 C   0  0  0  0  0  0  0  0  0  0  0  0
  146.5851  139.1807  151.9109 C   0  0  1  0  0  0  0  0  0  0  0  0
  147.0190  138.3557  150.8452 O   0  0  0  0  0  0  0  0  0  0  0  0
  146.3229  138.3891  153.2024 C   0  0  1  0  0  0  0  0  0  0  0  0
  145.6943  136.9934  153.0506 C   0  0  0  0  0  0  0  0  0  0  0  0
  146.4573  136.2053  152.1619 O   0  0  0  0  0  0  0  0  0  0  0  0
  147.5841  138.3114  153.8646 O   0  0  0  0  0  0  0  0  0  0  0  0
  151.1837  142.5304  157.9323 H   0  0  0  0  0  0  0  0  0  0  0  0
  152.7397  141.7818  158.2201 H   0  0  0  0  0  0  0  0  0  0  0  0
  153.0938  138.3307  155.3990 H   0  0  0  0  0  0  0  0  0  0  0  0
  149.3053  138.7119  152.8495 H   0  0  0  0  0  0  0  0  0  0  0  0
  147.2652  140.9729  152.8801 H   0  0  0  0  0  0  0  0  0  0  0  0
  148.3221  140.4867  151.5387 H   0  0  0  0  0  0  0  0  0  0  0  0
  145.6980  139.7242  151.5842 H   0  0  0  0  0  0  0  0  0  0  0  0
  147.6717  137.7581  151.1774 H   0  0  0  0  0  0  0  0  0  0  0  0
  145.6816  138.9942  153.8452 H   0  0  0  0  0  0  0  0  0  0  0  0
  145.6052  136.4866  154.0115 H   0  0  0  0  0  0  0  0  0  0  0  0
  144.6856  137.0847  152.6469 H   0  0  0  0  0  0  0  0  0  0  0  0
  147.3660  136.4502  152.2480 H   0  0  0  0  0  0  0  0  0  0  0  0
  1  2  1  0  0  0  0
  1 20  1  0  0  0  0
  1 21  1  0  0  0  0
  2  7  1  0  0  0  0
  2  3  2  0  0  0  0
  3  4  1  0  0  0  0
  4  5  2  0  0  0  0
  4 22  1  0  0  0  0
  5  6  1  0  0  0  0
  6 11  1  0  0  0  0
  6  7  2  0  0  0  0
  7  8  1  0  0  0  0
  8  9  2  0  0  0  0
  9 10  1  0  0  0  0
  9 11  1  0  0  0  0
 11 12  1  0  0  0  0
 12 19  1  0  0  0  0
 12 13  1  0  0  0  0
 12 23  1  0  0  0  0
 13 14  1  0  0  0  0
 13 24  1  0  0  0  0
 13 25  1  0  0  0  0
 14 15  1  0  0  0  0
 14 16  1  0  0  0  0
 14 26  1  0  0  0  0
 15 27  1  0  0  0  0
 16 17  1  0  0  0  0
 16 19  1  0  0  0  0
 16 28  1  0  0  0  0
 17 18  1  0  0  0  0
 17 29  1  0  0  0  0
 17 30  1  0  0  0  0
 18 31  1  0  0  0  0
M  END
> <s_m_source_file>
AV-unprocessed.smi

> <i_m_source_file_index>
285

> <i_lp_mmshare_version>
43012

> <i_f3d_flags>
0

> <s_epik_input>
bjFbY0hdbmMoW05IMl0pYyhjMTIpbmMoQnIpbjJbQ0BASF0zW0NIMl1bQ0BASF0oW09IXSlbQ0BIXShPMylbQ0gyXVtPSF0=

> <s_epik_cmdline>
J2VwaWtfcHl0aG9uJywgJy1waCcsICc3LjAnLCAnLXRuJywgJzgnLCAnLW1hJywgJzIwMCcsICctbWV0YWxfYmluZGluZycsICctaW1hZScsICc8aW5maWxlLm1hZT4nLCAnLW9tYWUnLCAnPG91dGZpbGUubWFlPic=

> <r_lp_tautomer_probability>
1

> <r_epik_Ionization_Penalty>
0.000103242

> <r_epik_Ionization_Penalty_Charging>
0

> <r_epik_Ionization_Penalty_Neutral>
0.000103242

> <r_epik_State_Penalty>
-0

> <r_epik_Charging_Adjusted_Penalty>
0

> <i_epik_Tot_Q>
0

> <i_epik_Tot_abs_Q>
0

> <r_epik_Metal_State_Penalty>
-0

> <b_epik_Metal_Only>
0

> <s_epik_Chemistry_Notes>
This compound contains an acetal/aminal-like group ( X-CH(R)-Y where X, Y are N, S, or O) that may be acid/base labile, releasing an aldehyde.

> <s_lp_Force_Field>
OPLS_2005

> <r_lp_Energy>
33.7508

> <b_lp_Chiralities_Consistent>
1

> <s_lp_Variant>
AV-unprocessed.smi:285-1

> <Gold.Version>
5.8.1

> <Gold.Id.Protein>
6NUR|6NUR_protein|mol2

> <Gold.PLP.Fitness>
34.0034

> <Gold.PLP.PLP>
-26.3002

> <Gold.PLP.part.hbond>
-4.8861

> <Gold.PLP.part.metal>
0.0000

> <Gold.PLP.part.buried>
7.3363

> <Gold.PLP.part.nonpolar>
-28.4035

> <Gold.PLP.part.repulsive>
0.8331

> <Gold.PLP.ligand.clash>
0.0000

> <Gold.PLP.ligand.torsion>
0.6500

> <Gold.PLP.Chemscore.Hbond>
3.0000

> <Gold.PLP.Chemscore.CHOScore>
0.0000

> <Gold.PLP.Chemscore.Metal>
0.0000

> <Gold.Chemscore.Hbonds>
donor molecule, donor type, donor heavy atom, donor atom, acceptor molecule, acceptor atom, score
      L1  H    15    27       P1  7948  0.93
      L1  H    18    31       P1  7948  0.99
      P1  H  7997  8008       L1     3  1.00

> <Gold.PLP.Chemscore.Internal.Correction>
0.0032

> <Gold.Rescore>
     Score         DG    S(hbond)    S(metal)    S(lipo)     H(rot)  DE(clash)    DE(int)     intcor
      7.60     -11.74       2.78        0.00      41.24       3.06       3.70       0.44       ----

> <Gold.Chemscore.Fitness>
7.5986

> <Gold.Chemscore.DG>
-11.7412

> <Gold.Chemscore.ZeroCoef>
-5.4800

> <Gold.Chemscore.Hbond>
2.7757

> <Gold.Chemscore.Metal>
0.0000

> <Gold.Chemscore.Lipo>
41.2448

> <Gold.Chemscore.Internal_Hbond>
0.0000

> <Gold.Chemscore.DEClash>
3.7009

> <Gold.Chemscore.DEInternal>
0.4417

> <Gold.Chemscore.Rot>
3.0607

> <Gold.Chemscore.Internal.Correction>
   9.000000E+99

> <Gold.Chemscore.Hbonds>
donor molecule, donor type, donor heavy atom, donor atom, acceptor molecule, acceptor atom, score
      L1  H    15    27       P1  7948  0.88
      L1  H    18    31       P1  7948  0.93
      P1  H  7997  8008       L1     3  0.45

> <Gold.Chemscore.Hbond.Weighted>
-9.2710

> <Gold.Chemscore.Metal.Weighted>
-0.0000

> <Gold.Chemscore.Lipo.Weighted>
-4.8256

> <Gold.Chemscore.Internal_Hbond.Weighted>
0.0000

> <Gold.Chemscore.DEClash.Weighted>
3.7009

> <Gold.Chemscore.DEInternal.Weighted>
0.4417

> <Gold.Chemscore.Rot.Weighted>
7.8354

> <Gold.Chemscore.Internal.Correction.Weighted>
   9.000000E+99

> <Gold.Protein.RotatedTorsions>
[ 6907 6896 6895 6894 ] final   21.58 input  -60.11 | X-H torsion
[ 7974 7965 7964 7962 ] final  101.11 input  175.53 | X-H torsion
[ 8008 7997 7996 7995 ] final  -53.68 input   59.86 | X-H torsion
[ 10167 10162 10161 10158 ] final    5.32 input  -65.29 | X-H torsion
[ 10718 10713 10712 10709 ] final -130.63 input   66.30 | X-H torsion
[ 10763 10752 10751 10750 ] final  126.04 input  -60.55 | X-H torsion
[ 11005 11000 10999 10996 ] final  131.07 input  -57.11 | X-H torsion

> <Gold.Protein.ActiveResidues>
 VAL166  LYS551  ARG553  GLY616  TRP617  ASP618  TYR619  PRO620  LYS621  CYS622 
 ASP623  PHE694  ASN695  SER759  ASP760  ASP761  ALA762  ILE779  LEU786  VAL792 
 PHE793  MET794  SER795  GLU796  ALA797  LYS798  CYS799  TRP800  GLU811  SER814 

> <Gold.Protein.RotatedAtoms>
  151.9140  135.0327  160.0516 H   0  0  0  0  0  0  0  0  0  0  0  0  # atno 6907 bound_to 6896
  152.2256  133.5013  159.5195 H   0  0  0  0  0  0  0  0  0  0  0  0  # atno 6908 bound_to 6896
  150.7011  134.1202  159.4074 H   0  0  0  0  0  0  0  0  0  0  0  0  # atno 6909 bound_to 6896
  145.3766  139.2387  143.3426 H   0  0  0  0  0  0  0  0  0  0  0  0  # atno 7974 bound_to 7965
  154.4140  140.1194  156.5193 H   0  0  0  0  0  0  0  0  0  0  0  0  # atno 8008 bound_to 7997
  155.6719  140.3496  155.4802 H   0  0  0  0  0  0  0  0  0  0  0  0  # atno 8009 bound_to 7997
  155.9625  140.1126  157.0873 H   0  0  0  0  0  0  0  0  0  0  0  0  # atno 8010 bound_to 7997
  140.6488  143.7596  150.7541 H   0  0  0  0  0  0  0  0  0  0  0  0  # atno 10167 bound_to 10162
  156.2164  130.6951  151.0707 H   0  0  0  0  0  0  0  0  0  0  0  0  # atno 10718 bound_to 10713
  153.6870  135.3305  155.3192 H   0  0  0  0  0  0  0  0  0  0  0  0  # atno 10763 bound_to 10752
  154.8450  135.4422  154.1548 H   0  0  0  0  0  0  0  0  0  0  0  0  # atno 10764 bound_to 10752
  153.2579  135.6988  153.7687 H   0  0  0  0  0  0  0  0  0  0  0  0  # atno 10765 bound_to 10752
  139.9709  134.9578  156.9386 H   0  0  0  0  0  0  0  0  0  0  0  0  # atno 11005 bound_to 11000
  146.2861  140.4426  142.8757 LP  0  0  0  0  0  0  0  0  0  0  0  0  # atno 17320 bound_to 7965
  144.8538  140.7040  143.6151 LP  0  0  0  0  0  0  0  0  0  0  0  0  # atno 17321 bound_to 7965
  140.1242  143.4584  152.2294 LP  0  0  0  0  0  0  0  0  0  0  0  0  # atno 17342 bound_to 10162
  139.5701  144.7458  151.3914 LP  0  0  0  0  0  0  0  0  0  0  0  0  # atno 17343 bound_to 10162
  157.7065  131.0754  150.6648 LP  0  0  0  0  0  0  0  0  0  0  0  0  # atno 17370 bound_to 10713
  156.6710  130.4539  149.5657 LP  0  0  0  0  0  0  0  0  0  0  0  0  # atno 17371 bound_to 10713
  140.5296  134.0827  155.7312 LP  0  0  0  0  0  0  0  0  0  0  0  0  # atno 17394 bound_to 11000
  141.1388  133.9174  157.2373 LP  0  0  0  0  0  0  0  0  0  0  0  0  # atno 17395 bound_to 11000

$$$$
