AV-unprocessed.smi:464|AV-procd|sdf|2637|dock8
  -GOLD-   2262023 43D 1   1.00000     0.00000
 Structure written by MMmdl.
 24 25  0  0  0  0  0  0  0  0  2 V2000
  155.1721  139.4796  162.5785 O   0  0  0  0  0  0  0  0  0  0  0  0
  154.5975  140.2538  161.8165 C   0  0  0  0  0  0  0  0  0  0  0  0
  154.2922  141.5453  162.1377 N   0  5  0  0  0  0  0  0  0  0  0  0
  153.6568  142.2667  161.1909 C   0  0  0  0  0  0  0  0  0  0  0  0
  153.2809  141.8446  159.9313 C   0  0  0  0  0  0  0  0  0  0  0  0
  152.6259  142.6426  159.0065 N   0  0  0  0  0  0  0  0  0  0  0  0
  152.7557  144.0924  158.9728 C   0  0  0  0  0  0  0  0  0  0  0  0
  151.3951  144.7518  159.2609 C   0  0  0  0  0  0  0  0  0  0  0  0
  150.4231  144.2666  158.3382 O   0  0  0  0  0  0  0  0  0  0  0  0
  150.2472  142.8556  158.4374 C   0  0  0  0  0  0  0  0  0  0  0  0
  151.5773  142.1456  158.1275 C   0  0  0  0  0  0  0  0  0  0  0  0
  153.6148  140.4566  159.5931 C   0  0  0  0  0  0  0  0  0  0  0  0
  153.3577  139.9158  158.5182 O   0  0  0  0  0  0  0  0  0  0  0  0
  154.2533  139.7788  160.5859 N   0  0  0  0  0  0  0  0  0  0  0  0
  154.4988  138.8196  160.3906 H   0  0  0  0  0  0  0  0  0  0  0  0
  153.4129  143.3140  161.4717 H   0  0  0  0  0  0  0  0  0  0  0  0
  153.4962  144.4233  159.7022 H   0  0  0  0  0  0  0  0  0  0  0  0
  153.1224  144.3931  157.9908 H   0  0  0  0  0  0  0  0  0  0  0  0
  151.0725  144.5494  160.2834 H   0  0  0  0  0  0  0  0  0  0  0  0
  151.4726  145.8342  159.1603 H   0  0  0  0  0  0  0  0  0  0  0  0
  149.8879  142.5937  159.4338 H   0  0  0  0  0  0  0  0  0  0  0  0
  149.4794  142.5421  157.7299 H   0  0  0  0  0  0  0  0  0  0  0  0
  151.8687  142.3225  157.0915 H   0  0  0  0  0  0  0  0  0  0  0  0
  151.4645  141.0670  158.2447 H   0  0  0  0  0  0  0  0  0  0  0  0
  1  2  2  0  0  0  0
  2 14  1  0  0  0  0
  2  3  1  0  0  0  0
  3  4  1  0  0  0  0
  4  5  2  0  0  0  0
  4 16  1  0  0  0  0
  5  6  1  0  0  0  0
  5 12  1  0  0  0  0
  6 11  1  0  0  0  0
  6  7  1  0  0  0  0
  7  8  1  0  0  0  0
  7 17  1  0  0  0  0
  7 18  1  0  0  0  0
  8  9  1  0  0  0  0
  8 19  1  0  0  0  0
  8 20  1  0  0  0  0
  9 10  1  0  0  0  0
 10 11  1  0  0  0  0
 10 21  1  0  0  0  0
 10 22  1  0  0  0  0
 11 23  1  0  0  0  0
 11 24  1  0  0  0  0
 12 13  2  0  0  0  0
 12 14  1  0  0  0  0
 14 15  1  0  0  0  0
M  CHG  1   3  -1
M  END
> <s_m_source_file>
AV-unprocessed.smi

> <i_m_source_file_index>
464

> <i_lp_mmshare_version>
43012

> <i_f3d_flags>
0

> <s_epik_input>
Tz1jMVtuSF1bY0hdYyhjKD1PKVtuSF0xKU4yW0NIMl1bQ0gyXU9bQ0gyXVtDSDJdMg==

> <s_epik_cmdline>
J2VwaWtfcHl0aG9uJywgJy1waCcsICc3LjAnLCAnLXRuJywgJzgnLCAnLW1hJywgJzIwMCcsICctbWV0YWxfYmluZGluZycsICctaW1hZScsICc8aW5maWxlLm1hZT4nLCAnLW9tYWUnLCAnPG91dGZpbGUubWFlPic=

> <r_lp_tautomer_probability>
0.999801

> <r_epik_Ionization_Penalty>
2.66523

> <r_epik_Ionization_Penalty_Charging>
1.22855e-06

> <r_epik_Ionization_Penalty_Neutral>
2.66523

> <r_epik_State_Penalty>
2.66349

> <r_epik_Charging_Adjusted_Penalty>
2.66349

> <i_epik_Tot_Q>
-1

> <i_epik_Tot_abs_Q>
1

> <r_epik_Metal_State_Penalty>
0.434838

> <b_epik_Metal_Only>
1

> <s_lp_Force_Field>
OPLS_2005

> <r_lp_Energy>
24.7156

> <b_lp_Chiralities_Consistent>
1

> <s_lp_Variant>
AV-unprocessed.smi:464-2

> <Gold.Version>
5.8.1

> <Gold.Id.Protein>
6NUR|6NUR_protein|mol2

> <Gold.PLP.Fitness>
32.9879

> <Gold.PLP.PLP>
-30.5450

> <Gold.PLP.part.hbond>
-2.0000

> <Gold.PLP.part.metal>
0.0000

> <Gold.PLP.part.buried>
-4.6561

> <Gold.PLP.part.nonpolar>
-23.6081

> <Gold.PLP.part.repulsive>
0.4676

> <Gold.PLP.ligand.clash>
0.0000

> <Gold.PLP.ligand.torsion>
0.4475

> <Gold.PLP.Chemscore.Hbond>
1.0000

> <Gold.PLP.Chemscore.CHOScore>
0.0000

> <Gold.PLP.Chemscore.Metal>
0.0000

> <Gold.Chemscore.Hbonds>
donor molecule, donor type, donor heavy atom, donor atom, acceptor molecule, acceptor atom, score
      P1  H  7997  8009       L1    13  1.00

> <Gold.PLP.Chemscore.Internal.Correction>
0.3380

> <Gold.Rescore>
     Score         DG    S(hbond)    S(metal)    S(lipo)     H(rot)  DE(clash)    DE(int)     intcor
     14.55     -16.35       0.96        0.00      65.37       0.00       0.05       1.75       ----

> <Gold.Chemscore.Fitness>
14.5451

> <Gold.Chemscore.DG>
-16.3508

> <Gold.Chemscore.ZeroCoef>
-5.4800

> <Gold.Chemscore.Hbond>
0.9648

> <Gold.Chemscore.Metal>
0.0000

> <Gold.Chemscore.Lipo>
65.3698

> <Gold.Chemscore.Internal_Hbond>
0.0000

> <Gold.Chemscore.DEClash>
0.0544

> <Gold.Chemscore.DEInternal>
1.7512

> <Gold.Chemscore.Rot>
0.0000

> <Gold.Chemscore.Internal.Correction>
   9.000000E+99

> <Gold.Chemscore.Hbonds>
donor molecule, donor type, donor heavy atom, donor atom, acceptor molecule, acceptor atom, score
      P1  H  7997  8009       L1    13  0.90

> <Gold.Chemscore.Hbond.Weighted>
-3.2225

> <Gold.Chemscore.Metal.Weighted>
-0.0000

> <Gold.Chemscore.Lipo.Weighted>
-7.6483

> <Gold.Chemscore.Internal_Hbond.Weighted>
0.0000

> <Gold.Chemscore.DEClash.Weighted>
0.0544

> <Gold.Chemscore.DEInternal.Weighted>
1.7512

> <Gold.Chemscore.Rot.Weighted>
0.0000

> <Gold.Chemscore.Internal.Correction.Weighted>
   9.000000E+99

> <Gold.Protein.RotatedTorsions>
[ 6907 6896 6895 6894 ] final -159.70 input  -60.11 | X-H torsion
[ 7974 7965 7964 7962 ] final  147.37 input  175.53 | X-H torsion
[ 8008 7997 7996 7995 ] final  142.87 input   59.86 | X-H torsion
[ 10167 10162 10161 10158 ] final -122.87 input  -65.29 | X-H torsion
[ 10718 10713 10712 10709 ] final  -69.98 input   66.30 | X-H torsion
[ 10763 10752 10751 10750 ] final -151.19 input  -60.55 | X-H torsion
[ 11005 11000 10999 10996 ] final  -92.07 input  -57.11 | X-H torsion

> <Gold.Protein.ActiveResidues>
 VAL166  LYS551  ARG553  GLY616  TRP617  ASP618  TYR619  PRO620  LYS621  CYS622 
 ASP623  PHE694  ASN695  SER759  ASP760  ASP761  ALA762  ILE779  LEU786  VAL792 
 PHE793  MET794  SER795  GLU796  ALA797  LYS798  CYS799  TRP800  GLU811  SER814 

> <Gold.Protein.RotatedAtoms>
  151.3377  133.3975  159.2668 H   0  0  0  0  0  0  0  0  0  0  0  0  # atno 6907 bound_to 6896
  150.9903  134.9240  159.7906 H   0  0  0  0  0  0  0  0  0  0  0  0  # atno 6908 bound_to 6896
  152.5245  134.3342  159.9246 H   0  0  0  0  0  0  0  0  0  0  0  0  # atno 6909 bound_to 6896
  144.8597  139.6020  143.5936 H   0  0  0  0  0  0  0  0  0  0  0  0  # atno 7974 bound_to 7965
  156.2941  140.2277  156.4798 H   0  0  0  0  0  0  0  0  0  0  0  0  # atno 8008 bound_to 7997
  154.7863  140.0457  157.1187 H   0  0  0  0  0  0  0  0  0  0  0  0  # atno 8009 bound_to 7997
  154.9699  140.3065  155.4996 H   0  0  0  0  0  0  0  0  0  0  0  0  # atno 8010 bound_to 7997
  140.0096  143.5455  152.2268 H   0  0  0  0  0  0  0  0  0  0  0  0  # atno 10167 bound_to 10162
  156.0429  130.4323  150.2228 H   0  0  0  0  0  0  0  0  0  0  0  0  # atno 10718 bound_to 10713
  154.8073  135.3266  154.7398 H   0  0  0  0  0  0  0  0  0  0  0  0  # atno 10763 bound_to 10752
  153.8054  135.6900  153.4853 H   0  0  0  0  0  0  0  0  0  0  0  0  # atno 10764 bound_to 10752
  153.1827  135.4580  154.9994 H   0  0  0  0  0  0  0  0  0  0  0  0  # atno 10765 bound_to 10752
  141.1530  133.7796  156.9968 H   0  0  0  0  0  0  0  0  0  0  0  0  # atno 11005 bound_to 11000
  146.2851  139.6981  142.9201 LP  0  0  0  0  0  0  0  0  0  0  0  0  # atno 17320 bound_to 7965
  145.4337  141.0417  143.2896 LP  0  0  0  0  0  0  0  0  0  0  0  0  # atno 17321 bound_to 7965
  139.6214  144.7629  151.2732 LP  0  0  0  0  0  0  0  0  0  0  0  0  # atno 17342 bound_to 10162
  140.7386  143.6642  150.8138 LP  0  0  0  0  0  0  0  0  0  0  0  0  # atno 17343 bound_to 10162
  157.0321  131.0010  151.3309 LP  0  0  0  0  0  0  0  0  0  0  0  0  # atno 17370 bound_to 10713
  157.5270  130.8034  149.7873 LP  0  0  0  0  0  0  0  0  0  0  0  0  # atno 17371 bound_to 10713
  140.0966  134.9560  157.1859 LP  0  0  0  0  0  0  0  0  0  0  0  0  # atno 17394 bound_to 11000
  140.3374  134.2742  155.7217 LP  0  0  0  0  0  0  0  0  0  0  0  0  # atno 17395 bound_to 11000

$$$$
