AV-unprocessed.smi:2124|AV-procd|sdf|8667|dock7
  -GOLD-   2272011413D 1   1.00000     0.00000
 Structure written by MMmdl.
 46 48  0  0  0  0  0  0  0  0  2 V2000
  147.3105  135.3714  159.8725 C   0  0  0  0  0  0  0  0  0  0  0  0
  148.2109  136.3115  159.0996 C   0  0  0  0  0  0  0  0  0  0  0  0
  147.7370  137.4173  158.6665 N   0  0  0  0  0  0  0  0  0  0  0  0
  148.5689  138.2913  157.9460 C   0  0  0  0  0  0  0  0  0  0  0  0
  147.9214  139.5783  157.4652 C   0  0  0  0  0  0  0  0  0  0  0  0
  149.8743  137.9809  157.7011 C   0  0  0  0  0  0  0  0  0  0  0  0
  150.8210  138.8882  156.9152 C   0  0  0  0  0  0  0  0  0  0  0  0
  151.7668  139.7659  157.7391 C   0  0  0  0  0  0  0  0  0  0  0  0
  152.9882  139.6349  157.6509 O   0  0  0  0  0  0  0  0  0  0  0  0
  151.1758  140.6589  158.5472 N   0  0  0  0  0  0  0  0  0  0  0  0
  151.8636  141.5830  159.4456 C   0  0  1  0  0  0  0  0  0  0  0  0
  153.0000  140.8382  160.1648 C   0  0  0  0  0  0  0  0  0  0  0  0
  152.3775  142.8031  158.6457 C   0  0  2  0  0  0  0  0  0  0  0  0
  153.0122  143.9215  159.5026 C   0  0  0  0  0  0  0  0  0  0  0  0
  152.2975  145.1910  159.0018 C   0  0  2  0  0  0  0  0  0  0  0  0
  150.8554  145.2031  159.5418 C   0  0  0  0  0  0  0  0  0  0  0  0
  150.1733  144.1048  158.7064 C   0  0  0  0  0  0  0  0  0  0  0  0
  151.3242  143.5850  157.8199 C   0  0  1  0  0  0  0  0  0  0  0  0
  152.0789  144.8775  157.5261 C   0  0  0  0  0  0  0  0  0  0  0  0
  150.3846  136.7029  158.2281 C   0  0  0  0  0  0  0  0  0  0  0  0
  151.5603  136.3849  158.0530 O   0  0  0  0  0  0  0  0  0  0  0  0
  149.5129  135.9059  158.9095 N   0  5  0  0  0  0  0  0  0  0  0  0
  146.2850  135.7421  159.8994 H   0  0  0  0  0  0  0  0  0  0  0  0
  147.6645  135.2688  160.8987 H   0  0  0  0  0  0  0  0  0  0  0  0
  147.3043  134.3847  159.4081 H   0  0  0  0  0  0  0  0  0  0  0  0
  148.4889  140.4455  157.8027 H   0  0  0  0  0  0  0  0  0  0  0  0
  146.9051  139.6757  157.8485 H   0  0  0  0  0  0  0  0  0  0  0  0
  147.8724  139.5968  156.3767 H   0  0  0  0  0  0  0  0  0  0  0  0
  151.4099  138.2963  156.2133 H   0  0  0  0  0  0  0  0  0  0  0  0
  150.2275  139.5504  156.2851 H   0  0  0  0  0  0  0  0  0  0  0  0
  150.1667  140.6948  158.5475 H   0  0  0  0  0  0  0  0  0  0  0  0
  151.1696  141.9373  160.2089 H   0  0  0  0  0  0  0  0  0  0  0  0
  153.5213  141.4894  160.8662 H   0  0  0  0  0  0  0  0  0  0  0  0
  153.7356  140.4554  159.4566 H   0  0  0  0  0  0  0  0  0  0  0  0
  152.6145  139.9909  160.7331 H   0  0  0  0  0  0  0  0  0  0  0  0
  153.1336  142.4442  157.9445 H   0  0  0  0  0  0  0  0  0  0  0  0
  152.8679  143.7750  160.5738 H   0  0  0  0  0  0  0  0  0  0  0  0
  154.0861  143.9789  159.3204 H   0  0  0  0  0  0  0  0  0  0  0  0
  152.8466  146.1112  159.2032 H   0  0  0  0  0  0  0  0  0  0  0  0
  150.8116  144.9994  160.6124 H   0  0  0  0  0  0  0  0  0  0  0  0
  150.3806  146.1690  159.3652 H   0  0  0  0  0  0  0  0  0  0  0  0
  149.7135  143.3306  159.3197 H   0  0  0  0  0  0  0  0  0  0  0  0
  149.3846  144.5364  158.0888 H   0  0  0  0  0  0  0  0  0  0  0  0
  150.9818  143.0524  156.9320 H   0  0  0  0  0  0  0  0  0  0  0  0
  151.4749  145.6253  157.0090 H   0  0  0  0  0  0  0  0  0  0  0  0
  153.0080  144.7244  156.9739 H   0  0  0  0  0  0  0  0  0  0  0  0
  1  2  1  0  0  0  0
  1 23  1  0  0  0  0
  1 24  1  0  0  0  0
  1 25  1  0  0  0  0
  2 22  1  0  0  0  0
  2  3  2  0  0  0  0
  3  4  1  0  0  0  0
  4  5  1  0  0  0  0
  4  6  2  0  0  0  0
  5 26  1  0  0  0  0
  5 27  1  0  0  0  0
  5 28  1  0  0  0  0
  6  7  1  0  0  0  0
  6 20  1  0  0  0  0
  7  8  1  0  0  0  0
  7 29  1  0  0  0  0
  7 30  1  0  0  0  0
  8  9  2  0  0  0  0
  8 10  1  0  0  0  0
 10 11  1  0  0  0  0
 10 31  1  0  0  0  0
 11 12  1  0  0  0  0
 11 13  1  0  0  0  0
 11 32  1  0  0  0  0
 12 33  1  0  0  0  0
 12 34  1  0  0  0  0
 12 35  1  0  0  0  0
 13 18  1  0  0  0  0
 13 14  1  0  0  0  0
 13 36  1  0  0  0  0
 14 15  1  0  0  0  0
 14 37  1  0  0  0  0
 14 38  1  0  0  0  0
 15 19  1  0  0  0  0
 15 16  1  0  0  0  0
 15 39  1  0  0  0  0
 16 17  1  0  0  0  0
 16 40  1  0  0  0  0
 16 41  1  0  0  0  0
 17 18  1  0  0  0  0
 17 42  1  0  0  0  0
 17 43  1  0  0  0  0
 18 19  1  0  0  0  0
 18 44  1  0  0  0  0
 19 45  1  0  0  0  0
 19 46  1  0  0  0  0
 20 21  2  0  0  0  0
 20 22  1  0  0  0  0
M  CHG  1  22  -1
M  END
> <s_m_source_file>
AV-unprocessed.smi

> <i_m_source_file_index>
2124

> <i_lp_mmshare_version>
43012

> <i_f3d_flags>
0

> <s_epik_input>
W0NIM11jMW5jKFtDSDNdKWMoYyg9TylbbkhdMSlbQ0gyXUMoPU8pW05IXVtDQEhdKFtDSDNdKVtDQEhdKFtDSDJdW0NASF0yMylbQ0BIXShbQ0gyXTMpW0NIMl1bQ0gyXTI=

> <s_epik_cmdline>
J2VwaWtfcHl0aG9uJywgJy1waCcsICc3LjAnLCAnLXRuJywgJzgnLCAnLW1hJywgJzIwMCcsICctbWV0YWxfYmluZGluZycsICctaW1hZScsICc8aW5maWxlLm1hZT4nLCAnLW9tYWUnLCAnPG91dGZpbGUubWFlPic=

> <r_lp_tautomer_probability>
0.839158

> <r_epik_Ionization_Penalty>
6.63797

> <r_epik_Ionization_Penalty_Charging>
7.48558e-08

> <r_epik_Ionization_Penalty_Neutral>
6.63797

> <r_epik_State_Penalty>
4.49496

> <r_epik_Charging_Adjusted_Penalty>
4.49496

> <i_epik_Tot_Q>
-1

> <i_epik_Tot_abs_Q>
1

> <r_epik_Metal_State_Penalty>
0.841241

> <b_epik_Metal_Only>
1

> <s_lp_Force_Field>
OPLS_2005

> <r_lp_Energy>
55.4984

> <b_lp_Chiralities_Consistent>
1

> <s_lp_Variant>
AV-unprocessed.smi:2124-18

> <Gold.Version>
5.8.1

> <Gold.Id.Protein>
6NUR|6NUR_protein|mol2

> <Gold.PLP.Fitness>
44.6536

> <Gold.PLP.PLP>
-36.7780

> <Gold.PLP.part.hbond>
-3.0000

> <Gold.PLP.part.metal>
0.0000

> <Gold.PLP.part.buried>
-6.4269

> <Gold.PLP.part.nonpolar>
-27.8025

> <Gold.PLP.part.repulsive>
0.1552

> <Gold.PLP.ligand.clash>
0.0000

> <Gold.PLP.ligand.torsion>
0.5681

> <Gold.PLP.Chemscore.Hbond>
3.0000

> <Gold.PLP.Chemscore.CHOScore>
0.0000

> <Gold.PLP.Chemscore.Metal>
0.0000

> <Gold.Chemscore.Hbonds>
donor molecule, donor type, donor heavy atom, donor atom, acceptor molecule, acceptor atom, score
      P1  H  6896  6909       L1    22  2.00
      P1  H  7997  8009       L1     9  1.00

> <Gold.PLP.Chemscore.Internal.Correction>
0.0119

> <Gold.Rescore>
     Score         DG    S(hbond)    S(metal)    S(lipo)     H(rot)  DE(clash)    DE(int)     intcor
     17.95     -20.09       1.78        0.00     109.18       1.61       0.11       2.04       ----

> <Gold.Chemscore.Fitness>
17.9459

> <Gold.Chemscore.DG>
-20.0907

> <Gold.Chemscore.ZeroCoef>
-5.4800

> <Gold.Chemscore.Hbond>
1.7803

> <Gold.Chemscore.Metal>
0.0000

> <Gold.Chemscore.Lipo>
109.1756

> <Gold.Chemscore.Internal_Hbond>
0.0000

> <Gold.Chemscore.DEClash>
0.1051

> <Gold.Chemscore.DEInternal>
2.0397

> <Gold.Chemscore.Rot>
1.6051

> <Gold.Chemscore.Internal.Correction>
   9.000000E+99

> <Gold.Chemscore.Hbonds>
donor molecule, donor type, donor heavy atom, donor atom, acceptor molecule, acceptor atom, score
      P1  H  6896  6909       L1    22  0.33
      P1  H  7997  8009       L1     9  1.00

> <Gold.Chemscore.Hbond.Weighted>
-5.9461

> <Gold.Chemscore.Metal.Weighted>
-0.0000

> <Gold.Chemscore.Lipo.Weighted>
-12.7735

> <Gold.Chemscore.Internal_Hbond.Weighted>
0.0000

> <Gold.Chemscore.DEClash.Weighted>
0.1051

> <Gold.Chemscore.DEInternal.Weighted>
2.0397

> <Gold.Chemscore.Rot.Weighted>
4.1090

> <Gold.Chemscore.Internal.Correction.Weighted>
   9.000000E+99

> <Gold.Protein.RotatedTorsions>
[ 6907 6896 6895 6894 ] final   40.67 input  -60.11 | X-H torsion
[ 7974 7965 7964 7962 ] final   11.25 input  175.53 | X-H torsion
[ 8008 7997 7996 7995 ] final  174.29 input   59.86 | X-H torsion
[ 10167 10162 10161 10158 ] final   55.85 input  -65.29 | X-H torsion
[ 10718 10713 10712 10709 ] final   35.94 input   66.30 | X-H torsion
[ 10763 10752 10751 10750 ] final  -48.69 input  -60.55 | X-H torsion
[ 11005 11000 10999 10996 ] final  122.45 input  -57.11 | X-H torsion

> <Gold.Protein.ActiveResidues>
 VAL166  LYS551  ARG553  GLY616  TRP617  ASP618  TYR619  PRO620  LYS621  CYS622 
 ASP623  PHE694  ASN695  SER759  ASP760  ASP761  ALA762  ILE779  LEU786  VAL792 
 PHE793  MET794  SER795  GLU796  ALA797  LYS798  CYS799  TRP800  GLU811  SER814 

> <Gold.Protein.RotatedAtoms>
  152.1855  134.8717  160.0522 H   0  0  0  0  0  0  0  0  0  0  0  0  # atno 6907 bound_to 6896
  151.9626  133.3695  159.4049 H   0  0  0  0  0  0  0  0  0  0  0  0  # atno 6908 bound_to 6896
  150.6925  134.4148  159.5222 H   0  0  0  0  0  0  0  0  0  0  0  0  # atno 6909 bound_to 6896
  146.2374  139.9513  142.8470 H   0  0  0  0  0  0  0  0  0  0  0  0  # atno 7974 bound_to 7965
  156.0989  140.1438  156.9493 H   0  0  0  0  0  0  0  0  0  0  0  0  # atno 8008 bound_to 7997
  154.4689  140.0916  156.7140 H   0  0  0  0  0  0  0  0  0  0  0  0  # atno 8009 bound_to 7997
  155.4793  140.3444  155.4339 H   0  0  0  0  0  0  0  0  0  0  0  0  # atno 8010 bound_to 7997
  140.2150  144.3849  150.6473 H   0  0  0  0  0  0  0  0  0  0  0  0  # atno 10167 bound_to 10162
  157.3288  130.7487  149.6834 H   0  0  0  0  0  0  0  0  0  0  0  0  # atno 10718 bound_to 10713
  154.0819  135.6590  153.4839 H   0  0  0  0  0  0  0  0  0  0  0  0  # atno 10763 bound_to 10752
  153.0352  135.5182  154.7465 H   0  0  0  0  0  0  0  0  0  0  0  0  # atno 10764 bound_to 10752
  154.6563  135.3008  154.9892 H   0  0  0  0  0  0  0  0  0  0  0  0  # atno 10765 bound_to 10752
  139.9269  134.9641  156.8111 H   0  0  0  0  0  0  0  0  0  0  0  0  # atno 11005 bound_to 11000
  145.1859  140.9789  143.4239 LP  0  0  0  0  0  0  0  0  0  0  0  0  # atno 17320 bound_to 7965
  144.9900  139.3698  143.6219 LP  0  0  0  0  0  0  0  0  0  0  0  0  # atno 17321 bound_to 7965
  140.6296  143.2186  151.6523 LP  0  0  0  0  0  0  0  0  0  0  0  0  # atno 17342 bound_to 10162
  139.5165  144.3343  152.0798 LP  0  0  0  0  0  0  0  0  0  0  0  0  # atno 17343 bound_to 10162
  155.9693  130.4201  150.4407 LP  0  0  0  0  0  0  0  0  0  0  0  0  # atno 17370 bound_to 10713
  157.2436  131.0531  151.2422 LP  0  0  0  0  0  0  0  0  0  0  0  0  # atno 17371 bound_to 10713
  140.6311  133.9905  155.7662 LP  0  0  0  0  0  0  0  0  0  0  0  0  # atno 17394 bound_to 11000
  141.0832  134.0030  157.3353 LP  0  0  0  0  0  0  0  0  0  0  0  0  # atno 17395 bound_to 11000

$$$$
