AV-unprocessed.smi:153|AV-procd|sdf|1263|dock10
  -GOLD-   2262018513D 1   1.00000     0.00000
 Structure written by MMmdl.
 59 62  0  0  0  0  0  0  0  0  1 V2000
  150.1405  138.3399  154.5385 C   0  0  0  0  0  0  0  0  0  0  0  0
  149.1563  139.3150  155.2052 C   0  0  1  0  0  0  0  0  0  0  0  0
  149.6672  139.6681  156.4879 O   0  0  0  0  0  0  0  0  0  0  0  0
  149.2461  140.9846  156.7974 C   0  0  0  0  0  0  0  0  0  0  0  0
  149.4071  141.6941  155.4631 C   0  0  0  0  0  0  0  0  0  0  0  0
  148.8940  140.6561  154.4641 C   0  0  1  0  0  0  0  0  0  0  0  0
  149.6475  140.7796  153.2694 O   0  0  0  0  0  0  0  0  0  0  0  0
  147.3903  140.8119  154.1148 C   0  0  0  0  0  0  0  0  0  0  0  0
  146.7854  139.6268  153.5245 N   0  0  0  0  0  0  0  0  0  0  0  0
  146.9812  139.1482  152.2505 C   0  0  0  0  0  0  0  0  0  0  0  0
  146.3261  138.0582  151.9619 N   0  0  0  0  0  0  0  0  0  0  0  0
  145.6258  137.7511  153.1244 C   0  0  0  0  0  0  0  0  0  0  0  0
  144.7274  136.7095  153.5117 C   0  0  0  0  0  0  0  0  0  0  0  0
  144.3125  135.7012  152.6920 N   0  0  0  0  0  0  0  0  0  0  0  0
  142.8758  135.5005  152.5126 C   0  0  0  0  0  0  0  0  0  0  0  0
  145.1890  135.2681  151.6033 C   0  0  0  0  0  0  0  0  0  0  0  0
  145.1885  133.7381  151.3871 C   0  0  1  0  0  0  0  0  0  0  0  0
  145.3050  133.4185  150.0149 O   0  0  0  0  0  0  0  0  0  0  0  0
  146.3064  133.0076  152.1654 C   0  0  0  0  0  0  0  0  0  0  0  0
  145.9936  131.6662  152.6697 N   0  0  0  0  0  0  0  0  0  0  0  0
  147.0385  131.1195  153.5336 C   0  0  0  0  0  0  0  0  0  0  0  0
  146.6979  129.7008  154.0230 C   0  0  0  0  0  0  0  0  0  0  0  0
  146.4639  128.8495  152.9062 O   0  0  0  0  0  0  0  0  0  0  0  0
  145.4169  129.3243  152.0665 C   0  0  0  0  0  0  0  0  0  0  0  0
  145.7605  130.7384  151.5676 C   0  0  0  0  0  0  0  0  0  0  0  0
  144.2658  136.7436  154.7917 N   0  0  0  0  0  0  0  0  0  0  0  0
  144.6304  137.7194  155.6269 C   0  0  0  0  0  0  0  0  0  0  0  0
  145.4417  138.7512  155.3978 N   0  0  0  0  0  0  0  0  0  0  0  0
  145.9217  138.7255  154.1225 C   0  0  0  0  0  0  0  0  0  0  0  0
  149.7821  138.0276  153.5572 H   0  0  0  0  0  0  0  0  0  0  0  0
  150.2648  137.4421  155.1444 H   0  0  0  0  0  0  0  0  0  0  0  0
  151.1255  138.7910  154.4128 H   0  0  0  0  0  0  0  0  0  0  0  0
  148.2125  138.7928  155.3697 H   0  0  0  0  0  0  0  0  0  0  0  0
  148.2036  140.9790  157.1193 H   0  0  0  0  0  0  0  0  0  0  0  0
  149.8533  141.4264  157.5874 H   0  0  0  0  0  0  0  0  0  0  0  0
  148.8965  142.6551  155.4276 H   0  0  0  0  0  0  0  0  0  0  0  0
  150.4692  141.8881  155.3026 H   0  0  0  0  0  0  0  0  0  0  0  0
  149.2670  140.2115  152.6174 H   0  0  0  0  0  0  0  0  0  0  0  0
  146.8244  141.0673  155.0117 H   0  0  0  0  0  0  0  0  0  0  0  0
  147.2489  141.6440  153.4240 H   0  0  0  0  0  0  0  0  0  0  0  0
  147.6285  139.6364  151.5366 H   0  0  0  0  0  0  0  0  0  0  0  0
  142.3719  135.4185  153.4764 H   0  0  0  0  0  0  0  0  0  0  0  0
  142.6769  134.5820  151.9602 H   0  0  0  0  0  0  0  0  0  0  0  0
  142.4342  136.3293  151.9582 H   0  0  0  0  0  0  0  0  0  0  0  0
  144.9964  135.8030  150.6768 H   0  0  0  0  0  0  0  0  0  0  0  0
  146.1987  135.5703  151.8830 H   0  0  0  0  0  0  0  0  0  0  0  0
  144.2374  133.3245  151.7242 H   0  0  0  0  0  0  0  0  0  0  0  0
  145.7256  134.1417  149.5756 H   0  0  0  0  0  0  0  0  0  0  0  0
  147.1446  132.9124  151.4738 H   0  0  0  0  0  0  0  0  0  0  0  0
  146.6739  133.6396  152.9757 H   0  0  0  0  0  0  0  0  0  0  0  0
  147.9893  131.1001  152.9987 H   0  0  0  0  0  0  0  0  0  0  0  0
  147.1806  131.7556  154.4062 H   0  0  0  0  0  0  0  0  0  0  0  0
  147.5192  129.2961  154.6142 H   0  0  0  0  0  0  0  0  0  0  0  0
  145.8172  129.7171  154.6670 H   0  0  0  0  0  0  0  0  0  0  0  0
  145.2978  128.6427  151.2241 H   0  0  0  0  0  0  0  0  0  0  0  0
  144.4732  129.3262  152.6144 H   0  0  0  0  0  0  0  0  0  0  0  0
  144.9461  131.1040  150.9411 H   0  0  0  0  0  0  0  0  0  0  0  0
  146.6456  130.6904  150.9311 H   0  0  0  0  0  0  0  0  0  0  0  0
  144.2102  137.6657  156.6204 H   0  0  0  0  0  0  0  0  0  0  0  0
  1  2  1  0  0  0  0
  1 30  1  0  0  0  0
  1 31  1  0  0  0  0
  1 32  1  0  0  0  0
  2  6  1  0  0  0  0
  2  3  1  0  0  0  0
  2 33  1  0  0  0  0
  3  4  1  0  0  0  0
  4  5  1  0  0  0  0
  4 34  1  0  0  0  0
  4 35  1  0  0  0  0
  5  6  1  0  0  0  0
  5 36  1  0  0  0  0
  5 37  1  0  0  0  0
  6  7  1  0  0  0  0
  6  8  1  0  0  0  0
  7 38  1  0  0  0  0
  8  9  1  0  0  0  0
  8 39  1  0  0  0  0
  8 40  1  0  0  0  0
  9 29  1  0  0  0  0
  9 10  1  0  0  0  0
 10 11  2  0  0  0  0
 10 41  1  0  0  0  0
 11 12  1  0  0  0  0
 12 29  2  0  0  0  0
 12 13  1  0  0  0  0
 13 14  1  0  0  0  0
 13 26  2  0  0  0  0
 14 15  1  0  0  0  0
 14 16  1  0  0  0  0
 15 42  1  0  0  0  0
 15 43  1  0  0  0  0
 15 44  1  0  0  0  0
 16 17  1  0  0  0  0
 16 45  1  0  0  0  0
 16 46  1  0  0  0  0
 17 18  1  0  0  0  0
 17 19  1  0  0  0  0
 17 47  1  0  0  0  0
 18 48  1  0  0  0  0
 19 20  1  0  0  0  0
 19 49  1  0  0  0  0
 19 50  1  0  0  0  0
 20 25  1  0  0  0  0
 20 21  1  0  0  0  0
 21 22  1  0  0  0  0
 21 51  1  0  0  0  0
 21 52  1  0  0  0  0
 22 23  1  0  0  0  0
 22 53  1  0  0  0  0
 22 54  1  0  0  0  0
 23 24  1  0  0  0  0
 24 25  1  0  0  0  0
 24 55  1  0  0  0  0
 24 56  1  0  0  0  0
 25 57  1  0  0  0  0
 25 58  1  0  0  0  0
 26 27  1  0  0  0  0
 27 28  2  0  0  0  0
 27 59  1  0  0  0  0
 28 29  1  0  0  0  0
M  END
> <s_m_source_file>
AV-unprocessed.smi

> <i_m_source_file_index>
153

> <i_lp_mmshare_version>
43012

> <i_f3d_flags>
0

> <s_epik_input>
W0NIMl0xW0NIMl1PW0NAQEhdKFtDSDNdKVtDQEBdMShbT0hdKVtDSDJdbihbY0hdbjIpYyhjMjMpbltjSF1uYzNOKFtDSDNdKVtDSDJdW0NASF0oW09IXSlbQ0gyXU40W0NIMl1bQ0gyXU9bQ0gyXVtDSDJdNA==

> <s_epik_cmdline>
J2VwaWtfcHl0aG9uJywgJy1waCcsICc3LjAnLCAnLXRuJywgJzgnLCAnLW1hJywgJzIwMCcsICctbWV0YWxfYmluZGluZycsICctaW1hZScsICc8aW5maWxlLm1hZT4nLCAnLW9tYWUnLCAnPG91dGZpbGUubWFlPic=

> <r_lp_tautomer_probability>
1

> <r_epik_Ionization_Penalty>
0.424123

> <r_epik_Ionization_Penalty_Charging>
0

> <r_epik_Ionization_Penalty_Neutral>
0.424123

> <r_epik_State_Penalty>
0.421495

> <r_epik_Charging_Adjusted_Penalty>
0.421495

> <i_epik_Tot_Q>
0

> <i_epik_Tot_abs_Q>
0

> <r_epik_Metal_State_Penalty>
0.421223

> <b_epik_Metal_Only>
0

> <s_lp_Force_Field>
OPLS_2005

> <r_lp_Energy>
60.0656

> <b_lp_Chiralities_Consistent>
1

> <s_lp_Variant>
AV-unprocessed.smi:153-14

> <Gold.Version>
5.8.1

> <Gold.Id.Protein>
6NUR|6NUR_protein|mol2

> <Gold.PLP.Fitness>
46.9460

> <Gold.PLP.PLP>
-40.0394

> <Gold.PLP.part.hbond>
-2.7307

> <Gold.PLP.part.metal>
0.0000

> <Gold.PLP.part.buried>
-6.1221

> <Gold.PLP.part.nonpolar>
-32.4496

> <Gold.PLP.part.repulsive>
0.6505

> <Gold.PLP.ligand.clash>
0.0000

> <Gold.PLP.ligand.torsion>
2.0942

> <Gold.PLP.Chemscore.Hbond>
2.4955

> <Gold.PLP.Chemscore.CHOScore>
1.0000

> <Gold.PLP.Chemscore.Metal>
0.0000

> <Gold.Chemscore.Hbonds>
donor molecule, donor type, donor heavy atom, donor atom, acceptor molecule, acceptor atom, score
      L1  H     7    38       P1  7957  0.56
      L1  H    18    48       P1  7921  0.68
      P1  H  7989  7998       L1     7  0.26
      P1  H  8011  8017       L1     7  1.00
      L1  C    10    41       P1  7957  0.96

> <Gold.PLP.Chemscore.Internal.Correction>
0.6086

> <Gold.Rescore>
     Score         DG    S(hbond)    S(metal)    S(lipo)     H(rot)  DE(clash)    DE(int)     intcor
     10.82     -13.89       2.05        0.00      90.36       3.52       0.09       2.99       ----

> <Gold.Chemscore.Fitness>
10.8195

> <Gold.Chemscore.DG>
-13.8922

> <Gold.Chemscore.ZeroCoef>
-5.4800

> <Gold.Chemscore.Hbond>
2.0491

> <Gold.Chemscore.Metal>
0.0000

> <Gold.Chemscore.Lipo>
90.3573

> <Gold.Chemscore.Internal_Hbond>
0.0000

> <Gold.Chemscore.DEClash>
0.0870

> <Gold.Chemscore.DEInternal>
2.9857

> <Gold.Chemscore.Rot>
3.5170

> <Gold.Chemscore.Internal.Correction>
   9.000000E+99

> <Gold.Chemscore.Hbonds>
donor molecule, donor type, donor heavy atom, donor atom, acceptor molecule, acceptor atom, score
      L1  H     7    38       P1  7957  0.54
      L1  H    18    48       P1  7921  0.40
      P1  H  7989  7998       L1     7  0.24
      P1  H  8011  8017       L1     7  0.34

> <Gold.Chemscore.Hbond.Weighted>
-6.8440

> <Gold.Chemscore.Metal.Weighted>
-0.0000

> <Gold.Chemscore.Lipo.Weighted>
-10.5718

> <Gold.Chemscore.Internal_Hbond.Weighted>
0.0000

> <Gold.Chemscore.DEClash.Weighted>
0.0870

> <Gold.Chemscore.DEInternal.Weighted>
2.9857

> <Gold.Chemscore.Rot.Weighted>
9.0036

> <Gold.Chemscore.Internal.Correction.Weighted>
   9.000000E+99

> <Gold.Protein.RotatedTorsions>
[ 6907 6896 6895 6894 ] final -132.17 input  -60.11 | X-H torsion
[ 7974 7965 7964 7962 ] final  130.41 input  175.53 | X-H torsion
[ 8008 7997 7996 7995 ] final -150.05 input   59.86 | X-H torsion
[ 10167 10162 10161 10158 ] final -161.16 input  -65.29 | X-H torsion
[ 10718 10713 10712 10709 ] final  146.15 input   66.30 | X-H torsion
[ 10763 10752 10751 10750 ] final   47.45 input  -60.55 | X-H torsion
[ 11005 11000 10999 10996 ] final  178.19 input  -57.11 | X-H torsion

> <Gold.Protein.ActiveResidues>
 VAL166  LYS551  ARG553  GLY616  TRP617  ASP618  TYR619  PRO620  LYS621  CYS622 
 ASP623  PHE694  ASN695  SER759  ASP760  ASP761  ALA762  ILE779  LEU786  VAL792 
 PHE793  MET794  SER795  GLU796  ALA797  LYS798  CYS799  TRP800  GLU811  SER814 

> <Gold.Protein.RotatedAtoms>
  150.9593  133.6463  159.2757 H   0  0  0  0  0  0  0  0  0  0  0  0  # atno 6907 bound_to 6896
  151.3791  135.0935  159.9500 H   0  0  0  0  0  0  0  0  0  0  0  0  # atno 6908 bound_to 6896
  152.5141  133.9131  159.7552 H   0  0  0  0  0  0  0  0  0  0  0  0  # atno 6909 bound_to 6896
  145.0183  139.4156  143.5210 H   0  0  0  0  0  0  0  0  0  0  0  0  # atno 7974 bound_to 7965
  155.6174  140.0678  157.2688 H   0  0  0  0  0  0  0  0  0  0  0  0  # atno 8008 bound_to 7997
  154.4238  140.1790  156.1384 H   0  0  0  0  0  0  0  0  0  0  0  0  # atno 8009 bound_to 7997
  156.0036  140.3333  155.6874 H   0  0  0  0  0  0  0  0  0  0  0  0  # atno 8010 bound_to 7997
  139.6486  144.0126  152.2145 H   0  0  0  0  0  0  0  0  0  0  0  0  # atno 10167 bound_to 10162
  157.3367  131.0929  151.1117 H   0  0  0  0  0  0  0  0  0  0  0  0  # atno 10718 bound_to 10713
  152.9800  135.5976  154.3765 H   0  0  0  0  0  0  0  0  0  0  0  0  # atno 10763 bound_to 10752
  154.3434  135.2767  155.2412 H   0  0  0  0  0  0  0  0  0  0  0  0  # atno 10764 bound_to 10752
  154.4484  135.5996  153.6230 H   0  0  0  0  0  0  0  0  0  0  0  0  # atno 10765 bound_to 10752
  140.3924  134.6850  157.4515 H   0  0  0  0  0  0  0  0  0  0  0  0  # atno 11005 bound_to 11000
  146.3481  139.9666  142.8711 LP  0  0  0  0  0  0  0  0  0  0  0  0  # atno 17320 bound_to 7965
  145.1930  140.9820  143.4200 LP  0  0  0  0  0  0  0  0  0  0  0  0  # atno 17321 bound_to 7965
  139.9834  144.6412  150.7879 LP  0  0  0  0  0  0  0  0  0  0  0  0  # atno 17342 bound_to 10162
  140.7527  143.2994  151.3119 LP  0  0  0  0  0  0  0  0  0  0  0  0  # atno 17343 bound_to 10162
  157.2345  130.6540  149.5863 LP  0  0  0  0  0  0  0  0  0  0  0  0  # atno 17370 bound_to 10713
  155.9702  130.4588  150.6013 LP  0  0  0  0  0  0  0  0  0  0  0  0  # atno 17371 bound_to 10713
  140.0396  134.6286  155.8997 LP  0  0  0  0  0  0  0  0  0  0  0  0  # atno 17394 bound_to 11000
  141.1886  133.6563  156.5331 LP  0  0  0  0  0  0  0  0  0  0  0  0  # atno 17395 bound_to 11000

$$$$
