AV-unprocessed.smi:2378|AV-procd|sdf|9449|dock2
  -GOLD-   2272013 83D 1   1.00000     0.00000
 Structure written by MMmdl.
 40 41  0  0  0  0  0  0  0  0  1 V2000
  153.2120  141.7421  161.3893 C   0  0  0  0  0  0  0  0  0  0  0  0
  152.4835  142.8040  160.5926 C   0  0  0  0  0  0  0  0  0  0  0  0
  152.3419  144.1133  161.0905 C   0  0  0  0  0  0  0  0  0  0  0  0
  151.6522  145.0524  160.3017 C   0  0  0  0  0  0  0  0  0  0  0  0
  151.1228  144.7581  159.0956 N   0  0  0  0  0  0  0  0  0  0  0  0
  151.2533  143.5004  158.6048 C   0  0  0  0  0  0  0  0  0  0  0  0
  150.7396  143.0867  157.3466 N   0  0  0  0  0  0  0  0  0  0  0  0
  150.4583  141.8387  156.9319 C   0  0  0  0  0  0  0  0  0  0  0  0
  150.6271  140.8127  157.5919 O   0  0  0  0  0  0  0  0  0  0  0  0
  149.9651  141.8421  155.6849 N   0  0  0  0  0  0  0  0  0  0  0  0
  149.5618  140.6553  154.9394 C   0  0  0  0  0  0  0  0  0  0  0  0
  148.0806  140.7223  154.5299 C   0  0  0  0  0  0  0  0  0  0  0  0
  147.6265  139.4946  153.7248 C   0  0  2  0  0  0  0  0  0  0  0  0
  147.1454  139.8782  152.3117 C   0  0  0  0  0  0  0  0  0  0  0  0
  146.6314  138.6429  151.5634 C   0  0  0  0  0  0  0  0  0  0  0  0
  145.5771  137.9249  152.4122 C   0  0  0  0  0  0  0  0  0  0  0  0
  146.1258  137.6454  153.8204 C   0  0  0  0  0  0  0  0  0  0  0  0
  146.5554  138.8621  154.4237 O   0  0  0  0  0  0  0  0  0  0  0  0
  151.9316  142.4966  159.3326 C   0  0  0  0  0  0  0  0  0  0  0  0
  153.6292  142.1529  162.3092 H   0  0  0  0  0  0  0  0  0  0  0  0
  154.0292  141.3226  160.8020 H   0  0  0  0  0  0  0  0  0  0  0  0
  152.5288  140.9349  161.6545 H   0  0  0  0  0  0  0  0  0  0  0  0
  152.7490  144.3954  162.0504 H   0  0  0  0  0  0  0  0  0  0  0  0
  151.5223  146.0672  160.6474 H   0  0  0  0  0  0  0  0  0  0  0  0
  150.5589  143.8289  156.6873 H   0  0  0  0  0  0  0  0  0  0  0  0
  149.8601  142.7298  155.2157 H   0  0  0  0  0  0  0  0  0  0  0  0
  150.1967  140.5271  154.0611 H   0  0  0  0  0  0  0  0  0  0  0  0
  149.7347  139.7869  155.5755 H   0  0  0  0  0  0  0  0  0  0  0  0
  147.4565  140.8290  155.4182 H   0  0  0  0  0  0  0  0  0  0  0  0
  147.9168  141.6190  153.9304 H   0  0  0  0  0  0  0  0  0  0  0  0
  148.4637  138.7988  153.6446 H   0  0  0  0  0  0  0  0  0  0  0  0
  146.3475  140.6186  152.3829 H   0  0  0  0  0  0  0  0  0  0  0  0
  147.9547  140.3441  151.7486 H   0  0  0  0  0  0  0  0  0  0  0  0
  146.2136  138.9282  150.5976 H   0  0  0  0  0  0  0  0  0  0  0  0
  147.4618  137.9659  151.3595 H   0  0  0  0  0  0  0  0  0  0  0  0
  144.6825  138.5442  152.4873 H   0  0  0  0  0  0  0  0  0  0  0  0
  145.2750  136.9939  151.9319 H   0  0  0  0  0  0  0  0  0  0  0  0
  145.3503  137.1982  154.4426 H   0  0  0  0  0  0  0  0  0  0  0  0
  146.9525  136.9345  153.7824 H   0  0  0  0  0  0  0  0  0  0  0  0
  152.0290  141.4983  158.9305 H   0  0  0  0  0  0  0  0  0  0  0  0
  1  2  1  0  0  0  0
  1 20  1  0  0  0  0
  1 21  1  0  0  0  0
  1 22  1  0  0  0  0
  2 19  1  0  0  0  0
  2  3  2  0  0  0  0
  3  4  1  0  0  0  0
  3 23  1  0  0  0  0
  4  5  2  0  0  0  0
  4 24  1  0  0  0  0
  5  6  1  0  0  0  0
  6  7  1  0  0  0  0
  6 19  2  0  0  0  0
  7  8  1  0  0  0  0
  7 25  1  0  0  0  0
  8  9  2  0  0  0  0
  8 10  1  0  0  0  0
 10 11  1  0  0  0  0
 10 26  1  0  0  0  0
 11 12  1  0  0  0  0
 11 27  1  0  0  0  0
 11 28  1  0  0  0  0
 12 13  1  0  0  0  0
 12 29  1  0  0  0  0
 12 30  1  0  0  0  0
 13 18  1  0  0  0  0
 13 14  1  0  0  0  0
 13 31  1  0  0  0  0
 14 15  1  0  0  0  0
 14 32  1  0  0  0  0
 14 33  1  0  0  0  0
 15 16  1  0  0  0  0
 15 34  1  0  0  0  0
 15 35  1  0  0  0  0
 16 17  1  0  0  0  0
 16 36  1  0  0  0  0
 16 37  1  0  0  0  0
 17 18  1  0  0  0  0
 17 38  1  0  0  0  0
 17 39  1  0  0  0  0
 19 40  1  0  0  0  0
M  END
> <s_m_source_file>
AV-unprocessed.smi

> <i_m_source_file_index>
2378

> <i_lp_mmshare_version>
43012

> <i_f3d_flags>
0

> <s_epik_input>
W0NIM11jMVtjSF1bY0hdbmMoW2NIXTEpW05IXUMoPU8pW05IXVtDSDJdW0NIMl1bQ0BASF0yW0NIMl1bQ0gyXVtDSDJdW0NIMl1PMg==

> <s_epik_cmdline>
J2VwaWtfcHl0aG9uJywgJy1waCcsICc3LjAnLCAnLXRuJywgJzgnLCAnLW1hJywgJzIwMCcsICctbWV0YWxfYmluZGluZycsICctaW1hZScsICc8aW5maWxlLm1hZT4nLCAnLW9tYWUnLCAnPG91dGZpbGUubWFlPic=

> <r_lp_tautomer_probability>
1

> <r_epik_Ionization_Penalty>
8.60919e-05

> <r_epik_Ionization_Penalty_Charging>
0

> <r_epik_Ionization_Penalty_Neutral>
8.60919e-05

> <r_epik_State_Penalty>
-0

> <r_epik_Charging_Adjusted_Penalty>
0

> <i_epik_Tot_Q>
0

> <i_epik_Tot_abs_Q>
0

> <r_epik_Metal_State_Penalty>
-0

> <b_epik_Metal_Only>
0

> <s_lp_Force_Field>
OPLS_2005

> <r_lp_Energy>
11.3516

> <b_lp_Chiralities_Consistent>
1

> <s_lp_Variant>
AV-unprocessed.smi:2378-1

> <Gold.Version>
5.8.1

> <Gold.Id.Protein>
6NUR|6NUR_protein|mol2

> <Gold.PLP.Fitness>
43.7021

> <Gold.PLP.PLP>
-39.4666

> <Gold.PLP.part.hbond>
-2.0000

> <Gold.PLP.part.metal>
0.0000

> <Gold.PLP.part.buried>
-0.8047

> <Gold.PLP.part.nonpolar>
-37.2632

> <Gold.PLP.part.repulsive>
0.4246

> <Gold.PLP.ligand.clash>
0.0000

> <Gold.PLP.ligand.torsion>
0.8515

> <Gold.PLP.Chemscore.Hbond>
1.9760

> <Gold.PLP.Chemscore.CHOScore>
0.0000

> <Gold.PLP.Chemscore.Metal>
0.0000

> <Gold.Chemscore.Hbonds>
donor molecule, donor type, donor heavy atom, donor atom, acceptor molecule, acceptor atom, score
      L1  H     7    25       P1  8028  0.59
      L1  H    10    26       P1  8028  0.33

> <Gold.PLP.Chemscore.Internal.Correction>
0.0105

> <Gold.Rescore>
     Score         DG    S(hbond)    S(metal)    S(lipo)     H(rot)  DE(clash)    DE(int)     intcor
     17.91     -20.39       1.92        0.00     103.82       1.42       0.18       2.30       ----

> <Gold.Chemscore.Fitness>
17.9059

> <Gold.Chemscore.DG>
-20.3930

> <Gold.Chemscore.ZeroCoef>
-5.4800

> <Gold.Chemscore.Hbond>
1.9201

> <Gold.Chemscore.Metal>
0.0000

> <Gold.Chemscore.Lipo>
103.8233

> <Gold.Chemscore.Internal_Hbond>
0.0000

> <Gold.Chemscore.DEClash>
0.1820

> <Gold.Chemscore.DEInternal>
2.3050

> <Gold.Chemscore.Rot>
1.4248

> <Gold.Chemscore.Internal.Correction>
   9.000000E+99

> <Gold.Chemscore.Hbonds>
donor molecule, donor type, donor heavy atom, donor atom, acceptor molecule, acceptor atom, score
      L1  H     7    25       P1  8028  0.58
      L1  H    10    26       P1  8028  0.32

> <Gold.Chemscore.Hbond.Weighted>
-6.4132

> <Gold.Chemscore.Metal.Weighted>
-0.0000

> <Gold.Chemscore.Lipo.Weighted>
-12.1473

> <Gold.Chemscore.Internal_Hbond.Weighted>
0.0000

> <Gold.Chemscore.DEClash.Weighted>
0.1820

> <Gold.Chemscore.DEInternal.Weighted>
2.3050

> <Gold.Chemscore.Rot.Weighted>
3.6476

> <Gold.Chemscore.Internal.Correction.Weighted>
   9.000000E+99

> <Gold.Protein.RotatedTorsions>
[ 6907 6896 6895 6894 ] final   10.46 input  -60.11 | X-H torsion
[ 7974 7965 7964 7962 ] final  -75.02 input  175.53 | X-H torsion
[ 8008 7997 7996 7995 ] final  157.85 input   59.86 | X-H torsion
[ 10167 10162 10161 10158 ] final   59.18 input  -65.29 | X-H torsion
[ 10718 10713 10712 10709 ] final   76.78 input   66.30 | X-H torsion
[ 10763 10752 10751 10750 ] final  168.11 input  -60.55 | X-H torsion
[ 11005 11000 10999 10996 ] final -160.47 input  -57.11 | X-H torsion

> <Gold.Protein.ActiveResidues>
 VAL166  LYS551  ARG553  GLY616  TRP617  ASP618  TYR619  PRO620  LYS621  CYS622 
 ASP623  PHE694  ASN695  SER759  ASP760  ASP761  ALA762  ILE779  LEU786  VAL792 
 PHE793  MET794  SER795  GLU796  ALA797  LYS798  CYS799  TRP800  GLU811  SER814 

> <Gold.Protein.RotatedAtoms>
  151.7386  135.0859  160.0311 H   0  0  0  0  0  0  0  0  0  0  0  0  # atno 6907 bound_to 6896
  152.3494  133.6157  159.5942 H   0  0  0  0  0  0  0  0  0  0  0  0  # atno 6908 bound_to 6896
  150.7530  133.9514  159.3528 H   0  0  0  0  0  0  0  0  0  0  0  0  # atno 6909 bound_to 6896
  145.6314  140.9336  143.1085 H   0  0  0  0  0  0  0  0  0  0  0  0  # atno 7974 bound_to 7965
  156.2339  140.1874  156.7170 H   0  0  0  0  0  0  0  0  0  0  0  0  # atno 8008 bound_to 7997
  154.6071  140.0627  156.9473 H   0  0  0  0  0  0  0  0  0  0  0  0  # atno 8009 bound_to 7997
  155.2077  140.3297  155.4336 H   0  0  0  0  0  0  0  0  0  0  0  0  # atno 8010 bound_to 7997
  140.1792  144.4199  150.6623 H   0  0  0  0  0  0  0  0  0  0  0  0  # atno 10167 bound_to 10162
  157.6686  130.9791  150.1547 H   0  0  0  0  0  0  0  0  0  0  0  0  # atno 10718 bound_to 10713
  154.3638  135.2753  155.2305 H   0  0  0  0  0  0  0  0  0  0  0  0  # atno 10763 bound_to 10752
  154.4482  135.5937  153.6177 H   0  0  0  0  0  0  0  0  0  0  0  0  # atno 10764 bound_to 10752
  152.9842  135.6035  154.3861 H   0  0  0  0  0  0  0  0  0  0  0  0  # atno 10765 bound_to 10752
  140.6312  134.4649  157.5229 H   0  0  0  0  0  0  0  0  0  0  0  0  # atno 11005 bound_to 11000
  144.7192  139.8089  143.7388 LP  0  0  0  0  0  0  0  0  0  0  0  0  # atno 17320 bound_to 7965
  146.1353  139.4397  143.0143 LP  0  0  0  0  0  0  0  0  0  0  0  0  # atno 17321 bound_to 7965
  140.6531  143.2230  151.6031 LP  0  0  0  0  0  0  0  0  0  0  0  0  # atno 17342 bound_to 10162
  139.5304  144.2934  152.1133 LP  0  0  0  0  0  0  0  0  0  0  0  0  # atno 17343 bound_to 10162
  156.2338  130.3684  149.8415 LP  0  0  0  0  0  0  0  0  0  0  0  0  # atno 17370 bound_to 10713
  156.6234  130.8636  151.3480 LP  0  0  0  0  0  0  0  0  0  0  0  0  # atno 17371 bound_to 10713
  139.9115  134.8334  156.1511 LP  0  0  0  0  0  0  0  0  0  0  0  0  # atno 17394 bound_to 11000
  141.0674  133.6813  156.2072 LP  0  0  0  0  0  0  0  0  0  0  0  0  # atno 17395 bound_to 11000

$$$$
