AV-unprocessed.smi:1699|AV-procd|sdf|6818|dock6
  -GOLD-   22720 7593D 1   1.00000     0.00000
 Structure written by MMmdl.
 37 38  0  0  0  0  0  0  0  0  1 V2000
  147.7112  133.0032  152.3503 C   0  0  0  0  0  0  0  0  0  0  0  0
  146.3405  132.9247  151.6972 C   0  0  0  0  0  0  0  0  0  0  0  0
  145.8109  131.6626  151.3540 C   0  0  0  0  0  0  0  0  0  0  0  0
  144.5441  131.5913  150.7501 C   0  0  0  0  0  0  0  0  0  0  0  0
  143.8549  132.7933  150.5151 C   0  0  0  0  0  0  0  0  0  0  0  0
  144.3533  134.0034  150.8400 N   0  0  0  0  0  0  0  0  0  0  0  0
  145.5755  134.0902  151.4228 C   0  0  0  0  0  0  0  0  0  0  0  0
  146.1648  135.3330  151.7904 N   0  0  0  0  0  0  0  0  0  0  0  0
  145.5933  136.3793  152.4122 C   0  0  0  0  0  0  0  0  0  0  0  0
  144.4237  136.4296  152.7938 O   0  0  0  0  0  0  0  0  0  0  0  0
  146.4680  137.3849  152.5664 N   0  0  0  0  0  0  0  0  0  0  0  0
  146.1908  138.6728  153.2013 C   0  0  1  0  0  0  0  0  0  0  0  0
  145.7431  138.4216  154.6486 C   0  0  0  0  0  0  0  0  0  0  0  0
  147.4310  139.5891  153.1358 C   0  0  1  0  0  0  0  0  0  0  0  0
  147.2555  140.9675  153.7778 C   0  0  0  0  0  0  0  0  0  0  0  0
  148.6843  141.3438  154.0921 C   0  0  0  0  0  0  0  0  0  0  0  0
  149.2654  140.0051  154.5355 C   0  0  0  0  0  0  0  0  0  0  0  0
  148.5239  139.0044  153.8418 O   0  0  0  0  0  0  0  0  0  0  0  0
  148.1461  132.0118  152.4811 H   0  0  0  0  0  0  0  0  0  0  0  0
  147.6392  133.4701  153.3330 H   0  0  0  0  0  0  0  0  0  0  0  0
  148.3947  133.5900  151.7359 H   0  0  0  0  0  0  0  0  0  0  0  0
  146.3670  130.7576  151.5498 H   0  0  0  0  0  0  0  0  0  0  0  0
  144.1116  130.6406  150.4751 H   0  0  0  0  0  0  0  0  0  0  0  0
  142.8781  132.7839  150.0548 H   0  0  0  0  0  0  0  0  0  0  0  0
  147.1376  135.4382  151.5441 H   0  0  0  0  0  0  0  0  0  0  0  0
  147.4056  137.2509  152.2178 H   0  0  0  0  0  0  0  0  0  0  0  0
  145.3671  139.1699  152.6856 H   0  0  0  0  0  0  0  0  0  0  0  0
  145.4900  139.3558  155.1506 H   0  0  0  0  0  0  0  0  0  0  0  0
  146.5271  137.9344  155.2291 H   0  0  0  0  0  0  0  0  0  0  0  0
  144.8589  137.7842  154.6810 H   0  0  0  0  0  0  0  0  0  0  0  0
  147.7435  139.7222  152.0985 H   0  0  0  0  0  0  0  0  0  0  0  0
  146.7595  141.6841  153.1225 H   0  0  0  0  0  0  0  0  0  0  0  0
  146.6800  140.8924  154.7017 H   0  0  0  0  0  0  0  0  0  0  0  0
  149.1868  141.6931  153.1891 H   0  0  0  0  0  0  0  0  0  0  0  0
  148.7682  142.1191  154.8541 H   0  0  0  0  0  0  0  0  0  0  0  0
  150.3326  139.9270  154.3269 H   0  0  0  0  0  0  0  0  0  0  0  0
  149.1185  139.8622  155.6066 H   0  0  0  0  0  0  0  0  0  0  0  0
  1  2  1  0  0  0  0
  1 19  1  0  0  0  0
  1 20  1  0  0  0  0
  1 21  1  0  0  0  0
  2  7  1  0  0  0  0
  2  3  2  0  0  0  0
  3  4  1  0  0  0  0
  3 22  1  0  0  0  0
  4  5  2  0  0  0  0
  4 23  1  0  0  0  0
  5  6  1  0  0  0  0
  5 24  1  0  0  0  0
  6  7  2  0  0  0  0
  7  8  1  0  0  0  0
  8  9  1  0  0  0  0
  8 25  1  0  0  0  0
  9 10  2  0  0  0  0
  9 11  1  0  0  0  0
 11 12  1  0  0  0  0
 11 26  1  0  0  0  0
 12 13  1  0  0  0  0
 12 14  1  0  0  0  0
 12 27  1  0  0  0  0
 13 28  1  0  0  0  0
 13 29  1  0  0  0  0
 13 30  1  0  0  0  0
 14 18  1  0  0  0  0
 14 15  1  0  0  0  0
 14 31  1  0  0  0  0
 15 16  1  0  0  0  0
 15 32  1  0  0  0  0
 15 33  1  0  0  0  0
 16 17  1  0  0  0  0
 16 34  1  0  0  0  0
 16 35  1  0  0  0  0
 17 18  1  0  0  0  0
 17 36  1  0  0  0  0
 17 37  1  0  0  0  0
M  END
> <s_m_source_file>
AV-unprocessed.smi

> <i_m_source_file_index>
1699

> <i_lp_mmshare_version>
43012

> <i_f3d_flags>
0

> <s_epik_input>
W0NIM11jMVtjSF1bY0hdW2NIXW5jMVtOSF1DKD1PKVtOSF1bQ0BIXShbQ0gzXSlbQ0BASF0yW0NIMl1bQ0gyXVtDSDJdTzI=

> <s_epik_cmdline>
J2VwaWtfcHl0aG9uJywgJy1waCcsICc3LjAnLCAnLXRuJywgJzgnLCAnLW1hJywgJzIwMCcsICctbWV0YWxfYmluZGluZycsICctaW1hZScsICc8aW5maWxlLm1hZT4nLCAnLW9tYWUnLCAnPG91dGZpbGUubWFlPic=

> <r_lp_tautomer_probability>
1

> <r_epik_Ionization_Penalty>
5.52788e-05

> <r_epik_Ionization_Penalty_Charging>
0

> <r_epik_Ionization_Penalty_Neutral>
5.52788e-05

> <r_epik_State_Penalty>
-0

> <r_epik_Charging_Adjusted_Penalty>
0

> <i_epik_Tot_Q>
0

> <i_epik_Tot_abs_Q>
0

> <r_epik_Metal_State_Penalty>
-0

> <b_epik_Metal_Only>
0

> <s_lp_Force_Field>
OPLS_2005

> <r_lp_Energy>
20.3495

> <b_lp_Chiralities_Consistent>
1

> <s_lp_Variant>
AV-unprocessed.smi:1699-4

> <Gold.Version>
5.8.1

> <Gold.Id.Protein>
6NUR|6NUR_protein|mol2

> <Gold.PLP.Fitness>
38.8112

> <Gold.PLP.PLP>
-30.5456

> <Gold.PLP.part.hbond>
-2.0000

> <Gold.PLP.part.metal>
0.0000

> <Gold.PLP.part.buried>
-2.6880

> <Gold.PLP.part.nonpolar>
-27.1010

> <Gold.PLP.part.repulsive>
0.9997

> <Gold.PLP.ligand.clash>
0.0000

> <Gold.PLP.ligand.torsion>
0.3725

> <Gold.PLP.Chemscore.Hbond>
2.0000

> <Gold.PLP.Chemscore.CHOScore>
0.9999

> <Gold.PLP.Chemscore.Metal>
0.0000

> <Gold.Chemscore.Hbonds>
donor molecule, donor type, donor heavy atom, donor atom, acceptor molecule, acceptor atom, score
      L1  H     8    25       P1  7948  1.00
      L1  H    11    26       P1  7948  1.00
      L1  C     5    24       P1 10186  0.99

> <Gold.PLP.Chemscore.Internal.Correction>
0.0109

> <Gold.Rescore>
     Score         DG    S(hbond)    S(metal)    S(lipo)     H(rot)  DE(clash)    DE(int)     intcor
     17.32     -17.87       1.95        0.00      77.00       1.22       0.03       0.52       ----

> <Gold.Chemscore.Fitness>
17.3196

> <Gold.Chemscore.DG>
-17.8709

> <Gold.Chemscore.ZeroCoef>
-5.4800

> <Gold.Chemscore.Hbond>
1.9476

> <Gold.Chemscore.Metal>
0.0000

> <Gold.Chemscore.Lipo>
77.0005

> <Gold.Chemscore.Internal_Hbond>
0.0000

> <Gold.Chemscore.DEClash>
0.0318

> <Gold.Chemscore.DEInternal>
0.5196

> <Gold.Chemscore.Rot>
1.2200

> <Gold.Chemscore.Internal.Correction>
   9.000000E+99

> <Gold.Chemscore.Hbonds>
donor molecule, donor type, donor heavy atom, donor atom, acceptor molecule, acceptor atom, score
      L1  H     8    25       P1  7948  0.93
      L1  H    11    26       P1  7948  0.98

> <Gold.Chemscore.Hbond.Weighted>
-6.5050

> <Gold.Chemscore.Metal.Weighted>
-0.0000

> <Gold.Chemscore.Lipo.Weighted>
-9.0091

> <Gold.Chemscore.Internal_Hbond.Weighted>
0.0000

> <Gold.Chemscore.DEClash.Weighted>
0.0318

> <Gold.Chemscore.DEInternal.Weighted>
0.5196

> <Gold.Chemscore.Rot.Weighted>
3.1232

> <Gold.Chemscore.Internal.Correction.Weighted>
   9.000000E+99

> <Gold.Protein.RotatedTorsions>
[ 6907 6896 6895 6894 ] final  109.68 input  -60.11 | X-H torsion
[ 7974 7965 7964 7962 ] final  165.81 input  175.53 | X-H torsion
[ 8008 7997 7996 7995 ] final   28.57 input   59.86 | X-H torsion
[ 10167 10162 10161 10158 ] final  110.26 input  -65.29 | X-H torsion
[ 10718 10713 10712 10709 ] final  -47.29 input   66.30 | X-H torsion
[ 10763 10752 10751 10750 ] final  117.63 input  -60.55 | X-H torsion
[ 11005 11000 10999 10996 ] final  118.91 input  -57.11 | X-H torsion

> <Gold.Protein.ActiveResidues>
 VAL166  LYS551  ARG553  GLY616  TRP617  ASP618  TYR619  PRO620  LYS621  CYS622 
 ASP623  PHE694  ASN695  SER759  ASP760  ASP761  ALA762  ILE779  LEU786  VAL792 
 PHE793  MET794  SER795  GLU796  ALA797  LYS798  CYS799  TRP800  GLU811  SER814 

> <Gold.Protein.RotatedAtoms>
  152.5056  133.8909  159.7393 H   0  0  0  0  0  0  0  0  0  0  0  0  # atno 6907 bound_to 6896
  150.9348  133.6715  159.2810 H   0  0  0  0  0  0  0  0  0  0  0  0  # atno 6908 bound_to 6896
  151.4047  135.0981  159.9619 H   0  0  0  0  0  0  0  0  0  0  0  0  # atno 6909 bound_to 6896
  144.7488  139.8523  143.6373 H   0  0  0  0  0  0  0  0  0  0  0  0  # atno 7974 bound_to 7965
  155.0607  140.3190  155.4661 H   0  0  0  0  0  0  0  0  0  0  0  0  # atno 8008 bound_to 7997
  156.2813  140.2129  156.5679 H   0  0  0  0  0  0  0  0  0  0  0  0  # atno 8009 bound_to 7997
  154.7134  140.0496  157.0559 H   0  0  0  0  0  0  0  0  0  0  0  0  # atno 8010 bound_to 7997
  139.6702  144.7125  151.1702 H   0  0  0  0  0  0  0  0  0  0  0  0  # atno 10167 bound_to 10162
  156.2098  130.4160  149.9129 H   0  0  0  0  0  0  0  0  0  0  0  0  # atno 10718 bound_to 10713
  153.5553  135.3531  155.2777 H   0  0  0  0  0  0  0  0  0  0  0  0  # atno 10763 bound_to 10752
  154.8702  135.4123  154.2891 H   0  0  0  0  0  0  0  0  0  0  0  0  # atno 10764 bound_to 10752
  153.3626  135.7060  153.6769 H   0  0  0  0  0  0  0  0  0  0  0  0  # atno 10765 bound_to 10752
  139.9127  134.9624  156.7575 H   0  0  0  0  0  0  0  0  0  0  0  0  # atno 11005 bound_to 11000
  146.1407  139.4463  143.0111 LP  0  0  0  0  0  0  0  0  0  0  0  0  # atno 17320 bound_to 7965
  145.7023  141.0132  143.1498 LP  0  0  0  0  0  0  0  0  0  0  0  0  # atno 17321 bound_to 7965
  140.7615  143.5856  150.8849 LP  0  0  0  0  0  0  0  0  0  0  0  0  # atno 17342 bound_to 10162
  139.9521  143.6260  152.3026 LP  0  0  0  0  0  0  0  0  0  0  0  0  # atno 17343 bound_to 10162
  156.6811  130.8858  151.3576 LP  0  0  0  0  0  0  0  0  0  0  0  0  # atno 17370 bound_to 10713
  157.7032  130.9356  150.0850 LP  0  0  0  0  0  0  0  0  0  0  0  0  # atno 17371 bound_to 10713
  140.6724  133.9547  155.7864 LP  0  0  0  0  0  0  0  0  0  0  0  0  # atno 17394 bound_to 11000
  141.0568  134.0405  157.3712 LP  0  0  0  0  0  0  0  0  0  0  0  0  # atno 17395 bound_to 11000

$$$$
