AV-unprocessed.smi:2145|AV-procd|sdf|8737|dock7
  -GOLD-   2272011513D 1   1.00000     0.00000
 Structure written by MMmdl.
 45 47  0  0  0  0  0  0  0  0  2 V2000
  147.7869  131.4464  152.8893 C   0  0  0  0  0  0  0  0  0  0  0  0
  148.7092  131.5573  154.1021 C   0  0  0  0  0  0  0  0  0  0  0  0
  149.0347  130.5281  154.6933 O   0  0  0  0  0  0  0  0  0  0  0  0
  149.1680  132.9172  154.5051 C   0  0  0  0  0  0  0  0  0  0  0  0
  148.6952  134.0467  153.8006 C   0  0  0  0  0  0  0  0  0  0  0  0
  149.1123  135.3418  154.1613 C   0  0  0  0  0  0  0  0  0  0  0  0
  150.0067  135.5418  155.2308 C   0  0  0  0  0  0  0  0  0  0  0  0
  150.3598  136.8429  155.5163 O   0  0  0  0  0  0  0  0  0  0  0  0
  151.3078  137.0744  156.5498 C   0  0  0  0  0  0  0  0  0  0  0  0
  151.5044  138.5905  156.7015 C   0  0  1  0  0  0  0  0  0  0  0  0
  152.3396  139.0389  155.6527 O   0  0  0  0  0  0  0  0  0  0  0  0
  150.1669  139.3554  156.6461 C   0  0  0  0  0  0  0  0  0  0  0  0
  150.3073  140.7764  157.0037 N   0  0  0  0  0  0  0  0  0  0  0  0
  149.7972  141.8839  156.3933 C   0  0  0  0  0  0  0  0  0  0  0  0
  148.9452  141.9131  155.1693 C   0  0  0  0  0  0  0  0  0  0  0  0
  150.2110  142.9675  157.1085 N   0  3  0  0  0  0  0  0  0  0  0  0
  150.9916  142.5508  158.1876 C   0  0  0  0  0  0  0  0  0  0  0  0
  151.6270  143.2813  159.1871 C   0  0  0  0  0  0  0  0  0  0  0  0
  152.3474  142.5438  160.1492 C   0  0  0  0  0  0  0  0  0  0  0  0
  152.4154  141.1366  160.0952 C   0  0  0  0  0  0  0  0  0  0  0  0
  151.7676  140.4068  159.0767 C   0  0  0  0  0  0  0  0  0  0  0  0
  151.0582  141.1431  158.1277 C   0  0  0  0  0  0  0  0  0  0  0  0
  150.4841  134.4109  155.9379 C   0  0  0  0  0  0  0  0  0  0  0  0
  150.0688  133.1139  155.5777 C   0  0  0  0  0  0  0  0  0  0  0  0
  146.8618  131.9970  153.0606 H   0  0  0  0  0  0  0  0  0  0  0  0
  147.5322  130.4036  152.6983 H   0  0  0  0  0  0  0  0  0  0  0  0
  148.2753  131.8455  152.0002 H   0  0  0  0  0  0  0  0  0  0  0  0
  148.0067  133.9330  152.9755 H   0  0  0  0  0  0  0  0  0  0  0  0
  148.7392  136.1927  153.6101 H   0  0  0  0  0  0  0  0  0  0  0  0
  150.9948  136.6266  157.4951 H   0  0  0  0  0  0  0  0  0  0  0  0
  152.2537  136.6147  156.2585 H   0  0  0  0  0  0  0  0  0  0  0  0
  151.9923  138.7990  157.6545 H   0  0  0  0  0  0  0  0  0  0  0  0
  151.9585  138.7665  154.8314 H   0  0  0  0  0  0  0  0  0  0  0  0
  149.7006  139.2714  155.6642 H   0  0  0  0  0  0  0  0  0  0  0  0
  149.4603  138.9181  157.3525 H   0  0  0  0  0  0  0  0  0  0  0  0
  148.6427  142.9341  154.9360 H   0  0  0  0  0  0  0  0  0  0  0  0
  148.0482  141.3121  155.3196 H   0  0  0  0  0  0  0  0  0  0  0  0
  149.4962  141.5114  154.3189 H   0  0  0  0  0  0  0  0  0  0  0  0
  151.5740  144.3593  159.2317 H   0  0  0  0  0  0  0  0  0  0  0  0
  152.8563  143.0676  160.9455 H   0  0  0  0  0  0  0  0  0  0  0  0
  152.9746  140.6050  160.8516 H   0  0  0  0  0  0  0  0  0  0  0  0
  151.8210  139.3286  159.0503 H   0  0  0  0  0  0  0  0  0  0  0  0
  151.1733  134.5105  156.7625 H   0  0  0  0  0  0  0  0  0  0  0  0
  150.4578  132.2800  156.1427 H   0  0  0  0  0  0  0  0  0  0  0  0
  149.9737  143.9228  156.8738 H   0  0  0  0  0  0  0  0  0  0  0  0
  1  2  1  0  0  0  0
  1 25  1  0  0  0  0
  1 26  1  0  0  0  0
  1 27  1  0  0  0  0
  2  3  2  0  0  0  0
  2  4  1  0  0  0  0
  4 24  1  0  0  0  0
  4  5  2  0  0  0  0
  5  6  1  0  0  0  0
  5 28  1  0  0  0  0
  6  7  2  0  0  0  0
  6 29  1  0  0  0  0
  7  8  1  0  0  0  0
  7 23  1  0  0  0  0
  8  9  1  0  0  0  0
  9 10  1  0  0  0  0
  9 30  1  0  0  0  0
  9 31  1  0  0  0  0
 10 11  1  0  0  0  0
 10 12  1  0  0  0  0
 10 32  1  0  0  0  0
 11 33  1  0  0  0  0
 12 13  1  0  0  0  0
 12 34  1  0  0  0  0
 12 35  1  0  0  0  0
 13 22  1  0  0  0  0
 13 14  1  0  0  0  0
 14 15  1  0  0  0  0
 14 16  2  0  0  0  0
 15 36  1  0  0  0  0
 15 37  1  0  0  0  0
 15 38  1  0  0  0  0
 16 17  1  0  0  0  0
 16 45  1  0  0  0  0
 17 22  2  0  0  0  0
 17 18  1  0  0  0  0
 18 19  2  0  0  0  0
 18 39  1  0  0  0  0
 19 20  1  0  0  0  0
 19 40  1  0  0  0  0
 20 21  2  0  0  0  0
 20 41  1  0  0  0  0
 21 22  1  0  0  0  0
 21 42  1  0  0  0  0
 23 24  2  0  0  0  0
 23 43  1  0  0  0  0
 24 44  1  0  0  0  0
M  CHG  1  16   1
M  END
> <s_m_source_file>
AV-unprocessed.smi

> <i_m_source_file_index>
2145

> <i_lp_mmshare_version>
43012

> <i_f3d_flags>
0

> <s_epik_input>
W0NIM11DKD1PKWMxW2NIXVtjSF1jKFtjSF1bY0hdMSlPW0NIMl1bQ0BIXShbT0hdKVtDSDJdbihjKG4yKVtDSDNdKWMoYzIzKVtjSF1bY0hdW2NIXVtjSF0z

> <s_epik_cmdline>
J2VwaWtfcHl0aG9uJywgJy1waCcsICc3LjAnLCAnLXRuJywgJzgnLCAnLW1hJywgJzIwMCcsICctbWV0YWxfYmluZGluZycsICctaW1hZScsICc8aW5maWxlLm1hZT4nLCAnLW9tYWUnLCAnPG91dGZpbGUubWFlPic=

> <r_lp_tautomer_probability>
0.99995

> <r_epik_Ionization_Penalty>
1.05477

> <r_epik_Ionization_Penalty_Charging>
1.05477

> <r_epik_Ionization_Penalty_Neutral>
2.3993e-06

> <r_epik_State_Penalty>
1.10796

> <r_epik_Charging_Adjusted_Penalty>
2.16273

> <i_epik_Tot_Q>
1

> <i_epik_Tot_abs_Q>
1

> <r_epik_Metal_State_Penalty>
5.10164

> <b_epik_Metal_Only>
0

> <s_lp_Force_Field>
OPLS_2005

> <r_lp_Energy>
25.5273

> <b_lp_Chiralities_Consistent>
1

> <s_lp_Variant>
AV-unprocessed.smi:2145-4

> <Gold.Version>
5.8.1

> <Gold.Id.Protein>
6NUR|6NUR_protein|mol2

> <Gold.PLP.Fitness>
53.7647

> <Gold.PLP.PLP>
-45.4729

> <Gold.PLP.part.hbond>
-1.9219

> <Gold.PLP.part.metal>
0.0000

> <Gold.PLP.part.buried>
-4.6793

> <Gold.PLP.part.nonpolar>
-38.6638

> <Gold.PLP.part.repulsive>
0.1583

> <Gold.PLP.ligand.clash>
0.0000

> <Gold.PLP.ligand.torsion>
0.3721

> <Gold.PLP.Chemscore.Hbond>
3.0000

> <Gold.PLP.Chemscore.CHOScore>
0.0000

> <Gold.PLP.Chemscore.Metal>
0.0000

> <Gold.Chemscore.Hbonds>
donor molecule, donor type, donor heavy atom, donor atom, acceptor molecule, acceptor atom, score
      L1  H    16    45       P1  8028  1.47
      P1  H  7997  8008       L1    11  0.05

> <Gold.PLP.Chemscore.Internal.Correction>
0.0359

> <Gold.Rescore>
     Score         DG    S(hbond)    S(metal)    S(lipo)     H(rot)  DE(clash)    DE(int)     intcor
     17.62     -19.64       1.90        0.00     117.03       2.30       0.12       1.89       ----

> <Gold.Chemscore.Fitness>
17.6248

> <Gold.Chemscore.DG>
-19.6411

> <Gold.Chemscore.ZeroCoef>
-5.4800

> <Gold.Chemscore.Hbond>
1.9019

> <Gold.Chemscore.Metal>
0.0000

> <Gold.Chemscore.Lipo>
117.0309

> <Gold.Chemscore.Internal_Hbond>
0.0000

> <Gold.Chemscore.DEClash>
0.1214

> <Gold.Chemscore.DEInternal>
1.8948

> <Gold.Chemscore.Rot>
2.2984

> <Gold.Chemscore.Internal.Correction>
   9.000000E+99

> <Gold.Chemscore.Hbonds>
donor molecule, donor type, donor heavy atom, donor atom, acceptor molecule, acceptor atom, score
      L1  H    16    45       P1  8028  0.72
      P1  H  7997  8008       L1    11  0.08

> <Gold.Chemscore.Hbond.Weighted>
-6.3523

> <Gold.Chemscore.Metal.Weighted>
-0.0000

> <Gold.Chemscore.Lipo.Weighted>
-13.6926

> <Gold.Chemscore.Internal_Hbond.Weighted>
0.0000

> <Gold.Chemscore.DEClash.Weighted>
0.1214

> <Gold.Chemscore.DEInternal.Weighted>
1.8948

> <Gold.Chemscore.Rot.Weighted>
5.8839

> <Gold.Chemscore.Internal.Correction.Weighted>
   9.000000E+99

> <Gold.Protein.RotatedTorsions>
[ 6907 6896 6895 6894 ] final  -97.41 input  -60.11 | X-H torsion
[ 7974 7965 7964 7962 ] final  108.09 input  175.53 | X-H torsion
[ 8008 7997 7996 7995 ] final  -15.96 input   59.86 | X-H torsion
[ 10167 10162 10161 10158 ] final  101.07 input  -65.29 | X-H torsion
[ 10718 10713 10712 10709 ] final -173.22 input   66.30 | X-H torsion
[ 10763 10752 10751 10750 ] final  109.87 input  -60.55 | X-H torsion
[ 11005 11000 10999 10996 ] final  114.70 input  -57.11 | X-H torsion

> <Gold.Protein.ActiveResidues>
 VAL166  LYS551  ARG553  GLY616  TRP617  ASP618  TYR619  PRO620  LYS621  CYS622 
 ASP623  PHE694  ASN695  SER759  ASP760  ASP761  ALA762  ILE779  LEU786  VAL792 
 PHE793  MET794  SER795  GLU796  ALA797  LYS798  CYS799  TRP800  GLU811  SER814 

> <Gold.Protein.RotatedAtoms>
  150.7015  134.1353  159.4084 H   0  0  0  0  0  0  0  0  0  0  0  0  # atno 6907 bound_to 6896
  151.9338  135.0242  160.0540 H   0  0  0  0  0  0  0  0  0  0  0  0  # atno 6908 bound_to 6896
  152.2153  133.4906  159.5169 H   0  0  0  0  0  0  0  0  0  0  0  0  # atno 6909 bound_to 6896
  145.2852  139.2619  143.3894 H   0  0  0  0  0  0  0  0  0  0  0  0  # atno 7974 bound_to 7965
  154.5090  140.2182  155.9194 H   0  0  0  0  0  0  0  0  0  0  0  0  # atno 8008 bound_to 7997
  156.1529  140.3158  155.8644 H   0  0  0  0  0  0  0  0  0  0  0  0  # atno 8009 bound_to 7997
  155.3903  140.0478  157.3031 H   0  0  0  0  0  0  0  0  0  0  0  0  # atno 8010 bound_to 7997
  139.7471  144.6995  151.0488 H   0  0  0  0  0  0  0  0  0  0  0  0  # atno 10167 bound_to 10162
  156.7672  130.9435  151.3119 H   0  0  0  0  0  0  0  0  0  0  0  0  # atno 10718 bound_to 10713
  153.4409  135.3766  155.2227 H   0  0  0  0  0  0  0  0  0  0  0  0  # atno 10763 bound_to 10752
  154.8754  135.3862  154.4154 H   0  0  0  0  0  0  0  0  0  0  0  0  # atno 10764 bound_to 10752
  153.4700  135.7087  153.6063 H   0  0  0  0  0  0  0  0  0  0  0  0  # atno 10765 bound_to 10752
  139.8988  134.9572  156.6933 H   0  0  0  0  0  0  0  0  0  0  0  0  # atno 11005 bound_to 11000
  146.3203  140.3329  142.8642 LP  0  0  0  0  0  0  0  0  0  0  0  0  # atno 17320 bound_to 7965
  144.9219  140.7878  143.5743 LP  0  0  0  0  0  0  0  0  0  0  0  0  # atno 17321 bound_to 7965
  140.7793  143.4854  150.9963 LP  0  0  0  0  0  0  0  0  0  0  0  0  # atno 17342 bound_to 10162
  139.8541  143.7399  152.3177 LP  0  0  0  0  0  0  0  0  0  0  0  0  # atno 17343 bound_to 10162
  157.6708  130.9049  150.0035 LP  0  0  0  0  0  0  0  0  0  0  0  0  # atno 17370 bound_to 10713
  156.1301  130.3643  149.9745 LP  0  0  0  0  0  0  0  0  0  0  0  0  # atno 17371 bound_to 10713
  140.7208  133.9142  155.8145 LP  0  0  0  0  0  0  0  0  0  0  0  0  # atno 17394 bound_to 11000
  141.0229  134.0864  157.4101 LP  0  0  0  0  0  0  0  0  0  0  0  0  # atno 17395 bound_to 11000

$$$$
