AV-unprocessed.smi:198|AV-procd|sdf|1556|dock5
  -GOLD-   2262019423D 1   1.00000     0.00000
 Structure written by MMmdl.
 59 63  0  0  0  0  0  0  0  0  2 V2000
  149.8586  144.7463  159.9166 C   0  0  0  0  0  0  0  0  0  0  0  0
  150.5087  143.4791  159.5185 N   0  3  1  0  0  0  0  0  0  0  0  0
  149.6336  142.6420  158.6620 C   0  0  0  0  0  0  0  0  0  0  0  0
  150.2780  141.2750  158.3892 C   0  0  0  0  0  0  0  0  0  0  0  0
  151.6712  141.4418  157.7450 C   0  0  1  0  0  0  0  0  0  0  0  0
  152.5643  142.3703  158.6013 C   0  0  2  0  0  0  0  0  0  0  0  0
  153.0759  141.6622  159.8732 C   0  0  0  0  0  0  0  0  0  0  0  0
  153.7709  140.3434  159.5065 C   0  0  0  0  0  0  0  0  0  0  0  0
  152.8465  139.4426  158.6735 C   0  0  0  0  0  0  0  0  0  0  0  0
  152.3398  140.1576  157.4988 N   0  0  0  0  0  0  0  0  0  0  0  0
  151.8224  139.4132  156.4864 C   0  0  0  0  0  0  0  0  0  0  0  0
  151.3656  140.0294  155.3632 N   0  0  0  0  0  0  0  0  0  0  0  0
  150.8758  139.3106  154.3493 C   0  0  0  0  0  0  0  0  0  0  0  0
  150.7541  137.9861  154.2488 N   0  0  0  0  0  0  0  0  0  0  0  0
  151.2035  137.3597  155.3739 C   0  0  0  0  0  0  0  0  0  0  0  0
  151.7437  137.9918  156.5300 C   0  0  0  0  0  0  0  0  0  0  0  0
  152.0724  137.0329  157.4807 N   0  0  0  0  0  0  0  0  0  0  0  0
  151.7518  135.9005  156.9171 C   0  0  0  0  0  0  0  0  0  0  0  0
  151.2391  136.0017  155.6429 N   0  0  0  0  0  0  0  0  0  0  0  0
  150.7950  134.9253  154.8021 C   0  0  0  0  0  0  0  0  0  0  0  0
  149.3192  134.7908  154.4255 C   0  0  0  0  0  0  0  0  0  0  0  0
  149.4260  133.2508  154.5051 C   0  0  0  0  0  0  0  0  0  0  0  0
  148.3012  132.5613  155.2922 C   0  0  0  0  0  0  0  0  0  0  0  0
  147.0883  132.5629  154.5668 O   0  0  0  0  0  0  0  0  0  0  0  0
  149.5853  132.4833  153.1733 C   0  0  0  0  0  0  0  0  0  0  0  0
  148.4155  132.4929  152.3808 O   0  0  0  0  0  0  0  0  0  0  0  0
  150.7222  133.4831  155.3150 C   0  0  0  0  0  0  0  0  0  0  0  0
  151.8442  143.6996  158.9079 C   0  0  0  0  0  0  0  0  0  0  0  0
  149.6546  145.3716  159.0462 H   0  0  0  0  0  0  0  0  0  0  0  0
  150.4958  145.3082  160.6001 H   0  0  0  0  0  0  0  0  0  0  0  0
  148.9147  144.5519  160.4272 H   0  0  0  0  0  0  0  0  0  0  0  0
  148.6710  142.4965  159.1535 H   0  0  0  0  0  0  0  0  0  0  0  0
  149.4356  143.1594  157.7218 H   0  0  0  0  0  0  0  0  0  0  0  0
  150.3468  140.7161  159.3226 H   0  0  0  0  0  0  0  0  0  0  0  0
  149.6281  140.6942  157.7337 H   0  0  0  0  0  0  0  0  0  0  0  0
  151.5238  141.9493  156.7928 H   0  0  0  0  0  0  0  0  0  0  0  0
  153.4451  142.6153  158.0053 H   0  0  0  0  0  0  0  0  0  0  0  0
  153.7727  142.3080  160.4086 H   0  0  0  0  0  0  0  0  0  0  0  0
  152.2524  141.4624  160.5592 H   0  0  0  0  0  0  0  0  0  0  0  0
  154.6779  140.5555  158.9388 H   0  0  0  0  0  0  0  0  0  0  0  0
  154.0864  139.8208  160.4099 H   0  0  0  0  0  0  0  0  0  0  0  0
  153.4019  138.5576  158.3597 H   0  0  0  0  0  0  0  0  0  0  0  0
  152.0116  139.0942  159.2824 H   0  0  0  0  0  0  0  0  0  0  0  0
  150.5356  139.8777  153.4953 H   0  0  0  0  0  0  0  0  0  0  0  0
  151.8820  134.9551  157.4231 H   0  0  0  0  0  0  0  0  0  0  0  0
  151.4092  134.9626  153.9019 H   0  0  0  0  0  0  0  0  0  0  0  0
  148.6582  135.2101  155.1860 H   0  0  0  0  0  0  0  0  0  0  0  0
  149.0720  135.1818  153.4380 H   0  0  0  0  0  0  0  0  0  0  0  0
  148.5644  131.5323  155.5398 H   0  0  0  0  0  0  0  0  0  0  0  0
  148.1208  133.0696  156.2399 H   0  0  0  0  0  0  0  0  0  0  0  0
  146.3710  132.5976  155.1812 H   0  0  0  0  0  0  0  0  0  0  0  0
  150.3911  132.9115  152.5762 H   0  0  0  0  0  0  0  0  0  0  0  0
  149.8491  131.4403  153.3500 H   0  0  0  0  0  0  0  0  0  0  0  0
  148.5766  131.9842  151.6008 H   0  0  0  0  0  0  0  0  0  0  0  0
  151.5659  132.8607  155.0146 H   0  0  0  0  0  0  0  0  0  0  0  0
  150.5648  133.4191  156.3920 H   0  0  0  0  0  0  0  0  0  0  0  0
  151.7221  144.2717  157.9867 H   0  0  0  0  0  0  0  0  0  0  0  0
  152.4586  144.3079  159.5730 H   0  0  0  0  0  0  0  0  0  0  0  0
  150.6636  142.9572  160.3694 H   0  0  0  0  0  0  0  0  0  0  0  0
  1  2  1  0  0  0  0
  1 29  1  0  0  0  0
  1 30  1  0  0  0  0
  1 31  1  0  0  0  0
  2 28  1  0  0  0  0
  2  3  1  0  0  0  0
  2 59  1  0  0  0  0
  3  4  1  0  0  0  0
  3 32  1  0  0  0  0
  3 33  1  0  0  0  0
  4  5  1  0  0  0  0
  4 34  1  0  0  0  0
  4 35  1  0  0  0  0
  5 10  1  0  0  0  0
  5  6  1  0  0  0  0
  5 36  1  0  0  0  0
  6  7  1  0  0  0  0
  6 28  1  0  0  0  0
  6 37  1  0  0  0  0
  7  8  1  0  0  0  0
  7 38  1  0  0  0  0
  7 39  1  0  0  0  0
  8  9  1  0  0  0  0
  8 40  1  0  0  0  0
  8 41  1  0  0  0  0
  9 10  1  0  0  0  0
  9 42  1  0  0  0  0
  9 43  1  0  0  0  0
 10 11  1  0  0  0  0
 11 16  1  0  0  0  0
 11 12  2  0  0  0  0
 12 13  1  0  0  0  0
 13 14  2  0  0  0  0
 13 44  1  0  0  0  0
 14 15  1  0  0  0  0
 15 19  1  0  0  0  0
 15 16  2  0  0  0  0
 16 17  1  0  0  0  0
 17 18  2  0  0  0  0
 18 19  1  0  0  0  0
 18 45  1  0  0  0  0
 19 20  1  0  0  0  0
 20 27  1  0  0  0  0
 20 21  1  0  0  0  0
 20 46  1  0  0  0  0
 21 22  1  0  0  0  0
 21 47  1  0  0  0  0
 21 48  1  0  0  0  0
 22 23  1  0  0  0  0
 22 25  1  0  0  0  0
 22 27  1  0  0  0  0
 23 24  1  0  0  0  0
 23 49  1  0  0  0  0
 23 50  1  0  0  0  0
 24 51  1  0  0  0  0
 25 26  1  0  0  0  0
 25 52  1  0  0  0  0
 25 53  1  0  0  0  0
 26 54  1  0  0  0  0
 27 55  1  0  0  0  0
 27 56  1  0  0  0  0
 28 57  1  0  0  0  0
 28 58  1  0  0  0  0
M  CHG  1   2   1
M  END
> <s_m_source_file>
AV-unprocessed.smi

> <i_m_source_file_index>
198

> <i_lp_mmshare_version>
43012

> <i_f3d_flags>
0

> <s_epik_input>
W0NIMl0xW0NIMl1OKFtDSDNdKVtDSDJdW0NAQEhdKFtDQEhdMTIpW0NIMl1bQ0gyXVtDSDJdTjJjKG5bY0hdbjMpYyhjMzQpbltjSF1uNFtDSF0oW0NIMl01KVtDSDJdQzUoW0NIMl1bT0hdKVtDSDJdW09IXQ==

> <s_epik_cmdline>
J2VwaWtfcHl0aG9uJywgJy1waCcsICc3LjAnLCAnLXRuJywgJzgnLCAnLW1hJywgJzIwMCcsICctbWV0YWxfYmluZGluZycsICctaW1hZScsICc8aW5maWxlLm1hZT4nLCAnLW9tYWUnLCAnPG91dGZpbGUubWFlPic=

> <r_lp_tautomer_probability>
1

> <r_epik_Ionization_Penalty>
0.00239938

> <r_epik_Ionization_Penalty_Charging>
0.00138697

> <r_epik_Ionization_Penalty_Neutral>
0.00101241

> <r_epik_State_Penalty>
-0

> <r_epik_Charging_Adjusted_Penalty>
0.00138697

> <i_epik_Tot_Q>
1

> <i_epik_Tot_abs_Q>
1

> <r_epik_Metal_State_Penalty>
-0

> <b_epik_Metal_Only>
0

> <s_lp_Force_Field>
OPLS_2005

> <r_lp_Energy>
58.4616

> <b_lp_Chiralities_Consistent>
1

> <s_lp_Variant>
AV-unprocessed.smi:198-5

> <Gold.Version>
5.8.1

> <Gold.Id.Protein>
6NUR|6NUR_protein|mol2

> <Gold.PLP.Fitness>
45.8933

> <Gold.PLP.PLP>
-39.6885

> <Gold.PLP.part.hbond>
-2.5581

> <Gold.PLP.part.metal>
0.0000

> <Gold.PLP.part.buried>
-4.8970

> <Gold.PLP.part.nonpolar>
-31.4715

> <Gold.PLP.part.repulsive>
0.3218

> <Gold.PLP.ligand.clash>
0.0000

> <Gold.PLP.ligand.torsion>
0.5259

> <Gold.PLP.Chemscore.Hbond>
1.1154

> <Gold.PLP.Chemscore.CHOScore>
1.0000

> <Gold.PLP.Chemscore.Metal>
0.0000

> <Gold.Chemscore.Hbonds>
donor molecule, donor type, donor heavy atom, donor atom, acceptor molecule, acceptor atom, score
      L1  H    26    54       P1 10747  1.00
      P1  H  7997  8010       L1    10  0.13
      L1  C    13    44       P1  7957  1.00

> <Gold.PLP.Chemscore.Internal.Correction>
0.9103

> <Gold.Rescore>
     Score         DG    S(hbond)    S(metal)    S(lipo)     H(rot)  DE(clash)    DE(int)     intcor
     10.30     -12.92       0.96        0.00     103.54       3.08       0.75       1.87       ----

> <Gold.Chemscore.Fitness>
10.3011

> <Gold.Chemscore.DG>
-12.9218

> <Gold.Chemscore.ZeroCoef>
-5.4800

> <Gold.Chemscore.Hbond>
0.9605

> <Gold.Chemscore.Metal>
0.0000

> <Gold.Chemscore.Lipo>
103.5370

> <Gold.Chemscore.Internal_Hbond>
0.0000

> <Gold.Chemscore.DEClash>
0.7510

> <Gold.Chemscore.DEInternal>
1.8697

> <Gold.Chemscore.Rot>
3.0781

> <Gold.Chemscore.Internal.Correction>
   9.000000E+99

> <Gold.Chemscore.Hbonds>
donor molecule, donor type, donor heavy atom, donor atom, acceptor molecule, acceptor atom, score
      L1  H    26    54       P1 10747  1.00

> <Gold.Chemscore.Hbond.Weighted>
-3.2080

> <Gold.Chemscore.Metal.Weighted>
-0.0000

> <Gold.Chemscore.Lipo.Weighted>
-12.1138

> <Gold.Chemscore.Internal_Hbond.Weighted>
0.0000

> <Gold.Chemscore.DEClash.Weighted>
0.7510

> <Gold.Chemscore.DEInternal.Weighted>
1.8697

> <Gold.Chemscore.Rot.Weighted>
7.8800

> <Gold.Chemscore.Internal.Correction.Weighted>
   9.000000E+99

> <Gold.Protein.RotatedTorsions>
[ 6907 6896 6895 6894 ] final  -54.60 input  -60.11 | X-H torsion
[ 7974 7965 7964 7962 ] final -100.10 input  175.53 | X-H torsion
[ 8008 7997 7996 7995 ] final   53.45 input   59.86 | X-H torsion
[ 10167 10162 10161 10158 ] final -109.94 input  -65.29 | X-H torsion
[ 10718 10713 10712 10709 ] final -113.72 input   66.30 | X-H torsion
[ 10763 10752 10751 10750 ] final  -94.20 input  -60.55 | X-H torsion
[ 11005 11000 10999 10996 ] final   70.60 input  -57.11 | X-H torsion

> <Gold.Protein.ActiveResidues>
 VAL166  LYS551  ARG553  GLY616  TRP617  ASP618  TYR619  PRO620  LYS621  CYS622 
 ASP623  PHE694  ASN695  SER759  ASP760  ASP761  ALA762  ILE779  LEU786  VAL792 
 PHE793  MET794  SER795  GLU796  ALA797  LYS798  CYS799  TRP800  GLU811  SER814 

> <Gold.Protein.RotatedAtoms>
  150.8324  134.7583  159.6864 H   0  0  0  0  0  0  0  0  0  0  0  0  # atno 6907 bound_to 6896
  152.4426  134.5556  159.9889 H   0  0  0  0  0  0  0  0  0  0  0  0  # atno 6908 bound_to 6896
  151.5714  133.3352  159.3026 H   0  0  0  0  0  0  0  0  0  0  0  0  # atno 6909 bound_to 6896
  145.2990  140.9372  143.2834 H   0  0  0  0  0  0  0  0  0  0  0  0  # atno 7974 bound_to 7965
  155.4685  140.3464  155.4322 H   0  0  0  0  0  0  0  0  0  0  0  0  # atno 8008 bound_to 7997
  156.1116  140.1462  156.9360 H   0  0  0  0  0  0  0  0  0  0  0  0  # atno 8009 bound_to 7997
  154.4760  140.0885  156.7242 H   0  0  0  0  0  0  0  0  0  0  0  0  # atno 8010 bound_to 7997
  140.1498  143.4208  152.1503 H   0  0  0  0  0  0  0  0  0  0  0  0  # atno 10167 bound_to 10162
  156.0785  130.5988  150.8680 H   0  0  0  0  0  0  0  0  0  0  0  0  # atno 10718 bound_to 10713
  154.7032  135.5166  153.8557 H   0  0  0  0  0  0  0  0  0  0  0  0  # atno 10763 bound_to 10752
  153.0720  135.6604  154.0235 H   0  0  0  0  0  0  0  0  0  0  0  0  # atno 10764 bound_to 10752
  154.0090  135.3004  155.3374 H   0  0  0  0  0  0  0  0  0  0  0  0  # atno 10765 bound_to 10752
  139.9589  134.7096  156.0691 H   0  0  0  0  0  0  0  0  0  0  0  0  # atno 11005 bound_to 11000
  144.9110  139.4529  143.6587 LP  0  0  0  0  0  0  0  0  0  0  0  0  # atno 17320 bound_to 7965
  146.3159  139.7917  142.8984 LP  0  0  0  0  0  0  0  0  0  0  0  0  # atno 17321 bound_to 7965
  139.5431  144.7274  151.4669 LP  0  0  0  0  0  0  0  0  0  0  0  0  # atno 17342 bound_to 10162
  140.6709  143.8295  150.6998 LP  0  0  0  0  0  0  0  0  0  0  0  0  # atno 17343 bound_to 10162
  157.5891  131.0945  150.9148 LP  0  0  0  0  0  0  0  0  0  0  0  0  # atno 17370 bound_to 10713
  156.9328  130.5356  149.5279 LP  0  0  0  0  0  0  0  0  0  0  0  0  # atno 17371 bound_to 10713
  141.1264  133.6598  156.3347 LP  0  0  0  0  0  0  0  0  0  0  0  0  # atno 17394 bound_to 11000
  140.5546  134.5994  157.5417 LP  0  0  0  0  0  0  0  0  0  0  0  0  # atno 17395 bound_to 11000

$$$$
