AV-unprocessed.smi:2218|AV-procd|sdf|8976|dock7
  -GOLD-   2272012193D 1   1.00000     0.00000
 Structure written by MMmdl.
 32 32  0  0  0  0  0  0  0  0  2 V2000
  153.3861  142.1649  160.6937 C   0  0  0  0  0  0  0  0  0  0  0  0
  152.5346  142.5581  159.5357 C   0  0  0  0  0  0  0  0  0  0  0  0
  151.6980  141.7213  158.9166 N   0  0  0  0  0  0  0  0  0  0  0  0
  151.0161  142.3277  157.8559 C   0  0  0  0  0  0  0  0  0  0  0  0
  150.0303  141.5338  157.0448 C   0  0  0  0  0  0  0  0  0  0  0  0
  150.7179  140.6073  156.0327 C   0  0  0  0  0  0  0  0  0  0  0  0
  151.9436  140.4836  156.0050 O   0  0  0  0  0  0  0  0  0  0  0  0
  149.8990  139.9626  155.1875 N   0  0  0  0  0  0  0  0  0  0  0  0
  150.3292  139.0692  154.1184 C   0  0  0  0  0  0  0  0  0  0  0  0
  150.7866  137.7113  154.6751 C   0  0  0  0  0  0  0  0  0  0  0  0
  149.6168  136.8578  155.1842 C   0  0  0  0  0  0  0  0  0  0  0  0
  150.0475  135.4140  155.5106 C   0  0  0  0  0  0  0  0  0  0  0  0
  150.8268  135.2963  156.8272 C   0  0  0  0  0  0  0  0  0  0  0  0
  150.1670  135.4621  157.8762 O   0  0  0  0  0  0  0  0  0  0  0  0
  152.0511  135.0412  156.7812 O   0  5  0  0  0  0  0  0  0  0  0  0
  151.3463  143.6503  157.6876 C   0  0  0  0  0  0  0  0  0  0  0  0
  152.5362  144.1764  158.8459 S   0  0  0  0  0  0  0  0  0  0  0  0
  153.0380  141.2258  161.1249 H   0  0  0  0  0  0  0  0  0  0  0  0
  153.3496  142.9363  161.4629 H   0  0  0  0  0  0  0  0  0  0  0  0
  154.4195  142.0405  160.3697 H   0  0  0  0  0  0  0  0  0  0  0  0
  149.3951  140.9328  157.6968 H   0  0  0  0  0  0  0  0  0  0  0  0
  149.3649  142.2055  156.5012 H   0  0  0  0  0  0  0  0  0  0  0  0
  148.9055  140.1173  155.2786 H   0  0  0  0  0  0  0  0  0  0  0  0
  149.5275  138.9363  153.3898 H   0  0  0  0  0  0  0  0  0  0  0  0
  151.1527  139.5493  153.5892 H   0  0  0  0  0  0  0  0  0  0  0  0
  151.3218  137.1637  153.8982 H   0  0  0  0  0  0  0  0  0  0  0  0
  151.4968  137.8674  155.4881 H   0  0  0  0  0  0  0  0  0  0  0  0
  149.1929  137.3271  156.0733 H   0  0  0  0  0  0  0  0  0  0  0  0
  148.8281  136.8467  154.4303 H   0  0  0  0  0  0  0  0  0  0  0  0
  149.1687  134.7711  155.5729 H   0  0  0  0  0  0  0  0  0  0  0  0
  150.6696  135.0202  154.7061 H   0  0  0  0  0  0  0  0  0  0  0  0
  150.9673  144.3415  156.9498 H   0  0  0  0  0  0  0  0  0  0  0  0
  1  2  1  0  0  0  0
  1 18  1  0  0  0  0
  1 19  1  0  0  0  0
  1 20  1  0  0  0  0
  2 17  1  0  0  0  0
  2  3  2  0  0  0  0
  3  4  1  0  0  0  0
  4  5  1  0  0  0  0
  4 16  2  0  0  0  0
  5  6  1  0  0  0  0
  5 21  1  0  0  0  0
  5 22  1  0  0  0  0
  6  7  2  0  0  0  0
  6  8  1  0  0  0  0
  8  9  1  0  0  0  0
  8 23  1  0  0  0  0
  9 10  1  0  0  0  0
  9 24  1  0  0  0  0
  9 25  1  0  0  0  0
 10 11  1  0  0  0  0
 10 26  1  0  0  0  0
 10 27  1  0  0  0  0
 11 12  1  0  0  0  0
 11 28  1  0  0  0  0
 11 29  1  0  0  0  0
 12 13  1  0  0  0  0
 12 30  1  0  0  0  0
 12 31  1  0  0  0  0
 13 14  2  0  0  0  0
 13 15  1  0  0  0  0
 16 17  1  0  0  0  0
 16 32  1  0  0  0  0
M  CHG  1  15  -1
M  END
> <s_m_source_file>
AV-unprocessed.smi

> <i_m_source_file_index>
2218

> <i_lp_mmshare_version>
43012

> <i_f3d_flags>
0

> <s_epik_input>
W0NIM11jMW5jKFtjSF1zMSlbQ0gyXUMoPU8pW05IXVtDSDJdW0NIMl1bQ0gyXVtDSDJdQyg9TylbT0hd

> <s_epik_cmdline>
J2VwaWtfcHl0aG9uJywgJy1waCcsICc3LjAnLCAnLXRuJywgJzgnLCAnLW1hJywgJzIwMCcsICctbWV0YWxfYmluZGluZycsICctaW1hZScsICc8aW5maWxlLm1hZT4nLCAnLW9tYWUnLCAnPG91dGZpbGUubWFlPic=

> <r_epik_Ionization_Penalty>
0.0039764

> <r_epik_Ionization_Penalty_Charging>
0.00392012

> <r_epik_Ionization_Penalty_Neutral>
5.62812e-05

> <r_epik_State_Penalty>
0.00280293

> <r_epik_Charging_Adjusted_Penalty>
0.00672305

> <i_epik_Tot_Q>
-1

> <i_epik_Tot_abs_Q>
1

> <r_epik_Metal_State_Penalty>
-0

> <b_epik_Metal_Only>
0

> <s_lp_Force_Field>
OPLS_2005

> <r_lp_Energy>
1.59535

> <b_lp_Chiralities_Consistent>
1

> <s_lp_Variant>
AV-unprocessed.smi:2218-1

> <Gold.Version>
5.8.1

> <Gold.Id.Protein>
6NUR|6NUR_protein|mol2

> <Gold.PLP.Fitness>
45.7007

> <Gold.PLP.PLP>
-33.0434

> <Gold.PLP.part.hbond>
-2.2438

> <Gold.PLP.part.metal>
0.0000

> <Gold.PLP.part.buried>
-2.3299

> <Gold.PLP.part.nonpolar>
-29.2912

> <Gold.PLP.part.repulsive>
0.0995

> <Gold.PLP.ligand.clash>
0.0000

> <Gold.PLP.ligand.torsion>
0.5913

> <Gold.PLP.Chemscore.Hbond>
3.6000

> <Gold.PLP.Chemscore.CHOScore>
1.0000

> <Gold.PLP.Chemscore.Metal>
0.0000

> <Gold.Chemscore.Hbonds>
donor molecule, donor type, donor heavy atom, donor atom, acceptor molecule, acceptor atom, score
      P1  H  6896  6907       L1    14  1.57
      P1  H 10752 10765       L1    15  1.92
      L1  C    16    32       P1  8028  1.00

> <Gold.PLP.Chemscore.Internal.Correction>
0.0399

> <Gold.Rescore>
     Score         DG    S(hbond)    S(metal)    S(lipo)     H(rot)  DE(clash)    DE(int)     intcor
     14.28     -15.09       2.11        0.00      83.91       2.83       0.21       0.59       ----

> <Gold.Chemscore.Fitness>
14.2817

> <Gold.Chemscore.DG>
-15.0882

> <Gold.Chemscore.ZeroCoef>
-5.4800

> <Gold.Chemscore.Hbond>
2.1076

> <Gold.Chemscore.Metal>
0.0000

> <Gold.Chemscore.Lipo>
83.9064

> <Gold.Chemscore.Internal_Hbond>
0.0000

> <Gold.Chemscore.DEClash>
0.2129

> <Gold.Chemscore.DEInternal>
0.5937

> <Gold.Chemscore.Rot>
2.8313

> <Gold.Chemscore.Internal.Correction>
   9.000000E+99

> <Gold.Chemscore.Hbonds>
donor molecule, donor type, donor heavy atom, donor atom, acceptor molecule, acceptor atom, score
      P1  H  6896  6907       L1    14  0.75
      P1  H 10752 10765       L1    15  0.89

> <Gold.Chemscore.Hbond.Weighted>
-7.0394

> <Gold.Chemscore.Metal.Weighted>
-0.0000

> <Gold.Chemscore.Lipo.Weighted>
-9.8171

> <Gold.Chemscore.Internal_Hbond.Weighted>
0.0000

> <Gold.Chemscore.DEClash.Weighted>
0.2129

> <Gold.Chemscore.DEInternal.Weighted>
0.5937

> <Gold.Chemscore.Rot.Weighted>
7.2482

> <Gold.Chemscore.Internal.Correction.Weighted>
   9.000000E+99

> <Gold.Protein.RotatedTorsions>
[ 6907 6896 6895 6894 ] final  -72.55 input  -60.11 | X-H torsion
[ 7974 7965 7964 7962 ] final   23.18 input  175.53 | X-H torsion
[ 8008 7997 7996 7995 ] final  171.79 input   59.86 | X-H torsion
[ 10167 10162 10161 10158 ] final -176.21 input  -65.29 | X-H torsion
[ 10718 10713 10712 10709 ] final -117.77 input   66.30 | X-H torsion
[ 10763 10752 10751 10750 ] final -142.65 input  -60.55 | X-H torsion
[ 11005 11000 10999 10996 ] final   15.90 input  -57.11 | X-H torsion

> <Gold.Protein.ActiveResidues>
 VAL166  LYS551  ARG553  GLY616  TRP617  ASP618  TYR619  PRO620  LYS621  CYS622 
 ASP623  PHE694  ASN695  SER759  ASP760  ASP761  ALA762  ILE779  LEU786  VAL792 
 PHE793  MET794  SER795  GLU796  ALA797  LYS798  CYS799  TRP800  GLU811  SER814 

> <Gold.Protein.RotatedAtoms>
  150.7165  134.5146  159.5623 H   0  0  0  0  0  0  0  0  0  0  0  0  # atno 6907 bound_to 6896
  152.2715  134.7925  160.0422 H   0  0  0  0  0  0  0  0  0  0  0  0  # atno 6908 bound_to 6896
  151.8603  133.3420  159.3738 H   0  0  0  0  0  0  0  0  0  0  0  0  # atno 6909 bound_to 6896
  146.1996  139.7781  142.8771 H   0  0  0  0  0  0  0  0  0  0  0  0  # atno 7974 bound_to 7965
  156.1237  140.1502  156.9167 H   0  0  0  0  0  0  0  0  0  0  0  0  # atno 8008 bound_to 7997
  154.4855  140.0866  156.7518 H   0  0  0  0  0  0  0  0  0  0  0  0  # atno 8009 bound_to 7997
  155.4382  140.3430  155.4289 H   0  0  0  0  0  0  0  0  0  0  0  0  # atno 8010 bound_to 7997
  139.5541  144.2034  152.1129 H   0  0  0  0  0  0  0  0  0  0  0  0  # atno 10167 bound_to 10162
  156.1058  130.6209  150.9206 H   0  0  0  0  0  0  0  0  0  0  0  0  # atno 10718 bound_to 10713
  154.8501  135.3490  154.6062 H   0  0  0  0  0  0  0  0  0  0  0  0  # atno 10763 bound_to 10752
  153.6671  135.6987  153.5163 H   0  0  0  0  0  0  0  0  0  0  0  0  # atno 10764 bound_to 10752
  153.2772  135.4275  155.1001 H   0  0  0  0  0  0  0  0  0  0  0  0  # atno 10765 bound_to 10752
  140.4532  134.1203  155.7705 H   0  0  0  0  0  0  0  0  0  0  0  0  # atno 11005 bound_to 11000
  145.3529  141.0311  143.3328 LP  0  0  0  0  0  0  0  0  0  0  0  0  # atno 17320 bound_to 7965
  144.8654  139.5115  143.6792 LP  0  0  0  0  0  0  0  0  0  0  0  0  # atno 17321 bound_to 7965
  140.1535  144.5093  150.6674 LP  0  0  0  0  0  0  0  0  0  0  0  0  # atno 17342 bound_to 10162
  140.6810  143.2327  151.5383 LP  0  0  0  0  0  0  0  0  0  0  0  0  # atno 17343 bound_to 10162
  157.6234  131.0928  150.8580 LP  0  0  0  0  0  0  0  0  0  0  0  0  # atno 17370 bound_to 10713
  156.8699  130.5142  149.5297 LP  0  0  0  0  0  0  0  0  0  0  0  0  # atno 17371 bound_to 10713
  141.1655  133.8711  157.1727 LP  0  0  0  0  0  0  0  0  0  0  0  0  # atno 17394 bound_to 11000
  139.9993  135.0034  157.0155 LP  0  0  0  0  0  0  0  0  0  0  0  0  # atno 17395 bound_to 11000

$$$$
