AV-unprocessed.smi:1353|AV-procd|sdf|5532|dock3
  -GOLD-   22720 5123D 1   1.00000     0.00000
 Structure written by MMmdl.
 39 41  0  0  0  0  0  0  0  0  1 V2000
  149.3491  141.2081  153.4351 O   0  0  0  0  0  0  0  0  0  0  0  0
  149.2580  140.8474  154.7971 C   0  0  0  0  0  0  0  0  0  0  0  0
  150.6347  140.4582  155.3630 C   0  0  0  0  0  0  0  0  0  0  0  0
  151.0544  141.2925  156.5408 C   0  0  0  0  0  0  0  0  0  0  0  0
  151.0369  142.6255  156.4835 N   0  0  0  0  0  0  0  0  0  0  0  0
  151.4912  142.9934  157.7338 C   0  0  0  0  0  0  0  0  0  0  0  0
  151.7129  144.2738  158.2895 C   0  0  0  0  0  0  0  0  0  0  0  0
  152.1906  144.4059  159.6097 C   0  0  0  0  0  0  0  0  0  0  0  0
  152.4518  143.2621  160.3913 C   0  0  0  0  0  0  0  0  0  0  0  0
  152.2347  141.9775  159.8573 C   0  0  0  0  0  0  0  0  0  0  0  0
  151.7575  141.8505  158.5385 C   0  0  0  0  0  0  0  0  0  0  0  0
  151.4419  140.7612  157.7305 N   0  0  0  0  0  0  0  0  0  0  0  0
  151.5256  139.3603  158.1244 C   0  0  0  0  0  0  0  0  0  0  0  0
  152.9481  138.9454  158.5238 C   0  0  0  0  0  0  0  0  0  0  0  0
  152.8820  137.9869  159.5718 O   0  0  0  0  0  0  0  0  0  0  0  0
  153.6330  138.2044  160.7060 C   0  0  0  0  0  0  0  0  0  0  0  0
  153.6125  137.1933  161.6888 C   0  0  0  0  0  0  0  0  0  0  0  0
  154.3495  137.3315  162.8807 C   0  0  0  0  0  0  0  0  0  0  0  0
  155.1190  138.4886  163.1015 C   0  0  0  0  0  0  0  0  0  0  0  0
  155.1502  139.5046  162.1282 C   0  0  0  0  0  0  0  0  0  0  0  0
  154.4128  139.3663  160.9359 C   0  0  0  0  0  0  0  0  0  0  0  0
  149.5168  140.4285  152.9279 H   0  0  0  0  0  0  0  0  0  0  0  0
  148.8120  141.6631  155.3672 H   0  0  0  0  0  0  0  0  0  0  0  0
  148.5777  139.9987  154.8712 H   0  0  0  0  0  0  0  0  0  0  0  0
  150.5989  139.4201  155.6950 H   0  0  0  0  0  0  0  0  0  0  0  0
  151.3795  140.4890  154.5697 H   0  0  0  0  0  0  0  0  0  0  0  0
  151.5168  145.1558  157.6979 H   0  0  0  0  0  0  0  0  0  0  0  0
  152.3581  145.3892  160.0241 H   0  0  0  0  0  0  0  0  0  0  0  0
  152.8191  143.3713  161.4012 H   0  0  0  0  0  0  0  0  0  0  0  0
  152.4366  141.1006  160.4542 H   0  0  0  0  0  0  0  0  0  0  0  0
  150.8527  139.1990  158.9667 H   0  0  0  0  0  0  0  0  0  0  0  0
  151.1458  138.7314  157.3195 H   0  0  0  0  0  0  0  0  0  0  0  0
  153.4624  138.5234  157.6592 H   0  0  0  0  0  0  0  0  0  0  0  0
  153.5066  139.8239  158.8442 H   0  0  0  0  0  0  0  0  0  0  0  0
  153.0229  136.3026  161.5274 H   0  0  0  0  0  0  0  0  0  0  0  0
  154.3235  136.5498  163.6253 H   0  0  0  0  0  0  0  0  0  0  0  0
  155.6846  138.5965  164.0153 H   0  0  0  0  0  0  0  0  0  0  0  0
  155.7411  140.3930  162.2959 H   0  0  0  0  0  0  0  0  0  0  0  0
  154.4632  140.1656  160.2127 H   0  0  0  0  0  0  0  0  0  0  0  0
  1  2  1  0  0  0  0
  1 22  1  0  0  0  0
  2  3  1  0  0  0  0
  2 23  1  0  0  0  0
  2 24  1  0  0  0  0
  3  4  1  0  0  0  0
  3 25  1  0  0  0  0
  3 26  1  0  0  0  0
  4 12  1  0  0  0  0
  4  5  2  0  0  0  0
  5  6  1  0  0  0  0
  6 11  2  0  0  0  0
  6  7  1  0  0  0  0
  7  8  2  0  0  0  0
  7 27  1  0  0  0  0
  8  9  1  0  0  0  0
  8 28  1  0  0  0  0
  9 10  2  0  0  0  0
  9 29  1  0  0  0  0
 10 11  1  0  0  0  0
 10 30  1  0  0  0  0
 11 12  1  0  0  0  0
 12 13  1  0  0  0  0
 13 14  1  0  0  0  0
 13 31  1  0  0  0  0
 13 32  1  0  0  0  0
 14 15  1  0  0  0  0
 14 33  1  0  0  0  0
 14 34  1  0  0  0  0
 15 16  1  0  0  0  0
 16 21  1  0  0  0  0
 16 17  2  0  0  0  0
 17 18  1  0  0  0  0
 17 35  1  0  0  0  0
 18 19  2  0  0  0  0
 18 36  1  0  0  0  0
 19 20  1  0  0  0  0
 19 37  1  0  0  0  0
 20 21  2  0  0  0  0
 20 38  1  0  0  0  0
 21 39  1  0  0  0  0
M  END
> <s_m_source_file>
AV-unprocessed.smi

> <i_m_source_file_index>
1353

> <i_lp_mmshare_version>
43012

> <i_f3d_flags>
0

> <s_epik_input>
W2NIXTFbY0hdW2NIXVtjSF1jKGMxMiluKGMobjIpW0NIMl1bQ0gyXVtPSF0pW0NIMl1bQ0gyXU9jM1tjSF1bY0hdW2NIXVtjSF1bY0hdMw==

> <s_epik_cmdline>
J2VwaWtfcHl0aG9uJywgJy1waCcsICc3LjAnLCAnLXRuJywgJzgnLCAnLW1hJywgJzIwMCcsICctbWV0YWxfYmluZGluZycsICctaW1hZScsICc8aW5maWxlLm1hZT4nLCAnLW9tYWUnLCAnPG91dGZpbGUubWFlPic=

> <r_lp_tautomer_probability>
1

> <r_epik_Ionization_Penalty>
0.230562

> <r_epik_Ionization_Penalty_Charging>
0

> <r_epik_Ionization_Penalty_Neutral>
0.230562

> <r_epik_State_Penalty>
0.221203

> <r_epik_Charging_Adjusted_Penalty>
0.221203

> <i_epik_Tot_Q>
0

> <i_epik_Tot_abs_Q>
0

> <r_epik_Metal_State_Penalty>
0.000268091

> <b_epik_Metal_Only>
0

> <s_lp_Force_Field>
OPLS_2005

> <r_lp_Energy>
15.7907

> <b_lp_Chiralities_Consistent>
1

> <s_lp_Variant>
AV-unprocessed.smi:1353-1

> <Gold.Version>
5.8.1

> <Gold.Id.Protein>
6NUR|6NUR_protein|mol2

> <Gold.PLP.Fitness>
51.4372

> <Gold.PLP.PLP>
-48.3373

> <Gold.PLP.part.hbond>
-3.0000

> <Gold.PLP.part.metal>
0.0000

> <Gold.PLP.part.buried>
-4.6144

> <Gold.PLP.part.nonpolar>
-41.1056

> <Gold.PLP.part.repulsive>
0.3740

> <Gold.PLP.ligand.clash>
0.0000

> <Gold.PLP.ligand.torsion>
1.0330

> <Gold.PLP.Chemscore.Hbond>
1.7040

> <Gold.PLP.Chemscore.CHOScore>
0.0000

> <Gold.PLP.Chemscore.Metal>
0.0000

> <Gold.Chemscore.Hbonds>
donor molecule, donor type, donor heavy atom, donor atom, acceptor molecule, acceptor atom, score
      L1  H     1    22       P1  7957  0.69
      P1  H  8011  8017       L1     1  1.00

> <Gold.PLP.Chemscore.Internal.Correction>
0.0538

> <Gold.Rescore>
     Score         DG    S(hbond)    S(metal)    S(lipo)     H(rot)  DE(clash)    DE(int)     intcor
     18.17     -19.48       1.38        0.00     130.86       2.31       0.21       1.09       ----

> <Gold.Chemscore.Fitness>
18.1689

> <Gold.Chemscore.DG>
-19.4758

> <Gold.Chemscore.ZeroCoef>
-5.4800

> <Gold.Chemscore.Hbond>
1.3767

> <Gold.Chemscore.Metal>
0.0000

> <Gold.Chemscore.Lipo>
130.8601

> <Gold.Chemscore.Internal_Hbond>
0.0000

> <Gold.Chemscore.DEClash>
0.2140

> <Gold.Chemscore.DEInternal>
1.0929

> <Gold.Chemscore.Rot>
2.3098

> <Gold.Chemscore.Internal.Correction>
   9.000000E+99

> <Gold.Chemscore.Hbonds>
donor molecule, donor type, donor heavy atom, donor atom, acceptor molecule, acceptor atom, score
      L1  H     1    22       P1  7957  0.70
      P1  H  8011  8017       L1     1  0.29

> <Gold.Chemscore.Hbond.Weighted>
-4.5983

> <Gold.Chemscore.Metal.Weighted>
-0.0000

> <Gold.Chemscore.Lipo.Weighted>
-15.3106

> <Gold.Chemscore.Internal_Hbond.Weighted>
0.0000

> <Gold.Chemscore.DEClash.Weighted>
0.2140

> <Gold.Chemscore.DEInternal.Weighted>
1.0929

> <Gold.Chemscore.Rot.Weighted>
5.9131

> <Gold.Chemscore.Internal.Correction.Weighted>
   9.000000E+99

> <Gold.Protein.RotatedTorsions>
[ 6907 6896 6895 6894 ] final   13.02 input  -60.11 | X-H torsion
[ 7974 7965 7964 7962 ] final   -2.27 input  175.53 | X-H torsion
[ 8008 7997 7996 7995 ] final  -62.95 input   59.86 | X-H torsion
[ 10167 10162 10161 10158 ] final  -82.61 input  -65.29 | X-H torsion
[ 10718 10713 10712 10709 ] final  -43.57 input   66.30 | X-H torsion
[ 10763 10752 10751 10750 ] final  143.61 input  -60.55 | X-H torsion
[ 11005 11000 10999 10996 ] final  -58.40 input  -57.11 | X-H torsion

> <Gold.Protein.ActiveResidues>
 VAL166  LYS551  ARG553  GLY616  TRP617  ASP618  TYR619  PRO620  LYS621  CYS622 
 ASP623  PHE694  ASN695  SER759  ASP760  ASP761  ALA762  ILE779  LEU786  VAL792 
 PHE793  MET794  SER795  GLU796  ALA797  LYS798  CYS799  TRP800  GLU811  SER814 

> <Gold.Protein.RotatedAtoms>
  151.7796  135.0765  160.0371 H   0  0  0  0  0  0  0  0  0  0  0  0  # atno 6907 bound_to 6896
  152.3232  133.5872  159.5767 H   0  0  0  0  0  0  0  0  0  0  0  0  # atno 6908 bound_to 6896
  150.7381  133.9896  159.3644 H   0  0  0  0  0  0  0  0  0  0  0  0  # atno 6909 bound_to 6896
  146.2406  140.1546  142.8333 H   0  0  0  0  0  0  0  0  0  0  0  0  # atno 7974 bound_to 7965
  154.4527  140.0985  156.6667 H   0  0  0  0  0  0  0  0  0  0  0  0  # atno 8008 bound_to 7997
  155.5233  140.3479  155.4393 H   0  0  0  0  0  0  0  0  0  0  0  0  # atno 8009 bound_to 7997
  156.0715  140.1350  156.9812 H   0  0  0  0  0  0  0  0  0  0  0  0  # atno 8010 bound_to 7997
  140.4304  143.2551  151.8768 H   0  0  0  0  0  0  0  0  0  0  0  0  # atno 10167 bound_to 10162
  156.2476  130.4185  149.8687 H   0  0  0  0  0  0  0  0  0  0  0  0  # atno 10718 bound_to 10713
  153.9752  135.2946  155.3424 H   0  0  0  0  0  0  0  0  0  0  0  0  # atno 10763 bound_to 10752
  154.7300  135.5072  153.8951 H   0  0  0  0  0  0  0  0  0  0  0  0  # atno 10764 bound_to 10752
  153.0881  135.6699  154.0022 H   0  0  0  0  0  0  0  0  0  0  0  0  # atno 10765 bound_to 10752
  141.1206  133.6612  156.4915 H   0  0  0  0  0  0  0  0  0  0  0  0  # atno 11005 bound_to 11000
  145.0139  140.8737  143.5207 LP  0  0  0  0  0  0  0  0  0  0  0  0  # atno 17320 bound_to 7965
  145.1584  139.2473  143.5404 LP  0  0  0  0  0  0  0  0  0  0  0  0  # atno 17321 bound_to 7965
  139.4785  144.5341  151.8624 LP  0  0  0  0  0  0  0  0  0  0  0  0  # atno 17342 bound_to 10162
  140.4434  144.1955  150.5892 LP  0  0  0  0  0  0  0  0  0  0  0  0  # atno 17343 bound_to 10162
  156.6246  130.8641  151.3483 LP  0  0  0  0  0  0  0  0  0  0  0  0  # atno 17370 bound_to 10713
  157.7201  130.9548  150.1406 LP  0  0  0  0  0  0  0  0  0  0  0  0  # atno 17371 bound_to 10713
  140.4519  134.6921  157.5044 LP  0  0  0  0  0  0  0  0  0  0  0  0  # atno 17394 bound_to 11000
  140.0160  134.6619  155.9309 LP  0  0  0  0  0  0  0  0  0  0  0  0  # atno 17395 bound_to 11000

$$$$
