AV-unprocessed.smi:798|AV-procd|sdf|3778|dock8
  -GOLD-   22720 1213D 1   1.00000     0.00000
 Structure written by MMmdl.
 33 35  0  0  0  0  0  0  0  0  2 V2000
  152.1008  139.1181  159.0534 O   0  0  0  0  0  0  0  0  0  0  0  0
  152.3411  139.7177  158.0030 C   0  0  0  0  0  0  0  0  0  0  0  0
  152.7357  139.1618  156.8351 N   0  5  0  0  0  0  0  0  0  0  0  0
  151.8770  139.0830  155.8053 C   0  0  0  0  0  0  0  0  0  0  0  0
  151.2042  140.1513  155.3480 N   0  0  0  0  0  0  0  0  0  0  0  0
  150.3728  139.8553  154.2763 N   0  0  0  0  0  0  0  0  0  0  0  0
  150.4473  138.5662  153.9455 C   0  0  0  0  0  0  0  0  0  0  0  0
  151.5405  137.5979  154.9112 S   0  0  0  0  0  0  0  0  0  0  0  0
  152.2080  141.0506  157.9464 N   0  0  0  0  0  0  0  0  0  0  0  0
  151.7964  141.9268  159.0451 C   0  0  1  0  0  0  0  0  0  0  0  0
  152.7967  143.0931  159.1980 C   0  0  2  0  0  0  0  0  0  0  0  0
  152.5824  143.7643  160.5667 C   0  0  0  0  0  0  0  0  0  0  0  0
  151.2400  144.4953  160.3729 C   0  0  0  0  0  0  0  0  0  0  0  0
  150.8667  144.1487  158.9174 C   0  0  1  0  0  0  0  0  0  0  0  0
  152.2346  144.1431  158.2474 C   0  0  0  0  0  0  0  0  0  0  0  0
  150.4374  142.6628  158.8354 C   0  0  1  0  0  0  0  0  0  0  0  0
  149.6678  142.3197  157.5390 C   0  0  0  0  0  0  0  0  0  0  0  0
  150.4923  142.5079  156.4078 O   0  0  0  0  0  0  0  0  0  0  0  0
  149.8572  138.1842  153.1259 H   0  0  0  0  0  0  0  0  0  0  0  0
  152.4145  141.4963  157.0647 H   0  0  0  0  0  0  0  0  0  0  0  0
  151.7749  141.3458  159.9691 H   0  0  0  0  0  0  0  0  0  0  0  0
  153.8353  142.8142  159.0153 H   0  0  0  0  0  0  0  0  0  0  0  0
  152.5531  143.0444  161.3854 H   0  0  0  0  0  0  0  0  0  0  0  0
  153.3797  144.4778  160.7780 H   0  0  0  0  0  0  0  0  0  0  0  0
  150.4810  144.1706  161.0856 H   0  0  0  0  0  0  0  0  0  0  0  0
  151.3706  145.5715  160.4931 H   0  0  0  0  0  0  0  0  0  0  0  0
  150.1488  144.8459  158.4847 H   0  0  0  0  0  0  0  0  0  0  0  0
  152.7508  145.1029  158.3087 H   0  0  0  0  0  0  0  0  0  0  0  0
  152.2111  143.8191  157.2061 H   0  0  0  0  0  0  0  0  0  0  0  0
  149.7785  142.4271  159.6726 H   0  0  0  0  0  0  0  0  0  0  0  0
  149.3024  141.2928  157.5485 H   0  0  0  0  0  0  0  0  0  0  0  0
  148.8019  142.9719  157.4249 H   0  0  0  0  0  0  0  0  0  0  0  0
  150.1629  143.2465  155.9193 H   0  0  0  0  0  0  0  0  0  0  0  0
  1  2  2  0  0  0  0
  2  3  1  0  0  0  0
  2  9  1  0  0  0  0
  3  4  1  0  0  0  0
  4  8  1  0  0  0  0
  4  5  2  0  0  0  0
  5  6  1  0  0  0  0
  6  7  2  0  0  0  0
  7  8  1  0  0  0  0
  7 19  1  0  0  0  0
  9 10  1  0  0  0  0
  9 20  1  0  0  0  0
 10 16  1  0  0  0  0
 10 11  1  0  0  0  0
 10 21  1  0  0  0  0
 11 15  1  0  0  0  0
 11 12  1  0  0  0  0
 11 22  1  0  0  0  0
 12 13  1  0  0  0  0
 12 23  1  0  0  0  0
 12 24  1  0  0  0  0
 13 14  1  0  0  0  0
 13 25  1  0  0  0  0
 13 26  1  0  0  0  0
 14 15  1  0  0  0  0
 14 16  1  0  0  0  0
 14 27  1  0  0  0  0
 15 28  1  0  0  0  0
 15 29  1  0  0  0  0
 16 17  1  0  0  0  0
 16 30  1  0  0  0  0
 17 18  1  0  0  0  0
 17 31  1  0  0  0  0
 17 32  1  0  0  0  0
 18 33  1  0  0  0  0
M  CHG  1   3  -1
M  END
> <s_m_source_file>
AV-unprocessed.smi

> <i_m_source_file_index>
798

> <i_lp_mmshare_version>
43012

> <i_f3d_flags>
0

> <s_epik_input>
W0NIMl0xW0NIMl1bQ0BASF0oW0NIMl0yKVtDQEBIXShbQ0gyXVtPSF0pW0NAQEhdKFtDQEhdMTIpW05IXUMoPU8pW05IXWMzbm5bY0hdczM=

> <s_epik_cmdline>
J2VwaWtfcHl0aG9uJywgJy1waCcsICc3LjAnLCAnLXRuJywgJzgnLCAnLW1hJywgJzIwMCcsICctbWV0YWxfYmluZGluZycsICctaW1hZScsICc8aW5maWxlLm1hZT4nLCAnLW9tYWUnLCAnPG91dGZpbGUubWFlPic=

> <r_lp_tautomer_probability>
1

> <r_epik_Ionization_Penalty>
4.53732

> <r_epik_Ionization_Penalty_Charging>
4.48632

> <r_epik_Ionization_Penalty_Neutral>
0.0510007

> <r_epik_State_Penalty>
4.48602

> <r_epik_Charging_Adjusted_Penalty>
8.97234

> <i_epik_Tot_Q>
-1

> <i_epik_Tot_abs_Q>
1

> <r_epik_Metal_State_Penalty>
0.812492

> <b_epik_Metal_Only>
1

> <s_lp_Force_Field>
OPLS_2005

> <r_lp_Energy>
47.4454

> <b_lp_Chiralities_Consistent>
1

> <s_lp_Variant>
AV-unprocessed.smi:798-10

> <Gold.Version>
5.8.1

> <Gold.Id.Protein>
6NUR|6NUR_protein|mol2

> <Gold.PLP.Fitness>
47.9895

> <Gold.PLP.PLP>
-36.3625

> <Gold.PLP.part.hbond>
-4.0000

> <Gold.PLP.part.metal>
0.0000

> <Gold.PLP.part.buried>
-4.4820

> <Gold.PLP.part.nonpolar>
-28.3252

> <Gold.PLP.part.repulsive>
0.2467

> <Gold.PLP.ligand.clash>
0.0000

> <Gold.PLP.ligand.torsion>
1.2146

> <Gold.PLP.Chemscore.Hbond>
3.0000

> <Gold.PLP.Chemscore.CHOScore>
1.6771

> <Gold.PLP.Chemscore.Metal>
0.0000

> <Gold.Chemscore.Hbonds>
donor molecule, donor type, donor heavy atom, donor atom, acceptor molecule, acceptor atom, score
      L1  H    18    33       P1  8028  1.00
      P1  H  7997  8010       L1     3  2.00
      L1  C     7    19       P1  7948  1.00
      L1  C     7    19       P1  7957  0.37

> <Gold.PLP.Chemscore.Internal.Correction>
0.0248

> <Gold.Rescore>
     Score         DG    S(hbond)    S(metal)    S(lipo)     H(rot)  DE(clash)    DE(int)     intcor
     13.57     -17.51       1.73        0.00      95.33       1.92       0.16       3.78       ----

> <Gold.Chemscore.Fitness>
13.5694

> <Gold.Chemscore.DG>
-17.5097

> <Gold.Chemscore.ZeroCoef>
-5.4800

> <Gold.Chemscore.Hbond>
1.7344

> <Gold.Chemscore.Metal>
0.0000

> <Gold.Chemscore.Lipo>
95.3321

> <Gold.Chemscore.Internal_Hbond>
0.0000

> <Gold.Chemscore.DEClash>
0.1625

> <Gold.Chemscore.DEInternal>
3.7778

> <Gold.Chemscore.Rot>
1.9207

> <Gold.Chemscore.Internal.Correction>
   9.000000E+99

> <Gold.Chemscore.Hbonds>
donor molecule, donor type, donor heavy atom, donor atom, acceptor molecule, acceptor atom, score
      L1  H    18    33       P1  8028  0.95
      P1  H  7997  8010       L1     3  0.31

> <Gold.Chemscore.Hbond.Weighted>
-5.7927

> <Gold.Chemscore.Metal.Weighted>
-0.0000

> <Gold.Chemscore.Lipo.Weighted>
-11.1539

> <Gold.Chemscore.Internal_Hbond.Weighted>
0.0000

> <Gold.Chemscore.DEClash.Weighted>
0.1625

> <Gold.Chemscore.DEInternal.Weighted>
3.7778

> <Gold.Chemscore.Rot.Weighted>
4.9169

> <Gold.Chemscore.Internal.Correction.Weighted>
   9.000000E+99

> <Gold.Protein.RotatedTorsions>
[ 6907 6896 6895 6894 ] final   89.46 input  -60.11 | X-H torsion
[ 7974 7965 7964 7962 ] final  140.61 input  175.53 | X-H torsion
[ 8008 7997 7996 7995 ] final   70.45 input   59.86 | X-H torsion
[ 10167 10162 10161 10158 ] final  160.45 input  -65.29 | X-H torsion
[ 10718 10713 10712 10709 ] final  112.03 input   66.30 | X-H torsion
[ 10763 10752 10751 10750 ] final -169.65 input  -60.55 | X-H torsion
[ 11005 11000 10999 10996 ] final   -9.07 input  -57.11 | X-H torsion

> <Gold.Protein.ActiveResidues>
 VAL166  LYS551  ARG553  GLY616  TRP617  ASP618  TYR619  PRO620  LYS621  CYS622 
 ASP623  PHE694  ASN695  SER759  ASP760  ASP761  ALA762  ILE779  LEU786  VAL792 
 PHE793  MET794  SER795  GLU796  ALA797  LYS798  CYS799  TRP800  GLU811  SER814 

> <Gold.Protein.RotatedAtoms>
  152.5436  134.1963  159.8693 H   0  0  0  0  0  0  0  0  0  0  0  0  # atno 6907 bound_to 6896
  151.1955  133.4635  159.2603 H   0  0  0  0  0  0  0  0  0  0  0  0  # atno 6908 bound_to 6896
  151.1041  135.0001  159.8518 H   0  0  0  0  0  0  0  0  0  0  0  0  # atno 6909 bound_to 6896
  144.9171  139.5216  143.5681 H   0  0  0  0  0  0  0  0  0  0  0  0  # atno 7974 bound_to 7965
  155.7390  140.3490  155.5095 H   0  0  0  0  0  0  0  0  0  0  0  0  # atno 8008 bound_to 7997
  155.9112  140.1051  157.1299 H   0  0  0  0  0  0  0  0  0  0  0  0  # atno 8009 bound_to 7997
  154.4056  140.1267  156.4547 H   0  0  0  0  0  0  0  0  0  0  0  0  # atno 8010 bound_to 7997
  139.4840  144.4632  151.8676 H   0  0  0  0  0  0  0  0  0  0  0  0  # atno 10167 bound_to 10162
  157.6414  131.0961  150.6836 H   0  0  0  0  0  0  0  0  0  0  0  0  # atno 10718 bound_to 10713
  154.6500  135.2910  154.9999 H   0  0  0  0  0  0  0  0  0  0  0  0  # atno 10763 bound_to 10752
  154.1096  135.6564  153.4886 H   0  0  0  0  0  0  0  0  0  0  0  0  # atno 10764 bound_to 10752
  153.0371  135.5262  154.7403 H   0  0  0  0  0  0  0  0  0  0  0  0  # atno 10765 bound_to 10752
  140.7302  133.8755  155.8887 H   0  0  0  0  0  0  0  0  0  0  0  0  # atno 11005 bound_to 11000
  146.3187  139.8022  142.8963 LP  0  0  0  0  0  0  0  0  0  0  0  0  # atno 17320 bound_to 7965
  145.3357  141.0276  143.3421 LP  0  0  0  0  0  0  0  0  0  0  0  0  # atno 17321 bound_to 7965
  140.4096  144.2386  150.5889 LP  0  0  0  0  0  0  0  0  0  0  0  0  # atno 17342 bound_to 10162
  140.4979  143.2327  151.8722 LP  0  0  0  0  0  0  0  0  0  0  0  0  # atno 17343 bound_to 10162
  156.7159  130.4666  149.5535 LP  0  0  0  0  0  0  0  0  0  0  0  0  # atno 17370 bound_to 10713
  156.1698  130.6429  151.0823 LP  0  0  0  0  0  0  0  0  0  0  0  0  # atno 17371 bound_to 10713
  140.9928  134.1256  157.4392 LP  0  0  0  0  0  0  0  0  0  0  0  0  # atno 17394 bound_to 11000
  139.8828  135.0045  156.6255 LP  0  0  0  0  0  0  0  0  0  0  0  0  # atno 17395 bound_to 11000

$$$$
