AV-unprocessed.smi:2539|AV-procd|sdf|9986|dock5
  -GOLD-   2272014 33D 1   1.00000     0.00000
 Structure written by MMmdl.
 41 42  0  0  0  0  0  0  0  0  2 V2000
  149.9871  141.6858  154.4062 O   0  0  0  0  0  0  0  0  0  0  0  0
  149.3804  140.8274  155.0488 C   0  0  0  0  0  0  0  0  0  0  0  0
  149.9651  140.1252  156.0356 N   0  0  0  0  0  0  0  0  0  0  0  0
  151.3246  140.3190  156.5340 C   0  0  0  0  0  0  0  0  0  0  0  0
  151.3458  140.7701  158.0081 C   0  0  0  0  0  0  0  0  0  0  0  0
  151.3597  142.2791  158.1835 C   0  0  0  0  0  0  0  0  0  0  0  0
  152.5521  142.9559  158.5247 C   0  0  0  0  0  0  0  0  0  0  0  0
  152.5240  144.3528  158.7157 C   0  0  0  0  0  0  0  0  0  0  0  0
  151.3046  145.0426  158.5603 C   0  0  0  0  0  0  0  0  0  0  0  0
  150.1852  144.3626  158.2288 N   0  3  0  0  0  0  0  0  0  0  0  0
  150.1705  143.0257  158.0359 C   0  0  0  0  0  0  0  0  0  0  0  0
  148.0766  140.5215  154.8314 N   0  0  0  0  0  0  0  0  0  0  0  0
  147.2069  139.7432  155.7267 C   0  0  0  0  0  0  0  0  0  0  0  0
  146.3119  140.7216  156.5116 C   0  0  0  0  0  0  0  0  0  0  0  0
  145.4953  141.6526  155.5764 C   0  0  0  0  0  0  0  0  0  0  0  0
  144.5042  140.8620  154.9443 O   0  0  0  0  0  0  0  0  0  0  0  0
  144.7593  142.7559  156.3733 C   0  0  0  0  0  0  0  0  0  0  0  0
  144.0696  143.5377  155.5416 F   0  0  0  0  0  0  0  0  0  0  0  0
  143.9039  142.2192  157.2442 F   0  0  0  0  0  0  0  0  0  0  0  0
  145.6320  143.5197  157.0321 F   0  0  0  0  0  0  0  0  0  0  0  0
  146.3940  142.2543  154.4636 C   0  0  0  0  0  0  0  0  0  0  0  0
  147.2874  141.1920  153.7930 C   0  0  0  0  0  0  0  0  0  0  0  0
  149.4074  139.4255  156.5038 H   0  0  0  0  0  0  0  0  0  0  0  0
  151.8594  139.3742  156.4349 H   0  0  0  0  0  0  0  0  0  0  0  0
  151.8628  141.0364  155.9123 H   0  0  0  0  0  0  0  0  0  0  0  0
  150.4800  140.3580  158.5282 H   0  0  0  0  0  0  0  0  0  0  0  0
  152.2223  140.3532  158.5051 H   0  0  0  0  0  0  0  0  0  0  0  0
  153.4767  142.4119  158.6507 H   0  0  0  0  0  0  0  0  0  0  0  0
  153.4243  144.8874  158.9808 H   0  0  0  0  0  0  0  0  0  0  0  0
  151.1914  146.1091  158.6901 H   0  0  0  0  0  0  0  0  0  0  0  0
  149.2120  142.5950  157.7856 H   0  0  0  0  0  0  0  0  0  0  0  0
  146.5923  139.0654  155.1327 H   0  0  0  0  0  0  0  0  0  0  0  0
  147.7497  139.0984  156.4179 H   0  0  0  0  0  0  0  0  0  0  0  0
  145.6461  140.1659  157.1726 H   0  0  0  0  0  0  0  0  0  0  0  0
  146.9470  141.3246  157.1614 H   0  0  0  0  0  0  0  0  0  0  0  0
  144.4582  141.1096  154.0333 H   0  0  0  0  0  0  0  0  0  0  0  0
  145.7834  142.7536  153.7102 H   0  0  0  0  0  0  0  0  0  0  0  0
  147.0357  143.0256  154.8912 H   0  0  0  0  0  0  0  0  0  0  0  0
  147.9097  141.6553  153.0262 H   0  0  0  0  0  0  0  0  0  0  0  0
  146.6755  140.4583  153.2667 H   0  0  0  0  0  0  0  0  0  0  0  0
  149.3123  144.8803  158.1233 H   0  0  0  0  0  0  0  0  0  0  0  0
  1  2  2  0  0  0  0
  2  3  1  0  0  0  0
  2 12  1  0  0  0  0
  3  4  1  0  0  0  0
  3 23  1  0  0  0  0
  4  5  1  0  0  0  0
  4 24  1  0  0  0  0
  4 25  1  0  0  0  0
  5  6  1  0  0  0  0
  5 26  1  0  0  0  0
  5 27  1  0  0  0  0
  6 11  1  0  0  0  0
  6  7  2  0  0  0  0
  7  8  1  0  0  0  0
  7 28  1  0  0  0  0
  8  9  2  0  0  0  0
  8 29  1  0  0  0  0
  9 10  1  0  0  0  0
  9 30  1  0  0  0  0
 10 11  2  0  0  0  0
 10 41  1  0  0  0  0
 11 31  1  0  0  0  0
 12 22  1  0  0  0  0
 12 13  1  0  0  0  0
 13 14  1  0  0  0  0
 13 32  1  0  0  0  0
 13 33  1  0  0  0  0
 14 15  1  0  0  0  0
 14 34  1  0  0  0  0
 14 35  1  0  0  0  0
 15 16  1  0  0  0  0
 15 17  1  0  0  0  0
 15 21  1  0  0  0  0
 16 36  1  0  0  0  0
 17 18  1  0  0  0  0
 17 19  1  0  0  0  0
 17 20  1  0  0  0  0
 21 22  1  0  0  0  0
 21 37  1  0  0  0  0
 21 38  1  0  0  0  0
 22 39  1  0  0  0  0
 22 40  1  0  0  0  0
M  CHG  1  10   1
M  END
> <s_m_source_file>
AV-unprocessed.smi

> <i_m_source_file_index>
2539

> <i_lp_mmshare_version>
43012

> <i_f3d_flags>
0

> <s_epik_input>
RkMoRikoRilDMShbT0hdKVtDSDJdW0NIMl1OKFtDSDJdW0NIMl0xKUMoPU8pW05IXVtDSDJdW0NIMl1jMltjSF1bY0hdW2NIXW5bY0hdMg==

> <s_epik_cmdline>
J2VwaWtfcHl0aG9uJywgJy1waCcsICc3LjAnLCAnLXRuJywgJzgnLCAnLW1hJywgJzIwMCcsICctbWV0YWxfYmluZGluZycsICctaW1hZScsICc8aW5maWxlLm1hZT4nLCAnLW9tYWUnLCAnPG91dGZpbGUubWFlPic=

> <r_epik_Ionization_Penalty>
2.21039

> <r_epik_Ionization_Penalty_Charging>
2.21033

> <r_epik_Ionization_Penalty_Neutral>
5.75735e-05

> <r_epik_State_Penalty>
2.3545

> <r_epik_Charging_Adjusted_Penalty>
4.56483

> <i_epik_Tot_Q>
1

> <i_epik_Tot_abs_Q>
1

> <r_epik_Metal_State_Penalty>
2.36861

> <b_epik_Metal_Only>
0

> <s_lp_Force_Field>
OPLS_2005

> <r_lp_Energy>
41.3462

> <b_lp_Chiralities_Consistent>
1

> <s_lp_Variant>
AV-unprocessed.smi:2539-2

> <Gold.Version>
5.8.1

> <Gold.Id.Protein>
6NUR|6NUR_protein|mol2

> <Gold.PLP.Fitness>
43.9703

> <Gold.PLP.PLP>
-35.3030

> <Gold.PLP.part.hbond>
-5.0000

> <Gold.PLP.part.metal>
0.0000

> <Gold.PLP.part.buried>
-1.3757

> <Gold.PLP.part.nonpolar>
-29.3157

> <Gold.PLP.part.repulsive>
0.3576

> <Gold.PLP.ligand.clash>
0.0000

> <Gold.PLP.ligand.torsion>
0.5202

> <Gold.PLP.Chemscore.Hbond>
3.2058

> <Gold.PLP.Chemscore.CHOScore>
0.0000

> <Gold.PLP.Chemscore.Metal>
0.0000

> <Gold.Chemscore.Hbonds>
donor molecule, donor type, donor heavy atom, donor atom, acceptor molecule, acceptor atom, score
      L1  H    10    41       P1  8029  2.00
      L1  H    16    36       P1 10175  0.77
      P1  H  7989  7998       L1     1  0.24
      P1  H  8011  8017       L1     1  0.25

> <Gold.PLP.Chemscore.Internal.Correction>
0.0903

> <Gold.Rescore>
     Score         DG    S(hbond)    S(metal)    S(lipo)     H(rot)  DE(clash)    DE(int)     intcor
     16.23     -16.87       2.27        0.00      77.70       2.06       0.01       0.63       ----

> <Gold.Chemscore.Fitness>
16.2322

> <Gold.Chemscore.DG>
-16.8737

> <Gold.Chemscore.ZeroCoef>
-5.4800

> <Gold.Chemscore.Hbond>
2.2662

> <Gold.Chemscore.Metal>
0.0000

> <Gold.Chemscore.Lipo>
77.7010

> <Gold.Chemscore.Internal_Hbond>
0.0000

> <Gold.Chemscore.DEClash>
0.0126

> <Gold.Chemscore.DEInternal>
0.6290

> <Gold.Chemscore.Rot>
2.0572

> <Gold.Chemscore.Internal.Correction>
   9.000000E+99

> <Gold.Chemscore.Hbonds>
donor molecule, donor type, donor heavy atom, donor atom, acceptor molecule, acceptor atom, score
      L1  H    10    41       P1  8029  0.25
      L1  H    16    36       P1 10175  0.56
      P1  H  7989  7998       L1     1  0.19
      P1  H  8011  8017       L1     1  0.26

> <Gold.Chemscore.Hbond.Weighted>
-7.5691

> <Gold.Chemscore.Metal.Weighted>
-0.0000

> <Gold.Chemscore.Lipo.Weighted>
-9.0910

> <Gold.Chemscore.Internal_Hbond.Weighted>
0.0000

> <Gold.Chemscore.DEClash.Weighted>
0.0126

> <Gold.Chemscore.DEInternal.Weighted>
0.6290

> <Gold.Chemscore.Rot.Weighted>
5.2663

> <Gold.Chemscore.Internal.Correction.Weighted>
   9.000000E+99

> <Gold.Protein.RotatedTorsions>
[ 6907 6896 6895 6894 ] final  -46.68 input  -60.11 | X-H torsion
[ 7974 7965 7964 7962 ] final  162.11 input  175.53 | X-H torsion
[ 8008 7997 7996 7995 ] final -152.48 input   59.86 | X-H torsion
[ 10167 10162 10161 10158 ] final   49.34 input  -65.29 | X-H torsion
[ 10718 10713 10712 10709 ] final   14.71 input   66.30 | X-H torsion
[ 10763 10752 10751 10750 ] final -102.72 input  -60.55 | X-H torsion
[ 11005 11000 10999 10996 ] final  -72.41 input  -57.11 | X-H torsion

> <Gold.Protein.ActiveResidues>
 VAL166  LYS551  ARG553  GLY616  TRP617  ASP618  TYR619  PRO620  LYS621  CYS622 
 ASP623  PHE694  ASN695  SER759  ASP760  ASP761  ALA762  ILE779  LEU786  VAL792 
 PHE793  MET794  SER795  GLU796  ALA797  LYS798  CYS799  TRP800  GLU811  SER814 

> <Gold.Protein.RotatedAtoms>
  150.9087  134.8503  159.7410 H   0  0  0  0  0  0  0  0  0  0  0  0  # atno 6907 bound_to 6896
  152.4933  134.4391  159.9547 H   0  0  0  0  0  0  0  0  0  0  0  0  # atno 6908 bound_to 6896
  151.4436  133.3597  159.2820 H   0  0  0  0  0  0  0  0  0  0  0  0  # atno 6909 bound_to 6896
  144.7653  139.7993  143.6317 H   0  0  0  0  0  0  0  0  0  0  0  0  # atno 7974 bound_to 7965
  155.6558  140.0717  157.2571 H   0  0  0  0  0  0  0  0  0  0  0  0  # atno 8008 bound_to 7997
  154.4152  140.1725  156.1774 H   0  0  0  0  0  0  0  0  0  0  0  0  # atno 8009 bound_to 7997
  155.9738  140.3359  155.6603 H   0  0  0  0  0  0  0  0  0  0  0  0  # atno 8010 bound_to 7997
  140.2839  144.3125  150.6257 H   0  0  0  0  0  0  0  0  0  0  0  0  # atno 10167 bound_to 10162
  157.0430  130.6239  149.5754 H   0  0  0  0  0  0  0  0  0  0  0  0  # atno 10718 bound_to 10713
  154.7754  135.4850  153.9734 H   0  0  0  0  0  0  0  0  0  0  0  0  # atno 10763 bound_to 10752
  153.1422  135.6775  153.9017 H   0  0  0  0  0  0  0  0  0  0  0  0  # atno 10764 bound_to 10752
  153.8687  135.3146  155.3419 H   0  0  0  0  0  0  0  0  0  0  0  0  # atno 10765 bound_to 10752
  141.1608  133.6846  156.7054 H   0  0  0  0  0  0  0  0  0  0  0  0  # atno 11005 bound_to 11000
  146.1754  139.4922  142.9901 LP  0  0  0  0  0  0  0  0  0  0  0  0  # atno 17320 bound_to 7965
  145.6491  141.0267  143.1770 LP  0  0  0  0  0  0  0  0  0  0  0  0  # atno 17321 bound_to 7965
  140.5789  143.2174  151.7465 LP  0  0  0  0  0  0  0  0  0  0  0  0  # atno 17342 bound_to 10162
  139.4955  144.4109  152.0081 LP  0  0  0  0  0  0  0  0  0  0  0  0  # atno 17343 bound_to 10162
  156.0032  130.5114  150.7737 LP  0  0  0  0  0  0  0  0  0  0  0  0  # atno 17370 bound_to 10713
  157.5089  131.0924  151.0222 LP  0  0  0  0  0  0  0  0  0  0  0  0  # atno 17371 bound_to 10713
  140.2927  134.8228  157.4030 LP  0  0  0  0  0  0  0  0  0  0  0  0  # atno 17394 bound_to 11000
  140.1332  134.5067  155.8089 LP  0  0  0  0  0  0  0  0  0  0  0  0  # atno 17395 bound_to 11000

$$$$
