AV-unprocessed.smi:1085|AV-procd|sdf|4720|dock9
  -GOLD-   22720 3243D 1   1.00000     0.00000
 Structure written by MMmdl.
 33 34  0  0  0  0  0  0  0  0  1 V2000
  147.2233  142.2303  155.9457 O   0  0  0  0  0  0  0  0  0  0  0  0
  147.3663  142.0293  157.1512 C   0  0  0  0  0  0  0  0  0  0  0  0
  146.1426  141.9013  158.0584 C   0  0  0  0  0  0  0  0  0  0  0  0
  146.2575  142.7862  159.2034 N   0  0  0  0  0  0  0  0  0  0  0  0
  146.2758  144.1183  159.2837 C   0  0  0  0  0  0  0  0  0  0  0  0
  146.3653  144.5309  160.5390 N   0  0  0  0  0  0  0  0  0  0  0  0
  146.4031  143.3475  161.2578 N   0  0  0  0  0  0  0  0  0  0  0  0
  146.3395  142.3090  160.4709 N   0  0  0  0  0  0  0  0  0  0  0  0
  148.5620  141.8913  157.7448 N   0  0  0  0  0  0  0  0  0  0  0  0
  149.8559  141.8653  157.0676 C   0  0  2  0  0  0  0  0  0  0  0  0
  150.4817  140.4554  157.1147 C   0  0  0  0  0  0  0  0  0  0  0  0
  150.9035  140.0621  158.5403 C   0  0  0  0  0  0  0  0  0  0  0  0
  151.8572  141.1046  159.1446 C   0  0  0  0  0  0  0  0  0  0  0  0
  151.2404  142.5198  159.1346 C   0  0  1  0  0  0  0  0  0  0  0  0
  152.1913  143.5688  159.7469 C   0  0  0  0  0  0  0  0  0  0  0  0
  153.3991  143.4999  159.1862 F   0  0  0  0  0  0  0  0  0  0  0  0
  151.6990  144.7936  159.5607 F   0  0  0  0  0  0  0  0  0  0  0  0
  152.3127  143.3651  161.0587 F   0  0  0  0  0  0  0  0  0  0  0  0
  150.8041  142.9030  157.7006 C   0  0  0  0  0  0  0  0  0  0  0  0
  145.2364  142.1410  157.5001 H   0  0  0  0  0  0  0  0  0  0  0  0
  146.0437  140.8755  158.4162 H   0  0  0  0  0  0  0  0  0  0  0  0
  146.2149  144.7789  158.4313 H   0  0  0  0  0  0  0  0  0  0  0  0
  148.5731  141.7358  158.7428 H   0  0  0  0  0  0  0  0  0  0  0  0
  149.6976  142.1450  156.0244 H   0  0  0  0  0  0  0  0  0  0  0  0
  149.7909  139.7136  156.7122 H   0  0  0  0  0  0  0  0  0  0  0  0
  151.3579  140.4321  156.4655 H   0  0  0  0  0  0  0  0  0  0  0  0
  150.0209  139.9591  159.1735 H   0  0  0  0  0  0  0  0  0  0  0  0
  151.3853  139.0842  158.5262 H   0  0  0  0  0  0  0  0  0  0  0  0
  152.1102  140.8128  160.1642 H   0  0  0  0  0  0  0  0  0  0  0  0
  152.7931  141.1058  158.5843 H   0  0  0  0  0  0  0  0  0  0  0  0
  150.3477  142.4935  159.7616 H   0  0  0  0  0  0  0  0  0  0  0  0
  151.6887  143.0019  157.0702 H   0  0  0  0  0  0  0  0  0  0  0  0
  150.3259  143.8833  157.7016 H   0  0  0  0  0  0  0  0  0  0  0  0
  1  2  2  0  0  0  0
  2  3  1  0  0  0  0
  2  9  1  0  0  0  0
  3  4  1  0  0  0  0
  3 20  1  0  0  0  0
  3 21  1  0  0  0  0
  4  8  1  0  0  0  0
  4  5  1  0  0  0  0
  5  6  2  0  0  0  0
  5 22  1  0  0  0  0
  6  7  1  0  0  0  0
  7  8  2  0  0  0  0
  9 10  1  0  0  0  0
  9 23  1  0  0  0  0
 10 19  1  0  0  0  0
 10 11  1  0  0  0  0
 10 24  1  0  0  0  0
 11 12  1  0  0  0  0
 11 25  1  0  0  0  0
 11 26  1  0  0  0  0
 12 13  1  0  0  0  0
 12 27  1  0  0  0  0
 12 28  1  0  0  0  0
 13 14  1  0  0  0  0
 13 29  1  0  0  0  0
 13 30  1  0  0  0  0
 14 15  1  0  0  0  0
 14 19  1  0  0  0  0
 14 31  1  0  0  0  0
 15 16  1  0  0  0  0
 15 17  1  0  0  0  0
 15 18  1  0  0  0  0
 19 32  1  0  0  0  0
 19 33  1  0  0  0  0
M  END
> <s_m_source_file>
AV-unprocessed.smi

> <i_m_source_file_index>
1085

> <i_lp_mmshare_version>
43012

> <i_f3d_flags>
0

> <s_epik_input>
bjFubltjSF1uMVtDSDJdQyg9TylbTkhdW0NAQEhdMltDSDJdW0NIMl1bQ0gyXVtDQEBIXShDKEYpKEYpRilbQ0gyXTI=

> <s_epik_cmdline>
J2VwaWtfcHl0aG9uJywgJy1waCcsICc3LjAnLCAnLXRuJywgJzgnLCAnLW1hJywgJzIwMCcsICctbWV0YWxfYmluZGluZycsICctaW1hZScsICc8aW5maWxlLm1hZT4nLCAnLW9tYWUnLCAnPG91dGZpbGUubWFlPic=

> <r_lp_tautomer_probability>
1

> <r_epik_Ionization_Penalty>
8.41315e-07

> <r_epik_Ionization_Penalty_Charging>
0

> <r_epik_Ionization_Penalty_Neutral>
8.41315e-07

> <r_epik_State_Penalty>
-0

> <r_epik_Charging_Adjusted_Penalty>
0

> <i_epik_Tot_Q>
0

> <i_epik_Tot_abs_Q>
0

> <r_epik_Metal_State_Penalty>
-0

> <b_epik_Metal_Only>
0

> <s_lp_Force_Field>
OPLS_2005

> <r_lp_Energy>
11.1057

> <b_lp_Chiralities_Consistent>
1

> <s_lp_Variant>
AV-unprocessed.smi:1085-1

> <Gold.Version>
5.8.1

> <Gold.Id.Protein>
6NUR|6NUR_protein|mol2

> <Gold.PLP.Fitness>
36.7782

> <Gold.PLP.PLP>
-31.4322

> <Gold.PLP.part.hbond>
-2.1498

> <Gold.PLP.part.metal>
0.0000

> <Gold.PLP.part.buried>
-4.7135

> <Gold.PLP.part.nonpolar>
-25.6439

> <Gold.PLP.part.repulsive>
1.3345

> <Gold.PLP.ligand.clash>
0.0000

> <Gold.PLP.ligand.torsion>
0.3423

> <Gold.PLP.Chemscore.Hbond>
1.0000

> <Gold.PLP.Chemscore.CHOScore>
1.0000

> <Gold.PLP.Chemscore.Metal>
0.0000

> <Gold.Chemscore.Hbonds>
donor molecule, donor type, donor heavy atom, donor atom, acceptor molecule, acceptor atom, score
      P1  H  6934  6946       L1     8  1.00
      L1  C     5    22       P1  8029  1.00

> <Gold.PLP.Chemscore.Internal.Correction>
0.0306

> <Gold.Rescore>
     Score         DG    S(hbond)    S(metal)    S(lipo)     H(rot)  DE(clash)    DE(int)     intcor
      9.00      -9.54       0.96        0.00      52.13       2.05       0.21       0.33       ----

> <Gold.Chemscore.Fitness>
9.0048

> <Gold.Chemscore.DG>
-9.5433

> <Gold.Chemscore.ZeroCoef>
-5.4800

> <Gold.Chemscore.Hbond>
0.9585

> <Gold.Chemscore.Metal>
0.0000

> <Gold.Chemscore.Lipo>
52.1269

> <Gold.Chemscore.Internal_Hbond>
0.0000

> <Gold.Chemscore.DEClash>
0.2089

> <Gold.Chemscore.DEInternal>
0.3296

> <Gold.Chemscore.Rot>
2.0456

> <Gold.Chemscore.Internal.Correction>
   9.000000E+99

> <Gold.Chemscore.Hbonds>
donor molecule, donor type, donor heavy atom, donor atom, acceptor molecule, acceptor atom, score
      P1  H  6934  6946       L1     8  0.95

> <Gold.Chemscore.Hbond.Weighted>
-3.2012

> <Gold.Chemscore.Metal.Weighted>
-0.0000

> <Gold.Chemscore.Lipo.Weighted>
-6.0988

> <Gold.Chemscore.Internal_Hbond.Weighted>
0.0000

> <Gold.Chemscore.DEClash.Weighted>
0.2089

> <Gold.Chemscore.DEInternal.Weighted>
0.3296

> <Gold.Chemscore.Rot.Weighted>
5.2368

> <Gold.Chemscore.Internal.Correction.Weighted>
   9.000000E+99

> <Gold.Protein.RotatedTorsions>
[ 6907 6896 6895 6894 ] final  -57.63 input  -60.11 | X-H torsion
[ 7974 7965 7964 7962 ] final  118.47 input  175.53 | X-H torsion
[ 8008 7997 7996 7995 ] final  -52.74 input   59.86 | X-H torsion
[ 10167 10162 10161 10158 ] final   48.23 input  -65.29 | X-H torsion
[ 10718 10713 10712 10709 ] final   26.33 input   66.30 | X-H torsion
[ 10763 10752 10751 10750 ] final -117.91 input  -60.55 | X-H torsion
[ 11005 11000 10999 10996 ] final   43.70 input  -57.11 | X-H torsion

> <Gold.Protein.ActiveResidues>
 VAL166  LYS551  ARG553  GLY616  TRP617  ASP618  TYR619  PRO620  LYS621  CYS622 
 ASP623  PHE694  ASN695  SER759  ASP760  ASP761  ALA762  ILE779  LEU786  VAL792 
 PHE793  MET794  SER795  GLU796  ALA797  LYS798  CYS799  TRP800  GLU811  SER814 

> <Gold.Protein.RotatedAtoms>
  150.8071  134.7203  159.6653 H   0  0  0  0  0  0  0  0  0  0  0  0  # atno 6907 bound_to 6896
  152.4191  134.5985  160.0003 H   0  0  0  0  0  0  0  0  0  0  0  0  # atno 6908 bound_to 6896
  151.6206  133.3302  159.3123 H   0  0  0  0  0  0  0  0  0  0  0  0  # atno 6909 bound_to 6896
  145.1549  139.3189  143.4547 H   0  0  0  0  0  0  0  0  0  0  0  0  # atno 7974 bound_to 7965
  154.4114  140.1216  156.5041 H   0  0  0  0  0  0  0  0  0  0  0  0  # atno 8008 bound_to 7997
  155.6865  140.3495  155.4857 H   0  0  0  0  0  0  0  0  0  0  0  0  # atno 8009 bound_to 7997
  155.9506  140.1104  157.0970 H   0  0  0  0  0  0  0  0  0  0  0  0  # atno 8010 bound_to 7997
  140.2954  144.2997  150.6231 H   0  0  0  0  0  0  0  0  0  0  0  0  # atno 10167 bound_to 10162
  157.2053  130.6909  149.6205 H   0  0  0  0  0  0  0  0  0  0  0  0  # atno 10718 bound_to 10713
  154.8570  135.4293  154.2054 H   0  0  0  0  0  0  0  0  0  0  0  0  # atno 10763 bound_to 10752
  153.3091  135.6974  153.7138 H   0  0  0  0  0  0  0  0  0  0  0  0  # atno 10764 bound_to 10752
  153.6237  135.3497  155.2993 H   0  0  0  0  0  0  0  0  0  0  0  0  # atno 10765 bound_to 10752
  140.1621  134.4329  155.8311 H   0  0  0  0  0  0  0  0  0  0  0  0  # atno 11005 bound_to 11000
  146.3490  140.1637  142.8590 LP  0  0  0  0  0  0  0  0  0  0  0  0  # atno 17320 bound_to 7965
  145.0392  140.8932  143.5063 LP  0  0  0  0  0  0  0  0  0  0  0  0  # atno 17321 bound_to 7965
  140.5697  143.2182  151.7621 LP  0  0  0  0  0  0  0  0  0  0  0  0  # atno 17342 bound_to 10162
  139.4928  144.4234  151.9952 LP  0  0  0  0  0  0  0  0  0  0  0  0  # atno 17343 bound_to 10162
  155.9696  130.4569  150.5942 LP  0  0  0  0  0  0  0  0  0  0  0  0  # atno 17370 bound_to 10713
  157.3726  131.0768  151.1545 LP  0  0  0  0  0  0  0  0  0  0  0  0  # atno 17371 bound_to 10713
  141.2210  133.6918  156.7612 LP  0  0  0  0  0  0  0  0  0  0  0  0  # atno 17394 bound_to 11000
  140.2478  134.8564  157.3637 LP  0  0  0  0  0  0  0  0  0  0  0  0  # atno 17395 bound_to 11000

$$$$
