AV-unprocessed.smi:651|AV-procd|sdf|3190|dock1
  -GOLD-   22720 0113D 1   1.00000     0.00000
 Structure written by MMmdl.
 39 40  0  0  0  0  0  0  0  0  2 V2000
  151.1283  145.5208  159.3900 C   0  0  0  0  0  0  0  0  0  0  0  0
  151.3414  144.1218  158.8515 C   0  0  0  0  0  0  0  0  0  0  0  0
  152.1062  143.1589  159.5438 C   0  0  0  0  0  0  0  0  0  0  0  0
  152.2598  141.8718  158.9876 C   0  0  0  0  0  0  0  0  0  0  0  0
  151.6453  141.5727  157.7514 C   0  0  0  0  0  0  0  0  0  0  0  0
  151.7865  140.1920  157.1304 C   0  0  0  0  0  0  0  0  0  0  0  0
  151.0776  140.0875  155.7745 C   0  0  0  0  0  0  0  0  0  0  0  0
  151.7153  139.9514  154.7292 O   0  0  0  0  0  0  0  0  0  0  0  0
  149.7380  140.1430  155.8128 N   0  0  0  0  0  0  0  0  0  0  0  0
  148.8565  140.0506  154.6470 C   0  0  2  0  0  0  0  0  0  0  0  0
  147.4251  140.5020  154.9979 C   0  0  0  0  0  0  0  0  0  0  0  0
  146.4681  139.4773  154.3777 C   0  0  0  0  0  0  0  0  0  0  0  0
  147.3210  138.6395  153.4228 C   0  0  0  0  0  0  0  0  0  0  0  0
  148.7337  138.6313  154.0261 C   0  0  2  0  0  0  0  0  0  0  0  0
  148.8996  137.4596  155.0183 C   0  0  0  0  0  0  0  0  0  0  0  0
  148.8158  136.2256  154.5149 N   0  0  0  0  0  0  0  0  0  0  0  0
  149.1079  137.6606  156.2137 O   0  0  0  0  0  0  0  0  0  0  0  0
  150.8926  142.5767  157.1045 C   0  0  0  0  0  0  0  0  0  0  0  0
  150.7688  143.7970  157.6705 N   0  3  0  0  0  0  0  0  0  0  0  0
  151.9610  145.8216  160.0265 H   0  0  0  0  0  0  0  0  0  0  0  0
  150.2128  145.5616  159.9805 H   0  0  0  0  0  0  0  0  0  0  0  0
  151.0461  146.2430  158.5770 H   0  0  0  0  0  0  0  0  0  0  0  0
  152.5681  143.4003  160.4901 H   0  0  0  0  0  0  0  0  0  0  0  0
  152.8391  141.1225  159.5074 H   0  0  0  0  0  0  0  0  0  0  0  0
  152.8442  139.9583  157.0004 H   0  0  0  0  0  0  0  0  0  0  0  0
  151.3776  139.4428  157.8099 H   0  0  0  0  0  0  0  0  0  0  0  0
  149.2905  140.2479  156.7122 H   0  0  0  0  0  0  0  0  0  0  0  0
  149.2333  140.7245  153.8748 H   0  0  0  0  0  0  0  0  0  0  0  0
  147.2626  140.5557  156.0755 H   0  0  0  0  0  0  0  0  0  0  0  0
  147.2374  141.4987  154.5971 H   0  0  0  0  0  0  0  0  0  0  0  0
  146.0548  138.8402  155.1605 H   0  0  0  0  0  0  0  0  0  0  0  0
  145.6282  139.9508  153.8687 H   0  0  0  0  0  0  0  0  0  0  0  0
  146.9069  137.6407  153.2756 H   0  0  0  0  0  0  0  0  0  0  0  0
  147.3509  139.1196  152.4438 H   0  0  0  0  0  0  0  0  0  0  0  0
  149.4740  138.5130  153.2327 H   0  0  0  0  0  0  0  0  0  0  0  0
  148.9277  135.4251  155.1201 H   0  0  0  0  0  0  0  0  0  0  0  0
  148.6508  136.0979  153.5269 H   0  0  0  0  0  0  0  0  0  0  0  0
  150.3841  142.4400  156.1610 H   0  0  0  0  0  0  0  0  0  0  0  0
  150.2170  144.5048  157.1855 H   0  0  0  0  0  0  0  0  0  0  0  0
  1  2  1  0  0  0  0
  1 20  1  0  0  0  0
  1 21  1  0  0  0  0
  1 22  1  0  0  0  0
  2 19  1  0  0  0  0
  2  3  2  0  0  0  0
  3  4  1  0  0  0  0
  3 23  1  0  0  0  0
  4  5  2  0  0  0  0
  4 24  1  0  0  0  0
  5  6  1  0  0  0  0
  5 18  1  0  0  0  0
  6  7  1  0  0  0  0
  6 25  1  0  0  0  0
  6 26  1  0  0  0  0
  7  8  2  0  0  0  0
  7  9  1  0  0  0  0
  9 10  1  0  0  0  0
  9 27  1  0  0  0  0
 10 14  1  0  0  0  0
 10 11  1  0  0  0  0
 10 28  1  0  0  0  0
 11 12  1  0  0  0  0
 11 29  1  0  0  0  0
 11 30  1  0  0  0  0
 12 13  1  0  0  0  0
 12 31  1  0  0  0  0
 12 32  1  0  0  0  0
 13 14  1  0  0  0  0
 13 33  1  0  0  0  0
 13 34  1  0  0  0  0
 14 15  1  0  0  0  0
 14 35  1  0  0  0  0
 15 16  1  0  0  0  0
 15 17  2  0  0  0  0
 16 36  1  0  0  0  0
 16 37  1  0  0  0  0
 18 19  2  0  0  0  0
 18 38  1  0  0  0  0
 19 39  1  0  0  0  0
M  CHG  1  19   1
M  END
> <s_m_source_file>
AV-unprocessed.smi

> <i_m_source_file_index>
651

> <i_lp_mmshare_version>
43012

> <i_f3d_flags>
0

> <s_epik_input>
W0NIM11jMVtjSF1bY0hdYyhbY0hdbjEpW0NIMl1DKD1PKVtOSF1bQ0BASF0yW0NIMl1bQ0gyXVtDSDJdW0NASF0yQyg9TylbTkgyXQ==

> <s_epik_cmdline>
J2VwaWtfcHl0aG9uJywgJy1waCcsICc3LjAnLCAnLXRuJywgJzgnLCAnLW1hJywgJzIwMCcsICctbWV0YWxfYmluZGluZycsICctaW1hZScsICc8aW5maWxlLm1hZT4nLCAnLW9tYWUnLCAnPG91dGZpbGUubWFlPic=

> <r_epik_Ionization_Penalty>
2.14971

> <r_epik_Ionization_Penalty_Charging>
2.14971

> <r_epik_Ionization_Penalty_Neutral>
1.65229e-07

> <r_epik_State_Penalty>
2.28946

> <r_epik_Charging_Adjusted_Penalty>
4.43917

> <i_epik_Tot_Q>
1

> <i_epik_Tot_abs_Q>
1

> <r_epik_Metal_State_Penalty>
2.30508

> <b_epik_Metal_Only>
0

> <s_lp_Force_Field>
OPLS_2005

> <r_lp_Energy>
19.6238

> <b_lp_Chiralities_Consistent>
1

> <s_lp_Variant>
AV-unprocessed.smi:651-7

> <Gold.Version>
5.8.1

> <Gold.Id.Protein>
6NUR|6NUR_protein|mol2

> <Gold.PLP.Fitness>
42.5971

> <Gold.PLP.PLP>
-32.6597

> <Gold.PLP.part.hbond>
-2.8327

> <Gold.PLP.part.metal>
0.0000

> <Gold.PLP.part.buried>
-3.8453

> <Gold.PLP.part.nonpolar>
-26.8219

> <Gold.PLP.part.repulsive>
0.1543

> <Gold.PLP.ligand.clash>
0.4215

> <Gold.PLP.ligand.torsion>
0.2450

> <Gold.PLP.Chemscore.Hbond>
3.5954

> <Gold.PLP.Chemscore.CHOScore>
0.0000

> <Gold.PLP.Chemscore.Metal>
0.0000

> <Gold.Chemscore.Hbonds>
donor molecule, donor type, donor heavy atom, donor atom, acceptor molecule, acceptor atom, score
      L1  H    16    37       P1  7948  1.00
      L1  H    19    39       P1  8028  1.73
      P1  H  7989  7998       L1     8  0.99

> <Gold.PLP.Chemscore.Internal.Correction>
0.0627

> <Gold.Rescore>
     Score         DG    S(hbond)    S(metal)    S(lipo)     H(rot)  DE(clash)    DE(int)     intcor
     16.61     -19.68       2.68        0.00      89.56       2.04       0.05       3.02       ----

> <Gold.Chemscore.Fitness>
16.6112

> <Gold.Chemscore.DG>
-19.6764

> <Gold.Chemscore.ZeroCoef>
-5.4800

> <Gold.Chemscore.Hbond>
2.6756

> <Gold.Chemscore.Metal>
0.0000

> <Gold.Chemscore.Lipo>
89.5602

> <Gold.Chemscore.Internal_Hbond>
0.0000

> <Gold.Chemscore.DEClash>
0.0482

> <Gold.Chemscore.DEInternal>
3.0170

> <Gold.Chemscore.Rot>
2.0386

> <Gold.Chemscore.Internal.Correction>
   9.000000E+99

> <Gold.Chemscore.Hbonds>
donor molecule, donor type, donor heavy atom, donor atom, acceptor molecule, acceptor atom, score
      L1  H    16    37       P1  7948  0.98
      L1  H    19    39       P1  8028  0.45
      P1  H  7989  7998       L1     8  0.89

> <Gold.Chemscore.Hbond.Weighted>
-8.9366

> <Gold.Chemscore.Metal.Weighted>
-0.0000

> <Gold.Chemscore.Lipo.Weighted>
-10.4785

> <Gold.Chemscore.Internal_Hbond.Weighted>
0.0000

> <Gold.Chemscore.DEClash.Weighted>
0.0482

> <Gold.Chemscore.DEInternal.Weighted>
3.0170

> <Gold.Chemscore.Rot.Weighted>
5.2188

> <Gold.Chemscore.Internal.Correction.Weighted>
   9.000000E+99

> <Gold.Protein.RotatedTorsions>
[ 6907 6896 6895 6894 ] final   32.14 input  -60.11 | X-H torsion
[ 7974 7965 7964 7962 ] final  -85.27 input  175.53 | X-H torsion
[ 8008 7997 7996 7995 ] final  122.30 input   59.86 | X-H torsion
[ 10167 10162 10161 10158 ] final   45.08 input  -65.29 | X-H torsion
[ 10718 10713 10712 10709 ] final  -96.44 input   66.30 | X-H torsion
[ 10763 10752 10751 10750 ] final  143.44 input  -60.55 | X-H torsion
[ 11005 11000 10999 10996 ] final  -52.29 input  -57.11 | X-H torsion

> <Gold.Protein.ActiveResidues>
 VAL166  LYS551  ARG553  GLY616  TRP617  ASP618  TYR619  PRO620  LYS621  CYS622 
 ASP623  PHE694  ASN695  SER759  ASP760  ASP761  ALA762  ILE779  LEU786  VAL792 
 PHE793  MET794  SER795  GLU796  ALA797  LYS798  CYS799  TRP800  GLU811  SER814 

> <Gold.Protein.RotatedAtoms>
  152.0702  134.9538  160.0574 H   0  0  0  0  0  0  0  0  0  0  0  0  # atno 6907 bound_to 6896
  152.0867  133.4175  159.4534 H   0  0  0  0  0  0  0  0  0  0  0  0  # atno 6908 bound_to 6896
  150.6836  134.2838  159.4682 H   0  0  0  0  0  0  0  0  0  0  0  0  # atno 6909 bound_to 6896
  145.4955  140.9550  143.1788 H   0  0  0  0  0  0  0  0  0  0  0  0  # atno 7974 bound_to 7965
  156.2722  140.2789  156.1446 H   0  0  0  0  0  0  0  0  0  0  0  0  # atno 8008 bound_to 7997
  155.0917  140.0388  157.2688 H   0  0  0  0  0  0  0  0  0  0  0  0  # atno 8009 bound_to 7997
  154.6884  140.2624  155.6843 H   0  0  0  0  0  0  0  0  0  0  0  0  # atno 8010 bound_to 7997
  140.3278  144.2626  150.6172 H   0  0  0  0  0  0  0  0  0  0  0  0  # atno 10167 bound_to 10162
  156.0062  130.5151  150.6226 H   0  0  0  0  0  0  0  0  0  0  0  0  # atno 10718 bound_to 10713
  153.9723  135.2949  155.3426 H   0  0  0  0  0  0  0  0  0  0  0  0  # atno 10763 bound_to 10752
  154.7315  135.5065  153.8975 H   0  0  0  0  0  0  0  0  0  0  0  0  # atno 10764 bound_to 10752
  153.0894  135.6703  153.9997 H   0  0  0  0  0  0  0  0  0  0  0  0  # atno 10765 bound_to 10752
  141.0917  133.6631  156.4003 H   0  0  0  0  0  0  0  0  0  0  0  0  # atno 11005 bound_to 11000
  144.7809  139.6528  143.7154 LP  0  0  0  0  0  0  0  0  0  0  0  0  # atno 17320 bound_to 7965
  146.2258  139.5720  142.9588 LP  0  0  0  0  0  0  0  0  0  0  0  0  # atno 17321 bound_to 7965
  140.5425  143.2221  151.8061 LP  0  0  0  0  0  0  0  0  0  0  0  0  # atno 17342 bound_to 10162
  139.4862  144.4582  151.9573 LP  0  0  0  0  0  0  0  0  0  0  0  0  # atno 17343 bound_to 10162
  157.4039  131.0814  151.1283 LP  0  0  0  0  0  0  0  0  0  0  0  0  # atno 17370 bound_to 10713
  157.1936  130.6363  149.5713 LP  0  0  0  0  0  0  0  0  0  0  0  0  # atno 17371 bound_to 10713
  140.5237  134.6279  157.5327 LP  0  0  0  0  0  0  0  0  0  0  0  0  # atno 17394 bound_to 11000
  139.9744  134.7240  155.9978 LP  0  0  0  0  0  0  0  0  0  0  0  0  # atno 17395 bound_to 11000

$$$$
