AV-unprocessed.smi:2083|AV-procd|sdf|8512|dock9
  -GOLD-   2272011223D 1   1.00000     0.00000
 Structure written by MMmdl.
 44 45  0  0  0  0  0  0  0  0  3 V2000
  152.0916  140.5744  159.1939 C   0  0  0  0  0  0  0  0  0  0  0  0
  151.7745  139.5317  158.1770 C   0  0  0  0  0  0  0  0  0  0  0  0
  150.8483  138.5280  158.1357 C   0  0  0  0  0  0  0  0  0  0  0  0
  151.0953  137.9142  156.8790 C   0  0  0  0  0  0  0  0  0  0  0  0
  150.3196  136.8048  156.4506 N   0  0  0  0  0  0  0  0  0  0  0  0
  150.6462  135.4996  156.4473 C   0  0  0  0  0  0  0  0  0  0  0  0
  151.7487  135.1295  156.8686 O   0  0  0  0  0  0  0  0  0  0  0  0
  149.6505  134.7194  155.9423 N   0  5  0  0  0  0  0  0  0  0  0  0
  148.8876  135.0185  154.7291 C   0  0  0  0  0  0  0  0  0  0  0  0
  148.1752  133.7487  154.1845 C   0  0  2  0  0  0  0  0  0  0  0  0
  149.1160  132.5377  153.9612 C   0  0  0  0  0  0  0  0  0  0  0  0
  147.3588  134.0820  152.9752 N   0  3  2  0  0  0  0  0  0  0  0  0
  146.2347  135.0121  153.2650 C   0  0  0  0  0  0  0  0  0  0  0  0
  145.5986  135.5280  151.9641 C   0  0  0  0  0  0  0  0  0  0  0  0
  145.1377  134.3672  151.0732 C   0  0  0  0  0  0  0  0  0  0  0  0
  146.3038  133.3995  150.8099 C   0  0  2  0  0  0  0  0  0  0  0  0
  145.8639  132.2146  149.9386 C   0  0  0  0  0  0  0  0  0  0  0  0
  146.9072  132.9246  152.1459 C   0  0  0  0  0  0  0  0  0  0  0  0
  152.0834  138.4933  156.2128 N   0  0  0  0  0  0  0  0  0  0  0  0
  152.5235  139.5326  157.0410 O   0  0  0  0  0  0  0  0  0  0  0  0
  152.0665  140.1540  160.1993 H   0  0  0  0  0  0  0  0  0  0  0  0
  151.3681  141.3883  159.1490 H   0  0  0  0  0  0  0  0  0  0  0  0
  153.0841  140.9944  159.0290 H   0  0  0  0  0  0  0  0  0  0  0  0
  150.1134  138.2747  158.8851 H   0  0  0  0  0  0  0  0  0  0  0  0
  149.3996  137.0263  156.0994 H   0  0  0  0  0  0  0  0  0  0  0  0
  148.1393  135.7918  154.9100 H   0  0  0  0  0  0  0  0  0  0  0  0
  149.5307  135.4258  153.9487 H   0  0  0  0  0  0  0  0  0  0  0  0
  147.4686  133.4500  154.9601 H   0  0  0  0  0  0  0  0  0  0  0  0
  149.5817  132.2098  154.8922 H   0  0  0  0  0  0  0  0  0  0  0  0
  149.9205  132.7510  153.2553 H   0  0  0  0  0  0  0  0  0  0  0  0
  148.5609  131.6823  153.5760 H   0  0  0  0  0  0  0  0  0  0  0  0
  145.4880  134.5062  153.8788 H   0  0  0  0  0  0  0  0  0  0  0  0
  146.5924  135.8673  153.8399 H   0  0  0  0  0  0  0  0  0  0  0  0
  144.7542  136.1781  152.1943 H   0  0  0  0  0  0  0  0  0  0  0  0
  146.3211  136.1406  151.4227 H   0  0  0  0  0  0  0  0  0  0  0  0
  144.3160  133.8378  151.5575 H   0  0  0  0  0  0  0  0  0  0  0  0
  144.7471  134.7550  150.1317 H   0  0  0  0  0  0  0  0  0  0  0  0
  147.0779  133.9404  150.2629 H   0  0  0  0  0  0  0  0  0  0  0  0
  145.0884  131.6263  150.4301 H   0  0  0  0  0  0  0  0  0  0  0  0
  146.7022  131.5499  149.7275 H   0  0  0  0  0  0  0  0  0  0  0  0
  145.4669  132.5564  148.9823 H   0  0  0  0  0  0  0  0  0  0  0  0
  147.7446  132.2571  151.9408 H   0  0  0  0  0  0  0  0  0  0  0  0
  146.1660  132.3410  152.6940 H   0  0  0  0  0  0  0  0  0  0  0  0
  147.9895  134.6117  152.3904 H   0  0  0  0  0  0  0  0  0  0  0  0
  1  2  1  0  0  0  0
  1 21  1  0  0  0  0
  1 22  1  0  0  0  0
  1 23  1  0  0  0  0
  2 20  1  0  0  0  0
  2  3  2  0  0  0  0
  3  4  1  0  0  0  0
  3 24  1  0  0  0  0
  4  5  1  0  0  0  0
  4 19  2  0  0  0  0
  5  6  1  0  0  0  0
  5 25  1  0  0  0  0
  6  7  2  0  0  0  0
  6  8  1  0  0  0  0
  8  9  1  0  0  0  0
  9 10  1  0  0  0  0
  9 26  1  0  0  0  0
  9 27  1  0  0  0  0
 10 11  1  0  0  0  0
 10 12  1  0  0  0  0
 10 28  1  0  0  0  0
 11 29  1  0  0  0  0
 11 30  1  0  0  0  0
 11 31  1  0  0  0  0
 12 18  1  0  0  0  0
 12 13  1  0  0  0  0
 12 44  1  0  0  0  0
 13 14  1  0  0  0  0
 13 32  1  0  0  0  0
 13 33  1  0  0  0  0
 14 15  1  0  0  0  0
 14 34  1  0  0  0  0
 14 35  1  0  0  0  0
 15 16  1  0  0  0  0
 15 36  1  0  0  0  0
 15 37  1  0  0  0  0
 16 17  1  0  0  0  0
 16 18  1  0  0  0  0
 16 38  1  0  0  0  0
 17 39  1  0  0  0  0
 17 40  1  0  0  0  0
 17 41  1  0  0  0  0
 18 42  1  0  0  0  0
 18 43  1  0  0  0  0
 19 20  1  0  0  0  0
M  CHG  1   8  -1
M  CHG  1  12   1
M  END
> <s_m_source_file>
AV-unprocessed.smi

> <i_m_source_file_index>
2083

> <i_lp_mmshare_version>
43012

> <i_f3d_flags>
0

> <s_epik_input>
W0NIM11jMVtjSF1jKG5vMSlbTkhdQyg9TylbTkhdW0NIMl1bQ0BIXShbQ0gzXSlOMltDSDJdW0NIMl1bQ0gyXVtDQEBIXShbQ0gzXSlbQ0gyXTI=

> <s_epik_cmdline>
J2VwaWtfcHl0aG9uJywgJy1waCcsICc3LjAnLCAnLXRuJywgJzgnLCAnLW1hJywgJzIwMCcsICctbWV0YWxfYmluZGluZycsICctaW1hZScsICc8aW5maWxlLm1hZT4nLCAnLW9tYWUnLCAnPG91dGZpbGUubWFlPic=

> <r_epik_Ionization_Penalty>
6.76934

> <r_epik_Ionization_Penalty_Charging>
6.76934

> <r_epik_Ionization_Penalty_Neutral>
5.77849e-06

> <r_epik_State_Penalty>
6.79457

> <r_epik_Charging_Adjusted_Penalty>
13.5639

> <i_epik_Tot_Q>
0

> <i_epik_Tot_abs_Q>
2

> <r_epik_Metal_State_Penalty>
2.72837

> <b_epik_Metal_Only>
1

> <s_lp_Force_Field>
OPLS_2005

> <r_lp_Energy>
16.9315

> <b_lp_Chiralities_Consistent>
1

> <s_lp_Variant>
AV-unprocessed.smi:2083-23

> <Gold.Version>
5.8.1

> <Gold.Id.Protein>
6NUR|6NUR_protein|mol2

> <Gold.PLP.Fitness>
38.0143

> <Gold.PLP.PLP>
-28.8004

> <Gold.PLP.part.hbond>
-3.0000

> <Gold.PLP.part.metal>
0.0000

> <Gold.PLP.part.buried>
-3.1672

> <Gold.PLP.part.nonpolar>
-22.9236

> <Gold.PLP.part.repulsive>
0.1082

> <Gold.PLP.ligand.clash>
0.0000

> <Gold.PLP.ligand.torsion>
1.4729

> <Gold.PLP.Chemscore.Hbond>
4.0000

> <Gold.PLP.Chemscore.CHOScore>
0.0000

> <Gold.PLP.Chemscore.Metal>
0.0000

> <Gold.Chemscore.Hbonds>
donor molecule, donor type, donor heavy atom, donor atom, acceptor molecule, acceptor atom, score
      L1  H    12    44       P1  7948  2.00
      P1  H  7997  8010       L1    20  1.00
      P1  H 10752 10765       L1     7  0.34

> <Gold.PLP.Chemscore.Internal.Correction>
0.1596

> <Gold.Rescore>
     Score         DG    S(hbond)    S(metal)    S(lipo)     H(rot)  DE(clash)    DE(int)     intcor
     16.56     -18.26       2.88        0.00      60.41       1.52       0.19       1.51       ----

> <Gold.Chemscore.Fitness>
16.5635

> <Gold.Chemscore.DG>
-18.2640

> <Gold.Chemscore.ZeroCoef>
-5.4800

> <Gold.Chemscore.Hbond>
2.8757

> <Gold.Chemscore.Metal>
0.0000

> <Gold.Chemscore.Lipo>
60.4096

> <Gold.Chemscore.Internal_Hbond>
0.0000

> <Gold.Chemscore.DEClash>
0.1911

> <Gold.Chemscore.DEInternal>
1.5094

> <Gold.Chemscore.Rot>
1.5190

> <Gold.Chemscore.Internal.Correction>
   9.000000E+99

> <Gold.Chemscore.Hbonds>
donor molecule, donor type, donor heavy atom, donor atom, acceptor molecule, acceptor atom, score
      L1  H    12    44       P1  7948  0.49
      P1  H  7997  8010       L1    20  0.72
      P1  H 10752 10765       L1     7  0.17

> <Gold.Chemscore.Hbond.Weighted>
-9.6047

> <Gold.Chemscore.Metal.Weighted>
-0.0000

> <Gold.Chemscore.Lipo.Weighted>
-7.0679

> <Gold.Chemscore.Internal_Hbond.Weighted>
0.0000

> <Gold.Chemscore.DEClash.Weighted>
0.1911

> <Gold.Chemscore.DEInternal.Weighted>
1.5094

> <Gold.Chemscore.Rot.Weighted>
3.8886

> <Gold.Chemscore.Internal.Correction.Weighted>
   9.000000E+99

> <Gold.Protein.RotatedTorsions>
[ 6907 6896 6895 6894 ] final  -33.59 input  -60.11 | X-H torsion
[ 7974 7965 7964 7962 ] final -118.08 input  175.53 | X-H torsion
[ 8008 7997 7996 7995 ] final   68.94 input   59.86 | X-H torsion
[ 10167 10162 10161 10158 ] final   42.86 input  -65.29 | X-H torsion
[ 10718 10713 10712 10709 ] final  -94.05 input   66.30 | X-H torsion
[ 10763 10752 10751 10750 ] final -146.90 input  -60.55 | X-H torsion
[ 11005 11000 10999 10996 ] final -144.62 input  -57.11 | X-H torsion

> <Gold.Protein.ActiveResidues>
 VAL166  LYS551  ARG553  GLY616  TRP617  ASP618  TYR619  PRO620  LYS621  CYS622 
 ASP623  PHE694  ASN695  SER759  ASP760  ASP761  ALA762  ILE779  LEU786  VAL792 
 PHE793  MET794  SER795  GLU796  ALA797  LYS798  CYS799  TRP800  GLU811  SER814 

> <Gold.Protein.RotatedAtoms>
  151.0636  134.9752  159.8272 H   0  0  0  0  0  0  0  0  0  0  0  0  # atno 6907 bound_to 6896
  152.5399  134.2387  159.8863 H   0  0  0  0  0  0  0  0  0  0  0  0  # atno 6908 bound_to 6896
  151.2408  133.4357  159.2641 H   0  0  0  0  0  0  0  0  0  0  0  0  # atno 6909 bound_to 6896
  145.0779  140.8405  143.4056 H   0  0  0  0  0  0  0  0  0  0  0  0  # atno 7974 bound_to 7965
  155.7160  140.3494  155.4995 H   0  0  0  0  0  0  0  0  0  0  0  0  # atno 8008 bound_to 7997
  155.9312  140.1084  157.1152 H   0  0  0  0  0  0  0  0  0  0  0  0  # atno 8009 bound_to 7997
  154.4086  140.1231  156.4792 H   0  0  0  0  0  0  0  0  0  0  0  0  # atno 8010 bound_to 7997
  140.3501  144.2361  150.6146 H   0  0  0  0  0  0  0  0  0  0  0  0  # atno 10167 bound_to 10162
  156.0021  130.5052  150.5868 H   0  0  0  0  0  0  0  0  0  0  0  0  # atno 10718 bound_to 10713
  154.8313  135.3374  154.6734 H   0  0  0  0  0  0  0  0  0  0  0  0  # atno 10763 bound_to 10752
  153.7353  135.6949  153.4984 H   0  0  0  0  0  0  0  0  0  0  0  0  # atno 10764 bound_to 10752
  153.2282  135.4425  155.0518 H   0  0  0  0  0  0  0  0  0  0  0  0  # atno 10765 bound_to 10752
  140.8006  134.2862  157.4980 H   0  0  0  0  0  0  0  0  0  0  0  0  # atno 11005 bound_to 11000
  145.1213  139.2691  143.5587 LP  0  0  0  0  0  0  0  0  0  0  0  0  # atno 17320 bound_to 7965
  146.3530  140.0838  142.8616 LP  0  0  0  0  0  0  0  0  0  0  0  0  # atno 17321 bound_to 7965
  140.5227  143.2262  151.8364 LP  0  0  0  0  0  0  0  0  0  0  0  0  # atno 17342 bound_to 10162
  139.4827  144.4817  151.9298 LP  0  0  0  0  0  0  0  0  0  0  0  0  # atno 17343 bound_to 10162
  157.3740  131.0770  151.1534 LP  0  0  0  0  0  0  0  0  0  0  0  0  # atno 17370 bound_to 10713
  157.2278  130.6511  149.5837 LP  0  0  0  0  0  0  0  0  0  0  0  0  # atno 17371 bound_to 10713
  139.8722  134.9427  156.3832 LP  0  0  0  0  0  0  0  0  0  0  0  0  # atno 17394 bound_to 11000
  140.9299  133.7586  156.0011 LP  0  0  0  0  0  0  0  0  0  0  0  0  # atno 17395 bound_to 11000

$$$$
