AV-unprocessed.smi:3287|AV-procd|sdf|12600|dock4
  -GOLD-   2272018523D 1   1.00000     0.00000
 Structure written by MMmdl.
 43 44  0  0  0  0  0  0  0  0  2 V2000
  152.1774  143.7416  161.2540 C   0  0  0  0  0  0  0  0  0  0  0  0
  152.9821  143.6791  159.9400 C   0  0  2  0  0  0  0  0  0  0  0  0
  152.5079  144.7452  158.9310 C   0  0  0  0  0  0  0  0  0  0  0  0
  151.1450  144.3994  158.3064 C   0  0  0  0  0  0  0  0  0  0  0  0
  151.1648  143.0063  157.6445 C   0  0  2  0  0  0  0  0  0  0  0  0
  149.8382  142.6431  157.1001 N   0  3  0  0  0  0  0  0  0  0  0  0
  149.7478  141.2916  156.5064 C   0  0  0  0  0  0  0  0  0  0  0  0
  148.7982  141.2712  155.2963 C   0  0  2  0  0  0  0  0  0  0  0  0
  149.2056  142.2697  154.3803 O   0  0  0  0  0  0  0  0  0  0  0  0
  147.3534  141.4598  155.7313 C   0  0  0  0  0  0  0  0  0  0  0  0
  147.0284  141.5889  157.0980 C   0  0  0  0  0  0  0  0  0  0  0  0
  145.6770  141.7708  157.4553 C   0  0  0  0  0  0  0  0  0  0  0  0
  144.6735  141.8310  156.5542 N   0  0  0  0  0  0  0  0  0  0  0  0
  144.9896  141.7095  155.2474 C   0  0  0  0  0  0  0  0  0  0  0  0
  146.3077  141.5247  154.7847 C   0  0  0  0  0  0  0  0  0  0  0  0
  151.6253  141.9360  158.6515 C   0  0  0  0  0  0  0  0  0  0  0  0
  152.9957  142.2825  159.2679 C   0  0  2  0  0  0  0  0  0  0  0  0
  153.5045  141.1654  160.1940 C   0  0  0  0  0  0  0  0  0  0  0  0
  151.1356  143.4545  161.1147 H   0  0  0  0  0  0  0  0  0  0  0  0
  152.1859  144.7511  161.6659 H   0  0  0  0  0  0  0  0  0  0  0  0
  152.6024  143.0874  162.0148 H   0  0  0  0  0  0  0  0  0  0  0  0
  154.0122  143.9261  160.2010 H   0  0  0  0  0  0  0  0  0  0  0  0
  152.4612  145.7238  159.4102 H   0  0  0  0  0  0  0  0  0  0  0  0
  153.2479  144.8373  158.1347 H   0  0  0  0  0  0  0  0  0  0  0  0
  150.3679  144.4381  159.0706 H   0  0  0  0  0  0  0  0  0  0  0  0
  150.8907  145.1661  157.5747 H   0  0  0  0  0  0  0  0  0  0  0  0
  151.8796  143.0162  156.8200 H   0  0  0  0  0  0  0  0  0  0  0  0
  149.1762  142.6723  157.8628 H   0  0  0  0  0  0  0  0  0  0  0  0
  150.7418  140.9748  156.1906 H   0  0  0  0  0  0  0  0  0  0  0  0
  149.4101  140.5806  157.2621 H   0  0  0  0  0  0  0  0  0  0  0  0
  148.8831  140.3093  154.7881 H   0  0  0  0  0  0  0  0  0  0  0  0
  148.9711  143.1146  154.7340 H   0  0  0  0  0  0  0  0  0  0  0  0
  147.7925  141.5511  157.8603 H   0  0  0  0  0  0  0  0  0  0  0  0
  145.3954  141.8724  158.4928 H   0  0  0  0  0  0  0  0  0  0  0  0
  144.1679  141.7619  154.5485 H   0  0  0  0  0  0  0  0  0  0  0  0
  146.5060  141.4370  153.7264 H   0  0  0  0  0  0  0  0  0  0  0  0
  150.8807  141.8192  159.4397 H   0  0  0  0  0  0  0  0  0  0  0  0
  151.6875  140.9696  158.1491 H   0  0  0  0  0  0  0  0  0  0  0  0
  153.7083  142.3390  158.4432 H   0  0  0  0  0  0  0  0  0  0  0  0
  152.8102  140.9685  161.0109 H   0  0  0  0  0  0  0  0  0  0  0  0
  154.4706  141.4240  160.6283 H   0  0  0  0  0  0  0  0  0  0  0  0
  153.6324  140.2327  159.6440 H   0  0  0  0  0  0  0  0  0  0  0  0
  149.5638  143.3308  156.4134 H   0  0  0  0  0  0  0  0  0  0  0  0
  1  2  1  0  0  0  0
  1 19  1  0  0  0  0
  1 20  1  0  0  0  0
  1 21  1  0  0  0  0
  2 17  1  0  0  0  0
  2  3  1  0  0  0  0
  2 22  1  0  0  0  0
  3  4  1  0  0  0  0
  3 23  1  0  0  0  0
  3 24  1  0  0  0  0
  4  5  1  0  0  0  0
  4 25  1  0  0  0  0
  4 26  1  0  0  0  0
  5  6  1  0  0  0  0
  5 16  1  0  0  0  0
  5 27  1  0  0  0  0
  6  7  1  0  0  0  0
  6 28  1  0  0  0  0
  6 43  1  0  0  0  0
  7  8  1  0  0  0  0
  7 29  1  0  0  0  0
  7 30  1  0  0  0  0
  8  9  1  0  0  0  0
  8 10  1  0  0  0  0
  8 31  1  0  0  0  0
  9 32  1  0  0  0  0
 10 15  1  0  0  0  0
 10 11  2  0  0  0  0
 11 12  1  0  0  0  0
 11 33  1  0  0  0  0
 12 13  2  0  0  0  0
 12 34  1  0  0  0  0
 13 14  1  0  0  0  0
 14 15  2  0  0  0  0
 14 35  1  0  0  0  0
 15 36  1  0  0  0  0
 16 17  1  0  0  0  0
 16 37  1  0  0  0  0
 16 38  1  0  0  0  0
 17 18  1  0  0  0  0
 17 39  1  0  0  0  0
 18 40  1  0  0  0  0
 18 41  1  0  0  0  0
 18 42  1  0  0  0  0
M  CHG  1   6   1
M  END
> <s_m_source_file>
AV-unprocessed.smi

> <i_m_source_file_index>
3287

> <i_lp_mmshare_version>
43012

> <i_f3d_flags>
0

> <s_epik_input>
W0NIM11bQ0BASF0xW0NIMl1bQ0gyXVtDQEhdKFtDSDJdW0NASF0xW0NIM10pW05IXVtDSDJdW0NASF0oW09IXSljMltjSF1bY0hdbltjSF1bY0hdMg==

> <s_epik_cmdline>
J2VwaWtfcHl0aG9uJywgJy1waCcsICc3LjAnLCAnLXRuJywgJzgnLCAnLW1hJywgJzIwMCcsICctbWV0YWxfYmluZGluZycsICctaW1hZScsICc8aW5maWxlLm1hZT4nLCAnLW9tYWUnLCAnPG91dGZpbGUubWFlPic=

> <r_lp_tautomer_probability>
1

> <r_epik_Ionization_Penalty>
0.00537262

> <r_epik_Ionization_Penalty_Charging>
0.00321624

> <r_epik_Ionization_Penalty_Neutral>
0.00215638

> <r_epik_State_Penalty>
-0

> <r_epik_Charging_Adjusted_Penalty>
0.00321624

> <i_epik_Tot_Q>
1

> <i_epik_Tot_abs_Q>
1

> <r_epik_Metal_State_Penalty>
-0

> <b_epik_Metal_Only>
0

> <s_lp_Force_Field>
OPLS_2005

> <r_lp_Energy>
17.0862

> <b_lp_Chiralities_Consistent>
1

> <s_lp_Variant>
AV-unprocessed.smi:3287-11

> <Gold.Version>
5.8.1

> <Gold.Id.Protein>
6NUR|6NUR_protein|mol2

> <Gold.PLP.Fitness>
50.6023

> <Gold.PLP.PLP>
-38.7671

> <Gold.PLP.part.hbond>
-3.0708

> <Gold.PLP.part.metal>
0.0000

> <Gold.PLP.part.buried>
-4.4462

> <Gold.PLP.part.nonpolar>
-31.0581

> <Gold.PLP.part.repulsive>
0.0381

> <Gold.PLP.ligand.clash>
0.0000

> <Gold.PLP.ligand.torsion>
0.2976

> <Gold.PLP.Chemscore.Hbond>
3.1638

> <Gold.PLP.Chemscore.CHOScore>
0.9688

> <Gold.PLP.Chemscore.Metal>
0.0000

> <Gold.Chemscore.Hbonds>
donor molecule, donor type, donor heavy atom, donor atom, acceptor molecule, acceptor atom, score
      L1  H     6    43       P1  8028  2.00
      L1  H     9    32       P1  8028  1.00
      P1  H  8011  8017       L1     9  0.17
      L1  C    14    35       P1 10175  0.92

> <Gold.PLP.Chemscore.Internal.Correction>
0.0326

> <Gold.Rescore>
     Score         DG    S(hbond)    S(metal)    S(lipo)     H(rot)  DE(clash)    DE(int)     intcor
     20.53     -20.97       2.16        0.00     112.38       1.90       0.05       0.39       ----

> <Gold.Chemscore.Fitness>
20.5308

> <Gold.Chemscore.DG>
-20.9650

> <Gold.Chemscore.ZeroCoef>
-5.4800

> <Gold.Chemscore.Hbond>
2.1586

> <Gold.Chemscore.Metal>
0.0000

> <Gold.Chemscore.Lipo>
112.3766

> <Gold.Chemscore.Internal_Hbond>
0.0000

> <Gold.Chemscore.DEClash>
0.0458

> <Gold.Chemscore.DEInternal>
0.3885

> <Gold.Chemscore.Rot>
1.9035

> <Gold.Chemscore.Internal.Correction>
   9.000000E+99

> <Gold.Chemscore.Hbonds>
donor molecule, donor type, donor heavy atom, donor atom, acceptor molecule, acceptor atom, score
      L1  H     6    43       P1  8028  1.00
      L1  H     9    32       P1  8028  1.00
      P1  H  8011  8017       L1     9  0.13

> <Gold.Chemscore.Hbond.Weighted>
-7.2098

> <Gold.Chemscore.Metal.Weighted>
-0.0000

> <Gold.Chemscore.Lipo.Weighted>
-13.1481

> <Gold.Chemscore.Internal_Hbond.Weighted>
0.0000

> <Gold.Chemscore.DEClash.Weighted>
0.0458

> <Gold.Chemscore.DEInternal.Weighted>
0.3885

> <Gold.Chemscore.Rot.Weighted>
4.8729

> <Gold.Chemscore.Internal.Correction.Weighted>
   9.000000E+99

> <Gold.Protein.RotatedTorsions>
[ 6907 6896 6895 6894 ] final   20.91 input  -60.11 | X-H torsion
[ 7974 7965 7964 7962 ] final  -80.51 input  175.53 | X-H torsion
[ 8008 7997 7996 7995 ] final  -42.21 input   59.86 | X-H torsion
[ 10167 10162 10161 10158 ] final  -10.00 input  -65.29 | X-H torsion
[ 10718 10713 10712 10709 ] final  -72.24 input   66.30 | X-H torsion
[ 10763 10752 10751 10750 ] final  -52.77 input  -60.55 | X-H torsion
[ 11005 11000 10999 10996 ] final  -48.65 input  -57.11 | X-H torsion

> <Gold.Protein.ActiveResidues>
 VAL166  LYS551  ARG553  GLY616  TRP617  ASP618  TYR619  PRO620  LYS621  CYS622 
 ASP623  PHE694  ASN695  SER759  ASP760  ASP761  ALA762  ILE779  LEU786  VAL792 
 PHE793  MET794  SER795  GLU796  ALA797  LYS798  CYS799  TRP800  GLU811  SER814 

> <Gold.Protein.RotatedAtoms>
  151.9037  135.0368  160.0508 H   0  0  0  0  0  0  0  0  0  0  0  0  # atno 6907 bound_to 6896
  152.2337  133.5074  159.5239 H   0  0  0  0  0  0  0  0  0  0  0  0  # atno 6908 bound_to 6896
  150.7033  134.1098  159.4039 H   0  0  0  0  0  0  0  0  0  0  0  0  # atno 6909 bound_to 6896
  145.5589  140.9485  143.1458 H   0  0  0  0  0  0  0  0  0  0  0  0  # atno 7974 bound_to 7965
  154.4000  140.1479  156.3317 H   0  0  0  0  0  0  0  0  0  0  0  0  # atno 8008 bound_to 7997
  155.8437  140.3461  155.5627 H   0  0  0  0  0  0  0  0  0  0  0  0  # atno 8009 bound_to 7997
  155.8059  140.0877  157.1921 H   0  0  0  0  0  0  0  0  0  0  0  0  # atno 8010 bound_to 7997
  140.7102  143.5795  150.9006 H   0  0  0  0  0  0  0  0  0  0  0  0  # atno 10167 bound_to 10162
  156.0328  130.4368  150.2564 H   0  0  0  0  0  0  0  0  0  0  0  0  # atno 10718 bound_to 10713
  154.1481  135.6494  153.4957 H   0  0  0  0  0  0  0  0  0  0  0  0  # atno 10763 bound_to 10752
  153.0146  135.5331  154.6837 H   0  0  0  0  0  0  0  0  0  0  0  0  # atno 10764 bound_to 10752
  154.6117  135.2954  155.0396 H   0  0  0  0  0  0  0  0  0  0  0  0  # atno 10765 bound_to 10752
  141.0713  133.6678  156.3472 H   0  0  0  0  0  0  0  0  0  0  0  0  # atno 11005 bound_to 11000
  144.7492  139.7238  143.7280 LP  0  0  0  0  0  0  0  0  0  0  0  0  # atno 17320 bound_to 7965
  146.1865  139.5082  142.9833 LP  0  0  0  0  0  0  0  0  0  0  0  0  # atno 17321 bound_to 7965
  139.9521  143.6260  152.3026 LP  0  0  0  0  0  0  0  0  0  0  0  0  # atno 17342 bound_to 10162
  139.6782  144.7657  151.1657 LP  0  0  0  0  0  0  0  0  0  0  0  0  # atno 17343 bound_to 10162
  157.0665  131.0104  151.3205 LP  0  0  0  0  0  0  0  0  0  0  0  0  # atno 17370 bound_to 10713
  157.5031  130.7892  149.7626 LP  0  0  0  0  0  0  0  0  0  0  0  0  # atno 17371 bound_to 10713
  140.5667  134.5881  157.5447 LP  0  0  0  0  0  0  0  0  0  0  0  0  # atno 17394 bound_to 11000
  139.9526  134.7589  156.0413 LP  0  0  0  0  0  0  0  0  0  0  0  0  # atno 17395 bound_to 11000

$$$$
