AV-unprocessed.smi:2489|AV-procd|sdf|9801|dock2
  -GOLD-   2272013433D 1   1.00000     0.00000
 Structure written by MMmdl.
 33 34  0  0  0  0  0  0  0  0  1 V2000
  152.4954  142.6003  162.0791 C   0  0  0  0  0  0  0  0  0  0  0  0
  153.1413  142.7490  160.8226 O   0  0  0  0  0  0  0  0  0  0  0  0
  152.3537  143.0521  159.7359 C   0  0  0  0  0  0  0  0  0  0  0  0
  152.2024  144.4048  159.2052 C   0  0  0  0  0  0  0  0  0  0  0  0
  151.4092  144.5836  158.1385 C   0  0  0  0  0  0  0  0  0  0  0  0
  150.7370  143.5330  157.5314 N   0  0  0  0  0  0  0  0  0  0  0  0
  150.8359  142.2071  157.9897 C   0  0  0  0  0  0  0  0  0  0  0  0
  150.2324  141.1800  157.4655 N   0  0  0  0  0  0  0  0  0  0  0  0
  149.4017  141.2831  156.3527 C   0  0  0  0  0  0  0  0  0  0  0  0
  148.2041  141.5771  156.2953 O   0  0  0  0  0  0  0  0  0  0  0  0
  150.1572  140.9791  155.0519 C   0  0  2  0  0  0  0  0  0  0  0  0
  149.5947  139.7620  154.2965 C   0  0  0  0  0  0  0  0  0  0  0  0
  150.6777  138.7130  154.4515 C   0  0  0  0  0  0  0  0  0  0  0  0
  151.9343  139.5704  154.5452 C   0  0  2  0  0  0  0  0  0  0  0  0
  153.1341  138.8565  155.1765 C   0  0  0  0  0  0  0  0  0  0  0  0
  151.5144  140.6553  155.3583 O   0  0  0  0  0  0  0  0  0  0  0  0
  151.6983  142.0232  159.1490 C   0  0  0  0  0  0  0  0  0  0  0  0
  153.2407  142.3664  162.8392 H   0  0  0  0  0  0  0  0  0  0  0  0
  151.7741  141.7819  162.0648 H   0  0  0  0  0  0  0  0  0  0  0  0
  151.9948  143.5206  162.3837 H   0  0  0  0  0  0  0  0  0  0  0  0
  152.7010  145.2581  159.6391 H   0  0  0  0  0  0  0  0  0  0  0  0
  151.2393  145.5477  157.6825 H   0  0  0  0  0  0  0  0  0  0  0  0
  150.1462  141.8585  154.4056 H   0  0  0  0  0  0  0  0  0  0  0  0
  148.6327  139.4104  154.6726 H   0  0  0  0  0  0  0  0  0  0  0  0
  149.4630  140.0119  153.2430 H   0  0  0  0  0  0  0  0  0  0  0  0
  150.5254  138.1571  155.3778 H   0  0  0  0  0  0  0  0  0  0  0  0
  150.7055  138.0021  153.6254 H   0  0  0  0  0  0  0  0  0  0  0  0
  152.1983  139.9542  153.5581 H   0  0  0  0  0  0  0  0  0  0  0  0
  153.4417  138.0018  154.5736 H   0  0  0  0  0  0  0  0  0  0  0  0
  152.8965  138.4935  156.1769 H   0  0  0  0  0  0  0  0  0  0  0  0
  153.9870  139.5302  155.2606 H   0  0  0  0  0  0  0  0  0  0  0  0
  151.8400  141.0404  159.5758 H   0  0  0  0  0  0  0  0  0  0  0  0
  150.1619  143.7674  156.7346 H   0  0  0  0  0  0  0  0  0  0  0  0
  1  2  1  0  0  0  0
  1 18  1  0  0  0  0
  1 19  1  0  0  0  0
  1 20  1  0  0  0  0
  2  3  1  0  0  0  0
  3 17  2  0  0  0  0
  3  4  1  0  0  0  0
  4  5  2  0  0  0  0
  4 21  1  0  0  0  0
  5  6  1  0  0  0  0
  5 22  1  0  0  0  0
  6  7  1  0  0  0  0
  6 33  1  0  0  0  0
  7  8  2  0  0  0  0
  7 17  1  0  0  0  0
  8  9  1  0  0  0  0
  9 10  2  0  0  0  0
  9 11  1  0  0  0  0
 11 16  1  0  0  0  0
 11 12  1  0  0  0  0
 11 23  1  0  0  0  0
 12 13  1  0  0  0  0
 12 24  1  0  0  0  0
 12 25  1  0  0  0  0
 13 14  1  0  0  0  0
 13 26  1  0  0  0  0
 13 27  1  0  0  0  0
 14 15  1  0  0  0  0
 14 16  1  0  0  0  0
 14 28  1  0  0  0  0
 15 29  1  0  0  0  0
 15 30  1  0  0  0  0
 15 31  1  0  0  0  0
 17 32  1  0  0  0  0
M  END
> <s_m_source_file>
AV-unprocessed.smi

> <i_m_source_file_index>
2489

> <i_lp_mmshare_version>
43012

> <i_f3d_flags>
0

> <s_epik_input>
W0NIM11PYzFbY0hdW2NIXW5jKFtjSF0xKVtOSF1DKD1PKVtDQEBIXTJbQ0gyXVtDSDJdW0NASF0oTzIpW0NIM10=

> <s_epik_cmdline>
J2VwaWtfcHl0aG9uJywgJy1waCcsICc3LjAnLCAnLXRuJywgJzgnLCAnLW1hJywgJzIwMCcsICctbWV0YWxfYmluZGluZycsICctaW1hZScsICc8aW5maWxlLm1hZT4nLCAnLW9tYWUnLCAnPG91dGZpbGUubWFlPic=

> <r_epik_Ionization_Penalty>
0.410206

> <r_epik_Ionization_Penalty_Charging>
0.410206

> <r_epik_Ionization_Penalty_Neutral>
6.57528e-13

> <r_epik_State_Penalty>
1.30987

> <r_epik_Charging_Adjusted_Penalty>
1.72007

> <i_epik_Tot_Q>
0

> <i_epik_Tot_abs_Q>
0

> <r_epik_Metal_State_Penalty>
1.32171

> <b_epik_Metal_Only>
0

> <s_lp_Force_Field>
OPLS_2005

> <r_lp_Energy>
35.4329

> <b_lp_Chiralities_Consistent>
1

> <s_lp_Variant>
AV-unprocessed.smi:2489-7

> <Gold.Version>
5.8.1

> <Gold.Id.Protein>
6NUR|6NUR_protein|mol2

> <Gold.PLP.Fitness>
40.7702

> <Gold.PLP.PLP>
-39.8476

> <Gold.PLP.part.hbond>
-2.0000

> <Gold.PLP.part.metal>
0.0000

> <Gold.PLP.part.buried>
-3.5716

> <Gold.PLP.part.nonpolar>
-34.3329

> <Gold.PLP.part.repulsive>
0.1912

> <Gold.PLP.ligand.clash>
0.0000

> <Gold.PLP.ligand.torsion>
1.0426

> <Gold.PLP.Chemscore.Hbond>
1.0000

> <Gold.PLP.Chemscore.CHOScore>
0.0000

> <Gold.PLP.Chemscore.Metal>
0.0000

> <Gold.Chemscore.Hbonds>
donor molecule, donor type, donor heavy atom, donor atom, acceptor molecule, acceptor atom, score
      L1  H     6    33       P1  8028  1.00

> <Gold.PLP.Chemscore.Internal.Correction>
0.0079

> <Gold.Rescore>
     Score         DG    S(hbond)    S(metal)    S(lipo)     H(rot)  DE(clash)    DE(int)     intcor
     15.68     -16.73       0.97        0.00      95.22       1.23       0.03       1.03       ----

> <Gold.Chemscore.Fitness>
15.6831

> <Gold.Chemscore.DG>
-16.7341

> <Gold.Chemscore.ZeroCoef>
-5.4800

> <Gold.Chemscore.Hbond>
0.9740

> <Gold.Chemscore.Metal>
0.0000

> <Gold.Chemscore.Lipo>
95.2167

> <Gold.Chemscore.Internal_Hbond>
0.0000

> <Gold.Chemscore.DEClash>
0.0251

> <Gold.Chemscore.DEInternal>
1.0259

> <Gold.Chemscore.Rot>
1.2264

> <Gold.Chemscore.Internal.Correction>
   9.000000E+99

> <Gold.Chemscore.Hbonds>
donor molecule, donor type, donor heavy atom, donor atom, acceptor molecule, acceptor atom, score
      L1  H     6    33       P1  8028  0.99

> <Gold.Chemscore.Hbond.Weighted>
-3.2533

> <Gold.Chemscore.Metal.Weighted>
-0.0000

> <Gold.Chemscore.Lipo.Weighted>
-11.1404

> <Gold.Chemscore.Internal_Hbond.Weighted>
0.0000

> <Gold.Chemscore.DEClash.Weighted>
0.0251

> <Gold.Chemscore.DEInternal.Weighted>
1.0259

> <Gold.Chemscore.Rot.Weighted>
3.1396

> <Gold.Chemscore.Internal.Correction.Weighted>
   9.000000E+99

> <Gold.Protein.RotatedTorsions>
[ 6907 6896 6895 6894 ] final  -58.61 input  -60.11 | X-H torsion
[ 7974 7965 7964 7962 ] final  130.69 input  175.53 | X-H torsion
[ 8008 7997 7996 7995 ] final -104.50 input   59.86 | X-H torsion
[ 10167 10162 10161 10158 ] final   35.39 input  -65.29 | X-H torsion
[ 10718 10713 10712 10709 ] final  137.95 input   66.30 | X-H torsion
[ 10763 10752 10751 10750 ] final  120.23 input  -60.55 | X-H torsion
[ 11005 11000 10999 10996 ] final  -51.68 input  -57.11 | X-H torsion

> <Gold.Protein.ActiveResidues>
 VAL166  LYS551  ARG553  GLY616  TRP617  ASP618  TYR619  PRO620  LYS621  CYS622 
 ASP623  PHE694  ASN695  SER759  ASP760  ASP761  ALA762  ILE779  LEU786  VAL792 
 PHE793  MET794  SER795  GLU796  ALA797  LYS798  CYS799  TRP800  GLU811  SER814 

> <Gold.Protein.RotatedAtoms>
  150.7994  134.7077  159.6585 H   0  0  0  0  0  0  0  0  0  0  0  0  # atno 6907 bound_to 6896
  152.4109  134.6122  160.0038 H   0  0  0  0  0  0  0  0  0  0  0  0  # atno 6908 bound_to 6896
  151.6365  133.3291  159.3156 H   0  0  0  0  0  0  0  0  0  0  0  0  # atno 6909 bound_to 6896
  145.0153  139.4182  143.5224 H   0  0  0  0  0  0  0  0  0  0  0  0  # atno 7974 bound_to 7965
  154.8862  140.0417  157.1812 H   0  0  0  0  0  0  0  0  0  0  0  0  # atno 8008 bound_to 7997
  154.8588  140.2940  155.5531 H   0  0  0  0  0  0  0  0  0  0  0  0  # atno 8009 bound_to 7997
  156.2998  140.2451  156.3558 H   0  0  0  0  0  0  0  0  0  0  0  0  # atno 8010 bound_to 7997
  140.4226  144.1438  150.6149 H   0  0  0  0  0  0  0  0  0  0  0  0  # atno 10167 bound_to 10162
  157.4305  131.1048  151.0255 H   0  0  0  0  0  0  0  0  0  0  0  0  # atno 10718 bound_to 10713
  153.5953  135.3458  155.2925 H   0  0  0  0  0  0  0  0  0  0  0  0  # atno 10763 bound_to 10752
  154.8645  135.4214  154.2472 H   0  0  0  0  0  0  0  0  0  0  0  0  # atno 10764 bound_to 10752
  153.3288  135.7043  153.7037 H   0  0  0  0  0  0  0  0  0  0  0  0  # atno 10765 bound_to 10752
  141.0884  133.6637  156.3913 H   0  0  0  0  0  0  0  0  0  0  0  0  # atno 11005 bound_to 11000
  146.3477  139.9620  142.8716 LP  0  0  0  0  0  0  0  0  0  0  0  0  # atno 17320 bound_to 7965
  145.1968  140.9837  143.4179 LP  0  0  0  0  0  0  0  0  0  0  0  0  # atno 17321 bound_to 7965
  140.4517  143.2484  151.9339 LP  0  0  0  0  0  0  0  0  0  0  0  0  # atno 17342 bound_to 10162
  139.4783  144.5556  151.8319 LP  0  0  0  0  0  0  0  0  0  0  0  0  # atno 17343 bound_to 10162
  157.1153  130.6039  149.5492 LP  0  0  0  0  0  0  0  0  0  0  0  0  # atno 17370 bound_to 10713
  155.9912  130.4965  150.7287 LP  0  0  0  0  0  0  0  0  0  0  0  0  # atno 17371 bound_to 10713
  140.5309  134.6213  157.5349 LP  0  0  0  0  0  0  0  0  0  0  0  0  # atno 17394 bound_to 11000
  139.9706  134.7300  156.0050 LP  0  0  0  0  0  0  0  0  0  0  0  0  # atno 17395 bound_to 11000

$$$$
