AV-unprocessed.smi:2749|AV-procd|sdf|10585|dock1
  -GOLD-   2272015 33D 1   1.00000     0.00000
 Structure written by MMmdl.
 32 34  0  0  0  0  0  0  0  0  1 V2000
  150.5584  140.7824  157.0617 O   0  0  0  0  0  0  0  0  0  0  0  0
  150.1717  141.9122  156.7674 C   0  0  0  0  0  0  0  0  0  0  0  0
  150.3829  142.9553  157.5990 N   0  0  0  0  0  0  0  0  0  0  0  0
  151.0242  143.0400  158.8705 C   0  0  0  0  0  0  0  0  0  0  0  0
  150.9488  144.3139  159.4791 C   0  0  0  0  0  0  0  0  0  0  0  0
  151.5415  144.5203  160.7402 C   0  0  0  0  0  0  0  0  0  0  0  0
  152.1954  143.4430  161.3635 C   0  0  0  0  0  0  0  0  0  0  0  0
  152.7797  143.5923  162.5759 F   0  0  0  0  0  0  0  0  0  0  0  0
  152.2257  142.2060  160.6948 C   0  0  0  0  0  0  0  0  0  0  0  0
  151.6581  142.0086  159.4859 N   0  0  0  0  0  0  0  0  0  0  0  0
  149.5216  142.1856  155.6247 N   0  0  0  0  0  0  0  0  0  0  0  0
  149.1811  141.2301  154.5747 C   0  0  2  0  0  0  0  0  0  0  0  0
  147.9323  141.6586  153.7972 C   0  0  0  0  0  0  0  0  0  0  0  0
  146.9896  140.4711  154.0352 C   0  0  1  0  0  0  0  0  0  0  0  0
  147.4545  139.2063  153.2983 C   0  0  0  0  0  0  0  0  0  0  0  0
  148.6677  138.7861  154.1287 C   0  0  0  0  0  0  0  0  0  0  0  0
  148.7192  139.8966  155.1863 C   0  0  2  0  0  0  0  0  0  0  0  0
  147.3333  140.1378  155.3678 O   0  0  0  0  0  0  0  0  0  0  0  0
  150.0036  143.8305  157.2682 H   0  0  0  0  0  0  0  0  0  0  0  0
  150.4415  145.1313  158.9869 H   0  0  0  0  0  0  0  0  0  0  0  0
  151.4938  145.4871  161.2193 H   0  0  0  0  0  0  0  0  0  0  0  0
  152.7166  141.3530  161.1398 H   0  0  0  0  0  0  0  0  0  0  0  0
  149.2406  143.1436  155.4683 H   0  0  0  0  0  0  0  0  0  0  0  0
  150.0243  141.0648  153.9018 H   0  0  0  0  0  0  0  0  0  0  0  0
  147.4990  142.5735  154.2045 H   0  0  0  0  0  0  0  0  0  0  0  0
  148.1319  141.8238  152.7379 H   0  0  0  0  0  0  0  0  0  0  0  0
  145.9353  140.7069  153.8884 H   0  0  0  0  0  0  0  0  0  0  0  0
  146.6854  138.4337  153.3280 H   0  0  0  0  0  0  0  0  0  0  0  0
  147.7023  139.4025  152.2546 H   0  0  0  0  0  0  0  0  0  0  0  0
  148.4933  137.8158  154.5951 H   0  0  0  0  0  0  0  0  0  0  0  0
  149.5846  138.7230  153.5418 H   0  0  0  0  0  0  0  0  0  0  0  0
  149.2504  139.6092  156.0947 H   0  0  0  0  0  0  0  0  0  0  0  0
  1  2  2  0  0  0  0
  2  3  1  0  0  0  0
  2 11  1  0  0  0  0
  3  4  1  0  0  0  0
  3 19  1  0  0  0  0
  4 10  1  0  0  0  0
  4  5  2  0  0  0  0
  5  6  1  0  0  0  0
  5 20  1  0  0  0  0
  6  7  2  0  0  0  0
  6 21  1  0  0  0  0
  7  8  1  0  0  0  0
  7  9  1  0  0  0  0
  9 10  2  0  0  0  0
  9 22  1  0  0  0  0
 11 12  1  0  0  0  0
 11 23  1  0  0  0  0
 12 17  1  0  0  0  0
 12 13  1  0  0  0  0
 12 24  1  0  0  0  0
 13 14  1  0  0  0  0
 13 25  1  0  0  0  0
 13 26  1  0  0  0  0
 14 18  1  0  0  0  0
 14 15  1  0  0  0  0
 14 27  1  0  0  0  0
 15 16  1  0  0  0  0
 15 28  1  0  0  0  0
 15 29  1  0  0  0  0
 16 17  1  0  0  0  0
 16 30  1  0  0  0  0
 16 31  1  0  0  0  0
 17 18  1  0  0  0  0
 17 32  1  0  0  0  0
M  END
> <s_m_source_file>
AV-unprocessed.smi

> <i_m_source_file_index>
2749

> <i_lp_mmshare_version>
43012

> <i_f3d_flags>
0

> <s_epik_input>
W0NIMl0xW0NIMl1bQ0BIXShPMilbQ0BASF0oW0NIMl1bQ0BASF0xMilbTkhdQyg9TylbTkhdYzNbY0hdW2NIXWMoRilbY0hdbjM=

> <s_epik_cmdline>
J2VwaWtfcHl0aG9uJywgJy1waCcsICc3LjAnLCAnLXRuJywgJzgnLCAnLW1hJywgJzIwMCcsICctbWV0YWxfYmluZGluZycsICctaW1hZScsICc8aW5maWxlLm1hZT4nLCAnLW9tYWUnLCAnPG91dGZpbGUubWFlPic=

> <r_lp_tautomer_probability>
1

> <r_epik_Ionization_Penalty>
3.37159e-05

> <r_epik_Ionization_Penalty_Charging>
0

> <r_epik_Ionization_Penalty_Neutral>
3.37159e-05

> <r_epik_State_Penalty>
-0

> <r_epik_Charging_Adjusted_Penalty>
0

> <i_epik_Tot_Q>
0

> <i_epik_Tot_abs_Q>
0

> <r_epik_Metal_State_Penalty>
-0

> <b_epik_Metal_Only>
0

> <s_lp_Force_Field>
OPLS_2005

> <r_lp_Energy>
42.1362

> <b_lp_Chiralities_Consistent>
1

> <s_lp_Variant>
AV-unprocessed.smi:2749-1

> <Gold.Version>
5.8.1

> <Gold.Id.Protein>
6NUR|6NUR_protein|mol2

> <Gold.PLP.Fitness>
41.1215

> <Gold.PLP.PLP>
-36.6058

> <Gold.PLP.part.hbond>
-2.0000

> <Gold.PLP.part.metal>
0.0000

> <Gold.PLP.part.buried>
-4.5907

> <Gold.PLP.part.nonpolar>
-28.7395

> <Gold.PLP.part.repulsive>
0.2381

> <Gold.PLP.ligand.clash>
0.0000

> <Gold.PLP.ligand.torsion>
0.3297

> <Gold.PLP.Chemscore.Hbond>
1.7150

> <Gold.PLP.Chemscore.CHOScore>
0.0000

> <Gold.PLP.Chemscore.Metal>
0.0000

> <Gold.Chemscore.Hbonds>
donor molecule, donor type, donor heavy atom, donor atom, acceptor molecule, acceptor atom, score
      L1  H     3    19       P1  8028  0.66
      L1  H    11    23       P1  8028  1.00

> <Gold.PLP.Chemscore.Internal.Correction>
0.0300

> <Gold.Rescore>
     Score         DG    S(hbond)    S(metal)    S(lipo)     H(rot)  DE(clash)    DE(int)     intcor
     15.37     -19.16       1.90        0.00      84.47       1.00       0.78       3.00       ----

> <Gold.Chemscore.Fitness>
15.3735

> <Gold.Chemscore.DG>
-19.1606

> <Gold.Chemscore.ZeroCoef>
-5.4800

> <Gold.Chemscore.Hbond>
1.9034

> <Gold.Chemscore.Metal>
0.0000

> <Gold.Chemscore.Lipo>
84.4732

> <Gold.Chemscore.Internal_Hbond>
0.0000

> <Gold.Chemscore.DEClash>
0.7845

> <Gold.Chemscore.DEInternal>
3.0026

> <Gold.Chemscore.Rot>
1.0000

> <Gold.Chemscore.Internal.Correction>
   9.000000E+99

> <Gold.Chemscore.Hbonds>
donor molecule, donor type, donor heavy atom, donor atom, acceptor molecule, acceptor atom, score
      L1  H     3    19       P1  8028  0.57
      L1  H    11    23       P1  8028  0.99

> <Gold.Chemscore.Hbond.Weighted>
-6.3572

> <Gold.Chemscore.Metal.Weighted>
-0.0000

> <Gold.Chemscore.Lipo.Weighted>
-9.8834

> <Gold.Chemscore.Internal_Hbond.Weighted>
0.0000

> <Gold.Chemscore.DEClash.Weighted>
0.7845

> <Gold.Chemscore.DEInternal.Weighted>
3.0026

> <Gold.Chemscore.Rot.Weighted>
2.5600

> <Gold.Chemscore.Internal.Correction.Weighted>
   9.000000E+99

> <Gold.Protein.RotatedTorsions>
[ 6907 6896 6895 6894 ] final  177.50 input  -60.11 | X-H torsion
[ 7974 7965 7964 7962 ] final  119.63 input  175.53 | X-H torsion
[ 8008 7997 7996 7995 ] final  -55.82 input   59.86 | X-H torsion
[ 10167 10162 10161 10158 ] final  152.87 input  -65.29 | X-H torsion
[ 10718 10713 10712 10709 ] final  -51.82 input   66.30 | X-H torsion
[ 10763 10752 10751 10750 ] final  133.83 input  -60.55 | X-H torsion
[ 11005 11000 10999 10996 ] final  172.02 input  -57.11 | X-H torsion

> <Gold.Protein.ActiveResidues>
 VAL166  LYS551  ARG553  GLY616  TRP617  ASP618  TYR619  PRO620  LYS621  CYS622 
 ASP623  PHE694  ASN695  SER759  ASP760  ASP761  ALA762  ILE779  LEU786  VAL792 
 PHE793  MET794  SER795  GLU796  ALA797  LYS798  CYS799  TRP800  GLU811  SER814 

> <Gold.Protein.RotatedAtoms>
  151.7030  133.3311  159.3271 H   0  0  0  0  0  0  0  0  0  0  0  0  # atno 6907 bound_to 6896
  150.7727  134.6599  159.6343 H   0  0  0  0  0  0  0  0  0  0  0  0  # atno 6908 bound_to 6896
  152.3758  134.6669  160.0212 H   0  0  0  0  0  0  0  0  0  0  0  0  # atno 6909 bound_to 6896
  145.1408  139.3269  143.4617 H   0  0  0  0  0  0  0  0  0  0  0  0  # atno 7974 bound_to 7965
  154.4208  140.1144  156.5538 H   0  0  0  0  0  0  0  0  0  0  0  0  # atno 8008 bound_to 7997
  155.6383  140.3496  155.4687 H   0  0  0  0  0  0  0  0  0  0  0  0  # atno 8009 bound_to 7997
  155.9892  140.1176  157.0644 H   0  0  0  0  0  0  0  0  0  0  0  0  # atno 8010 bound_to 7997
  139.4830  144.5322  151.7705 H   0  0  0  0  0  0  0  0  0  0  0  0  # atno 10167 bound_to 10162
  156.1676  130.4149  149.9696 H   0  0  0  0  0  0  0  0  0  0  0  0  # atno 10718 bound_to 10713
  153.8135  135.3125  155.3403 H   0  0  0  0  0  0  0  0  0  0  0  0  # atno 10763 bound_to 10752
  154.8041  135.4708  154.0352 H   0  0  0  0  0  0  0  0  0  0  0  0  # atno 10764 bound_to 10752
  153.1738  135.6882  153.8660 H   0  0  0  0  0  0  0  0  0  0  0  0  # atno 10765 bound_to 10752
  140.3252  134.7404  157.4093 H   0  0  0  0  0  0  0  0  0  0  0  0  # atno 11005 bound_to 11000
  146.3505  140.1444  142.8594 LP  0  0  0  0  0  0  0  0  0  0  0  0  # atno 17320 bound_to 7965
  145.0534  140.9035  143.4982 LP  0  0  0  0  0  0  0  0  0  0  0  0  # atno 17321 bound_to 7965
  140.4849  144.1395  150.5939 LP  0  0  0  0  0  0  0  0  0  0  0  0  # atno 17342 bound_to 10162
  140.4236  143.2600  151.9684 LP  0  0  0  0  0  0  0  0  0  0  0  0  # atno 17343 bound_to 10162
  156.7506  130.9114  151.3637 LP  0  0  0  0  0  0  0  0  0  0  0  0  # atno 17370 bound_to 10713
  157.6779  130.9112  150.0195 LP  0  0  0  0  0  0  0  0  0  0  0  0  # atno 17371 bound_to 10713
  140.0908  134.5604  155.8446 LP  0  0  0  0  0  0  0  0  0  0  0  0  # atno 17394 bound_to 11000
  141.2077  133.6666  156.6322 LP  0  0  0  0  0  0  0  0  0  0  0  0  # atno 17395 bound_to 11000

$$$$
