AV-unprocessed.smi:2792|AV-procd|sdf|10773|dock2
  -GOLD-   2272015213D 1   1.00000     0.00000
 Structure written by MMmdl.
 44 46  0  0  0  0  0  0  0  0  1 V2000
  145.5519  136.0881  151.3684 C   0  0  0  0  0  0  0  0  0  0  0  0
  144.7815  136.9765  152.3593 C   0  0  0  0  0  0  0  0  0  0  0  0
  145.6570  137.8311  153.3125 C   0  0  2  0  0  0  0  0  0  0  0  0
  146.4584  136.9657  154.3032 C   0  0  0  0  0  0  0  0  0  0  0  0
  144.7921  138.6512  154.0757 O   0  0  0  0  0  0  0  0  0  0  0  0
  146.6329  138.7529  152.5355 C   0  0  0  0  0  0  0  0  0  0  0  0
  147.3089  139.7444  153.3588 N   0  0  0  0  0  0  0  0  0  0  0  0
  146.8191  140.9749  153.7376 C   0  0  0  0  0  0  0  0  0  0  0  0
  147.6176  141.6879  154.4847 N   0  0  0  0  0  0  0  0  0  0  0  0
  148.7481  140.8925  154.6199 C   0  0  0  0  0  0  0  0  0  0  0  0
  149.9854  141.0492  155.2956 C   0  0  0  0  0  0  0  0  0  0  0  0
  150.2589  142.1673  156.0034 N   0  0  0  0  0  0  0  0  0  0  0  0
  151.4542  142.2355  156.8379 C   0  0  0  0  0  0  0  0  0  0  0  0
  151.3706  143.2139  157.9990 C   0  0  0  0  0  0  0  0  0  0  0  0
  152.5416  143.7973  158.5295 C   0  0  0  0  0  0  0  0  0  0  0  0
  152.4572  144.7058  159.6024 C   0  0  0  0  0  0  0  0  0  0  0  0
  151.2024  145.0333  160.1510 C   0  0  0  0  0  0  0  0  0  0  0  0
  150.0320  144.4511  159.6269 C   0  0  0  0  0  0  0  0  0  0  0  0
  150.1161  143.5419  158.5544 C   0  0  0  0  0  0  0  0  0  0  0  0
  150.8910  140.0403  155.2000 N   0  0  0  0  0  0  0  0  0  0  0  0
  150.5989  138.9429  154.4950 C   0  0  0  0  0  0  0  0  0  0  0  0
  149.4835  138.6566  153.8191 N   0  0  0  0  0  0  0  0  0  0  0  0
  148.5750  139.6701  153.9126 C   0  0  0  0  0  0  0  0  0  0  0  0
  144.8618  135.4669  150.7974 H   0  0  0  0  0  0  0  0  0  0  0  0
  146.2440  135.4208  151.8823 H   0  0  0  0  0  0  0  0  0  0  0  0
  146.1200  136.6806  150.6516 H   0  0  0  0  0  0  0  0  0  0  0  0
  144.1209  137.6337  151.7927 H   0  0  0  0  0  0  0  0  0  0  0  0
  144.1282  136.3280  152.9439 H   0  0  0  0  0  0  0  0  0  0  0  0
  147.1027  136.2611  153.7765 H   0  0  0  0  0  0  0  0  0  0  0  0
  145.8092  136.3915  154.9645 H   0  0  0  0  0  0  0  0  0  0  0  0
  147.0961  137.5800  154.9398 H   0  0  0  0  0  0  0  0  0  0  0  0
  144.2536  139.1543  153.4840 H   0  0  0  0  0  0  0  0  0  0  0  0
  147.3949  138.1589  152.0282 H   0  0  0  0  0  0  0  0  0  0  0  0
  146.0933  139.2835  151.7496 H   0  0  0  0  0  0  0  0  0  0  0  0
  145.8393  141.3254  153.4475 H   0  0  0  0  0  0  0  0  0  0  0  0
  149.5708  142.8881  156.1667 H   0  0  0  0  0  0  0  0  0  0  0  0
  151.6930  141.2375  157.2078 H   0  0  0  0  0  0  0  0  0  0  0  0
  152.2903  142.5331  156.2049 H   0  0  0  0  0  0  0  0  0  0  0  0
  153.5077  143.5519  158.1133 H   0  0  0  0  0  0  0  0  0  0  0  0
  153.3552  145.1521  160.0034 H   0  0  0  0  0  0  0  0  0  0  0  0
  151.1374  145.7313  160.9728 H   0  0  0  0  0  0  0  0  0  0  0  0
  149.0691  144.7025  160.0464 H   0  0  0  0  0  0  0  0  0  0  0  0
  149.2138  143.1017  158.1557 H   0  0  0  0  0  0  0  0  0  0  0  0
  151.3691  138.1863  154.4685 H   0  0  0  0  0  0  0  0  0  0  0  0
  1  2  1  0  0  0  0
  1 24  1  0  0  0  0
  1 25  1  0  0  0  0
  1 26  1  0  0  0  0
  2  3  1  0  0  0  0
  2 27  1  0  0  0  0
  2 28  1  0  0  0  0
  3  4  1  0  0  0  0
  3  5  1  0  0  0  0
  3  6  1  0  0  0  0
  4 29  1  0  0  0  0
  4 30  1  0  0  0  0
  4 31  1  0  0  0  0
  5 32  1  0  0  0  0
  6  7  1  0  0  0  0
  6 33  1  0  0  0  0
  6 34  1  0  0  0  0
  7 23  1  0  0  0  0
  7  8  1  0  0  0  0
  8  9  2  0  0  0  0
  8 35  1  0  0  0  0
  9 10  1  0  0  0  0
 10 23  2  0  0  0  0
 10 11  1  0  0  0  0
 11 12  1  0  0  0  0
 11 20  2  0  0  0  0
 12 13  1  0  0  0  0
 12 36  1  0  0  0  0
 13 14  1  0  0  0  0
 13 37  1  0  0  0  0
 13 38  1  0  0  0  0
 14 19  1  0  0  0  0
 14 15  2  0  0  0  0
 15 16  1  0  0  0  0
 15 39  1  0  0  0  0
 16 17  2  0  0  0  0
 16 40  1  0  0  0  0
 17 18  1  0  0  0  0
 17 41  1  0  0  0  0
 18 19  2  0  0  0  0
 18 42  1  0  0  0  0
 19 43  1  0  0  0  0
 20 21  1  0  0  0  0
 21 22  2  0  0  0  0
 21 44  1  0  0  0  0
 22 23  1  0  0  0  0
M  END
> <s_m_source_file>
AV-unprocessed.smi

> <i_m_source_file_index>
2792

> <i_lp_mmshare_version>
43012

> <i_f3d_flags>
0

> <s_epik_input>
W0NIM11bQ0gyXVtDQEBdKFtDSDNdKShbT0hdKVtDSDJdbihbY0hdbjEpYyhjMTIpbltjSF1uYzJbTkhdW0NIMl1jM1tjSF1bY0hdW2NIXVtjSF1bY0hdMw==

> <s_epik_cmdline>
J2VwaWtfcHl0aG9uJywgJy1waCcsICc3LjAnLCAnLXRuJywgJzgnLCAnLW1hJywgJzIwMCcsICctbWV0YWxfYmluZGluZycsICctaW1hZScsICc8aW5maWxlLm1hZT4nLCAnLW9tYWUnLCAnPG91dGZpbGUubWFlPic=

> <r_lp_tautomer_probability>
1

> <r_epik_Ionization_Penalty>
0.00163025

> <r_epik_Ionization_Penalty_Charging>
0

> <r_epik_Ionization_Penalty_Neutral>
0.00163025

> <r_epik_State_Penalty>
-0

> <r_epik_Charging_Adjusted_Penalty>
0

> <i_epik_Tot_Q>
0

> <i_epik_Tot_abs_Q>
0

> <r_epik_Metal_State_Penalty>
-0

> <b_epik_Metal_Only>
0

> <s_lp_Force_Field>
OPLS_2005

> <r_lp_Energy>
12.9035

> <b_lp_Chiralities_Consistent>
1

> <s_lp_Variant>
AV-unprocessed.smi:2792-2

> <Gold.Version>
5.8.1

> <Gold.Id.Protein>
6NUR|6NUR_protein|mol2

> <Gold.PLP.Fitness>
52.9511

> <Gold.PLP.PLP>
-45.1704

> <Gold.PLP.part.hbond>
-3.0000

> <Gold.PLP.part.metal>
0.0000

> <Gold.PLP.part.buried>
-5.2681

> <Gold.PLP.part.nonpolar>
-38.8200

> <Gold.PLP.part.repulsive>
1.5415

> <Gold.PLP.ligand.clash>
0.0000

> <Gold.PLP.ligand.torsion>
0.9561

> <Gold.PLP.Chemscore.Hbond>
2.1680

> <Gold.PLP.Chemscore.CHOScore>
1.0000

> <Gold.PLP.Chemscore.Metal>
0.0000

> <Gold.Chemscore.Hbonds>
donor molecule, donor type, donor heavy atom, donor atom, acceptor molecule, acceptor atom, score
      L1  H     5    32       P1 10175  1.00
      L1  H    12    36       P1  8028  0.94
      P1  H  7989  7998       L1    20  0.22
      L1  C     8    35       P1 10175  1.00

> <Gold.PLP.Chemscore.Internal.Correction>
0.1888

> <Gold.Rescore>
     Score         DG    S(hbond)    S(metal)    S(lipo)     H(rot)  DE(clash)    DE(int)     intcor
     15.40     -17.07       1.90        0.00     100.12       2.52       0.72       0.95       ----

> <Gold.Chemscore.Fitness>
15.3958

> <Gold.Chemscore.DG>
-17.0688

> <Gold.Chemscore.ZeroCoef>
-5.4800

> <Gold.Chemscore.Hbond>
1.8978

> <Gold.Chemscore.Metal>
0.0000

> <Gold.Chemscore.Lipo>
100.1192

> <Gold.Chemscore.Internal_Hbond>
0.0000

> <Gold.Chemscore.DEClash>
0.7200

> <Gold.Chemscore.DEInternal>
0.9530

> <Gold.Chemscore.Rot>
2.5250

> <Gold.Chemscore.Internal.Correction>
   9.000000E+99

> <Gold.Chemscore.Hbonds>
donor molecule, donor type, donor heavy atom, donor atom, acceptor molecule, acceptor atom, score
      L1  H     5    32       P1 10175  1.00
      L1  H    12    36       P1  8028  0.86

> <Gold.Chemscore.Hbond.Weighted>
-6.3388

> <Gold.Chemscore.Metal.Weighted>
-0.0000

> <Gold.Chemscore.Lipo.Weighted>
-11.7140

> <Gold.Chemscore.Internal_Hbond.Weighted>
0.0000

> <Gold.Chemscore.DEClash.Weighted>
0.7200

> <Gold.Chemscore.DEInternal.Weighted>
0.9530

> <Gold.Chemscore.Rot.Weighted>
6.4639

> <Gold.Chemscore.Internal.Correction.Weighted>
   9.000000E+99

> <Gold.Protein.RotatedTorsions>
[ 6907 6896 6895 6894 ] final  -77.16 input  -60.11 | X-H torsion
[ 7974 7965 7964 7962 ] final   26.71 input  175.53 | X-H torsion
[ 8008 7997 7996 7995 ] final -148.58 input   59.86 | X-H torsion
[ 10167 10162 10161 10158 ] final  128.06 input  -65.29 | X-H torsion
[ 10718 10713 10712 10709 ] final -150.74 input   66.30 | X-H torsion
[ 10763 10752 10751 10750 ] final  -60.07 input  -60.55 | X-H torsion
[ 11005 11000 10999 10996 ] final   60.81 input  -57.11 | X-H torsion

> <Gold.Protein.ActiveResidues>
 VAL166  LYS551  ARG553  GLY616  TRP617  ASP618  TYR619  PRO620  LYS621  CYS622 
 ASP623  PHE694  ASN695  SER759  ASP760  ASP761  ALA762  ILE779  LEU786  VAL792 
 PHE793  MET794  SER795  GLU796  ALA797  LYS798  CYS799  TRP800  GLU811  SER814 

> <Gold.Protein.RotatedAtoms>
  150.7006  134.4464  159.5315 H   0  0  0  0  0  0  0  0  0  0  0  0  # atno 6907 bound_to 6896
  152.2164  134.8451  160.0500 H   0  0  0  0  0  0  0  0  0  0  0  0  # atno 6908 bound_to 6896
  151.9317  133.3578  159.3970 H   0  0  0  0  0  0  0  0  0  0  0  0  # atno 6909 bound_to 6896
  146.1823  139.7291  142.8891 H   0  0  0  0  0  0  0  0  0  0  0  0  # atno 7974 bound_to 7965
  155.5938  140.0655  157.2751 H   0  0  0  0  0  0  0  0  0  0  0  0  # atno 8008 bound_to 7997
  154.4297  140.1830  156.1149 H   0  0  0  0  0  0  0  0  0  0  0  0  # atno 8009 bound_to 7997
  156.0212  140.3316  155.7044 H   0  0  0  0  0  0  0  0  0  0  0  0  # atno 8010 bound_to 7997
  139.5546  144.6839  151.4221 H   0  0  0  0  0  0  0  0  0  0  0  0  # atno 10167 bound_to 10162
  156.4501  130.8164  151.2394 H   0  0  0  0  0  0  0  0  0  0  0  0  # atno 10718 bound_to 10713
  154.2635  135.6304  153.5283 H   0  0  0  0  0  0  0  0  0  0  0  0  # atno 10763 bound_to 10752
  152.9892  135.5593  154.5679 H   0  0  0  0  0  0  0  0  0  0  0  0  # atno 10764 bound_to 10752
  154.5233  135.2884  155.1219 H   0  0  0  0  0  0  0  0  0  0  0  0  # atno 10765 bound_to 10752
  140.0206  134.6159  155.9646 H   0  0  0  0  0  0  0  0  0  0  0  0  # atno 11005 bound_to 11000
  145.4040  141.0388  143.3054 LP  0  0  0  0  0  0  0  0  0  0  0  0  # atno 17320 bound_to 7965
  144.8336  139.5587  143.6932 LP  0  0  0  0  0  0  0  0  0  0  0  0  # atno 17321 bound_to 7965
  140.6816  143.8068  150.7129 LP  0  0  0  0  0  0  0  0  0  0  0  0  # atno 17342 bound_to 10162
  140.1524  143.4346  152.2122 LP  0  0  0  0  0  0  0  0  0  0  0  0  # atno 17343 bound_to 10162
  157.7503  131.0140  150.3448 LP  0  0  0  0  0  0  0  0  0  0  0  0  # atno 17370 bound_to 10713
  156.3825  130.3883  149.7091 LP  0  0  0  0  0  0  0  0  0  0  0  0  # atno 17371 bound_to 10713
  141.1771  133.6541  156.4871 LP  0  0  0  0  0  0  0  0  0  0  0  0  # atno 17394 bound_to 11000
  140.4395  134.7029  157.4984 LP  0  0  0  0  0  0  0  0  0  0  0  0  # atno 17395 bound_to 11000

$$$$
