AV-unprocessed.smi:1484|AV-procd|sdf|5993|dock4
  -GOLD-   22720 6 83D 1   1.00000     0.00000
 Structure written by MMmdl.
 37 38  0  0  0  0  0  0  0  0  2 V2000
  146.7951  141.1175  154.8865 C   0  0  0  0  0  0  0  0  0  0  0  0
  147.9563  140.1902  155.2719 C   0  0  2  0  0  0  0  0  0  0  0  0
  149.2233  140.5062  154.4545 C   0  0  0  0  0  0  0  0  0  0  0  0
  150.3877  139.5787  154.8354 C   0  0  0  0  0  0  0  0  0  0  0  0
  149.9979  138.0987  154.6795 C   0  0  0  0  0  0  0  0  0  0  0  0
  148.7239  137.7463  155.4710 C   0  0  1  0  0  0  0  0  0  0  0  0
  149.0019  137.7565  156.9062 N   0  0  0  0  0  0  0  0  0  0  0  0
  148.5512  136.8597  157.7964 C   0  0  0  0  0  0  0  0  0  0  0  0
  147.8330  135.9077  157.4863 O   0  0  0  0  0  0  0  0  0  0  0  0
  148.9842  137.0981  159.2518 C   0  0  0  0  0  0  0  0  0  0  0  0
  148.2006  136.3506  160.2462 N   0  0  0  0  0  0  0  0  0  0  0  0
  147.4877  137.2024  161.1946 N   0  5  0  0  0  0  0  0  0  0  0  0
  146.7423  136.6245  162.1736 C   0  0  0  0  0  0  0  0  0  0  0  0
  146.1283  137.2756  163.0157 O   0  0  0  0  0  0  0  0  0  0  0  0
  146.6724  135.1732  162.2139 C   0  0  0  0  0  0  0  0  0  0  0  0
  147.3240  134.4122  161.3128 C   0  0  0  0  0  0  0  0  0  0  0  0
  148.1389  134.9882  160.2499 C   0  0  0  0  0  0  0  0  0  0  0  0
  148.7306  134.2989  159.4188 O   0  0  0  0  0  0  0  0  0  0  0  0
  147.5672  138.7052  155.1133 C   0  0  0  0  0  0  0  0  0  0  0  0
  146.5149  140.9895  153.8405 H   0  0  0  0  0  0  0  0  0  0  0  0
  147.0629  142.1640  155.0339 H   0  0  0  0  0  0  0  0  0  0  0  0
  145.9133  140.9147  155.4949 H   0  0  0  0  0  0  0  0  0  0  0  0
  148.1805  140.3717  156.3239 H   0  0  0  0  0  0  0  0  0  0  0  0
  149.0112  140.4027  153.3894 H   0  0  0  0  0  0  0  0  0  0  0  0
  149.5188  141.5443  154.6104 H   0  0  0  0  0  0  0  0  0  0  0  0
  151.2555  139.7994  154.2133 H   0  0  0  0  0  0  0  0  0  0  0  0
  150.6908  139.7752  155.8645 H   0  0  0  0  0  0  0  0  0  0  0  0
  149.8305  137.8863  153.6227 H   0  0  0  0  0  0  0  0  0  0  0  0
  150.8249  137.4581  154.9892 H   0  0  0  0  0  0  0  0  0  0  0  0
  148.4319  136.7325  155.1912 H   0  0  0  0  0  0  0  0  0  0  0  0
  149.5851  138.5055  157.2496 H   0  0  0  0  0  0  0  0  0  0  0  0
  150.0420  136.8430  159.3414 H   0  0  0  0  0  0  0  0  0  0  0  0
  148.9258  138.1675  159.4617 H   0  0  0  0  0  0  0  0  0  0  0  0
  146.0832  134.6949  162.9824 H   0  0  0  0  0  0  0  0  0  0  0  0
  147.2425  133.3377  161.3804 H   0  0  0  0  0  0  0  0  0  0  0  0
  146.6910  138.4798  155.7228 H   0  0  0  0  0  0  0  0  0  0  0  0
  147.2670  138.5232  154.0806 H   0  0  0  0  0  0  0  0  0  0  0  0
  1  2  1  0  0  0  0
  1 20  1  0  0  0  0
  1 21  1  0  0  0  0
  1 22  1  0  0  0  0
  2 19  1  0  0  0  0
  2  3  1  0  0  0  0
  2 23  1  0  0  0  0
  3  4  1  0  0  0  0
  3 24  1  0  0  0  0
  3 25  1  0  0  0  0
  4  5  1  0  0  0  0
  4 26  1  0  0  0  0
  4 27  1  0  0  0  0
  5  6  1  0  0  0  0
  5 28  1  0  0  0  0
  5 29  1  0  0  0  0
  6  7  1  0  0  0  0
  6 19  1  0  0  0  0
  6 30  1  0  0  0  0
  7  8  1  0  0  0  0
  7 31  1  0  0  0  0
  8  9  2  0  0  0  0
  8 10  1  0  0  0  0
 10 32  1  0  0  0  0
 10 33  1  0  0  0  0
 10 11  1  0  0  0  0
 11 12  1  0  0  0  0
 11 17  1  0  0  0  0
 12 13  1  0  0  0  0
 13 14  2  0  0  0  0
 13 15  1  0  0  0  0
 15 34  1  0  0  0  0
 15 16  2  0  0  0  0
 16 35  1  0  0  0  0
 16 17  1  0  0  0  0
 17 18  2  0  0  0  0
 19 36  1  0  0  0  0
 19 37  1  0  0  0  0
M  CHG  1  12  -1
M  END
> <s_m_source_file>
AV-unprocessed.smi

> <i_m_source_file_index>
1484

> <i_lp_mmshare_version>
43012

> <i_f3d_flags>
0

> <s_epik_input>
W0NIM11bQ0BASF0xW0NIMl1bQ0gyXVtDSDJdW0NASF0oW0NIMl0xKVtOSF1DKD1PKVtDSDJdbjJbbkhdYyg9TylbY0hdW2NIXWMyPU8=

> <s_epik_cmdline>
J2VwaWtfcHl0aG9uJywgJy1waCcsICc3LjAnLCAnLXRuJywgJzgnLCAnLW1hJywgJzIwMCcsICctbWV0YWxfYmluZGluZycsICctaW1hZScsICc8aW5maWxlLm1hZT4nLCAnLW9tYWUnLCAnPG91dGZpbGUubWFlPic=

> <r_lp_tautomer_probability>
1

> <r_epik_Ionization_Penalty>
0.101352

> <r_epik_Ionization_Penalty_Charging>
0.101352

> <r_epik_Ionization_Penalty_Neutral>
1.90469e-08

> <r_epik_State_Penalty>
0.0358555

> <r_epik_Charging_Adjusted_Penalty>
0.137208

> <i_epik_Tot_Q>
-1

> <i_epik_Tot_abs_Q>
1

> <r_epik_Metal_State_Penalty>
0.0358555

> <b_epik_Metal_Only>
0

> <s_lp_Force_Field>
OPLS_2005

> <r_lp_Energy>
23.9764

> <b_lp_Chiralities_Consistent>
1

> <s_lp_Variant>
AV-unprocessed.smi:1484-1

> <Gold.Version>
5.8.1

> <Gold.Id.Protein>
6NUR|6NUR_protein|mol2

> <Gold.PLP.Fitness>
38.7564

> <Gold.PLP.PLP>
-25.7828

> <Gold.PLP.part.hbond>
-3.0000

> <Gold.PLP.part.metal>
0.0000

> <Gold.PLP.part.buried>
-0.9404

> <Gold.PLP.part.nonpolar>
-21.8903

> <Gold.PLP.part.repulsive>
0.0000

> <Gold.PLP.ligand.clash>
0.0000

> <Gold.PLP.ligand.torsion>
0.4893

> <Gold.PLP.Chemscore.Hbond>
4.6480

> <Gold.PLP.Chemscore.CHOScore>
0.0000

> <Gold.PLP.Chemscore.Metal>
0.0000

> <Gold.Chemscore.Hbonds>
donor molecule, donor type, donor heavy atom, donor atom, acceptor molecule, acceptor atom, score
      P1  H  6896  6908       L1    18  0.93
      P1  H  6931  6943       L1    12  1.76
      P1  H  6934  6947       L1    12  1.92

> <Gold.PLP.Chemscore.Internal.Correction>
0.0081

> <Gold.Rescore>
     Score         DG    S(hbond)    S(metal)    S(lipo)     H(rot)  DE(clash)    DE(int)     intcor
     10.47     -13.43       1.83        0.00      51.90       1.65       0.01       2.95       ----

> <Gold.Chemscore.Fitness>
10.4732

> <Gold.Chemscore.DG>
-13.4284

> <Gold.Chemscore.ZeroCoef>
-5.4800

> <Gold.Chemscore.Hbond>
1.8301

> <Gold.Chemscore.Metal>
0.0000

> <Gold.Chemscore.Lipo>
51.8998

> <Gold.Chemscore.Internal_Hbond>
0.0000

> <Gold.Chemscore.DEClash>
0.0052

> <Gold.Chemscore.DEInternal>
2.9500

> <Gold.Chemscore.Rot>
1.6549

> <Gold.Chemscore.Internal.Correction>
   9.000000E+99

> <Gold.Chemscore.Hbonds>
donor molecule, donor type, donor heavy atom, donor atom, acceptor molecule, acceptor atom, score
      P1  H  6896  6908       L1    18  0.88
      P1  H  6931  6943       L1    12  0.18
      P1  H  6934  6947       L1    12  0.83

> <Gold.Chemscore.Hbond.Weighted>
-6.1126

> <Gold.Chemscore.Metal.Weighted>
-0.0000

> <Gold.Chemscore.Lipo.Weighted>
-6.0723

> <Gold.Chemscore.Internal_Hbond.Weighted>
0.0000

> <Gold.Chemscore.DEClash.Weighted>
0.0052

> <Gold.Chemscore.DEInternal.Weighted>
2.9500

> <Gold.Chemscore.Rot.Weighted>
4.2364

> <Gold.Chemscore.Internal.Correction.Weighted>
   9.000000E+99

> <Gold.Protein.RotatedTorsions>
[ 6907 6896 6895 6894 ] final  142.50 input  -60.11 | X-H torsion
[ 7974 7965 7964 7962 ] final  113.17 input  175.53 | X-H torsion
[ 8008 7997 7996 7995 ] final  163.48 input   59.86 | X-H torsion
[ 10167 10162 10161 10158 ] final   78.71 input  -65.29 | X-H torsion
[ 10718 10713 10712 10709 ] final  112.55 input   66.30 | X-H torsion
[ 10763 10752 10751 10750 ] final  142.99 input  -60.55 | X-H torsion
[ 11005 11000 10999 10996 ] final  107.40 input  -57.11 | X-H torsion

> <Gold.Protein.ActiveResidues>
 VAL166  LYS551  ARG553  GLY616  TRP617  ASP618  TYR619  PRO620  LYS621  CYS622 
 ASP623  PHE694  ASN695  SER759  ASP760  ASP761  ALA762  ILE779  LEU786  VAL792 
 PHE793  MET794  SER795  GLU796  ALA797  LYS798  CYS799  TRP800  GLU811  SER814 

> <Gold.Protein.RotatedAtoms>
  152.2179  133.4961  159.5146 H   0  0  0  0  0  0  0  0  0  0  0  0  # atno 6907 bound_to 6896
  150.7005  134.1381  159.4103 H   0  0  0  0  0  0  0  0  0  0  0  0  # atno 6908 bound_to 6896
  151.9301  135.0260  160.0579 H   0  0  0  0  0  0  0  0  0  0  0  0  # atno 6909 bound_to 6896
  145.2203  139.2865  143.4221 H   0  0  0  0  0  0  0  0  0  0  0  0  # atno 7974 bound_to 7965
  156.1953  140.1722  156.8010 H   0  0  0  0  0  0  0  0  0  0  0  0  # atno 8008 bound_to 7997
  154.5522  140.0715  156.8718 H   0  0  0  0  0  0  0  0  0  0  0  0  # atno 8009 bound_to 7997
  155.3006  140.3361  155.4250 H   0  0  0  0  0  0  0  0  0  0  0  0  # atno 8010 bound_to 7997
  139.9680  144.5914  150.8011 H   0  0  0  0  0  0  0  0  0  0  0  0  # atno 10167 bound_to 10162
  157.6386  131.0969  150.6912 H   0  0  0  0  0  0  0  0  0  0  0  0  # atno 10718 bound_to 10713
  153.9650  135.2956  155.3431 H   0  0  0  0  0  0  0  0  0  0  0  0  # atno 10763 bound_to 10752
  154.7354  135.5049  153.9035 H   0  0  0  0  0  0  0  0  0  0  0  0  # atno 10764 bound_to 10752
  153.0928  135.6712  153.9932 H   0  0  0  0  0  0  0  0  0  0  0  0  # atno 10765 bound_to 10752
  139.8827  134.9399  156.5813 H   0  0  0  0  0  0  0  0  0  0  0  0  # atno 11005 bound_to 11000
  146.3377  140.2507  142.8598 LP  0  0  0  0  0  0  0  0  0  0  0  0  # atno 17320 bound_to 7965
  144.9771  140.8424  143.5419 LP  0  0  0  0  0  0  0  0  0  0  0  0  # atno 17321 bound_to 7965
  140.7531  143.3002  151.3099 LP  0  0  0  0  0  0  0  0  0  0  0  0  # atno 17342 bound_to 10162
  139.6502  144.0376  152.2621 LP  0  0  0  0  0  0  0  0  0  0  0  0  # atno 17343 bound_to 10162
  156.7239  130.4689  149.5516 LP  0  0  0  0  0  0  0  0  0  0  0  0  # atno 17370 bound_to 10713
  156.1647  130.6397  151.0763 LP  0  0  0  0  0  0  0  0  0  0  0  0  # atno 17371 bound_to 10713
  140.8025  133.8494  155.8739 LP  0  0  0  0  0  0  0  0  0  0  0  0  # atno 17394 bound_to 11000
  140.9580  134.1693  157.4676 LP  0  0  0  0  0  0  0  0  0  0  0  0  # atno 17395 bound_to 11000

$$$$
