AV-unprocessed.smi:16|AV-procd|sdf|89|dock1
  -GOLD-   2262015223D 1   1.00000     0.00000
 Structure written by MMmdl.
 60 64  0  0  0  0  0  0  0  0  2 V2000
  144.8503  132.2976  161.5471 C   0  0  0  0  0  0  0  0  0  0  0  0
  144.3086  133.7100  161.8119 C   0  0  0  0  0  0  0  0  0  0  0  0
  145.3027  134.7714  161.5104 N   0  3  1  0  0  0  0  0  0  0  0  0
  146.3841  134.8273  162.5287 C   0  0  0  0  0  0  0  0  0  0  0  0
  147.3373  136.0051  162.2701 C   0  0  0  0  0  0  0  0  0  0  0  0
  147.9244  135.9178  160.8575 C   0  0  2  0  0  0  0  0  0  0  0  0
  148.7588  137.0448  160.6153 O   0  0  0  0  0  0  0  0  0  0  0  0
  149.3778  136.9749  159.3348 C   0  0  0  0  0  0  0  0  0  0  0  0
  148.2940  136.9564  158.2452 C   0  0  0  0  0  0  0  0  0  0  0  0
  147.3597  135.8564  158.4738 N   0  0  0  0  0  0  0  0  0  0  0  0
  146.4594  135.7129  157.4746 C   0  0  0  0  0  0  0  0  0  0  0  0
  145.1462  135.9874  157.6927 N   0  0  0  0  0  0  0  0  0  0  0  0
  144.2583  135.8203  156.7078 C   0  0  0  0  0  0  0  0  0  0  0  0
  144.4649  135.3848  155.4628 N   0  0  0  0  0  0  0  0  0  0  0  0
  145.7808  135.0956  155.2486 C   0  0  0  0  0  0  0  0  0  0  0  0
  146.8357  135.2368  156.1919 C   0  0  0  0  0  0  0  0  0  0  0  0
  148.0430  134.8553  155.6220 N   0  0  0  0  0  0  0  0  0  0  0  0
  147.7212  134.5161  154.4028 C   0  0  0  0  0  0  0  0  0  0  0  0
  146.3792  134.6003  154.1037 N   0  0  0  0  0  0  0  0  0  0  0  0
  145.7611  134.3243  152.8403 C   0  0  0  0  0  0  0  0  0  0  0  0
  144.8332  133.1185  152.6618 C   0  0  0  0  0  0  0  0  0  0  0  0
  145.3113  132.9835  151.1982 C   0  0  0  0  0  0  0  0  0  0  0  0
  145.5175  131.5502  150.6699 C   0  0  0  0  0  0  0  0  0  0  0  0
  146.4927  131.4817  149.6485 O   0  0  0  0  0  0  0  0  0  0  0  0
  144.4241  133.7219  150.1777 C   0  0  0  0  0  0  0  0  0  0  0  0
  143.2708  132.9721  149.8540 O   0  0  0  0  0  0  0  0  0  0  0  0
  146.5666  133.7550  151.6683 C   0  0  0  0  0  0  0  0  0  0  0  0
  146.7823  135.8853  159.8204 C   0  0  1  0  0  0  0  0  0  0  0  0
  145.8480  134.6893  160.1281 C   0  0  0  0  0  0  0  0  0  0  0  0
  148.5246  135.0084  160.7826 H   0  0  0  0  0  0  0  0  0  0  0  0
  146.2028  136.8060  159.9119 H   0  0  0  0  0  0  0  0  0  0  0  0
  144.0615  131.5563  161.6773 H   0  0  0  0  0  0  0  0  0  0  0  0
  145.6557  132.0301  162.2305 H   0  0  0  0  0  0  0  0  0  0  0  0
  145.2260  132.2034  160.5279 H   0  0  0  0  0  0  0  0  0  0  0  0
  143.4328  133.8507  161.1771 H   0  0  0  0  0  0  0  0  0  0  0  0
  143.9611  133.8026  162.8418 H   0  0  0  0  0  0  0  0  0  0  0  0
  145.9495  134.9329  163.5233 H   0  0  0  0  0  0  0  0  0  0  0  0
  146.9384  133.8873  162.5227 H   0  0  0  0  0  0  0  0  0  0  0  0
  146.8019  136.9477  162.3925 H   0  0  0  0  0  0  0  0  0  0  0  0
  148.1396  136.0043  163.0087 H   0  0  0  0  0  0  0  0  0  0  0  0
  150.0266  137.8411  159.2050 H   0  0  0  0  0  0  0  0  0  0  0  0
  150.0114  136.0890  159.2697 H   0  0  0  0  0  0  0  0  0  0  0  0
  147.7591  137.9073  158.2517 H   0  0  0  0  0  0  0  0  0  0  0  0
  148.7559  136.8525  157.2625 H   0  0  0  0  0  0  0  0  0  0  0  0
  143.2352  136.0659  156.9523 H   0  0  0  0  0  0  0  0  0  0  0  0
  148.4591  134.1850  153.6863 H   0  0  0  0  0  0  0  0  0  0  0  0
  145.2557  135.2462  152.5473 H   0  0  0  0  0  0  0  0  0  0  0  0
  145.1197  132.2813  153.3005 H   0  0  0  0  0  0  0  0  0  0  0  0
  143.7734  133.3472  152.7789 H   0  0  0  0  0  0  0  0  0  0  0  0
  145.8284  130.8824  151.4738 H   0  0  0  0  0  0  0  0  0  0  0  0
  144.5905  131.1443  150.2644 H   0  0  0  0  0  0  0  0  0  0  0  0
  147.2062  130.9413  149.9514 H   0  0  0  0  0  0  0  0  0  0  0  0
  144.1136  134.6952  150.5591 H   0  0  0  0  0  0  0  0  0  0  0  0
  144.9633  133.9179  149.2506 H   0  0  0  0  0  0  0  0  0  0  0  0
  142.5084  133.5017  150.0312 H   0  0  0  0  0  0  0  0  0  0  0  0
  146.9354  134.5076  150.9706 H   0  0  0  0  0  0  0  0  0  0  0  0
  147.3778  133.1043  151.9991 H   0  0  0  0  0  0  0  0  0  0  0  0
  146.3815  133.7460  159.9985 H   0  0  0  0  0  0  0  0  0  0  0  0
  145.0178  134.6825  159.4236 H   0  0  0  0  0  0  0  0  0  0  0  0
  144.8091  135.6503  161.5774 H   0  0  0  0  0  0  0  0  0  0  0  0
  1  2  1  0  0  0  0
  1 32  1  0  0  0  0
  1 33  1  0  0  0  0
  1 34  1  0  0  0  0
  2  3  1  0  0  0  0
  2 35  1  0  0  0  0
  2 36  1  0  0  0  0
  3 29  1  0  0  0  0
  3  4  1  0  0  0  0
  3 60  1  0  0  0  0
  4  5  1  0  0  0  0
  4 37  1  0  0  0  0
  4 38  1  0  0  0  0
  5  6  1  0  0  0  0
  5 39  1  0  0  0  0
  5 40  1  0  0  0  0
  6 30  1  0  0  0  0
  6 28  1  0  0  0  0
  6  7  1  0  0  0  0
  7  8  1  0  0  0  0
  8  9  1  0  0  0  0
  8 41  1  0  0  0  0
  8 42  1  0  0  0  0
  9 10  1  0  0  0  0
  9 43  1  0  0  0  0
  9 44  1  0  0  0  0
 10 11  1  0  0  0  0
 10 28  1  0  0  0  0
 11 16  1  0  0  0  0
 11 12  2  0  0  0  0
 12 13  1  0  0  0  0
 13 14  2  0  0  0  0
 13 45  1  0  0  0  0
 14 15  1  0  0  0  0
 15 19  1  0  0  0  0
 15 16  2  0  0  0  0
 16 17  1  0  0  0  0
 17 18  2  0  0  0  0
 18 19  1  0  0  0  0
 18 46  1  0  0  0  0
 19 20  1  0  0  0  0
 20 27  1  0  0  0  0
 20 21  1  0  0  0  0
 20 47  1  0  0  0  0
 21 22  1  0  0  0  0
 21 48  1  0  0  0  0
 21 49  1  0  0  0  0
 22 23  1  0  0  0  0
 22 25  1  0  0  0  0
 22 27  1  0  0  0  0
 23 24  1  0  0  0  0
 23 50  1  0  0  0  0
 23 51  1  0  0  0  0
 24 52  1  0  0  0  0
 25 26  1  0  0  0  0
 25 53  1  0  0  0  0
 25 54  1  0  0  0  0
 26 55  1  0  0  0  0
 27 56  1  0  0  0  0
 27 57  1  0  0  0  0
 28 31  1  0  0  0  0
 28 29  1  0  0  0  0
 29 58  1  0  0  0  0
 29 59  1  0  0  0  0
M  CHG  1   3   1
M  END
> <s_m_source_file>
AV-unprocessed.smi

> <i_m_source_file_index>
16

> <i_lp_mmshare_version>
43012

> <i_f3d_flags>
0

> <s_epik_input>
W0NIM11bQ0gyXU4oW0NIMl1bQ0gyXTEpW0NIMl1bQ0BASF0oW0NAQEhdMTIpTihbQ0gyXVtDSDJdTzIpYyhuW2NIXW4zKWMoYzM0KW5bY0hdbjRbQ0hdKFtDSDJdNSlbQ0gyXUM1KFtDSDJdW09IXSlbQ0gyXVtPSF0=

> <s_epik_cmdline>
J2VwaWtfcHl0aG9uJywgJy1waCcsICc3LjAnLCAnLXRuJywgJzgnLCAnLW1hJywgJzIwMCcsICctbWV0YWxfYmluZGluZycsICctaW1hZScsICc8aW5maWxlLm1hZT4nLCAnLW9tYWUnLCAnPG91dGZpbGUubWFlPic=

> <r_lp_tautomer_probability>
1

> <r_epik_Ionization_Penalty>
0.0135603

> <r_epik_Ionization_Penalty_Charging>
0.0131385

> <r_epik_Ionization_Penalty_Neutral>
0.000421734

> <r_epik_State_Penalty>
0.0102091

> <r_epik_Charging_Adjusted_Penalty>
0.0233476

> <i_epik_Tot_Q>
1

> <i_epik_Tot_abs_Q>
1

> <r_epik_Metal_State_Penalty>
0.0103746

> <b_epik_Metal_Only>
0

> <s_lp_Force_Field>
OPLS_2005

> <r_lp_Energy>
54.8635

> <b_lp_Chiralities_Consistent>
1

> <s_lp_Variant>
AV-unprocessed.smi:16-3

> <Gold.Version>
5.8.1

> <Gold.Id.Protein>
6NUR|6NUR_protein|mol2

> <Gold.PLP.Fitness>
44.8033

> <Gold.PLP.PLP>
-34.7366

> <Gold.PLP.part.hbond>
-3.9157

> <Gold.PLP.part.metal>
0.0000

> <Gold.PLP.part.buried>
-4.3881

> <Gold.PLP.part.nonpolar>
-25.9644

> <Gold.PLP.part.repulsive>
0.1374

> <Gold.PLP.ligand.clash>
0.0000

> <Gold.PLP.ligand.torsion>
0.9217

> <Gold.PLP.Chemscore.Hbond>
2.9121

> <Gold.PLP.Chemscore.CHOScore>
0.8515

> <Gold.PLP.Chemscore.Metal>
0.0000

> <Gold.Chemscore.Hbonds>
donor molecule, donor type, donor heavy atom, donor atom, acceptor molecule, acceptor atom, score
      L1  H    24    52       P1 10747  0.91
      L1  H    26    55       P1 10186  1.00
      P1  H  6931  6943       L1     7  0.78
      L1  C    18    46       P1  7948  0.28

> <Gold.PLP.Chemscore.Internal.Correction>
0.6193

> <Gold.Rescore>
     Score         DG    S(hbond)    S(metal)    S(lipo)     H(rot)  DE(clash)    DE(int)     intcor
     14.38     -16.70       3.16        0.00      78.58       3.33       0.01       2.31       ----

> <Gold.Chemscore.Fitness>
14.3782

> <Gold.Chemscore.DG>
-16.7006

> <Gold.Chemscore.ZeroCoef>
-5.4800

> <Gold.Chemscore.Hbond>
3.1552

> <Gold.Chemscore.Metal>
0.0000

> <Gold.Chemscore.Lipo>
78.5838

> <Gold.Chemscore.Internal_Hbond>
0.0000

> <Gold.Chemscore.DEClash>
0.0089

> <Gold.Chemscore.DEInternal>
2.3135

> <Gold.Chemscore.Rot>
3.3251

> <Gold.Chemscore.Internal.Correction>
   9.000000E+99

> <Gold.Chemscore.Hbonds>
donor molecule, donor type, donor heavy atom, donor atom, acceptor molecule, acceptor atom, score
      L1  H    24    52       P1 10747  0.90
      L1  H    26    55       P1 10186  0.98
      P1  H  6931  6943       L1     7  0.76

> <Gold.Chemscore.Hbond.Weighted>
-10.5385

> <Gold.Chemscore.Metal.Weighted>
-0.0000

> <Gold.Chemscore.Lipo.Weighted>
-9.1943

> <Gold.Chemscore.Internal_Hbond.Weighted>
0.0000

> <Gold.Chemscore.DEClash.Weighted>
0.0089

> <Gold.Chemscore.DEInternal.Weighted>
2.3135

> <Gold.Chemscore.Rot.Weighted>
8.5122

> <Gold.Chemscore.Internal.Correction.Weighted>
   9.000000E+99

> <Gold.Protein.RotatedTorsions>
[ 6907 6896 6895 6894 ] final -139.05 input  -60.11 | X-H torsion
[ 7974 7965 7964 7962 ] final -171.18 input  175.53 | X-H torsion
[ 8008 7997 7996 7995 ] final  142.50 input   59.86 | X-H torsion
[ 10167 10162 10161 10158 ] final  106.27 input  -65.29 | X-H torsion
[ 10718 10713 10712 10709 ] final -142.94 input   66.30 | X-H torsion
[ 10763 10752 10751 10750 ] final   46.62 input  -60.55 | X-H torsion
[ 11005 11000 10999 10996 ] final   65.62 input  -57.11 | X-H torsion

> <Gold.Protein.ActiveResidues>
 VAL166  LYS551  ARG553  GLY616  TRP617  ASP618  TYR619  PRO620  LYS621  CYS622 
 ASP623  PHE694  ASN695  SER759  ASP760  ASP761  ALA762  ILE779  LEU786  VAL792 
 PHE793  MET794  SER795  GLU796  ALA797  LYS798  CYS799  TRP800  GLU811  SER814 

> <Gold.Protein.RotatedAtoms>
  151.0428  133.5691  159.2649 H   0  0  0  0  0  0  0  0  0  0  0  0  # atno 6907 bound_to 6896
  151.2731  135.0690  159.9151 H   0  0  0  0  0  0  0  0  0  0  0  0  # atno 6908 bound_to 6896
  152.5367  134.0155  159.8012 H   0  0  0  0  0  0  0  0  0  0  0  0  # atno 6909 bound_to 6896
  144.7160  140.1960  143.6343 H   0  0  0  0  0  0  0  0  0  0  0  0  # atno 7974 bound_to 7965
  156.2948  140.2287  156.4738 H   0  0  0  0  0  0  0  0  0  0  0  0  # atno 8008 bound_to 7997
  154.7912  140.0454  157.1223 H   0  0  0  0  0  0  0  0  0  0  0  0  # atno 8009 bound_to 7997
  154.9643  140.3058  155.5020 H   0  0  0  0  0  0  0  0  0  0  0  0  # atno 8010 bound_to 7997
  139.7023  144.7092  151.1165 H   0  0  0  0  0  0  0  0  0  0  0  0  # atno 10167 bound_to 10162
  156.3519  130.7692  151.1847 H   0  0  0  0  0  0  0  0  0  0  0  0  # atno 10718 bound_to 10713
  152.9808  135.6002  154.3630 H   0  0  0  0  0  0  0  0  0  0  0  0  # atno 10763 bound_to 10752
  154.3310  135.2768  155.2474 H   0  0  0  0  0  0  0  0  0  0  0  0  # atno 10764 bound_to 10752
  154.4598  135.5969  153.6303 H   0  0  0  0  0  0  0  0  0  0  0  0  # atno 10765 bound_to 10752
  139.9883  134.6632  156.0136 H   0  0  0  0  0  0  0  0  0  0  0  0  # atno 11005 bound_to 11000
  145.8724  139.2279  143.1653 LP  0  0  0  0  0  0  0  0  0  0  0  0  # atno 17320 bound_to 7965
  146.0072  140.8468  142.9989 LP  0  0  0  0  0  0  0  0  0  0  0  0  # atno 17321 bound_to 7965
  140.7712  143.5407  150.9316 LP  0  0  0  0  0  0  0  0  0  0  0  0  # atno 17342 bound_to 10162
  139.9089  143.6744  152.3118 LP  0  0  0  0  0  0  0  0  0  0  0  0  # atno 17343 bound_to 10162
  157.7462  131.0425  150.4697 LP  0  0  0  0  0  0  0  0  0  0  0  0  # atno 17370 bound_to 10713
  156.4894  130.4092  149.6415 LP  0  0  0  0  0  0  0  0  0  0  0  0  # atno 17371 bound_to 10713
  141.1544  133.6544  156.4114 LP  0  0  0  0  0  0  0  0  0  0  0  0  # atno 17394 bound_to 11000
  140.4958  134.6532  157.5229 LP  0  0  0  0  0  0  0  0  0  0  0  0  # atno 17395 bound_to 11000

$$$$
