AV-unprocessed.smi:2190|AV-procd|sdf|8889|dock6
  -GOLD-   2272012 93D 1   1.00000     0.00000
 Structure written by MMmdl.
 46 48  0  0  0  0  0  0  0  0  1 V2000
  143.9621  142.4591  160.6979 C   0  0  0  0  0  0  0  0  0  0  0  0
  145.3272  143.1102  160.6102 C   0  0  0  0  0  0  0  0  0  0  0  0
  145.7009  144.1058  161.5336 C   0  0  0  0  0  0  0  0  0  0  0  0
  146.9694  144.7067  161.4437 C   0  0  0  0  0  0  0  0  0  0  0  0
  147.8706  144.3183  160.4309 C   0  0  0  0  0  0  0  0  0  0  0  0
  149.2355  144.9761  160.3485 C   0  0  0  0  0  0  0  0  0  0  0  0
  147.5072  143.3218  159.4958 C   0  0  0  0  0  0  0  0  0  0  0  0
  148.4339  142.9937  158.5283 O   0  0  0  0  0  0  0  0  0  0  0  0
  148.4330  141.6731  158.0010 C   0  0  0  0  0  0  0  0  0  0  0  0
  149.2951  141.6202  156.7286 C   0  0  1  0  0  0  0  0  0  0  0  0
  148.5546  142.1416  155.6428 O   0  0  0  0  0  0  0  0  0  0  0  0
  150.6606  142.3231  156.8754 C   0  0  0  0  0  0  0  0  0  0  0  0
  151.6250  141.5181  157.6132 N   0  0  0  0  0  0  0  0  0  0  0  0
  152.1378  140.3048  157.2848 C   0  0  0  0  0  0  0  0  0  0  0  0
  151.7399  139.6007  156.0180 C   0  0  0  0  0  0  0  0  0  0  0  0
  152.1630  140.2556  154.8389 O   0  0  0  0  0  0  0  0  0  0  0  0
  153.0159  139.7972  158.1538 N   0  0  0  0  0  0  0  0  0  0  0  0
  153.0750  140.7681  159.1338 C   0  0  0  0  0  0  0  0  0  0  0  0
  153.8274  140.8229  160.3289 C   0  0  0  0  0  0  0  0  0  0  0  0
  153.7238  141.9374  161.1871 C   0  0  0  0  0  0  0  0  0  0  0  0
  152.8685  143.0107  160.8633 C   0  0  0  0  0  0  0  0  0  0  0  0
  152.1101  142.9758  159.6772 C   0  0  0  0  0  0  0  0  0  0  0  0
  152.2170  141.8606  158.8246 C   0  0  0  0  0  0  0  0  0  0  0  0
  146.2264  142.7208  159.5971 C   0  0  0  0  0  0  0  0  0  0  0  0
  143.4513  142.7298  161.6225 H   0  0  0  0  0  0  0  0  0  0  0  0
  144.0557  141.3733  160.6682 H   0  0  0  0  0  0  0  0  0  0  0  0
  143.3406  142.7739  159.8593 H   0  0  0  0  0  0  0  0  0  0  0  0
  145.0182  144.4126  162.3124 H   0  0  0  0  0  0  0  0  0  0  0  0
  147.2470  145.4688  162.1571 H   0  0  0  0  0  0  0  0  0  0  0  0
  150.0233  144.2234  160.3911 H   0  0  0  0  0  0  0  0  0  0  0  0
  149.3923  145.6762  161.1695 H   0  0  0  0  0  0  0  0  0  0  0  0
  149.3342  145.5241  159.4110 H   0  0  0  0  0  0  0  0  0  0  0  0
  148.8593  140.9957  158.7429 H   0  0  0  0  0  0  0  0  0  0  0  0
  147.4183  141.3340  157.7849 H   0  0  0  0  0  0  0  0  0  0  0  0
  149.4699  140.5697  156.4934 H   0  0  0  0  0  0  0  0  0  0  0  0
  148.7103  143.0723  155.5917 H   0  0  0  0  0  0  0  0  0  0  0  0
  151.0743  142.5803  155.9004 H   0  0  0  0  0  0  0  0  0  0  0  0
  150.5340  143.2677  157.4058 H   0  0  0  0  0  0  0  0  0  0  0  0
  152.1569  138.5939  156.0142 H   0  0  0  0  0  0  0  0  0  0  0  0
  150.6542  139.5048  155.9930 H   0  0  0  0  0  0  0  0  0  0  0  0
  152.9848  139.8787  154.5649 H   0  0  0  0  0  0  0  0  0  0  0  0
  154.4858  140.0060  160.5850 H   0  0  0  0  0  0  0  0  0  0  0  0
  154.3040  141.9690  162.0977 H   0  0  0  0  0  0  0  0  0  0  0  0
  152.7955  143.8607  161.5256 H   0  0  0  0  0  0  0  0  0  0  0  0
  151.4541  143.7958  159.4258 H   0  0  0  0  0  0  0  0  0  0  0  0
  145.9088  141.9565  158.9041 H   0  0  0  0  0  0  0  0  0  0  0  0
  1  2  1  0  0  0  0
  1 25  1  0  0  0  0
  1 26  1  0  0  0  0
  1 27  1  0  0  0  0
  2 24  1  0  0  0  0
  2  3  2  0  0  0  0
  3  4  1  0  0  0  0
  3 28  1  0  0  0  0
  4  5  2  0  0  0  0
  4 29  1  0  0  0  0
  5  6  1  0  0  0  0
  5  7  1  0  0  0  0
  6 30  1  0  0  0  0
  6 31  1  0  0  0  0
  6 32  1  0  0  0  0
  7  8  1  0  0  0  0
  7 24  2  0  0  0  0
  8  9  1  0  0  0  0
  9 10  1  0  0  0  0
  9 33  1  0  0  0  0
  9 34  1  0  0  0  0
 10 11  1  0  0  0  0
 10 12  1  0  0  0  0
 10 35  1  0  0  0  0
 11 36  1  0  0  0  0
 12 13  1  0  0  0  0
 12 37  1  0  0  0  0
 12 38  1  0  0  0  0
 13 23  1  0  0  0  0
 13 14  1  0  0  0  0
 14 15  1  0  0  0  0
 14 17  2  0  0  0  0
 15 16  1  0  0  0  0
 15 39  1  0  0  0  0
 15 40  1  0  0  0  0
 16 41  1  0  0  0  0
 17 18  1  0  0  0  0
 18 23  2  0  0  0  0
 18 19  1  0  0  0  0
 19 20  2  0  0  0  0
 19 42  1  0  0  0  0
 20 21  1  0  0  0  0
 20 43  1  0  0  0  0
 21 22  2  0  0  0  0
 21 44  1  0  0  0  0
 22 23  1  0  0  0  0
 22 45  1  0  0  0  0
 24 46  1  0  0  0  0
M  END
> <s_m_source_file>
AV-unprocessed.smi

> <i_m_source_file_index>
2190

> <i_lp_mmshare_version>
43012

> <i_f3d_flags>
0

> <s_epik_input>
W0NIM11jMVtjSF1bY0hdYyhbQ0gzXSljKFtjSF0xKU9bQ0gyXVtDQEhdKFtPSF0pW0NIMl1uKGMobjIpW0NIMl1bT0hdKWMoYzIzKVtjSF1bY0hdW2NIXVtjSF0z

> <s_epik_cmdline>
J2VwaWtfcHl0aG9uJywgJy1waCcsICc3LjAnLCAnLXRuJywgJzgnLCAnLW1hJywgJzIwMCcsICctbWV0YWxfYmluZGluZycsICctaW1hZScsICc8aW5maWxlLm1hZT4nLCAnLW9tYWUnLCAnPG91dGZpbGUubWFlPic=

> <r_lp_tautomer_probability>
1

> <r_epik_Ionization_Penalty>
0.0555874

> <r_epik_Ionization_Penalty_Charging>
0

> <r_epik_Ionization_Penalty_Neutral>
0.0555874

> <r_epik_State_Penalty>
0.0478234

> <r_epik_Charging_Adjusted_Penalty>
0.0478234

> <i_epik_Tot_Q>
0

> <i_epik_Tot_abs_Q>
0

> <r_epik_Metal_State_Penalty>
4.98044e-05

> <b_epik_Metal_Only>
0

> <s_lp_Force_Field>
OPLS_2005

> <r_lp_Energy>
17.5395

> <b_lp_Chiralities_Consistent>
1

> <s_lp_Variant>
AV-unprocessed.smi:2190-2

> <Gold.Version>
5.8.1

> <Gold.Id.Protein>
6NUR|6NUR_protein|mol2

> <Gold.PLP.Fitness>
52.8930

> <Gold.PLP.PLP>
-46.9577

> <Gold.PLP.part.hbond>
-2.8297

> <Gold.PLP.part.metal>
0.0000

> <Gold.PLP.part.buried>
-6.9744

> <Gold.PLP.part.nonpolar>
-37.3806

> <Gold.PLP.part.repulsive>
0.1920

> <Gold.PLP.ligand.clash>
0.0000

> <Gold.PLP.ligand.torsion>
0.7803

> <Gold.PLP.Chemscore.Hbond>
2.4857

> <Gold.PLP.Chemscore.CHOScore>
0.0000

> <Gold.PLP.Chemscore.Metal>
0.0000

> <Gold.Chemscore.Hbonds>
donor molecule, donor type, donor heavy atom, donor atom, acceptor molecule, acceptor atom, score
      L1  H    11    36       P1  8028  1.00
      P1  H  7989  7998       L1    16  0.66
      P1  H  7997  8008       L1    17  0.96

> <Gold.PLP.Chemscore.Internal.Correction>
0.0388

> <Gold.Rescore>
     Score         DG    S(hbond)    S(metal)    S(lipo)     H(rot)  DE(clash)    DE(int)     intcor
     16.52     -17.39       1.65        0.00     119.25       2.96       0.03       0.83       ----

> <Gold.Chemscore.Fitness>
16.5225

> <Gold.Chemscore.DG>
-17.3851

> <Gold.Chemscore.ZeroCoef>
-5.4800

> <Gold.Chemscore.Hbond>
1.6527

> <Gold.Chemscore.Metal>
0.0000

> <Gold.Chemscore.Lipo>
119.2530

> <Gold.Chemscore.Internal_Hbond>
0.0000

> <Gold.Chemscore.DEClash>
0.0326

> <Gold.Chemscore.DEInternal>
0.8300

> <Gold.Chemscore.Rot>
2.9561

> <Gold.Chemscore.Internal.Correction>
   9.000000E+99

> <Gold.Chemscore.Hbonds>
donor molecule, donor type, donor heavy atom, donor atom, acceptor molecule, acceptor atom, score
      L1  H    11    36       P1  8028  1.00
      P1  H  7989  7998       L1    16  0.16
      P1  H  7997  8008       L1    17  0.12

> <Gold.Chemscore.Hbond.Weighted>
-5.5202

> <Gold.Chemscore.Metal.Weighted>
-0.0000

> <Gold.Chemscore.Lipo.Weighted>
-13.9526

> <Gold.Chemscore.Internal_Hbond.Weighted>
0.0000

> <Gold.Chemscore.DEClash.Weighted>
0.0326

> <Gold.Chemscore.DEInternal.Weighted>
0.8300

> <Gold.Chemscore.Rot.Weighted>
7.5677

> <Gold.Chemscore.Internal.Correction.Weighted>
   9.000000E+99

> <Gold.Protein.RotatedTorsions>
[ 6907 6896 6895 6894 ] final -161.29 input  -60.11 | X-H torsion
[ 7974 7965 7964 7962 ] final -136.28 input  175.53 | X-H torsion
[ 8008 7997 7996 7995 ] final  -99.38 input   59.86 | X-H torsion
[ 10167 10162 10161 10158 ] final  171.82 input  -65.29 | X-H torsion
[ 10718 10713 10712 10709 ] final   19.02 input   66.30 | X-H torsion
[ 10763 10752 10751 10750 ] final  107.20 input  -60.55 | X-H torsion
[ 11005 11000 10999 10996 ] final   61.14 input  -57.11 | X-H torsion

> <Gold.Protein.ActiveResidues>
 VAL166  LYS551  ARG553  GLY616  TRP617  ASP618  TYR619  PRO620  LYS621  CYS622 
 ASP623  PHE694  ASN695  SER759  ASP760  ASP761  ALA762  ILE779  LEU786  VAL792 
 PHE793  MET794  SER795  GLU796  ALA797  LYS798  CYS799  TRP800  GLU811  SER814 

> <Gold.Protein.RotatedAtoms>
  151.3623  133.3885  159.2690 H   0  0  0  0  0  0  0  0  0  0  0  0  # atno 6907 bound_to 6896
  150.9716  134.9088  159.7801 H   0  0  0  0  0  0  0  0  0  0  0  0  # atno 6908 bound_to 6896
  152.5186  134.3585  159.9328 H   0  0  0  0  0  0  0  0  0  0  0  0  # atno 6909 bound_to 6896
  144.8941  140.6682  143.5127 H   0  0  0  0  0  0  0  0  0  0  0  0  # atno 7974 bound_to 7965
  154.8141  140.0448  157.1364 H   0  0  0  0  0  0  0  0  0  0  0  0  # atno 8008 bound_to 7997
  154.9334  140.3043  155.5136 H   0  0  0  0  0  0  0  0  0  0  0  0  # atno 8009 bound_to 7997
  156.2974  140.2319  156.4397 H   0  0  0  0  0  0  0  0  0  0  0  0  # atno 8010 bound_to 7997
  139.5058  144.3442  151.9987 H   0  0  0  0  0  0  0  0  0  0  0  0  # atno 10167 bound_to 10162
  157.1045  130.6482  149.5881 H   0  0  0  0  0  0  0  0  0  0  0  0  # atno 10718 bound_to 10713
  153.4035  135.3852  155.2003 H   0  0  0  0  0  0  0  0  0  0  0  0  # atno 10763 bound_to 10752
  154.8731  135.3777  154.4589 H   0  0  0  0  0  0  0  0  0  0  0  0  # atno 10764 bound_to 10752
  153.5089  135.7087  153.5853 H   0  0  0  0  0  0  0  0  0  0  0  0  # atno 10765 bound_to 10752
  140.0182  134.6193  155.9678 H   0  0  0  0  0  0  0  0  0  0  0  0  # atno 11005 bound_to 11000
  145.3731  139.1654  143.4321 LP  0  0  0  0  0  0  0  0  0  0  0  0  # atno 17320 bound_to 7965
  146.3071  140.3805  142.8683 LP  0  0  0  0  0  0  0  0  0  0  0  0  # atno 17321 bound_to 7965
  140.2880  144.3786  150.6097 LP  0  0  0  0  0  0  0  0  0  0  0  0  # atno 17342 bound_to 10162
  140.5968  143.2167  151.7149 LP  0  0  0  0  0  0  0  0  0  0  0  0  # atno 17343 bound_to 10162
  155.9865  130.4900  150.7083 LP  0  0  0  0  0  0  0  0  0  0  0  0  # atno 17370 bound_to 10713
  157.4612  131.0883  151.0743 LP  0  0  0  0  0  0  0  0  0  0  0  0  # atno 17371 bound_to 10713
  141.1756  133.6540  156.4818 LP  0  0  0  0  0  0  0  0  0  0  0  0  # atno 17394 bound_to 11000
  140.4434  134.6995  157.5003 LP  0  0  0  0  0  0  0  0  0  0  0  0  # atno 17395 bound_to 11000

$$$$
