AV-unprocessed.smi:3200|AV-procd|sdf|12235|dock4
  -GOLD-   2272018 73D 1   1.00000     0.00000
 Structure written by MMmdl.
 38 39  0  0  0  0  0  0  0  0  2 V2000
  153.0882  137.9115  156.5550 C   0  0  0  0  0  0  0  0  0  0  0  0
  152.0425  138.7523  155.9054 C   0  0  0  0  0  0  0  0  0  0  0  0
  151.7537  138.6257  154.6157 N   0  0  0  0  0  0  0  0  0  0  0  0
  150.7394  139.5730  154.4162 O   0  0  0  0  0  0  0  0  0  0  0  0
  150.5536  140.1724  155.6166 C   0  0  0  0  0  0  0  0  0  0  0  0
  149.4910  141.2116  155.7468 C   0  0  0  0  0  0  0  0  0  0  0  0
  149.3697  141.7476  157.1790 C   0  0  0  0  0  0  0  0  0  0  0  0
  150.3208  142.8532  157.4129 N   0  3  0  0  0  0  0  0  0  0  0  0
  150.4978  143.2329  158.8330 C   0  0  2  0  0  0  0  0  0  0  0  0
  149.5480  144.3475  159.2935 C   0  0  0  0  0  0  0  0  0  0  0  0
  150.2608  145.0331  160.4666 C   0  0  0  0  0  0  0  0  0  0  0  0
  151.6784  144.4435  160.5165 C   0  0  0  0  0  0  0  0  0  0  0  0
  151.9135  143.7552  159.1596 C   0  0  0  0  0  0  0  0  0  0  0  0
  152.9332  142.6078  159.2859 C   0  0  0  0  0  0  0  0  0  0  0  0
  152.4255  144.7898  158.1303 C   0  0  0  0  0  0  0  0  0  0  0  0
  151.3239  139.6869  156.5866 N   0  0  0  0  0  0  0  0  0  0  0  0
  153.5195  137.2048  155.8449 H   0  0  0  0  0  0  0  0  0  0  0  0
  152.6574  137.3478  157.3828 H   0  0  0  0  0  0  0  0  0  0  0  0
  153.8886  138.5408  156.9439 H   0  0  0  0  0  0  0  0  0  0  0  0
  149.7170  142.0266  155.0577 H   0  0  0  0  0  0  0  0  0  0  0  0
  148.5425  140.7805  155.4235 H   0  0  0  0  0  0  0  0  0  0  0  0
  148.3522  142.0974  157.3574 H   0  0  0  0  0  0  0  0  0  0  0  0
  149.5663  140.9459  157.8925 H   0  0  0  0  0  0  0  0  0  0  0  0
  151.2216  142.5679  157.0560 H   0  0  0  0  0  0  0  0  0  0  0  0
  150.3077  142.3507  159.4478 H   0  0  0  0  0  0  0  0  0  0  0  0
  149.3890  145.0710  158.4926 H   0  0  0  0  0  0  0  0  0  0  0  0
  148.5701  143.9592  159.5802 H   0  0  0  0  0  0  0  0  0  0  0  0
  150.2959  146.1110  160.3057 H   0  0  0  0  0  0  0  0  0  0  0  0
  149.7375  144.8621  161.4079 H   0  0  0  0  0  0  0  0  0  0  0  0
  152.4317  145.1984  160.7461 H   0  0  0  0  0  0  0  0  0  0  0  0
  151.7183  143.7057  161.3194 H   0  0  0  0  0  0  0  0  0  0  0  0
  153.9084  142.9813  159.6000 H   0  0  0  0  0  0  0  0  0  0  0  0
  153.0689  142.0919  158.3347 H   0  0  0  0  0  0  0  0  0  0  0  0
  152.6157  141.8651  160.0187 H   0  0  0  0  0  0  0  0  0  0  0  0
  153.3794  145.2138  158.4456 H   0  0  0  0  0  0  0  0  0  0  0  0
  151.7308  145.6199  158.0010 H   0  0  0  0  0  0  0  0  0  0  0  0
  152.5861  144.3390  157.1507 H   0  0  0  0  0  0  0  0  0  0  0  0
  150.0144  143.6660  156.8974 H   0  0  0  0  0  0  0  0  0  0  0  0
  1  2  1  0  0  0  0
  1 17  1  0  0  0  0
  1 18  1  0  0  0  0
  1 19  1  0  0  0  0
  2 16  1  0  0  0  0
  2  3  2  0  0  0  0
  3  4  1  0  0  0  0
  4  5  1  0  0  0  0
  5  6  1  0  0  0  0
  5 16  2  0  0  0  0
  6  7  1  0  0  0  0
  6 20  1  0  0  0  0
  6 21  1  0  0  0  0
  7  8  1  0  0  0  0
  7 22  1  0  0  0  0
  7 23  1  0  0  0  0
  8  9  1  0  0  0  0
  8 24  1  0  0  0  0
  8 38  1  0  0  0  0
  9 13  1  0  0  0  0
  9 10  1  0  0  0  0
  9 25  1  0  0  0  0
 10 11  1  0  0  0  0
 10 26  1  0  0  0  0
 10 27  1  0  0  0  0
 11 12  1  0  0  0  0
 11 28  1  0  0  0  0
 11 29  1  0  0  0  0
 12 13  1  0  0  0  0
 12 30  1  0  0  0  0
 12 31  1  0  0  0  0
 13 14  1  0  0  0  0
 13 15  1  0  0  0  0
 14 32  1  0  0  0  0
 14 33  1  0  0  0  0
 14 34  1  0  0  0  0
 15 35  1  0  0  0  0
 15 36  1  0  0  0  0
 15 37  1  0  0  0  0
M  CHG  1   8   1
M  END
> <s_m_source_file>
AV-unprocessed.smi

> <i_m_source_file_index>
3200

> <i_lp_mmshare_version>
43012

> <i_f3d_flags>
0

> <s_epik_input>
W0NIM11jMW5vYyhuMSlbQ0gyXVtDSDJdW05IXVtDQEBIXShDMihbQ0gzXSlbQ0gzXSlbQ0gyXVtDSDJdW0NIMl0y

> <s_epik_cmdline>
J2VwaWtfcHl0aG9uJywgJy1waCcsICc3LjAnLCAnLXRuJywgJzgnLCAnLW1hJywgJzIwMCcsICctbWV0YWxfYmluZGluZycsICctaW1hZScsICc8aW5maWxlLm1hZT4nLCAnLW9tYWUnLCAnPG91dGZpbGUubWFlPic=

> <r_lp_tautomer_probability>
1

> <r_epik_Ionization_Penalty>
0.000953161

> <r_epik_Ionization_Penalty_Charging>
0.000953161

> <r_epik_Ionization_Penalty_Neutral>
4.23223e-13

> <r_epik_State_Penalty>
0.000619331

> <r_epik_Charging_Adjusted_Penalty>
0.00157249

> <i_epik_Tot_Q>
1

> <i_epik_Tot_abs_Q>
1

> <r_epik_Metal_State_Penalty>
-0

> <b_epik_Metal_Only>
0

> <s_lp_Force_Field>
OPLS_2005

> <r_lp_Energy>
25.4915

> <b_lp_Chiralities_Consistent>
1

> <s_lp_Variant>
AV-unprocessed.smi:3200-1

> <Gold.Version>
5.8.1

> <Gold.Id.Protein>
6NUR|6NUR_protein|mol2

> <Gold.PLP.Fitness>
41.0380

> <Gold.PLP.PLP>
-33.2238

> <Gold.PLP.part.hbond>
-2.0000

> <Gold.PLP.part.metal>
0.0000

> <Gold.PLP.part.buried>
-3.8112

> <Gold.PLP.part.nonpolar>
-28.8215

> <Gold.PLP.part.repulsive>
0.2185

> <Gold.PLP.ligand.clash>
0.0000

> <Gold.PLP.ligand.torsion>
0.6035

> <Gold.PLP.Chemscore.Hbond>
3.0000

> <Gold.PLP.Chemscore.CHOScore>
0.0000

> <Gold.PLP.Chemscore.Metal>
0.0000

> <Gold.Chemscore.Hbonds>
donor molecule, donor type, donor heavy atom, donor atom, acceptor molecule, acceptor atom, score
      L1  H     8    38       P1  8028  2.00
      P1  H  7989  7998       L1     4  1.00

> <Gold.PLP.Chemscore.Internal.Correction>
0.0213

> <Gold.Rescore>
     Score         DG    S(hbond)    S(metal)    S(lipo)     H(rot)  DE(clash)    DE(int)     intcor
     16.29     -17.08       1.79        0.00      87.20       1.79       0.00       0.79       ----

> <Gold.Chemscore.Fitness>
16.2883

> <Gold.Chemscore.DG>
-17.0811

> <Gold.Chemscore.ZeroCoef>
-5.4800

> <Gold.Chemscore.Hbond>
1.7887

> <Gold.Chemscore.Metal>
0.0000

> <Gold.Chemscore.Lipo>
87.1984

> <Gold.Chemscore.Internal_Hbond>
0.0000

> <Gold.Chemscore.DEClash>
0.0009

> <Gold.Chemscore.DEInternal>
0.7919

> <Gold.Chemscore.Rot>
1.7872

> <Gold.Chemscore.Internal.Correction>
   9.000000E+99

> <Gold.Chemscore.Hbonds>
donor molecule, donor type, donor heavy atom, donor atom, acceptor molecule, acceptor atom, score
      L1  H     8    38       P1  8028  0.97
      P1  H  7989  7998       L1     4  0.10

> <Gold.Chemscore.Hbond.Weighted>
-5.9742

> <Gold.Chemscore.Metal.Weighted>
-0.0000

> <Gold.Chemscore.Lipo.Weighted>
-10.2022

> <Gold.Chemscore.Internal_Hbond.Weighted>
0.0000

> <Gold.Chemscore.DEClash.Weighted>
0.0009

> <Gold.Chemscore.DEInternal.Weighted>
0.7919

> <Gold.Chemscore.Rot.Weighted>
4.5753

> <Gold.Chemscore.Internal.Correction.Weighted>
   9.000000E+99

> <Gold.Protein.RotatedTorsions>
[ 6907 6896 6895 6894 ] final -153.36 input  -60.11 | X-H torsion
[ 7974 7965 7964 7962 ] final   51.90 input  175.53 | X-H torsion
[ 8008 7997 7996 7995 ] final  -90.92 input   59.86 | X-H torsion
[ 10167 10162 10161 10158 ] final  121.87 input  -65.29 | X-H torsion
[ 10718 10713 10712 10709 ] final  136.65 input   66.30 | X-H torsion
[ 10763 10752 10751 10750 ] final   -0.35 input  -60.55 | X-H torsion
[ 11005 11000 10999 10996 ] final -164.99 input  -57.11 | X-H torsion

> <Gold.Protein.ActiveResidues>
 VAL166  LYS551  ARG553  GLY616  TRP617  ASP618  TYR619  PRO620  LYS621  CYS622 
 ASP623  PHE694  ASN695  SER759  ASP760  ASP761  ALA762  ILE779  LEU786  VAL792 
 PHE793  MET794  SER795  GLU796  ALA797  LYS798  CYS799  TRP800  GLU811  SER814 

> <Gold.Protein.RotatedAtoms>
  151.2415  133.4397  159.2607 H   0  0  0  0  0  0  0  0  0  0  0  0  # atno 6907 bound_to 6896
  151.0701  134.9793  159.8314 H   0  0  0  0  0  0  0  0  0  0  0  0  # atno 6908 bound_to 6896
  152.5411  134.2360  159.8896 H   0  0  0  0  0  0  0  0  0  0  0  0  # atno 6909 bound_to 6896
  145.9867  139.4297  143.0099 H   0  0  0  0  0  0  0  0  0  0  0  0  # atno 7974 bound_to 7965
  154.7044  140.0525  157.0489 H   0  0  0  0  0  0  0  0  0  0  0  0  # atno 8008 bound_to 7997
  155.0640  140.3192  155.4632 H   0  0  0  0  0  0  0  0  0  0  0  0  # atno 8009 bound_to 7997
  156.2770  140.2093  156.5767 H   0  0  0  0  0  0  0  0  0  0  0  0  # atno 8010 bound_to 7997
  139.5893  144.7019  151.3330 H   0  0  0  0  0  0  0  0  0  0  0  0  # atno 10167 bound_to 10162
  157.4444  131.1060  151.0106 H   0  0  0  0  0  0  0  0  0  0  0  0  # atno 10718 bound_to 10713
  153.3307  135.6975  153.6950 H   0  0  0  0  0  0  0  0  0  0  0  0  # atno 10763 bound_to 10752
  153.5753  135.3508  155.2854 H   0  0  0  0  0  0  0  0  0  0  0  0  # atno 10764 bound_to 10752
  154.8617  135.4282  154.2496 H   0  0  0  0  0  0  0  0  0  0  0  0  # atno 10765 bound_to 10752
  140.5807  134.5144  157.5178 H   0  0  0  0  0  0  0  0  0  0  0  0  # atno 11005 bound_to 11000
  145.7690  140.9904  143.1159 LP  0  0  0  0  0  0  0  0  0  0  0  0  # atno 17320 bound_to 7965
  144.6877  139.9424  143.7475 LP  0  0  0  0  0  0  0  0  0  0  0  0  # atno 17321 bound_to 7965
  140.7159  143.7267  150.7654 LP  0  0  0  0  0  0  0  0  0  0  0  0  # atno 17342 bound_to 10162
  140.0819  143.4960  152.2525 LP  0  0  0  0  0  0  0  0  0  0  0  0  # atno 17343 bound_to 10162
  157.0957  130.5961  149.5449 LP  0  0  0  0  0  0  0  0  0  0  0  0  # atno 17370 bound_to 10713
  155.9961  130.5030  150.7486 LP  0  0  0  0  0  0  0  0  0  0  0  0  # atno 17371 bound_to 10713
  139.9318  134.7949  156.0909 LP  0  0  0  0  0  0  0  0  0  0  0  0  # atno 17394 bound_to 11000
  141.0998  133.6681  156.2727 LP  0  0  0  0  0  0  0  0  0  0  0  0  # atno 17395 bound_to 11000

$$$$
