AV-unprocessed.smi:381|AV-procd|sdf|2461|dock7
  -GOLD-   2262022403D 1   1.00000     0.00000
 Structure written by MMmdl.
 45 46  0  0  0  0  0  0  0  0  1 V2000
  148.0576  134.4137  155.8978 O   0  0  0  0  0  0  0  0  0  0  0  0
  148.2542  134.9502  154.8092 C   0  0  0  0  0  0  0  0  0  0  0  0
  149.0897  135.9872  154.6382 N   0  0  0  0  0  0  0  0  0  0  0  0
  149.8748  136.5963  155.7022 C   0  0  0  0  0  0  0  0  0  0  0  0
  150.8291  137.6545  155.1330 C   0  0  0  0  0  0  0  0  0  0  0  0
  150.4240  139.0604  155.5308 C   0  0  0  0  0  0  0  0  0  0  0  0
  150.9579  139.6655  156.6874 C   0  0  0  0  0  0  0  0  0  0  0  0
  150.5590  140.9760  157.0134 C   0  0  0  0  0  0  0  0  0  0  0  0
  149.6392  141.6267  156.1670 C   0  0  0  0  0  0  0  0  0  0  0  0
  149.1205  141.0571  155.0578 N   0  0  0  0  0  0  0  0  0  0  0  0
  149.5095  139.8006  154.7515 C   0  0  0  0  0  0  0  0  0  0  0  0
  147.6394  134.5270  153.6895 N   0  0  0  0  0  0  0  0  0  0  0  0
  146.6779  133.4322  153.5252 C   0  0  0  0  0  0  0  0  0  0  0  0
  147.3370  132.3404  152.6502 C   0  0  0  0  0  0  0  0  0  0  0  0
  146.4407  131.1578  152.2378 C   0  0  0  0  0  0  0  0  0  0  0  0
  145.7586  131.2959  150.8575 C   0  0  0  0  0  0  0  0  0  0  0  0
  144.3809  131.9844  150.8639 C   0  0  0  0  0  0  0  0  0  0  0  0
  144.3741  133.5111  150.6363 C   0  0  0  0  0  0  0  0  0  0  0  0
  145.3246  134.3516  151.5081 C   0  0  0  0  0  0  0  0  0  0  0  0
  145.3276  133.9737  153.0023 C   0  0  0  0  0  0  0  0  0  0  0  0
  149.1957  136.3690  153.7095 H   0  0  0  0  0  0  0  0  0  0  0  0
  149.2084  137.0526  156.4364 H   0  0  0  0  0  0  0  0  0  0  0  0
  150.4388  135.8175  156.2176 H   0  0  0  0  0  0  0  0  0  0  0  0
  151.8475  137.4637  155.4744 H   0  0  0  0  0  0  0  0  0  0  0  0
  150.8519  137.5915  154.0440 H   0  0  0  0  0  0  0  0  0  0  0  0
  151.6633  139.1372  157.3123 H   0  0  0  0  0  0  0  0  0  0  0  0
  150.9495  141.4710  157.8901 H   0  0  0  0  0  0  0  0  0  0  0  0
  149.3119  142.6321  156.3870 H   0  0  0  0  0  0  0  0  0  0  0  0
  149.0792  139.3756  153.8566 H   0  0  0  0  0  0  0  0  0  0  0  0
  147.8659  135.0312  152.8444 H   0  0  0  0  0  0  0  0  0  0  0  0
  146.4927  132.9794  154.5007 H   0  0  0  0  0  0  0  0  0  0  0  0
  147.8030  132.7726  151.7642 H   0  0  0  0  0  0  0  0  0  0  0  0
  148.1714  131.9357  153.2250 H   0  0  0  0  0  0  0  0  0  0  0  0
  147.0885  130.2823  152.1771 H   0  0  0  0  0  0  0  0  0  0  0  0
  145.7173  130.9207  153.0186 H   0  0  0  0  0  0  0  0  0  0  0  0
  146.4239  131.7609  150.1297 H   0  0  0  0  0  0  0  0  0  0  0  0
  145.5987  130.2824  150.4872 H   0  0  0  0  0  0  0  0  0  0  0  0
  143.7850  131.5467  150.0622 H   0  0  0  0  0  0  0  0  0  0  0  0
  143.8406  131.7257  151.7744 H   0  0  0  0  0  0  0  0  0  0  0  0
  144.6009  133.7157  149.5893 H   0  0  0  0  0  0  0  0  0  0  0  0
  143.3549  133.8678  150.7880 H   0  0  0  0  0  0  0  0  0  0  0  0
  146.3298  134.3087  151.0916 H   0  0  0  0  0  0  0  0  0  0  0  0
  145.0383  135.3993  151.4111 H   0  0  0  0  0  0  0  0  0  0  0  0
  144.5430  133.2522  153.2225 H   0  0  0  0  0  0  0  0  0  0  0  0
  145.0411  134.8506  153.5839 H   0  0  0  0  0  0  0  0  0  0  0  0
  1  2  2  0  0  0  0
  2  3  1  0  0  0  0
  2 12  1  0  0  0  0
  3  4  1  0  0  0  0
  3 21  1  0  0  0  0
  4  5  1  0  0  0  0
  4 22  1  0  0  0  0
  4 23  1  0  0  0  0
  5  6  1  0  0  0  0
  5 24  1  0  0  0  0
  5 25  1  0  0  0  0
  6 11  1  0  0  0  0
  6  7  2  0  0  0  0
  7  8  1  0  0  0  0
  7 26  1  0  0  0  0
  8  9  2  0  0  0  0
  8 27  1  0  0  0  0
  9 10  1  0  0  0  0
  9 28  1  0  0  0  0
 10 11  2  0  0  0  0
 11 29  1  0  0  0  0
 12 13  1  0  0  0  0
 12 30  1  0  0  0  0
 13 20  1  0  0  0  0
 13 14  1  0  0  0  0
 13 31  1  0  0  0  0
 14 15  1  0  0  0  0
 14 32  1  0  0  0  0
 14 33  1  0  0  0  0
 15 16  1  0  0  0  0
 15 34  1  0  0  0  0
 15 35  1  0  0  0  0
 16 17  1  0  0  0  0
 16 36  1  0  0  0  0
 16 37  1  0  0  0  0
 17 18  1  0  0  0  0
 17 38  1  0  0  0  0
 17 39  1  0  0  0  0
 18 19  1  0  0  0  0
 18 40  1  0  0  0  0
 18 41  1  0  0  0  0
 19 20  1  0  0  0  0
 19 42  1  0  0  0  0
 19 43  1  0  0  0  0
 20 44  1  0  0  0  0
 20 45  1  0  0  0  0
M  END
> <s_m_source_file>
AV-unprocessed.smi

> <i_m_source_file_index>
381

> <i_lp_mmshare_version>
43012

> <i_f3d_flags>
0

> <s_epik_input>
W0NIMl0xW0NIMl1bQ0gyXVtDSDJdW0NIMl1bQ0gyXVtDSDJdW0NIXTFbTkhdQyg9TylbTkhdW0NIMl1bQ0gyXWMyW2NIXVtjSF1bY0hdbltjSF0y

> <s_epik_cmdline>
J2VwaWtfcHl0aG9uJywgJy1waCcsICc3LjAnLCAnLXRuJywgJzgnLCAnLW1hJywgJzIwMCcsICctbWV0YWxfYmluZGluZycsICctaW1hZScsICc8aW5maWxlLm1hZT4nLCAnLW9tYWUnLCAnPG91dGZpbGUubWFlPic=

> <r_epik_Ionization_Penalty>
0.0144395

> <r_epik_Ionization_Penalty_Charging>
0

> <r_epik_Ionization_Penalty_Neutral>
0.0144395

> <r_epik_State_Penalty>
0.0112394

> <r_epik_Charging_Adjusted_Penalty>
0.0112394

> <i_epik_Tot_Q>
0

> <i_epik_Tot_abs_Q>
0

> <r_epik_Metal_State_Penalty>
0.0109727

> <b_epik_Metal_Only>
0

> <s_lp_Force_Field>
OPLS_2005

> <r_lp_Energy>
29.8357

> <b_lp_Chiralities_Consistent>
1

> <s_lp_Variant>
AV-unprocessed.smi:381-1

> <Gold.Version>
5.8.1

> <Gold.Id.Protein>
6NUR|6NUR_protein|mol2

> <Gold.PLP.Fitness>
46.4157

> <Gold.PLP.PLP>
-35.9695

> <Gold.PLP.part.hbond>
-3.0000

> <Gold.PLP.part.metal>
0.0000

> <Gold.PLP.part.buried>
-2.4501

> <Gold.PLP.part.nonpolar>
-29.6418

> <Gold.PLP.part.repulsive>
0.1837

> <Gold.PLP.ligand.clash>
0.0000

> <Gold.PLP.ligand.torsion>
0.7573

> <Gold.PLP.Chemscore.Hbond>
1.9920

> <Gold.PLP.Chemscore.CHOScore>
1.9795

> <Gold.PLP.Chemscore.Metal>
0.0000

> <Gold.Chemscore.Hbonds>
donor molecule, donor type, donor heavy atom, donor atom, acceptor molecule, acceptor atom, score
      L1  H     3    21       P1  7948  1.00
      L1  H    12    30       P1  7948  1.00
      L1  C     9    28       P1  8028  1.00
      L1  C    11    29       P1  7957  0.26

> <Gold.PLP.Chemscore.Internal.Correction>
0.0464

> <Gold.Rescore>
     Score         DG    S(hbond)    S(metal)    S(lipo)     H(rot)  DE(clash)    DE(int)     intcor
     16.74     -17.42       1.79        0.00      81.94       1.42       0.07       0.62       ----

> <Gold.Chemscore.Fitness>
16.7355

> <Gold.Chemscore.DG>
-17.4200

> <Gold.Chemscore.ZeroCoef>
-5.4800

> <Gold.Chemscore.Hbond>
1.7940

> <Gold.Chemscore.Metal>
0.0000

> <Gold.Chemscore.Lipo>
81.9355

> <Gold.Chemscore.Internal_Hbond>
0.0000

> <Gold.Chemscore.DEClash>
0.0650

> <Gold.Chemscore.DEInternal>
0.6194

> <Gold.Chemscore.Rot>
1.4213

> <Gold.Chemscore.Internal.Correction>
   9.000000E+99

> <Gold.Chemscore.Hbonds>
donor molecule, donor type, donor heavy atom, donor atom, acceptor molecule, acceptor atom, score
      L1  H     3    21       P1  7948  0.91
      L1  H    12    30       P1  7948  0.94

> <Gold.Chemscore.Hbond.Weighted>
-5.9921

> <Gold.Chemscore.Metal.Weighted>
-0.0000

> <Gold.Chemscore.Lipo.Weighted>
-9.5865

> <Gold.Chemscore.Internal_Hbond.Weighted>
0.0000

> <Gold.Chemscore.DEClash.Weighted>
0.0650

> <Gold.Chemscore.DEInternal.Weighted>
0.6194

> <Gold.Chemscore.Rot.Weighted>
3.6385

> <Gold.Chemscore.Internal.Correction.Weighted>
   9.000000E+99

> <Gold.Protein.RotatedTorsions>
[ 6907 6896 6895 6894 ] final  115.35 input  -60.11 | X-H torsion
[ 7974 7965 7964 7962 ] final  -84.79 input  175.53 | X-H torsion
[ 8008 7997 7996 7995 ] final   24.77 input   59.86 | X-H torsion
[ 10167 10162 10161 10158 ] final   30.75 input  -65.29 | X-H torsion
[ 10718 10713 10712 10709 ] final  108.10 input   66.30 | X-H torsion
[ 10763 10752 10751 10750 ] final  148.60 input  -60.55 | X-H torsion
[ 11005 11000 10999 10996 ] final  161.38 input  -57.11 | X-H torsion

> <Gold.Protein.ActiveResidues>
 VAL166  LYS551  ARG553  GLY616  TRP617  ASP618  TYR619  PRO620  LYS621  CYS622 
 ASP623  PHE694  ASN695  SER759  ASP760  ASP761  ALA762  ILE779  LEU786  VAL792 
 PHE793  MET794  SER795  GLU796  ALA797  LYS798  CYS799  TRP800  GLU811  SER814 

> <Gold.Protein.RotatedAtoms>
  152.4747  133.8110  159.7003 H   0  0  0  0  0  0  0  0  0  0  0  0  # atno 6907 bound_to 6896
  150.8757  133.7433  159.2954 H   0  0  0  0  0  0  0  0  0  0  0  0  # atno 6908 bound_to 6896
  151.4954  135.1063  159.9867 H   0  0  0  0  0  0  0  0  0  0  0  0  # atno 6909 bound_to 6896
  145.5020  140.9546  143.1754 H   0  0  0  0  0  0  0  0  0  0  0  0  # atno 7974 bound_to 7965
  155.0014  140.3126  155.4866 H   0  0  0  0  0  0  0  0  0  0  0  0  # atno 8008 bound_to 7997
  156.2924  140.2231  156.5065 H   0  0  0  0  0  0  0  0  0  0  0  0  # atno 8009 bound_to 7997
  154.7615  140.0459  157.0965 H   0  0  0  0  0  0  0  0  0  0  0  0  # atno 8010 bound_to 7997
  140.4650  144.0850  150.6222 H   0  0  0  0  0  0  0  0  0  0  0  0  # atno 10167 bound_to 10162
  157.6601  131.0886  150.6254 H   0  0  0  0  0  0  0  0  0  0  0  0  # atno 10718 bound_to 10713
  154.0575  135.2877  155.3330 H   0  0  0  0  0  0  0  0  0  0  0  0  # atno 10763 bound_to 10752
  154.6830  135.5256  153.8291 H   0  0  0  0  0  0  0  0  0  0  0  0  # atno 10764 bound_to 10752
  153.0536  135.6586  154.0766 H   0  0  0  0  0  0  0  0  0  0  0  0  # atno 10765 bound_to 10752
  140.2152  134.8237  157.3163 H   0  0  0  0  0  0  0  0  0  0  0  0  # atno 11005 bound_to 11000
  144.7775  139.6598  143.7168 LP  0  0  0  0  0  0  0  0  0  0  0  0  # atno 17320 bound_to 7965
  146.2220  139.5653  142.9612 LP  0  0  0  0  0  0  0  0  0  0  0  0  # atno 17321 bound_to 7965
  140.4047  143.2686  151.9905 LP  0  0  0  0  0  0  0  0  0  0  0  0  # atno 17342 bound_to 10162
  139.4811  144.5967  151.7678 LP  0  0  0  0  0  0  0  0  0  0  0  0  # atno 17343 bound_to 10162
  156.6558  130.4498  149.5704 LP  0  0  0  0  0  0  0  0  0  0  0  0  # atno 17370 bound_to 10713
  156.2104  130.6675  151.1263 LP  0  0  0  0  0  0  0  0  0  0  0  0  # atno 17371 bound_to 10713
  140.1908  134.4374  155.7717 LP  0  0  0  0  0  0  0  0  0  0  0  0  # atno 17394 bound_to 11000
  141.2225  133.7026  156.8024 LP  0  0  0  0  0  0  0  0  0  0  0  0  # atno 17395 bound_to 11000

$$$$
