AV-unprocessed.smi:66|AV-procd|sdf|624|dock4
  -GOLD-   2262016513D 1   1.00000     0.00000
 Structure written by MMmdl.
 28 30  0  0  0  0  0  0  0  0  2 V2000
  151.8030  136.8386  155.6658 O   0  0  0  0  0  0  0  0  0  0  0  0
  151.2491  137.7823  156.2709 C   0  0  0  0  0  0  0  0  0  0  0  0
  150.4879  137.6612  157.2565 O   0  5  0  0  0  0  0  0  0  0  0  0
  151.5356  139.1990  155.7458 C   0  0  1  0  0  0  0  0  0  0  0  0
  151.0268  139.3872  154.3053 C   0  0  0  0  0  0  0  0  0  0  0  0
  149.6538  140.0334  154.4881 C   0  0  2  0  0  0  0  0  0  0  0  0
  149.2424  140.7651  153.3524 O   0  0  0  0  0  0  0  0  0  0  0  0
  149.8607  140.9244  155.7134 C   0  0  0  0  0  0  0  0  0  0  0  0
  150.8396  140.2185  156.5322 N   0  0  0  0  0  0  0  0  0  0  0  0
  151.3974  140.8322  157.6761 C   0  0  0  0  0  0  0  0  0  0  0  0
  152.2542  140.1093  158.4376 N   0  0  0  0  0  0  0  0  0  0  0  0
  152.7833  140.6822  159.5260 C   0  0  0  0  0  0  0  0  0  0  0  0
  152.5932  141.9192  160.0081 N   0  0  0  0  0  0  0  0  0  0  0  0
  151.7547  142.6549  159.2670 C   0  0  0  0  0  0  0  0  0  0  0  0
  151.3829  143.9674  159.5248 N   0  0  0  0  0  0  0  0  0  0  0  0
  150.5625  144.2250  158.5083 C   0  0  0  0  0  0  0  0  0  0  0  0
  150.3647  143.2255  157.6345 N   0  0  0  0  0  0  0  0  0  0  0  0
  151.1261  142.1582  158.0845 C   0  0  0  0  0  0  0  0  0  0  0  0
  149.7869  143.2739  156.8056 H   0  0  0  0  0  0  0  0  0  0  0  0
  152.6116  139.3747  155.7631 H   0  0  0  0  0  0  0  0  0  0  0  0
  151.6949  140.0693  153.7772 H   0  0  0  0  0  0  0  0  0  0  0  0
  150.9820  138.4623  153.7279 H   0  0  0  0  0  0  0  0  0  0  0  0
  148.9119  139.2652  154.7103 H   0  0  0  0  0  0  0  0  0  0  0  0
  149.1312  140.1618  152.6340 H   0  0  0  0  0  0  0  0  0  0  0  0
  150.2685  141.8945  155.4232 H   0  0  0  0  0  0  0  0  0  0  0  0
  148.9261  141.0895  156.2508 H   0  0  0  0  0  0  0  0  0  0  0  0
  153.4567  140.0599  160.0966 H   0  0  0  0  0  0  0  0  0  0  0  0
  150.0854  145.1868  158.3900 H   0  0  0  0  0  0  0  0  0  0  0  0
  1  2  2  0  0  0  0
  2  3  1  0  0  0  0
  2  4  1  0  0  0  0
  4  9  1  0  0  0  0
  4  5  1  0  0  0  0
  4 20  1  0  0  0  0
  5  6  1  0  0  0  0
  5 21  1  0  0  0  0
  5 22  1  0  0  0  0
  6  7  1  0  0  0  0
  6  8  1  0  0  0  0
  6 23  1  0  0  0  0
  7 24  1  0  0  0  0
  8  9  1  0  0  0  0
  8 25  1  0  0  0  0
  8 26  1  0  0  0  0
  9 10  1  0  0  0  0
 10 18  1  0  0  0  0
 10 11  2  0  0  0  0
 11 12  1  0  0  0  0
 12 13  2  0  0  0  0
 12 27  1  0  0  0  0
 13 14  1  0  0  0  0
 14 18  2  0  0  0  0
 14 15  1  0  0  0  0
 15 16  2  0  0  0  0
 16 17  1  0  0  0  0
 16 28  1  0  0  0  0
 17 19  1  0  0  0  0
 17 18  1  0  0  0  0
M  CHG  1   3  -1
M  END
> <s_m_source_file>
AV-unprocessed.smi

> <i_m_source_file_index>
66

> <i_lp_mmshare_version>
43012

> <i_f3d_flags>
0

> <s_epik_input>
Tz1DKFtPSF0pW0NAQEhdMVtDSDJdW0NAQEhdKFtPSF0pW0NIMl1OMWMobltjSF1uMiljKGMyMylbbkhdW2NIXW4z

> <s_epik_cmdline>
J2VwaWtfcHl0aG9uJywgJy1waCcsICc3LjAnLCAnLXRuJywgJzgnLCAnLW1hJywgJzIwMCcsICctbWV0YWxfYmluZGluZycsICctaW1hZScsICc8aW5maWxlLm1hZT4nLCAnLW9tYWUnLCAnPG91dGZpbGUubWFlPic=

> <r_lp_tautomer_probability>
0.0419193

> <r_epik_Ionization_Penalty>
0.0157405

> <r_epik_Ionization_Penalty_Charging>
0.000248217

> <r_epik_Ionization_Penalty_Neutral>
0.0154923

> <r_epik_State_Penalty>
1.99742

> <r_epik_Charging_Adjusted_Penalty>
1.99767

> <i_epik_Tot_Q>
-1

> <i_epik_Tot_abs_Q>
1

> <r_epik_Metal_State_Penalty>
2.31035

> <b_epik_Metal_Only>
0

> <s_lp_Force_Field>
OPLS_2005

> <r_lp_Energy>
19.7313

> <b_lp_Chiralities_Consistent>
1

> <s_lp_Variant>
AV-unprocessed.smi:66-8

> <Gold.Version>
5.8.1

> <Gold.Id.Protein>
6NUR|6NUR_protein|mol2

> <Gold.PLP.Fitness>
42.9786

> <Gold.PLP.PLP>
-27.0896

> <Gold.PLP.part.hbond>
-4.3376

> <Gold.PLP.part.metal>
0.0000

> <Gold.PLP.part.buried>
-3.6689

> <Gold.PLP.part.nonpolar>
-20.2319

> <Gold.PLP.part.repulsive>
0.1153

> <Gold.PLP.ligand.clash>
0.0000

> <Gold.PLP.ligand.torsion>
0.2128

> <Gold.PLP.Chemscore.Hbond>
4.4692

> <Gold.PLP.Chemscore.CHOScore>
0.9082

> <Gold.PLP.Chemscore.Metal>
0.0000

> <Gold.Chemscore.Hbonds>
donor molecule, donor type, donor heavy atom, donor atom, acceptor molecule, acceptor atom, score
      L1  H     7    24       P1  7957  0.75
      L1  H    17    19       P1  8028  0.71
      P1  H  8011  8017       L1     7  0.95
      P1  H 10752 10763       L1     1  2.00
      L1  C    16    28       P1  8029  0.94

> <Gold.PLP.Chemscore.Internal.Correction>
0.1824

> <Gold.Rescore>
     Score         DG    S(hbond)    S(metal)    S(lipo)     H(rot)  DE(clash)    DE(int)     intcor
     12.23     -14.13       2.66        0.00      37.02       1.78       0.81       1.09       ----

> <Gold.Chemscore.Fitness>
12.2318

> <Gold.Chemscore.DG>
-14.1323

> <Gold.Chemscore.ZeroCoef>
-5.4800

> <Gold.Chemscore.Hbond>
2.6612

> <Gold.Chemscore.Metal>
0.0000

> <Gold.Chemscore.Lipo>
37.0215

> <Gold.Chemscore.Internal_Hbond>
0.0000

> <Gold.Chemscore.DEClash>
0.8075

> <Gold.Chemscore.DEInternal>
1.0930

> <Gold.Chemscore.Rot>
1.7842

> <Gold.Chemscore.Internal.Correction>
   9.000000E+99

> <Gold.Chemscore.Hbonds>
donor molecule, donor type, donor heavy atom, donor atom, acceptor molecule, acceptor atom, score
      L1  H     7    24       P1  7957  0.70
      L1  H    17    19       P1  8028  0.66
      P1  H  8011  8017       L1     7  0.20
      P1  H 10752 10763       L1     1  0.96

> <Gold.Chemscore.Hbond.Weighted>
-8.8884

> <Gold.Chemscore.Metal.Weighted>
-0.0000

> <Gold.Chemscore.Lipo.Weighted>
-4.3315

> <Gold.Chemscore.Internal_Hbond.Weighted>
0.0000

> <Gold.Chemscore.DEClash.Weighted>
0.8075

> <Gold.Chemscore.DEInternal.Weighted>
1.0930

> <Gold.Chemscore.Rot.Weighted>
4.5676

> <Gold.Chemscore.Internal.Correction.Weighted>
   9.000000E+99

> <Gold.Protein.RotatedTorsions>
[ 6907 6896 6895 6894 ] final   -3.80 input  -60.11 | X-H torsion
[ 7974 7965 7964 7962 ] final  -27.28 input  175.53 | X-H torsion
[ 8008 7997 7996 7995 ] final -165.28 input   59.86 | X-H torsion
[ 10167 10162 10161 10158 ] final -107.11 input  -65.29 | X-H torsion
[ 10718 10713 10712 10709 ] final -112.05 input   66.30 | X-H torsion
[ 10763 10752 10751 10750 ] final   64.68 input  -60.55 | X-H torsion
[ 11005 11000 10999 10996 ] final -166.67 input  -57.11 | X-H torsion

> <Gold.Protein.ActiveResidues>
 VAL166  LYS551  ARG553  GLY616  TRP617  ASP618  TYR619  PRO620  LYS621  CYS622 
 ASP623  PHE694  ASN695  SER759  ASP760  ASP761  ALA762  ILE779  LEU786  VAL792 
 PHE793  MET794  SER795  GLU796  ALA797  LYS798  CYS799  TRP800  GLU811  SER814 

> <Gold.Protein.RotatedAtoms>
  151.5080  135.1064  159.9846 H   0  0  0  0  0  0  0  0  0  0  0  0  # atno 6907 bound_to 6896
  152.4674  133.7948  159.6932 H   0  0  0  0  0  0  0  0  0  0  0  0  # atno 6908 bound_to 6896
  150.8664  133.7505  159.3001 H   0  0  0  0  0  0  0  0  0  0  0  0  # atno 6909 bound_to 6896
  146.1368  140.5131  142.8669 H   0  0  0  0  0  0  0  0  0  0  0  0  # atno 7974 bound_to 7965
  155.8475  140.0958  157.1695 H   0  0  0  0  0  0  0  0  0  0  0  0  # atno 8008 bound_to 7997
  154.3984  140.1389  156.3866 H   0  0  0  0  0  0  0  0  0  0  0  0  # atno 8009 bound_to 7997
  155.7997  140.3453  155.5398 H   0  0  0  0  0  0  0  0  0  0  0  0  # atno 8010 bound_to 7997
  140.1805  143.3970  152.1285 H   0  0  0  0  0  0  0  0  0  0  0  0  # atno 10167 bound_to 10162
  156.0683  130.5900  150.8457 H   0  0  0  0  0  0  0  0  0  0  0  0  # atno 10718 bound_to 10713
  153.0065  135.5384  154.6548 H   0  0  0  0  0  0  0  0  0  0  0  0  # atno 10763 bound_to 10752
  154.5771  135.2846  155.0772 H   0  0  0  0  0  0  0  0  0  0  0  0  # atno 10764 bound_to 10752
  154.1915  135.6499  153.5114 H   0  0  0  0  0  0  0  0  0  0  0  0  # atno 10765 bound_to 10752
  140.5618  134.5325  157.5145 H   0  0  0  0  0  0  0  0  0  0  0  0  # atno 11005 bound_to 11000
  144.7749  140.5717  143.6645 LP  0  0  0  0  0  0  0  0  0  0  0  0  # atno 17320 bound_to 7965
  145.5137  139.1478  143.3591 LP  0  0  0  0  0  0  0  0  0  0  0  0  # atno 17321 bound_to 7965
  139.5298  144.7146  151.5097 LP  0  0  0  0  0  0  0  0  0  0  0  0  # atno 17342 bound_to 10162
  140.6522  143.8672  150.6798 LP  0  0  0  0  0  0  0  0  0  0  0  0  # atno 17343 bound_to 10162
  157.5738  131.0946  150.9376 LP  0  0  0  0  0  0  0  0  0  0  0  0  # atno 17370 bound_to 10713
  156.9587  130.5447  149.5285 LP  0  0  0  0  0  0  0  0  0  0  0  0  # atno 17371 bound_to 10713
  139.9404  134.7798  156.0693 LP  0  0  0  0  0  0  0  0  0  0  0  0  # atno 17394 bound_to 11000
  141.1110  133.6643  156.2978 LP  0  0  0  0  0  0  0  0  0  0  0  0  # atno 17395 bound_to 11000

$$$$
