AV-unprocessed.smi:3123|AV-procd|sdf|11901|dock4
  -GOLD-   2272017283D 1   1.00000     0.00000
 Structure written by MMmdl.
 29 30  0  0  0  0  0  0  0  0  1 V2000
  151.2462  144.0906  157.3495 N   0  0  0  0  0  0  0  0  0  0  0  0
  151.6900  144.8707  158.4867 C   0  0  0  0  0  0  0  0  0  0  0  0
  152.1714  143.9986  159.6270 C   0  0  0  0  0  0  0  0  0  0  0  0
  151.9949  144.4039  160.9652 C   0  0  0  0  0  0  0  0  0  0  0  0
  152.4681  143.5591  161.9879 C   0  0  0  0  0  0  0  0  0  0  0  0
  153.0831  142.3810  161.7510 N   0  0  0  0  0  0  0  0  0  0  0  0
  153.2542  141.9938  160.4636 C   0  0  0  0  0  0  0  0  0  0  0  0
  153.8888  140.7685  160.2141 N   0  0  0  0  0  0  0  0  0  0  0  0
  153.1172  139.8778  159.3562 C   0  0  0  0  0  0  0  0  0  0  0  0
  153.8262  138.5173  159.2369 C   0  0  0  0  0  0  0  0  0  0  0  0
  155.1567  138.7097  158.7641 O   0  0  0  0  0  0  0  0  0  0  0  0
  155.9258  139.5220  159.6469 C   0  0  0  0  0  0  0  0  0  0  0  0
  155.2712  140.9084  159.7732 C   0  0  0  0  0  0  0  0  0  0  0  0
  152.8171  142.7721  159.3711 C   0  0  0  0  0  0  0  0  0  0  0  0
  151.0279  143.1500  157.6453 H   0  0  0  0  0  0  0  0  0  0  0  0
  150.3922  144.4862  156.9830 H   0  0  0  0  0  0  0  0  0  0  0  0
  152.5009  145.5278  158.1709 H   0  0  0  0  0  0  0  0  0  0  0  0
  150.8739  145.5105  158.8236 H   0  0  0  0  0  0  0  0  0  0  0  0
  151.5089  145.3384  161.2043 H   0  0  0  0  0  0  0  0  0  0  0  0
  152.3490  143.8367  163.0249 H   0  0  0  0  0  0  0  0  0  0  0  0
  152.1160  139.7437  159.7674 H   0  0  0  0  0  0  0  0  0  0  0  0
  153.0038  140.3237  158.3669 H   0  0  0  0  0  0  0  0  0  0  0  0
  153.8422  138.0017  160.1983 H   0  0  0  0  0  0  0  0  0  0  0  0
  153.2908  137.8739  158.5388 H   0  0  0  0  0  0  0  0  0  0  0  0
  156.0086  139.0403  160.6227 H   0  0  0  0  0  0  0  0  0  0  0  0
  156.9371  139.6182  159.2517 H   0  0  0  0  0  0  0  0  0  0  0  0
  155.3031  141.4204  158.8105 H   0  0  0  0  0  0  0  0  0  0  0  0
  155.8257  141.5217  160.4844 H   0  0  0  0  0  0  0  0  0  0  0  0
  152.9726  142.4339  158.3567 H   0  0  0  0  0  0  0  0  0  0  0  0
  1  2  1  0  0  0  0
  1 15  1  0  0  0  0
  1 16  1  0  0  0  0
  2  3  1  0  0  0  0
  2 17  1  0  0  0  0
  2 18  1  0  0  0  0
  3 14  1  0  0  0  0
  3  4  2  0  0  0  0
  4  5  1  0  0  0  0
  4 19  1  0  0  0  0
  5  6  2  0  0  0  0
  5 20  1  0  0  0  0
  6  7  1  0  0  0  0
  7  8  1  0  0  0  0
  7 14  2  0  0  0  0
  8 13  1  0  0  0  0
  8  9  1  0  0  0  0
  9 10  1  0  0  0  0
  9 21  1  0  0  0  0
  9 22  1  0  0  0  0
 10 11  1  0  0  0  0
 10 23  1  0  0  0  0
 10 24  1  0  0  0  0
 11 12  1  0  0  0  0
 12 13  1  0  0  0  0
 12 25  1  0  0  0  0
 12 26  1  0  0  0  0
 13 27  1  0  0  0  0
 13 28  1  0  0  0  0
 14 29  1  0  0  0  0
M  END
> <s_m_source_file>
AV-unprocessed.smi

> <i_m_source_file_index>
3123

> <i_lp_mmshare_version>
43012

> <i_f3d_flags>
0

> <s_epik_input>
W05IMl1bQ0gyXWMxW2NIXVtjSF1uYyhbY0hdMSlOMltDSDJdW0NIMl1PW0NIMl1bQ0gyXTI=

> <s_epik_cmdline>
J2VwaWtfcHl0aG9uJywgJy1waCcsICc3LjAnLCAnLXRuJywgJzgnLCAnLW1hJywgJzIwMCcsICctbWV0YWxfYmluZGluZycsICctaW1hZScsICc8aW5maWxlLm1hZT4nLCAnLW9tYWUnLCAnPG91dGZpbGUubWFlPic=

> <r_lp_tautomer_probability>
1

> <r_epik_Ionization_Penalty>
1.26929

> <r_epik_Ionization_Penalty_Charging>
0

> <r_epik_Ionization_Penalty_Neutral>
1.26929

> <r_epik_State_Penalty>
2.46732

> <r_epik_Charging_Adjusted_Penalty>
2.46732

> <i_epik_Tot_Q>
0

> <i_epik_Tot_abs_Q>
0

> <r_epik_Metal_State_Penalty>
2.44539

> <b_epik_Metal_Only>
0

> <s_lp_Force_Field>
OPLS_2005

> <r_lp_Energy>
17.6888

> <b_lp_Chiralities_Consistent>
1

> <s_lp_Variant>
AV-unprocessed.smi:3123-2

> <Gold.Version>
5.8.1

> <Gold.Id.Protein>
6NUR|6NUR_protein|mol2

> <Gold.PLP.Fitness>
39.9386

> <Gold.PLP.PLP>
-35.0697

> <Gold.PLP.part.hbond>
-2.0000

> <Gold.PLP.part.metal>
0.0000

> <Gold.PLP.part.buried>
-5.7823

> <Gold.PLP.part.nonpolar>
-27.4291

> <Gold.PLP.part.repulsive>
0.0452

> <Gold.PLP.ligand.clash>
0.0000

> <Gold.PLP.ligand.torsion>
0.6173

> <Gold.PLP.Chemscore.Hbond>
2.0000

> <Gold.PLP.Chemscore.CHOScore>
0.0000

> <Gold.PLP.Chemscore.Metal>
0.0000

> <Gold.Chemscore.Hbonds>
donor molecule, donor type, donor heavy atom, donor atom, acceptor molecule, acceptor atom, score
      L1  H     1    16       P1  8028  1.00
      P1  H  7997  8010       L1    11  0.80

> <Gold.PLP.Chemscore.Internal.Correction>
0.1035

> <Gold.Rescore>
     Score         DG    S(hbond)    S(metal)    S(lipo)     H(rot)  DE(clash)    DE(int)     intcor
     16.32     -16.83       1.26        0.00      89.25       1.29       0.01       0.49       ----

> <Gold.Chemscore.Fitness>
16.3241

> <Gold.Chemscore.DG>
-16.8277

> <Gold.Chemscore.ZeroCoef>
-5.4800

> <Gold.Chemscore.Hbond>
1.2578

> <Gold.Chemscore.Metal>
0.0000

> <Gold.Chemscore.Lipo>
89.2525

> <Gold.Chemscore.Internal_Hbond>
0.0000

> <Gold.Chemscore.DEClash>
0.0088

> <Gold.Chemscore.DEInternal>
0.4948

> <Gold.Chemscore.Rot>
1.2875

> <Gold.Chemscore.Internal.Correction>
   9.000000E+99

> <Gold.Chemscore.Hbonds>
donor molecule, donor type, donor heavy atom, donor atom, acceptor molecule, acceptor atom, score
      L1  H     1    16       P1  8028  0.79
      P1  H  7997  8010       L1    11  0.08

> <Gold.Chemscore.Hbond.Weighted>
-4.2012

> <Gold.Chemscore.Metal.Weighted>
-0.0000

> <Gold.Chemscore.Lipo.Weighted>
-10.4425

> <Gold.Chemscore.Internal_Hbond.Weighted>
0.0000

> <Gold.Chemscore.DEClash.Weighted>
0.0088

> <Gold.Chemscore.DEInternal.Weighted>
0.4948

> <Gold.Chemscore.Rot.Weighted>
3.2961

> <Gold.Chemscore.Internal.Correction.Weighted>
   9.000000E+99

> <Gold.Protein.RotatedTorsions>
[ 6907 6896 6895 6894 ] final   -6.91 input  -60.11 | X-H torsion
[ 7974 7965 7964 7962 ] final -151.40 input  175.53 | X-H torsion
[ 8008 7997 7996 7995 ] final    1.58 input   59.86 | X-H torsion
[ 10167 10162 10161 10158 ] final -178.77 input  -65.29 | X-H torsion
[ 10718 10713 10712 10709 ] final  163.09 input   66.30 | X-H torsion
[ 10763 10752 10751 10750 ] final -136.13 input  -60.55 | X-H torsion
[ 11005 11000 10999 10996 ] final -178.16 input  -57.11 | X-H torsion

> <Gold.Protein.ActiveResidues>
 VAL166  LYS551  ARG553  GLY616  TRP617  ASP618  TYR619  PRO620  LYS621  CYS622 
 ASP623  PHE694  ASN695  SER759  ASP760  ASP761  ALA762  ILE779  LEU786  VAL792 
 PHE793  MET794  SER795  GLU796  ALA797  LYS798  CYS799  TRP800  GLU811  SER814 

> <Gold.Protein.RotatedAtoms>
  151.4581  135.1036  159.9716 H   0  0  0  0  0  0  0  0  0  0  0  0  # atno 6907 bound_to 6896
  152.4863  133.8378  159.7147 H   0  0  0  0  0  0  0  0  0  0  0  0  # atno 6908 bound_to 6896
  150.8976  133.7101  159.2914 H   0  0  0  0  0  0  0  0  0  0  0  0  # atno 6909 bound_to 6896
  144.7852  140.4803  143.5811 H   0  0  0  0  0  0  0  0  0  0  0  0  # atno 7974 bound_to 7965
  154.6815  140.2633  155.6904 H   0  0  0  0  0  0  0  0  0  0  0  0  # atno 8008 bound_to 7997
  156.2698  140.2809  156.1283 H   0  0  0  0  0  0  0  0  0  0  0  0  # atno 8009 bound_to 7997
  155.1025  140.0374  157.2691 H   0  0  0  0  0  0  0  0  0  0  0  0  # atno 8010 bound_to 7997
  139.5417  144.2345  152.0908 H   0  0  0  0  0  0  0  0  0  0  0  0  # atno 10167 bound_to 10162
  157.1133  131.0473  151.2447 H   0  0  0  0  0  0  0  0  0  0  0  0  # atno 10718 bound_to 10713
  154.8690  135.3682  154.5011 H   0  0  0  0  0  0  0  0  0  0  0  0  # atno 10763 bound_to 10752
  153.5652  135.7022  153.5534 H   0  0  0  0  0  0  0  0  0  0  0  0  # atno 10764 bound_to 10752
  153.3592  135.4051  155.1668 H   0  0  0  0  0  0  0  0  0  0  0  0  # atno 10765 bound_to 10752
  140.4328  134.6503  157.4720 H   0  0  0  0  0  0  0  0  0  0  0  0  # atno 11005 bound_to 11000
  145.5941  139.1498  143.3166 LP  0  0  0  0  0  0  0  0  0  0  0  0  # atno 17320 bound_to 7965
  146.2080  140.6065  142.9072 LP  0  0  0  0  0  0  0  0  0  0  0  0  # atno 17321 bound_to 7965
  140.1825  144.4830  150.6521 LP  0  0  0  0  0  0  0  0  0  0  0  0  # atno 17342 bound_to 10162
  140.6649  143.2264  151.5766 LP  0  0  0  0  0  0  0  0  0  0  0  0  # atno 17343 bound_to 10162
  157.4540  130.7615  149.7176 LP  0  0  0  0  0  0  0  0  0  0  0  0  # atno 17370 bound_to 10713
  155.9845  130.3991  150.3307 LP  0  0  0  0  0  0  0  0  0  0  0  0  # atno 17371 bound_to 10713
  140.0122  134.6673  155.9363 LP  0  0  0  0  0  0  0  0  0  0  0  0  # atno 17394 bound_to 11000
  141.1738  133.6539  156.4752 LP  0  0  0  0  0  0  0  0  0  0  0  0  # atno 17395 bound_to 11000

$$$$
