AV-unprocessed.smi:2658|AV-procd|sdf|10309|dock4
  -GOLD-   2272014323D 1   1.00000     0.00000
 Structure written by MMmdl.
 46 48  0  0  0  0  0  0  0  0  1 V2000
  152.5493  143.6173  161.6800 C   0  0  0  0  0  0  0  0  0  0  0  0
  152.3337  142.8188  160.4064 C   0  0  0  0  0  0  0  0  0  0  0  0
  151.3199  143.2204  159.5078 C   0  0  0  0  0  0  0  0  0  0  0  0
  151.0904  142.5092  158.3100 C   0  0  0  0  0  0  0  0  0  0  0  0
  150.1680  142.7246  157.3004 N   0  0  0  0  0  0  0  0  0  0  0  0
  150.4556  141.7348  156.4602 C   0  0  0  0  0  0  0  0  0  0  0  0
  151.4561  140.9023  156.8068 N   0  0  0  0  0  0  0  0  0  0  0  0
  151.9503  139.7646  156.0522 C   0  0  0  0  0  0  0  0  0  0  0  0
  150.8448  139.0682  155.2348 C   0  0  1  0  0  0  0  0  0  0  0  0
  150.5265  139.8445  154.0964 O   0  0  0  0  0  0  0  0  0  0  0  0
  151.2637  137.6673  154.7657 C   0  0  0  0  0  0  0  0  0  0  0  0
  151.4589  136.8339  155.9049 O   0  0  0  0  0  0  0  0  0  0  0  0
  151.1127  135.5017  155.8115 C   0  0  0  0  0  0  0  0  0  0  0  0
  150.3356  135.0754  154.7178 C   0  0  0  0  0  0  0  0  0  0  0  0
  149.9901  133.7127  154.6490 C   0  0  0  0  0  0  0  0  0  0  0  0
  149.1562  133.1804  153.4987 C   0  0  0  0  0  0  0  0  0  0  0  0
  150.4522  132.8777  155.6909 C   0  0  0  0  0  0  0  0  0  0  0  0
  150.1364  131.3938  155.7242 C   0  0  0  0  0  0  0  0  0  0  0  0
  151.1997  133.3466  156.7170 N   0  0  0  0  0  0  0  0  0  0  0  0
  151.5276  134.6413  156.7771 N   0  0  0  0  0  0  0  0  0  0  0  0
  151.9097  141.3760  158.0327 C   0  0  0  0  0  0  0  0  0  0  0  0
  152.9191  140.9636  158.9206 C   0  0  0  0  0  0  0  0  0  0  0  0
  153.1347  141.6857  160.1135 C   0  0  0  0  0  0  0  0  0  0  0  0
  154.2268  141.2337  161.0668 C   0  0  0  0  0  0  0  0  0  0  0  0
  151.8536  144.4541  161.7481 H   0  0  0  0  0  0  0  0  0  0  0  0
  153.5612  144.0219  161.7103 H   0  0  0  0  0  0  0  0  0  0  0  0
  152.4012  142.9868  162.5569 H   0  0  0  0  0  0  0  0  0  0  0  0
  150.7091  144.0828  159.7304 H   0  0  0  0  0  0  0  0  0  0  0  0
  149.9070  141.6072  155.5384 H   0  0  0  0  0  0  0  0  0  0  0  0
  152.7530  140.1048  155.3961 H   0  0  0  0  0  0  0  0  0  0  0  0
  152.4004  139.0619  156.7545 H   0  0  0  0  0  0  0  0  0  0  0  0
  149.9394  138.9868  155.8377 H   0  0  0  0  0  0  0  0  0  0  0  0
  149.7245  139.5138  153.7220 H   0  0  0  0  0  0  0  0  0  0  0  0
  150.4813  137.2360  154.1384 H   0  0  0  0  0  0  0  0  0  0  0  0
  152.1738  137.7346  154.1662 H   0  0  0  0  0  0  0  0  0  0  0  0
  150.0178  135.7753  153.9588 H   0  0  0  0  0  0  0  0  0  0  0  0
  149.6906  132.3875  152.9746 H   0  0  0  0  0  0  0  0  0  0  0  0
  148.9303  133.9676  152.7786 H   0  0  0  0  0  0  0  0  0  0  0  0
  148.2126  132.7771  153.8671 H   0  0  0  0  0  0  0  0  0  0  0  0
  149.0583  131.2337  155.7215 H   0  0  0  0  0  0  0  0  0  0  0  0
  150.5438  130.9183  156.6175 H   0  0  0  0  0  0  0  0  0  0  0  0
  150.5627  130.8955  154.8533 H   0  0  0  0  0  0  0  0  0  0  0  0
  153.5220  140.0993  158.6836 H   0  0  0  0  0  0  0  0  0  0  0  0
  154.7525  140.3583  160.6844 H   0  0  0  0  0  0  0  0  0  0  0  0
  153.8025  140.9729  162.0365 H   0  0  0  0  0  0  0  0  0  0  0  0
  154.9604  142.0272  161.2113 H   0  0  0  0  0  0  0  0  0  0  0  0
  1  2  1  0  0  0  0
  1 25  1  0  0  0  0
  1 26  1  0  0  0  0
  1 27  1  0  0  0  0
  2 23  1  0  0  0  0
  2  3  2  0  0  0  0
  3  4  1  0  0  0  0
  3 28  1  0  0  0  0
  4 21  2  0  0  0  0
  4  5  1  0  0  0  0
  5  6  2  0  0  0  0
  6  7  1  0  0  0  0
  6 29  1  0  0  0  0
  7  8  1  0  0  0  0
  7 21  1  0  0  0  0
  8  9  1  0  0  0  0
  8 30  1  0  0  0  0
  8 31  1  0  0  0  0
  9 10  1  0  0  0  0
  9 11  1  0  0  0  0
  9 32  1  0  0  0  0
 10 33  1  0  0  0  0
 11 12  1  0  0  0  0
 11 34  1  0  0  0  0
 11 35  1  0  0  0  0
 12 13  1  0  0  0  0
 13 20  1  0  0  0  0
 13 14  2  0  0  0  0
 14 15  1  0  0  0  0
 14 36  1  0  0  0  0
 15 16  1  0  0  0  0
 15 17  2  0  0  0  0
 16 37  1  0  0  0  0
 16 38  1  0  0  0  0
 16 39  1  0  0  0  0
 17 18  1  0  0  0  0
 17 19  1  0  0  0  0
 18 40  1  0  0  0  0
 18 41  1  0  0  0  0
 18 42  1  0  0  0  0
 19 20  2  0  0  0  0
 21 22  1  0  0  0  0
 22 23  2  0  0  0  0
 22 43  1  0  0  0  0
 23 24  1  0  0  0  0
 24 44  1  0  0  0  0
 24 45  1  0  0  0  0
 24 46  1  0  0  0  0
M  END
> <s_m_source_file>
AV-unprocessed.smi

> <i_m_source_file_index>
2658

> <i_lp_mmshare_version>
43012

> <i_f3d_flags>
0

> <s_epik_input>
W0NIM11jKFtjSF0xKWMoW0NIM10pW2NIXWMoYzEyKW4oW2NIXW4yKVtDSDJdW0NASF0oW09IXSlbQ0gyXU9jM1tjSF1jKFtDSDNdKWMoW0NIM10pbm4z

> <s_epik_cmdline>
J2VwaWtfcHl0aG9uJywgJy1waCcsICc3LjAnLCAnLXRuJywgJzgnLCAnLW1hJywgJzIwMCcsICctbWV0YWxfYmluZGluZycsICctaW1hZScsICc8aW5maWxlLm1hZT4nLCAnLW9tYWUnLCAnPG91dGZpbGUubWFlPic=

> <r_lp_tautomer_probability>
1

> <r_epik_Ionization_Penalty>
0.110663

> <r_epik_Ionization_Penalty_Charging>
0

> <r_epik_Ionization_Penalty_Neutral>
0.110663

> <r_epik_State_Penalty>
0.100267

> <r_epik_Charging_Adjusted_Penalty>
0.100267

> <i_epik_Tot_Q>
0

> <i_epik_Tot_abs_Q>
0

> <r_epik_Metal_State_Penalty>
0.0843924

> <b_epik_Metal_Only>
0

> <s_lp_Force_Field>
OPLS_2005

> <r_lp_Energy>
13.1317

> <b_lp_Chiralities_Consistent>
1

> <s_lp_Variant>
AV-unprocessed.smi:2658-2

> <Gold.Version>
5.8.1

> <Gold.Id.Protein>
6NUR|6NUR_protein|mol2

> <Gold.PLP.Fitness>
51.8022

> <Gold.PLP.PLP>
-50.4620

> <Gold.PLP.part.hbond>
-2.7434

> <Gold.PLP.part.metal>
0.0000

> <Gold.PLP.part.buried>
-6.1012

> <Gold.PLP.part.nonpolar>
-42.9852

> <Gold.PLP.part.repulsive>
1.9244

> <Gold.PLP.ligand.clash>
0.0000

> <Gold.PLP.ligand.torsion>
0.8936

> <Gold.PLP.Chemscore.Hbond>
1.0000

> <Gold.PLP.Chemscore.CHOScore>
0.0000

> <Gold.PLP.Chemscore.Metal>
0.0000

> <Gold.Chemscore.Hbonds>
donor molecule, donor type, donor heavy atom, donor atom, acceptor molecule, acceptor atom, score
      P1  H  7989  7998       L1    10  1.00

> <Gold.PLP.Chemscore.Internal.Correction>
0.1274

> <Gold.Rescore>
     Score         DG    S(hbond)    S(metal)    S(lipo)     H(rot)  DE(clash)    DE(int)     intcor
     16.05     -16.93       0.97        0.00     122.62       2.40       0.02       0.85       ----

> <Gold.Chemscore.Fitness>
16.0520

> <Gold.Chemscore.DG>
-16.9267

> <Gold.Chemscore.ZeroCoef>
-5.4800

> <Gold.Chemscore.Hbond>
0.9700

> <Gold.Chemscore.Metal>
0.0000

> <Gold.Chemscore.Lipo>
122.6206

> <Gold.Chemscore.Internal_Hbond>
0.0000

> <Gold.Chemscore.DEClash>
0.0212

> <Gold.Chemscore.DEInternal>
0.8534

> <Gold.Chemscore.Rot>
2.3983

> <Gold.Chemscore.Internal.Correction>
   9.000000E+99

> <Gold.Chemscore.Hbonds>
donor molecule, donor type, donor heavy atom, donor atom, acceptor molecule, acceptor atom, score
      P1  H  7989  7998       L1    10  0.96

> <Gold.Chemscore.Hbond.Weighted>
-3.2397

> <Gold.Chemscore.Metal.Weighted>
-0.0000

> <Gold.Chemscore.Lipo.Weighted>
-14.3466

> <Gold.Chemscore.Internal_Hbond.Weighted>
0.0000

> <Gold.Chemscore.DEClash.Weighted>
0.0212

> <Gold.Chemscore.DEInternal.Weighted>
0.8534

> <Gold.Chemscore.Rot.Weighted>
6.1397

> <Gold.Chemscore.Internal.Correction.Weighted>
   9.000000E+99

> <Gold.Protein.RotatedTorsions>
[ 6907 6896 6895 6894 ] final   89.85 input  -60.11 | X-H torsion
[ 7974 7965 7964 7962 ] final   16.07 input  175.53 | X-H torsion
[ 8008 7997 7996 7995 ] final  -70.85 input   59.86 | X-H torsion
[ 10167 10162 10161 10158 ] final   -6.98 input  -65.29 | X-H torsion
[ 10718 10713 10712 10709 ] final   19.22 input   66.30 | X-H torsion
[ 10763 10752 10751 10750 ] final  -23.64 input  -60.55 | X-H torsion
[ 11005 11000 10999 10996 ] final    1.51 input  -57.11 | X-H torsion

> <Gold.Protein.ActiveResidues>
 VAL166  LYS551  ARG553  GLY616  TRP617  ASP618  TYR619  PRO620  LYS621  CYS622 
 ASP623  PHE694  ASN695  SER759  ASP760  ASP761  ALA762  ILE779  LEU786  VAL792 
 PHE793  MET794  SER795  GLU796  ALA797  LYS798  CYS799  TRP800  GLU811  SER814 

> <Gold.Protein.RotatedAtoms>
  152.5440  134.1902  159.8670 H   0  0  0  0  0  0  0  0  0  0  0  0  # atno 6907 bound_to 6896
  151.1898  133.4667  159.2602 H   0  0  0  0  0  0  0  0  0  0  0  0  # atno 6908 bound_to 6896
  151.1095  135.0030  159.8542 H   0  0  0  0  0  0  0  0  0  0  0  0  # atno 6909 bound_to 6896
  146.2260  139.8801  142.8572 H   0  0  0  0  0  0  0  0  0  0  0  0  # atno 7974 bound_to 7965
  154.5043  140.0826  156.7862 H   0  0  0  0  0  0  0  0  0  0  0  0  # atno 8008 bound_to 7997
  155.3930  140.3433  155.4234 H   0  0  0  0  0  0  0  0  0  0  0  0  # atno 8009 bound_to 7997
  156.1496  140.1554  156.8779 H   0  0  0  0  0  0  0  0  0  0  0  0  # atno 8010 bound_to 7997
  140.7014  143.6132  150.8683 H   0  0  0  0  0  0  0  0  0  0  0  0  # atno 10167 bound_to 10162
  157.1073  130.6493  149.5888 H   0  0  0  0  0  0  0  0  0  0  0  0  # atno 10718 bound_to 10713
  153.6711  135.6971  153.5147 H   0  0  0  0  0  0  0  0  0  0  0  0  # atno 10763 bound_to 10752
  153.2557  135.4261  155.0842 H   0  0  0  0  0  0  0  0  0  0  0  0  # atno 10764 bound_to 10752
  154.8426  135.3542  154.6255 H   0  0  0  0  0  0  0  0  0  0  0  0  # atno 10765 bound_to 10752
  140.6146  133.9717  155.8194 H   0  0  0  0  0  0  0  0  0  0  0  0  # atno 11005 bound_to 11000
  145.2521  141.0047  143.3875 LP  0  0  0  0  0  0  0  0  0  0  0  0  # atno 17320 bound_to 7965
  144.9366  139.4237  143.6469 LP  0  0  0  0  0  0  0  0  0  0  0  0  # atno 17321 bound_to 7965
  139.9855  143.5905  152.2928 LP  0  0  0  0  0  0  0  0  0  0  0  0  # atno 17342 bound_to 10162
  139.6541  144.7661  151.2091 LP  0  0  0  0  0  0  0  0  0  0  0  0  # atno 17343 bound_to 10162
  155.9859  130.4891  150.7053 LP  0  0  0  0  0  0  0  0  0  0  0  0  # atno 17370 bound_to 10713
  157.4589  131.0881  151.0766 LP  0  0  0  0  0  0  0  0  0  0  0  0  # atno 17371 bound_to 10713
  141.0784  134.0099  157.3423 LP  0  0  0  0  0  0  0  0  0  0  0  0  # atno 17394 bound_to 11000
  139.9178  135.0198  156.7948 LP  0  0  0  0  0  0  0  0  0  0  0  0  # atno 17395 bound_to 11000

$$$$
