AV-unprocessed.smi:137|AV-procd|sdf|1178|dock3
  -GOLD-   2262018323D 1   1.00000     0.00000
 Structure written by MMmdl.
 51 54  0  0  0  0  0  0  0  0  1 V2000
  146.5466  142.3327  153.5488 C   0  0  0  0  0  0  0  0  0  0  0  0
  146.5367  141.8806  155.0178 C   0  0  1  0  0  0  0  0  0  0  0  0
  145.3740  140.8981  155.3023 C   0  0  0  0  0  0  0  0  0  0  0  0
  145.7458  139.4808  155.2563 N   0  0  0  0  0  0  0  0  0  0  0  0
  145.7761  138.8016  154.0714 C   0  0  0  0  0  0  0  0  0  0  0  0
  146.5887  139.2712  153.0869 N   0  0  0  0  0  0  0  0  0  0  0  0
  146.6691  138.6571  151.9049 C   0  0  0  0  0  0  0  0  0  0  0  0
  146.0250  137.5683  151.4887 N   0  0  0  0  0  0  0  0  0  0  0  0
  145.1994  137.0844  152.4588 C   0  0  0  0  0  0  0  0  0  0  0  0
  145.0176  137.6270  153.7664 C   0  0  0  0  0  0  0  0  0  0  0  0
  144.1128  136.8328  154.4648 N   0  0  0  0  0  0  0  0  0  0  0  0
  143.7839  135.8883  153.6285 C   0  0  0  0  0  0  0  0  0  0  0  0
  144.3666  135.9810  152.3871 N   0  0  0  0  0  0  0  0  0  0  0  0
  144.2114  135.0625  151.2968 C   0  0  0  0  0  0  0  0  0  0  0  0
  143.5029  133.7185  151.4913 C   0  0  0  0  0  0  0  0  0  0  0  0
  144.4952  133.0386  150.5216 C   0  0  0  0  0  0  0  0  0  0  0  0
  145.0580  131.7009  151.0265 C   0  0  0  0  0  0  0  0  0  0  0  0
  146.1479  131.2684  150.2373 O   0  0  0  0  0  0  0  0  0  0  0  0
  143.9905  132.8050  149.0803 C   0  0  0  0  0  0  0  0  0  0  0  0
  142.7295  132.1694  149.0267 O   0  0  0  0  0  0  0  0  0  0  0  0
  145.4039  134.2647  150.7600 C   0  0  0  0  0  0  0  0  0  0  0  0
  146.1228  138.8460  156.5193 C   0  0  0  0  0  0  0  0  0  0  0  0
  147.6027  139.0383  156.9010 C   0  0  0  0  0  0  0  0  0  0  0  0
  147.9914  140.8319  157.2022 S   0  0  2  0  0  0  0  0  0  0  0  0
  146.8128  141.4580  157.9507 O   0  0  0  0  0  0  0  0  0  0  0  0
  147.9457  141.4003  155.4319 C   0  0  0  0  0  0  0  0  0  0  0  0
  146.8090  141.5129  152.8803 H   0  0  0  0  0  0  0  0  0  0  0  0
  147.2740  143.1294  153.3903 H   0  0  0  0  0  0  0  0  0  0  0  0
  145.5720  142.7153  153.2443 H   0  0  0  0  0  0  0  0  0  0  0  0
  146.3199  142.7770  155.6004 H   0  0  0  0  0  0  0  0  0  0  0  0
  144.9916  141.1037  156.3019 H   0  0  0  0  0  0  0  0  0  0  0  0
  144.5217  141.1089  154.6561 H   0  0  0  0  0  0  0  0  0  0  0  0
  147.3444  139.1036  151.1903 H   0  0  0  0  0  0  0  0  0  0  0  0
  143.0979  135.0979  153.8964 H   0  0  0  0  0  0  0  0  0  0  0  0
  143.7394  135.6325  150.4958 H   0  0  0  0  0  0  0  0  0  0  0  0
  143.5884  133.3529  152.5159 H   0  0  0  0  0  0  0  0  0  0  0  0
  142.4623  133.7105  151.1647 H   0  0  0  0  0  0  0  0  0  0  0  0
  145.4086  131.7900  152.0551 H   0  0  0  0  0  0  0  0  0  0  0  0
  144.2924  130.9247  151.0284 H   0  0  0  0  0  0  0  0  0  0  0  0
  146.8798  131.0890  150.8076 H   0  0  0  0  0  0  0  0  0  0  0  0
  143.9015  133.7472  148.5394 H   0  0  0  0  0  0  0  0  0  0  0  0
  144.6951  132.1894  148.5202 H   0  0  0  0  0  0  0  0  0  0  0  0
  142.0587  132.8349  149.0085 H   0  0  0  0  0  0  0  0  0  0  0  0
  145.8539  134.6820  149.8587 H   0  0  0  0  0  0  0  0  0  0  0  0
  146.1616  134.0827  151.5241 H   0  0  0  0  0  0  0  0  0  0  0  0
  145.4967  139.2493  157.3155 H   0  0  0  0  0  0  0  0  0  0  0  0
  145.8738  137.7860  156.4927 H   0  0  0  0  0  0  0  0  0  0  0  0
  147.8078  138.4915  157.8212 H   0  0  0  0  0  0  0  0  0  0  0  0
  148.2762  138.6429  156.1417 H   0  0  0  0  0  0  0  0  0  0  0  0
  148.3120  140.6079  154.7784 H   0  0  0  0  0  0  0  0  0  0  0  0
  148.6456  142.2305  155.3340 H   0  0  0  0  0  0  0  0  0  0  0  0
  1  2  1  0  0  0  0
  1 27  1  0  0  0  0
  1 28  1  0  0  0  0
  1 29  1  0  0  0  0
  2 26  1  0  0  0  0
  2  3  1  0  0  0  0
  2 30  1  0  0  0  0
  3  4  1  0  0  0  0
  3 31  1  0  0  0  0
  3 32  1  0  0  0  0
  4  5  1  0  0  0  0
  4 22  1  0  0  0  0
  5 10  1  0  0  0  0
  5  6  2  0  0  0  0
  6  7  1  0  0  0  0
  7  8  2  0  0  0  0
  7 33  1  0  0  0  0
  8  9  1  0  0  0  0
  9 13  1  0  0  0  0
  9 10  2  0  0  0  0
 10 11  1  0  0  0  0
 11 12  2  0  0  0  0
 12 13  1  0  0  0  0
 12 34  1  0  0  0  0
 13 14  1  0  0  0  0
 14 21  1  0  0  0  0
 14 15  1  0  0  0  0
 14 35  1  0  0  0  0
 15 16  1  0  0  0  0
 15 36  1  0  0  0  0
 15 37  1  0  0  0  0
 16 17  1  0  0  0  0
 16 19  1  0  0  0  0
 16 21  1  0  0  0  0
 17 18  1  0  0  0  0
 17 38  1  0  0  0  0
 17 39  1  0  0  0  0
 18 40  1  0  0  0  0
 19 20  1  0  0  0  0
 19 41  1  0  0  0  0
 19 42  1  0  0  0  0
 20 43  1  0  0  0  0
 21 44  1  0  0  0  0
 21 45  1  0  0  0  0
 22 23  1  0  0  0  0
 22 46  1  0  0  0  0
 22 47  1  0  0  0  0
 23 24  1  0  0  0  0
 23 48  1  0  0  0  0
 23 49  1  0  0  0  0
 24 25  2  0  0  0  0
 24 26  1  0  0  0  0
 26 50  1  0  0  0  0
 26 51  1  0  0  0  0
M  END
> <s_m_source_file>
AV-unprocessed.smi

> <i_m_source_file_index>
137

> <i_lp_mmshare_version>
43012

> <i_f3d_flags>
0

> <s_epik_input>
Tz1bU0BAXShbQ0gyXTEpW0NIMl1bQ0gyXU4oW0NIMl1bQ0BIXTFbQ0gzXSljKG5bY0hdbjIpYyhjMjMpbltjSF1uM1tDSF0oW0NIMl00KVtDSDJdQzQoW0NIMl1bT0hdKVtDSDJdW09IXQ==

> <s_epik_cmdline>
J2VwaWtfcHl0aG9uJywgJy1waCcsICc3LjAnLCAnLXRuJywgJzgnLCAnLW1hJywgJzIwMCcsICctbWV0YWxfYmluZGluZycsICctaW1hZScsICc8aW5maWxlLm1hZT4nLCAnLW9tYWUnLCAnPG91dGZpbGUubWFlPic=

> <r_lp_tautomer_probability>
1

> <r_epik_Ionization_Penalty>
0.000811024

> <r_epik_Ionization_Penalty_Charging>
0

> <r_epik_Ionization_Penalty_Neutral>
0.000811024

> <r_epik_State_Penalty>
0.000429598

> <r_epik_Charging_Adjusted_Penalty>
0.000429598

> <i_epik_Tot_Q>
0

> <i_epik_Tot_abs_Q>
0

> <r_epik_Metal_State_Penalty>
-0

> <b_epik_Metal_Only>
0

> <s_lp_Force_Field>
OPLS_2005

> <r_lp_Energy>
44.8713

> <b_lp_Chiralities_Consistent>
1

> <s_lp_Variant>
AV-unprocessed.smi:137-4

> <Gold.Version>
5.8.1

> <Gold.Id.Protein>
6NUR|6NUR_protein|mol2

> <Gold.PLP.Fitness>
47.6999

> <Gold.PLP.PLP>
-38.7295

> <Gold.PLP.part.hbond>
-4.6155

> <Gold.PLP.part.metal>
0.0000

> <Gold.PLP.part.buried>
-8.3472

> <Gold.PLP.part.nonpolar>
-27.8492

> <Gold.PLP.part.repulsive>
1.8372

> <Gold.PLP.ligand.clash>
0.0000

> <Gold.PLP.ligand.torsion>
1.6058

> <Gold.PLP.Chemscore.Hbond>
2.9175

> <Gold.PLP.Chemscore.CHOScore>
0.9963

> <Gold.PLP.Chemscore.Metal>
0.0000

> <Gold.Chemscore.Hbonds>
donor molecule, donor type, donor heavy atom, donor atom, acceptor molecule, acceptor atom, score
      L1  H    18    40       P1 10747  0.36
      L1  H    20    43       P1 10186  1.00
      P1  H 10785 10796       L1    20  0.83
      L1  C     7    33       P1  7957  1.00

> <Gold.PLP.Chemscore.Internal.Correction>
0.4407

> <Gold.Rescore>
     Score         DG    S(hbond)    S(metal)    S(lipo)     H(rot)  DE(clash)    DE(int)     intcor
     11.01     -13.88       2.41        0.00      65.99       2.87       0.68       2.18       ----

> <Gold.Chemscore.Fitness>
11.0142

> <Gold.Chemscore.DG>
-13.8802

> <Gold.Chemscore.ZeroCoef>
-5.4800

> <Gold.Chemscore.Hbond>
2.4050

> <Gold.Chemscore.Metal>
0.0000

> <Gold.Chemscore.Lipo>
65.9912

> <Gold.Chemscore.Internal_Hbond>
0.0000

> <Gold.Chemscore.DEClash>
0.6827

> <Gold.Chemscore.DEInternal>
2.1833

> <Gold.Chemscore.Rot>
2.8725

> <Gold.Chemscore.Internal.Correction>
   9.000000E+99

> <Gold.Chemscore.Hbonds>
donor molecule, donor type, donor heavy atom, donor atom, acceptor molecule, acceptor atom, score
      L1  H    18    40       P1 10747  0.36
      L1  H    20    43       P1 10186  0.98
      P1  H 10785 10796       L1    20  0.37

> <Gold.Chemscore.Hbond.Weighted>
-8.0327

> <Gold.Chemscore.Metal.Weighted>
-0.0000

> <Gold.Chemscore.Lipo.Weighted>
-7.7210

> <Gold.Chemscore.Internal_Hbond.Weighted>
0.0000

> <Gold.Chemscore.DEClash.Weighted>
0.6827

> <Gold.Chemscore.DEInternal.Weighted>
2.1833

> <Gold.Chemscore.Rot.Weighted>
7.3535

> <Gold.Chemscore.Internal.Correction.Weighted>
   9.000000E+99

> <Gold.Protein.RotatedTorsions>
[ 6907 6896 6895 6894 ] final  -25.86 input  -60.11 | X-H torsion
[ 7974 7965 7964 7962 ] final  -68.41 input  175.53 | X-H torsion
[ 8008 7997 7996 7995 ] final   -6.26 input   59.86 | X-H torsion
[ 10167 10162 10161 10158 ] final  -56.76 input  -65.29 | X-H torsion
[ 10718 10713 10712 10709 ] final  -90.85 input   66.30 | X-H torsion
[ 10763 10752 10751 10750 ] final  -66.61 input  -60.55 | X-H torsion
[ 11005 11000 10999 10996 ] final   59.53 input  -57.11 | X-H torsion

> <Gold.Protein.ActiveResidues>
 VAL166  LYS551  ARG553  GLY616  TRP617  ASP618  TYR619  PRO620  LYS621  CYS622 
 ASP623  PHE694  ASN695  SER759  ASP760  ASP761  ALA762  ILE779  LEU786  VAL792 
 PHE793  MET794  SER795  GLU796  ALA797  LYS798  CYS799  TRP800  GLU811  SER814 

> <Gold.Protein.RotatedAtoms>
  151.1692  135.0310  159.8743 H   0  0  0  0  0  0  0  0  0  0  0  0  # atno 6907 bound_to 6896
  152.5449  134.1190  159.8401 H   0  0  0  0  0  0  0  0  0  0  0  0  # atno 6908 bound_to 6896
  151.1294  133.5001  159.2632 H   0  0  0  0  0  0  0  0  0  0  0  0  # atno 6909 bound_to 6896
  145.7168  140.9055  143.0651 H   0  0  0  0  0  0  0  0  0  0  0  0  # atno 7974 bound_to 7965
  154.5956  140.2437  155.7862 H   0  0  0  0  0  0  0  0  0  0  0  0  # atno 8008 bound_to 7997
  156.2276  140.2977  156.0061 H   0  0  0  0  0  0  0  0  0  0  0  0  # atno 8009 bound_to 7997
  155.2299  140.0403  157.2951 H   0  0  0  0  0  0  0  0  0  0  0  0  # atno 8010 bound_to 7997
  140.6298  143.2454  151.5270 H   0  0  0  0  0  0  0  0  0  0  0  0  # atno 10167 bound_to 10162
  155.9990  130.4925  150.5386 H   0  0  0  0  0  0  0  0  0  0  0  0  # atno 10718 bound_to 10713
  154.3624  135.6113  153.5697 H   0  0  0  0  0  0  0  0  0  0  0  0  # atno 10763 bound_to 10752
  152.9793  135.5818  154.4618 H   0  0  0  0  0  0  0  0  0  0  0  0  # atno 10764 bound_to 10752
  154.4358  135.2849  155.1859 H   0  0  0  0  0  0  0  0  0  0  0  0  # atno 10765 bound_to 10752
  140.0297  134.6030  155.9523 H   0  0  0  0  0  0  0  0  0  0  0  0  # atno 11005 bound_to 11000
  144.6927  139.9149  143.7465 LP  0  0  0  0  0  0  0  0  0  0  0  0  # atno 17320 bound_to 7965
  146.0662  139.3653  143.0551 LP  0  0  0  0  0  0  0  0  0  0  0  0  # atno 17321 bound_to 7965
  139.5513  144.2387  152.1536 LP  0  0  0  0  0  0  0  0  0  0  0  0  # atno 17342 bound_to 10162
  140.1628  144.5009  150.6623 LP  0  0  0  0  0  0  0  0  0  0  0  0  # atno 17343 bound_to 10162
  157.3325  131.0702  151.1850 LP  0  0  0  0  0  0  0  0  0  0  0  0  # atno 17370 bound_to 10713
  157.2725  130.6711  149.6026 LP  0  0  0  0  0  0  0  0  0  0  0  0  # atno 17371 bound_to 10713
  141.1824  133.6549  156.5074 LP  0  0  0  0  0  0  0  0  0  0  0  0  # atno 17394 bound_to 11000
  140.4246  134.7157  157.4908 LP  0  0  0  0  0  0  0  0  0  0  0  0  # atno 17395 bound_to 11000

$$$$
