AV-unprocessed.smi:287|AV-procd|sdf|2202|dock3
  -GOLD-   2262022 23D 1   1.00000     0.00000
 Structure written by MMmdl.
 55 58  0  0  0  0  0  0  0  0  1 V2000
  152.0099  141.7581  158.0390 C   0  0  0  0  0  0  0  0  0  0  0  0
  151.5827  140.4561  157.4527 C   0  0  0  0  0  0  0  0  0  0  0  0
  150.7374  139.4674  157.8644 C   0  0  0  0  0  0  0  0  0  0  0  0
  150.7384  138.4577  156.8559 C   0  0  0  0  0  0  0  0  0  0  0  0
  149.9437  137.1593  156.8891 C   0  0  2  0  0  0  0  0  0  0  0  0
  148.4387  137.4706  156.8416 C   0  0  0  0  0  0  0  0  0  0  0  0
  150.1382  136.4248  158.0823 O   0  0  0  0  0  0  0  0  0  0  0  0
  150.3246  136.2041  155.7354 C   0  0  0  0  0  0  0  0  0  0  0  0
  149.6213  134.9293  155.7967 N   0  0  0  0  0  0  0  0  0  0  0  0
  148.7162  134.5881  154.8556 C   0  0  0  0  0  0  0  0  0  0  0  0
  149.1719  133.7635  153.8829 N   0  0  0  0  0  0  0  0  0  0  0  0
  148.3570  133.3674  152.9020 C   0  0  0  0  0  0  0  0  0  0  0  0
  147.0739  133.6751  152.7099 N   0  0  0  0  0  0  0  0  0  0  0  0
  146.6037  134.5059  153.6849 C   0  0  0  0  0  0  0  0  0  0  0  0
  147.3531  135.0062  154.7891 C   0  0  0  0  0  0  0  0  0  0  0  0
  146.5334  135.8176  155.5672 N   0  0  0  0  0  0  0  0  0  0  0  0
  145.3798  135.7956  154.9581 C   0  0  0  0  0  0  0  0  0  0  0  0
  145.3348  135.0355  153.8124 N   0  0  0  0  0  0  0  0  0  0  0  0
  144.1638  134.8283  152.9026 C   0  0  2  0  0  0  0  0  0  0  0  0
  144.3299  133.6139  152.2421 O   0  0  0  0  0  0  0  0  0  0  0  0
  143.8153  133.7278  150.9212 C   0  0  2  0  0  0  0  0  0  0  0  0
  144.3669  132.6117  150.0166 C   0  0  0  0  0  0  0  0  0  0  0  0
  143.6311  131.4230  150.2112 O   0  0  0  0  0  0  0  0  0  0  0  0
  144.1973  135.1603  150.5195 C   0  0  2  0  0  0  0  0  0  0  0  0
  145.5224  135.2141  150.0186 O   0  0  0  0  0  0  0  0  0  0  0  0
  144.0265  135.9294  151.8290 C   0  0  2  0  0  0  0  0  0  0  0  0
  144.9058  137.0348  151.9632 O   0  0  0  0  0  0  0  0  0  0  0  0
  151.6113  138.9187  155.8994 C   0  0  0  0  0  0  0  0  0  0  0  0
  152.1019  138.3794  154.5960 C   0  0  0  0  0  0  0  0  0  0  0  0
  152.1237  140.1310  156.2517 O   0  0  0  0  0  0  0  0  0  0  0  0
  143.3014  134.7806  153.5690 H   0  0  0  0  0  0  0  0  0  0  0  0
  142.7260  133.6687  150.9691 H   0  0  0  0  0  0  0  0  0  0  0  0
  143.5351  135.5440  149.7426 H   0  0  0  0  0  0  0  0  0  0  0  0
  143.0032  136.3021  151.8900 H   0  0  0  0  0  0  0  0  0  0  0  0
  151.3450  142.0567  158.8499 H   0  0  0  0  0  0  0  0  0  0  0  0
  151.9982  142.5461  157.2859 H   0  0  0  0  0  0  0  0  0  0  0  0
  153.0211  141.6872  158.4400 H   0  0  0  0  0  0  0  0  0  0  0  0
  150.1762  139.4684  158.7872 H   0  0  0  0  0  0  0  0  0  0  0  0
  148.1755  138.0085  155.9300 H   0  0  0  0  0  0  0  0  0  0  0  0
  148.1348  138.0899  157.6867 H   0  0  0  0  0  0  0  0  0  0  0  0
  147.8400  136.5592  156.8673 H   0  0  0  0  0  0  0  0  0  0  0  0
  149.3117  136.3675  158.5368 H   0  0  0  0  0  0  0  0  0  0  0  0
  150.1604  136.6816  154.7685 H   0  0  0  0  0  0  0  0  0  0  0  0
  151.3911  135.9863  155.8060 H   0  0  0  0  0  0  0  0  0  0  0  0
  149.8632  134.3335  156.5757 H   0  0  0  0  0  0  0  0  0  0  0  0
  148.7956  132.7107  152.1651 H   0  0  0  0  0  0  0  0  0  0  0  0
  144.5252  136.3428  155.3284 H   0  0  0  0  0  0  0  0  0  0  0  0
  144.2627  132.8913  148.9679 H   0  0  0  0  0  0  0  0  0  0  0  0
  145.4268  132.4351  150.2042 H   0  0  0  0  0  0  0  0  0  0  0  0
  143.6029  131.2359  151.1371 H   0  0  0  0  0  0  0  0  0  0  0  0
  145.4939  135.0561  149.0861 H   0  0  0  0  0  0  0  0  0  0  0  0
  144.7271  137.6477  151.2668 H   0  0  0  0  0  0  0  0  0  0  0  0
  152.4795  137.3637  154.7154 H   0  0  0  0  0  0  0  0  0  0  0  0
  152.9104  138.9906  154.1942 H   0  0  0  0  0  0  0  0  0  0  0  0
  151.2979  138.3589  153.8601 H   0  0  0  0  0  0  0  0  0  0  0  0
  1  2  1  0  0  0  0
  1 35  1  0  0  0  0
  1 36  1  0  0  0  0
  1 37  1  0  0  0  0
  2 30  1  0  0  0  0
  2  3  2  0  0  0  0
  3  4  1  0  0  0  0
  3 38  1  0  0  0  0
  4  5  1  0  0  0  0
  4 28  2  0  0  0  0
  5  6  1  0  0  0  0
  5  7  1  0  0  0  0
  5  8  1  0  0  0  0
  6 39  1  0  0  0  0
  6 40  1  0  0  0  0
  6 41  1  0  0  0  0
  7 42  1  0  0  0  0
  8  9  1  0  0  0  0
  8 43  1  0  0  0  0
  8 44  1  0  0  0  0
  9 10  1  0  0  0  0
  9 45  1  0  0  0  0
 10 15  1  0  0  0  0
 10 11  2  0  0  0  0
 11 12  1  0  0  0  0
 12 13  2  0  0  0  0
 12 46  1  0  0  0  0
 13 14  1  0  0  0  0
 14 18  1  0  0  0  0
 14 15  2  0  0  0  0
 15 16  1  0  0  0  0
 16 17  2  0  0  0  0
 17 18  1  0  0  0  0
 17 47  1  0  0  0  0
 18 19  1  0  0  0  0
 19 31  1  0  0  0  0
 19 26  1  0  0  0  0
 19 20  1  0  0  0  0
 20 21  1  0  0  0  0
 21 32  1  0  0  0  0
 21 22  1  0  0  0  0
 21 24  1  0  0  0  0
 22 23  1  0  0  0  0
 22 48  1  0  0  0  0
 22 49  1  0  0  0  0
 23 50  1  0  0  0  0
 24 33  1  0  0  0  0
 24 25  1  0  0  0  0
 24 26  1  0  0  0  0
 25 51  1  0  0  0  0
 26 34  1  0  0  0  0
 26 27  1  0  0  0  0
 27 52  1  0  0  0  0
 28 29  1  0  0  0  0
 28 30  1  0  0  0  0
 29 53  1  0  0  0  0
 29 54  1  0  0  0  0
 29 55  1  0  0  0  0
M  END
> <s_m_source_file>
AV-unprocessed.smi

> <i_m_source_file_index>
287

> <i_lp_mmshare_version>
43012

> <i_f3d_flags>
0

> <s_epik_input>
W0NIM11jMVtjSF1jKGMobzEpW0NIM10pW0NAQF0oW0NIM10pKFtPSF0pW0NIMl1bTkhdYyhuW2NIXW4yKWMoYzIzKW5bY0hdbjNbQ0BASF00T1tDQEhdKFtDSDJdW09IXSlbQ0BASF0oW09IXSlbQ0BIXTRbT0hd

> <s_epik_cmdline>
J2VwaWtfcHl0aG9uJywgJy1waCcsICc3LjAnLCAnLXRuJywgJzgnLCAnLW1hJywgJzIwMCcsICctbWV0YWxfYmluZGluZycsICctaW1hZScsICc8aW5maWxlLm1hZT4nLCAnLW9tYWUnLCAnPG91dGZpbGUubWFlPic=

> <r_lp_tautomer_probability>
1

> <r_epik_Ionization_Penalty>
0.000992612

> <r_epik_Ionization_Penalty_Charging>
0

> <r_epik_Ionization_Penalty_Neutral>
0.000992612

> <r_epik_State_Penalty>
-0

> <r_epik_Charging_Adjusted_Penalty>
0

> <i_epik_Tot_Q>
0

> <i_epik_Tot_abs_Q>
0

> <r_epik_Metal_State_Penalty>
-0

> <b_epik_Metal_Only>
0

> <s_epik_Chemistry_Notes>
This compound contains an acetal/aminal-like group ( X-CH(R)-Y where X, Y are N, S, or O) that may be acid/base labile, releasing an aldehyde.

> <s_lp_Force_Field>
OPLS_2005

> <r_lp_Energy>
48.118

> <b_lp_Chiralities_Consistent>
1

> <s_lp_Variant>
AV-unprocessed.smi:287-26

> <Gold.Version>
5.8.1

> <Gold.Id.Protein>
6NUR|6NUR_protein|mol2

> <Gold.PLP.Fitness>
47.8839

> <Gold.PLP.PLP>
-36.1105

> <Gold.PLP.part.hbond>
-5.9414

> <Gold.PLP.part.metal>
0.0000

> <Gold.PLP.part.buried>
-7.1865

> <Gold.PLP.part.nonpolar>
-23.7865

> <Gold.PLP.part.repulsive>
0.5092

> <Gold.PLP.ligand.clash>
0.0000

> <Gold.PLP.ligand.torsion>
1.7982

> <Gold.PLP.Chemscore.Hbond>
4.0485

> <Gold.PLP.Chemscore.CHOScore>
1.0000

> <Gold.PLP.Chemscore.Metal>
0.0000

> <Gold.Chemscore.Hbonds>
donor molecule, donor type, donor heavy atom, donor atom, acceptor molecule, acceptor atom, score
      L1  H    25    51       P1  7921  1.00
      L1  H    27    52       P1 10171  1.00
      P1  H  6896  6908       L1     7  0.05
      P1  H  7997  8008       L1    30  0.55
      P1  H 10785 10796       L1    23  0.85
      L1  C    12    46       P1 10747  0.75

> <Gold.PLP.Chemscore.Internal.Correction>
0.2243

> <Gold.Rescore>
     Score         DG    S(hbond)    S(metal)    S(lipo)     H(rot)  DE(clash)    DE(int)     intcor
      5.56     -11.19       3.48        0.00      64.70       5.27       0.27       5.35       ----

> <Gold.Chemscore.Fitness>
5.5617

> <Gold.Chemscore.DG>
-11.1883

> <Gold.Chemscore.ZeroCoef>
-5.4800

> <Gold.Chemscore.Hbond>
3.4797

> <Gold.Chemscore.Metal>
0.0000

> <Gold.Chemscore.Lipo>
64.7013

> <Gold.Chemscore.Internal_Hbond>
0.0000

> <Gold.Chemscore.DEClash>
0.2723

> <Gold.Chemscore.DEInternal>
5.3543

> <Gold.Chemscore.Rot>
5.2672

> <Gold.Chemscore.Internal.Correction>
   9.000000E+99

> <Gold.Chemscore.Hbonds>
donor molecule, donor type, donor heavy atom, donor atom, acceptor molecule, acceptor atom, score
      L1  H    25    51       P1  7921  0.96
      L1  H    27    52       P1 10171  0.99
      P1  H  7997  8008       L1    30  0.37
      P1  H 10785 10796       L1    23  0.80

> <Gold.Chemscore.Hbond.Weighted>
-11.6222

> <Gold.Chemscore.Metal.Weighted>
-0.0000

> <Gold.Chemscore.Lipo.Weighted>
-7.5701

> <Gold.Chemscore.Internal_Hbond.Weighted>
0.0000

> <Gold.Chemscore.DEClash.Weighted>
0.2723

> <Gold.Chemscore.DEInternal.Weighted>
5.3543

> <Gold.Chemscore.Rot.Weighted>
13.4839

> <Gold.Chemscore.Internal.Correction.Weighted>
   9.000000E+99

> <Gold.Protein.RotatedTorsions>
[ 6907 6896 6895 6894 ] final -158.68 input  -60.11 | X-H torsion
[ 7974 7965 7964 7962 ] final  -71.89 input  175.53 | X-H torsion
[ 8008 7997 7996 7995 ] final  -44.03 input   59.86 | X-H torsion
[ 10167 10162 10161 10158 ] final -115.92 input  -65.29 | X-H torsion
[ 10718 10713 10712 10709 ] final  111.80 input   66.30 | X-H torsion
[ 10763 10752 10751 10750 ] final -156.90 input  -60.55 | X-H torsion
[ 11005 11000 10999 10996 ] final  -46.93 input  -57.11 | X-H torsion

> <Gold.Protein.ActiveResidues>
 VAL166  LYS551  ARG553  GLY616  TRP617  ASP618  TYR619  PRO620  LYS621  CYS622 
 ASP623  PHE694  ASN695  SER759  ASP760  ASP761  ALA762  ILE779  LEU786  VAL792 
 PHE793  MET794  SER795  GLU796  ALA797  LYS798  CYS799  TRP800  GLU811  SER814 

> <Gold.Protein.RotatedAtoms>
  151.3219  133.4036  159.2654 H   0  0  0  0  0  0  0  0  0  0  0  0  # atno 6907 bound_to 6896
  151.0027  134.9336  159.7973 H   0  0  0  0  0  0  0  0  0  0  0  0  # atno 6908 bound_to 6896
  152.5279  134.3184  159.9191 H   0  0  0  0  0  0  0  0  0  0  0  0  # atno 6909 bound_to 6896
  145.6722  140.9217  143.0877 H   0  0  0  0  0  0  0  0  0  0  0  0  # atno 7974 bound_to 7965
  154.3997  140.1432  156.3616 H   0  0  0  0  0  0  0  0  0  0  0  0  # atno 8008 bound_to 7997
  155.8175  140.3470  155.5474 H   0  0  0  0  0  0  0  0  0  0  0  0  # atno 8009 bound_to 7997
  155.8322  140.0914  157.1776 H   0  0  0  0  0  0  0  0  0  0  0  0  # atno 8010 bound_to 7997
  140.0848  143.4754  152.1904 H   0  0  0  0  0  0  0  0  0  0  0  0  # atno 10167 bound_to 10162
  157.6426  131.0957  150.6802 H   0  0  0  0  0  0  0  0  0  0  0  0  # atno 10718 bound_to 10713
  154.7677  135.3136  154.8252 H   0  0  0  0  0  0  0  0  0  0  0  0  # atno 10763 bound_to 10752
  153.8996  135.6817  153.4760 H   0  0  0  0  0  0  0  0  0  0  0  0  # atno 10764 bound_to 10752
  153.1286  135.4790  154.9245 H   0  0  0  0  0  0  0  0  0  0  0  0  # atno 10765 bound_to 10752
  141.0609  133.6709  156.3224 H   0  0  0  0  0  0  0  0  0  0  0  0  # atno 11005 bound_to 11000
  144.7053  139.8587  143.7432 LP  0  0  0  0  0  0  0  0  0  0  0  0  # atno 17320 bound_to 7965
  146.1036  139.4033  143.0332 LP  0  0  0  0  0  0  0  0  0  0  0  0  # atno 17321 bound_to 7965
  139.5758  144.7487  151.3768 LP  0  0  0  0  0  0  0  0  0  0  0  0  # atno 17342 bound_to 10162
  140.7059  143.7515  150.7481 LP  0  0  0  0  0  0  0  0  0  0  0  0  # atno 17343 bound_to 10162
  156.7124  130.4656  149.5544 LP  0  0  0  0  0  0  0  0  0  0  0  0  # atno 17370 bound_to 10713
  156.1721  130.6444  151.0850 LP  0  0  0  0  0  0  0  0  0  0  0  0  # atno 17371 bound_to 10713
  140.5870  134.5688  157.5492 LP  0  0  0  0  0  0  0  0  0  0  0  0  # atno 17394 bound_to 11000
  139.9432  134.7749  156.0627 LP  0  0  0  0  0  0  0  0  0  0  0  0  # atno 17395 bound_to 11000

$$$$
