AV-unprocessed.smi:962|AV-procd|sdf|4275|dock2
  -GOLD-   22720 2183D 1   1.00000     0.00000
 Structure written by MMmdl.
 42 43  0  0  0  0  0  0  0  0  1 V2000
  150.6794  143.1026  158.2846 C   0  0  0  0  0  0  0  0  0  0  0  0
  151.4357  144.1983  159.0657 C   0  0  0  0  0  0  0  0  0  0  0  0
  152.4598  144.8428  158.1106 C   0  0  0  0  0  0  0  0  0  0  0  0
  150.4080  145.2514  159.5244 C   0  0  0  0  0  0  0  0  0  0  0  0
  152.1537  143.6170  160.2665 C   0  0  0  0  0  0  0  0  0  0  0  0
  152.0684  144.0147  161.5815 C   0  0  0  0  0  0  0  0  0  0  0  0
  153.0383  143.0256  162.6364 S   0  0  0  0  0  0  0  0  0  0  0  0
  153.5492  142.0920  161.2368 C   0  0  0  0  0  0  0  0  0  0  0  0
  154.4206  140.8807  161.3303 C   0  0  0  0  0  0  0  0  0  0  0  0
  153.7434  139.5842  160.8423 C   0  0  0  0  0  0  0  0  0  0  0  0
  154.1103  138.4268  161.6561 N   0  0  0  0  0  0  0  0  0  0  0  0
  153.8339  137.1434  161.3606 C   0  0  0  0  0  0  0  0  0  0  0  0
  153.3197  136.7937  160.2975 O   0  0  0  0  0  0  0  0  0  0  0  0
  154.1622  136.2706  162.3374 N   0  0  0  0  0  0  0  0  0  0  0  0
  154.3086  136.5709  163.7648 C   0  0  0  0  0  0  0  0  0  0  0  0
  154.3658  135.2157  164.4701 C   0  0  0  0  0  0  0  0  0  0  0  0
  154.8828  134.2618  163.4029 C   0  0  0  0  0  0  0  0  0  0  0  0
  154.3461  134.8411  162.0943 C   0  0  0  0  0  0  0  0  0  0  0  0
  153.0143  142.5250  160.0939 N   0  0  0  0  0  0  0  0  0  0  0  0
  150.1583  143.5185  157.4215 H   0  0  0  0  0  0  0  0  0  0  0  0
  149.9312  142.6105  158.9075 H   0  0  0  0  0  0  0  0  0  0  0  0
  151.3590  142.3352  157.9117 H   0  0  0  0  0  0  0  0  0  0  0  0
  153.2010  144.1150  157.7773 H   0  0  0  0  0  0  0  0  0  0  0  0
  152.9988  145.6607  158.5900 H   0  0  0  0  0  0  0  0  0  0  0  0
  151.9756  145.2507  157.2228 H   0  0  0  0  0  0  0  0  0  0  0  0
  149.8661  145.6729  158.6770 H   0  0  0  0  0  0  0  0  0  0  0  0
  150.8870  146.0809  160.0458 H   0  0  0  0  0  0  0  0  0  0  0  0
  149.6726  144.8177  160.2031 H   0  0  0  0  0  0  0  0  0  0  0  0
  151.4847  144.8206  162.0006 H   0  0  0  0  0  0  0  0  0  0  0  0
  155.3352  141.0590  160.7639 H   0  0  0  0  0  0  0  0  0  0  0  0
  154.7232  140.7621  162.3711 H   0  0  0  0  0  0  0  0  0  0  0  0
  152.6604  139.7182  160.8391 H   0  0  0  0  0  0  0  0  0  0  0  0
  154.0249  139.3877  159.8078 H   0  0  0  0  0  0  0  0  0  0  0  0
  154.5490  138.6183  162.5451 H   0  0  0  0  0  0  0  0  0  0  0  0
  155.2373  137.1226  163.9186 H   0  0  0  0  0  0  0  0  0  0  0  0
  153.4841  137.1739  164.1489 H   0  0  0  0  0  0  0  0  0  0  0  0
  154.9887  135.2291  165.3649 H   0  0  0  0  0  0  0  0  0  0  0  0
  153.3600  134.9169  164.7686 H   0  0  0  0  0  0  0  0  0  0  0  0
  155.9734  134.2833  163.3922 H   0  0  0  0  0  0  0  0  0  0  0  0
  154.5705  133.2302  163.5687 H   0  0  0  0  0  0  0  0  0  0  0  0
  153.3808  134.3969  161.8464 H   0  0  0  0  0  0  0  0  0  0  0  0
  155.0296  134.6517  161.2652 H   0  0  0  0  0  0  0  0  0  0  0  0
  1  2  1  0  0  0  0
  1 20  1  0  0  0  0
  1 21  1  0  0  0  0
  1 22  1  0  0  0  0
  2  3  1  0  0  0  0
  2  4  1  0  0  0  0
  2  5  1  0  0  0  0
  3 23  1  0  0  0  0
  3 24  1  0  0  0  0
  3 25  1  0  0  0  0
  4 26  1  0  0  0  0
  4 27  1  0  0  0  0
  4 28  1  0  0  0  0
  5 19  1  0  0  0  0
  5  6  2  0  0  0  0
  6  7  1  0  0  0  0
  6 29  1  0  0  0  0
  7  8  1  0  0  0  0
  8  9  1  0  0  0  0
  8 19  2  0  0  0  0
  9 10  1  0  0  0  0
  9 30  1  0  0  0  0
  9 31  1  0  0  0  0
 10 11  1  0  0  0  0
 10 32  1  0  0  0  0
 10 33  1  0  0  0  0
 11 12  1  0  0  0  0
 11 34  1  0  0  0  0
 12 13  2  0  0  0  0
 12 14  1  0  0  0  0
 14 18  1  0  0  0  0
 14 15  1  0  0  0  0
 15 16  1  0  0  0  0
 15 35  1  0  0  0  0
 15 36  1  0  0  0  0
 16 17  1  0  0  0  0
 16 37  1  0  0  0  0
 16 38  1  0  0  0  0
 17 18  1  0  0  0  0
 17 39  1  0  0  0  0
 17 40  1  0  0  0  0
 18 41  1  0  0  0  0
 18 42  1  0  0  0  0
M  END
> <s_m_source_file>
AV-unprocessed.smi

> <i_m_source_file_index>
962

> <i_lp_mmshare_version>
43012

> <i_f3d_flags>
0

> <s_epik_input>
W0NIM11DKFtDSDNdKShbQ0gzXSljMVtjSF1zYyhuMSlbQ0gyXVtDSDJdW05IXUMoPU8pTjJbQ0gyXVtDSDJdW0NIMl1bQ0gyXTI=

> <s_epik_cmdline>
J2VwaWtfcHl0aG9uJywgJy1waCcsICc3LjAnLCAnLXRuJywgJzgnLCAnLW1hJywgJzIwMCcsICctbWV0YWxfYmluZGluZycsICctaW1hZScsICc8aW5maWxlLm1hZT4nLCAnLW9tYWUnLCAnPG91dGZpbGUubWFlPic=

> <r_epik_Ionization_Penalty>
0.00160156

> <r_epik_Ionization_Penalty_Charging>
0

> <r_epik_Ionization_Penalty_Neutral>
0.00160156

> <r_epik_State_Penalty>
0.00103428

> <r_epik_Charging_Adjusted_Penalty>
0.00103428

> <i_epik_Tot_Q>
0

> <i_epik_Tot_abs_Q>
0

> <r_epik_Metal_State_Penalty>
-0

> <b_epik_Metal_Only>
0

> <s_lp_Force_Field>
OPLS_2005

> <r_lp_Energy>
25.7371

> <b_lp_Chiralities_Consistent>
1

> <s_lp_Variant>
AV-unprocessed.smi:962-1

> <Gold.Version>
5.8.1

> <Gold.Id.Protein>
6NUR|6NUR_protein|mol2

> <Gold.PLP.Fitness>
50.7427

> <Gold.PLP.PLP>
-50.1563

> <Gold.PLP.part.hbond>
-0.4559

> <Gold.PLP.part.metal>
0.0000

> <Gold.PLP.part.buried>
-6.1584

> <Gold.PLP.part.nonpolar>
-43.6290

> <Gold.PLP.part.repulsive>
0.0000

> <Gold.PLP.ligand.clash>
0.0000

> <Gold.PLP.ligand.torsion>
0.6552

> <Gold.PLP.Chemscore.Hbond>
0.6175

> <Gold.PLP.Chemscore.CHOScore>
0.0000

> <Gold.PLP.Chemscore.Metal>
0.0000

> <Gold.Chemscore.Hbonds>
donor molecule, donor type, donor heavy atom, donor atom, acceptor molecule, acceptor atom, score
      P1  H  6896  6909       L1    13  0.65

> <Gold.PLP.Chemscore.Internal.Correction>
0.0443

> <Gold.Rescore>
     Score         DG    S(hbond)    S(metal)    S(lipo)     H(rot)  DE(clash)    DE(int)     intcor
     20.68     -21.30       0.98        0.00     138.35       1.41       0.02       0.60       ----

> <Gold.Chemscore.Fitness>
20.6822

> <Gold.Chemscore.DG>
-21.3029

> <Gold.Chemscore.ZeroCoef>
-5.4800

> <Gold.Chemscore.Hbond>
0.9756

> <Gold.Chemscore.Metal>
0.0000

> <Gold.Chemscore.Lipo>
138.3464

> <Gold.Chemscore.Internal_Hbond>
0.0000

> <Gold.Chemscore.DEClash>
0.0174

> <Gold.Chemscore.DEInternal>
0.6034

> <Gold.Chemscore.Rot>
1.4149

> <Gold.Chemscore.Internal.Correction>
   9.000000E+99

> <Gold.Chemscore.Hbonds>
donor molecule, donor type, donor heavy atom, donor atom, acceptor molecule, acceptor atom, score
      P1  H  6896  6909       L1    13  0.64

> <Gold.Chemscore.Hbond.Weighted>
-3.2586

> <Gold.Chemscore.Metal.Weighted>
-0.0000

> <Gold.Chemscore.Lipo.Weighted>
-16.1865

> <Gold.Chemscore.Internal_Hbond.Weighted>
0.0000

> <Gold.Chemscore.DEClash.Weighted>
0.0174

> <Gold.Chemscore.DEInternal.Weighted>
0.6034

> <Gold.Chemscore.Rot.Weighted>
3.6222

> <Gold.Chemscore.Internal.Correction.Weighted>
   9.000000E+99

> <Gold.Protein.RotatedTorsions>
[ 6907 6896 6895 6894 ] final  158.13 input  -60.11 | X-H torsion
[ 7974 7965 7964 7962 ] final   23.97 input  175.53 | X-H torsion
[ 8008 7997 7996 7995 ] final  147.81 input   59.86 | X-H torsion
[ 10167 10162 10161 10158 ] final  -48.35 input  -65.29 | X-H torsion
[ 10718 10713 10712 10709 ] final  129.02 input   66.30 | X-H torsion
[ 10763 10752 10751 10750 ] final -137.54 input  -60.55 | X-H torsion
[ 11005 11000 10999 10996 ] final  177.10 input  -57.11 | X-H torsion

> <Gold.Protein.ActiveResidues>
 VAL166  LYS551  ARG553  GLY616  TRP617  ASP618  TYR619  PRO620  LYS621  CYS622 
 ASP623  PHE694  ASN695  SER759  ASP760  ASP761  ALA762  ILE779  LEU786  VAL792 
 PHE793  MET794  SER795  GLU796  ALA797  LYS798  CYS799  TRP800  GLU811  SER814 

> <Gold.Protein.RotatedAtoms>
  152.0049  133.3839  159.4196 H   0  0  0  0  0  0  0  0  0  0  0  0  # atno 6907 bound_to 6896
  150.6906  134.3794  159.5036 H   0  0  0  0  0  0  0  0  0  0  0  0  # atno 6908 bound_to 6896
  152.1546  134.8961  160.0596 H   0  0  0  0  0  0  0  0  0  0  0  0  # atno 6909 bound_to 6896
  146.1960  139.7670  142.8797 H   0  0  0  0  0  0  0  0  0  0  0  0  # atno 7974 bound_to 7965
  156.2812  140.2145  156.5597 H   0  0  0  0  0  0  0  0  0  0  0  0  # atno 8008 bound_to 7997
  154.7223  140.0502  157.0673 H   0  0  0  0  0  0  0  0  0  0  0  0  # atno 8009 bound_to 7997
  155.0462  140.3151  155.4710 H   0  0  0  0  0  0  0  0  0  0  0  0  # atno 8010 bound_to 7997
  140.6735  143.2744  151.4058 H   0  0  0  0  0  0  0  0  0  0  0  0  # atno 10167 bound_to 10162
  157.5192  131.1098  150.9179 H   0  0  0  0  0  0  0  0  0  0  0  0  # atno 10718 bound_to 10713
  154.8659  135.3639  154.5239 H   0  0  0  0  0  0  0  0  0  0  0  0  # atno 10763 bound_to 10752
  153.5868  135.7017  153.5445 H   0  0  0  0  0  0  0  0  0  0  0  0  # atno 10764 bound_to 10752
  153.3409  135.4098  155.1533 H   0  0  0  0  0  0  0  0  0  0  0  0  # atno 10765 bound_to 10752
  140.3804  134.6951  157.4447 H   0  0  0  0  0  0  0  0  0  0  0  0  # atno 11005 bound_to 11000
  145.3643  141.0331  143.3267 LP  0  0  0  0  0  0  0  0  0  0  0  0  # atno 17320 bound_to 7965
  144.8581  139.5219  143.6825 LP  0  0  0  0  0  0  0  0  0  0  0  0  # atno 17321 bound_to 7965
  139.6015  144.1286  152.2203 LP  0  0  0  0  0  0  0  0  0  0  0  0  # atno 17342 bound_to 10162
  140.0672  144.5809  150.7219 LP  0  0  0  0  0  0  0  0  0  0  0  0  # atno 17343 bound_to 10162
  156.9795  130.5521  149.5295 LP  0  0  0  0  0  0  0  0  0  0  0  0  # atno 17370 bound_to 10713
  156.0341  130.5430  150.8610 LP  0  0  0  0  0  0  0  0  0  0  0  0  # atno 17371 bound_to 10713
  140.0483  134.6168  155.8893 LP  0  0  0  0  0  0  0  0  0  0  0  0  # atno 17394 bound_to 11000
  141.1925  133.6575  156.5506 LP  0  0  0  0  0  0  0  0  0  0  0  0  # atno 17395 bound_to 11000

$$$$
