AV-unprocessed.smi:84|AV-procd|sdf|809|dock8
  -GOLD-   2262017203D 1   1.00000     0.00000
 Structure written by MMmdl.
 51 55  0  0  0  0  0  0  0  0  1 V2000
  154.5798  131.8632  155.5113 O   0  0  0  0  0  0  0  0  0  0  0  0
  153.6334  131.3590  156.1112 C   0  0  0  0  0  0  0  0  0  0  0  0
  152.5348  130.5561  155.4332 C   0  0  0  0  0  0  0  0  0  0  0  0
  151.4313  130.5120  156.5123 C   0  0  2  0  0  0  0  0  0  0  0  0
  150.5743  129.2403  156.4620 C   0  0  0  0  0  0  0  0  0  0  0  0
  149.5129  129.5719  155.4148 C   0  0  0  0  0  0  0  0  0  0  0  0
  149.2890  131.0033  155.5555 N   0  0  0  0  0  0  0  0  0  0  0  0
  148.5202  131.7017  154.6804 C   0  0  0  0  0  0  0  0  0  0  0  0
  148.5393  133.0601  154.7363 N   0  0  0  0  0  0  0  0  0  0  0  0
  147.7991  133.7853  153.8934 C   0  0  0  0  0  0  0  0  0  0  0  0
  146.9817  133.3642  152.9277 N   0  0  0  0  0  0  0  0  0  0  0  0
  146.9621  132.0028  152.8566 C   0  0  0  0  0  0  0  0  0  0  0  0
  147.6982  131.1025  153.6801 C   0  0  0  0  0  0  0  0  0  0  0  0
  147.4406  129.7941  153.2841 N   0  0  0  0  0  0  0  0  0  0  0  0
  146.6009  129.9145  152.2930 C   0  0  0  0  0  0  0  0  0  0  0  0
  146.2384  131.2060  151.9868 N   0  0  0  0  0  0  0  0  0  0  0  0
  145.3692  131.6319  150.9296 C   0  0  0  0  0  0  0  0  0  0  0  0
  145.7017  132.8693  150.0911 C   0  0  0  0  0  0  0  0  0  0  0  0
  144.1895  133.1541  149.9351 C   0  0  0  0  0  0  0  0  0  0  0  0
  143.7331  134.6244  150.0153 C   0  0  0  0  0  0  0  0  0  0  0  0
  144.7882  135.5039  150.3497 O   0  0  0  0  0  0  0  0  0  0  0  0
  143.5273  132.5401  148.6871 C   0  0  0  0  0  0  0  0  0  0  0  0
  143.8376  133.2752  147.5207 O   0  0  0  0  0  0  0  0  0  0  0  0
  144.0248  132.3087  151.2193 C   0  0  0  0  0  0  0  0  0  0  0  0
  150.3902  131.6275  156.2765 C   0  0  0  0  0  0  0  0  0  0  0  0
  152.2154  130.7127  157.8261 C   0  0  0  0  0  0  0  0  0  0  0  0
  153.4131  131.4251  157.4234 N   0  0  0  0  0  0  0  0  0  0  0  0
  152.2081  131.0166  154.4999 H   0  0  0  0  0  0  0  0  0  0  0  0
  152.9215  129.5617  155.2072 H   0  0  0  0  0  0  0  0  0  0  0  0
  151.1403  128.3398  156.2217 H   0  0  0  0  0  0  0  0  0  0  0  0
  150.0924  129.0807  157.4276 H   0  0  0  0  0  0  0  0  0  0  0  0
  149.8848  129.3526  154.4127 H   0  0  0  0  0  0  0  0  0  0  0  0
  148.5961  129.0038  155.5759 H   0  0  0  0  0  0  0  0  0  0  0  0
  147.8720  134.8565  154.0105 H   0  0  0  0  0  0  0  0  0  0  0  0
  146.2196  129.0564  151.7589 H   0  0  0  0  0  0  0  0  0  0  0  0
  145.2315  130.7603  150.2878 H   0  0  0  0  0  0  0  0  0  0  0  0
  146.2330  133.6273  150.6689 H   0  0  0  0  0  0  0  0  0  0  0  0
  146.2311  132.6511  149.1634 H   0  0  0  0  0  0  0  0  0  0  0  0
  143.3174  134.9594  149.0646 H   0  0  0  0  0  0  0  0  0  0  0  0
  142.9478  134.7458  150.7620 H   0  0  0  0  0  0  0  0  0  0  0  0
  145.2617  135.7189  149.5605 H   0  0  0  0  0  0  0  0  0  0  0  0
  143.8530  131.5119  148.5285 H   0  0  0  0  0  0  0  0  0  0  0  0
  142.4429  132.5012  148.7976 H   0  0  0  0  0  0  0  0  0  0  0  0
  143.1340  133.1630  146.8996 H   0  0  0  0  0  0  0  0  0  0  0  0
  143.1706  131.6308  151.2153 H   0  0  0  0  0  0  0  0  0  0  0  0
  144.0458  132.8973  152.1376 H   0  0  0  0  0  0  0  0  0  0  0  0
  149.9982  132.0099  157.2192 H   0  0  0  0  0  0  0  0  0  0  0  0
  150.8208  132.4669  155.7293 H   0  0  0  0  0  0  0  0  0  0  0  0
  151.6553  131.2652  158.5810 H   0  0  0  0  0  0  0  0  0  0  0  0
  152.5102  129.7558  158.2593 H   0  0  0  0  0  0  0  0  0  0  0  0
  154.0115  131.9070  158.0788 H   0  0  0  0  0  0  0  0  0  0  0  0
  1  2  2  0  0  0  0
  2 27  1  0  0  0  0
  2  3  1  0  0  0  0
  3  4  1  0  0  0  0
  3 28  1  0  0  0  0
  3 29  1  0  0  0  0
  4 25  1  0  0  0  0
  4  5  1  0  0  0  0
  4 26  1  0  0  0  0
  5  6  1  0  0  0  0
  5 30  1  0  0  0  0
  5 31  1  0  0  0  0
  6  7  1  0  0  0  0
  6 32  1  0  0  0  0
  6 33  1  0  0  0  0
  7  8  1  0  0  0  0
  7 25  1  0  0  0  0
  8 13  1  0  0  0  0
  8  9  2  0  0  0  0
  9 10  1  0  0  0  0
 10 11  2  0  0  0  0
 10 34  1  0  0  0  0
 11 12  1  0  0  0  0
 12 16  1  0  0  0  0
 12 13  2  0  0  0  0
 13 14  1  0  0  0  0
 14 15  2  0  0  0  0
 15 16  1  0  0  0  0
 15 35  1  0  0  0  0
 16 17  1  0  0  0  0
 17 24  1  0  0  0  0
 17 18  1  0  0  0  0
 17 36  1  0  0  0  0
 18 19  1  0  0  0  0
 18 37  1  0  0  0  0
 18 38  1  0  0  0  0
 19 20  1  0  0  0  0
 19 22  1  0  0  0  0
 19 24  1  0  0  0  0
 20 21  1  0  0  0  0
 20 39  1  0  0  0  0
 20 40  1  0  0  0  0
 21 41  1  0  0  0  0
 22 23  1  0  0  0  0
 22 42  1  0  0  0  0
 22 43  1  0  0  0  0
 23 44  1  0  0  0  0
 24 45  1  0  0  0  0
 24 46  1  0  0  0  0
 25 47  1  0  0  0  0
 25 48  1  0  0  0  0
 26 27  1  0  0  0  0
 26 49  1  0  0  0  0
 26 50  1  0  0  0  0
 27 51  1  0  0  0  0
M  END
> <s_m_source_file>
AV-unprocessed.smi

> <i_m_source_file_index>
84

> <i_lp_mmshare_version>
43012

> <i_f3d_flags>
0

> <s_epik_input>
W0NIMl0xW05IXUMoPU8pW0NIMl1bQ0BdMTJbQ0gyXVtDSDJdTihbQ0gyXTIpYyhuW2NIXW4zKWMoYzM0KW5bY0hdbjRbQ0hdKFtDSDJdNSlbQ0gyXUM1KFtDSDJdW09IXSlbQ0gyXVtPSF0=

> <s_epik_cmdline>
J2VwaWtfcHl0aG9uJywgJy1waCcsICc3LjAnLCAnLXRuJywgJzgnLCAnLW1hJywgJzIwMCcsICctbWV0YWxfYmluZGluZycsICctaW1hZScsICc8aW5maWxlLm1hZT4nLCAnLW9tYWUnLCAnPG91dGZpbGUubWFlPic=

> <r_lp_tautomer_probability>
1

> <r_epik_Ionization_Penalty>
0.00201507

> <r_epik_Ionization_Penalty_Charging>
0

> <r_epik_Ionization_Penalty_Neutral>
0.00201507

> <r_epik_State_Penalty>
0.00133787

> <r_epik_Charging_Adjusted_Penalty>
0.00133787

> <i_epik_Tot_Q>
0

> <i_epik_Tot_abs_Q>
0

> <r_epik_Metal_State_Penalty>
-0

> <b_epik_Metal_Only>
0

> <s_lp_Force_Field>
OPLS_2005

> <r_lp_Energy>
68.8544

> <b_lp_Chiralities_Consistent>
1

> <s_lp_Variant>
AV-unprocessed.smi:84-2

> <Gold.Version>
5.8.1

> <Gold.Id.Protein>
6NUR|6NUR_protein|mol2

> <Gold.PLP.Fitness>
54.5915

> <Gold.PLP.PLP>
-45.5118

> <Gold.PLP.part.hbond>
-4.0000

> <Gold.PLP.part.metal>
0.0000

> <Gold.PLP.part.buried>
-0.8131

> <Gold.PLP.part.nonpolar>
-40.4174

> <Gold.PLP.part.repulsive>
0.3708

> <Gold.PLP.ligand.clash>
0.0000

> <Gold.PLP.ligand.torsion>
1.4273

> <Gold.PLP.Chemscore.Hbond>
2.7760

> <Gold.PLP.Chemscore.CHOScore>
0.9879

> <Gold.PLP.Chemscore.Metal>
0.0000

> <Gold.Chemscore.Hbonds>
donor molecule, donor type, donor heavy atom, donor atom, acceptor molecule, acceptor atom, score
      L1  H    21    41       P1  7921  0.31
      L1  H    23    44       P1 10195  1.00
      P1  H  7918  7932       L1    23  0.40
      L1  C    10    34       P1  7948  0.31

> <Gold.PLP.Chemscore.Internal.Correction>
0.6425

> <Gold.Rescore>
     Score         DG    S(hbond)    S(metal)    S(lipo)     H(rot)  DE(clash)    DE(int)     intcor
     11.65     -15.10       2.06        0.00      88.16       2.96       0.52       2.93       ----

> <Gold.Chemscore.Fitness>
11.6528

> <Gold.Chemscore.DG>
-15.1012

> <Gold.Chemscore.ZeroCoef>
-5.4800

> <Gold.Chemscore.Hbond>
2.0648

> <Gold.Chemscore.Metal>
0.0000

> <Gold.Chemscore.Lipo>
88.1622

> <Gold.Chemscore.Internal_Hbond>
0.0000

> <Gold.Chemscore.DEClash>
0.5189

> <Gold.Chemscore.DEInternal>
2.9295

> <Gold.Chemscore.Rot>
2.9649

> <Gold.Chemscore.Internal.Correction>
   9.000000E+99

> <Gold.Chemscore.Hbonds>
donor molecule, donor type, donor heavy atom, donor atom, acceptor molecule, acceptor atom, score
      L1  H    21    41       P1  7921  0.30
      L1  H    23    44       P1 10195  1.00
      P1  H  7918  7932       L1    23  0.02

> <Gold.Chemscore.Hbond.Weighted>
-6.8964

> <Gold.Chemscore.Metal.Weighted>
-0.0000

> <Gold.Chemscore.Lipo.Weighted>
-10.3150

> <Gold.Chemscore.Internal_Hbond.Weighted>
0.0000

> <Gold.Chemscore.DEClash.Weighted>
0.5189

> <Gold.Chemscore.DEInternal.Weighted>
2.9295

> <Gold.Chemscore.Rot.Weighted>
7.5902

> <Gold.Chemscore.Internal.Correction.Weighted>
   9.000000E+99

> <Gold.Protein.RotatedTorsions>
[ 6907 6896 6895 6894 ] final -107.56 input  -60.11 | X-H torsion
[ 7974 7965 7964 7962 ] final  145.08 input  175.53 | X-H torsion
[ 8008 7997 7996 7995 ] final  -73.96 input   59.86 | X-H torsion
[ 10167 10162 10161 10158 ] final  121.76 input  -65.29 | X-H torsion
[ 10718 10713 10712 10709 ] final   36.03 input   66.30 | X-H torsion
[ 10763 10752 10751 10750 ] final  -46.35 input  -60.55 | X-H torsion
[ 11005 11000 10999 10996 ] final  -76.05 input  -57.11 | X-H torsion

> <Gold.Protein.ActiveResidues>
 VAL166  LYS551  ARG553  GLY616  TRP617  ASP618  TYR619  PRO620  LYS621  CYS622 
 ASP623  PHE694  ASN695  SER759  ASP760  ASP761  ALA762  ILE779  LEU786  VAL792 
 PHE793  MET794  SER795  GLU796  ALA797  LYS798  CYS799  TRP800  GLU811  SER814 

> <Gold.Protein.RotatedAtoms>
  150.7451  133.9808  159.3575 H   0  0  0  0  0  0  0  0  0  0  0  0  # atno 6907 bound_to 6896
  151.7749  135.0775  160.0374 H   0  0  0  0  0  0  0  0  0  0  0  0  # atno 6908 bound_to 6896
  152.3314  133.5925  159.5848 H   0  0  0  0  0  0  0  0  0  0  0  0  # atno 6909 bound_to 6896
  144.8782  139.5740  143.5855 H   0  0  0  0  0  0  0  0  0  0  0  0  # atno 7974 bound_to 7965
  154.5291  140.0770  156.8312 H   0  0  0  0  0  0  0  0  0  0  0  0  # atno 8008 bound_to 7997
  155.3413  140.3407  155.4221 H   0  0  0  0  0  0  0  0  0  0  0  0  # atno 8009 bound_to 7997
  156.1762  140.1636  156.8344 H   0  0  0  0  0  0  0  0  0  0  0  0  # atno 8010 bound_to 7997
  139.5900  144.7021  151.3315 H   0  0  0  0  0  0  0  0  0  0  0  0  # atno 10167 bound_to 10162
  157.3300  130.7492  149.6841 H   0  0  0  0  0  0  0  0  0  0  0  0  # atno 10718 bound_to 10713
  154.0435  135.6641  153.4792 H   0  0  0  0  0  0  0  0  0  0  0  0  # atno 10763 bound_to 10752
  153.0492  135.5095  154.7819 H   0  0  0  0  0  0  0  0  0  0  0  0  # atno 10764 bound_to 10752
  154.6803  135.3044  154.9588 H   0  0  0  0  0  0  0  0  0  0  0  0  # atno 10765 bound_to 10752
  141.1651  133.6969  156.7610 H   0  0  0  0  0  0  0  0  0  0  0  0  # atno 11005 bound_to 11000
  146.2977  139.7328  142.9115 LP  0  0  0  0  0  0  0  0  0  0  0  0  # atno 17320 bound_to 7965
  145.4003  141.0384  143.3074 LP  0  0  0  0  0  0  0  0  0  0  0  0  # atno 17321 bound_to 7965
  140.7164  143.7254  150.7664 LP  0  0  0  0  0  0  0  0  0  0  0  0  # atno 17342 bound_to 10162
  140.0807  143.4971  152.2531 LP  0  0  0  0  0  0  0  0  0  0  0  0  # atno 17343 bound_to 10162
  155.9694  130.4198  150.4393 LP  0  0  0  0  0  0  0  0  0  0  0  0  # atno 17370 bound_to 10713
  157.2423  131.0528  151.2429 LP  0  0  0  0  0  0  0  0  0  0  0  0  # atno 17371 bound_to 10713
  140.2534  134.8523  157.3689 LP  0  0  0  0  0  0  0  0  0  0  0  0  # atno 17394 bound_to 11000
  140.1680  134.4644  155.7850 LP  0  0  0  0  0  0  0  0  0  0  0  0  # atno 17395 bound_to 11000

$$$$
