AV-unprocessed.smi:2913|AV-procd|sdf|11182|dock3
  -GOLD-   2272016 73D 1   1.00000     0.00000
 Structure written by MMmdl.
 41 42  0  0  0  0  0  0  0  0  1 V2000
  151.0794  144.8554  158.2184 C   0  0  0  0  0  0  0  0  0  0  0  0
  151.6360  143.4874  158.5766 C   0  0  0  0  0  0  0  0  0  0  0  0
  152.6734  143.3880  159.4376 C   0  0  0  0  0  0  0  0  0  0  0  0
  153.2600  142.1046  159.8266 C   0  0  0  0  0  0  0  0  0  0  0  0
  154.2025  142.0243  160.6147 O   0  0  0  0  0  0  0  0  0  0  0  0
  152.6953  141.0047  159.2572 N   0  0  0  0  0  0  0  0  0  0  0  0
  153.2161  139.6721  159.5740 C   0  0  0  0  0  0  0  0  0  0  0  0
  151.6177  141.0936  158.3598 C   0  0  0  0  0  0  0  0  0  0  0  0
  151.0645  142.2746  158.0049 C   0  0  0  0  0  0  0  0  0  0  0  0
  149.9949  142.4104  157.1036 N   0  0  0  0  0  0  0  0  0  0  0  0
  149.2478  141.4610  156.5100 C   0  0  0  0  0  0  0  0  0  0  0  0
  149.3467  140.2478  156.6906 O   0  0  0  0  0  0  0  0  0  0  0  0
  148.3411  142.0154  155.6920 N   0  0  0  0  0  0  0  0  0  0  0  0
  147.3331  141.2984  154.9126 C   0  0  2  0  0  0  0  0  0  0  0  0
  147.8173  141.1746  153.4605 C   0  0  0  0  0  0  0  0  0  0  0  0
  145.9768  142.0244  155.0106 C   0  0  2  0  0  0  0  0  0  0  0  0
  145.8600  143.2820  154.1450 C   0  0  0  0  0  0  0  0  0  0  0  0
  144.7994  144.0652  154.8824 C   0  0  0  0  0  0  0  0  0  0  0  0
  145.1663  143.7804  156.3348 C   0  0  0  0  0  0  0  0  0  0  0  0
  145.7440  142.4774  156.3433 O   0  0  0  0  0  0  0  0  0  0  0  0
  151.6038  145.6557  158.7419 H   0  0  0  0  0  0  0  0  0  0  0  0
  150.0236  144.9168  158.4845 H   0  0  0  0  0  0  0  0  0  0  0  0
  151.1760  145.0354  157.1474 H   0  0  0  0  0  0  0  0  0  0  0  0
  153.0963  144.2866  159.8628 H   0  0  0  0  0  0  0  0  0  0  0  0
  152.6778  138.8728  159.0636 H   0  0  0  0  0  0  0  0  0  0  0  0
  153.1443  139.4774  160.6449 H   0  0  0  0  0  0  0  0  0  0  0  0
  154.2648  139.5931  159.2842 H   0  0  0  0  0  0  0  0  0  0  0  0
  151.2958  140.1363  157.9831 H   0  0  0  0  0  0  0  0  0  0  0  0
  149.7491  143.3655  156.8883 H   0  0  0  0  0  0  0  0  0  0  0  0
  148.3345  143.0217  155.6120 H   0  0  0  0  0  0  0  0  0  0  0  0
  147.2023  140.2885  155.3048 H   0  0  0  0  0  0  0  0  0  0  0  0
  147.1050  140.6146  152.8541 H   0  0  0  0  0  0  0  0  0  0  0  0
  148.7726  140.6509  153.4091 H   0  0  0  0  0  0  0  0  0  0  0  0
  147.9484  142.1540  152.9993 H   0  0  0  0  0  0  0  0  0  0  0  0
  145.1662  141.3419  154.7493 H   0  0  0  0  0  0  0  0  0  0  0  0
  146.7992  143.8376  154.1436 H   0  0  0  0  0  0  0  0  0  0  0  0
  145.5897  143.0655  153.1111 H   0  0  0  0  0  0  0  0  0  0  0  0
  144.8023  145.1285  154.6409 H   0  0  0  0  0  0  0  0  0  0  0  0
  143.8107  143.6630  154.6568 H   0  0  0  0  0  0  0  0  0  0  0  0
  145.9155  144.4921  156.6838 H   0  0  0  0  0  0  0  0  0  0  0  0
  144.3061  143.8406  157.0015 H   0  0  0  0  0  0  0  0  0  0  0  0
  1  2  1  0  0  0  0
  1 21  1  0  0  0  0
  1 22  1  0  0  0  0
  1 23  1  0  0  0  0
  2  9  1  0  0  0  0
  2  3  2  0  0  0  0
  3  4  1  0  0  0  0
  3 24  1  0  0  0  0
  4  5  2  0  0  0  0
  4  6  1  0  0  0  0
  6  7  1  0  0  0  0
  6  8  1  0  0  0  0
  7 25  1  0  0  0  0
  7 26  1  0  0  0  0
  7 27  1  0  0  0  0
  8  9  2  0  0  0  0
  8 28  1  0  0  0  0
  9 10  1  0  0  0  0
 10 11  1  0  0  0  0
 10 29  1  0  0  0  0
 11 12  2  0  0  0  0
 11 13  1  0  0  0  0
 13 14  1  0  0  0  0
 13 30  1  0  0  0  0
 14 15  1  0  0  0  0
 14 16  1  0  0  0  0
 14 31  1  0  0  0  0
 15 32  1  0  0  0  0
 15 33  1  0  0  0  0
 15 34  1  0  0  0  0
 16 20  1  0  0  0  0
 16 17  1  0  0  0  0
 16 35  1  0  0  0  0
 17 18  1  0  0  0  0
 17 36  1  0  0  0  0
 17 37  1  0  0  0  0
 18 19  1  0  0  0  0
 18 38  1  0  0  0  0
 18 39  1  0  0  0  0
 19 20  1  0  0  0  0
 19 40  1  0  0  0  0
 19 41  1  0  0  0  0
M  END
> <s_m_source_file>
AV-unprocessed.smi

> <i_m_source_file_index>
2913

> <i_lp_mmshare_version>
43012

> <i_f3d_flags>
0

> <s_epik_input>
W0NIM11jMVtjSF1jKD1PKW4oW0NIM10pW2NIXWMxW05IXUMoPU8pW05IXVtDQEhdKFtDSDNdKVtDQEBIXTJbQ0gyXVtDSDJdW0NIMl1PMg==

> <s_epik_cmdline>
J2VwaWtfcHl0aG9uJywgJy1waCcsICc3LjAnLCAnLXRuJywgJzgnLCAnLW1hJywgJzIwMCcsICctbWV0YWxfYmluZGluZycsICctaW1hZScsICc8aW5maWxlLm1hZT4nLCAnLW9tYWUnLCAnPG91dGZpbGUubWFlPic=

> <r_lp_tautomer_probability>
1

> <r_epik_Ionization_Penalty>
2.72039e-05

> <r_epik_Ionization_Penalty_Charging>
8.03976e-06

> <r_epik_Ionization_Penalty_Neutral>
1.91642e-05

> <r_epik_State_Penalty>
-0

> <r_epik_Charging_Adjusted_Penalty>
8.03976e-06

> <i_epik_Tot_Q>
0

> <i_epik_Tot_abs_Q>
0

> <r_epik_Metal_State_Penalty>
-0

> <b_epik_Metal_Only>
0

> <s_lp_Force_Field>
OPLS_2005

> <r_lp_Energy>
32.2239

> <b_lp_Chiralities_Consistent>
1

> <s_lp_Variant>
AV-unprocessed.smi:2913-1

> <Gold.Version>
5.8.1

> <Gold.Id.Protein>
6NUR|6NUR_protein|mol2

> <Gold.PLP.Fitness>
43.9708

> <Gold.PLP.PLP>
-39.0566

> <Gold.PLP.part.hbond>
-2.3325

> <Gold.PLP.part.metal>
0.0000

> <Gold.PLP.part.buried>
-5.3677

> <Gold.PLP.part.nonpolar>
-31.5856

> <Gold.PLP.part.repulsive>
0.2235

> <Gold.PLP.ligand.clash>
0.0000

> <Gold.PLP.ligand.torsion>
0.5345

> <Gold.PLP.Chemscore.Hbond>
1.9913

> <Gold.PLP.Chemscore.CHOScore>
0.0000

> <Gold.PLP.Chemscore.Metal>
0.0000

> <Gold.Chemscore.Hbonds>
donor molecule, donor type, donor heavy atom, donor atom, acceptor molecule, acceptor atom, score
      L1  H    10    29       P1  8028  1.00
      L1  H    13    30       P1  8028  1.00

> <Gold.PLP.Chemscore.Internal.Correction>
0.0095

> <Gold.Rescore>
     Score         DG    S(hbond)    S(metal)    S(lipo)     H(rot)  DE(clash)    DE(int)     intcor
     17.33     -19.17       1.94        0.00      88.07       1.21       0.24       1.61       ----

> <Gold.Chemscore.Fitness>
17.3250

> <Gold.Chemscore.DG>
-19.1745

> <Gold.Chemscore.ZeroCoef>
-5.4800

> <Gold.Chemscore.Hbond>
1.9426

> <Gold.Chemscore.Metal>
0.0000

> <Gold.Chemscore.Lipo>
88.0690

> <Gold.Chemscore.Internal_Hbond>
0.0000

> <Gold.Chemscore.DEClash>
0.2351

> <Gold.Chemscore.DEInternal>
1.6145

> <Gold.Chemscore.Rot>
1.2101

> <Gold.Chemscore.Internal.Correction>
   9.000000E+99

> <Gold.Chemscore.Hbonds>
donor molecule, donor type, donor heavy atom, donor atom, acceptor molecule, acceptor atom, score
      L1  H    10    29       P1  8028  0.90
      L1  H    13    30       P1  8028  0.97

> <Gold.Chemscore.Hbond.Weighted>
-6.4884

> <Gold.Chemscore.Metal.Weighted>
-0.0000

> <Gold.Chemscore.Lipo.Weighted>
-10.3041

> <Gold.Chemscore.Internal_Hbond.Weighted>
0.0000

> <Gold.Chemscore.DEClash.Weighted>
0.2351

> <Gold.Chemscore.DEInternal.Weighted>
1.6145

> <Gold.Chemscore.Rot.Weighted>
3.0979

> <Gold.Chemscore.Internal.Correction.Weighted>
   9.000000E+99

> <Gold.Protein.RotatedTorsions>
[ 6907 6896 6895 6894 ] final  -52.44 input  -60.11 | X-H torsion
[ 7974 7965 7964 7962 ] final -106.22 input  175.53 | X-H torsion
[ 8008 7997 7996 7995 ] final -118.92 input   59.86 | X-H torsion
[ 10167 10162 10161 10158 ] final  -47.00 input  -65.29 | X-H torsion
[ 10718 10713 10712 10709 ] final   76.97 input   66.30 | X-H torsion
[ 10763 10752 10751 10750 ] final  -18.18 input  -60.55 | X-H torsion
[ 11005 11000 10999 10996 ] final  -72.34 input  -57.11 | X-H torsion

> <Gold.Protein.ActiveResidues>
 VAL166  LYS551  ARG553  GLY616  TRP617  ASP618  TYR619  PRO620  LYS621  CYS622 
 ASP623  PHE694  ASN695  SER759  ASP760  ASP761  ALA762  ILE779  LEU786  VAL792 
 PHE793  MET794  SER795  GLU796  ALA797  LYS798  CYS799  TRP800  GLU811  SER814 

> <Gold.Protein.RotatedAtoms>
  150.8517  134.7844  159.7013 H   0  0  0  0  0  0  0  0  0  0  0  0  # atno 6907 bound_to 6896
  152.4580  134.5245  159.9802 H   0  0  0  0  0  0  0  0  0  0  0  0  # atno 6908 bound_to 6896
  151.5364  133.3402  159.2963 H   0  0  0  0  0  0  0  0  0  0  0  0  # atno 6909 bound_to 6896
  145.2206  140.9133  143.3261 H   0  0  0  0  0  0  0  0  0  0  0  0  # atno 7974 bound_to 7965
  155.1075  140.0397  157.2714 H   0  0  0  0  0  0  0  0  0  0  0  0  # atno 8008 bound_to 7997
  154.6711  140.2612  155.6981 H   0  0  0  0  0  0  0  0  0  0  0  0  # atno 8009 bound_to 7997
  156.2658  140.2797  156.1220 H   0  0  0  0  0  0  0  0  0  0  0  0  # atno 8010 bound_to 7997
  140.6793  143.2804  151.3864 H   0  0  0  0  0  0  0  0  0  0  0  0  # atno 10167 bound_to 10162
  157.6693  130.9800  150.1574 H   0  0  0  0  0  0  0  0  0  0  0  0  # atno 10718 bound_to 10713
  153.5853  135.7004  153.5446 H   0  0  0  0  0  0  0  0  0  0  0  0  # atno 10763 bound_to 10752
  153.3225  135.4070  155.1428 H   0  0  0  0  0  0  0  0  0  0  0  0  # atno 10764 bound_to 10752
  154.8610  135.3699  154.5383 H   0  0  0  0  0  0  0  0  0  0  0  0  # atno 10765 bound_to 10752
  141.1607  133.6844  156.7044 H   0  0  0  0  0  0  0  0  0  0  0  0  # atno 11005 bound_to 11000
  144.9769  139.3823  143.6281 LP  0  0  0  0  0  0  0  0  0  0  0  0  # atno 17320 bound_to 7965
  146.3377  139.8892  142.8812 LP  0  0  0  0  0  0  0  0  0  0  0  0  # atno 17321 bound_to 7965
  139.6106  144.1107  152.2294 LP  0  0  0  0  0  0  0  0  0  0  0  0  # atno 17342 bound_to 10162
  140.0520  144.5925  150.7329 LP  0  0  0  0  0  0  0  0  0  0  0  0  # atno 17343 bound_to 10162
  156.2359  130.3686  149.8392 LP  0  0  0  0  0  0  0  0  0  0  0  0  # atno 17370 bound_to 10713
  156.6206  130.8624  151.3474 LP  0  0  0  0  0  0  0  0  0  0  0  0  # atno 17371 bound_to 10713
  140.2935  134.8222  157.4037 LP  0  0  0  0  0  0  0  0  0  0  0  0  # atno 17394 bound_to 11000
  140.1326  134.5076  155.8094 LP  0  0  0  0  0  0  0  0  0  0  0  0  # atno 17395 bound_to 11000

$$$$
