AV-unprocessed.smi:853|AV-procd|sdf|3953|dock7
  -GOLD-   22720 1423D 1   1.00000     0.00000
 Structure written by MMmdl.
 49 51  0  0  0  0  0  0  0  0  1 V2000
  145.0802  131.4235  150.5980 C   0  0  0  0  0  0  0  0  0  0  0  0
  144.4954  132.8111  150.3247 C   0  0  0  0  0  0  0  0  0  0  0  0
  144.2196  133.1031  149.1609 O   0  0  0  0  0  0  0  0  0  0  0  0
  144.2995  133.6633  151.3596 N   0  0  0  0  0  0  0  0  0  0  0  0
  144.6887  133.3412  152.7374 C   0  0  0  0  0  0  0  0  0  0  0  0
  145.8964  134.2113  153.1290 C   0  0  0  0  0  0  0  0  0  0  0  0
  145.5904  135.7137  152.9480 C   0  0  0  0  0  0  0  0  0  0  0  0
  146.8108  136.4889  153.1500 N   0  0  0  0  0  0  0  0  0  0  0  0
  147.0148  137.3688  154.1405 C   0  0  0  0  0  0  0  0  0  0  0  0
  146.1722  137.6326  154.9979 O   0  0  0  0  0  0  0  0  0  0  0  0
  148.2368  137.9213  154.0507 N   0  0  0  0  0  0  0  0  0  0  0  0
  148.8565  138.8638  154.9156 C   0  0  0  0  0  0  0  0  0  0  0  0
  148.4758  139.0944  156.2583 C   0  0  0  0  0  0  0  0  0  0  0  0
  149.1887  140.0427  157.0165 C   0  0  0  0  0  0  0  0  0  0  0  0
  150.2722  140.7309  156.4208 C   0  0  0  0  0  0  0  0  0  0  0  0
  151.0115  141.6862  157.1465 N   0  0  0  0  0  0  0  0  0  0  0  0
  150.8385  141.8566  158.5811 C   0  0  0  0  0  0  0  0  0  0  0  0
  151.6885  143.0768  158.9307 C   0  0  0  0  0  0  0  0  0  0  0  0
  151.5888  143.9387  157.6725 C   0  0  0  0  0  0  0  0  0  0  0  0
  151.4749  142.9226  156.5302 C   0  0  0  0  0  0  0  0  0  0  0  0
  150.6357  140.5072  155.1355 N   0  0  0  0  0  0  0  0  0  0  0  0
  149.9494  139.5977  154.4130 C   0  0  0  0  0  0  0  0  0  0  0  0
  144.9851  136.0025  151.5547 C   0  0  0  0  0  0  0  0  0  0  0  0
  143.8203  135.0461  151.2431 C   0  0  0  0  0  0  0  0  0  0  0  0
  144.4480  130.8656  151.2894 H   0  0  0  0  0  0  0  0  0  0  0  0
  146.0831  131.5034  151.0184 H   0  0  0  0  0  0  0  0  0  0  0  0
  145.1513  130.8477  149.6747 H   0  0  0  0  0  0  0  0  0  0  0  0
  143.8500  133.5396  153.4066 H   0  0  0  0  0  0  0  0  0  0  0  0
  144.9321  132.2865  152.8728 H   0  0  0  0  0  0  0  0  0  0  0  0
  146.1807  134.0090  154.1623 H   0  0  0  0  0  0  0  0  0  0  0  0
  146.7516  133.9300  152.5122 H   0  0  0  0  0  0  0  0  0  0  0  0
  144.8574  135.9947  153.7068 H   0  0  0  0  0  0  0  0  0  0  0  0
  147.5569  136.3404  152.4864 H   0  0  0  0  0  0  0  0  0  0  0  0
  148.7818  137.6576  153.2428 H   0  0  0  0  0  0  0  0  0  0  0  0
  147.6654  138.5603  156.7285 H   0  0  0  0  0  0  0  0  0  0  0  0
  148.8945  140.2280  158.0387 H   0  0  0  0  0  0  0  0  0  0  0  0
  149.7867  142.0449  158.8016 H   0  0  0  0  0  0  0  0  0  0  0  0
  151.1555  140.9719  159.1343 H   0  0  0  0  0  0  0  0  0  0  0  0
  151.3455  143.5903  159.8292 H   0  0  0  0  0  0  0  0  0  0  0  0
  152.7243  142.7730  159.0882 H   0  0  0  0  0  0  0  0  0  0  0  0
  150.6801  144.5409  157.7168 H   0  0  0  0  0  0  0  0  0  0  0  0
  152.4340  144.6170  157.5524 H   0  0  0  0  0  0  0  0  0  0  0  0
  152.4484  142.7438  156.0730 H   0  0  0  0  0  0  0  0  0  0  0  0
  150.7931  143.2816  155.7584 H   0  0  0  0  0  0  0  0  0  0  0  0
  150.2863  139.4532  153.3968 H   0  0  0  0  0  0  0  0  0  0  0  0
  144.6396  137.0356  151.5009 H   0  0  0  0  0  0  0  0  0  0  0  0
  145.7525  135.8928  150.7869 H   0  0  0  0  0  0  0  0  0  0  0  0
  143.3983  135.2823  150.2675 H   0  0  0  0  0  0  0  0  0  0  0  0
  143.0093  135.2046  151.9554 H   0  0  0  0  0  0  0  0  0  0  0  0
  1  2  1  0  0  0  0
  1 25  1  0  0  0  0
  1 26  1  0  0  0  0
  1 27  1  0  0  0  0
  2  3  2  0  0  0  0
  2  4  1  0  0  0  0
  4 24  1  0  0  0  0
  4  5  1  0  0  0  0
  5  6  1  0  0  0  0
  5 28  1  0  0  0  0
  5 29  1  0  0  0  0
  6  7  1  0  0  0  0
  6 30  1  0  0  0  0
  6 31  1  0  0  0  0
  7  8  1  0  0  0  0
  7 23  1  0  0  0  0
  7 32  1  0  0  0  0
  8  9  1  0  0  0  0
  8 33  1  0  0  0  0
  9 10  2  0  0  0  0
  9 11  1  0  0  0  0
 11 12  1  0  0  0  0
 11 34  1  0  0  0  0
 12 22  1  0  0  0  0
 12 13  2  0  0  0  0
 13 14  1  0  0  0  0
 13 35  1  0  0  0  0
 14 15  2  0  0  0  0
 14 36  1  0  0  0  0
 15 16  1  0  0  0  0
 15 21  1  0  0  0  0
 16 20  1  0  0  0  0
 16 17  1  0  0  0  0
 17 18  1  0  0  0  0
 17 37  1  0  0  0  0
 17 38  1  0  0  0  0
 18 19  1  0  0  0  0
 18 39  1  0  0  0  0
 18 40  1  0  0  0  0
 19 20  1  0  0  0  0
 19 41  1  0  0  0  0
 19 42  1  0  0  0  0
 20 43  1  0  0  0  0
 20 44  1  0  0  0  0
 21 22  2  0  0  0  0
 22 45  1  0  0  0  0
 23 24  1  0  0  0  0
 23 46  1  0  0  0  0
 23 47  1  0  0  0  0
 24 48  1  0  0  0  0
 24 49  1  0  0  0  0
M  END
> <s_m_source_file>
AV-unprocessed.smi

> <i_m_source_file_index>
853

> <i_lp_mmshare_version>
43012

> <i_f3d_flags>
0

> <s_epik_input>
W0NIM11DKD1PKU4xW0NIMl1bQ0gyXVtDSF0oW0NIMl1bQ0gyXTEpW05IXUMoPU8pW05IXWMyW2NIXVtjSF1jKG5bY0hdMilOM1tDSDJdW0NIMl1bQ0gyXVtDSDJdMw==

> <s_epik_cmdline>
J2VwaWtfcHl0aG9uJywgJy1waCcsICc3LjAnLCAnLXRuJywgJzgnLCAnLW1hJywgJzIwMCcsICctbWV0YWxfYmluZGluZycsICctaW1hZScsICc8aW5maWxlLm1hZT4nLCAnLW9tYWUnLCAnPG91dGZpbGUubWFlPic=

> <r_lp_tautomer_probability>
1

> <r_epik_Ionization_Penalty>
0.102256

> <r_epik_Ionization_Penalty_Charging>
0

> <r_epik_Ionization_Penalty_Neutral>
0.102256

> <r_epik_State_Penalty>
0.0916633

> <r_epik_Charging_Adjusted_Penalty>
0.0916633

> <i_epik_Tot_Q>
0

> <i_epik_Tot_abs_Q>
0

> <r_epik_Metal_State_Penalty>
0.078099

> <b_epik_Metal_Only>
0

> <s_lp_Force_Field>
OPLS_2005

> <r_lp_Energy>
47.0227

> <b_lp_Chiralities_Consistent>
1

> <s_lp_Variant>
AV-unprocessed.smi:853-1

> <Gold.Version>
5.8.1

> <Gold.Id.Protein>
6NUR|6NUR_protein|mol2

> <Gold.PLP.Fitness>
42.6787

> <Gold.PLP.PLP>
-33.7286

> <Gold.PLP.part.hbond>
-2.9256

> <Gold.PLP.part.metal>
0.0000

> <Gold.PLP.part.buried>
-5.7081

> <Gold.PLP.part.nonpolar>
-27.3478

> <Gold.PLP.part.repulsive>
1.6519

> <Gold.PLP.ligand.clash>
0.0000

> <Gold.PLP.ligand.torsion>
0.4243

> <Gold.PLP.Chemscore.Hbond>
2.1952

> <Gold.PLP.Chemscore.CHOScore>
1.0000

> <Gold.PLP.Chemscore.Metal>
0.0000

> <Gold.Chemscore.Hbonds>
donor molecule, donor type, donor heavy atom, donor atom, acceptor molecule, acceptor atom, score
      L1  H     8    33       P1  7948  0.99
      L1  H    11    34       P1  7948  0.86
      P1  H  7989  7998       L1    21  0.35
      L1  C    22    45       P1  7957  1.00

> <Gold.PLP.Chemscore.Internal.Correction>
0.2131

> <Gold.Rescore>
     Score         DG    S(hbond)    S(metal)    S(lipo)     H(rot)  DE(clash)    DE(int)     intcor
     16.33     -19.20       1.86        0.00      85.97       1.00       1.44       1.42       ----

> <Gold.Chemscore.Fitness>
16.3324

> <Gold.Chemscore.DG>
-19.1967

> <Gold.Chemscore.ZeroCoef>
-5.4800

> <Gold.Chemscore.Hbond>
1.8617

> <Gold.Chemscore.Metal>
0.0000

> <Gold.Chemscore.Lipo>
85.9726

> <Gold.Chemscore.Internal_Hbond>
0.0000

> <Gold.Chemscore.DEClash>
1.4430

> <Gold.Chemscore.DEInternal>
1.4214

> <Gold.Chemscore.Rot>
1.0000

> <Gold.Chemscore.Internal.Correction>
   9.000000E+99

> <Gold.Chemscore.Hbonds>
donor molecule, donor type, donor heavy atom, donor atom, acceptor molecule, acceptor atom, score
      L1  H     8    33       P1  7948  0.92
      L1  H    11    34       P1  7948  0.83
      P1  H  7989  7998       L1    21  0.01

> <Gold.Chemscore.Hbond.Weighted>
-6.2179

> <Gold.Chemscore.Metal.Weighted>
-0.0000

> <Gold.Chemscore.Lipo.Weighted>
-10.0588

> <Gold.Chemscore.Internal_Hbond.Weighted>
0.0000

> <Gold.Chemscore.DEClash.Weighted>
1.4430

> <Gold.Chemscore.DEInternal.Weighted>
1.4214

> <Gold.Chemscore.Rot.Weighted>
2.5600

> <Gold.Chemscore.Internal.Correction.Weighted>
   9.000000E+99

> <Gold.Protein.RotatedTorsions>
[ 6907 6896 6895 6894 ] final  -97.60 input  -60.11 | X-H torsion
[ 7974 7965 7964 7962 ] final -153.49 input  175.53 | X-H torsion
[ 8008 7997 7996 7995 ] final  -73.99 input   59.86 | X-H torsion
[ 10167 10162 10161 10158 ] final   85.03 input  -65.29 | X-H torsion
[ 10718 10713 10712 10709 ] final   16.09 input   66.30 | X-H torsion
[ 10763 10752 10751 10750 ] final   85.54 input  -60.55 | X-H torsion
[ 11005 11000 10999 10996 ] final  -25.00 input  -57.11 | X-H torsion

> <Gold.Protein.ActiveResidues>
 VAL166  LYS551  ARG553  GLY616  TRP617  ASP618  TYR619  PRO620  LYS621  CYS622 
 ASP623  PHE694  ASN695  SER759  ASP760  ASP761  ALA762  ILE779  LEU786  VAL792 
 PHE793  MET794  SER795  GLU796  ALA797  LYS798  CYS799  TRP800  GLU811  SER814 

> <Gold.Protein.RotatedAtoms>
  150.7021  134.1324  159.4074 H   0  0  0  0  0  0  0  0  0  0  0  0  # atno 6907 bound_to 6896
  151.9309  135.0254  160.0538 H   0  0  0  0  0  0  0  0  0  0  0  0  # atno 6908 bound_to 6896
  152.2176  133.4923  159.5181 H   0  0  0  0  0  0  0  0  0  0  0  0  # atno 6909 bound_to 6896
  144.7738  140.4518  143.5888 H   0  0  0  0  0  0  0  0  0  0  0  0  # atno 7974 bound_to 7965
  154.5293  140.0769  156.8316 H   0  0  0  0  0  0  0  0  0  0  0  0  # atno 8008 bound_to 7997
  155.3408  140.3407  155.4221 H   0  0  0  0  0  0  0  0  0  0  0  0  # atno 8009 bound_to 7997
  156.1765  140.1637  156.8340 H   0  0  0  0  0  0  0  0  0  0  0  0  # atno 8010 bound_to 7997
  139.9020  144.6324  150.8627 H   0  0  0  0  0  0  0  0  0  0  0  0  # atno 10167 bound_to 10162
  157.0629  130.6316  149.5789 H   0  0  0  0  0  0  0  0  0  0  0  0  # atno 10718 bound_to 10713
  153.1485  135.4613  154.9602 H   0  0  0  0  0  0  0  0  0  0  0  0  # atno 10763 bound_to 10752
  154.7806  135.3187  154.8001 H   0  0  0  0  0  0  0  0  0  0  0  0  # atno 10764 bound_to 10752
  153.8511  135.6921  153.4846 H   0  0  0  0  0  0  0  0  0  0  0  0  # atno 10765 bound_to 10752
  140.8898  133.7596  156.0406 H   0  0  0  0  0  0  0  0  0  0  0  0  # atno 11005 bound_to 11000
  145.6246  139.1528  143.3003 LP  0  0  0  0  0  0  0  0  0  0  0  0  # atno 17320 bound_to 7965
  146.1903  140.6354  142.9148 LP  0  0  0  0  0  0  0  0  0  0  0  0  # atno 17321 bound_to 7965
  140.7705  143.3430  151.2169 LP  0  0  0  0  0  0  0  0  0  0  0  0  # atno 17342 bound_to 10162
  139.7017  143.9522  152.2908 LP  0  0  0  0  0  0  0  0  0  0  0  0  # atno 17343 bound_to 10162
  155.9973  130.5044  150.7529 LP  0  0  0  0  0  0  0  0  0  0  0  0  # atno 17370 bound_to 10713
  157.4940  131.0913  151.0393 LP  0  0  0  0  0  0  0  0  0  0  0  0  # atno 17371 bound_to 10713
  140.8361  134.3121  157.5331 LP  0  0  0  0  0  0  0  0  0  0  0  0  # atno 17394 bound_to 11000
  139.8728  134.9390  156.3730 LP  0  0  0  0  0  0  0  0  0  0  0  0  # atno 17395 bound_to 11000

$$$$
