AV-unprocessed.smi:2132|AV-procd|sdf|8691|dock3
  -GOLD-   2272011443D 1   1.00000     0.00000
 Structure written by MMmdl.
 38 39  0  0  0  0  0  0  0  0  1 V2000
  155.2485  135.7517  161.2473 C   0  0  0  0  0  0  0  0  0  0  0  0
  153.9504  135.8632  160.6915 O   0  0  0  0  0  0  0  0  0  0  0  0
  153.4883  137.2036  160.6539 C   0  0  0  0  0  0  0  0  0  0  0  0
  154.3234  137.9970  159.6396 C   0  0  0  0  0  0  0  0  0  0  0  0
  153.8271  139.3593  159.4902 N   0  0  0  0  0  0  0  0  0  0  0  0
  152.6404  139.6997  158.9623 C   0  0  0  0  0  0  0  0  0  0  0  0
  151.8363  138.8800  158.5184 O   0  0  0  0  0  0  0  0  0  0  0  0
  152.3610  141.1773  158.8617 C   0  0  0  0  0  0  0  0  0  0  0  0
  152.9085  142.0322  159.8449 C   0  0  0  0  0  0  0  0  0  0  0  0
  152.6571  143.4140  159.7849 C   0  0  0  0  0  0  0  0  0  0  0  0
  151.8659  143.8997  158.7305 C   0  0  0  0  0  0  0  0  0  0  0  0
  151.3504  143.1056  157.7711 N   0  0  0  0  0  0  0  0  0  0  0  0
  151.5914  141.7716  157.8151 C   0  0  0  0  0  0  0  0  0  0  0  0
  151.0757  141.0103  156.7470 N   0  0  0  0  0  0  0  0  0  0  0  0
  152.0733  140.2002  156.0593 C   0  0  0  0  0  0  0  0  0  0  0  0
  151.3758  139.1967  155.1250 C   0  0  0  0  0  0  0  0  0  0  0  0
  150.5152  139.8931  154.2272 O   0  0  0  0  0  0  0  0  0  0  0  0
  149.4993  140.6213  154.9120 C   0  0  0  0  0  0  0  0  0  0  0  0
  150.1480  141.6681  155.8335 C   0  0  0  0  0  0  0  0  0  0  0  0
  155.5573  134.7065  161.2492 H   0  0  0  0  0  0  0  0  0  0  0  0
  155.2682  136.1098  162.2774 H   0  0  0  0  0  0  0  0  0  0  0  0
  155.9772  136.3173  160.6655 H   0  0  0  0  0  0  0  0  0  0  0  0
  152.4301  137.2373  160.3889 H   0  0  0  0  0  0  0  0  0  0  0  0
  153.5904  137.6532  161.6427 H   0  0  0  0  0  0  0  0  0  0  0  0
  155.3706  138.0126  159.9454 H   0  0  0  0  0  0  0  0  0  0  0  0
  154.2939  137.5072  158.6661 H   0  0  0  0  0  0  0  0  0  0  0  0
  154.4346  140.1018  159.8055 H   0  0  0  0  0  0  0  0  0  0  0  0
  153.5088  141.6349  160.6508 H   0  0  0  0  0  0  0  0  0  0  0  0
  153.0587  144.0840  160.5305 H   0  0  0  0  0  0  0  0  0  0  0  0
  151.6468  144.9540  158.6504 H   0  0  0  0  0  0  0  0  0  0  0  0
  152.7291  140.8547  155.4839 H   0  0  0  0  0  0  0  0  0  0  0  0
  152.7010  139.6680  156.7743 H   0  0  0  0  0  0  0  0  0  0  0  0
  152.1164  138.6414  154.5495 H   0  0  0  0  0  0  0  0  0  0  0  0
  150.8041  138.4659  155.6993 H   0  0  0  0  0  0  0  0  0  0  0  0
  148.8567  141.1106  154.1802 H   0  0  0  0  0  0  0  0  0  0  0  0
  148.8699  139.9370  155.4838 H   0  0  0  0  0  0  0  0  0  0  0  0
  149.3806  142.1970  156.3999 H   0  0  0  0  0  0  0  0  0  0  0  0
  150.6812  142.4075  155.2344 H   0  0  0  0  0  0  0  0  0  0  0  0
  1  2  1  0  0  0  0
  1 20  1  0  0  0  0
  1 21  1  0  0  0  0
  1 22  1  0  0  0  0
  2  3  1  0  0  0  0
  3  4  1  0  0  0  0
  3 23  1  0  0  0  0
  3 24  1  0  0  0  0
  4  5  1  0  0  0  0
  4 25  1  0  0  0  0
  4 26  1  0  0  0  0
  5  6  1  0  0  0  0
  5 27  1  0  0  0  0
  6  7  2  0  0  0  0
  6  8  1  0  0  0  0
  8 13  1  0  0  0  0
  8  9  2  0  0  0  0
  9 10  1  0  0  0  0
  9 28  1  0  0  0  0
 10 11  2  0  0  0  0
 10 29  1  0  0  0  0
 11 12  1  0  0  0  0
 11 30  1  0  0  0  0
 12 13  2  0  0  0  0
 13 14  1  0  0  0  0
 14 19  1  0  0  0  0
 14 15  1  0  0  0  0
 15 16  1  0  0  0  0
 15 31  1  0  0  0  0
 15 32  1  0  0  0  0
 16 17  1  0  0  0  0
 16 33  1  0  0  0  0
 16 34  1  0  0  0  0
 17 18  1  0  0  0  0
 18 19  1  0  0  0  0
 18 35  1  0  0  0  0
 18 36  1  0  0  0  0
 19 37  1  0  0  0  0
 19 38  1  0  0  0  0
M  END
> <s_m_source_file>
AV-unprocessed.smi

> <i_m_source_file_index>
2132

> <i_lp_mmshare_version>
43012

> <i_f3d_flags>
0

> <s_epik_input>
W0NIM11PW0NIMl1bQ0gyXVtOSF1DKD1PKWMxW2NIXVtjSF1bY0hdbmMxTjJbQ0gyXVtDSDJdT1tDSDJdW0NIMl0y

> <s_epik_cmdline>
J2VwaWtfcHl0aG9uJywgJy1waCcsICc3LjAnLCAnLXRuJywgJzgnLCAnLW1hJywgJzIwMCcsICctbWV0YWxfYmluZGluZycsICctaW1hZScsICc8aW5maWxlLm1hZT4nLCAnLW9tYWUnLCAnPG91dGZpbGUubWFlPic=

> <r_lp_tautomer_probability>
1

> <r_epik_Ionization_Penalty>
1.38099e-05

> <r_epik_Ionization_Penalty_Charging>
0

> <r_epik_Ionization_Penalty_Neutral>
1.38099e-05

> <r_epik_State_Penalty>
-0

> <r_epik_Charging_Adjusted_Penalty>
0

> <i_epik_Tot_Q>
0

> <i_epik_Tot_abs_Q>
0

> <r_epik_Metal_State_Penalty>
-0

> <b_epik_Metal_Only>
0

> <s_lp_Force_Field>
OPLS_2005

> <r_lp_Energy>
24.8445

> <b_lp_Chiralities_Consistent>
1

> <s_lp_Variant>
AV-unprocessed.smi:2132-1

> <Gold.Version>
5.8.1

> <Gold.Id.Protein>
6NUR|6NUR_protein|mol2

> <Gold.PLP.Fitness>
39.8966

> <Gold.PLP.PLP>
-34.7749

> <Gold.PLP.part.hbond>
-2.0000

> <Gold.PLP.part.metal>
0.0000

> <Gold.PLP.part.buried>
-5.2013

> <Gold.PLP.part.nonpolar>
-28.3444

> <Gold.PLP.part.repulsive>
0.3430

> <Gold.PLP.ligand.clash>
0.0028

> <Gold.PLP.ligand.torsion>
0.5618

> <Gold.PLP.Chemscore.Hbond>
1.9913

> <Gold.PLP.Chemscore.CHOScore>
0.0000

> <Gold.PLP.Chemscore.Metal>
0.0000

> <Gold.Chemscore.Hbonds>
donor molecule, donor type, donor heavy atom, donor atom, acceptor molecule, acceptor atom, score
      P1  H  6896  6909       L1     2  0.98
      P1  H  7989  7998       L1    17  1.00

> <Gold.PLP.Chemscore.Internal.Correction>
0.2745

> <Gold.Rescore>
     Score         DG    S(hbond)    S(metal)    S(lipo)     H(rot)  DE(clash)    DE(int)     intcor
     14.11     -16.77       1.54        0.00      88.07       1.62       0.44       2.22       ----

> <Gold.Chemscore.Fitness>
14.1120

> <Gold.Chemscore.DG>
-16.7716

> <Gold.Chemscore.ZeroCoef>
-5.4800

> <Gold.Chemscore.Hbond>
1.5381

> <Gold.Chemscore.Metal>
0.0000

> <Gold.Chemscore.Lipo>
88.0685

> <Gold.Chemscore.Internal_Hbond>
0.0000

> <Gold.Chemscore.DEClash>
0.4369

> <Gold.Chemscore.DEInternal>
2.2227

> <Gold.Chemscore.Rot>
1.6209

> <Gold.Chemscore.Internal.Correction>
   9.000000E+99

> <Gold.Chemscore.Hbonds>
donor molecule, donor type, donor heavy atom, donor atom, acceptor molecule, acceptor atom, score
      P1  H  6896  6909       L1     2  0.28
      P1  H  7989  7998       L1    17  0.22

> <Gold.Chemscore.Hbond.Weighted>
-5.1372

> <Gold.Chemscore.Metal.Weighted>
-0.0000

> <Gold.Chemscore.Lipo.Weighted>
-10.3040

> <Gold.Chemscore.Internal_Hbond.Weighted>
0.0000

> <Gold.Chemscore.DEClash.Weighted>
0.4369

> <Gold.Chemscore.DEInternal.Weighted>
2.2227

> <Gold.Chemscore.Rot.Weighted>
4.1496

> <Gold.Chemscore.Internal.Correction.Weighted>
   9.000000E+99

> <Gold.Protein.RotatedTorsions>
[ 6907 6896 6895 6894 ] final  163.38 input  -60.11 | X-H torsion
[ 7974 7965 7964 7962 ] final -117.39 input  175.53 | X-H torsion
[ 8008 7997 7996 7995 ] final  145.41 input   59.86 | X-H torsion
[ 10167 10162 10161 10158 ] final   40.34 input  -65.29 | X-H torsion
[ 10718 10713 10712 10709 ] final   87.71 input   66.30 | X-H torsion
[ 10763 10752 10751 10750 ] final  -61.48 input  -60.55 | X-H torsion
[ 11005 11000 10999 10996 ] final  141.64 input  -57.11 | X-H torsion

> <Gold.Protein.ActiveResidues>
 VAL166  LYS551  ARG553  GLY616  TRP617  ASP618  TYR619  PRO620  LYS621  CYS622 
 ASP623  PHE694  ASN695  SER759  ASP760  ASP761  ALA762  ILE779  LEU786  VAL792 
 PHE793  MET794  SER795  GLU796  ALA797  LYS798  CYS799  TRP800  GLU811  SER814 

> <Gold.Protein.RotatedAtoms>
  151.9261  133.3598  159.3913 H   0  0  0  0  0  0  0  0  0  0  0  0  # atno 6907 bound_to 6896
  150.7027  134.4586  159.5379 H   0  0  0  0  0  0  0  0  0  0  0  0  # atno 6908 bound_to 6896
  152.2218  134.8406  160.0536 H   0  0  0  0  0  0  0  0  0  0  0  0  # atno 6909 bound_to 6896
  145.0858  140.8457  143.4012 H   0  0  0  0  0  0  0  0  0  0  0  0  # atno 7974 bound_to 7965
  156.2884  140.2210  156.5211 H   0  0  0  0  0  0  0  0  0  0  0  0  # atno 8008 bound_to 7997
  154.7528  140.0479  157.0930 H   0  0  0  0  0  0  0  0  0  0  0  0  # atno 8009 bound_to 7997
  155.0088  140.3110  155.4841 H   0  0  0  0  0  0  0  0  0  0  0  0  # atno 8010 bound_to 7997
  140.3751  144.2053  150.6132 H   0  0  0  0  0  0  0  0  0  0  0  0  # atno 10167 bound_to 10162
  157.6943  131.0266  150.3164 H   0  0  0  0  0  0  0  0  0  0  0  0  # atno 10718 bound_to 10713
  154.2853  135.6264  153.5363 H   0  0  0  0  0  0  0  0  0  0  0  0  # atno 10763 bound_to 10752
  152.9860  135.5643  154.5450 H   0  0  0  0  0  0  0  0  0  0  0  0  # atno 10764 bound_to 10752
  154.5049  135.2874  155.1366 H   0  0  0  0  0  0  0  0  0  0  0  0  # atno 10765 bound_to 10752
  140.0417  134.9301  157.0855 H   0  0  0  0  0  0  0  0  0  0  0  0  # atno 11005 bound_to 11000
  145.1124  139.2748  143.5630 LP  0  0  0  0  0  0  0  0  0  0  0  0  # atno 17320 bound_to 7965
  146.3531  140.0724  142.8622 LP  0  0  0  0  0  0  0  0  0  0  0  0  # atno 17321 bound_to 7965
  140.4994  143.2322  151.8701 LP  0  0  0  0  0  0  0  0  0  0  0  0  # atno 17342 bound_to 10162
  139.4800  144.5077  151.8975 LP  0  0  0  0  0  0  0  0  0  0  0  0  # atno 17343 bound_to 10162
  156.3658  130.3855  149.7215 LP  0  0  0  0  0  0  0  0  0  0  0  0  # atno 17370 bound_to 10713
  156.4646  130.7968  151.2987 LP  0  0  0  0  0  0  0  0  0  0  0  0  # atno 17371 bound_to 10713
  140.4059  134.2033  155.7163 LP  0  0  0  0  0  0  0  0  0  0  0  0  # atno 17394 bound_to 11000
  141.1886  133.8256  157.0988 LP  0  0  0  0  0  0  0  0  0  0  0  0  # atno 17395 bound_to 11000

$$$$
