AV-unprocessed.smi:21|AV-procd|sdf|121|dock9
  -GOLD-   2262015293D 1   1.00000     0.00000
 Structure written by MMmdl.
 62 65  0  0  0  0  0  0  0  0  2 V2000
  150.8128  145.5014  160.0609 C   0  0  0  0  0  0  0  0  0  0  0  0
  151.6825  144.3852  160.1574 O   0  0  0  0  0  0  0  0  0  0  0  0
  151.1041  143.1749  159.6925 C   0  0  1  0  0  0  0  0  0  0  0  0
  150.7846  143.2742  158.2074 C   0  0  0  0  0  0  0  0  0  0  0  0
  150.7277  141.8083  157.7691 C   0  0  1  0  0  0  0  0  0  0  0  0
  150.9828  141.6096  156.2600 C   0  0  0  0  0  0  0  0  0  0  0  0
  150.1114  140.6104  155.6454 N   0  0  0  0  0  0  0  0  0  0  0  0
  149.3024  141.0812  154.5303 C   0  0  0  0  0  0  0  0  0  0  0  0
  150.7138  139.4338  155.3664 C   0  0  0  0  0  0  0  0  0  0  0  0
  151.9928  139.4818  154.9205 N   0  0  0  0  0  0  0  0  0  0  0  0
  152.6366  138.3499  154.6184 C   0  0  0  0  0  0  0  0  0  0  0  0
  152.1934  137.0925  154.6900 N   0  0  0  0  0  0  0  0  0  0  0  0
  150.9069  137.0439  155.1404 C   0  0  0  0  0  0  0  0  0  0  0  0
  150.0976  138.1579  155.4983 C   0  0  0  0  0  0  0  0  0  0  0  0
  148.8434  137.7225  155.9094 N   0  0  0  0  0  0  0  0  0  0  0  0
  148.9112  136.4226  155.8116 C   0  0  0  0  0  0  0  0  0  0  0  0
  150.1154  135.9305  155.3614 N   0  0  0  0  0  0  0  0  0  0  0  0
  150.4571  134.5323  155.1628 C   0  0  0  0  0  0  0  0  0  0  0  0
  149.2891  133.5646  155.4816 C   0  0  2  0  0  0  0  0  0  0  0  0
  149.4114  133.0004  156.9211 C   0  0  0  0  0  0  0  0  0  0  0  0
  149.1174  133.9759  157.8984 O   0  0  0  0  0  0  0  0  0  0  0  0
  149.2102  132.4373  154.4144 C   0  0  2  0  0  0  0  0  0  0  0  0
  147.8207  131.8611  154.1922 C   0  0  0  0  0  0  0  0  0  0  0  0
  148.1161  130.5395  153.4917 C   0  0  0  0  0  0  0  0  0  0  0  0
  149.3775  130.1118  153.9895 O   0  0  0  0  0  0  0  0  0  0  0  0
  149.9773  131.1535  154.7520 C   0  0  0  0  0  0  0  0  0  0  0  0
  151.7554  141.1218  158.5863 N   0  3  2  0  0  0  0  0  0  0  0  0
  151.4128  139.7263  158.9383 C   0  0  0  0  0  0  0  0  0  0  0  0
  152.0625  141.9781  159.7567 C   0  0  0  0  0  0  0  0  0  0  0  0
  150.1836  142.9496  160.2347 H   0  0  0  0  0  0  0  0  0  0  0  0
  149.7522  141.4070  158.0514 H   0  0  0  0  0  0  0  0  0  0  0  0
  151.3270  146.3953  160.4141 H   0  0  0  0  0  0  0  0  0  0  0  0
  149.9197  145.3680  160.6720 H   0  0  0  0  0  0  0  0  0  0  0  0
  150.5083  145.6763  159.0282 H   0  0  0  0  0  0  0  0  0  0  0  0
  149.8576  143.8136  158.0107 H   0  0  0  0  0  0  0  0  0  0  0  0
  151.5920  143.7932  157.6881 H   0  0  0  0  0  0  0  0  0  0  0  0
  150.8424  142.5585  155.7408 H   0  0  0  0  0  0  0  0  0  0  0  0
  152.0226  141.3274  156.0926 H   0  0  0  0  0  0  0  0  0  0  0  0
  148.6921  140.2758  154.1190 H   0  0  0  0  0  0  0  0  0  0  0  0
  149.9292  141.4806  153.7321 H   0  0  0  0  0  0  0  0  0  0  0  0
  148.6303  141.8731  154.8615 H   0  0  0  0  0  0  0  0  0  0  0  0
  153.6528  138.4679  154.2718 H   0  0  0  0  0  0  0  0  0  0  0  0
  148.0810  135.7810  156.0700 H   0  0  0  0  0  0  0  0  0  0  0  0
  150.7754  134.4298  154.1258 H   0  0  0  0  0  0  0  0  0  0  0  0
  151.3258  134.2904  155.7763 H   0  0  0  0  0  0  0  0  0  0  0  0
  148.3684  134.1481  155.4280 H   0  0  0  0  0  0  0  0  0  0  0  0
  148.7587  132.1375  157.0557 H   0  0  0  0  0  0  0  0  0  0  0  0
  150.4239  132.6621  157.1350 H   0  0  0  0  0  0  0  0  0  0  0  0
  148.2020  134.2015  157.8317 H   0  0  0  0  0  0  0  0  0  0  0  0
  149.5785  132.8184  153.4601 H   0  0  0  0  0  0  0  0  0  0  0  0
  147.3285  131.6751  155.1480 H   0  0  0  0  0  0  0  0  0  0  0  0
  147.1745  132.5040  153.5939 H   0  0  0  0  0  0  0  0  0  0  0  0
  147.3426  129.7923  153.6693 H   0  0  0  0  0  0  0  0  0  0  0  0
  148.2017  130.6902  152.4150 H   0  0  0  0  0  0  0  0  0  0  0  0
  151.0414  131.2302  154.5282 H   0  0  0  0  0  0  0  0  0  0  0  0
  149.8698  130.9055  155.8088 H   0  0  0  0  0  0  0  0  0  0  0  0
  150.5236  139.6864  159.5689 H   0  0  0  0  0  0  0  0  0  0  0  0
  152.2361  139.2570  159.4776 H   0  0  0  0  0  0  0  0  0  0  0  0
  151.2221  139.1382  158.0400 H   0  0  0  0  0  0  0  0  0  0  0  0
  153.0956  142.3131  159.6569 H   0  0  0  0  0  0  0  0  0  0  0  0
  151.9804  141.4481  160.7068 H   0  0  0  0  0  0  0  0  0  0  0  0
  152.5985  141.0931  158.0306 H   0  0  0  0  0  0  0  0  0  0  0  0
  1  2  1  0  0  0  0
  1 32  1  0  0  0  0
  1 33  1  0  0  0  0
  1 34  1  0  0  0  0
  2  3  1  0  0  0  0
  3 30  1  0  0  0  0
  3 29  1  0  0  0  0
  3  4  1  0  0  0  0
  4  5  1  0  0  0  0
  4 35  1  0  0  0  0
  4 36  1  0  0  0  0
  5 31  1  0  0  0  0
  5  6  1  0  0  0  0
  5 27  1  0  0  0  0
  6  7  1  0  0  0  0
  6 37  1  0  0  0  0
  6 38  1  0  0  0  0
  7  8  1  0  0  0  0
  7  9  1  0  0  0  0
  8 39  1  0  0  0  0
  8 40  1  0  0  0  0
  8 41  1  0  0  0  0
  9 14  1  0  0  0  0
  9 10  2  0  0  0  0
 10 11  1  0  0  0  0
 11 12  2  0  0  0  0
 11 42  1  0  0  0  0
 12 13  1  0  0  0  0
 13 17  1  0  0  0  0
 13 14  2  0  0  0  0
 14 15  1  0  0  0  0
 15 16  2  0  0  0  0
 16 17  1  0  0  0  0
 16 43  1  0  0  0  0
 17 18  1  0  0  0  0
 18 19  1  0  0  0  0
 18 44  1  0  0  0  0
 18 45  1  0  0  0  0
 19 20  1  0  0  0  0
 19 22  1  0  0  0  0
 19 46  1  0  0  0  0
 20 21  1  0  0  0  0
 20 47  1  0  0  0  0
 20 48  1  0  0  0  0
 21 49  1  0  0  0  0
 22 26  1  0  0  0  0
 22 23  1  0  0  0  0
 22 50  1  0  0  0  0
 23 24  1  0  0  0  0
 23 51  1  0  0  0  0
 23 52  1  0  0  0  0
 24 25  1  0  0  0  0
 24 53  1  0  0  0  0
 24 54  1  0  0  0  0
 25 26  1  0  0  0  0
 26 55  1  0  0  0  0
 26 56  1  0  0  0  0
 27 28  1  0  0  0  0
 27 29  1  0  0  0  0
 27 62  1  0  0  0  0
 28 57  1  0  0  0  0
 28 58  1  0  0  0  0
 28 59  1  0  0  0  0
 29 60  1  0  0  0  0
 29 61  1  0  0  0  0
M  CHG  1  27   1
M  END
> <s_m_source_file>
AV-unprocessed.smi

> <i_m_source_file_index>
21

> <i_lp_mmshare_version>
43012

> <i_f3d_flags>
0

> <s_epik_input>
W0NIM11PW0NASF0xW0NIMl1bQ0BIXShOKFtDSDNdKVtDSDJdMSlbQ0gyXU4oW0NIM10pYyhuW2NIXW4yKWMoYzIzKW5bY0hdbjNbQ0gyXVtDQEhdKFtDSDJdW09IXSlbQ0BASF00W0NIMl1bQ0gyXU9bQ0gyXTQ=

> <s_epik_cmdline>
J2VwaWtfcHl0aG9uJywgJy1waCcsICc3LjAnLCAnLXRuJywgJzgnLCAnLW1hJywgJzIwMCcsICctbWV0YWxfYmluZGluZycsICctaW1hZScsICc8aW5maWxlLm1hZT4nLCAnLW9tYWUnLCAnPG91dGZpbGUubWFlPic=

> <r_lp_tautomer_probability>
1

> <r_epik_Ionization_Penalty>
0.0157465

> <r_epik_Ionization_Penalty_Charging>
0.015354

> <r_epik_Ionization_Penalty_Neutral>
0.000392529

> <r_epik_State_Penalty>
0.0120612

> <r_epik_Charging_Adjusted_Penalty>
0.0274152

> <i_epik_Tot_Q>
1

> <i_epik_Tot_abs_Q>
1

> <r_epik_Metal_State_Penalty>
0.0121253

> <b_epik_Metal_Only>
0

> <s_lp_Force_Field>
OPLS_2005

> <r_lp_Energy>
60.2547

> <b_lp_Chiralities_Consistent>
1

> <s_lp_Variant>
AV-unprocessed.smi:21-1

> <Gold.Version>
5.8.1

> <Gold.Id.Protein>
6NUR|6NUR_protein|mol2

> <Gold.PLP.Fitness>
51.6400

> <Gold.PLP.PLP>
-48.8718

> <Gold.PLP.part.hbond>
-3.0000

> <Gold.PLP.part.metal>
0.0000

> <Gold.PLP.part.buried>
-9.9189

> <Gold.PLP.part.nonpolar>
-37.3732

> <Gold.PLP.part.repulsive>
0.5230

> <Gold.PLP.ligand.clash>
0.0000

> <Gold.PLP.ligand.torsion>
3.2722

> <Gold.PLP.Chemscore.Hbond>
2.8400

> <Gold.PLP.Chemscore.CHOScore>
0.0000

> <Gold.PLP.Chemscore.Metal>
0.0000

> <Gold.Chemscore.Hbonds>
donor molecule, donor type, donor heavy atom, donor atom, acceptor molecule, acceptor atom, score
      P1  H  6896  6907       L1    21  0.70
      P1  H  7989  7998       L1    10  0.74
      P1  H 10752 10765       L1    12  0.85

> <Gold.PLP.Chemscore.Internal.Correction>
0.7926

> <Gold.Rescore>
     Score         DG    S(hbond)    S(metal)    S(lipo)     H(rot)  DE(clash)    DE(int)     intcor
     13.94     -17.15       2.59        0.00      99.04       3.35       0.01       3.20       ----

> <Gold.Chemscore.Fitness>
13.9429

> <Gold.Chemscore.DG>
-17.1539

> <Gold.Chemscore.ZeroCoef>
-5.4800

> <Gold.Chemscore.Hbond>
2.5897

> <Gold.Chemscore.Metal>
0.0000

> <Gold.Chemscore.Lipo>
99.0423

> <Gold.Chemscore.Internal_Hbond>
0.0000

> <Gold.Chemscore.DEClash>
0.0130

> <Gold.Chemscore.DEInternal>
3.1980

> <Gold.Chemscore.Rot>
3.3452

> <Gold.Chemscore.Internal.Correction>
   9.000000E+99

> <Gold.Chemscore.Hbonds>
donor molecule, donor type, donor heavy atom, donor atom, acceptor molecule, acceptor atom, score
      P1  H  6896  6907       L1    21  0.32
      P1  H  7989  7998       L1    10  0.10
      P1  H 10752 10765       L1    12  0.81

> <Gold.Chemscore.Hbond.Weighted>
-8.6496

> <Gold.Chemscore.Metal.Weighted>
-0.0000

> <Gold.Chemscore.Lipo.Weighted>
-11.5880

> <Gold.Chemscore.Internal_Hbond.Weighted>
0.0000

> <Gold.Chemscore.DEClash.Weighted>
0.0130

> <Gold.Chemscore.DEInternal.Weighted>
3.1980

> <Gold.Chemscore.Rot.Weighted>
8.5636

> <Gold.Chemscore.Internal.Correction.Weighted>
   9.000000E+99

> <Gold.Protein.RotatedTorsions>
[ 6907 6896 6895 6894 ] final -118.02 input  -60.11 | X-H torsion
[ 7974 7965 7964 7962 ] final   26.83 input  175.53 | X-H torsion
[ 8008 7997 7996 7995 ] final -149.91 input   59.86 | X-H torsion
[ 10167 10162 10161 10158 ] final  -44.13 input  -65.29 | X-H torsion
[ 10718 10713 10712 10709 ] final  -43.78 input   66.30 | X-H torsion
[ 10763 10752 10751 10750 ] final  164.67 input  -60.55 | X-H torsion
[ 11005 11000 10999 10996 ] final -110.87 input  -57.11 | X-H torsion

> <Gold.Protein.ActiveResidues>
 VAL166  LYS551  ARG553  GLY616  TRP617  ASP618  TYR619  PRO620  LYS621  CYS622 
 ASP623  PHE694  ASN695  SER759  ASP760  ASP761  ALA762  ILE779  LEU786  VAL792 
 PHE793  MET794  SER795  GLU796  ALA797  LYS798  CYS799  TRP800  GLU811  SER814 

> <Gold.Protein.RotatedAtoms>
  150.8185  133.8295  159.3149 H   0  0  0  0  0  0  0  0  0  0  0  0  # atno 6907 bound_to 6896
  151.6060  135.1042  160.0080 H   0  0  0  0  0  0  0  0  0  0  0  0  # atno 6908 bound_to 6896
  152.4275  133.7180  159.6573 H   0  0  0  0  0  0  0  0  0  0  0  0  # atno 6909 bound_to 6896
  146.1817  139.7274  142.8896 H   0  0  0  0  0  0  0  0  0  0  0  0  # atno 7974 bound_to 7965
  155.6151  140.0675  157.2695 H   0  0  0  0  0  0  0  0  0  0  0  0  # atno 8008 bound_to 7997
  154.4243  140.1794  156.1361 H   0  0  0  0  0  0  0  0  0  0  0  0  # atno 8009 bound_to 7997
  156.0054  140.3332  155.6890 H   0  0  0  0  0  0  0  0  0  0  0  0  # atno 8010 bound_to 7997
  140.6908  143.2946  151.3451 H   0  0  0  0  0  0  0  0  0  0  0  0  # atno 10167 bound_to 10162
  156.2454  130.4183  149.8711 H   0  0  0  0  0  0  0  0  0  0  0  0  # atno 10718 bound_to 10713
  154.3124  135.2757  155.2559 H   0  0  0  0  0  0  0  0  0  0  0  0  # atno 10763 bound_to 10752
  154.4949  135.5824  153.6490 H   0  0  0  0  0  0  0  0  0  0  0  0  # atno 10764 bound_to 10752
  152.9886  135.6143  154.3302 H   0  0  0  0  0  0  0  0  0  0  0  0  # atno 10765 bound_to 10752
  141.0767  133.9289  157.2375 H   0  0  0  0  0  0  0  0  0  0  0  0  # atno 11005 bound_to 11000
  145.4058  141.0390  143.3045 LP  0  0  0  0  0  0  0  0  0  0  0  0  # atno 17320 bound_to 7965
  144.8326  139.5603  143.6937 LP  0  0  0  0  0  0  0  0  0  0  0  0  # atno 17321 bound_to 7965
  139.6309  144.0722  152.2476 LP  0  0  0  0  0  0  0  0  0  0  0  0  # atno 17342 bound_to 10162
  140.0196  144.6163  150.7577 LP  0  0  0  0  0  0  0  0  0  0  0  0  # atno 17343 bound_to 10162
  156.6278  130.8653  151.3489 LP  0  0  0  0  0  0  0  0  0  0  0  0  # atno 17370 bound_to 10713
  157.7193  130.9537  150.1374 LP  0  0  0  0  0  0  0  0  0  0  0  0  # atno 17371 bound_to 10713
  139.9579  135.0161  156.9180 LP  0  0  0  0  0  0  0  0  0  0  0  0  # atno 17394 bound_to 11000
  140.5558  134.0582  155.7383 LP  0  0  0  0  0  0  0  0  0  0  0  0  # atno 17395 bound_to 11000

$$$$
