AV-unprocessed.smi:1358|AV-procd|sdf|5549|dock5
  -GOLD-   22720 5143D 1   1.00000     0.00000
 Structure written by MMmdl.
 37 38  0  0  0  0  0  0  0  0  1 V2000
  151.4187  145.1124  158.8042 C   0  0  0  0  0  0  0  0  0  0  0  0
  151.9993  143.7026  158.6482 C   0  0  0  0  0  0  0  0  0  0  0  0
  152.7541  143.2375  159.9009 C   0  0  0  0  0  0  0  0  0  0  0  0
  153.3388  141.8238  159.7502 C   0  0  0  0  0  0  0  0  0  0  0  0
  152.2745  140.8332  159.6616 N   0  0  0  0  0  0  0  0  0  0  0  0
  152.0230  140.0583  158.5948 C   0  0  0  0  0  0  0  0  0  0  0  0
  152.7390  140.0224  157.5940 O   0  0  0  0  0  0  0  0  0  0  0  0
  150.7441  139.2200  158.6540 C   0  0  0  0  0  0  0  0  0  0  0  0
  149.8414  139.5782  157.5069 C   0  0  0  0  0  0  0  0  0  0  0  0
  150.1532  139.5435  156.1695 C   0  0  0  0  0  0  0  0  0  0  0  0
  148.8205  140.0629  155.1723 S   0  0  0  0  0  0  0  0  0  0  0  0
  147.8707  140.3195  156.6338 C   0  0  0  0  0  0  0  0  0  0  0  0
  146.5344  140.8175  156.6303 N   0  0  0  0  0  0  0  0  0  0  0  0
  145.8435  141.1203  155.3832 C   0  0  0  0  0  0  0  0  0  0  0  0
  144.4737  141.6177  155.8361 C   0  0  0  0  0  0  0  0  0  0  0  0
  144.5829  141.5451  157.2744 N   0  0  0  0  0  0  0  0  0  0  0  0
  145.7635  141.0933  157.7032 C   0  0  0  0  0  0  0  0  0  0  0  0
  146.0631  140.9661  158.8899 O   0  0  0  0  0  0  0  0  0  0  0  0
  148.5299  140.0008  157.7524 N   0  0  0  0  0  0  0  0  0  0  0  0
  150.8894  145.4173  157.9013 H   0  0  0  0  0  0  0  0  0  0  0  0
  152.2057  145.8433  158.9915 H   0  0  0  0  0  0  0  0  0  0  0  0
  150.7140  145.1582  159.6348 H   0  0  0  0  0  0  0  0  0  0  0  0
  151.1924  143.0036  158.4261 H   0  0  0  0  0  0  0  0  0  0  0  0
  152.6705  143.6840  157.7890 H   0  0  0  0  0  0  0  0  0  0  0  0
  153.5587  143.9410  160.1205 H   0  0  0  0  0  0  0  0  0  0  0  0
  152.0806  143.2647  160.7583 H   0  0  0  0  0  0  0  0  0  0  0  0
  153.9908  141.7666  158.8770 H   0  0  0  0  0  0  0  0  0  0  0  0
  153.9550  141.5815  160.6163 H   0  0  0  0  0  0  0  0  0  0  0  0
  151.6263  140.7940  160.4352 H   0  0  0  0  0  0  0  0  0  0  0  0
  151.0095  138.1625  158.6227 H   0  0  0  0  0  0  0  0  0  0  0  0
  150.2393  139.3833  159.6072 H   0  0  0  0  0  0  0  0  0  0  0  0
  151.0873  139.2525  155.7125 H   0  0  0  0  0  0  0  0  0  0  0  0
  146.3790  141.8879  154.8226 H   0  0  0  0  0  0  0  0  0  0  0  0
  145.7599  140.2276  154.7616 H   0  0  0  0  0  0  0  0  0  0  0  0
  144.2825  142.6427  155.5162 H   0  0  0  0  0  0  0  0  0  0  0  0
  143.6661  140.9768  155.4806 H   0  0  0  0  0  0  0  0  0  0  0  0
  143.8315  141.8222  157.8893 H   0  0  0  0  0  0  0  0  0  0  0  0
  1  2  1  0  0  0  0
  1 20  1  0  0  0  0
  1 21  1  0  0  0  0
  1 22  1  0  0  0  0
  2  3  1  0  0  0  0
  2 23  1  0  0  0  0
  2 24  1  0  0  0  0
  3  4  1  0  0  0  0
  3 25  1  0  0  0  0
  3 26  1  0  0  0  0
  4  5  1  0  0  0  0
  4 27  1  0  0  0  0
  4 28  1  0  0  0  0
  5  6  1  0  0  0  0
  5 29  1  0  0  0  0
  6  7  2  0  0  0  0
  6  8  1  0  0  0  0
  8  9  1  0  0  0  0
  8 30  1  0  0  0  0
  8 31  1  0  0  0  0
  9 19  1  0  0  0  0
  9 10  2  0  0  0  0
 10 11  1  0  0  0  0
 10 32  1  0  0  0  0
 11 12  1  0  0  0  0
 12 13  1  0  0  0  0
 12 19  2  0  0  0  0
 13 17  1  0  0  0  0
 13 14  1  0  0  0  0
 14 15  1  0  0  0  0
 14 33  1  0  0  0  0
 14 34  1  0  0  0  0
 15 16  1  0  0  0  0
 15 35  1  0  0  0  0
 15 36  1  0  0  0  0
 16 17  1  0  0  0  0
 16 37  1  0  0  0  0
 17 18  2  0  0  0  0
M  END
> <s_m_source_file>
AV-unprocessed.smi

> <i_m_source_file_index>
1358

> <i_lp_mmshare_version>
43012

> <i_f3d_flags>
0

> <s_epik_input>
W0NIM11bQ0gyXVtDSDJdW0NIMl1bTkhdQyg9TylbQ0gyXWMxW2NIXXNjKG4xKU4yW0NIMl1bQ0gyXVtOSF1DMj1P

> <s_epik_cmdline>
J2VwaWtfcHl0aG9uJywgJy1waCcsICc3LjAnLCAnLXRuJywgJzgnLCAnLW1hJywgJzIwMCcsICctbWV0YWxfYmluZGluZycsICctaW1hZScsICc8aW5maWxlLm1hZT4nLCAnLW9tYWUnLCAnPG91dGZpbGUubWFlPic=

> <r_lp_tautomer_probability>
1

> <r_epik_Ionization_Penalty>
0.000120185

> <r_epik_Ionization_Penalty_Charging>
0

> <r_epik_Ionization_Penalty_Neutral>
0.000120185

> <r_epik_State_Penalty>
-0

> <r_epik_Charging_Adjusted_Penalty>
0

> <i_epik_Tot_Q>
0

> <i_epik_Tot_abs_Q>
0

> <r_epik_Metal_State_Penalty>
-0

> <b_epik_Metal_Only>
0

> <s_lp_Force_Field>
OPLS_2005

> <r_lp_Energy>
29.7034

> <b_lp_Chiralities_Consistent>
1

> <s_lp_Variant>
AV-unprocessed.smi:1358-1

> <Gold.Version>
5.8.1

> <Gold.Id.Protein>
6NUR|6NUR_protein|mol2

> <Gold.PLP.Fitness>
40.7874

> <Gold.PLP.PLP>
-37.8347

> <Gold.PLP.part.hbond>
-1.0000

> <Gold.PLP.part.metal>
0.0000

> <Gold.PLP.part.buried>
-3.1894

> <Gold.PLP.part.nonpolar>
-34.1207

> <Gold.PLP.part.repulsive>
0.3062

> <Gold.PLP.ligand.clash>
0.0000

> <Gold.PLP.ligand.torsion>
0.0414

> <Gold.PLP.Chemscore.Hbond>
1.0000

> <Gold.PLP.Chemscore.CHOScore>
0.0000

> <Gold.PLP.Chemscore.Metal>
0.0000

> <Gold.Chemscore.Hbonds>
donor molecule, donor type, donor heavy atom, donor atom, acceptor molecule, acceptor atom, score
      P1  H  6934  6946       L1    18  0.53
      P1  H  7997  8009       L1     7  1.00

> <Gold.PLP.Chemscore.Internal.Correction>
0.0355

> <Gold.Rescore>
     Score         DG    S(hbond)    S(metal)    S(lipo)     H(rot)  DE(clash)    DE(int)     intcor
     11.89     -13.37       0.99        0.00      82.39       1.97       0.11       1.38       ----

> <Gold.Chemscore.Fitness>
11.8872

> <Gold.Chemscore.DG>
-13.3735

> <Gold.Chemscore.ZeroCoef>
-5.4800

> <Gold.Chemscore.Hbond>
0.9886

> <Gold.Chemscore.Metal>
0.0000

> <Gold.Chemscore.Lipo>
82.3881

> <Gold.Chemscore.Internal_Hbond>
0.0000

> <Gold.Chemscore.DEClash>
0.1073

> <Gold.Chemscore.DEInternal>
1.3790

> <Gold.Chemscore.Rot>
1.9718

> <Gold.Chemscore.Internal.Correction>
   9.000000E+99

> <Gold.Chemscore.Hbonds>
donor molecule, donor type, donor heavy atom, donor atom, acceptor molecule, acceptor atom, score
      P1  H  6934  6946       L1    18  0.51
      P1  H  7997  8009       L1     7  0.97

> <Gold.Chemscore.Hbond.Weighted>
-3.3019

> <Gold.Chemscore.Metal.Weighted>
-0.0000

> <Gold.Chemscore.Lipo.Weighted>
-9.6394

> <Gold.Chemscore.Internal_Hbond.Weighted>
0.0000

> <Gold.Chemscore.DEClash.Weighted>
0.1073

> <Gold.Chemscore.DEInternal.Weighted>
1.3790

> <Gold.Chemscore.Rot.Weighted>
5.0478

> <Gold.Chemscore.Internal.Correction.Weighted>
   9.000000E+99

> <Gold.Protein.RotatedTorsions>
[ 6907 6896 6895 6894 ] final   60.49 input  -60.11 | X-H torsion
[ 7974 7965 7964 7962 ] final  -43.21 input  175.53 | X-H torsion
[ 8008 7997 7996 7995 ] final  177.80 input   59.86 | X-H torsion
[ 10167 10162 10161 10158 ] final    2.39 input  -65.29 | X-H torsion
[ 10718 10713 10712 10709 ] final  -23.49 input   66.30 | X-H torsion
[ 10763 10752 10751 10750 ] final  -29.60 input  -60.55 | X-H torsion
[ 11005 11000 10999 10996 ] final  -85.85 input  -57.11 | X-H torsion

> <Gold.Protein.ActiveResidues>
 VAL166  LYS551  ARG553  GLY616  TRP617  ASP618  TYR619  PRO620  LYS621  CYS622 
 ASP623  PHE694  ASN695  SER759  ASP760  ASP761  ALA762  ILE779  LEU786  VAL792 
 PHE793  MET794  SER795  GLU796  ALA797  LYS798  CYS799  TRP800  GLU811  SER814 

> <Gold.Protein.RotatedAtoms>
  152.4007  134.6290  160.0070 H   0  0  0  0  0  0  0  0  0  0  0  0  # atno 6907 bound_to 6896
  151.6496  133.3316  159.3157 H   0  0  0  0  0  0  0  0  0  0  0  0  # atno 6908 bound_to 6896
  150.7908  134.6973  159.6575 H   0  0  0  0  0  0  0  0  0  0  0  0  # atno 6909 bound_to 6896
  146.0041  140.7040  142.9256 H   0  0  0  0  0  0  0  0  0  0  0  0  # atno 7974 bound_to 7965
  156.0617  140.1349  156.9933 H   0  0  0  0  0  0  0  0  0  0  0  0  # atno 8008 bound_to 7997
  154.4485  140.0990  156.6598 H   0  0  0  0  0  0  0  0  0  0  0  0  # atno 8009 bound_to 7997
  155.5367  140.3460  155.4440 H   0  0  0  0  0  0  0  0  0  0  0  0  # atno 8010 bound_to 7997
  140.6637  143.7236  150.7787 H   0  0  0  0  0  0  0  0  0  0  0  0  # atno 10167 bound_to 10162
  156.4904  130.4565  149.6759 H   0  0  0  0  0  0  0  0  0  0  0  0  # atno 10718 bound_to 10713
  153.7672  135.6915  153.4913 H   0  0  0  0  0  0  0  0  0  0  0  0  # atno 10763 bound_to 10752
  153.1899  135.4475  155.0134 H   0  0  0  0  0  0  0  0  0  0  0  0  # atno 10764 bound_to 10752
  154.8131  135.3386  154.7184 H   0  0  0  0  0  0  0  0  0  0  0  0  # atno 10765 bound_to 10752
  141.1637  133.7422  156.9075 H   0  0  0  0  0  0  0  0  0  0  0  0  # atno 11005 bound_to 11000
  144.6929  140.3285  143.7220 LP  0  0  0  0  0  0  0  0  0  0  0  0  # atno 17320 bound_to 7965
  145.7442  139.1773  143.2358 LP  0  0  0  0  0  0  0  0  0  0  0  0  # atno 17321 bound_to 7965
  140.0909  143.4878  152.2479 LP  0  0  0  0  0  0  0  0  0  0  0  0  # atno 17342 bound_to 10162
  139.5879  144.7538  151.3474 LP  0  0  0  0  0  0  0  0  0  0  0  0  # atno 17343 bound_to 10162
  156.3432  130.7393  151.2342 LP  0  0  0  0  0  0  0  0  0  0  0  0  # atno 17370 bound_to 10713
  157.7474  131.0397  150.4566 LP  0  0  0  0  0  0  0  0  0  0  0  0  # atno 17371 bound_to 10713
  140.1539  134.9211  157.2629 LP  0  0  0  0  0  0  0  0  0  0  0  0  # atno 17394 bound_to 11000
  140.2690  134.3483  155.7380 LP  0  0  0  0  0  0  0  0  0  0  0  0  # atno 17395 bound_to 11000

$$$$
