AV-unprocessed.smi:2027|AV-procd|sdf|8218|dock6
  -GOLD-   2272010483D 1   1.00000     0.00000
 Structure written by MMmdl.
 51 53  0  0  0  0  0  0  0  0  3 V2000
  152.5024  141.1484  158.2041 C   0  0  0  0  0  0  0  0  0  0  0  0
  151.4567  140.8190  157.1523 C   0  0  0  0  0  0  0  0  0  0  0  0
  150.6455  141.8646  156.6569 C   0  0  0  0  0  0  0  0  0  0  0  0
  149.6968  141.5315  155.6976 C   0  0  0  0  0  0  0  0  0  0  0  0
  148.7610  142.3206  155.0257 N   0  3  0  0  0  0  0  0  0  0  0  0
  148.0397  141.5431  154.1719 C   0  0  0  0  0  0  0  0  0  0  0  0
  148.5024  140.2679  154.2862 N   0  0  0  0  0  0  0  0  0  0  0  0
  148.0601  139.0447  153.6001 C   0  0  0  0  0  0  0  0  0  0  0  0
  146.7011  139.2080  152.8922 C   0  0  1  0  0  0  0  0  0  0  0  0
  146.8297  140.1228  151.8216 O   0  0  0  0  0  0  0  0  0  0  0  0
  146.1896  137.8657  152.3315 C   0  0  0  0  0  0  0  0  0  0  0  0
  144.7114  137.7432  152.4154 N   0  3  1  0  0  0  0  0  0  0  0  0
  144.1963  136.6610  151.5432 C   0  0  0  0  0  0  0  0  0  0  0  0
  144.2160  137.6390  153.8127 C   0  0  0  0  0  0  0  0  0  0  0  0
  142.7395  137.3520  153.8555 C   0  0  0  0  0  0  0  0  0  0  0  0
  142.0658  136.3681  154.6344 C   0  0  0  0  0  0  0  0  0  0  0  0
  140.7571  136.3701  154.4449 N   0  0  0  0  0  0  0  0  0  0  0  0
  140.5494  137.3466  153.5382 N   0  0  0  0  0  0  0  0  0  0  0  0
  139.2034  137.6270  153.0862 C   0  0  0  0  0  0  0  0  0  0  0  0
  141.7274  137.9546  153.1621 C   0  0  0  0  0  0  0  0  0  0  0  0
  149.5379  140.2128  155.2280 C   0  0  0  0  0  0  0  0  0  0  0  0
  150.3324  139.1715  155.7033 C   0  0  0  0  0  0  0  0  0  0  0  0
  151.3029  139.4897  156.6803 C   0  0  0  0  0  0  0  0  0  0  0  0
  152.1826  138.3737  157.2176 C   0  0  0  0  0  0  0  0  0  0  0  0
  152.4624  142.1999  158.4914 H   0  0  0  0  0  0  0  0  0  0  0  0
  153.5036  140.9437  157.8244 H   0  0  0  0  0  0  0  0  0  0  0  0
  152.3440  140.5531  159.1037 H   0  0  0  0  0  0  0  0  0  0  0  0
  150.7581  142.8792  157.0107 H   0  0  0  0  0  0  0  0  0  0  0  0
  147.2417  141.8781  153.5249 H   0  0  0  0  0  0  0  0  0  0  0  0
  148.8338  138.7196  152.9045 H   0  0  0  0  0  0  0  0  0  0  0  0
  147.9879  138.2640  154.3583 H   0  0  0  0  0  0  0  0  0  0  0  0
  145.9883  139.6228  153.6045 H   0  0  0  0  0  0  0  0  0  0  0  0
  147.6269  139.9265  151.3526 H   0  0  0  0  0  0  0  0  0  0  0  0
  146.5151  137.7813  151.2929 H   0  0  0  0  0  0  0  0  0  0  0  0
  146.6481  137.0267  152.8577 H   0  0  0  0  0  0  0  0  0  0  0  0
  144.5598  135.6870  151.8735 H   0  0  0  0  0  0  0  0  0  0  0  0
  144.5154  136.8123  150.5114 H   0  0  0  0  0  0  0  0  0  0  0  0
  143.1067  136.6367  151.5396 H   0  0  0  0  0  0  0  0  0  0  0  0
  144.7853  136.8711  154.3387 H   0  0  0  0  0  0  0  0  0  0  0  0
  144.4175  138.5665  154.3473 H   0  0  0  0  0  0  0  0  0  0  0  0
  142.4881  135.6585  155.3307 H   0  0  0  0  0  0  0  0  0  0  0  0
  139.1952  138.5277  152.4717 H   0  0  0  0  0  0  0  0  0  0  0  0
  138.5469  137.7787  153.9437 H   0  0  0  0  0  0  0  0  0  0  0  0
  138.8328  136.7899  152.4940 H   0  0  0  0  0  0  0  0  0  0  0  0
  141.7479  138.7587  152.4411 H   0  0  0  0  0  0  0  0  0  0  0  0
  150.2204  138.1590  155.3448 H   0  0  0  0  0  0  0  0  0  0  0  0
  151.9555  137.4203  156.7393 H   0  0  0  0  0  0  0  0  0  0  0  0
  152.0328  138.2517  158.2906 H   0  0  0  0  0  0  0  0  0  0  0  0
  153.2350  138.5941  157.0369 H   0  0  0  0  0  0  0  0  0  0  0  0
  144.3441  138.6054  152.0373 H   0  0  0  0  0  0  0  0  0  0  0  0
  148.6200  143.3160  155.1438 H   0  0  0  0  0  0  0  0  0  0  0  0
  1  2  1  0  0  0  0
  1 25  1  0  0  0  0
  1 26  1  0  0  0  0
  1 27  1  0  0  0  0
  2 23  1  0  0  0  0
  2  3  2  0  0  0  0
  3  4  1  0  0  0  0
  3 28  1  0  0  0  0
  4 21  2  0  0  0  0
  4  5  1  0  0  0  0
  5  6  2  0  0  0  0
  5 51  1  0  0  0  0
  6  7  1  0  0  0  0
  6 29  1  0  0  0  0
  7  8  1  0  0  0  0
  7 21  1  0  0  0  0
  8  9  1  0  0  0  0
  8 30  1  0  0  0  0
  8 31  1  0  0  0  0
  9 10  1  0  0  0  0
  9 11  1  0  0  0  0
  9 32  1  0  0  0  0
 10 33  1  0  0  0  0
 11 12  1  0  0  0  0
 11 34  1  0  0  0  0
 11 35  1  0  0  0  0
 12 13  1  0  0  0  0
 12 14  1  0  0  0  0
 12 50  1  0  0  0  0
 13 36  1  0  0  0  0
 13 37  1  0  0  0  0
 13 38  1  0  0  0  0
 14 15  1  0  0  0  0
 14 39  1  0  0  0  0
 14 40  1  0  0  0  0
 15 20  2  0  0  0  0
 15 16  1  0  0  0  0
 16 17  2  0  0  0  0
 16 41  1  0  0  0  0
 17 18  1  0  0  0  0
 18 19  1  0  0  0  0
 18 20  1  0  0  0  0
 19 42  1  0  0  0  0
 19 43  1  0  0  0  0
 19 44  1  0  0  0  0
 20 45  1  0  0  0  0
 21 22  1  0  0  0  0
 22 23  2  0  0  0  0
 22 46  1  0  0  0  0
 23 24  1  0  0  0  0
 24 47  1  0  0  0  0
 24 48  1  0  0  0  0
 24 49  1  0  0  0  0
M  CHG  1   5   1
M  CHG  1  12   1
M  END
> <s_m_source_file>
AV-unprocessed.smi

> <i_m_source_file_index>
2027

> <i_lp_mmshare_version>
43012

> <i_f3d_flags>
0

> <s_epik_input>
W0NIM11jKFtjSF0xKWMoW0NIM10pW2NIXWMoYzEyKW4oW2NIXW4yKVtDSDJdW0NASF0oW09IXSlbQ0gyXU4oW0NIM10pW0NIMl1jM1tjSF1ubihbQ0gzXSlbY0hdMw==

> <s_epik_cmdline>
J2VwaWtfcHl0aG9uJywgJy1waCcsICc3LjAnLCAnLXRuJywgJzgnLCAnLW1hJywgJzIwMCcsICctbWV0YWxfYmluZGluZycsICctaW1hZScsICc8aW5maWxlLm1hZT4nLCAnLW9tYWUnLCAnPG91dGZpbGUubWFlPic=

> <r_lp_tautomer_probability>
1

> <r_epik_Ionization_Penalty>
1.77469

> <r_epik_Ionization_Penalty_Charging>
1.77463

> <r_epik_Ionization_Penalty_Neutral>
6.41153e-05

> <r_epik_State_Penalty>
1.85225

> <r_epik_Charging_Adjusted_Penalty>
3.62688

> <i_epik_Tot_Q>
2

> <i_epik_Tot_abs_Q>
2

> <r_epik_Metal_State_Penalty>
1.92669

> <b_epik_Metal_Only>
0

> <s_lp_Force_Field>
OPLS_2005

> <r_lp_Energy>
18.885

> <b_lp_Chiralities_Consistent>
1

> <s_lp_Variant>
AV-unprocessed.smi:2027-10

> <Gold.Version>
5.8.1

> <Gold.Id.Protein>
6NUR|6NUR_protein|mol2

> <Gold.PLP.Fitness>
57.8108

> <Gold.PLP.PLP>
-39.9197

> <Gold.PLP.part.hbond>
-5.1008

> <Gold.PLP.part.metal>
0.0000

> <Gold.PLP.part.buried>
-1.6970

> <Gold.PLP.part.nonpolar>
-34.3983

> <Gold.PLP.part.repulsive>
0.2530

> <Gold.PLP.ligand.clash>
0.0000

> <Gold.PLP.ligand.torsion>
0.9573

> <Gold.PLP.Chemscore.Hbond>
5.1680

> <Gold.PLP.Chemscore.CHOScore>
1.4119

> <Gold.PLP.Chemscore.Metal>
0.0000

> <Gold.Chemscore.Hbonds>
donor molecule, donor type, donor heavy atom, donor atom, acceptor molecule, acceptor atom, score
      L1  H     5    51       P1  8028  1.85
      L1  H    10    33       P1  7957  1.00
      L1  H    12    50       P1 10175  1.86
      P1  H 11000 11005       L1    17  0.14
      L1  C    20    45       P1 10160  0.66
      L1  C    20    45       P1 10175  0.83

> <Gold.PLP.Chemscore.Internal.Correction>
0.0659

> <Gold.Rescore>
     Score         DG    S(hbond)    S(metal)    S(lipo)     H(rot)  DE(clash)    DE(int)     intcor
     17.56     -21.17       3.46        0.00      92.03       2.58       1.49       2.13       ----

> <Gold.Chemscore.Fitness>
17.5585

> <Gold.Chemscore.DG>
-21.1742

> <Gold.Chemscore.ZeroCoef>
-5.4800

> <Gold.Chemscore.Hbond>
3.4551

> <Gold.Chemscore.Metal>
0.0000

> <Gold.Chemscore.Lipo>
92.0342

> <Gold.Chemscore.Internal_Hbond>
0.0000

> <Gold.Chemscore.DEClash>
1.4902

> <Gold.Chemscore.DEInternal>
2.1256

> <Gold.Chemscore.Rot>
2.5836

> <Gold.Chemscore.Internal.Correction>
   9.000000E+99

> <Gold.Chemscore.Hbonds>
donor molecule, donor type, donor heavy atom, donor atom, acceptor molecule, acceptor atom, score
      L1  H     5    51       P1  8028  0.88
      L1  H    10    33       P1  7957  0.96
      L1  H    12    50       P1 10175  0.87
      P1  H 11000 11005       L1    17  0.04

> <Gold.Chemscore.Hbond.Weighted>
-11.5401

> <Gold.Chemscore.Metal.Weighted>
-0.0000

> <Gold.Chemscore.Lipo.Weighted>
-10.7680

> <Gold.Chemscore.Internal_Hbond.Weighted>
0.0000

> <Gold.Chemscore.DEClash.Weighted>
1.4902

> <Gold.Chemscore.DEInternal.Weighted>
2.1256

> <Gold.Chemscore.Rot.Weighted>
6.6139

> <Gold.Chemscore.Internal.Correction.Weighted>
   9.000000E+99

> <Gold.Protein.RotatedTorsions>
[ 6907 6896 6895 6894 ] final    0.37 input  -60.11 | X-H torsion
[ 7974 7965 7964 7962 ] final   78.62 input  175.53 | X-H torsion
[ 8008 7997 7996 7995 ] final  -94.76 input   59.86 | X-H torsion
[ 10167 10162 10161 10158 ] final  -96.72 input  -65.29 | X-H torsion
[ 10718 10713 10712 10709 ] final -153.91 input   66.30 | X-H torsion
[ 10763 10752 10751 10750 ] final  133.64 input  -60.55 | X-H torsion
[ 11005 11000 10999 10996 ] final   54.69 input  -57.11 | X-H torsion

> <Gold.Protein.ActiveResidues>
 VAL166  LYS551  ARG553  GLY616  TRP617  ASP618  TYR619  PRO620  LYS621  CYS622 
 ASP623  PHE694  ASN695  SER759  ASP760  ASP761  ALA762  ILE779  LEU786  VAL792 
 PHE793  MET794  SER795  GLU796  ALA797  LYS798  CYS799  TRP800  GLU811  SER814 

> <Gold.Protein.RotatedAtoms>
  151.5753  135.1061  160.0004 H   0  0  0  0  0  0  0  0  0  0  0  0  # atno 6907 bound_to 6896
  152.4381  133.7393  159.6642 H   0  0  0  0  0  0  0  0  0  0  0  0  # atno 6908 bound_to 6896
  150.8282  133.8067  159.3133 H   0  0  0  0  0  0  0  0  0  0  0  0  # atno 6909 bound_to 6896
  145.6748  139.2507  143.1848 H   0  0  0  0  0  0  0  0  0  0  0  0  # atno 7974 bound_to 7965
  154.7526  140.0486  157.0906 H   0  0  0  0  0  0  0  0  0  0  0  0  # atno 8008 bound_to 7997
  155.0038  140.3128  155.4837 H   0  0  0  0  0  0  0  0  0  0  0  0  # atno 8009 bound_to 7997
  156.2888  140.2196  156.5149 H   0  0  0  0  0  0  0  0  0  0  0  0  # atno 8010 bound_to 7997
  140.2908  143.3222  152.0347 H   0  0  0  0  0  0  0  0  0  0  0  0  # atno 10167 bound_to 10162
  156.4922  130.8353  151.2575 H   0  0  0  0  0  0  0  0  0  0  0  0  # atno 10718 bound_to 10713
  153.8105  135.3129  155.3400 H   0  0  0  0  0  0  0  0  0  0  0  0  # atno 10763 bound_to 10752
  154.8053  135.4701  154.0380 H   0  0  0  0  0  0  0  0  0  0  0  0  # atno 10764 bound_to 10752
  153.1757  135.6885  153.8635 H   0  0  0  0  0  0  0  0  0  0  0  0  # atno 10765 bound_to 10752
  140.0666  134.5528  155.9092 H   0  0  0  0  0  0  0  0  0  0  0  0  # atno 11005 bound_to 11000
  146.1015  140.7538  142.9547 LP  0  0  0  0  0  0  0  0  0  0  0  0  # atno 17320 bound_to 7965
  144.7045  140.3794  143.7129 LP  0  0  0  0  0  0  0  0  0  0  0  0  # atno 17321 bound_to 7965
  139.4938  144.6526  151.6643 LP  0  0  0  0  0  0  0  0  0  0  0  0  # atno 17342 bound_to 10162
  140.5733  144.0071  150.6228 LP  0  0  0  0  0  0  0  0  0  0  0  0  # atno 17343 bound_to 10162
  157.7472  131.0009  150.2945 LP  0  0  0  0  0  0  0  0  0  0  0  0  # atno 17370 bound_to 10713
  156.3415  130.3816  149.7405 LP  0  0  0  0  0  0  0  0  0  0  0  0  # atno 17371 bound_to 10713
  141.1995  133.6607  156.5848 LP  0  0  0  0  0  0  0  0  0  0  0  0  # atno 17394 bound_to 11000
  140.3689  134.7622  157.4585 LP  0  0  0  0  0  0  0  0  0  0  0  0  # atno 17395 bound_to 11000

$$$$
