AV-unprocessed.smi:2881|AV-procd|sdf|11057|dock5
  -GOLD-   2272015523D 1   1.00000     0.00000
 Structure written by MMmdl.
 40 42  0  0  0  0  0  0  0  0  1 V2000
  144.0842  133.6365  151.4908 C   0  0  0  0  0  0  0  0  0  0  0  0
  145.3022  133.3658  152.3067 C   0  0  0  0  0  0  0  0  0  0  0  0
  146.6312  133.4717  152.0089 C   0  0  0  0  0  0  0  0  0  0  0  0
  147.2951  133.0746  153.2072 C   0  0  0  0  0  0  0  0  0  0  0  0
  148.7765  133.0033  153.4648 C   0  0  0  0  0  0  0  0  0  0  0  0
  149.1562  133.9333  154.6177 C   0  0  0  0  0  0  0  0  0  0  0  0
  149.4341  133.4664  155.7222 O   0  0  0  0  0  0  0  0  0  0  0  0
  149.1623  135.2473  154.3472 N   0  0  0  0  0  0  0  0  0  0  0  0
  149.5312  136.2968  155.2932 C   0  0  2  0  0  0  0  0  0  0  0  0
  148.3623  136.7603  156.1994 C   0  0  2  0  0  0  0  0  0  0  0  0
  147.1120  137.1229  155.3696 C   0  0  0  0  0  0  0  0  0  0  0  0
  147.5450  138.4179  154.6577 C   0  0  0  0  0  0  0  0  0  0  0  0
  148.9734  138.6405  155.1926 C   0  0  1  0  0  0  0  0  0  0  0  0
  148.8400  138.1421  156.6272 C   0  0  0  0  0  0  0  0  0  0  0  0
  149.9284  137.6034  154.5565 C   0  0  1  0  0  0  0  0  0  0  0  0
  151.4146  137.9733  154.7249 C   0  0  0  0  0  0  0  0  0  0  0  0
  152.2213  137.1085  153.9530 O   0  0  0  0  0  0  0  0  0  0  0  0
  146.4441  132.7411  154.1683 N   0  0  0  0  0  0  0  0  0  0  0  0
  145.2341  132.9243  153.6079 N   0  0  0  0  0  0  0  0  0  0  0  0
  144.3810  132.7465  154.1188 H   0  0  0  0  0  0  0  0  0  0  0  0
  144.3407  134.1615  150.5704 H   0  0  0  0  0  0  0  0  0  0  0  0
  143.3753  134.2534  152.0433 H   0  0  0  0  0  0  0  0  0  0  0  0
  143.5857  132.7057  151.2200 H   0  0  0  0  0  0  0  0  0  0  0  0
  147.0685  133.7910  151.0743 H   0  0  0  0  0  0  0  0  0  0  0  0
  149.0864  131.9850  153.7048 H   0  0  0  0  0  0  0  0  0  0  0  0
  149.3289  133.2921  152.5697 H   0  0  0  0  0  0  0  0  0  0  0  0
  148.9257  135.5397  153.4100 H   0  0  0  0  0  0  0  0  0  0  0  0
  150.3574  135.9470  155.9156 H   0  0  0  0  0  0  0  0  0  0  0  0
  148.1531  136.0769  157.0231 H   0  0  0  0  0  0  0  0  0  0  0  0
  146.8091  136.3409  154.6733 H   0  0  0  0  0  0  0  0  0  0  0  0
  146.2633  137.3182  156.0261 H   0  0  0  0  0  0  0  0  0  0  0  0
  147.5159  138.3263  153.5714 H   0  0  0  0  0  0  0  0  0  0  0  0
  146.8913  139.2446  154.9391 H   0  0  0  0  0  0  0  0  0  0  0  0
  149.3123  139.6722  155.0933 H   0  0  0  0  0  0  0  0  0  0  0  0
  148.1017  138.6950  157.2109 H   0  0  0  0  0  0  0  0  0  0  0  0
  149.7829  138.1239  157.1754 H   0  0  0  0  0  0  0  0  0  0  0  0
  149.7177  137.5369  153.4872 H   0  0  0  0  0  0  0  0  0  0  0  0
  151.5906  138.9957  154.3890 H   0  0  0  0  0  0  0  0  0  0  0  0
  151.7253  137.9193  155.7684 H   0  0  0  0  0  0  0  0  0  0  0  0
  151.8096  136.9837  153.1115 H   0  0  0  0  0  0  0  0  0  0  0  0
  1  2  1  0  0  0  0
  1 21  1  0  0  0  0
  1 22  1  0  0  0  0
  1 23  1  0  0  0  0
  2 19  1  0  0  0  0
  2  3  2  0  0  0  0
  3  4  1  0  0  0  0
  3 24  1  0  0  0  0
  4  5  1  0  0  0  0
  4 18  2  0  0  0  0
  5  6  1  0  0  0  0
  5 25  1  0  0  0  0
  5 26  1  0  0  0  0
  6  7  2  0  0  0  0
  6  8  1  0  0  0  0
  8  9  1  0  0  0  0
  8 27  1  0  0  0  0
  9 15  1  0  0  0  0
  9 10  1  0  0  0  0
  9 28  1  0  0  0  0
 10 14  1  0  0  0  0
 10 11  1  0  0  0  0
 10 29  1  0  0  0  0
 11 12  1  0  0  0  0
 11 30  1  0  0  0  0
 11 31  1  0  0  0  0
 12 13  1  0  0  0  0
 12 32  1  0  0  0  0
 12 33  1  0  0  0  0
 13 14  1  0  0  0  0
 13 15  1  0  0  0  0
 13 34  1  0  0  0  0
 14 35  1  0  0  0  0
 14 36  1  0  0  0  0
 15 16  1  0  0  0  0
 15 37  1  0  0  0  0
 16 17  1  0  0  0  0
 16 38  1  0  0  0  0
 16 39  1  0  0  0  0
 17 40  1  0  0  0  0
 18 19  1  0  0  0  0
 19 20  1  0  0  0  0
M  END
> <s_m_source_file>
AV-unprocessed.smi

> <i_m_source_file_index>
2881

> <i_lp_mmshare_version>
43012

> <i_f3d_flags>
0

> <s_epik_input>
W0NIM11jMVtjSF1jKG5bbkhdMSlbQ0gyXUMoPU8pW05IXVtDQEhdKFtDQEBIXTIzKVtDQEhdKFtDSDJdW09IXSlbQ0BASF0oW0NIMl0zKVtDSDJdW0NIMl0y

> <s_epik_cmdline>
J2VwaWtfcHl0aG9uJywgJy1waCcsICc3LjAnLCAnLXRuJywgJzgnLCAnLW1hJywgJzIwMCcsICctbWV0YWxfYmluZGluZycsICctaW1hZScsICc8aW5maWxlLm1hZT4nLCAnLW9tYWUnLCAnPG91dGZpbGUubWFlPic=

> <r_lp_tautomer_probability>
0.5

> <r_epik_Ionization_Penalty>
9.4349e-05

> <r_epik_Ionization_Penalty_Charging>
0

> <r_epik_Ionization_Penalty_Neutral>
9.4349e-05

> <r_epik_State_Penalty>
0.41068

> <r_epik_Charging_Adjusted_Penalty>
0.41068

> <i_epik_Tot_Q>
0

> <i_epik_Tot_abs_Q>
0

> <r_epik_Metal_State_Penalty>
0.4107

> <b_epik_Metal_Only>
0

> <s_lp_Force_Field>
OPLS_2005

> <r_lp_Energy>
47.2373

> <b_lp_Chiralities_Consistent>
1

> <s_lp_Variant>
AV-unprocessed.smi:2881-3

> <Gold.Version>
5.8.1

> <Gold.Id.Protein>
6NUR|6NUR_protein|mol2

> <Gold.PLP.Fitness>
35.0844

> <Gold.PLP.PLP>
-24.2499

> <Gold.PLP.part.hbond>
-4.0000

> <Gold.PLP.part.metal>
0.0000

> <Gold.PLP.part.buried>
-4.2583

> <Gold.PLP.part.nonpolar>
-17.2898

> <Gold.PLP.part.repulsive>
0.1063

> <Gold.PLP.ligand.clash>
0.0000

> <Gold.PLP.ligand.torsion>
0.5583

> <Gold.PLP.Chemscore.Hbond>
3.9750

> <Gold.PLP.Chemscore.CHOScore>
0.0000

> <Gold.PLP.Chemscore.Metal>
0.0000

> <Gold.Chemscore.Hbonds>
donor molecule, donor type, donor heavy atom, donor atom, acceptor molecule, acceptor atom, score
      L1  H     8    27       P1  7948  1.00
      L1  H    17    40       P1  7949  1.00
      L1  H    19    20       P1 10957  0.89
      P1  H 10752 10765       L1    17  0.93

> <Gold.PLP.Chemscore.Internal.Correction>
0.0260

> <Gold.Rescore>
     Score         DG    S(hbond)    S(metal)    S(lipo)     H(rot)  DE(clash)    DE(int)     intcor
     16.86     -17.42       3.60        0.00      49.19       2.28       0.00       0.56       ----

> <Gold.Chemscore.Fitness>
16.8630

> <Gold.Chemscore.DG>
-17.4238

> <Gold.Chemscore.ZeroCoef>
-5.4800

> <Gold.Chemscore.Hbond>
3.5971

> <Gold.Chemscore.Metal>
0.0000

> <Gold.Chemscore.Lipo>
49.1856

> <Gold.Chemscore.Internal_Hbond>
0.0000

> <Gold.Chemscore.DEClash>
0.0048

> <Gold.Chemscore.DEInternal>
0.5560

> <Gold.Chemscore.Rot>
2.2755

> <Gold.Chemscore.Internal.Correction>
   9.000000E+99

> <Gold.Chemscore.Hbonds>
donor molecule, donor type, donor heavy atom, donor atom, acceptor molecule, acceptor atom, score
      L1  H     8    27       P1  7948  0.82
      L1  H    17    40       P1  7949  0.94
      L1  H    19    20       P1 10957  0.73
      P1  H 10752 10765       L1    17  0.20

> <Gold.Chemscore.Hbond.Weighted>
-12.0143

> <Gold.Chemscore.Metal.Weighted>
-0.0000

> <Gold.Chemscore.Lipo.Weighted>
-5.7547

> <Gold.Chemscore.Internal_Hbond.Weighted>
0.0000

> <Gold.Chemscore.DEClash.Weighted>
0.0048

> <Gold.Chemscore.DEInternal.Weighted>
0.5560

> <Gold.Chemscore.Rot.Weighted>
5.8252

> <Gold.Chemscore.Internal.Correction.Weighted>
   9.000000E+99

> <Gold.Protein.RotatedTorsions>
[ 6907 6896 6895 6894 ] final  129.44 input  -60.11 | X-H torsion
[ 7974 7965 7964 7962 ] final  -91.84 input  175.53 | X-H torsion
[ 8008 7997 7996 7995 ] final -132.36 input   59.86 | X-H torsion
[ 10167 10162 10161 10158 ] final  -36.48 input  -65.29 | X-H torsion
[ 10718 10713 10712 10709 ] final  146.84 input   66.30 | X-H torsion
[ 10763 10752 10751 10750 ] final  147.71 input  -60.55 | X-H torsion
[ 11005 11000 10999 10996 ] final  -59.85 input  -57.11 | X-H torsion

> <Gold.Protein.ActiveResidues>
 VAL166  LYS551  ARG553  GLY616  TRP617  ASP618  TYR619  PRO620  LYS621  CYS622 
 ASP623  PHE694  ASN695  SER759  ASP760  ASP761  ALA762  ILE779  LEU786  VAL792 
 PHE793  MET794  SER795  GLU796  ALA797  LYS798  CYS799  TRP800  GLU811  SER814 

> <Gold.Protein.RotatedAtoms>
  152.3624  133.6313  159.6024 H   0  0  0  0  0  0  0  0  0  0  0  0  # atno 6907 bound_to 6896
  150.7610  133.9403  159.3463 H   0  0  0  0  0  0  0  0  0  0  0  0  # atno 6908 bound_to 6896
  151.7239  135.0890  160.0340 H   0  0  0  0  0  0  0  0  0  0  0  0  # atno 6909 bound_to 6896
  145.4078  140.9542  143.2251 H   0  0  0  0  0  0  0  0  0  0  0  0  # atno 7974 bound_to 7965
  155.3276  140.0465  157.3041 H   0  0  0  0  0  0  0  0  0  0  0  0  # atno 8008 bound_to 7997
  154.5346  140.2268  155.8711 H   0  0  0  0  0  0  0  0  0  0  0  0  # atno 8009 bound_to 7997
  156.1822  140.3071  155.9177 H   0  0  0  0  0  0  0  0  0  0  0  0  # atno 8010 bound_to 7997
  140.7141  143.3406  151.2366 H   0  0  0  0  0  0  0  0  0  0  0  0  # atno 10167 bound_to 10162
  157.3283  131.0916  151.1184 H   0  0  0  0  0  0  0  0  0  0  0  0  # atno 10718 bound_to 10713
  154.0427  135.2888  155.3352 H   0  0  0  0  0  0  0  0  0  0  0  0  # atno 10763 bound_to 10752
  154.6919  135.5223  153.8407 H   0  0  0  0  0  0  0  0  0  0  0  0  # atno 10764 bound_to 10752
  153.0593  135.6607  154.0630 H   0  0  0  0  0  0  0  0  0  0  0  0  # atno 10765 bound_to 10752
  141.1264  133.6618  156.5134 H   0  0  0  0  0  0  0  0  0  0  0  0  # atno 11005 bound_to 11000
  144.8329  139.5598  143.6935 LP  0  0  0  0  0  0  0  0  0  0  0  0  # atno 17320 bound_to 7965
  146.2720  139.6658  142.9289 LP  0  0  0  0  0  0  0  0  0  0  0  0  # atno 17321 bound_to 7965
  139.6912  143.9688  152.2860 LP  0  0  0  0  0  0  0  0  0  0  0  0  # atno 17342 bound_to 10162
  139.9351  144.6717  150.8323 LP  0  0  0  0  0  0  0  0  0  0  0  0  # atno 17343 bound_to 10162
  157.2442  130.6583  149.5903 LP  0  0  0  0  0  0  0  0  0  0  0  0  # atno 17370 bound_to 10713
  155.9693  130.4559  150.5904 LP  0  0  0  0  0  0  0  0  0  0  0  0  # atno 17371 bound_to 10713
  140.4350  134.7067  157.4962 LP  0  0  0  0  0  0  0  0  0  0  0  0  # atno 17394 bound_to 11000
  140.0267  134.6466  155.9162 LP  0  0  0  0  0  0  0  0  0  0  0  0  # atno 17395 bound_to 11000

$$$$
