AV-unprocessed.smi:2342|AV-procd|sdf|9354|dock4
  -GOLD-   2272012573D 1   1.00000     0.00000
 Structure written by MMmdl.
 38 38  0  0  0  0  0  0  0  0  2 V2000
  150.9595  136.4829  156.9393 C   0  0  0  0  0  0  0  0  0  0  0  0
  150.2495  137.3762  155.9090 C   0  0  2  0  0  0  0  0  0  0  0  0
  149.0200  136.6665  155.2867 C   0  0  0  0  0  0  0  0  0  0  0  0
  149.3814  135.4933  154.4966 N   0  0  0  0  0  0  0  0  0  0  0  0
  148.8783  134.2614  154.6673 C   0  0  0  0  0  0  0  0  0  0  0  0
  148.1623  133.9431  155.6168 O   0  0  0  0  0  0  0  0  0  0  0  0
  149.2072  133.2407  153.5776 C   0  0  0  0  0  0  0  0  0  0  0  0
  147.9478  132.5422  153.1517 C   0  0  0  0  0  0  0  0  0  0  0  0
  146.8028  133.1276  152.6737 C   0  0  0  0  0  0  0  0  0  0  0  0
  145.6032  131.9438  152.2390 S   0  0  0  0  0  0  0  0  0  0  0  0
  146.7115  130.6631  152.7437 C   0  0  0  0  0  0  0  0  0  0  0  0
  146.4157  129.1843  152.6723 C   0  0  0  0  0  0  0  0  0  0  0  0
  145.0536  128.9554  151.9888 C   0  0  0  0  0  0  0  0  0  0  0  0
  146.3403  128.5586  154.0818 C   0  0  0  0  0  0  0  0  0  0  0  0
  147.5394  128.4630  151.9029 C   0  0  0  0  0  0  0  0  0  0  0  0
  147.8728  131.1467  153.1993 N   0  0  0  0  0  0  0  0  0  0  0  0
  151.2544  137.8428  154.8401 C   0  0  0  0  0  0  0  0  0  0  0  0
  151.3306  139.0716  154.6172 O   0  0  0  0  0  0  0  0  0  0  0  0
  151.9329  136.9611  154.2686 O   0  5  0  0  0  0  0  0  0  0  0  0
  151.8244  136.9862  157.3735 H   0  0  0  0  0  0  0  0  0  0  0  0
  151.3062  135.5512  156.4904 H   0  0  0  0  0  0  0  0  0  0  0  0
  150.2867  136.2251  157.7574 H   0  0  0  0  0  0  0  0  0  0  0  0
  149.8930  138.2663  156.4302 H   0  0  0  0  0  0  0  0  0  0  0  0
  148.3434  136.3363  156.0755 H   0  0  0  0  0  0  0  0  0  0  0  0
  148.4499  137.3681  154.6756 H   0  0  0  0  0  0  0  0  0  0  0  0
  149.9574  135.6581  153.6833 H   0  0  0  0  0  0  0  0  0  0  0  0
  149.6797  133.7492  152.7361 H   0  0  0  0  0  0  0  0  0  0  0  0
  149.9353  132.5230  153.9574 H   0  0  0  0  0  0  0  0  0  0  0  0
  146.6019  134.1788  152.5311 H   0  0  0  0  0  0  0  0  0  0  0  0
  144.8134  127.8938  151.9239 H   0  0  0  0  0  0  0  0  0  0  0  0
  145.0411  129.3542  150.9739 H   0  0  0  0  0  0  0  0  0  0  0  0
  144.2480  129.4411  152.5408 H   0  0  0  0  0  0  0  0  0  0  0  0
  145.5503  129.0127  154.6813 H   0  0  0  0  0  0  0  0  0  0  0  0
  147.2795  128.6741  154.6244 H   0  0  0  0  0  0  0  0  0  0  0  0
  146.1284  127.4902  154.0295 H   0  0  0  0  0  0  0  0  0  0  0  0
  147.3598  127.3888  151.8499 H   0  0  0  0  0  0  0  0  0  0  0  0
  148.5072  128.6126  152.3830 H   0  0  0  0  0  0  0  0  0  0  0  0
  147.6205  128.8285  150.8785 H   0  0  0  0  0  0  0  0  0  0  0  0
  1  2  1  0  0  0  0
  1 20  1  0  0  0  0
  1 21  1  0  0  0  0
  1 22  1  0  0  0  0
  2  3  1  0  0  0  0
  2 17  1  0  0  0  0
  2 23  1  0  0  0  0
  3  4  1  0  0  0  0
  3 24  1  0  0  0  0
  3 25  1  0  0  0  0
  4  5  1  0  0  0  0
  4 26  1  0  0  0  0
  5  6  2  0  0  0  0
  5  7  1  0  0  0  0
  7  8  1  0  0  0  0
  7 27  1  0  0  0  0
  7 28  1  0  0  0  0
  8 16  1  0  0  0  0
  8  9  2  0  0  0  0
  9 10  1  0  0  0  0
  9 29  1  0  0  0  0
 10 11  1  0  0  0  0
 11 12  1  0  0  0  0
 11 16  2  0  0  0  0
 12 13  1  0  0  0  0
 12 14  1  0  0  0  0
 12 15  1  0  0  0  0
 13 30  1  0  0  0  0
 13 31  1  0  0  0  0
 13 32  1  0  0  0  0
 14 33  1  0  0  0  0
 14 34  1  0  0  0  0
 14 35  1  0  0  0  0
 15 36  1  0  0  0  0
 15 37  1  0  0  0  0
 15 38  1  0  0  0  0
 17 18  2  0  0  0  0
 17 19  1  0  0  0  0
M  CHG  1  19  -1
M  END
> <s_m_source_file>
AV-unprocessed.smi

> <i_m_source_file_index>
2342

> <i_lp_mmshare_version>
43012

> <i_f3d_flags>
0

> <s_epik_input>
Tz1DKFtPSF0pW0NASF0oW0NIM10pW0NIMl1bTkhdQyg9TylbQ0gyXWMxW2NIXXNjKG4xKUMoW0NIM10pKFtDSDNdKVtDSDNd

> <s_epik_cmdline>
J2VwaWtfcHl0aG9uJywgJy1waCcsICc3LjAnLCAnLXRuJywgJzgnLCAnLW1hJywgJzIwMCcsICctbWV0YWxfYmluZGluZycsICctaW1hZScsICc8aW5maWxlLm1hZT4nLCAnLW9tYWUnLCAnPG91dGZpbGUubWFlPic=

> <r_epik_Ionization_Penalty>
0.00120065

> <r_epik_Ionization_Penalty_Charging>
0.00115909

> <r_epik_Ionization_Penalty_Neutral>
4.15663e-05

> <r_epik_State_Penalty>
0.00076313

> <r_epik_Charging_Adjusted_Penalty>
0.00192222

> <i_epik_Tot_Q>
-1

> <i_epik_Tot_abs_Q>
1

> <r_epik_Metal_State_Penalty>
-0

> <b_epik_Metal_Only>
0

> <s_lp_Force_Field>
OPLS_2005

> <r_lp_Energy>
-10.4991

> <b_lp_Chiralities_Consistent>
1

> <s_lp_Variant>
AV-unprocessed.smi:2342-1

> <Gold.Version>
5.8.1

> <Gold.Id.Protein>
6NUR|6NUR_protein|mol2

> <Gold.PLP.Fitness>
39.3945

> <Gold.PLP.PLP>
-30.3612

> <Gold.PLP.part.hbond>
-3.0000

> <Gold.PLP.part.metal>
0.0000

> <Gold.PLP.part.buried>
-4.6536

> <Gold.PLP.part.nonpolar>
-24.5416

> <Gold.PLP.part.repulsive>
1.0638

> <Gold.PLP.ligand.clash>
0.0000

> <Gold.PLP.ligand.torsion>
0.4628

> <Gold.PLP.Chemscore.Hbond>
3.2800

> <Gold.PLP.Chemscore.CHOScore>
0.0000

> <Gold.PLP.Chemscore.Metal>
0.0000

> <Gold.Chemscore.Hbonds>
donor molecule, donor type, donor heavy atom, donor atom, acceptor molecule, acceptor atom, score
      L1  H     4    26       P1  7948  0.17
      P1  H  7989  7998       L1    18  0.75
      P1  H 10752 10763       L1    19  2.00

> <Gold.PLP.Chemscore.Internal.Correction>
0.1189

> <Gold.Rescore>
     Score         DG    S(hbond)    S(metal)    S(lipo)     H(rot)  DE(clash)    DE(int)     intcor
     12.00     -13.85       2.01        0.00      66.41       2.38       0.07       1.78       ----

> <Gold.Chemscore.Fitness>
12.0033

> <Gold.Chemscore.DG>
-13.8515

> <Gold.Chemscore.ZeroCoef>
-5.4800

> <Gold.Chemscore.Hbond>
2.0053

> <Gold.Chemscore.Metal>
0.0000

> <Gold.Chemscore.Lipo>
66.4091

> <Gold.Chemscore.Internal_Hbond>
0.0000

> <Gold.Chemscore.DEClash>
0.0664

> <Gold.Chemscore.DEInternal>
1.7818

> <Gold.Chemscore.Rot>
2.3812

> <Gold.Chemscore.Internal.Correction>
   9.000000E+99

> <Gold.Chemscore.Hbonds>
donor molecule, donor type, donor heavy atom, donor atom, acceptor molecule, acceptor atom, score
      L1  H     4    26       P1  7948  0.01
      P1  H  7989  7998       L1    18  0.75
      P1  H 10752 10763       L1    19  0.97

> <Gold.Chemscore.Hbond.Weighted>
-6.6976

> <Gold.Chemscore.Metal.Weighted>
-0.0000

> <Gold.Chemscore.Lipo.Weighted>
-7.7699

> <Gold.Chemscore.Internal_Hbond.Weighted>
0.0000

> <Gold.Chemscore.DEClash.Weighted>
0.0664

> <Gold.Chemscore.DEInternal.Weighted>
1.7818

> <Gold.Chemscore.Rot.Weighted>
6.0959

> <Gold.Chemscore.Internal.Correction.Weighted>
   9.000000E+99

> <Gold.Protein.RotatedTorsions>
[ 6907 6896 6895 6894 ] final  -29.36 input  -60.11 | X-H torsion
[ 7974 7965 7964 7962 ] final   -0.68 input  175.53 | X-H torsion
[ 8008 7997 7996 7995 ] final   69.72 input   59.86 | X-H torsion
[ 10167 10162 10161 10158 ] final -151.12 input  -65.29 | X-H torsion
[ 10718 10713 10712 10709 ] final -106.43 input   66.30 | X-H torsion
[ 10763 10752 10751 10750 ] final   44.30 input  -60.55 | X-H torsion
[ 11005 11000 10999 10996 ] final  113.28 input  -57.11 | X-H torsion

> <Gold.Protein.ActiveResidues>
 VAL166  LYS551  ARG553  GLY616  TRP617  ASP618  TYR619  PRO620  LYS621  CYS622 
 ASP623  PHE694  ASN695  SER759  ASP760  ASP761  ALA762  ILE779  LEU786  VAL792 
 PHE793  MET794  SER795  GLU796  ALA797  LYS798  CYS799  TRP800  GLU811  SER814 

> <Gold.Protein.RotatedAtoms>
  151.1203  135.0076  159.8535 H   0  0  0  0  0  0  0  0  0  0  0  0  # atno 6907 bound_to 6896
  152.5447  134.1730  159.8615 H   0  0  0  0  0  0  0  0  0  0  0  0  # atno 6908 bound_to 6896
  151.1788  133.4693  159.2627 H   0  0  0  0  0  0  0  0  0  0  0  0  # atno 6909 bound_to 6896
  146.2425  140.1306  142.8338 H   0  0  0  0  0  0  0  0  0  0  0  0  # atno 7974 bound_to 7965
  155.7279  140.3492  155.5046 H   0  0  0  0  0  0  0  0  0  0  0  0  # atno 8008 bound_to 7997
  155.9209  140.1067  157.1229 H   0  0  0  0  0  0  0  0  0  0  0  0  # atno 8009 bound_to 7997
  154.4069  140.1249  156.4665 H   0  0  0  0  0  0  0  0  0  0  0  0  # atno 8010 bound_to 7997
  139.7295  143.8830  152.2530 H   0  0  0  0  0  0  0  0  0  0  0  0  # atno 10167 bound_to 10162
  156.0390  130.5612  150.7680 H   0  0  0  0  0  0  0  0  0  0  0  0  # atno 10718 bound_to 10713
  152.9844  135.6075  154.3251 H   0  0  0  0  0  0  0  0  0  0  0  0  # atno 10763 bound_to 10752
  154.2958  135.2774  155.2635 H   0  0  0  0  0  0  0  0  0  0  0  0  # atno 10764 bound_to 10752
  154.4910  135.5892  153.6516 H   0  0  0  0  0  0  0  0  0  0  0  0  # atno 10765 bound_to 10752
  139.8949  134.9546  156.6714 H   0  0  0  0  0  0  0  0  0  0  0  0  # atno 11005 bound_to 11000
  145.0329  140.8885  143.5099 LP  0  0  0  0  0  0  0  0  0  0  0  0  # atno 17320 bound_to 7965
  145.1374  139.2594  143.5508 LP  0  0  0  0  0  0  0  0  0  0  0  0  # atno 17321 bound_to 7965
  139.8749  144.7048  150.8944 LP  0  0  0  0  0  0  0  0  0  0  0  0  # atno 17342 bound_to 10162
  140.7769  143.3708  151.1654 LP  0  0  0  0  0  0  0  0  0  0  0  0  # atno 17343 bound_to 10162
  157.5181  131.0930  151.0113 LP  0  0  0  0  0  0  0  0  0  0  0  0  # atno 17370 bound_to 10713
  157.0451  130.5764  149.5362 LP  0  0  0  0  0  0  0  0  0  0  0  0  # atno 17371 bound_to 10713
  140.7370  133.9010  155.8251 LP  0  0  0  0  0  0  0  0  0  0  0  0  # atno 17394 bound_to 11000
  141.0108  134.1023  157.4223 LP  0  0  0  0  0  0  0  0  0  0  0  0  # atno 17395 bound_to 11000

$$$$
