AV-unprocessed.smi:3029|AV-procd|sdf|11531|dock7
  -GOLD-   2272016473D 1   1.00000     0.00000
 Structure written by MMmdl.
 41 42  0  0  0  0  0  0  0  0  3 V2000
  146.9677  141.1697  154.3584 O   0  0  0  0  0  0  0  0  0  0  0  0
  148.0604  140.6210  154.5012 C   0  0  0  0  0  0  0  0  0  0  0  0
  149.1754  141.2775  155.1911 C   0  0  0  0  0  0  0  0  0  0  0  0
  150.3624  140.6631  155.3633 C   0  0  0  0  0  0  0  0  0  0  0  0
  150.5729  139.3170  154.8663 C   0  0  0  0  0  0  0  0  0  0  0  0
  151.8364  138.6410  155.0636 N   0  3  0  0  0  0  0  0  0  0  0  0
  151.9373  137.4610  154.7416 O   0  0  0  0  0  0  0  0  0  0  0  0
  152.7708  139.2706  155.5490 O   0  5  0  0  0  0  0  0  0  0  0  0
  149.5504  138.7199  154.2228 C   0  0  0  0  0  0  0  0  0  0  0  0
  148.3119  139.3619  154.0298 N   0  0  0  0  0  0  0  0  0  0  0  0
  147.2727  138.6065  153.3187 C   0  0  0  0  0  0  0  0  0  0  0  0
  146.8722  137.3474  154.1025 C   0  0  0  0  0  0  0  0  0  0  0  0
  146.7608  136.2198  153.1903 N   0  0  0  0  0  0  0  0  0  0  0  0
  146.3025  135.0115  153.8714 C   0  0  2  0  0  0  0  0  0  0  0  0
  147.3508  134.6207  154.9348 C   0  0  0  0  0  0  0  0  0  0  0  0
  148.6319  134.0293  154.3203 C   0  0  0  0  0  0  0  0  0  0  0  0
  148.3178  132.8589  153.3793 C   0  0  0  0  0  0  0  0  0  0  0  0
  147.3224  133.2756  152.2865 C   0  0  0  0  0  0  0  0  0  0  0  0
  146.0174  133.8396  152.8893 C   0  0  2  0  0  0  0  0  0  0  0  0
  144.9425  134.1319  151.8167 C   0  0  0  0  0  0  0  0  0  0  0  0
  144.6985  133.0649  151.0551 F   0  0  0  0  0  0  0  0  0  0  0  0
  143.8051  134.4902  152.4129 F   0  0  0  0  0  0  0  0  0  0  0  0
  145.3337  135.1429  151.0408 F   0  0  0  0  0  0  0  0  0  0  0  0
  149.0405  142.2803  155.5695 H   0  0  0  0  0  0  0  0  0  0  0  0
  151.1544  141.1883  155.8765 H   0  0  0  0  0  0  0  0  0  0  0  0
  149.6030  137.7179  153.8211 H   0  0  0  0  0  0  0  0  0  0  0  0
  146.3978  139.2359  153.1439 H   0  0  0  0  0  0  0  0  0  0  0  0
  147.6240  138.3277  152.3238 H   0  0  0  0  0  0  0  0  0  0  0  0
  147.6183  137.1263  154.8668 H   0  0  0  0  0  0  0  0  0  0  0  0
  145.9227  137.5105  154.6113 H   0  0  0  0  0  0  0  0  0  0  0  0
  147.6615  136.0470  152.7670 H   0  0  0  0  0  0  0  0  0  0  0  0
  145.3800  135.2392  154.4084 H   0  0  0  0  0  0  0  0  0  0  0  0
  147.5968  135.4780  155.5631 H   0  0  0  0  0  0  0  0  0  0  0  0
  146.9112  133.8789  155.6027 H   0  0  0  0  0  0  0  0  0  0  0  0
  149.1680  134.8040  153.7707 H   0  0  0  0  0  0  0  0  0  0  0  0
  149.3029  133.6975  155.1130 H   0  0  0  0  0  0  0  0  0  0  0  0
  149.2381  132.4938  152.9224 H   0  0  0  0  0  0  0  0  0  0  0  0
  147.9064  132.0273  153.9530 H   0  0  0  0  0  0  0  0  0  0  0  0
  147.7820  134.0197  151.6349 H   0  0  0  0  0  0  0  0  0  0  0  0
  147.1020  132.4133  151.6569 H   0  0  0  0  0  0  0  0  0  0  0  0
  145.6006  133.0399  153.5042 H   0  0  0  0  0  0  0  0  0  0  0  0
  1  2  2  0  0  0  0
  2 10  1  0  0  0  0
  2  3  1  0  0  0  0
  3  4  2  0  0  0  0
  3 24  1  0  0  0  0
  4  5  1  0  0  0  0
  4 25  1  0  0  0  0
  5  6  1  0  0  0  0
  5  9  2  0  0  0  0
  6  7  2  0  0  0  0
  6  8  1  0  0  0  0
  9 10  1  0  0  0  0
  9 26  1  0  0  0  0
 10 11  1  0  0  0  0
 11 12  1  0  0  0  0
 11 27  1  0  0  0  0
 11 28  1  0  0  0  0
 12 13  1  0  0  0  0
 12 29  1  0  0  0  0
 12 30  1  0  0  0  0
 13 14  1  0  0  0  0
 13 31  1  0  0  0  0
 14 19  1  0  0  0  0
 14 15  1  0  0  0  0
 14 32  1  0  0  0  0
 15 16  1  0  0  0  0
 15 33  1  0  0  0  0
 15 34  1  0  0  0  0
 16 17  1  0  0  0  0
 16 35  1  0  0  0  0
 16 36  1  0  0  0  0
 17 18  1  0  0  0  0
 17 37  1  0  0  0  0
 17 38  1  0  0  0  0
 18 19  1  0  0  0  0
 18 39  1  0  0  0  0
 18 40  1  0  0  0  0
 19 20  1  0  0  0  0
 19 41  1  0  0  0  0
 20 21  1  0  0  0  0
 20 22  1  0  0  0  0
 20 23  1  0  0  0  0
M  CHG  1   6   1
M  CHG  1   8  -1
M  END
> <s_m_source_file>
AV-unprocessed.smi

> <i_m_source_file_index>
3029

> <i_lp_mmshare_version>
43012

> <i_f3d_flags>
0

> <s_epik_input>
Tz1jMVtjSF1bY0hdYyhbTitdKD1PKVtPLV0pW2NIXW4xW0NIMl1bQ0gyXVtOSF1bQ0BASF0yW0NIMl1bQ0gyXVtDSDJdW0NIMl1bQ0BIXTJDKEYpKEYpRg==

> <s_epik_cmdline>
J2VwaWtfcHl0aG9uJywgJy1waCcsICc3LjAnLCAnLXRuJywgJzgnLCAnLW1hJywgJzIwMCcsICctbWV0YWxfYmluZGluZycsICctaW1hZScsICc8aW5maWxlLm1hZT4nLCAnLW9tYWUnLCAnPG91dGZpbGUubWFlPic=

> <r_lp_tautomer_probability>
1

> <r_epik_Ionization_Penalty>
1.65565

> <r_epik_Ionization_Penalty_Charging>
3.32684e-10

> <r_epik_Ionization_Penalty_Neutral>
1.65565

> <r_epik_State_Penalty>
1.75811

> <r_epik_Charging_Adjusted_Penalty>
1.75811

> <i_epik_Tot_Q>
0

> <i_epik_Tot_abs_Q>
2

> <r_epik_Metal_State_Penalty>
1.75811

> <b_epik_Metal_Only>
0

> <s_lp_Force_Field>
OPLS_2005

> <r_lp_Energy>
35.9342

> <b_lp_Chiralities_Consistent>
1

> <s_lp_Variant>
AV-unprocessed.smi:3029-7

> <Gold.Version>
5.8.1

> <Gold.Id.Protein>
6NUR|6NUR_protein|mol2

> <Gold.PLP.Fitness>
52.2535

> <Gold.PLP.PLP>
-41.0467

> <Gold.PLP.part.hbond>
-3.0000

> <Gold.PLP.part.metal>
0.0000

> <Gold.PLP.part.buried>
-2.1557

> <Gold.PLP.part.nonpolar>
-36.4006

> <Gold.PLP.part.repulsive>
0.2710

> <Gold.PLP.ligand.clash>
0.0000

> <Gold.PLP.ligand.torsion>
0.4010

> <Gold.PLP.Chemscore.Hbond>
2.9600

> <Gold.PLP.Chemscore.CHOScore>
1.0000

> <Gold.PLP.Chemscore.Metal>
0.0000

> <Gold.Chemscore.Hbonds>
donor molecule, donor type, donor heavy atom, donor atom, acceptor molecule, acceptor atom, score
      L1  H    13    31       P1  7948  1.00
      P1  H  7997  8008       L1     8  1.00
      P1  H 10752 10765       L1     7  0.76
      L1  C     9    26       P1  7948  1.00

> <Gold.PLP.Chemscore.Internal.Correction>
0.1287

> <Gold.Rescore>
     Score         DG    S(hbond)    S(metal)    S(lipo)     H(rot)  DE(clash)    DE(int)     intcor
     15.72     -17.54       2.81        0.00      63.48       1.86       0.01       1.81       ----

> <Gold.Chemscore.Fitness>
15.7165

> <Gold.Chemscore.DG>
-17.5396

> <Gold.Chemscore.ZeroCoef>
-5.4800

> <Gold.Chemscore.Hbond>
2.8114

> <Gold.Chemscore.Metal>
0.0000

> <Gold.Chemscore.Lipo>
63.4785

> <Gold.Chemscore.Internal_Hbond>
0.0000

> <Gold.Chemscore.DEClash>
0.0135

> <Gold.Chemscore.DEInternal>
1.8096

> <Gold.Chemscore.Rot>
1.8584

> <Gold.Chemscore.Internal.Correction>
   9.000000E+99

> <Gold.Chemscore.Hbonds>
donor molecule, donor type, donor heavy atom, donor atom, acceptor molecule, acceptor atom, score
      L1  H    13    31       P1  7948  0.98
      P1  H  7997  8008       L1     8  1.00
      P1  H 10752 10765       L1     7  0.72

> <Gold.Chemscore.Hbond.Weighted>
-9.3902

> <Gold.Chemscore.Metal.Weighted>
-0.0000

> <Gold.Chemscore.Lipo.Weighted>
-7.4270

> <Gold.Chemscore.Internal_Hbond.Weighted>
0.0000

> <Gold.Chemscore.DEClash.Weighted>
0.0135

> <Gold.Chemscore.DEInternal.Weighted>
1.8096

> <Gold.Chemscore.Rot.Weighted>
4.7576

> <Gold.Chemscore.Internal.Correction.Weighted>
   9.000000E+99

> <Gold.Protein.RotatedTorsions>
[ 6907 6896 6895 6894 ] final  150.54 input  -60.11 | X-H torsion
[ 7974 7965 7964 7962 ] final -109.78 input  175.53 | X-H torsion
[ 8008 7997 7996 7995 ] final  -29.01 input   59.86 | X-H torsion
[ 10167 10162 10161 10158 ] final   19.63 input  -65.29 | X-H torsion
[ 10718 10713 10712 10709 ] final -155.58 input   66.30 | X-H torsion
[ 10763 10752 10751 10750 ] final  169.70 input  -60.55 | X-H torsion
[ 11005 11000 10999 10996 ] final -126.15 input  -57.11 | X-H torsion

> <Gold.Protein.ActiveResidues>
 VAL166  LYS551  ARG553  GLY616  TRP617  ASP618  TYR619  PRO620  LYS621  CYS622 
 ASP623  PHE694  ASN695  SER759  ASP760  ASP761  ALA762  ILE779  LEU786  VAL792 
 PHE793  MET794  SER795  GLU796  ALA797  LYS798  CYS799  TRP800  GLU811  SER814 

> <Gold.Protein.RotatedAtoms>
  152.1130  133.4311  159.4639 H   0  0  0  0  0  0  0  0  0  0  0  0  # atno 6907 bound_to 6896
  150.6868  134.2626  159.4564 H   0  0  0  0  0  0  0  0  0  0  0  0  # atno 6908 bound_to 6896
  152.0496  134.9661  160.0625 H   0  0  0  0  0  0  0  0  0  0  0  0  # atno 6909 bound_to 6896
  145.1763  140.8950  143.3505 H   0  0  0  0  0  0  0  0  0  0  0  0  # atno 7974 bound_to 7965
  154.4308  140.1830  156.1180 H   0  0  0  0  0  0  0  0  0  0  0  0  # atno 8008 bound_to 7997
  156.0166  140.3345  155.6970 H   0  0  0  0  0  0  0  0  0  0  0  0  # atno 8009 bound_to 7997
  155.6036  140.0643  157.2717 H   0  0  0  0  0  0  0  0  0  0  0  0  # atno 8010 bound_to 7997
  140.5565  143.9415  150.6613 H   0  0  0  0  0  0  0  0  0  0  0  0  # atno 10167 bound_to 10162
  156.5147  130.8451  151.2660 H   0  0  0  0  0  0  0  0  0  0  0  0  # atno 10718 bound_to 10713
  154.3869  135.2754  155.2178 H   0  0  0  0  0  0  0  0  0  0  0  0  # atno 10763 bound_to 10752
  154.4261  135.5988  153.6043 H   0  0  0  0  0  0  0  0  0  0  0  0  # atno 10764 bound_to 10752
  152.9833  135.5984  154.4119 H   0  0  0  0  0  0  0  0  0  0  0  0  # atno 10765 bound_to 10752
  140.9705  134.0813  157.3875 H   0  0  0  0  0  0  0  0  0  0  0  0  # atno 11005 bound_to 11000
  145.0181  139.3449  143.6086 LP  0  0  0  0  0  0  0  0  0  0  0  0  # atno 17320 bound_to 7965
  146.3460  139.9470  142.8733 LP  0  0  0  0  0  0  0  0  0  0  0  0  # atno 17321 bound_to 7965
  140.2855  143.3360  152.1111 LP  0  0  0  0  0  0  0  0  0  0  0  0  # atno 17342 bound_to 10162
  139.5050  144.6787  151.6064 LP  0  0  0  0  0  0  0  0  0  0  0  0  # atno 17343 bound_to 10162
  157.7445  130.9937  150.2683 LP  0  0  0  0  0  0  0  0  0  0  0  0  # atno 17370 bound_to 10713
  156.3206  130.3785  149.7578 LP  0  0  0  0  0  0  0  0  0  0  0  0  # atno 17371 bound_to 10713
  139.8910  135.0116  156.6769 LP  0  0  0  0  0  0  0  0  0  0  0  0  # atno 17394 bound_to 11000
  140.7336  133.9037  155.8229 LP  0  0  0  0  0  0  0  0  0  0  0  0  # atno 17395 bound_to 11000

$$$$
