AV-unprocessed.smi:1381|AV-procd|sdf|5604|dock5
  -GOLD-   22720 5213D 1   1.00000     0.00000
 Structure written by MMmdl.
 42 43  0  0  0  0  0  0  0  0  1 V2000
  137.8200  137.3704  154.0161 C   0  0  0  0  0  0  0  0  0  0  0  0
  139.2705  137.5678  154.2950 C   0  0  0  0  0  0  0  0  0  0  0  0
  140.1710  138.5196  153.9068 C   0  0  0  0  0  0  0  0  0  0  0  0
  141.3745  138.0942  154.5294 C   0  0  0  0  0  0  0  0  0  0  0  0
  142.5772  138.8275  154.3649 N   0  0  0  0  0  0  0  0  0  0  0  0
  143.6135  138.9024  155.2173 C   0  0  0  0  0  0  0  0  0  0  0  0
  143.6734  138.3424  156.3124 O   0  0  0  0  0  0  0  0  0  0  0  0
  144.5927  139.6761  154.7273 N   0  0  0  0  0  0  0  0  0  0  0  0
  145.8421  139.9813  155.4169 C   0  0  0  0  0  0  0  0  0  0  0  0
  147.0261  140.0978  154.4370 C   0  0  0  0  0  0  0  0  0  0  0  0
  148.3533  140.0995  155.0539 N   0  0  0  0  0  0  0  0  0  0  0  0
  149.0173  141.3970  154.9520 C   0  0  0  0  0  0  0  0  0  0  0  0
  150.4296  141.3939  155.5711 C   0  0  1  0  0  0  0  0  0  0  0  0
  150.4198  141.3785  157.1095 C   0  0  0  0  0  0  0  0  0  0  0  0
  151.2040  140.3200  155.0352 O   0  0  0  0  0  0  0  0  0  0  0  0
  150.5960  139.0322  155.1167 C   0  0  2  0  0  0  0  0  0  0  0  0
  151.5244  138.0242  154.4309 C   0  0  0  0  0  0  0  0  0  0  0  0
  149.2069  139.0811  154.4560 C   0  0  0  0  0  0  0  0  0  0  0  0
  141.2220  136.9842  155.2359 N   0  0  0  0  0  0  0  0  0  0  0  0
  139.8727  136.6414  155.0893 O   0  0  0  0  0  0  0  0  0  0  0  0
  137.3987  138.2398  153.5112 H   0  0  0  0  0  0  0  0  0  0  0  0
  137.2647  137.2149  154.9412 H   0  0  0  0  0  0  0  0  0  0  0  0
  137.6649  136.5006  153.3773 H   0  0  0  0  0  0  0  0  0  0  0  0
  139.9945  139.3790  153.2770 H   0  0  0  0  0  0  0  0  0  0  0  0
  142.6604  139.3446  153.5023 H   0  0  0  0  0  0  0  0  0  0  0  0
  144.4588  140.1008  153.8214 H   0  0  0  0  0  0  0  0  0  0  0  0
  145.7348  140.9121  155.9762 H   0  0  0  0  0  0  0  0  0  0  0  0
  146.0262  139.2085  156.1624 H   0  0  0  0  0  0  0  0  0  0  0  0
  146.9619  139.2631  153.7376 H   0  0  0  0  0  0  0  0  0  0  0  0
  146.9031  140.9970  153.8318 H   0  0  0  0  0  0  0  0  0  0  0  0
  149.0943  141.6820  153.9016 H   0  0  0  0  0  0  0  0  0  0  0  0
  148.4225  142.1703  155.4373 H   0  0  0  0  0  0  0  0  0  0  0  0
  150.9303  142.3133  155.2661 H   0  0  0  0  0  0  0  0  0  0  0  0
  149.9298  142.2692  157.5030 H   0  0  0  0  0  0  0  0  0  0  0  0
  151.4357  141.3595  157.5040 H   0  0  0  0  0  0  0  0  0  0  0  0
  149.8901  140.5136  157.5080 H   0  0  0  0  0  0  0  0  0  0  0  0
  150.4917  138.7459  156.1638 H   0  0  0  0  0  0  0  0  0  0  0  0
  151.1113  137.0161  154.4755 H   0  0  0  0  0  0  0  0  0  0  0  0
  152.5017  138.0042  154.9136 H   0  0  0  0  0  0  0  0  0  0  0  0
  151.6764  138.2784  153.3816 H   0  0  0  0  0  0  0  0  0  0  0  0
  148.7328  138.1033  154.5489 H   0  0  0  0  0  0  0  0  0  0  0  0
  149.3168  139.2733  153.3875 H   0  0  0  0  0  0  0  0  0  0  0  0
  1  2  1  0  0  0  0
  1 21  1  0  0  0  0
  1 22  1  0  0  0  0
  1 23  1  0  0  0  0
  2 20  1  0  0  0  0
  2  3  2  0  0  0  0
  3  4  1  0  0  0  0
  3 24  1  0  0  0  0
  4  5  1  0  0  0  0
  4 19  2  0  0  0  0
  5  6  1  0  0  0  0
  5 25  1  0  0  0  0
  6  7  2  0  0  0  0
  6  8  1  0  0  0  0
  8  9  1  0  0  0  0
  8 26  1  0  0  0  0
  9 10  1  0  0  0  0
  9 27  1  0  0  0  0
  9 28  1  0  0  0  0
 10 11  1  0  0  0  0
 10 29  1  0  0  0  0
 10 30  1  0  0  0  0
 11 18  1  0  0  0  0
 11 12  1  0  0  0  0
 12 13  1  0  0  0  0
 12 31  1  0  0  0  0
 12 32  1  0  0  0  0
 13 14  1  0  0  0  0
 13 15  1  0  0  0  0
 13 33  1  0  0  0  0
 14 34  1  0  0  0  0
 14 35  1  0  0  0  0
 14 36  1  0  0  0  0
 15 16  1  0  0  0  0
 16 17  1  0  0  0  0
 16 18  1  0  0  0  0
 16 37  1  0  0  0  0
 17 38  1  0  0  0  0
 17 39  1  0  0  0  0
 17 40  1  0  0  0  0
 18 41  1  0  0  0  0
 18 42  1  0  0  0  0
 19 20  1  0  0  0  0
M  END
> <s_m_source_file>
AV-unprocessed.smi

> <i_m_source_file_index>
1381

> <i_lp_mmshare_version>
43012

> <i_f3d_flags>
0

> <s_epik_input>
W0NIM11jMVtjSF1jKG5vMSlbTkhdQyg9TylbTkhdW0NIMl1bQ0gyXU4yW0NIMl1bQ0BASF0oW0NIM10pT1tDQEBIXShbQ0gzXSlbQ0gyXTI=

> <s_epik_cmdline>
J2VwaWtfcHl0aG9uJywgJy1waCcsICc3LjAnLCAnLXRuJywgJzgnLCAnLW1hJywgJzIwMCcsICctbWV0YWxfYmluZGluZycsICctaW1hZScsICc8aW5maWxlLm1hZT4nLCAnLW9tYWUnLCAnPG91dGZpbGUubWFlPic=

> <r_epik_Ionization_Penalty>
0.214073

> <r_epik_Ionization_Penalty_Charging>
0

> <r_epik_Ionization_Penalty_Neutral>
0.214073

> <r_epik_State_Penalty>
0.204211

> <r_epik_Charging_Adjusted_Penalty>
0.204211

> <i_epik_Tot_Q>
0

> <i_epik_Tot_abs_Q>
0

> <r_epik_Metal_State_Penalty>
0.217067

> <b_epik_Metal_Only>
0

> <s_lp_Force_Field>
OPLS_2005

> <r_lp_Energy>
24.2919

> <b_lp_Chiralities_Consistent>
1

> <s_lp_Variant>
AV-unprocessed.smi:1381-3

> <Gold.Version>
5.8.1

> <Gold.Id.Protein>
6NUR|6NUR_protein|mol2

> <Gold.PLP.Fitness>
39.9180

> <Gold.PLP.PLP>
-30.1332

> <Gold.PLP.part.hbond>
-4.4245

> <Gold.PLP.part.metal>
0.0000

> <Gold.PLP.part.buried>
-4.3210

> <Gold.PLP.part.nonpolar>
-21.0284

> <Gold.PLP.part.repulsive>
0.1869

> <Gold.PLP.ligand.clash>
0.0000

> <Gold.PLP.ligand.torsion>
1.0996

> <Gold.PLP.Chemscore.Hbond>
3.9920

> <Gold.PLP.Chemscore.CHOScore>
0.0000

> <Gold.PLP.Chemscore.Metal>
0.0000

> <Gold.Chemscore.Hbonds>
donor molecule, donor type, donor heavy atom, donor atom, acceptor molecule, acceptor atom, score
      L1  H     5    25       P1 10175  0.98
      L1  H     8    26       P1 10175  1.00
      P1  H  7989  7998       L1    15  1.00
      P1  H 11000 11005       L1    20  0.78

> <Gold.PLP.Chemscore.Internal.Correction>
0.0080

> <Gold.Rescore>
     Score         DG    S(hbond)    S(metal)    S(lipo)     H(rot)  DE(clash)    DE(int)     intcor
     17.35     -19.62       3.05        0.00      68.23       1.57       0.14       2.13       ----

> <Gold.Chemscore.Fitness>
17.3512

> <Gold.Chemscore.DG>
-19.6177

> <Gold.Chemscore.ZeroCoef>
-5.4800

> <Gold.Chemscore.Hbond>
3.0459

> <Gold.Chemscore.Metal>
0.0000

> <Gold.Chemscore.Lipo>
68.2296

> <Gold.Chemscore.Internal_Hbond>
0.0000

> <Gold.Chemscore.DEClash>
0.1394

> <Gold.Chemscore.DEInternal>
2.1272

> <Gold.Chemscore.Rot>
1.5697

> <Gold.Chemscore.Internal.Correction>
   9.000000E+99

> <Gold.Chemscore.Hbonds>
donor molecule, donor type, donor heavy atom, donor atom, acceptor molecule, acceptor atom, score
      L1  H     5    25       P1 10175  0.93
      L1  H     8    26       P1 10175  0.97
      P1  H  7989  7998       L1    15  0.37
      P1  H 11000 11005       L1    20  0.15

> <Gold.Chemscore.Hbond.Weighted>
-10.1733

> <Gold.Chemscore.Metal.Weighted>
-0.0000

> <Gold.Chemscore.Lipo.Weighted>
-7.9829

> <Gold.Chemscore.Internal_Hbond.Weighted>
0.0000

> <Gold.Chemscore.DEClash.Weighted>
0.1394

> <Gold.Chemscore.DEInternal.Weighted>
2.1272

> <Gold.Chemscore.Rot.Weighted>
4.0185

> <Gold.Chemscore.Internal.Correction.Weighted>
   9.000000E+99

> <Gold.Protein.RotatedTorsions>
[ 6907 6896 6895 6894 ] final   64.30 input  -60.11 | X-H torsion
[ 7974 7965 7964 7962 ] final  -95.04 input  175.53 | X-H torsion
[ 8008 7997 7996 7995 ] final  148.66 input   59.86 | X-H torsion
[ 10167 10162 10161 10158 ] final   50.86 input  -65.29 | X-H torsion
[ 10718 10713 10712 10709 ] final -150.11 input   66.30 | X-H torsion
[ 10763 10752 10751 10750 ] final  -63.46 input  -60.55 | X-H torsion
[ 11005 11000 10999 10996 ] final   86.03 input  -57.11 | X-H torsion

> <Gold.Protein.ActiveResidues>
 VAL166  LYS551  ARG553  GLY616  TRP617  ASP618  TYR619  PRO620  LYS621  CYS622 
 ASP623  PHE694  ASN695  SER759  ASP760  ASP761  ALA762  ILE779  LEU786  VAL792 
 PHE793  MET794  SER795  GLU796  ALA797  LYS798  CYS799  TRP800  GLU811  SER814 

> <Gold.Protein.RotatedAtoms>
  152.4320  134.5759  159.9933 H   0  0  0  0  0  0  0  0  0  0  0  0  # atno 6907 bound_to 6896
  151.5879  133.3364  159.3029 H   0  0  0  0  0  0  0  0  0  0  0  0  # atno 6908 bound_to 6896
  150.8214  134.7460  159.6840 H   0  0  0  0  0  0  0  0  0  0  0  0  # atno 6909 bound_to 6896
  145.3653  140.9498  143.2477 H   0  0  0  0  0  0  0  0  0  0  0  0  # atno 7974 bound_to 7965
  156.2783  140.2123  156.5733 H   0  0  0  0  0  0  0  0  0  0  0  0  # atno 8008 bound_to 7997
  154.7118  140.0511  157.0580 H   0  0  0  0  0  0  0  0  0  0  0  0  # atno 8009 bound_to 7997
  155.0596  140.3165  155.4668 H   0  0  0  0  0  0  0  0  0  0  0  0  # atno 8010 bound_to 7997
  140.2680  144.3297  150.6298 H   0  0  0  0  0  0  0  0  0  0  0  0  # atno 10167 bound_to 10162
  156.4418  130.8125  151.2355 H   0  0  0  0  0  0  0  0  0  0  0  0  # atno 10718 bound_to 10713
  154.3154  135.6207  153.5484 H   0  0  0  0  0  0  0  0  0  0  0  0  # atno 10763 bound_to 10752
  152.9825  135.5711  154.5130 H   0  0  0  0  0  0  0  0  0  0  0  0  # atno 10764 bound_to 10752
  154.4788  135.2862  155.1563 H   0  0  0  0  0  0  0  0  0  0  0  0  # atno 10765 bound_to 10752
  139.8955  134.8327  156.2664 H   0  0  0  0  0  0  0  0  0  0  0  0  # atno 11005 bound_to 11000
  144.8616  139.5169  143.6809 LP  0  0  0  0  0  0  0  0  0  0  0  0  # atno 17320 bound_to 7965
  146.2909  139.7137  142.9161 LP  0  0  0  0  0  0  0  0  0  0  0  0  # atno 17321 bound_to 7965
  140.5912  143.2168  151.7249 LP  0  0  0  0  0  0  0  0  0  0  0  0  # atno 17342 bound_to 10162
  139.4997  144.3936  152.0255 LP  0  0  0  0  0  0  0  0  0  0  0  0  # atno 17343 bound_to 10162
  157.7506  131.0166  150.3550 LP  0  0  0  0  0  0  0  0  0  0  0  0  # atno 17370 bound_to 10713
  156.3909  130.3898  149.7030 LP  0  0  0  0  0  0  0  0  0  0  0  0  # atno 17371 bound_to 10713
  141.0129  133.7085  156.1141 LP  0  0  0  0  0  0  0  0  0  0  0  0  # atno 17394 bound_to 11000
  140.7342  134.4221  157.5562 LP  0  0  0  0  0  0  0  0  0  0  0  0  # atno 17395 bound_to 11000

$$$$
