AV-unprocessed.smi:1295|AV-procd|sdf|5408|dock3
  -GOLD-   22720 4563D 1   1.00000     0.00000
 Structure written by MMmdl.
 43 44  0  0  0  0  0  0  0  0  1 V2000
  146.4177  138.2573  152.1869 C   0  0  0  0  0  0  0  0  0  0  0  0
  147.2248  139.2748  152.9639 C   0  0  0  0  0  0  0  0  0  0  0  0
  146.5502  140.4627  153.1932 N   0  0  0  0  0  0  0  0  0  0  0  0
  147.2094  141.4561  153.8954 C   0  0  0  0  0  0  0  0  0  0  0  0
  146.4015  142.7261  154.1007 C   0  0  0  0  0  0  0  0  0  0  0  0
  148.4773  141.2758  154.3448 C   0  0  0  0  0  0  0  0  0  0  0  0
  149.2398  142.3514  155.1163 C   0  0  0  0  0  0  0  0  0  0  0  0
  149.7440  141.9363  156.5003 C   0  0  0  0  0  0  0  0  0  0  0  0
  149.4645  140.8265  156.9534 O   0  0  0  0  0  0  0  0  0  0  0  0
  150.4898  142.8396  157.1552 N   0  0  0  0  0  0  0  0  0  0  0  0
  151.1132  142.6517  158.4646 C   0  0  1  0  0  0  0  0  0  0  0  0
  151.9156  141.3362  158.4404 C   0  0  0  0  0  0  0  0  0  0  0  0
  152.6539  141.0956  159.7647 C   0  0  0  0  0  0  0  0  0  0  0  0
  153.5660  142.2808  160.1071 C   0  0  0  0  0  0  0  0  0  0  0  0
  152.7691  143.5931  160.1502 C   0  0  0  0  0  0  0  0  0  0  0  0
  152.0173  143.8576  158.8294 C   0  0  2  0  0  0  0  0  0  0  0  0
  151.2369  145.1818  158.9119 C   0  0  0  0  0  0  0  0  0  0  0  0
  149.1489  139.9845  154.0651 C   0  0  0  0  0  0  0  0  0  0  0  0
  150.3006  139.7633  154.4364 O   0  0  0  0  0  0  0  0  0  0  0  0
  148.4345  139.0078  153.3523 N   0  0  0  0  0  0  0  0  0  0  0  0
  145.6089  140.6395  152.8737 H   0  0  0  0  0  0  0  0  0  0  0  0
  146.9227  137.2907  152.1697 H   0  0  0  0  0  0  0  0  0  0  0  0
  146.2809  138.5895  151.1576 H   0  0  0  0  0  0  0  0  0  0  0  0
  145.4358  138.1190  152.6407 H   0  0  0  0  0  0  0  0  0  0  0  0
  146.2547  142.9172  155.1638 H   0  0  0  0  0  0  0  0  0  0  0  0
  145.4174  142.6565  153.6354 H   0  0  0  0  0  0  0  0  0  0  0  0
  146.9169  143.5818  153.6640 H   0  0  0  0  0  0  0  0  0  0  0  0
  148.6344  143.2509  155.2305 H   0  0  0  0  0  0  0  0  0  0  0  0
  150.0903  142.6655  154.5099 H   0  0  0  0  0  0  0  0  0  0  0  0
  150.6568  143.7257  156.7009 H   0  0  0  0  0  0  0  0  0  0  0  0
  150.3455  142.5546  159.2346 H   0  0  0  0  0  0  0  0  0  0  0  0
  151.2491  140.4970  158.2368 H   0  0  0  0  0  0  0  0  0  0  0  0
  152.6397  141.3594  157.6245 H   0  0  0  0  0  0  0  0  0  0  0  0
  151.9292  140.9467  160.5662 H   0  0  0  0  0  0  0  0  0  0  0  0
  153.2408  140.1788  159.7028 H   0  0  0  0  0  0  0  0  0  0  0  0
  154.0516  142.1093  161.0680 H   0  0  0  0  0  0  0  0  0  0  0  0
  154.3630  142.3583  159.3666 H   0  0  0  0  0  0  0  0  0  0  0  0
  152.0579  143.5563  160.9765 H   0  0  0  0  0  0  0  0  0  0  0  0
  153.4467  144.4203  160.3655 H   0  0  0  0  0  0  0  0  0  0  0  0
  152.7660  143.9687  158.0436 H   0  0  0  0  0  0  0  0  0  0  0  0
  150.4358  145.1227  159.6492 H   0  0  0  0  0  0  0  0  0  0  0  0
  150.7888  145.4461  157.9541 H   0  0  0  0  0  0  0  0  0  0  0  0
  151.8915  146.0053  159.1979 H   0  0  0  0  0  0  0  0  0  0  0  0
  1 22  1  0  0  0  0
  1 23  1  0  0  0  0
  1 24  1  0  0  0  0
  1  2  1  0  0  0  0
  2  3  1  0  0  0  0
  2 20  2  0  0  0  0
  3  4  1  0  0  0  0
  3 21  1  0  0  0  0
  4  6  2  0  0  0  0
  4  5  1  0  0  0  0
  5 25  1  0  0  0  0
  5 26  1  0  0  0  0
  5 27  1  0  0  0  0
  6 18  1  0  0  0  0
  6  7  1  0  0  0  0
  7  8  1  0  0  0  0
  7 28  1  0  0  0  0
  7 29  1  0  0  0  0
  8  9  2  0  0  0  0
  8 10  1  0  0  0  0
 10 11  1  0  0  0  0
 10 30  1  0  0  0  0
 11 16  1  0  0  0  0
 11 12  1  0  0  0  0
 11 31  1  0  0  0  0
 12 13  1  0  0  0  0
 12 32  1  0  0  0  0
 12 33  1  0  0  0  0
 13 14  1  0  0  0  0
 13 34  1  0  0  0  0
 13 35  1  0  0  0  0
 14 15  1  0  0  0  0
 14 36  1  0  0  0  0
 14 37  1  0  0  0  0
 15 16  1  0  0  0  0
 15 38  1  0  0  0  0
 15 39  1  0  0  0  0
 16 17  1  0  0  0  0
 16 40  1  0  0  0  0
 17 41  1  0  0  0  0
 17 42  1  0  0  0  0
 17 43  1  0  0  0  0
 18 19  2  0  0  0  0
 18 20  1  0  0  0  0
M  END
> <s_m_source_file>
AV-unprocessed.smi

> <i_m_source_file_index>
1295

> <i_lp_mmshare_version>
43012

> <i_f3d_flags>
0

> <s_epik_input>
W0NIM11jMW5jKFtDSDNdKWMoYyg9TylbbkhdMSlbQ0gyXUMoPU8pW05IXVtDQEBIXTJbQ0gyXVtDSDJdW0NIMl1bQ0gyXVtDQEhdMltDSDNd

> <s_epik_cmdline>
J2VwaWtfcHl0aG9uJywgJy1waCcsICc3LjAnLCAnLXRuJywgJzgnLCAnLW1hJywgJzIwMCcsICctbWV0YWxfYmluZGluZycsICctaW1hZScsICc8aW5maWxlLm1hZT4nLCAnLW9tYWUnLCAnPG91dGZpbGUubWFlPic=

> <r_lp_tautomer_probability>
0.156392

> <r_epik_Ionization_Penalty>
0.0136057

> <r_epik_Ionization_Penalty_Charging>
0.0134742

> <r_epik_Ionization_Penalty_Neutral>
0.000131572

> <r_epik_State_Penalty>
1.15342

> <r_epik_Charging_Adjusted_Penalty>
1.16689

> <i_epik_Tot_Q>
0

> <i_epik_Tot_abs_Q>
0

> <r_epik_Metal_State_Penalty>
1.31351

> <b_epik_Metal_Only>
0

> <s_lp_Force_Field>
OPLS_2005

> <r_lp_Energy>
15.3725

> <b_lp_Chiralities_Consistent>
1

> <s_lp_Variant>
AV-unprocessed.smi:1295-8

> <Gold.Version>
5.8.1

> <Gold.Id.Protein>
6NUR|6NUR_protein|mol2

> <Gold.PLP.Fitness>
47.4767

> <Gold.PLP.PLP>
-41.2892

> <Gold.PLP.part.hbond>
-3.0000

> <Gold.PLP.part.metal>
0.0000

> <Gold.PLP.part.buried>
1.4471

> <Gold.PLP.part.nonpolar>
-42.5213

> <Gold.PLP.part.repulsive>
2.7871

> <Gold.PLP.ligand.clash>
0.0000

> <Gold.PLP.ligand.torsion>
0.0774

> <Gold.PLP.Chemscore.Hbond>
2.1114

> <Gold.PLP.Chemscore.CHOScore>
0.0000

> <Gold.PLP.Chemscore.Metal>
0.0000

> <Gold.Chemscore.Hbonds>
donor molecule, donor type, donor heavy atom, donor atom, acceptor molecule, acceptor atom, score
      L1  H     3    21       P1 10175  1.00
      L1  H    10    30       P1  8028  0.15
      P1  H  7989  7998       L1    19  1.00

> <Gold.PLP.Chemscore.Internal.Correction>
0.0081

> <Gold.Rescore>
     Score         DG    S(hbond)    S(metal)    S(lipo)     H(rot)  DE(clash)    DE(int)     intcor
     18.95     -21.88       2.43        0.00     103.22       1.48       2.07       0.86       ----

> <Gold.Chemscore.Fitness>
18.9467

> <Gold.Chemscore.DG>
-21.8780

> <Gold.Chemscore.ZeroCoef>
-5.4800

> <Gold.Chemscore.Hbond>
2.4283

> <Gold.Chemscore.Metal>
0.0000

> <Gold.Chemscore.Lipo>
103.2178

> <Gold.Chemscore.Internal_Hbond>
0.0000

> <Gold.Chemscore.DEClash>
2.0717

> <Gold.Chemscore.DEInternal>
0.8596

> <Gold.Chemscore.Rot>
1.4801

> <Gold.Chemscore.Internal.Correction>
   9.000000E+99

> <Gold.Chemscore.Hbonds>
donor molecule, donor type, donor heavy atom, donor atom, acceptor molecule, acceptor atom, score
      L1  H     3    21       P1 10175  0.64
      L1  H    10    30       P1  8028  0.15
      P1  H  7989  7998       L1    19  0.81

> <Gold.Chemscore.Hbond.Weighted>
-8.1107

> <Gold.Chemscore.Metal.Weighted>
-0.0000

> <Gold.Chemscore.Lipo.Weighted>
-12.0765

> <Gold.Chemscore.Internal_Hbond.Weighted>
0.0000

> <Gold.Chemscore.DEClash.Weighted>
2.0717

> <Gold.Chemscore.DEInternal.Weighted>
0.8596

> <Gold.Chemscore.Rot.Weighted>
3.7891

> <Gold.Chemscore.Internal.Correction.Weighted>
   9.000000E+99

> <Gold.Protein.RotatedTorsions>
[ 6907 6896 6895 6894 ] final  150.29 input  -60.11 | X-H torsion
[ 7974 7965 7964 7962 ] final -114.92 input  175.53 | X-H torsion
[ 8008 7997 7996 7995 ] final   76.73 input   59.86 | X-H torsion
[ 10167 10162 10161 10158 ] final   52.18 input  -65.29 | X-H torsion
[ 10718 10713 10712 10709 ] final   76.75 input   66.30 | X-H torsion
[ 10763 10752 10751 10750 ] final  -17.32 input  -60.55 | X-H torsion
[ 11005 11000 10999 10996 ] final  -94.25 input  -57.11 | X-H torsion

> <Gold.Protein.ActiveResidues>
 VAL166  LYS551  ARG553  GLY616  TRP617  ASP618  TYR619  PRO620  LYS621  CYS622 
 ASP623  PHE694  ASN695  SER759  ASP760  ASP761  ALA762  ILE779  LEU786  VAL792 
 PHE793  MET794  SER795  GLU796  ALA797  LYS798  CYS799  TRP800  GLU811  SER814 

> <Gold.Protein.RotatedAtoms>
  152.1164  133.4329  159.4654 H   0  0  0  0  0  0  0  0  0  0  0  0  # atno 6907 bound_to 6896
  150.6869  134.2587  159.4549 H   0  0  0  0  0  0  0  0  0  0  0  0  # atno 6908 bound_to 6896
  152.0460  134.9682  160.0625 H   0  0  0  0  0  0  0  0  0  0  0  0  # atno 6909 bound_to 6896
  145.1145  140.8632  143.3850 H   0  0  0  0  0  0  0  0  0  0  0  0  # atno 7974 bound_to 7965
  155.8315  140.3466  155.5575 H   0  0  0  0  0  0  0  0  0  0  0  0  # atno 8008 bound_to 7997
  155.8237  140.0916  157.1853 H   0  0  0  0  0  0  0  0  0  0  0  0  # atno 8009 bound_to 7997
  154.4004  140.1425  156.3518 H   0  0  0  0  0  0  0  0  0  0  0  0  # atno 8010 bound_to 7997
  140.2541  144.3446  150.6339 H   0  0  0  0  0  0  0  0  0  0  0  0  # atno 10167 bound_to 10162
  157.6685  130.9789  150.1542 H   0  0  0  0  0  0  0  0  0  0  0  0  # atno 10718 bound_to 10713
  153.5721  135.7007  153.5500 H   0  0  0  0  0  0  0  0  0  0  0  0  # atno 10763 bound_to 10752
  153.3335  135.4040  155.1515 H   0  0  0  0  0  0  0  0  0  0  0  0  # atno 10764 bound_to 10752
  154.8631  135.3725  154.5244 H   0  0  0  0  0  0  0  0  0  0  0  0  # atno 10765 bound_to 10752
  141.1475  133.7943  157.0271 H   0  0  0  0  0  0  0  0  0  0  0  0  # atno 11005 bound_to 11000
  145.0809  139.2960  143.5784 LP  0  0  0  0  0  0  0  0  0  0  0  0  # atno 17320 bound_to 7965
  146.3524  140.0315  142.8650 LP  0  0  0  0  0  0  0  0  0  0  0  0  # atno 17321 bound_to 7965
  140.6018  143.2167  151.7058 LP  0  0  0  0  0  0  0  0  0  0  0  0  # atno 17342 bound_to 10162
  139.5037  144.3781  152.0403 LP  0  0  0  0  0  0  0  0  0  0  0  0  # atno 17343 bound_to 10162
  156.2334  130.3684  149.8419 LP  0  0  0  0  0  0  0  0  0  0  0  0  # atno 17370 bound_to 10713
  156.6240  130.8638  151.3481 LP  0  0  0  0  0  0  0  0  0  0  0  0  # atno 17371 bound_to 10713
  140.0778  134.9666  157.1574 LP  0  0  0  0  0  0  0  0  0  0  0  0  # atno 17394 bound_to 11000
  140.3620  134.2484  155.7186 LP  0  0  0  0  0  0  0  0  0  0  0  0  # atno 17395 bound_to 11000

$$$$
