AV-unprocessed.smi:213|AV-procd|sdf|1644|dock1
  -GOLD-   2262020 13D 1   1.00000     0.00000
 Structure written by MMmdl.
 58 61  0  0  0  0  0  0  0  0  1 V2000
  144.1926  136.8642  152.9334 C   0  0  0  0  0  0  0  0  0  0  0  0
  145.6595  136.7963  152.4629 C   0  0  1  0  0  0  0  0  0  0  0  0
  145.7879  136.4541  150.9586 C   0  0  0  0  0  0  0  0  0  0  0  0
  145.6800  135.0354  150.6133 N   0  0  0  0  0  0  0  0  0  0  0  0
  144.2826  134.6479  150.4522 C   0  0  0  0  0  0  0  0  0  0  0  0
  144.1337  133.1659  150.0697 C   0  0  0  0  0  0  0  0  0  0  0  0
  144.7679  132.3573  151.0545 O   0  0  0  0  0  0  0  0  0  0  0  0
  146.1493  132.6659  151.2065 C   0  0  0  0  0  0  0  0  0  0  0  0
  146.3157  134.1488  151.5834 C   0  0  0  0  0  0  0  0  0  0  0  0
  146.3360  138.0597  152.7699 N   0  0  0  0  0  0  0  0  0  0  0  0
  146.7694  138.9610  151.7043 C   0  0  0  0  0  0  0  0  0  0  0  0
  146.7307  138.3474  154.0387 C   0  0  0  0  0  0  0  0  0  0  0  0
  146.4693  137.4280  155.0055 N   0  0  0  0  0  0  0  0  0  0  0  0
  146.8417  137.6452  156.2697 C   0  0  0  0  0  0  0  0  0  0  0  0
  147.4727  138.7016  156.7831 N   0  0  0  0  0  0  0  0  0  0  0  0
  147.7252  139.6379  155.8253 C   0  0  0  0  0  0  0  0  0  0  0  0
  147.3935  139.5460  154.4424 C   0  0  0  0  0  0  0  0  0  0  0  0
  147.7976  140.7079  153.7926 N   0  0  0  0  0  0  0  0  0  0  0  0
  148.3422  141.4344  154.7281 C   0  0  0  0  0  0  0  0  0  0  0  0
  148.3353  140.8698  155.9821 N   0  0  0  0  0  0  0  0  0  0  0  0
  148.8579  141.4557  157.2031 C   0  0  0  0  0  0  0  0  0  0  0  0
  150.3996  141.5322  157.2296 C   0  0  1  0  0  0  0  0  0  0  0  0
  150.7894  142.4796  156.2555 O   0  0  0  0  0  0  0  0  0  0  0  0
  150.9979  141.9371  158.5954 C   0  0  2  0  0  0  0  0  0  0  0  0
  150.9744  143.4417  158.8756 C   0  0  0  0  0  0  0  0  0  0  0  0
  152.1051  143.6457  159.8718 C   0  0  0  0  0  0  0  0  0  0  0  0
  152.9201  142.3542  159.7764 C   0  0  0  0  0  0  0  0  0  0  0  0
  152.3919  141.6722  158.6492 O   0  0  0  0  0  0  0  0  0  0  0  0
  143.6752  135.9151  152.8080 H   0  0  0  0  0  0  0  0  0  0  0  0
  143.6237  137.6136  152.3829 H   0  0  0  0  0  0  0  0  0  0  0  0
  144.1376  137.1205  153.9920 H   0  0  0  0  0  0  0  0  0  0  0  0
  146.1300  136.0063  153.0476 H   0  0  0  0  0  0  0  0  0  0  0  0
  145.0711  137.0388  150.3800 H   0  0  0  0  0  0  0  0  0  0  0  0
  146.7693  136.7945  150.6242 H   0  0  0  0  0  0  0  0  0  0  0  0
  143.7383  134.8360  151.3789 H   0  0  0  0  0  0  0  0  0  0  0  0
  143.8135  135.2646  149.6847 H   0  0  0  0  0  0  0  0  0  0  0  0
  143.0799  132.8939  150.0087 H   0  0  0  0  0  0  0  0  0  0  0  0
  144.5727  132.9731  149.0896 H   0  0  0  0  0  0  0  0  0  0  0  0
  146.5748  132.0279  151.9812 H   0  0  0  0  0  0  0  0  0  0  0  0
  146.6812  132.4424  150.2804 H   0  0  0  0  0  0  0  0  0  0  0  0
  147.3817  134.3622  151.6406 H   0  0  0  0  0  0  0  0  0  0  0  0
  145.8988  134.3227  152.5762 H   0  0  0  0  0  0  0  0  0  0  0  0
  147.7814  139.3248  151.8869 H   0  0  0  0  0  0  0  0  0  0  0  0
  146.1001  139.8189  151.6381 H   0  0  0  0  0  0  0  0  0  0  0  0
  146.7723  138.4574  150.7376 H   0  0  0  0  0  0  0  0  0  0  0  0
  146.5993  136.8595  156.9699 H   0  0  0  0  0  0  0  0  0  0  0  0
  148.7549  142.4126  154.5285 H   0  0  0  0  0  0  0  0  0  0  0  0
  148.4285  142.4530  157.3094 H   0  0  0  0  0  0  0  0  0  0  0  0
  148.4953  140.8685  158.0481 H   0  0  0  0  0  0  0  0  0  0  0  0
  150.8150  140.5694  156.9298 H   0  0  0  0  0  0  0  0  0  0  0  0
  150.0164  142.9231  155.9419 H   0  0  0  0  0  0  0  0  0  0  0  0
  150.4997  141.4001  159.4049 H   0  0  0  0  0  0  0  0  0  0  0  0
  151.1913  143.9965  157.9615 H   0  0  0  0  0  0  0  0  0  0  0  0
  150.0112  143.7844  159.2545 H   0  0  0  0  0  0  0  0  0  0  0  0
  152.7010  144.5207  159.6101 H   0  0  0  0  0  0  0  0  0  0  0  0
  151.7260  143.7869  160.8843 H   0  0  0  0  0  0  0  0  0  0  0  0
  153.9880  142.5385  159.6576 H   0  0  0  0  0  0  0  0  0  0  0  0
  152.7762  141.7409  160.6672 H   0  0  0  0  0  0  0  0  0  0  0  0
  1  2  1  0  0  0  0
  1 29  1  0  0  0  0
  1 30  1  0  0  0  0
  1 31  1  0  0  0  0
  2  3  1  0  0  0  0
  2 10  1  0  0  0  0
  2 32  1  0  0  0  0
  3  4  1  0  0  0  0
  3 33  1  0  0  0  0
  3 34  1  0  0  0  0
  4  9  1  0  0  0  0
  4  5  1  0  0  0  0
  5  6  1  0  0  0  0
  5 35  1  0  0  0  0
  5 36  1  0  0  0  0
  6  7  1  0  0  0  0
  6 37  1  0  0  0  0
  6 38  1  0  0  0  0
  7  8  1  0  0  0  0
  8  9  1  0  0  0  0
  8 39  1  0  0  0  0
  8 40  1  0  0  0  0
  9 41  1  0  0  0  0
  9 42  1  0  0  0  0
 10 11  1  0  0  0  0
 10 12  1  0  0  0  0
 11 43  1  0  0  0  0
 11 44  1  0  0  0  0
 11 45  1  0  0  0  0
 12 17  1  0  0  0  0
 12 13  2  0  0  0  0
 13 14  1  0  0  0  0
 14 15  2  0  0  0  0
 14 46  1  0  0  0  0
 15 16  1  0  0  0  0
 16 20  1  0  0  0  0
 16 17  2  0  0  0  0
 17 18  1  0  0  0  0
 18 19  2  0  0  0  0
 19 20  1  0  0  0  0
 19 47  1  0  0  0  0
 20 21  1  0  0  0  0
 21 22  1  0  0  0  0
 21 48  1  0  0  0  0
 21 49  1  0  0  0  0
 22 23  1  0  0  0  0
 22 24  1  0  0  0  0
 22 50  1  0  0  0  0
 23 51  1  0  0  0  0
 24 28  1  0  0  0  0
 24 25  1  0  0  0  0
 24 52  1  0  0  0  0
 25 26  1  0  0  0  0
 25 53  1  0  0  0  0
 25 54  1  0  0  0  0
 26 27  1  0  0  0  0
 26 55  1  0  0  0  0
 26 56  1  0  0  0  0
 27 28  1  0  0  0  0
 27 57  1  0  0  0  0
 27 58  1  0  0  0  0
M  END
> <s_m_source_file>
AV-unprocessed.smi

> <i_m_source_file_index>
213

> <i_lp_mmshare_version>
43012

> <i_f3d_flags>
0

> <s_epik_input>
W0NIMl0xW0NIMl1PW0NIMl1bQ0gyXU4xW0NIMl1bQ0BASF0oW0NIM10pTihbQ0gzXSljKG5bY0hdbjIpYyhjMjMpbltjSF1uM1tDSDJdW0NASF0oW09IXSlbQ0BASF00W0NIMl1bQ0gyXVtDSDJdTzQ=

> <s_epik_cmdline>
J2VwaWtfcHl0aG9uJywgJy1waCcsICc3LjAnLCAnLXRuJywgJzgnLCAnLW1hJywgJzIwMCcsICctbWV0YWxfYmluZGluZycsICctaW1hZScsICc8aW5maWxlLm1hZT4nLCAnLW9tYWUnLCAnPG91dGZpbGUubWFlPic=

> <r_lp_tautomer_probability>
1

> <r_epik_Ionization_Penalty>
0.423322

> <r_epik_Ionization_Penalty_Charging>
0

> <r_epik_Ionization_Penalty_Neutral>
0.423322

> <r_epik_State_Penalty>
0.569486

> <r_epik_Charging_Adjusted_Penalty>
0.569486

> <i_epik_Tot_Q>
0

> <i_epik_Tot_abs_Q>
0

> <r_epik_Metal_State_Penalty>
0.568671

> <b_epik_Metal_Only>
0

> <s_lp_Force_Field>
OPLS_2005

> <r_lp_Energy>
52.699

> <b_lp_Chiralities_Consistent>
1

> <s_lp_Variant>
AV-unprocessed.smi:213-12

> <Gold.Version>
5.8.1

> <Gold.Id.Protein>
6NUR|6NUR_protein|mol2

> <Gold.PLP.Fitness>
46.3978

> <Gold.PLP.PLP>
-42.8385

> <Gold.PLP.part.hbond>
-1.0000

> <Gold.PLP.part.metal>
0.0000

> <Gold.PLP.part.buried>
-4.0571

> <Gold.PLP.part.nonpolar>
-39.1144

> <Gold.PLP.part.repulsive>
0.5409

> <Gold.PLP.ligand.clash>
0.0000

> <Gold.PLP.ligand.torsion>
1.3120

> <Gold.PLP.Chemscore.Hbond>
0.9760

> <Gold.PLP.Chemscore.CHOScore>
1.0000

> <Gold.PLP.Chemscore.Metal>
0.0000

> <Gold.Chemscore.Hbonds>
donor molecule, donor type, donor heavy atom, donor atom, acceptor molecule, acceptor atom, score
      L1  H    23    51       P1  8028  0.73
      L1  C    19    47       P1  8028  0.94

> <Gold.PLP.Chemscore.Internal.Correction>
0.2553

> <Gold.Rescore>
     Score         DG    S(hbond)    S(metal)    S(lipo)     H(rot)  DE(clash)    DE(int)     intcor
     10.52     -13.59       1.00        0.00     100.78       2.74       0.09       2.98       ----

> <Gold.Chemscore.Fitness>
10.5183

> <Gold.Chemscore.DG>
-13.5881

> <Gold.Chemscore.ZeroCoef>
-5.4800

> <Gold.Chemscore.Hbond>
0.9955

> <Gold.Chemscore.Metal>
0.0000

> <Gold.Chemscore.Lipo>
100.7847

> <Gold.Chemscore.Internal_Hbond>
0.0000

> <Gold.Chemscore.DEClash>
0.0854

> <Gold.Chemscore.DEInternal>
2.9843

> <Gold.Chemscore.Rot>
2.7378

> <Gold.Chemscore.Internal.Correction>
   9.000000E+99

> <Gold.Chemscore.Hbonds>
donor molecule, donor type, donor heavy atom, donor atom, acceptor molecule, acceptor atom, score
      L1  H    23    51       P1  8028  0.69

> <Gold.Chemscore.Hbond.Weighted>
-3.3249

> <Gold.Chemscore.Metal.Weighted>
-0.0000

> <Gold.Chemscore.Lipo.Weighted>
-11.7918

> <Gold.Chemscore.Internal_Hbond.Weighted>
0.0000

> <Gold.Chemscore.DEClash.Weighted>
0.0854

> <Gold.Chemscore.DEInternal.Weighted>
2.9843

> <Gold.Chemscore.Rot.Weighted>
7.0087

> <Gold.Chemscore.Internal.Correction.Weighted>
   9.000000E+99

> <Gold.Protein.RotatedTorsions>
[ 6907 6896 6895 6894 ] final   33.41 input  -60.11 | X-H torsion
[ 7974 7965 7964 7962 ] final -117.42 input  175.53 | X-H torsion
[ 8008 7997 7996 7995 ] final  -98.34 input   59.86 | X-H torsion
[ 10167 10162 10161 10158 ] final   95.99 input  -65.29 | X-H torsion
[ 10718 10713 10712 10709 ] final  -95.71 input   66.30 | X-H torsion
[ 10763 10752 10751 10750 ] final  -22.73 input  -60.55 | X-H torsion
[ 11005 11000 10999 10996 ] final  -46.04 input  -57.11 | X-H torsion

> <Gold.Protein.ActiveResidues>
 VAL166  LYS551  ARG553  GLY616  TRP617  ASP618  TYR619  PRO620  LYS621  CYS622 
 ASP623  PHE694  ASN695  SER759  ASP760  ASP761  ALA762  ILE779  LEU786  VAL792 
 PHE793  MET794  SER795  GLU796  ALA797  LYS798  CYS799  TRP800  GLU811  SER814 

> <Gold.Protein.RotatedAtoms>
  152.0882  134.9425  160.0572 H   0  0  0  0  0  0  0  0  0  0  0  0  # atno 6907 bound_to 6896
  152.0687  133.4091  159.4458 H   0  0  0  0  0  0  0  0  0  0  0  0  # atno 6908 bound_to 6896
  150.6836  134.3036  159.4760 H   0  0  0  0  0  0  0  0  0  0  0  0  # atno 6909 bound_to 6896
  145.0854  140.8454  143.4014 H   0  0  0  0  0  0  0  0  0  0  0  0  # atno 7974 bound_to 7965
  154.7998  140.0456  157.1264 H   0  0  0  0  0  0  0  0  0  0  0  0  # atno 8008 bound_to 7997
  154.9492  140.3063  155.5063 H   0  0  0  0  0  0  0  0  0  0  0  0  # atno 8009 bound_to 7997
  156.2960  140.2291  156.4568 H   0  0  0  0  0  0  0  0  0  0  0  0  # atno 8010 bound_to 7997
  139.7936  144.6842  150.9859 H   0  0  0  0  0  0  0  0  0  0  0  0  # atno 10167 bound_to 10162
  156.0048  130.5120  150.6116 H   0  0  0  0  0  0  0  0  0  0  0  0  # atno 10718 bound_to 10713
  153.6566  135.6978  153.5191 H   0  0  0  0  0  0  0  0  0  0  0  0  # atno 10763 bound_to 10752
  153.2664  135.4228  155.0944 H   0  0  0  0  0  0  0  0  0  0  0  0  # atno 10764 bound_to 10752
  154.8462  135.3567  154.6111 H   0  0  0  0  0  0  0  0  0  0  0  0  # atno 10765 bound_to 10752
  141.0554  133.6728  156.3099 H   0  0  0  0  0  0  0  0  0  0  0  0  # atno 11005 bound_to 11000
  145.1128  139.2745  143.5628 LP  0  0  0  0  0  0  0  0  0  0  0  0  # atno 17320 bound_to 7965
  146.3531  140.0729  142.8622 LP  0  0  0  0  0  0  0  0  0  0  0  0  # atno 17321 bound_to 7965
  140.7820  143.4354  151.0631 LP  0  0  0  0  0  0  0  0  0  0  0  0  # atno 17342 bound_to 10162
  139.8030  143.8057  152.3164 LP  0  0  0  0  0  0  0  0  0  0  0  0  # atno 17343 bound_to 10162
  157.3948  131.0801  151.1362 LP  0  0  0  0  0  0  0  0  0  0  0  0  # atno 17370 bound_to 10713
  157.2042  130.6408  149.5750 LP  0  0  0  0  0  0  0  0  0  0  0  0  # atno 17371 bound_to 10713
  140.5974  134.5589  157.5511 LP  0  0  0  0  0  0  0  0  0  0  0  0  # atno 17394 bound_to 11000
  139.9385  134.7830  156.0739 LP  0  0  0  0  0  0  0  0  0  0  0  0  # atno 17395 bound_to 11000

$$$$
