AV-unprocessed.smi:749|AV-procd|sdf|3584|dock2
  -GOLD-   22720 0583D 1   1.00000     0.00000
 Structure written by MMmdl.
 43 44  0  0  0  0  0  0  0  0  1 V2000
  137.2706  137.4496  153.9671 C   0  0  0  0  0  0  0  0  0  0  0  0
  138.2966  138.4806  154.1316 N   0  0  0  0  0  0  0  0  0  0  0  0
  139.6445  138.0869  153.6926 C   0  0  0  0  0  0  0  0  0  0  0  0
  140.7666  139.0227  154.1821 C   0  0  1  0  0  0  0  0  0  0  0  0
  142.0046  138.7766  153.4501 N   0  0  0  0  0  0  0  0  0  0  0  0
  142.4777  137.5697  153.0975 C   0  0  0  0  0  0  0  0  0  0  0  0
  141.8948  136.5213  153.3689 O   0  0  0  0  0  0  0  0  0  0  0  0
  143.6476  137.5622  152.4243 N   0  0  0  0  0  0  0  0  0  0  0  0
  144.4195  136.4826  151.9085 C   0  0  0  0  0  0  0  0  0  0  0  0
  143.7889  135.2678  151.5296 C   0  0  0  0  0  0  0  0  0  0  0  0
  144.8270  134.4966  151.0814 C   0  0  0  0  0  0  0  0  0  0  0  0
  144.9164  133.1028  150.5251 C   0  0  0  0  0  0  0  0  0  0  0  0
  144.0867  132.9734  149.2321 C   0  0  0  0  0  0  0  0  0  0  0  0
  144.3762  132.0897  151.5517 C   0  0  0  0  0  0  0  0  0  0  0  0
  146.3820  132.7609  150.1970 C   0  0  0  0  0  0  0  0  0  0  0  0
  145.9947  135.1922  151.1768 O   0  0  0  0  0  0  0  0  0  0  0  0
  145.7280  136.4597  151.7054 N   0  0  0  0  0  0  0  0  0  0  0  0
  140.3395  140.4799  153.9988 C   0  0  0  0  0  0  0  0  0  0  0  0
  139.0595  140.7653  154.7928 C   0  0  0  0  0  0  0  0  0  0  0  0
  137.9605  139.7116  154.5880 C   0  0  0  0  0  0  0  0  0  0  0  0
  136.8035  140.0166  154.8791 O   0  0  0  0  0  0  0  0  0  0  0  0
  136.8388  137.1836  154.9330 H   0  0  0  0  0  0  0  0  0  0  0  0
  137.6699  136.5381  153.5206 H   0  0  0  0  0  0  0  0  0  0  0  0
  136.4674  137.8030  153.3189 H   0  0  0  0  0  0  0  0  0  0  0  0
  139.8574  137.0690  154.0231 H   0  0  0  0  0  0  0  0  0  0  0  0
  139.6348  138.0640  152.6016 H   0  0  0  0  0  0  0  0  0  0  0  0
  140.9394  138.8501  155.2464 H   0  0  0  0  0  0  0  0  0  0  0  0
  142.5463  139.5879  153.1872 H   0  0  0  0  0  0  0  0  0  0  0  0
  144.0556  138.4744  152.2802 H   0  0  0  0  0  0  0  0  0  0  0  0
  142.7432  135.0033  151.5776 H   0  0  0  0  0  0  0  0  0  0  0  0
  144.1466  131.9655  148.8199 H   0  0  0  0  0  0  0  0  0  0  0  0
  144.4378  133.6614  148.4619 H   0  0  0  0  0  0  0  0  0  0  0  0
  143.0327  133.1896  149.4117 H   0  0  0  0  0  0  0  0  0  0  0  0
  143.3367  132.2999  151.8059 H   0  0  0  0  0  0  0  0  0  0  0  0
  144.9511  132.1137  152.4781 H   0  0  0  0  0  0  0  0  0  0  0  0
  144.4208  131.0700  151.1671 H   0  0  0  0  0  0  0  0  0  0  0  0
  146.4746  131.7560  149.7835 H   0  0  0  0  0  0  0  0  0  0  0  0
  147.0122  132.8071  151.0861 H   0  0  0  0  0  0  0  0  0  0  0  0
  146.7959  133.4567  149.4659 H   0  0  0  0  0  0  0  0  0  0  0  0
  141.1326  141.1506  154.3319 H   0  0  0  0  0  0  0  0  0  0  0  0
  140.1748  140.6945  152.9416 H   0  0  0  0  0  0  0  0  0  0  0  0
  139.2915  140.7964  155.8581 H   0  0  0  0  0  0  0  0  0  0  0  0
  138.6718  141.7501  154.5301 H   0  0  0  0  0  0  0  0  0  0  0  0
  1  2  1  0  0  0  0
  1 22  1  0  0  0  0
  1 23  1  0  0  0  0
  1 24  1  0  0  0  0
  2 20  1  0  0  0  0
  2  3  1  0  0  0  0
  3  4  1  0  0  0  0
  3 25  1  0  0  0  0
  3 26  1  0  0  0  0
  4  5  1  0  0  0  0
  4 18  1  0  0  0  0
  4 27  1  0  0  0  0
  5  6  1  0  0  0  0
  5 28  1  0  0  0  0
  6  7  2  0  0  0  0
  6  8  1  0  0  0  0
  8  9  1  0  0  0  0
  8 29  1  0  0  0  0
  9 17  2  0  0  0  0
  9 10  1  0  0  0  0
 10 11  2  0  0  0  0
 10 30  1  0  0  0  0
 11 12  1  0  0  0  0
 11 16  1  0  0  0  0
 12 13  1  0  0  0  0
 12 14  1  0  0  0  0
 12 15  1  0  0  0  0
 13 31  1  0  0  0  0
 13 32  1  0  0  0  0
 13 33  1  0  0  0  0
 14 34  1  0  0  0  0
 14 35  1  0  0  0  0
 14 36  1  0  0  0  0
 15 37  1  0  0  0  0
 15 38  1  0  0  0  0
 15 39  1  0  0  0  0
 16 17  1  0  0  0  0
 18 19  1  0  0  0  0
 18 40  1  0  0  0  0
 18 41  1  0  0  0  0
 19 20  1  0  0  0  0
 19 42  1  0  0  0  0
 19 43  1  0  0  0  0
 20 21  2  0  0  0  0
M  END
> <s_m_source_file>
AV-unprocessed.smi

> <i_m_source_file_index>
749

> <i_lp_mmshare_version>
43012

> <i_f3d_flags>
0

> <s_epik_input>
Tz1DMVtDSDJdW0NIMl1bQ0BASF0oW0NIMl1OMVtDSDNdKVtOSF1DKD1PKVtOSF1jMltjSF1jKG9uMilDKFtDSDNdKShbQ0gzXSlbQ0gzXQ==

> <s_epik_cmdline>
J2VwaWtfcHl0aG9uJywgJy1waCcsICc3LjAnLCAnLXRuJywgJzgnLCAnLW1hJywgJzIwMCcsICctbWV0YWxfYmluZGluZycsICctaW1hZScsICc8aW5maWxlLm1hZT4nLCAnLW9tYWUnLCAnPG91dGZpbGUubWFlPic=

> <r_lp_tautomer_probability>
1

> <r_epik_Ionization_Penalty>
2.91905e-05

> <r_epik_Ionization_Penalty_Charging>
0

> <r_epik_Ionization_Penalty_Neutral>
2.91905e-05

> <r_epik_State_Penalty>
-0

> <r_epik_Charging_Adjusted_Penalty>
0

> <i_epik_Tot_Q>
0

> <i_epik_Tot_abs_Q>
0

> <r_epik_Metal_State_Penalty>
0.0102923

> <b_epik_Metal_Only>
0

> <s_lp_Force_Field>
OPLS_2005

> <r_lp_Energy>
15.3283

> <b_lp_Chiralities_Consistent>
1

> <s_lp_Variant>
AV-unprocessed.smi:749-1

> <Gold.Version>
5.8.1

> <Gold.Id.Protein>
6NUR|6NUR_protein|mol2

> <Gold.PLP.Fitness>
38.3971

> <Gold.PLP.PLP>
-33.7095

> <Gold.PLP.part.hbond>
-3.0000

> <Gold.PLP.part.metal>
0.0000

> <Gold.PLP.part.buried>
-4.0624

> <Gold.PLP.part.nonpolar>
-26.1422

> <Gold.PLP.part.repulsive>
0.6139

> <Gold.PLP.ligand.clash>
0.0000

> <Gold.PLP.ligand.torsion>
0.4249

> <Gold.PLP.Chemscore.Hbond>
1.8424

> <Gold.PLP.Chemscore.CHOScore>
0.0000

> <Gold.PLP.Chemscore.Metal>
0.0000

> <Gold.Chemscore.Hbonds>
donor molecule, donor type, donor heavy atom, donor atom, acceptor molecule, acceptor atom, score
      L1  H     5    28       P1 10175  0.99
      L1  H     8    29       P1 10175  0.83

> <Gold.PLP.Chemscore.Internal.Correction>
0.0102

> <Gold.Rescore>
     Score         DG    S(hbond)    S(metal)    S(lipo)     H(rot)  DE(clash)    DE(int)     intcor
     13.93     -17.03       1.88        0.00      71.98       1.23       0.32       2.78       ----

> <Gold.Chemscore.Fitness>
13.9329

> <Gold.Chemscore.DG>
-17.0344

> <Gold.Chemscore.ZeroCoef>
-5.4800

> <Gold.Chemscore.Hbond>
1.8818

> <Gold.Chemscore.Metal>
0.0000

> <Gold.Chemscore.Lipo>
71.9846

> <Gold.Chemscore.Internal_Hbond>
0.0000

> <Gold.Chemscore.DEClash>
0.3190

> <Gold.Chemscore.DEInternal>
2.7824

> <Gold.Chemscore.Rot>
1.2317

> <Gold.Chemscore.Internal.Correction>
   9.000000E+99

> <Gold.Chemscore.Hbonds>
donor molecule, donor type, donor heavy atom, donor atom, acceptor molecule, acceptor atom, score
      L1  H     5    28       P1 10175  0.92
      L1  H     8    29       P1 10175  0.79

> <Gold.Chemscore.Hbond.Weighted>
-6.2853

> <Gold.Chemscore.Metal.Weighted>
-0.0000

> <Gold.Chemscore.Lipo.Weighted>
-8.4222

> <Gold.Chemscore.Internal_Hbond.Weighted>
0.0000

> <Gold.Chemscore.DEClash.Weighted>
0.3190

> <Gold.Chemscore.DEInternal.Weighted>
2.7824

> <Gold.Chemscore.Rot.Weighted>
3.1531

> <Gold.Chemscore.Internal.Correction.Weighted>
   9.000000E+99

> <Gold.Protein.RotatedTorsions>
[ 6907 6896 6895 6894 ] final   22.63 input  -60.11 | X-H torsion
[ 7974 7965 7964 7962 ] final -130.67 input  175.53 | X-H torsion
[ 8008 7997 7996 7995 ] final   -9.54 input   59.86 | X-H torsion
[ 10167 10162 10161 10158 ] final  -66.53 input  -65.29 | X-H torsion
[ 10718 10713 10712 10709 ] final  -52.78 input   66.30 | X-H torsion
[ 10763 10752 10751 10750 ] final  -79.14 input  -60.55 | X-H torsion
[ 11005 11000 10999 10996 ] final  -62.35 input  -57.11 | X-H torsion

> <Gold.Protein.ActiveResidues>
 VAL166  LYS551  ARG553  GLY616  TRP617  ASP618  TYR619  PRO620  LYS621  CYS622 
 ASP623  PHE694  ASN695  SER759  ASP760  ASP761  ALA762  ILE779  LEU786  VAL792 
 PHE793  MET794  SER795  GLU796  ALA797  LYS798  CYS799  TRP800  GLU811  SER814 

> <Gold.Protein.RotatedAtoms>
  151.9300  135.0260  160.0528 H   0  0  0  0  0  0  0  0  0  0  0  0  # atno 6907 bound_to 6896
  152.2126  133.4918  159.5127 H   0  0  0  0  0  0  0  0  0  0  0  0  # atno 6908 bound_to 6896
  150.6980  134.1363  159.4131 H   0  0  0  0  0  0  0  0  0  0  0  0  # atno 6909 bound_to 6896
  144.9453  140.7284  143.4821 H   0  0  0  0  0  0  0  0  0  0  0  0  # atno 7974 bound_to 7965
  154.5637  140.2352  155.8296 H   0  0  0  0  0  0  0  0  0  0  0  0  # atno 8008 bound_to 7997
  156.2050  140.3042  155.9567 H   0  0  0  0  0  0  0  0  0  0  0  0  # atno 8009 bound_to 7997
  155.2841  140.0424  157.3008 H   0  0  0  0  0  0  0  0  0  0  0  0  # atno 8010 bound_to 7997
  140.5650  143.2314  151.6652 H   0  0  0  0  0  0  0  0  0  0  0  0  # atno 10167 bound_to 10162
  156.1592  130.4150  149.9820 H   0  0  0  0  0  0  0  0  0  0  0  0  # atno 10718 bound_to 10713
  154.5348  135.5706  153.6789 H   0  0  0  0  0  0  0  0  0  0  0  0  # atno 10763 bound_to 10752
  152.9948  135.6213  154.2581 H   0  0  0  0  0  0  0  0  0  0  0  0  # atno 10764 bound_to 10752
  154.2509  135.2859  155.2796 H   0  0  0  0  0  0  0  0  0  0  0  0  # atno 10765 bound_to 10752
  141.1357  133.6639  156.5515 H   0  0  0  0  0  0  0  0  0  0  0  0  # atno 11005 bound_to 11000
  145.2928  139.1877  143.4731 LP  0  0  0  0  0  0  0  0  0  0  0  0  # atno 17320 bound_to 7965
  146.3301  140.2907  142.8615 LP  0  0  0  0  0  0  0  0  0  0  0  0  # atno 17321 bound_to 7965
  139.5089  144.3597  152.0574 LP  0  0  0  0  0  0  0  0  0  0  0  0  # atno 17342 bound_to 10162
  140.2727  144.3946  150.6145 LP  0  0  0  0  0  0  0  0  0  0  0  0  # atno 17343 bound_to 10162
  156.7655  130.9167  151.3643 LP  0  0  0  0  0  0  0  0  0  0  0  0  # atno 17370 bound_to 10713
  157.6719  130.9059  150.0060 LP  0  0  0  0  0  0  0  0  0  0  0  0  # atno 17371 bound_to 10713
  140.4060  134.7314  157.4808 LP  0  0  0  0  0  0  0  0  0  0  0  0  # atno 17394 bound_to 11000
  140.0461  134.6197  155.8919 LP  0  0  0  0  0  0  0  0  0  0  0  0  # atno 17395 bound_to 11000

$$$$
