AV-unprocessed.smi:3142|AV-procd|sdf|11973|dock1
  -GOLD-   2272017373D 1   1.00000     0.00000
 Structure written by MMmdl.
 37 39  0  0  0  0  0  0  0  0  2 V2000
  148.4760  141.5024  154.7401 C   0  0  0  0  0  0  0  0  0  0  0  0
  149.8975  141.1866  155.2413 C   0  0  1  0  0  0  0  0  0  0  0  0
  150.0480  141.3997  156.7544 C   0  0  0  0  0  0  0  0  0  0  0  0
  149.4232  140.6960  157.5488 O   0  0  0  0  0  0  0  0  0  0  0  0
  150.8957  142.3688  157.1345 N   0  0  0  0  0  0  0  0  0  0  0  0
  151.2164  142.7303  158.5110 C   0  0  0  0  0  0  0  0  0  0  0  0
  151.0369  144.2156  158.7775 C   0  0  0  0  0  0  0  0  0  0  0  0
  152.2160  145.1598  158.7961 C   0  0  0  0  0  0  0  0  0  0  0  0
  151.4816  144.8417  160.0784 C   0  0  0  0  0  0  0  0  0  0  0  0
  152.6199  142.2913  158.8853 C   0  0  0  0  0  0  0  0  0  0  0  0
  152.8582  140.9855  159.6050 C   0  0  0  0  0  0  0  0  0  0  0  0
  153.0933  142.2981  160.3192 C   0  0  0  0  0  0  0  0  0  0  0  0
  150.3024  139.8184  154.8810 N   0  0  0  0  0  0  0  0  0  0  0  0
  151.4792  139.1803  155.1898 C   0  0  0  0  0  0  0  0  0  0  0  0
  151.4095  137.9324  154.6268 C   0  0  0  0  0  0  0  0  0  0  0  0
  150.1990  137.8612  153.9920 N   0  3  0  0  0  0  0  0  0  0  0  0
  149.5296  139.0086  154.1437 C   0  0  0  0  0  0  0  0  0  0  0  0
  148.1958  142.5296  154.9770 H   0  0  0  0  0  0  0  0  0  0  0  0
  147.7281  140.8446  155.1845 H   0  0  0  0  0  0  0  0  0  0  0  0
  148.4121  141.3885  153.6577 H   0  0  0  0  0  0  0  0  0  0  0  0
  150.5804  141.8729  154.7365 H   0  0  0  0  0  0  0  0  0  0  0  0
  151.3617  142.8982  156.4120 H   0  0  0  0  0  0  0  0  0  0  0  0
  150.5342  142.1944  159.1743 H   0  0  0  0  0  0  0  0  0  0  0  0
  150.1223  144.6218  158.3491 H   0  0  0  0  0  0  0  0  0  0  0  0
  153.2118  144.7384  158.6759 H   0  0  0  0  0  0  0  0  0  0  0  0
  152.0732  146.1489  158.3661 H   0  0  0  0  0  0  0  0  0  0  0  0
  150.8481  145.6177  160.5031 H   0  0  0  0  0  0  0  0  0  0  0  0
  151.9917  144.2087  160.8018 H   0  0  0  0  0  0  0  0  0  0  0  0
  153.3700  142.5632  158.1445 H   0  0  0  0  0  0  0  0  0  0  0  0
  151.9880  140.4028  159.9005 H   0  0  0  0  0  0  0  0  0  0  0  0
  153.7316  140.4051  159.3151 H   0  0  0  0  0  0  0  0  0  0  0  0
  154.1239  142.5932  160.5051 H   0  0  0  0  0  0  0  0  0  0  0  0
  152.3810  142.5806  161.0916 H   0  0  0  0  0  0  0  0  0  0  0  0
  152.2591  139.6506  155.7715 H   0  0  0  0  0  0  0  0  0  0  0  0
  152.1132  137.1128  154.6281 H   0  0  0  0  0  0  0  0  0  0  0  0
  148.5554  139.2339  153.7477 H   0  0  0  0  0  0  0  0  0  0  0  0
  149.8581  137.0579  153.4788 H   0  0  0  0  0  0  0  0  0  0  0  0
  1  2  1  0  0  0  0
  1 18  1  0  0  0  0
  1 19  1  0  0  0  0
  1 20  1  0  0  0  0
  2  3  1  0  0  0  0
  2 13  1  0  0  0  0
  2 21  1  0  0  0  0
  3  4  2  0  0  0  0
  3  5  1  0  0  0  0
  5  6  1  0  0  0  0
  5 22  1  0  0  0  0
  6  7  1  0  0  0  0
  6 10  1  0  0  0  0
  6 23  1  0  0  0  0
  7  9  1  0  0  0  0
  7  8  1  0  0  0  0
  7 24  1  0  0  0  0
  8  9  1  0  0  0  0
  8 25  1  0  0  0  0
  8 26  1  0  0  0  0
  9 27  1  0  0  0  0
  9 28  1  0  0  0  0
 10 12  1  0  0  0  0
 10 11  1  0  0  0  0
 10 29  1  0  0  0  0
 11 12  1  0  0  0  0
 11 30  1  0  0  0  0
 11 31  1  0  0  0  0
 12 32  1  0  0  0  0
 12 33  1  0  0  0  0
 13 17  1  0  0  0  0
 13 14  1  0  0  0  0
 14 15  2  0  0  0  0
 14 34  1  0  0  0  0
 15 16  1  0  0  0  0
 15 35  1  0  0  0  0
 16 17  2  0  0  0  0
 16 37  1  0  0  0  0
 17 36  1  0  0  0  0
M  CHG  1  16   1
M  END
> <s_m_source_file>
AV-unprocessed.smi

> <i_m_source_file_index>
3142

> <i_lp_mmshare_version>
43012

> <i_f3d_flags>
0

> <s_epik_input>
W2NIXTFuW2NIXVtjSF1uMVtDQEhdKFtDSDNdKUMoPU8pW05IXVtDSF0oW0NIXTJbQ0gyXVtDSDJdMilbQ0hdM1tDSDJdW0NIMl0z

> <s_epik_cmdline>
J2VwaWtfcHl0aG9uJywgJy1waCcsICc3LjAnLCAnLXRuJywgJzgnLCAnLW1hJywgJzIwMCcsICctbWV0YWxfYmluZGluZycsICctaW1hZScsICc8aW5maWxlLm1hZT4nLCAnLW9tYWUnLCAnPG91dGZpbGUubWFlPic=

> <r_lp_tautomer_probability>
1

> <r_epik_Ionization_Penalty>
0.513834

> <r_epik_Ionization_Penalty_Charging>
0

> <r_epik_Ionization_Penalty_Neutral>
0.513834

> <r_epik_State_Penalty>
0.521297

> <r_epik_Charging_Adjusted_Penalty>
0.521297

> <i_epik_Tot_Q>
1

> <i_epik_Tot_abs_Q>
1

> <r_epik_Metal_State_Penalty>
0.730424

> <b_epik_Metal_Only>
0

> <s_lp_Force_Field>
OPLS_2005

> <r_lp_Energy>
30.6007

> <b_lp_Chiralities_Consistent>
1

> <s_lp_Variant>
AV-unprocessed.smi:3142-4

> <Gold.Version>
5.8.1

> <Gold.Id.Protein>
6NUR|6NUR_protein|mol2

> <Gold.PLP.Fitness>
49.6293

> <Gold.PLP.PLP>
-43.8945

> <Gold.PLP.part.hbond>
-1.3809

> <Gold.PLP.part.metal>
0.0000

> <Gold.PLP.part.buried>
-3.2560

> <Gold.PLP.part.nonpolar>
-39.3780

> <Gold.PLP.part.repulsive>
0.1326

> <Gold.PLP.ligand.clash>
0.0000

> <Gold.PLP.ligand.torsion>
1.3595

> <Gold.PLP.Chemscore.Hbond>
1.9825

> <Gold.PLP.Chemscore.CHOScore>
0.1097

> <Gold.PLP.Chemscore.Metal>
0.0000

> <Gold.Chemscore.Hbonds>
donor molecule, donor type, donor heavy atom, donor atom, acceptor molecule, acceptor atom, score
      L1  H    16    37       P1  7948  2.00
      L1  C    17    36       P1  7957  0.02

> <Gold.PLP.Chemscore.Internal.Correction>
2.1774

> <Gold.Rescore>
     Score         DG    S(hbond)    S(metal)    S(lipo)     H(rot)  DE(clash)    DE(int)     intcor
     14.74     -16.03       0.89        0.00     106.88       1.92       0.02       1.28       ----

> <Gold.Chemscore.Fitness>
14.7390

> <Gold.Chemscore.DG>
-16.0345

> <Gold.Chemscore.ZeroCoef>
-5.4800

> <Gold.Chemscore.Hbond>
0.8900

> <Gold.Chemscore.Metal>
0.0000

> <Gold.Chemscore.Lipo>
106.8827

> <Gold.Chemscore.Internal_Hbond>
0.0000

> <Gold.Chemscore.DEClash>
0.0195

> <Gold.Chemscore.DEInternal>
1.2759

> <Gold.Chemscore.Rot>
1.9232

> <Gold.Chemscore.Internal.Correction>
   9.000000E+99

> <Gold.Chemscore.Hbonds>
donor molecule, donor type, donor heavy atom, donor atom, acceptor molecule, acceptor atom, score
      L1  H    16    37       P1  7948  0.41

> <Gold.Chemscore.Hbond.Weighted>
-2.9726

> <Gold.Chemscore.Metal.Weighted>
-0.0000

> <Gold.Chemscore.Lipo.Weighted>
-12.5053

> <Gold.Chemscore.Internal_Hbond.Weighted>
0.0000

> <Gold.Chemscore.DEClash.Weighted>
0.0195

> <Gold.Chemscore.DEInternal.Weighted>
1.2759

> <Gold.Chemscore.Rot.Weighted>
4.9233

> <Gold.Chemscore.Internal.Correction.Weighted>
   9.000000E+99

> <Gold.Protein.RotatedTorsions>
[ 6907 6896 6895 6894 ] final  -48.69 input  -60.11 | X-H torsion
[ 7974 7965 7964 7962 ] final  117.08 input  175.53 | X-H torsion
[ 8008 7997 7996 7995 ] final -155.95 input   59.86 | X-H torsion
[ 10167 10162 10161 10158 ] final  -94.66 input  -65.29 | X-H torsion
[ 10718 10713 10712 10709 ] final -141.77 input   66.30 | X-H torsion
[ 10763 10752 10751 10750 ] final  153.63 input  -60.55 | X-H torsion
[ 11005 11000 10999 10996 ] final -144.50 input  -57.11 | X-H torsion

> <Gold.Protein.ActiveResidues>
 VAL166  LYS551  ARG553  GLY616  TRP617  ASP618  TYR619  PRO620  LYS621  CYS622 
 ASP623  PHE694  ASN695  SER759  ASP760  ASP761  ALA762  ILE779  LEU786  VAL792 
 PHE793  MET794  SER795  GLU796  ALA797  LYS798  CYS799  TRP800  GLU811  SER814 

> <Gold.Protein.RotatedAtoms>
  150.8880  134.8280  159.7272 H   0  0  0  0  0  0  0  0  0  0  0  0  # atno 6907 bound_to 6896
  152.4819  134.4693  159.9640 H   0  0  0  0  0  0  0  0  0  0  0  0  # atno 6908 bound_to 6896
  151.4759  133.3519  159.2866 H   0  0  0  0  0  0  0  0  0  0  0  0  # atno 6909 bound_to 6896
  145.1718  139.3097  143.4464 H   0  0  0  0  0  0  0  0  0  0  0  0  # atno 7974 bound_to 7965
  155.7098  140.0777  157.2376 H   0  0  0  0  0  0  0  0  0  0  0  0  # atno 8008 bound_to 7997
  154.4060  140.1632  156.2337 H   0  0  0  0  0  0  0  0  0  0  0  0  # atno 8009 bound_to 7997
  155.9293  140.3392  155.6239 H   0  0  0  0  0  0  0  0  0  0  0  0  # atno 8010 bound_to 7997
  140.3122  143.3098  152.0136 H   0  0  0  0  0  0  0  0  0  0  0  0  # atno 10167 bound_to 10162
  156.3380  130.7622  151.1753 H   0  0  0  0  0  0  0  0  0  0  0  0  # atno 10718 bound_to 10713
  154.1393  135.2822  155.3165 H   0  0  0  0  0  0  0  0  0  0  0  0  # atno 10763 bound_to 10752
  154.6298  135.5439  153.7671 H   0  0  0  0  0  0  0  0  0  0  0  0  # atno 10764 bound_to 10752
  153.0256  135.6460  154.1541 H   0  0  0  0  0  0  0  0  0  0  0  0  # atno 10765 bound_to 10752
  140.8018  134.2848  157.4976 H   0  0  0  0  0  0  0  0  0  0  0  0  # atno 11005 bound_to 11000
  146.3467  140.1866  142.8589 LP  0  0  0  0  0  0  0  0  0  0  0  0  # atno 17320 bound_to 7965
  145.0225  140.8805  143.5158 LP  0  0  0  0  0  0  0  0  0  0  0  0  # atno 17321 bound_to 7965
  139.4891  144.6376  151.6944 LP  0  0  0  0  0  0  0  0  0  0  0  0  # atno 17342 bound_to 10162
  140.5558  144.0350  150.6147 LP  0  0  0  0  0  0  0  0  0  0  0  0  # atno 17343 bound_to 10162
  157.7442  131.0462  150.4884 LP  0  0  0  0  0  0  0  0  0  0  0  0  # atno 17370 bound_to 10713
  156.5060  130.4128  149.6327 LP  0  0  0  0  0  0  0  0  0  0  0  0  # atno 17371 bound_to 10713
  139.8721  134.9433  156.3850 LP  0  0  0  0  0  0  0  0  0  0  0  0  # atno 17394 bound_to 11000
  140.9287  133.7594  155.9997 LP  0  0  0  0  0  0  0  0  0  0  0  0  # atno 17395 bound_to 11000

$$$$
