AV-unprocessed.smi:1072|AV-procd|sdf|4683|dock1
  -GOLD-   22720 3203D 1   1.00000     0.00000
 Structure written by MMmdl.
 46 47  0  0  0  0  0  0  0  0  1 V2000
  147.7969  142.1287  154.0359 C   0  0  0  0  0  0  0  0  0  0  0  0
  148.5196  141.3504  155.1147 C   0  0  0  0  0  0  0  0  0  0  0  0
  148.7198  140.0744  155.0707 N   0  0  0  0  0  0  0  0  0  0  0  0
  149.4056  139.4633  156.1296 C   0  0  0  0  0  0  0  0  0  0  0  0
  149.6070  137.9629  156.0015 C   0  0  0  0  0  0  0  0  0  0  0  0
  149.8598  140.1819  157.1981 C   0  0  0  0  0  0  0  0  0  0  0  0
  150.6141  139.5435  158.3636 C   0  0  0  0  0  0  0  0  0  0  0  0
  152.0315  140.0683  158.6048 C   0  0  0  0  0  0  0  0  0  0  0  0
  152.9678  139.6534  157.9219 O   0  0  0  0  0  0  0  0  0  0  0  0
  152.1626  140.9728  159.5908 N   0  0  0  0  0  0  0  0  0  0  0  0
  153.3853  141.6250  160.0821 C   0  0  1  0  0  0  0  0  0  0  0  0
  154.4339  140.5527  160.4494 C   0  0  0  0  0  0  0  0  0  0  0  0
  153.9687  142.6163  159.0404 C   0  0  0  0  0  0  0  0  0  0  0  0
  153.0248  143.7954  158.7443 C   0  0  0  0  0  0  0  0  0  0  0  0
  152.6653  144.5641  160.0284 C   0  0  1  0  0  0  0  0  0  0  0  0
  151.7170  145.7349  159.7349 C   0  0  0  0  0  0  0  0  0  0  0  0
  152.0729  143.6058  161.0774 C   0  0  0  0  0  0  0  0  0  0  0  0
  153.0136  142.4181  161.3584 C   0  0  0  0  0  0  0  0  0  0  0  0
  149.6254  141.6384  157.2380 C   0  0  0  0  0  0  0  0  0  0  0  0
  149.9956  142.3805  158.1464 O   0  0  0  0  0  0  0  0  0  0  0  0
  148.9570  142.1413  156.1760 N   0  0  0  0  0  0  0  0  0  0  0  0
  148.7729  143.1338  156.1560 H   0  0  0  0  0  0  0  0  0  0  0  0
  148.3275  142.0356  153.0882 H   0  0  0  0  0  0  0  0  0  0  0  0
  147.7228  143.1883  154.2836 H   0  0  0  0  0  0  0  0  0  0  0  0
  146.7878  141.7383  153.9036 H   0  0  0  0  0  0  0  0  0  0  0  0
  149.0883  137.4378  156.8034 H   0  0  0  0  0  0  0  0  0  0  0  0
  150.6663  137.7101  156.0477 H   0  0  0  0  0  0  0  0  0  0  0  0
  149.2189  137.5912  155.0525 H   0  0  0  0  0  0  0  0  0  0  0  0
  150.0517  139.6494  159.2918 H   0  0  0  0  0  0  0  0  0  0  0  0
  150.6623  138.4679  158.1896 H   0  0  0  0  0  0  0  0  0  0  0  0
  151.3144  141.2333  160.0724 H   0  0  0  0  0  0  0  0  0  0  0  0
  155.3171  141.0045  160.9018 H   0  0  0  0  0  0  0  0  0  0  0  0
  154.7740  139.9954  159.5767 H   0  0  0  0  0  0  0  0  0  0  0  0
  154.0324  139.8331  161.1641 H   0  0  0  0  0  0  0  0  0  0  0  0
  154.9120  143.0149  159.4162 H   0  0  0  0  0  0  0  0  0  0  0  0
  154.2212  142.1079  158.1102 H   0  0  0  0  0  0  0  0  0  0  0  0
  153.4999  144.4688  158.0299 H   0  0  0  0  0  0  0  0  0  0  0  0
  152.1171  143.4309  158.2617 H   0  0  0  0  0  0  0  0  0  0  0  0
  153.5859  144.9821  160.4384 H   0  0  0  0  0  0  0  0  0  0  0  0
  150.7747  145.3851  159.3122 H   0  0  0  0  0  0  0  0  0  0  0  0
  152.1627  146.4315  159.0242 H   0  0  0  0  0  0  0  0  0  0  0  0
  151.4881  146.2926  160.6434 H   0  0  0  0  0  0  0  0  0  0  0  0
  151.8840  144.1449  162.0064 H   0  0  0  0  0  0  0  0  0  0  0  0
  151.1035  143.2394  160.7371 H   0  0  0  0  0  0  0  0  0  0  0  0
  152.5539  141.7556  162.0932 H   0  0  0  0  0  0  0  0  0  0  0  0
  153.9223  142.7991  161.8270 H   0  0  0  0  0  0  0  0  0  0  0  0
  1  2  1  0  0  0  0
  1 23  1  0  0  0  0
  1 24  1  0  0  0  0
  1 25  1  0  0  0  0
  2 21  1  0  0  0  0
  2  3  2  0  0  0  0
  3  4  1  0  0  0  0
  4  5  1  0  0  0  0
  4  6  2  0  0  0  0
  5 26  1  0  0  0  0
  5 27  1  0  0  0  0
  5 28  1  0  0  0  0
  6  7  1  0  0  0  0
  6 19  1  0  0  0  0
  7  8  1  0  0  0  0
  7 29  1  0  0  0  0
  7 30  1  0  0  0  0
  8  9  2  0  0  0  0
  8 10  1  0  0  0  0
 10 11  1  0  0  0  0
 10 31  1  0  0  0  0
 11 18  1  0  0  0  0
 11 12  1  0  0  0  0
 11 13  1  0  0  0  0
 12 32  1  0  0  0  0
 12 33  1  0  0  0  0
 12 34  1  0  0  0  0
 13 14  1  0  0  0  0
 13 35  1  0  0  0  0
 13 36  1  0  0  0  0
 14 15  1  0  0  0  0
 14 37  1  0  0  0  0
 14 38  1  0  0  0  0
 15 16  1  0  0  0  0
 15 17  1  0  0  0  0
 15 39  1  0  0  0  0
 16 40  1  0  0  0  0
 16 41  1  0  0  0  0
 16 42  1  0  0  0  0
 17 18  1  0  0  0  0
 17 43  1  0  0  0  0
 17 44  1  0  0  0  0
 18 45  1  0  0  0  0
 18 46  1  0  0  0  0
 19 20  2  0  0  0  0
 19 21  1  0  0  0  0
 21 22  1  0  0  0  0
M  END
> <s_m_source_file>
AV-unprocessed.smi

> <i_m_source_file_index>
1072

> <i_lp_mmshare_version>
43012

> <i_f3d_flags>
0

> <s_epik_input>
W0NIM11jMW5jKFtDSDNdKWMoYyg9TylbbkhdMSlbQ0gyXUMoPU8pW05IXVtDQEBdMihbQ0gzXSlbQ0gyXVtDSDJdW0NAQEhdKFtDSDNdKVtDSDJdW0NIMl0y

> <s_epik_cmdline>
J2VwaWtfcHl0aG9uJywgJy1waCcsICc3LjAnLCAnLXRuJywgJzgnLCAnLW1hJywgJzIwMCcsICctbWV0YWxfYmluZGluZycsICctaW1hZScsICc8aW5maWxlLm1hZT4nLCAnLW9tYWUnLCAnPG91dGZpbGUubWFlPic=

> <r_lp_tautomer_probability>
0.839158

> <r_epik_Ionization_Penalty>
0.000352328

> <r_epik_Ionization_Penalty_Charging>
0.000314696

> <r_epik_Ionization_Penalty_Neutral>
3.76315e-05

> <r_epik_State_Penalty>
0.09125

> <r_epik_Charging_Adjusted_Penalty>
0.0915647

> <i_epik_Tot_Q>
0

> <i_epik_Tot_abs_Q>
0

> <r_epik_Metal_State_Penalty>
0.245598

> <b_epik_Metal_Only>
0

> <s_lp_Force_Field>
OPLS_2005

> <r_lp_Energy>
11.0611

> <b_lp_Chiralities_Consistent>
1

> <s_lp_Variant>
AV-unprocessed.smi:1072-1

> <Gold.Version>
5.8.1

> <Gold.Id.Protein>
6NUR|6NUR_protein|mol2

> <Gold.PLP.Fitness>
45.3913

> <Gold.PLP.PLP>
-40.1619

> <Gold.PLP.part.hbond>
-2.0000

> <Gold.PLP.part.metal>
0.0000

> <Gold.PLP.part.buried>
-5.8426

> <Gold.PLP.part.nonpolar>
-32.7114

> <Gold.PLP.part.repulsive>
0.3621

> <Gold.PLP.ligand.clash>
0.0000

> <Gold.PLP.ligand.torsion>
0.3804

> <Gold.PLP.Chemscore.Hbond>
1.9920

> <Gold.PLP.Chemscore.CHOScore>
0.0000

> <Gold.PLP.Chemscore.Metal>
0.0000

> <Gold.Chemscore.Hbonds>
donor molecule, donor type, donor heavy atom, donor atom, acceptor molecule, acceptor atom, score
      L1  H    21    22       P1  8028  1.00
      P1  H  7997  8009       L1     9  1.00

> <Gold.PLP.Chemscore.Internal.Correction>
0.0141

> <Gold.Rescore>
     Score         DG    S(hbond)    S(metal)    S(lipo)     H(rot)  DE(clash)    DE(int)     intcor
     21.01     -21.32       1.94        0.00     112.09       1.47       0.11       0.20       ----

> <Gold.Chemscore.Fitness>
21.0110

> <Gold.Chemscore.DG>
-21.3218

> <Gold.Chemscore.ZeroCoef>
-5.4800

> <Gold.Chemscore.Hbond>
1.9426

> <Gold.Chemscore.Metal>
0.0000

> <Gold.Chemscore.Lipo>
112.0879

> <Gold.Chemscore.Internal_Hbond>
0.0000

> <Gold.Chemscore.DEClash>
0.1128

> <Gold.Chemscore.DEInternal>
0.1979

> <Gold.Chemscore.Rot>
1.4690

> <Gold.Chemscore.Internal.Correction>
   9.000000E+99

> <Gold.Chemscore.Hbonds>
donor molecule, donor type, donor heavy atom, donor atom, acceptor molecule, acceptor atom, score
      L1  H    21    22       P1  8028  0.98
      P1  H  7997  8009       L1     9  0.99

> <Gold.Chemscore.Hbond.Weighted>
-6.4882

> <Gold.Chemscore.Metal.Weighted>
-0.0000

> <Gold.Chemscore.Lipo.Weighted>
-13.1143

> <Gold.Chemscore.Internal_Hbond.Weighted>
0.0000

> <Gold.Chemscore.DEClash.Weighted>
0.1128

> <Gold.Chemscore.DEInternal.Weighted>
0.1979

> <Gold.Chemscore.Rot.Weighted>
3.7607

> <Gold.Chemscore.Internal.Correction.Weighted>
   9.000000E+99

> <Gold.Protein.RotatedTorsions>
[ 6907 6896 6895 6894 ] final -134.51 input  -60.11 | X-H torsion
[ 7974 7965 7964 7962 ] final -143.99 input  175.53 | X-H torsion
[ 8008 7997 7996 7995 ] final  149.99 input   59.86 | X-H torsion
[ 10167 10162 10161 10158 ] final   12.59 input  -65.29 | X-H torsion
[ 10718 10713 10712 10709 ] final    4.87 input   66.30 | X-H torsion
[ 10763 10752 10751 10750 ] final   55.75 input  -60.55 | X-H torsion
[ 11005 11000 10999 10996 ] final   -5.39 input  -57.11 | X-H torsion

> <Gold.Protein.ActiveResidues>
 VAL166  LYS551  ARG553  GLY616  TRP617  ASP618  TYR619  PRO620  LYS621  CYS622 
 ASP623  PHE694  ASN695  SER759  ASP760  ASP761  ALA762  ILE779  LEU786  VAL792 
 PHE793  MET794  SER795  GLU796  ALA797  LYS798  CYS799  TRP800  GLU811  SER814 

> <Gold.Protein.RotatedAtoms>
  150.9867  133.6191  159.2714 H   0  0  0  0  0  0  0  0  0  0  0  0  # atno 6907 bound_to 6896
  151.3426  135.0866  159.9386 H   0  0  0  0  0  0  0  0  0  0  0  0  # atno 6908 bound_to 6896
  152.5233  133.9475  159.7710 H   0  0  0  0  0  0  0  0  0  0  0  0  # atno 6909 bound_to 6896
  144.8330  140.5766  143.5503 H   0  0  0  0  0  0  0  0  0  0  0  0  # atno 7974 bound_to 7965
  156.2733  140.2087  156.5947 H   0  0  0  0  0  0  0  0  0  0  0  0  # atno 8008 bound_to 7997
  154.6954  140.0526  157.0429 H   0  0  0  0  0  0  0  0  0  0  0  0  # atno 8009 bound_to 7997
  155.0808  140.3186  155.4605 H   0  0  0  0  0  0  0  0  0  0  0  0  # atno 8010 bound_to 7997
  140.6058  143.8511  150.7012 H   0  0  0  0  0  0  0  0  0  0  0  0  # atno 10167 bound_to 10162
  156.8990  130.5715  149.5648 H   0  0  0  0  0  0  0  0  0  0  0  0  # atno 10718 bound_to 10713
  152.9821  135.5700  154.5117 H   0  0  0  0  0  0  0  0  0  0  0  0  # atno 10763 bound_to 10752
  154.4620  135.2782  155.1708 H   0  0  0  0  0  0  0  0  0  0  0  0  # atno 10764 bound_to 10752
  154.3292  135.6253  153.5597 H   0  0  0  0  0  0  0  0  0  0  0  0  # atno 10765 bound_to 10752
  140.6906  133.9075  155.8615 H   0  0  0  0  0  0  0  0  0  0  0  0  # atno 11005 bound_to 11000
  145.4856  139.1492  143.3738 LP  0  0  0  0  0  0  0  0  0  0  0  0  # atno 17320 bound_to 7965
  146.2631  140.4993  142.8845 LP  0  0  0  0  0  0  0  0  0  0  0  0  # atno 17321 bound_to 7965
  140.2068  143.3915  152.1749 LP  0  0  0  0  0  0  0  0  0  0  0  0  # atno 17342 bound_to 10162
  139.5324  144.7173  151.5011 LP  0  0  0  0  0  0  0  0  0  0  0  0  # atno 17343 bound_to 10162
  156.0591  130.5647  150.9155 LP  0  0  0  0  0  0  0  0  0  0  0  0  # atno 17370 bound_to 10713
  157.6037  131.0940  150.8915 LP  0  0  0  0  0  0  0  0  0  0  0  0  # atno 17371 bound_to 10713
  141.0244  134.0843  157.4084 LP  0  0  0  0  0  0  0  0  0  0  0  0  # atno 17394 bound_to 11000
  139.8925  135.0125  156.6847 LP  0  0  0  0  0  0  0  0  0  0  0  0  # atno 17395 bound_to 11000

$$$$
