AV-unprocessed.smi:2801|AV-procd|sdf|10800|dock4
  -GOLD-   2272015233D 1   1.00000     0.00000
 Structure written by MMmdl.
 32 32  0  0  0  0  0  0  0  0  1 V2000
  152.6966  142.8375  161.7589 C   0  0  0  0  0  0  0  0  0  0  0  0
  153.6839  142.2390  160.7547 C   0  0  0  0  0  0  0  0  0  0  0  0
  152.9550  141.7533  159.6341 O   0  0  0  0  0  0  0  0  0  0  0  0
  152.0209  142.6699  159.0675 C   0  0  1  0  0  0  0  0  0  0  0  0
  152.7800  143.9647  158.7203 C   0  0  0  0  0  0  0  0  0  0  0  0
  152.0002  145.2304  159.0977 C   0  0  0  0  0  0  0  0  0  0  0  0
  151.3701  142.0555  157.8172 C   0  0  0  0  0  0  0  0  0  0  0  0
  150.4291  142.6359  157.2767 O   0  0  0  0  0  0  0  0  0  0  0  0
  151.9209  140.9082  157.3786 N   0  0  0  0  0  0  0  0  0  0  0  0
  151.5572  140.0962  156.2672 C   0  0  0  0  0  0  0  0  0  0  0  0
  150.4530  140.3606  155.4204 C   0  0  0  0  0  0  0  0  0  0  0  0
  150.1829  139.4712  154.3616 C   0  0  0  0  0  0  0  0  0  0  0  0
  150.9176  138.3680  154.1098 N   0  0  0  0  0  0  0  0  0  0  0  0
  151.9611  138.1099  154.9248 C   0  0  0  0  0  0  0  0  0  0  0  0
  152.3199  138.9327  156.0123 C   0  0  0  0  0  0  0  0  0  0  0  0
  153.3895  138.5968  156.7944 O   0  0  0  0  0  0  0  0  0  0  0  0
  153.2174  143.2184  162.6375 H   0  0  0  0  0  0  0  0  0  0  0  0
  151.9770  142.0898  162.0933 H   0  0  0  0  0  0  0  0  0  0  0  0
  152.1405  143.6639  161.3158 H   0  0  0  0  0  0  0  0  0  0  0  0
  154.4057  143.0003  160.4568 H   0  0  0  0  0  0  0  0  0  0  0  0
  154.2380  141.4238  161.2223 H   0  0  0  0  0  0  0  0  0  0  0  0
  151.2491  142.9067  159.8029 H   0  0  0  0  0  0  0  0  0  0  0  0
  153.7490  143.9761  159.2213 H   0  0  0  0  0  0  0  0  0  0  0  0
  152.9888  143.9932  157.6498 H   0  0  0  0  0  0  0  0  0  0  0  0
  152.5597  146.1260  158.8278 H   0  0  0  0  0  0  0  0  0  0  0  0
  151.8072  145.2705  160.1700 H   0  0  0  0  0  0  0  0  0  0  0  0
  151.0403  145.2705  158.5824 H   0  0  0  0  0  0  0  0  0  0  0  0
  152.7395  140.5962  157.8810 H   0  0  0  0  0  0  0  0  0  0  0  0
  149.8039  141.2097  155.5630 H   0  0  0  0  0  0  0  0  0  0  0  0
  149.3472  139.6488  153.7011 H   0  0  0  0  0  0  0  0  0  0  0  0
  152.5262  137.2164  154.7039 H   0  0  0  0  0  0  0  0  0  0  0  0
  153.1425  138.1160  157.5698 H   0  0  0  0  0  0  0  0  0  0  0  0
  1  2  1  0  0  0  0
  1 17  1  0  0  0  0
  1 18  1  0  0  0  0
  1 19  1  0  0  0  0
  2  3  1  0  0  0  0
  2 20  1  0  0  0  0
  2 21  1  0  0  0  0
  3  4  1  0  0  0  0
  4  5  1  0  0  0  0
  4  7  1  0  0  0  0
  4 22  1  0  0  0  0
  5  6  1  0  0  0  0
  5 23  1  0  0  0  0
  5 24  1  0  0  0  0
  6 25  1  0  0  0  0
  6 26  1  0  0  0  0
  6 27  1  0  0  0  0
  7  8  2  0  0  0  0
  7  9  1  0  0  0  0
  9 10  1  0  0  0  0
  9 28  1  0  0  0  0
 10 15  1  0  0  0  0
 10 11  2  0  0  0  0
 11 12  1  0  0  0  0
 11 29  1  0  0  0  0
 12 13  2  0  0  0  0
 12 30  1  0  0  0  0
 13 14  1  0  0  0  0
 14 15  2  0  0  0  0
 14 31  1  0  0  0  0
 15 16  1  0  0  0  0
 16 32  1  0  0  0  0
M  END
> <s_m_source_file>
AV-unprocessed.smi

> <i_m_source_file_index>
2801

> <i_lp_mmshare_version>
43012

> <i_f3d_flags>
0

> <s_epik_input>
W0NIM11bQ0gyXU9bQ0BIXShbQ0gyXVtDSDNdKUMoPU8pW05IXWMxW2NIXVtjSF1uW2NIXWMxW09IXQ==

> <s_epik_cmdline>
J2VwaWtfcHl0aG9uJywgJy1waCcsICc3LjAnLCAnLXRuJywgJzgnLCAnLW1hJywgJzIwMCcsICctbWV0YWxfYmluZGluZycsICctaW1hZScsICc8aW5maWxlLm1hZT4nLCAnLW9tYWUnLCAnPG91dGZpbGUubWFlPic=

> <r_lp_tautomer_probability>
0.43658

> <r_epik_Ionization_Penalty>
0.0250035

> <r_epik_Ionization_Penalty_Charging>
0

> <r_epik_Ionization_Penalty_Neutral>
0.0250035

> <r_epik_State_Penalty>
0.520524

> <r_epik_Charging_Adjusted_Penalty>
0.520524

> <i_epik_Tot_Q>
0

> <i_epik_Tot_abs_Q>
0

> <r_epik_Metal_State_Penalty>
0.772586

> <b_epik_Metal_Only>
0

> <s_lp_Force_Field>
OPLS_2005

> <r_lp_Energy>
11.8743

> <b_lp_Chiralities_Consistent>
1

> <s_lp_Variant>
AV-unprocessed.smi:2801-4

> <Gold.Version>
5.8.1

> <Gold.Id.Protein>
6NUR|6NUR_protein|mol2

> <Gold.PLP.Fitness>
41.4196

> <Gold.PLP.PLP>
-37.1889

> <Gold.PLP.part.hbond>
-1.0000

> <Gold.PLP.part.metal>
0.0000

> <Gold.PLP.part.buried>
-2.9075

> <Gold.PLP.part.nonpolar>
-33.4786

> <Gold.PLP.part.repulsive>
0.8294

> <Gold.PLP.ligand.clash>
0.0000

> <Gold.PLP.ligand.torsion>
0.7897

> <Gold.PLP.Chemscore.Hbond>
1.0000

> <Gold.PLP.Chemscore.CHOScore>
0.9311

> <Gold.PLP.Chemscore.Metal>
0.0000

> <Gold.Chemscore.Hbonds>
donor molecule, donor type, donor heavy atom, donor atom, acceptor molecule, acceptor atom, score
      P1  H  7997  8008       L1    16  0.99
      L1  C    12    30       P1  7957  0.75

> <Gold.PLP.Chemscore.Internal.Correction>
0.0168

> <Gold.Rescore>
     Score         DG    S(hbond)    S(metal)    S(lipo)     H(rot)  DE(clash)    DE(int)     intcor
     11.70     -14.16       0.88        0.00      95.38       2.11       0.48       1.99       ----

> <Gold.Chemscore.Fitness>
11.6958

> <Gold.Chemscore.DG>
-14.1601

> <Gold.Chemscore.ZeroCoef>
-5.4800

> <Gold.Chemscore.Hbond>
0.8770

> <Gold.Chemscore.Metal>
0.0000

> <Gold.Chemscore.Lipo>
95.3832

> <Gold.Chemscore.Internal_Hbond>
0.0000

> <Gold.Chemscore.DEClash>
0.4787

> <Gold.Chemscore.DEInternal>
1.9856

> <Gold.Chemscore.Rot>
2.1129

> <Gold.Chemscore.Internal.Correction>
   9.000000E+99

> <Gold.Chemscore.Hbonds>
donor molecule, donor type, donor heavy atom, donor atom, acceptor molecule, acceptor atom, score
      P1  H  7997  8008       L1    16  0.37

> <Gold.Chemscore.Hbond.Weighted>
-2.9292

> <Gold.Chemscore.Metal.Weighted>
-0.0000

> <Gold.Chemscore.Lipo.Weighted>
-11.1598

> <Gold.Chemscore.Internal_Hbond.Weighted>
0.0000

> <Gold.Chemscore.DEClash.Weighted>
0.4787

> <Gold.Chemscore.DEInternal.Weighted>
1.9856

> <Gold.Chemscore.Rot.Weighted>
5.4089

> <Gold.Chemscore.Internal.Correction.Weighted>
   9.000000E+99

> <Gold.Protein.RotatedTorsions>
[ 6907 6896 6895 6894 ] final  -55.89 input  -60.11 | X-H torsion
[ 7974 7965 7964 7962 ] final  -90.99 input  175.53 | X-H torsion
[ 8008 7997 7996 7995 ] final  -65.57 input   59.86 | X-H torsion
[ 10167 10162 10161 10158 ] final   48.57 input  -65.29 | X-H torsion
[ 10718 10713 10712 10709 ] final  -71.90 input   66.30 | X-H torsion
[ 10763 10752 10751 10750 ] final  160.25 input  -60.55 | X-H torsion
[ 11005 11000 10999 10996 ] final  -66.52 input  -57.11 | X-H torsion

> <Gold.Protein.ActiveResidues>
 VAL166  LYS551  ARG553  GLY616  TRP617  ASP618  TYR619  PRO620  LYS621  CYS622 
 ASP623  PHE694  ASN695  SER759  ASP760  ASP761  ALA762  ILE779  LEU786  VAL792 
 PHE793  MET794  SER795  GLU796  ALA797  LYS798  CYS799  TRP800  GLU811  SER814 

> <Gold.Protein.RotatedAtoms>
  150.8213  134.7423  159.6774 H   0  0  0  0  0  0  0  0  0  0  0  0  # atno 6907 bound_to 6896
  152.4329  134.5740  159.9939 H   0  0  0  0  0  0  0  0  0  0  0  0  # atno 6908 bound_to 6896
  151.5923  133.3328  159.3066 H   0  0  0  0  0  0  0  0  0  0  0  0  # atno 6909 bound_to 6896
  145.4190  140.9550  143.2191 H   0  0  0  0  0  0  0  0  0  0  0  0  # atno 7974 bound_to 7965
  154.4680  140.0930  156.7071 H   0  0  0  0  0  0  0  0  0  0  0  0  # atno 8008 bound_to 7997
  155.4803  140.3467  155.4320 H   0  0  0  0  0  0  0  0  0  0  0  0  # atno 8009 bound_to 7997
  156.0990  140.1417  156.9481 H   0  0  0  0  0  0  0  0  0  0  0  0  # atno 8010 bound_to 7997
  140.2919  144.3036  150.6238 H   0  0  0  0  0  0  0  0  0  0  0  0  # atno 10167 bound_to 10162
  156.0343  130.4361  150.2512 H   0  0  0  0  0  0  0  0  0  0  0  0  # atno 10718 bound_to 10713
  154.2445  135.2773  155.2841 H   0  0  0  0  0  0  0  0  0  0  0  0  # atno 10763 bound_to 10752
  154.5517  135.5673  153.6931 H   0  0  0  0  0  0  0  0  0  0  0  0  # atno 10764 bound_to 10752
  152.9993  135.6276  154.2590 H   0  0  0  0  0  0  0  0  0  0  0  0  # atno 10765 bound_to 10752
  141.1484  133.6701  156.6152 H   0  0  0  0  0  0  0  0  0  0  0  0  # atno 11005 bound_to 11000
  144.8258  139.5713  143.6966 LP  0  0  0  0  0  0  0  0  0  0  0  0  # atno 17320 bound_to 7965
  146.2666  139.6534  142.9325 LP  0  0  0  0  0  0  0  0  0  0  0  0  # atno 17321 bound_to 7965
  140.5725  143.2179  151.7574 LP  0  0  0  0  0  0  0  0  0  0  0  0  # atno 17342 bound_to 10162
  139.4936  144.4196  151.9992 LP  0  0  0  0  0  0  0  0  0  0  0  0  # atno 17343 bound_to 10162
  157.0613  131.0090  151.3222 LP  0  0  0  0  0  0  0  0  0  0  0  0  # atno 17370 bound_to 10713
  157.5069  130.7914  149.7663 LP  0  0  0  0  0  0  0  0  0  0  0  0  # atno 17371 bound_to 10713
  140.3583  134.7709  157.4516 LP  0  0  0  0  0  0  0  0  0  0  0  0  # atno 17394 bound_to 11000
  140.0805  134.5737  155.8545 LP  0  0  0  0  0  0  0  0  0  0  0  0  # atno 17395 bound_to 11000

$$$$
