AV-unprocessed.smi:1271|AV-procd|sdf|5333|dock5
  -GOLD-   22720 4463D 1   1.00000     0.00000
 Structure written by MMmdl.
 35 36  0  0  0  0  0  0  0  0  1 V2000
  151.2569  139.9942  155.5842 C   0  0  0  0  0  0  0  0  0  0  0  0
  150.5308  141.3254  155.8333 C   0  0  1  0  0  0  0  0  0  0  0  0
  149.1064  141.0993  156.3763 C   0  0  0  0  0  0  0  0  0  0  0  0
  148.1062  141.1178  155.3228 N   0  0  0  0  0  0  0  0  0  0  0  0
  147.9303  142.0548  154.3266 C   0  0  0  0  0  0  0  0  0  0  0  0
  146.8546  141.6608  153.5839 C   0  0  0  0  0  0  0  0  0  0  0  0
  146.4336  140.4550  154.2113 C   0  0  0  0  0  0  0  0  0  0  0  0
  147.1859  140.1310  155.2506 N   0  0  0  0  0  0  0  0  0  0  0  0
  151.2935  142.1445  156.7718 N   0  0  0  0  0  0  0  0  0  0  0  0
  151.6755  141.7834  158.0080 C   0  0  0  0  0  0  0  0  0  0  0  0
  151.3565  140.7016  158.5033 O   0  0  0  0  0  0  0  0  0  0  0  0
  152.4382  142.7021  158.6536 N   0  0  0  0  0  0  0  0  0  0  0  0
  152.5123  144.1392  158.3418 C   0  0  0  0  0  0  0  0  0  0  0  0
  151.5879  144.9076  159.3001 C   0  0  0  0  0  0  0  0  0  0  0  0
  152.1348  144.7131  161.0255 S   0  0  0  0  0  0  0  0  0  0  0  0
  152.3130  142.9022  161.0909 C   0  0  0  0  0  0  0  0  0  0  0  0
  153.1402  142.3830  159.9023 C   0  0  0  0  0  0  0  0  0  0  0  0
  150.7022  139.3715  154.8818 H   0  0  0  0  0  0  0  0  0  0  0  0
  151.3767  139.4277  156.5081 H   0  0  0  0  0  0  0  0  0  0  0  0
  152.2490  140.1575  155.1623 H   0  0  0  0  0  0  0  0  0  0  0  0
  150.4495  141.8539  154.8815 H   0  0  0  0  0  0  0  0  0  0  0  0
  149.0458  140.1329  156.8782 H   0  0  0  0  0  0  0  0  0  0  0  0
  148.8532  141.8538  157.1236 H   0  0  0  0  0  0  0  0  0  0  0  0
  148.5755  142.9160  154.2335 H   0  0  0  0  0  0  0  0  0  0  0  0
  146.4311  142.1591  152.7244 H   0  0  0  0  0  0  0  0  0  0  0  0
  145.6091  139.8104  153.9448 H   0  0  0  0  0  0  0  0  0  0  0  0
  151.5978  143.0468  156.4357 H   0  0  0  0  0  0  0  0  0  0  0  0
  153.5389  144.4907  158.4546 H   0  0  0  0  0  0  0  0  0  0  0  0
  152.2537  144.3681  157.3076 H   0  0  0  0  0  0  0  0  0  0  0  0
  151.5808  145.9694  159.0532 H   0  0  0  0  0  0  0  0  0  0  0  0
  150.5615  144.5504  159.2075 H   0  0  0  0  0  0  0  0  0  0  0  0
  152.7892  142.6313  162.0333 H   0  0  0  0  0  0  0  0  0  0  0  0
  151.3218  142.4470  161.0917 H   0  0  0  0  0  0  0  0  0  0  0  0
  153.3152  141.3117  160.0115 H   0  0  0  0  0  0  0  0  0  0  0  0
  154.1314  142.8386  159.9044 H   0  0  0  0  0  0  0  0  0  0  0  0
  1  2  1  0  0  0  0
  1 18  1  0  0  0  0
  1 19  1  0  0  0  0
  1 20  1  0  0  0  0
  2  3  1  0  0  0  0
  2  9  1  0  0  0  0
  2 21  1  0  0  0  0
  3  4  1  0  0  0  0
  3 22  1  0  0  0  0
  3 23  1  0  0  0  0
  4  8  1  0  0  0  0
  4  5  1  0  0  0  0
  5  6  2  0  0  0  0
  5 24  1  0  0  0  0
  6  7  1  0  0  0  0
  6 25  1  0  0  0  0
  7  8  2  0  0  0  0
  7 26  1  0  0  0  0
  9 10  1  0  0  0  0
  9 27  1  0  0  0  0
 10 11  2  0  0  0  0
 10 12  1  0  0  0  0
 12 17  1  0  0  0  0
 12 13  1  0  0  0  0
 13 14  1  0  0  0  0
 13 28  1  0  0  0  0
 13 29  1  0  0  0  0
 14 15  1  0  0  0  0
 14 30  1  0  0  0  0
 14 31  1  0  0  0  0
 15 16  1  0  0  0  0
 16 17  1  0  0  0  0
 16 32  1  0  0  0  0
 16 33  1  0  0  0  0
 17 34  1  0  0  0  0
 17 35  1  0  0  0  0
M  END
> <s_m_source_file>
AV-unprocessed.smi

> <i_m_source_file_index>
1271

> <i_lp_mmshare_version>
43012

> <i_f3d_flags>
0

> <s_epik_input>
bjFbY0hdW2NIXVtjSF1uMVtDSDJdW0NAQEhdKFtDSDNdKVtOSF1DKD1PKU4yW0NIMl1bQ0gyXVNbQ0gyXVtDSDJdMg==

> <s_epik_cmdline>
J2VwaWtfcHl0aG9uJywgJy1waCcsICc3LjAnLCAnLXRuJywgJzgnLCAnLW1hJywgJzIwMCcsICctbWV0YWxfYmluZGluZycsICctaW1hZScsICc8aW5maWxlLm1hZT4nLCAnLW9tYWUnLCAnPG91dGZpbGUubWFlPic=

> <r_lp_tautomer_probability>
1

> <r_epik_Ionization_Penalty>
5.86346e-05

> <r_epik_Ionization_Penalty_Charging>
0

> <r_epik_Ionization_Penalty_Neutral>
5.86346e-05

> <r_epik_State_Penalty>
-0

> <r_epik_Charging_Adjusted_Penalty>
0

> <i_epik_Tot_Q>
0

> <i_epik_Tot_abs_Q>
0

> <r_epik_Metal_State_Penalty>
-0

> <b_epik_Metal_Only>
0

> <s_lp_Force_Field>
OPLS_2005

> <r_lp_Energy>
23.1202

> <b_lp_Chiralities_Consistent>
1

> <s_lp_Variant>
AV-unprocessed.smi:1271-2

> <Gold.Version>
5.8.1

> <Gold.Id.Protein>
6NUR|6NUR_protein|mol2

> <Gold.PLP.Fitness>
42.4891

> <Gold.PLP.PLP>
-38.3299

> <Gold.PLP.part.hbond>
0.0000

> <Gold.PLP.part.metal>
0.0000

> <Gold.PLP.part.buried>
-2.1781

> <Gold.PLP.part.nonpolar>
-35.9182

> <Gold.PLP.part.repulsive>
0.1244

> <Gold.PLP.ligand.clash>
0.0000

> <Gold.PLP.ligand.torsion>
0.7583

> <Gold.PLP.Chemscore.Hbond>
0.0000

> <Gold.PLP.Chemscore.CHOScore>
1.8791

> <Gold.PLP.Chemscore.Metal>
0.0000

> <Gold.Chemscore.Hbonds>
donor molecule, donor type, donor heavy atom, donor atom, acceptor molecule, acceptor atom, score
      L1  C     5    24       P1  8028  1.00
      L1  C     7    26       P1 10175  0.90

> <Gold.PLP.Chemscore.Internal.Correction>
0.0385

> <Gold.Rescore>
     Score         DG    S(hbond)    S(metal)    S(lipo)     H(rot)  DE(clash)    DE(int)     intcor
     11.86     -13.44       0.00        0.00      98.79       1.41       0.02       1.55       ----

> <Gold.Chemscore.Fitness>
11.8616

> <Gold.Chemscore.DG>
-13.4363

> <Gold.Chemscore.ZeroCoef>
-5.4800

> <Gold.Chemscore.Hbond>
0.0000

> <Gold.Chemscore.Metal>
0.0000

> <Gold.Chemscore.Lipo>
98.7867

> <Gold.Chemscore.Internal_Hbond>
0.0000

> <Gold.Chemscore.DEClash>
0.0234

> <Gold.Chemscore.DEInternal>
1.5513

> <Gold.Chemscore.Rot>
1.4069

> <Gold.Chemscore.Internal.Correction>
   9.000000E+99

> <Gold.Chemscore.Hbond.Weighted>
-0.0000

> <Gold.Chemscore.Metal.Weighted>
-0.0000

> <Gold.Chemscore.Lipo.Weighted>
-11.5580

> <Gold.Chemscore.Internal_Hbond.Weighted>
0.0000

> <Gold.Chemscore.DEClash.Weighted>
0.0234

> <Gold.Chemscore.DEInternal.Weighted>
1.5513

> <Gold.Chemscore.Rot.Weighted>
3.6017

> <Gold.Chemscore.Internal.Correction.Weighted>
   9.000000E+99

> <Gold.Protein.RotatedTorsions>
[ 6907 6896 6895 6894 ] final   -1.95 input  -60.11 | X-H torsion
[ 7974 7965 7964 7962 ] final  -84.67 input  175.53 | X-H torsion
[ 8008 7997 7996 7995 ] final   20.98 input   59.86 | X-H torsion
[ 10167 10162 10161 10158 ] final  154.58 input  -65.29 | X-H torsion
[ 10718 10713 10712 10709 ] final  144.37 input   66.30 | X-H torsion
[ 10763 10752 10751 10750 ] final  -50.48 input  -60.55 | X-H torsion
[ 11005 11000 10999 10996 ] final   89.38 input  -57.11 | X-H torsion

> <Gold.Protein.ActiveResidues>
 VAL166  LYS551  ARG553  GLY616  TRP617  ASP618  TYR619  PRO620  LYS621  CYS622 
 ASP623  PHE694  ASN695  SER759  ASP760  ASP761  ALA762  ILE779  LEU786  VAL792 
 PHE793  MET794  SER795  GLU796  ALA797  LYS798  CYS799  TRP800  GLU811  SER814 

> <Gold.Protein.RotatedAtoms>
  151.5378  135.1068  159.9918 H   0  0  0  0  0  0  0  0  0  0  0  0  # atno 6907 bound_to 6896
  152.4549  133.7699  159.6804 H   0  0  0  0  0  0  0  0  0  0  0  0  # atno 6908 bound_to 6896
  150.8490  133.7751  159.3057 H   0  0  0  0  0  0  0  0  0  0  0  0  # atno 6909 bound_to 6896
  145.5035  140.9545  143.1746 H   0  0  0  0  0  0  0  0  0  0  0  0  # atno 7974 bound_to 7965
  154.9438  140.3056  155.5108 H   0  0  0  0  0  0  0  0  0  0  0  0  # atno 8008 bound_to 7997
  156.2993  140.2331  156.4447 H   0  0  0  0  0  0  0  0  0  0  0  0  # atno 8009 bound_to 7997
  154.8120  140.0428  157.1338 H   0  0  0  0  0  0  0  0  0  0  0  0  # atno 8010 bound_to 7997
  139.4823  144.5174  151.7930 H   0  0  0  0  0  0  0  0  0  0  0  0  # atno 10167 bound_to 10162
  157.3579  131.0960  151.0941 H   0  0  0  0  0  0  0  0  0  0  0  0  # atno 10718 bound_to 10713
  154.1111  135.6549  153.4885 H   0  0  0  0  0  0  0  0  0  0  0  0  # atno 10763 bound_to 10752
  153.0256  135.5248  154.7191 H   0  0  0  0  0  0  0  0  0  0  0  0  # atno 10764 bound_to 10752
  154.6371  135.2983  155.0117 H   0  0  0  0  0  0  0  0  0  0  0  0  # atno 10765 bound_to 10752
  139.8876  134.8548  156.3134 H   0  0  0  0  0  0  0  0  0  0  0  0  # atno 11005 bound_to 11000
  144.7767  139.6615  143.7172 LP  0  0  0  0  0  0  0  0  0  0  0  0  # atno 17320 bound_to 7965
  146.2211  139.5637  142.9618 LP  0  0  0  0  0  0  0  0  0  0  0  0  # atno 17321 bound_to 7965
  140.4684  144.1622  150.5915 LP  0  0  0  0  0  0  0  0  0  0  0  0  # atno 17342 bound_to 10162
  140.4409  143.2527  151.9474 LP  0  0  0  0  0  0  0  0  0  0  0  0  # atno 17343 bound_to 10162
  157.2092  130.6430  149.5768 LP  0  0  0  0  0  0  0  0  0  0  0  0  # atno 17370 bound_to 10713
  155.9732  130.4665  150.6293 LP  0  0  0  0  0  0  0  0  0  0  0  0  # atno 17371 bound_to 10713
  140.9835  133.7252  156.0707 LP  0  0  0  0  0  0  0  0  0  0  0  0  # atno 17394 bound_to 11000
  140.7718  134.3824  157.5506 LP  0  0  0  0  0  0  0  0  0  0  0  0  # atno 17395 bound_to 11000

$$$$
