AV-unprocessed.smi:1840|AV-procd|sdf|7492|dock6
  -GOLD-   22720 9193D 1   1.00000     0.00000
 Structure written by MMmdl.
 43 44  0  0  0  0  0  0  0  0  1 V2000
  144.0692  136.7256  152.3410 C   0  0  0  0  0  0  0  0  0  0  0  0
  144.8398  135.6285  151.5948 C   0  0  2  0  0  0  0  0  0  0  0  0
  144.0307  134.3147  151.5273 C   0  0  0  0  0  0  0  0  0  0  0  0
  144.5430  133.3931  150.5266 N   0  0  0  0  0  0  0  0  0  0  0  0
  143.9527  132.9960  149.3453 C   0  0  0  0  0  0  0  0  0  0  0  0
  144.8228  132.1479  148.7218 C   0  0  0  0  0  0  0  0  0  0  0  0
  145.9311  132.0850  149.6119 C   0  0  0  0  0  0  0  0  0  0  0  0
  145.7589  132.8268  150.6938 N   0  0  0  0  0  0  0  0  0  0  0  0
  146.1239  135.4069  152.2583 N   0  0  0  0  0  0  0  0  0  0  0  0
  146.2945  134.7480  153.4138 C   0  0  0  0  0  0  0  0  0  0  0  0
  145.4013  134.1398  154.0039 O   0  0  0  0  0  0  0  0  0  0  0  0
  147.5448  134.8785  153.8761 N   0  0  0  0  0  0  0  0  0  0  0  0
  148.0224  134.3954  155.1720 C   0  0  2  0  0  0  0  0  0  0  0  0
  148.0243  135.5307  156.2217 C   0  0  0  0  0  0  0  0  0  0  0  0
  149.0911  136.5962  155.9190 C   0  0  0  0  0  0  0  0  0  0  0  0
  150.4851  135.9626  155.7966 C   0  0  0  0  0  0  0  0  0  0  0  0
  150.5011  134.8381  154.7479 C   0  0  0  0  0  0  0  0  0  0  0  0
  149.4316  133.7651  155.0452 C   0  0  2  0  0  0  0  0  0  0  0  0
  149.4824  132.6167  154.0227 C   0  0  0  0  0  0  0  0  0  0  0  0
  143.1165  136.9344  151.8539 H   0  0  0  0  0  0  0  0  0  0  0  0
  144.6364  137.6567  152.3653 H   0  0  0  0  0  0  0  0  0  0  0  0
  143.8595  136.4349  153.3710 H   0  0  0  0  0  0  0  0  0  0  0  0
  145.0044  135.9862  150.5767 H   0  0  0  0  0  0  0  0  0  0  0  0
  144.0239  133.8187  152.4997 H   0  0  0  0  0  0  0  0  0  0  0  0
  142.9900  134.5291  151.2819 H   0  0  0  0  0  0  0  0  0  0  0  0
  142.9787  133.3543  149.0461 H   0  0  0  0  0  0  0  0  0  0  0  0
  144.6896  131.6516  147.7720 H   0  0  0  0  0  0  0  0  0  0  0  0
  146.8497  131.5270  149.5044 H   0  0  0  0  0  0  0  0  0  0  0  0
  146.9257  135.8704  151.8566 H   0  0  0  0  0  0  0  0  0  0  0  0
  148.2040  135.4019  153.3188 H   0  0  0  0  0  0  0  0  0  0  0  0
  147.3356  133.6175  155.5111 H   0  0  0  0  0  0  0  0  0  0  0  0
  147.0416  135.9992  156.2883 H   0  0  0  0  0  0  0  0  0  0  0  0
  148.2175  135.1044  157.2069 H   0  0  0  0  0  0  0  0  0  0  0  0
  148.8406  137.1183  154.9946 H   0  0  0  0  0  0  0  0  0  0  0  0
  149.0941  137.3512  156.7057 H   0  0  0  0  0  0  0  0  0  0  0  0
  151.2183  136.7260  155.5345 H   0  0  0  0  0  0  0  0  0  0  0  0
  150.7890  135.5619  156.7645 H   0  0  0  0  0  0  0  0  0  0  0  0
  150.3378  135.2631  153.7568 H   0  0  0  0  0  0  0  0  0  0  0  0
  151.4902  134.3796  154.7244 H   0  0  0  0  0  0  0  0  0  0  0  0
  149.6748  133.3295  156.0157 H   0  0  0  0  0  0  0  0  0  0  0  0
  149.3039  132.9704  153.0069 H   0  0  0  0  0  0  0  0  0  0  0  0
  148.7326  131.8579  154.2485 H   0  0  0  0  0  0  0  0  0  0  0  0
  150.4570  132.1278  154.0331 H   0  0  0  0  0  0  0  0  0  0  0  0
  1  2  1  0  0  0  0
  1 20  1  0  0  0  0
  1 21  1  0  0  0  0
  1 22  1  0  0  0  0
  2  3  1  0  0  0  0
  2  9  1  0  0  0  0
  2 23  1  0  0  0  0
  3  4  1  0  0  0  0
  3 24  1  0  0  0  0
  3 25  1  0  0  0  0
  4  8  1  0  0  0  0
  4  5  1  0  0  0  0
  5  6  2  0  0  0  0
  5 26  1  0  0  0  0
  6  7  1  0  0  0  0
  6 27  1  0  0  0  0
  7  8  2  0  0  0  0
  7 28  1  0  0  0  0
  9 10  1  0  0  0  0
  9 29  1  0  0  0  0
 10 11  2  0  0  0  0
 10 12  1  0  0  0  0
 12 13  1  0  0  0  0
 12 30  1  0  0  0  0
 13 18  1  0  0  0  0
 13 14  1  0  0  0  0
 13 31  1  0  0  0  0
 14 15  1  0  0  0  0
 14 32  1  0  0  0  0
 14 33  1  0  0  0  0
 15 16  1  0  0  0  0
 15 34  1  0  0  0  0
 15 35  1  0  0  0  0
 16 17  1  0  0  0  0
 16 36  1  0  0  0  0
 16 37  1  0  0  0  0
 17 18  1  0  0  0  0
 17 38  1  0  0  0  0
 17 39  1  0  0  0  0
 18 19  1  0  0  0  0
 18 40  1  0  0  0  0
 19 41  1  0  0  0  0
 19 42  1  0  0  0  0
 19 43  1  0  0  0  0
M  END
> <s_m_source_file>
AV-unprocessed.smi

> <i_m_source_file_index>
1840

> <i_lp_mmshare_version>
43012

> <i_f3d_flags>
0

> <s_epik_input>
bjFbY0hdW2NIXVtjSF1uMVtDSDJdW0NAQEhdKFtDSDNdKVtOSF1DKD1PKVtOSF1bQ0BASF0yW0NIMl1bQ0gyXVtDSDJdW0NIMl1bQ0BIXTJbQ0gzXQ==

> <s_epik_cmdline>
J2VwaWtfcHl0aG9uJywgJy1waCcsICc3LjAnLCAnLXRuJywgJzgnLCAnLW1hJywgJzIwMCcsICctbWV0YWxfYmluZGluZycsICctaW1hZScsICc8aW5maWxlLm1hZT4nLCAnLW9tYWUnLCAnPG91dGZpbGUubWFlPic=

> <r_lp_tautomer_probability>
1

> <r_epik_Ionization_Penalty>
7.38659e-05

> <r_epik_Ionization_Penalty_Charging>
0

> <r_epik_Ionization_Penalty_Neutral>
7.38659e-05

> <r_epik_State_Penalty>
-0

> <r_epik_Charging_Adjusted_Penalty>
0

> <i_epik_Tot_Q>
0

> <i_epik_Tot_abs_Q>
0

> <r_epik_Metal_State_Penalty>
-0

> <b_epik_Metal_Only>
0

> <s_lp_Force_Field>
OPLS_2005

> <r_lp_Energy>
6.60397

> <b_lp_Chiralities_Consistent>
1

> <s_lp_Variant>
AV-unprocessed.smi:1840-5

> <Gold.Version>
5.8.1

> <Gold.Id.Protein>
6NUR|6NUR_protein|mol2

> <Gold.PLP.Fitness>
40.3432

> <Gold.PLP.PLP>
-29.5917

> <Gold.PLP.part.hbond>
-2.0000

> <Gold.PLP.part.metal>
0.0000

> <Gold.PLP.part.buried>
-1.8464

> <Gold.PLP.part.nonpolar>
-25.9449

> <Gold.PLP.part.repulsive>
0.2320

> <Gold.PLP.ligand.clash>
0.0000

> <Gold.PLP.ligand.torsion>
0.6322

> <Gold.PLP.Chemscore.Hbond>
2.0000

> <Gold.PLP.Chemscore.CHOScore>
2.0000

> <Gold.PLP.Chemscore.Metal>
0.0000

> <Gold.Chemscore.Hbonds>
donor molecule, donor type, donor heavy atom, donor atom, acceptor molecule, acceptor atom, score
      L1  H     9    29       P1  7948  1.00
      L1  H    12    30       P1  7948  1.00
      L1  C     5    26       P1 10186  1.00
      L1  C     7    28       P1 10747  1.00

> <Gold.PLP.Chemscore.Internal.Correction>
0.0159

> <Gold.Rescore>
     Score         DG    S(hbond)    S(metal)    S(lipo)     H(rot)  DE(clash)    DE(int)     intcor
     15.07     -17.13       1.94        0.00      78.31       1.56       0.09       1.97       ----

> <Gold.Chemscore.Fitness>
15.0722

> <Gold.Chemscore.DG>
-17.1322

> <Gold.Chemscore.ZeroCoef>
-5.4800

> <Gold.Chemscore.Hbond>
1.9394

> <Gold.Chemscore.Metal>
0.0000

> <Gold.Chemscore.Lipo>
78.3087

> <Gold.Chemscore.Internal_Hbond>
0.0000

> <Gold.Chemscore.DEClash>
0.0883

> <Gold.Chemscore.DEInternal>
1.9718

> <Gold.Chemscore.Rot>
1.5576

> <Gold.Chemscore.Internal.Correction>
   9.000000E+99

> <Gold.Chemscore.Hbonds>
donor molecule, donor type, donor heavy atom, donor atom, acceptor molecule, acceptor atom, score
      L1  H     9    29       P1  7948  0.88
      L1  H    12    30       P1  7948  0.99

> <Gold.Chemscore.Hbond.Weighted>
-6.4776

> <Gold.Chemscore.Metal.Weighted>
-0.0000

> <Gold.Chemscore.Lipo.Weighted>
-9.1621

> <Gold.Chemscore.Internal_Hbond.Weighted>
0.0000

> <Gold.Chemscore.DEClash.Weighted>
0.0883

> <Gold.Chemscore.DEInternal.Weighted>
1.9718

> <Gold.Chemscore.Rot.Weighted>
3.9875

> <Gold.Chemscore.Internal.Correction.Weighted>
   9.000000E+99

> <Gold.Protein.RotatedTorsions>
[ 6907 6896 6895 6894 ] final  134.70 input  -60.11 | X-H torsion
[ 7974 7965 7964 7962 ] final  -92.26 input  175.53 | X-H torsion
[ 8008 7997 7996 7995 ] final   45.40 input   59.86 | X-H torsion
[ 10167 10162 10161 10158 ] final   97.65 input  -65.29 | X-H torsion
[ 10718 10713 10712 10709 ] final -159.15 input   66.30 | X-H torsion
[ 10763 10752 10751 10750 ] final -131.05 input  -60.55 | X-H torsion
[ 11005 11000 10999 10996 ] final   47.11 input  -57.11 | X-H torsion

> <Gold.Protein.ActiveResidues>
 VAL166  LYS551  ARG553  GLY616  TRP617  ASP618  TYR619  PRO620  LYS621  CYS622 
 ASP623  PHE694  ASN695  SER759  ASP760  ASP761  ALA762  ILE779  LEU786  VAL792 
 PHE793  MET794  SER795  GLU796  ALA797  LYS798  CYS799  TRP800  GLU811  SER814 

> <Gold.Protein.RotatedAtoms>
  152.3084  133.5727  159.5664 H   0  0  0  0  0  0  0  0  0  0  0  0  # atno 6907 bound_to 6896
  150.7311  134.0188  159.3703 H   0  0  0  0  0  0  0  0  0  0  0  0  # atno 6908 bound_to 6896
  151.8083  135.0689  160.0460 H   0  0  0  0  0  0  0  0  0  0  0  0  # atno 6909 bound_to 6896
  145.4022  140.9538  143.2281 H   0  0  0  0  0  0  0  0  0  0  0  0  # atno 7974 bound_to 7965
  155.3352  140.3405  155.4239 H   0  0  0  0  0  0  0  0  0  0  0  0  # atno 8008 bound_to 7997
  156.1841  140.1674  156.8254 H   0  0  0  0  0  0  0  0  0  0  0  0  # atno 8009 bound_to 7997
  154.5367  140.0733  156.8422 H   0  0  0  0  0  0  0  0  0  0  0  0  # atno 8010 bound_to 7997
  139.7781  144.6898  151.0061 H   0  0  0  0  0  0  0  0  0  0  0  0  # atno 10167 bound_to 10162
  156.5641  130.8660  151.2818 H   0  0  0  0  0  0  0  0  0  0  0  0  # atno 10718 bound_to 10713
  154.8753  135.3842  154.4183 H   0  0  0  0  0  0  0  0  0  0  0  0  # atno 10763 bound_to 10752
  153.4889  135.7030  153.5900 H   0  0  0  0  0  0  0  0  0  0  0  0  # atno 10764 bound_to 10752
  153.4283  135.3885  155.2121 H   0  0  0  0  0  0  0  0  0  0  0  0  # atno 10765 bound_to 10752
  140.1309  134.4707  155.8523 H   0  0  0  0  0  0  0  0  0  0  0  0  # atno 11005 bound_to 11000
  144.8366  139.5540  143.6919 LP  0  0  0  0  0  0  0  0  0  0  0  0  # atno 17320 bound_to 7965
  146.2746  139.6721  142.9272 LP  0  0  0  0  0  0  0  0  0  0  0  0  # atno 17321 bound_to 7965
  140.7817  143.4513  151.0408 LP  0  0  0  0  0  0  0  0  0  0  0  0  # atno 17342 bound_to 10162
  139.8195  143.7840  152.3176 LP  0  0  0  0  0  0  0  0  0  0  0  0  # atno 17343 bound_to 10162
  157.7362  130.9775  150.2124 LP  0  0  0  0  0  0  0  0  0  0  0  0  # atno 17370 bound_to 10713
  156.2772  130.3729  149.7971 LP  0  0  0  0  0  0  0  0  0  0  0  0  # atno 17371 bound_to 10713
  141.2170  133.6795  156.7066 LP  0  0  0  0  0  0  0  0  0  0  0  0  # atno 17394 bound_to 11000
  140.2844  134.8291  157.3962 LP  0  0  0  0  0  0  0  0  0  0  0  0  # atno 17395 bound_to 11000

$$$$
