AV-unprocessed.smi:159|AV-procd|sdf|1341|dock9
  -GOLD-   2262019 43D 1   1.00000     0.00000
 Structure written by MMmdl.
 28 29  0  0  0  0  0  0  0  0  1 V2000
  150.5066  139.8013  154.2241 N   0  0  0  0  0  0  0  0  0  0  0  0
  150.8166  140.4917  155.3301 C   0  0  0  0  0  0  0  0  0  0  0  0
  150.2048  141.7760  155.5828 C   0  0  0  0  0  0  0  0  0  0  0  0
  150.5670  142.4131  156.7179 C   0  0  0  0  0  0  0  0  0  0  0  0
  151.4918  141.8763  157.6065 N   0  0  0  0  0  0  0  0  0  0  0  0
  151.8875  142.5765  158.8933 C   0  0  1  0  0  0  0  0  0  0  0  0
  152.7143  143.8431  158.5995 C   0  0  0  0  0  0  0  0  0  0  0  0
  151.9573  144.9156  159.3581 C   0  0  0  0  0  0  0  0  0  0  0  0
  150.5290  144.3839  159.3227 C   0  0  2  0  0  0  0  0  0  0  0  0
  149.6158  144.9911  160.3959 C   0  0  0  0  0  0  0  0  0  0  0  0
  148.3998  144.2767  160.4486 O   0  0  0  0  0  0  0  0  0  0  0  0
  150.7441  143.0008  159.5779 O   0  0  0  0  0  0  0  0  0  0  0  0
  152.0610  140.6081  157.3364 C   0  0  0  0  0  0  0  0  0  0  0  0
  152.8651  140.0837  158.1063 O   0  0  0  0  0  0  0  0  0  0  0  0
  151.6834  139.9782  156.1810 N   0  0  0  0  0  0  0  0  0  0  0  0
  152.4111  141.8252  159.4877 H   0  0  0  0  0  0  0  0  0  0  0  0
  150.1141  144.5312  158.3234 H   0  0  0  0  0  0  0  0  0  0  0  0
  150.9339  138.9029  154.0514 H   0  0  0  0  0  0  0  0  0  0  0  0
  149.8464  140.1841  153.5629 H   0  0  0  0  0  0  0  0  0  0  0  0
  149.4868  142.2335  154.9171 H   0  0  0  0  0  0  0  0  0  0  0  0
  150.1033  143.3689  156.9089 H   0  0  0  0  0  0  0  0  0  0  0  0
  153.7445  143.7260  158.9365 H   0  0  0  0  0  0  0  0  0  0  0  0
  152.7122  144.0602  157.5301 H   0  0  0  0  0  0  0  0  0  0  0  0
  152.3179  144.9692  160.3864 H   0  0  0  0  0  0  0  0  0  0  0  0
  152.0564  145.9040  158.9086 H   0  0  0  0  0  0  0  0  0  0  0  0
  150.0984  144.9951  161.3737 H   0  0  0  0  0  0  0  0  0  0  0  0
  149.3786  146.0254  160.1450 H   0  0  0  0  0  0  0  0  0  0  0  0
  147.7370  144.7778  159.9988 H   0  0  0  0  0  0  0  0  0  0  0  0
  1  2  1  0  0  0  0
  1 18  1  0  0  0  0
  1 19  1  0  0  0  0
  2 15  2  0  0  0  0
  2  3  1  0  0  0  0
  3  4  2  0  0  0  0
  3 20  1  0  0  0  0
  4  5  1  0  0  0  0
  4 21  1  0  0  0  0
  5  6  1  0  0  0  0
  5 13  1  0  0  0  0
  6 16  1  0  0  0  0
  6 12  1  0  0  0  0
  6  7  1  0  0  0  0
  7  8  1  0  0  0  0
  7 22  1  0  0  0  0
  7 23  1  0  0  0  0
  8  9  1  0  0  0  0
  8 24  1  0  0  0  0
  8 25  1  0  0  0  0
  9 17  1  0  0  0  0
  9 10  1  0  0  0  0
  9 12  1  0  0  0  0
 10 11  1  0  0  0  0
 10 26  1  0  0  0  0
 10 27  1  0  0  0  0
 11 28  1  0  0  0  0
 13 14  2  0  0  0  0
 13 15  1  0  0  0  0
M  END
> <s_m_source_file>
AV-unprocessed.smi

> <i_m_source_file_index>
159

> <i_lp_mmshare_version>
43012

> <i_f3d_flags>
0

> <s_epik_input>
W05IMl1jMVtjSF1bY0hdbihjKD1PKW4xKVtDQEhdMltDSDJdW0NIMl1bQ0BIXShPMilbQ0gyXVtPSF0=

> <s_epik_cmdline>
J2VwaWtfcHl0aG9uJywgJy1waCcsICc3LjAnLCAnLXRuJywgJzgnLCAnLW1hJywgJzIwMCcsICctbWV0YWxfYmluZGluZycsICctaW1hZScsICc8aW5maWxlLm1hZT4nLCAnLW9tYWUnLCAnPG91dGZpbGUubWFlPic=

> <r_lp_tautomer_probability>
0.99996

> <r_epik_Ionization_Penalty>
0.00126102

> <r_epik_Ionization_Penalty_Charging>
4.46248e-08

> <r_epik_Ionization_Penalty_Neutral>
0.00126097

> <r_epik_State_Penalty>
1.15523e-05

> <r_epik_Charging_Adjusted_Penalty>
1.1597e-05

> <i_epik_Tot_Q>
0

> <i_epik_Tot_abs_Q>
0

> <r_epik_Metal_State_Penalty>
-0

> <b_epik_Metal_Only>
0

> <s_epik_Chemistry_Notes>
This compound contains an acetal/aminal-like group ( X-CH(R)-Y where X, Y are N, S, or O) that may be acid/base labile, releasing an aldehyde.

> <s_lp_Force_Field>
OPLS_2005

> <r_lp_Energy>
23.8036

> <b_lp_Chiralities_Consistent>
1

> <s_lp_Variant>
AV-unprocessed.smi:159-3

> <Gold.Version>
5.8.1

> <Gold.Id.Protein>
6NUR|6NUR_protein|mol2

> <Gold.PLP.Fitness>
40.5854

> <Gold.PLP.PLP>
-32.1306

> <Gold.PLP.part.hbond>
-3.0000

> <Gold.PLP.part.metal>
0.0000

> <Gold.PLP.part.buried>
-4.5645

> <Gold.PLP.part.nonpolar>
-24.5456

> <Gold.PLP.part.repulsive>
0.3836

> <Gold.PLP.ligand.clash>
0.0000

> <Gold.PLP.ligand.torsion>
0.2126

> <Gold.PLP.Chemscore.Hbond>
1.9520

> <Gold.PLP.Chemscore.CHOScore>
1.0000

> <Gold.PLP.Chemscore.Metal>
0.0000

> <Gold.Chemscore.Hbonds>
donor molecule, donor type, donor heavy atom, donor atom, acceptor molecule, acceptor atom, score
      L1  H     1    19       P1  7957  0.02
      P1  H  6933  6944       L1    11  0.68
      P1  H  7997  8010       L1    14  0.86
      L1  C     4    21       P1  8028  1.00

> <Gold.PLP.Chemscore.Internal.Correction>
0.0241

> <Gold.Rescore>
     Score         DG    S(hbond)    S(metal)    S(lipo)     H(rot)  DE(clash)    DE(int)     intcor
     11.87     -13.50       1.99        0.00      57.45       2.09       1.47       0.16       ----

> <Gold.Chemscore.Fitness>
11.8689

> <Gold.Chemscore.DG>
-13.4985

> <Gold.Chemscore.ZeroCoef>
-5.4800

> <Gold.Chemscore.Hbond>
1.9930

> <Gold.Chemscore.Metal>
0.0000

> <Gold.Chemscore.Lipo>
57.4463

> <Gold.Chemscore.Internal_Hbond>
0.0000

> <Gold.Chemscore.DEClash>
1.4741

> <Gold.Chemscore.DEInternal>
0.1554

> <Gold.Chemscore.Rot>
2.0935

> <Gold.Chemscore.Internal.Correction>
   9.000000E+99

> <Gold.Chemscore.Hbonds>
donor molecule, donor type, donor heavy atom, donor atom, acceptor molecule, acceptor atom, score
      L1  H     1    19       P1  7957  0.06
      P1  H  6933  6944       L1    11  0.57
      P1  H  7997  8010       L1    14  0.44

> <Gold.Chemscore.Hbond.Weighted>
-6.6566

> <Gold.Chemscore.Metal.Weighted>
-0.0000

> <Gold.Chemscore.Lipo.Weighted>
-6.7212

> <Gold.Chemscore.Internal_Hbond.Weighted>
0.0000

> <Gold.Chemscore.DEClash.Weighted>
1.4741

> <Gold.Chemscore.DEInternal.Weighted>
0.1554

> <Gold.Chemscore.Rot.Weighted>
5.3594

> <Gold.Chemscore.Internal.Correction.Weighted>
   9.000000E+99

> <Gold.Protein.RotatedTorsions>
[ 6907 6896 6895 6894 ] final  -25.55 input  -60.11 | X-H torsion
[ 7974 7965 7964 7962 ] final -105.86 input  175.53 | X-H torsion
[ 8008 7997 7996 7995 ] final   28.13 input   59.86 | X-H torsion
[ 10167 10162 10161 10158 ] final   29.92 input  -65.29 | X-H torsion
[ 10718 10713 10712 10709 ] final  124.29 input   66.30 | X-H torsion
[ 10763 10752 10751 10750 ] final   88.00 input  -60.55 | X-H torsion
[ 11005 11000 10999 10996 ] final   78.46 input  -57.11 | X-H torsion

> <Gold.Protein.ActiveResidues>
 VAL166  LYS551  ARG553  GLY616  TRP617  ASP618  TYR619  PRO620  LYS621  CYS622 
 ASP623  PHE694  ASN695  SER759  ASP760  ASP761  ALA762  ILE779  LEU786  VAL792 
 PHE793  MET794  SER795  GLU796  ALA797  LYS798  CYS799  TRP800  GLU811  SER814 

> <Gold.Protein.RotatedAtoms>
  151.1735  135.0329  159.8761 H   0  0  0  0  0  0  0  0  0  0  0  0  # atno 6907 bound_to 6896
  152.5448  134.1143  159.8382 H   0  0  0  0  0  0  0  0  0  0  0  0  # atno 6908 bound_to 6896
  151.1252  133.5029  159.2633 H   0  0  0  0  0  0  0  0  0  0  0  0  # atno 6909 bound_to 6896
  145.2251  140.9149  143.3237 H   0  0  0  0  0  0  0  0  0  0  0  0  # atno 7974 bound_to 7965
  155.0538  140.3182  155.4683 H   0  0  0  0  0  0  0  0  0  0  0  0  # atno 8008 bound_to 7997
  156.2828  140.2141  156.5608 H   0  0  0  0  0  0  0  0  0  0  0  0  # atno 8009 bound_to 7997
  154.7188  140.0491  157.0608 H   0  0  0  0  0  0  0  0  0  0  0  0  # atno 8010 bound_to 7997
  140.4723  144.0743  150.6241 H   0  0  0  0  0  0  0  0  0  0  0  0  # atno 10167 bound_to 10162
  157.5597  131.1090  150.8560 H   0  0  0  0  0  0  0  0  0  0  0  0  # atno 10718 bound_to 10713
  153.1724  135.4523  154.9920 H   0  0  0  0  0  0  0  0  0  0  0  0  # atno 10763 bound_to 10752
  154.7975  135.3243  154.7634 H   0  0  0  0  0  0  0  0  0  0  0  0  # atno 10764 bound_to 10752
  153.8108  135.6955  153.4896 H   0  0  0  0  0  0  0  0  0  0  0  0  # atno 10765 bound_to 10752
  139.9212  134.7765  156.1653 H   0  0  0  0  0  0  0  0  0  0  0  0  # atno 11005 bound_to 11000
  144.9729  139.3862  143.6300 LP  0  0  0  0  0  0  0  0  0  0  0  0  # atno 17320 bound_to 7965
  146.3366  139.8834  142.8820 LP  0  0  0  0  0  0  0  0  0  0  0  0  # atno 17321 bound_to 7965
  140.3961  143.2727  152.0003 LP  0  0  0  0  0  0  0  0  0  0  0  0  # atno 17342 bound_to 10162
  139.4820  144.6036  151.7560 LP  0  0  0  0  0  0  0  0  0  0  0  0  # atno 17343 bound_to 10162
  156.9061  130.5264  149.5281 LP  0  0  0  0  0  0  0  0  0  0  0  0  # atno 17370 bound_to 10713
  156.0651  130.5696  150.9272 LP  0  0  0  0  0  0  0  0  0  0  0  0  # atno 17371 bound_to 10713
  141.0733  133.6787  156.2185 LP  0  0  0  0  0  0  0  0  0  0  0  0  # atno 17394 bound_to 11000
  140.6470  134.5106  157.5574 LP  0  0  0  0  0  0  0  0  0  0  0  0  # atno 17395 bound_to 11000

$$$$
