AV-unprocessed.smi:2637|AV-procd|sdf|10261|dock1
  -GOLD-   2272014273D 1   1.00000     0.00000
 Structure written by MMmdl.
 40 41  0  0  0  0  0  0  0  0  1 V2000
  145.7299  129.6287  152.2336 C   0  0  0  0  0  0  0  0  0  0  0  0
  146.2336  131.0410  152.2852 C   0  0  0  0  0  0  0  0  0  0  0  0
  147.3350  131.5531  153.0308 C   0  0  0  0  0  0  0  0  0  0  0  0
  147.3308  132.8810  152.7010 C   0  0  0  0  0  0  0  0  0  0  0  0
  148.1671  133.8686  153.1180 N   0  0  0  0  0  0  0  0  0  0  0  0
  148.6402  134.1040  154.3543 C   0  0  0  0  0  0  0  0  0  0  0  0
  148.3941  133.4283  155.3537 O   0  0  0  0  0  0  0  0  0  0  0  0
  149.4246  135.1916  154.3714 N   0  0  0  0  0  0  0  0  0  0  0  0
  150.0884  135.7404  155.5504 C   0  0  0  0  0  0  0  0  0  0  0  0
  151.6185  135.7674  155.3921 C   0  0  0  0  0  0  0  0  0  0  0  0
  152.1261  136.8226  154.3907 C   0  0  0  0  0  0  0  0  0  0  0  0
  151.9548  138.1826  154.9106 N   0  0  0  0  0  0  0  0  0  0  0  0
  150.8170  138.8856  154.8208 C   0  0  0  0  0  0  0  0  0  0  0  0
  149.7676  138.5114  154.2979 O   0  0  0  0  0  0  0  0  0  0  0  0
  150.9681  140.2544  155.4708 C   0  0  0  0  0  0  0  0  0  0  0  0
  152.4117  140.2371  155.9834 C   0  0  0  0  0  0  0  0  0  0  0  0
  152.9109  138.8625  155.5592 C   0  0  0  0  0  0  0  0  0  0  0  0
  154.0491  138.4643  155.8058 O   0  0  0  0  0  0  0  0  0  0  0  0
  146.2941  133.1187  151.8260 N   0  0  0  0  0  0  0  0  0  0  0  0
  145.8852  134.3587  151.1953 C   0  0  0  0  0  0  0  0  0  0  0  0
  145.6195  131.9770  151.5701 N   0  0  0  0  0  0  0  0  0  0  0  0
  146.3580  128.9644  152.8275 H   0  0  0  0  0  0  0  0  0  0  0  0
  145.7221  129.2510  151.2108 H   0  0  0  0  0  0  0  0  0  0  0  0
  144.7139  129.5607  152.6231 H   0  0  0  0  0  0  0  0  0  0  0  0
  148.0019  131.0180  153.6899 H   0  0  0  0  0  0  0  0  0  0  0  0
  148.4622  134.5129  152.3994 H   0  0  0  0  0  0  0  0  0  0  0  0
  149.5685  135.6850  153.5023 H   0  0  0  0  0  0  0  0  0  0  0  0
  149.7129  136.7363  155.7914 H   0  0  0  0  0  0  0  0  0  0  0  0
  149.8266  135.1069  156.3980 H   0  0  0  0  0  0  0  0  0  0  0  0
  152.0633  135.9622  156.3689 H   0  0  0  0  0  0  0  0  0  0  0  0
  151.9677  134.7780  155.0936 H   0  0  0  0  0  0  0  0  0  0  0  0
  153.1792  136.6545  154.1618 H   0  0  0  0  0  0  0  0  0  0  0  0
  151.6004  136.7135  153.4405 H   0  0  0  0  0  0  0  0  0  0  0  0
  150.8069  141.0451  154.7373 H   0  0  0  0  0  0  0  0  0  0  0  0
  150.2496  140.3741  156.2826 H   0  0  0  0  0  0  0  0  0  0  0  0
  153.0151  141.0215  155.5256 H   0  0  0  0  0  0  0  0  0  0  0  0
  152.4591  140.3430  157.0676 H   0  0  0  0  0  0  0  0  0  0  0  0
  145.8653  135.1602  151.9343 H   0  0  0  0  0  0  0  0  0  0  0  0
  144.8893  134.2575  150.7616 H   0  0  0  0  0  0  0  0  0  0  0  0
  146.5924  134.6172  150.4067 H   0  0  0  0  0  0  0  0  0  0  0  0
  1  2  1  0  0  0  0
  1 22  1  0  0  0  0
  1 23  1  0  0  0  0
  1 24  1  0  0  0  0
  2 21  2  0  0  0  0
  2  3  1  0  0  0  0
  3  4  2  0  0  0  0
  3 25  1  0  0  0  0
  4  5  1  0  0  0  0
  4 19  1  0  0  0  0
  5  6  1  0  0  0  0
  5 26  1  0  0  0  0
  6  7  2  0  0  0  0
  6  8  1  0  0  0  0
  8  9  1  0  0  0  0
  8 27  1  0  0  0  0
  9 10  1  0  0  0  0
  9 28  1  0  0  0  0
  9 29  1  0  0  0  0
 10 11  1  0  0  0  0
 10 30  1  0  0  0  0
 10 31  1  0  0  0  0
 11 12  1  0  0  0  0
 11 32  1  0  0  0  0
 11 33  1  0  0  0  0
 12 17  1  0  0  0  0
 12 13  1  0  0  0  0
 13 14  2  0  0  0  0
 13 15  1  0  0  0  0
 15 16  1  0  0  0  0
 15 34  1  0  0  0  0
 15 35  1  0  0  0  0
 16 17  1  0  0  0  0
 16 36  1  0  0  0  0
 16 37  1  0  0  0  0
 17 18  2  0  0  0  0
 19 20  1  0  0  0  0
 19 21  1  0  0  0  0
 20 38  1  0  0  0  0
 20 39  1  0  0  0  0
 20 40  1  0  0  0  0
M  END
> <s_m_source_file>
AV-unprocessed.smi

> <i_m_source_file_index>
2637

> <i_lp_mmshare_version>
43012

> <i_f3d_flags>
0

> <s_epik_input>
W0NIM11jMVtjSF1jKG4objEpW0NIM10pW05IXUMoPU8pW05IXVtDSDJdW0NIMl1bQ0gyXU4yQyg9TylbQ0gyXVtDSDJdQzI9Tw==

> <s_epik_cmdline>
J2VwaWtfcHl0aG9uJywgJy1waCcsICc3LjAnLCAnLXRuJywgJzgnLCAnLW1hJywgJzIwMCcsICctbWV0YWxfYmluZGluZycsICctaW1hZScsICc8aW5maWxlLm1hZT4nLCAnLW9tYWUnLCAnPG91dGZpbGUubWFlPic=

> <r_lp_tautomer_probability>
1

> <r_epik_Ionization_Penalty>
9.41646e-05

> <r_epik_Ionization_Penalty_Charging>
0

> <r_epik_Ionization_Penalty_Neutral>
9.41646e-05

> <r_epik_State_Penalty>
-0

> <r_epik_Charging_Adjusted_Penalty>
0

> <i_epik_Tot_Q>
0

> <i_epik_Tot_abs_Q>
0

> <r_epik_Metal_State_Penalty>
-0

> <b_epik_Metal_Only>
0

> <s_lp_Force_Field>
OPLS_2005

> <r_lp_Energy>
13.5658

> <b_lp_Chiralities_Consistent>
1

> <s_lp_Variant>
AV-unprocessed.smi:2637-1

> <Gold.Version>
5.8.1

> <Gold.Id.Protein>
6NUR|6NUR_protein|mol2

> <Gold.PLP.Fitness>
44.6022

> <Gold.PLP.PLP>
-37.1422

> <Gold.PLP.part.hbond>
-3.0000

> <Gold.PLP.part.metal>
0.0000

> <Gold.PLP.part.buried>
-4.0689

> <Gold.PLP.part.nonpolar>
-30.1915

> <Gold.PLP.part.repulsive>
0.3504

> <Gold.PLP.ligand.clash>
0.0000

> <Gold.PLP.ligand.torsion>
0.7475

> <Gold.PLP.Chemscore.Hbond>
2.9500

> <Gold.PLP.Chemscore.CHOScore>
0.0000

> <Gold.PLP.Chemscore.Metal>
0.0000

> <Gold.Chemscore.Hbonds>
donor molecule, donor type, donor heavy atom, donor atom, acceptor molecule, acceptor atom, score
      L1  H     5    26       P1  7948  0.65
      L1  H     8    27       P1  7948  0.85
      P1  H  7997  8009       L1    18  0.14

> <Gold.PLP.Chemscore.Internal.Correction>
0.1051

> <Gold.Rescore>
     Score         DG    S(hbond)    S(metal)    S(lipo)     H(rot)  DE(clash)    DE(int)     intcor
     14.10     -16.02       2.82        0.00      54.95       2.07       0.00       1.92       ----

> <Gold.Chemscore.Fitness>
14.1022

> <Gold.Chemscore.DG>
-16.0213

> <Gold.Chemscore.ZeroCoef>
-5.4800

> <Gold.Chemscore.Hbond>
2.8180

> <Gold.Chemscore.Metal>
0.0000

> <Gold.Chemscore.Lipo>
54.9452

> <Gold.Chemscore.Internal_Hbond>
0.0000

> <Gold.Chemscore.DEClash>
0.0000

> <Gold.Chemscore.DEInternal>
1.9191

> <Gold.Chemscore.Rot>
2.0701

> <Gold.Chemscore.Internal.Correction>
   9.000000E+99

> <Gold.Chemscore.Hbonds>
donor molecule, donor type, donor heavy atom, donor atom, acceptor molecule, acceptor atom, score
      L1  H     5    26       P1  7948  0.05
      L1  H     8    27       P1  7948  0.14

> <Gold.Chemscore.Hbond.Weighted>
-9.4122

> <Gold.Chemscore.Metal.Weighted>
-0.0000

> <Gold.Chemscore.Lipo.Weighted>
-6.4286

> <Gold.Chemscore.Internal_Hbond.Weighted>
0.0000

> <Gold.Chemscore.DEClash.Weighted>
0.0000

> <Gold.Chemscore.DEInternal.Weighted>
1.9191

> <Gold.Chemscore.Rot.Weighted>
5.2995

> <Gold.Chemscore.Internal.Correction.Weighted>
   9.000000E+99

> <Gold.Protein.RotatedTorsions>
[ 6907 6896 6895 6894 ] final -105.94 input  -60.11 | X-H torsion
[ 7974 7965 7964 7962 ] final  168.92 input  175.53 | X-H torsion
[ 8008 7997 7996 7995 ] final -142.20 input   59.86 | X-H torsion
[ 10167 10162 10161 10158 ] final  -59.85 input  -65.29 | X-H torsion
[ 10718 10713 10712 10709 ] final -177.26 input   66.30 | X-H torsion
[ 10763 10752 10751 10750 ] final    8.22 input  -60.55 | X-H torsion
[ 11005 11000 10999 10996 ] final -114.67 input  -57.11 | X-H torsion

> <Gold.Protein.ActiveResidues>
 VAL166  LYS551  ARG553  GLY616  TRP617  ASP618  TYR619  PRO620  LYS621  CYS622 
 ASP623  PHE694  ASN695  SER759  ASP760  ASP761  ALA762  ILE779  LEU786  VAL792 
 PHE793  MET794  SER795  GLU796  ALA797  LYS798  CYS799  TRP800  GLU811  SER814 

> <Gold.Protein.RotatedAtoms>
  150.7363  134.0052  159.3650 H   0  0  0  0  0  0  0  0  0  0  0  0  # atno 6907 bound_to 6896
  151.8008  135.0707  160.0409 H   0  0  0  0  0  0  0  0  0  0  0  0  # atno 6908 bound_to 6896
  152.3142  133.5748  159.5737 H   0  0  0  0  0  0  0  0  0  0  0  0  # atno 6909 bound_to 6896
  144.7372  139.8978  143.6407 H   0  0  0  0  0  0  0  0  0  0  0  0  # atno 7974 bound_to 7965
  155.4903  140.0567  157.2954 H   0  0  0  0  0  0  0  0  0  0  0  0  # atno 8008 bound_to 7997
  154.4626  140.2003  156.0155 H   0  0  0  0  0  0  0  0  0  0  0  0  # atno 8009 bound_to 7997
  156.0917  140.3232  155.7829 H   0  0  0  0  0  0  0  0  0  0  0  0  # atno 8010 bound_to 7997
  140.6109  143.2387  151.5712 H   0  0  0  0  0  0  0  0  0  0  0  0  # atno 10167 bound_to 10162
  156.8268  130.9639  151.3109 H   0  0  0  0  0  0  0  0  0  0  0  0  # atno 10718 bound_to 10713
  153.2275  135.6888  153.7928 H   0  0  0  0  0  0  0  0  0  0  0  0  # atno 10763 bound_to 10752
  153.7105  135.3283  155.3246 H   0  0  0  0  0  0  0  0  0  0  0  0  # atno 10764 bound_to 10752
  154.8298  135.4589  154.1147 H   0  0  0  0  0  0  0  0  0  0  0  0  # atno 10765 bound_to 10752
  141.0537  133.9646  157.2791 H   0  0  0  0  0  0  0  0  0  0  0  0  # atno 11005 bound_to 11000
  146.1094  139.4097  143.0297 LP  0  0  0  0  0  0  0  0  0  0  0  0  # atno 17320 bound_to 7965
  145.7465  140.9989  143.1273 LP  0  0  0  0  0  0  0  0  0  0  0  0  # atno 17321 bound_to 7965
  139.5360  144.2779  152.1253 LP  0  0  0  0  0  0  0  0  0  0  0  0  # atno 17342 bound_to 10162
  140.1978  144.4688  150.6446 LP  0  0  0  0  0  0  0  0  0  0  0  0  # atno 17343 bound_to 10162
  157.6428  130.8819  149.9480 LP  0  0  0  0  0  0  0  0  0  0  0  0  # atno 17370 bound_to 10713
  156.0957  130.3659  150.0311 LP  0  0  0  0  0  0  0  0  0  0  0  0  # atno 17371 bound_to 10713
  139.9372  135.0195  156.8593 LP  0  0  0  0  0  0  0  0  0  0  0  0  # atno 17394 bound_to 11000
  140.6005  134.0176  155.7535 LP  0  0  0  0  0  0  0  0  0  0  0  0  # atno 17395 bound_to 11000

$$$$
