AV-unprocessed.smi:3013|AV-procd|sdf|11464|dock9
  -GOLD-   2272016403D 1   1.00000     0.00000
 Structure written by MMmdl.
 45 46  0  0  0  0  0  0  0  0  2 V2000
  148.8523  131.2458  153.9288 C   0  0  0  0  0  0  0  0  0  0  0  0
  148.2152  132.4219  153.1581 C   0  0  2  0  0  0  0  0  0  0  0  0
  147.5791  133.4731  154.0940 C   0  0  0  0  0  0  0  0  0  0  0  0
  148.5865  134.1541  155.0404 C   0  0  0  0  0  0  0  0  0  0  0  0
  149.1068  135.3942  154.4748 N   0  0  0  0  0  0  0  0  0  0  0  0
  149.3753  136.5039  155.1785 C   0  0  0  0  0  0  0  0  0  0  0  0
  149.2268  136.5841  156.3983 O   0  0  0  0  0  0  0  0  0  0  0  0
  149.8177  137.4941  154.3846 N   0  0  0  0  0  0  0  0  0  0  0  0
  150.2078  138.8059  154.7671 C   0  0  0  0  0  0  0  0  0  0  0  0
  149.3922  139.7882  155.1378 N   0  0  0  0  0  0  0  0  0  0  0  0
  150.3118  140.7686  155.3810 C   0  0  0  0  0  0  0  0  0  0  0  0
  151.5874  140.4355  155.1836 N   0  0  0  0  0  0  0  0  0  0  0  0
  151.5001  139.1458  154.7814 N   0  0  0  0  0  0  0  0  0  0  0  0
  152.6903  138.3841  154.4553 C   0  0  0  0  0  0  0  0  0  0  0  0
  147.2355  131.9767  152.1234 N   0  3  0  0  0  0  0  0  0  0  0  0
  146.6963  133.0568  151.2513 C   0  0  0  0  0  0  0  0  0  0  0  0
  145.8913  132.4653  150.0823 C   0  0  0  0  0  0  0  0  0  0  0  0
  144.7607  131.5636  150.5959 C   0  0  0  0  0  0  0  0  0  0  0  0
  145.3317  130.4823  151.5230 C   0  0  0  0  0  0  0  0  0  0  0  0
  146.1536  131.1090  152.6624 C   0  0  0  0  0  0  0  0  0  0  0  0
  149.6708  131.5875  154.5618 H   0  0  0  0  0  0  0  0  0  0  0  0
  149.2703  130.4994  153.2536 H   0  0  0  0  0  0  0  0  0  0  0  0
  148.1312  130.7457  154.5756 H   0  0  0  0  0  0  0  0  0  0  0  0
  149.0164  132.9350  152.6242 H   0  0  0  0  0  0  0  0  0  0  0  0
  147.1037  134.2398  153.4806 H   0  0  0  0  0  0  0  0  0  0  0  0
  146.7819  133.0218  154.6852 H   0  0  0  0  0  0  0  0  0  0  0  0
  148.1110  134.3998  155.9895 H   0  0  0  0  0  0  0  0  0  0  0  0
  149.4127  133.4797  155.2720 H   0  0  0  0  0  0  0  0  0  0  0  0
  149.2568  135.4128  153.4766 H   0  0  0  0  0  0  0  0  0  0  0  0
  149.8786  137.2920  153.3976 H   0  0  0  0  0  0  0  0  0  0  0  0
  150.0327  141.7570  155.7149 H   0  0  0  0  0  0  0  0  0  0  0  0
  152.5868  137.9477  153.4616 H   0  0  0  0  0  0  0  0  0  0  0  0
  152.8241  137.5850  155.1845 H   0  0  0  0  0  0  0  0  0  0  0  0
  153.5718  139.0265  154.4677 H   0  0  0  0  0  0  0  0  0  0  0  0
  146.0568  133.7227  151.8324 H   0  0  0  0  0  0  0  0  0  0  0  0
  147.5074  133.6640  150.8509 H   0  0  0  0  0  0  0  0  0  0  0  0
  145.4783  133.2676  149.4703 H   0  0  0  0  0  0  0  0  0  0  0  0
  146.5542  131.8909  149.4337 H   0  0  0  0  0  0  0  0  0  0  0  0
  144.0272  132.1632  151.1365 H   0  0  0  0  0  0  0  0  0  0  0  0
  144.2339  131.1043  149.7591 H   0  0  0  0  0  0  0  0  0  0  0  0
  144.5219  129.8792  151.9346 H   0  0  0  0  0  0  0  0  0  0  0  0
  145.9619  129.8024  150.9478 H   0  0  0  0  0  0  0  0  0  0  0  0
  146.5828  130.3112  153.2696 H   0  0  0  0  0  0  0  0  0  0  0  0
  145.5007  131.6891  153.3153 H   0  0  0  0  0  0  0  0  0  0  0  0
  147.7665  131.3738  151.5111 H   0  0  0  0  0  0  0  0  0  0  0  0
  1  2  1  0  0  0  0
  1 21  1  0  0  0  0
  1 22  1  0  0  0  0
  1 23  1  0  0  0  0
  2  3  1  0  0  0  0
  2 15  1  0  0  0  0
  2 24  1  0  0  0  0
  3  4  1  0  0  0  0
  3 25  1  0  0  0  0
  3 26  1  0  0  0  0
  4  5  1  0  0  0  0
  4 27  1  0  0  0  0
  4 28  1  0  0  0  0
  5  6  1  0  0  0  0
  5 29  1  0  0  0  0
  6  7  2  0  0  0  0
  6  8  1  0  0  0  0
  8  9  1  0  0  0  0
  8 30  1  0  0  0  0
  9 13  1  0  0  0  0
  9 10  2  0  0  0  0
 10 11  1  0  0  0  0
 11 12  2  0  0  0  0
 11 31  1  0  0  0  0
 12 13  1  0  0  0  0
 13 14  1  0  0  0  0
 14 32  1  0  0  0  0
 14 33  1  0  0  0  0
 14 34  1  0  0  0  0
 15 20  1  0  0  0  0
 15 16  1  0  0  0  0
 15 45  1  0  0  0  0
 16 17  1  0  0  0  0
 16 35  1  0  0  0  0
 16 36  1  0  0  0  0
 17 18  1  0  0  0  0
 17 37  1  0  0  0  0
 17 38  1  0  0  0  0
 18 19  1  0  0  0  0
 18 39  1  0  0  0  0
 18 40  1  0  0  0  0
 19 20  1  0  0  0  0
 19 41  1  0  0  0  0
 19 42  1  0  0  0  0
 20 43  1  0  0  0  0
 20 44  1  0  0  0  0
M  CHG  1  15   1
M  END
> <s_m_source_file>
AV-unprocessed.smi

> <i_m_source_file_index>
3013

> <i_lp_mmshare_version>
43012

> <i_f3d_flags>
0

> <s_epik_input>
W0NIMl0xW0NIMl1bQ0gyXVtDSDJdW0NIMl1OMVtDQEhdKFtDSDNdKVtDSDJdW0NIMl1bTkhdQyg9TylbTkhdYzJuW2NIXW5uMltDSDNd

> <s_epik_cmdline>
J2VwaWtfcHl0aG9uJywgJy1waCcsICc3LjAnLCAnLXRuJywgJzgnLCAnLW1hJywgJzIwMCcsICctbWV0YWxfYmluZGluZycsICctaW1hZScsICc8aW5maWxlLm1hZT4nLCAnLW9tYWUnLCAnPG91dGZpbGUubWFlPic=

> <r_lp_tautomer_probability>
1

> <r_epik_Ionization_Penalty>
0.000375855

> <r_epik_Ionization_Penalty_Charging>
0.000355659

> <r_epik_Ionization_Penalty_Neutral>
2.01955e-05

> <r_epik_State_Penalty>
0.000216264

> <r_epik_Charging_Adjusted_Penalty>
0.000571923

> <i_epik_Tot_Q>
1

> <i_epik_Tot_abs_Q>
1

> <r_epik_Metal_State_Penalty>
-0

> <b_epik_Metal_Only>
0

> <s_lp_Force_Field>
OPLS_2005

> <r_lp_Energy>
21.7492

> <b_lp_Chiralities_Consistent>
1

> <s_lp_Variant>
AV-unprocessed.smi:3013-1

> <Gold.Version>
5.8.1

> <Gold.Id.Protein>
6NUR|6NUR_protein|mol2

> <Gold.PLP.Fitness>
45.1022

> <Gold.PLP.PLP>
-37.3003

> <Gold.PLP.part.hbond>
-4.0000

> <Gold.PLP.part.metal>
0.0000

> <Gold.PLP.part.buried>
-4.1837

> <Gold.PLP.part.nonpolar>
-29.7341

> <Gold.PLP.part.repulsive>
0.1398

> <Gold.PLP.ligand.clash>
0.0000

> <Gold.PLP.ligand.torsion>
1.1475

> <Gold.PLP.Chemscore.Hbond>
3.3110

> <Gold.PLP.Chemscore.CHOScore>
0.0000

> <Gold.PLP.Chemscore.Metal>
0.0000

> <Gold.Chemscore.Hbonds>
donor molecule, donor type, donor heavy atom, donor atom, acceptor molecule, acceptor atom, score
      L1  H     5    29       P1  7948  1.00
      L1  H     8    30       P1  7948  0.86
      L1  H    15    45       P1 10747  1.00
      P1  H  7989  7998       L1    12  0.29

> <Gold.PLP.Chemscore.Internal.Correction>
0.1637

> <Gold.Rescore>
     Score         DG    S(hbond)    S(metal)    S(lipo)     H(rot)  DE(clash)    DE(int)     intcor
     17.17     -18.58       2.81        0.00      75.70       2.01       0.14       1.26       ----

> <Gold.Chemscore.Fitness>
17.1727

> <Gold.Chemscore.DG>
-18.5764

> <Gold.Chemscore.ZeroCoef>
-5.4800

> <Gold.Chemscore.Hbond>
2.8135

> <Gold.Chemscore.Metal>
0.0000

> <Gold.Chemscore.Lipo>
75.7033

> <Gold.Chemscore.Internal_Hbond>
0.0000

> <Gold.Chemscore.DEClash>
0.1393

> <Gold.Chemscore.DEInternal>
1.2644

> <Gold.Chemscore.Rot>
2.0148

> <Gold.Chemscore.Internal.Correction>
   9.000000E+99

> <Gold.Chemscore.Hbonds>
donor molecule, donor type, donor heavy atom, donor atom, acceptor molecule, acceptor atom, score
      L1  H     5    29       P1  7948  0.28
      L1  H     8    30       P1  7948  0.39
      L1  H    15    45       P1 10747  1.00

> <Gold.Chemscore.Hbond.Weighted>
-9.3970

> <Gold.Chemscore.Metal.Weighted>
-0.0000

> <Gold.Chemscore.Lipo.Weighted>
-8.8573

> <Gold.Chemscore.Internal_Hbond.Weighted>
0.0000

> <Gold.Chemscore.DEClash.Weighted>
0.1393

> <Gold.Chemscore.DEInternal.Weighted>
1.2644

> <Gold.Chemscore.Rot.Weighted>
5.1579

> <Gold.Chemscore.Internal.Correction.Weighted>
   9.000000E+99

> <Gold.Protein.RotatedTorsions>
[ 6907 6896 6895 6894 ] final   98.41 input  -60.11 | X-H torsion
[ 7974 7965 7964 7962 ] final -176.46 input  175.53 | X-H torsion
[ 8008 7997 7996 7995 ] final -156.74 input   59.86 | X-H torsion
[ 10167 10162 10161 10158 ] final  -54.96 input  -65.29 | X-H torsion
[ 10718 10713 10712 10709 ] final   63.68 input   66.30 | X-H torsion
[ 10763 10752 10751 10750 ] final   13.31 input  -60.55 | X-H torsion
[ 11005 11000 10999 10996 ] final  124.44 input  -57.11 | X-H torsion

> <Gold.Protein.ActiveResidues>
 VAL166  LYS551  ARG553  GLY616  TRP617  ASP618  TYR619  PRO620  LYS621  CYS622 
 ASP623  PHE694  ASN695  SER759  ASP760  ASP761  ALA762  ILE779  LEU786  VAL792 
 PHE793  MET794  SER795  GLU796  ALA797  LYS798  CYS799  TRP800  GLU811  SER814 

> <Gold.Protein.RotatedAtoms>
  152.5409  134.0584  159.8141 H   0  0  0  0  0  0  0  0  0  0  0  0  # atno 6907 bound_to 6896
  151.0716  133.5454  159.2634 H   0  0  0  0  0  0  0  0  0  0  0  0  # atno 6908 bound_to 6896
  151.2315  135.0564  159.9043 H   0  0  0  0  0  0  0  0  0  0  0  0  # atno 6909 bound_to 6896
  144.7127  140.1167  143.6408 H   0  0  0  0  0  0  0  0  0  0  0  0  # atno 7974 bound_to 7965
  155.7217  140.0791  157.2327 H   0  0  0  0  0  0  0  0  0  0  0  0  # atno 8008 bound_to 7997
  154.4044  140.1611  156.2464 H   0  0  0  0  0  0  0  0  0  0  0  0  # atno 8009 bound_to 7997
  155.9190  140.3399  155.6160 H   0  0  0  0  0  0  0  0  0  0  0  0  # atno 8010 bound_to 7997
  140.6401  143.2503  151.5011 H   0  0  0  0  0  0  0  0  0  0  0  0  # atno 10167 bound_to 10162
  157.5988  130.9119  149.9747 H   0  0  0  0  0  0  0  0  0  0  0  0  # atno 10718 bound_to 10713
  153.1734  135.6816  153.8576 H   0  0  0  0  0  0  0  0  0  0  0  0  # atno 10763 bound_to 10752
  153.7932  135.3166  155.3382 H   0  0  0  0  0  0  0  0  0  0  0  0  # atno 10764 bound_to 10752
  154.8013  135.4776  154.0376 H   0  0  0  0  0  0  0  0  0  0  0  0  # atno 10765 bound_to 10752
  139.9359  134.9639  156.8409 H   0  0  0  0  0  0  0  0  0  0  0  0  # atno 11005 bound_to 11000
  145.9407  139.2667  143.1270 LP  0  0  0  0  0  0  0  0  0  0  0  0  # atno 17320 bound_to 7965
  145.9426  140.8968  143.0300 LP  0  0  0  0  0  0  0  0  0  0  0  0  # atno 17321 bound_to 7965
  139.5611  144.2155  152.1692 LP  0  0  0  0  0  0  0  0  0  0  0  0  # atno 17342 bound_to 10162
  140.1423  144.5191  150.6736 LP  0  0  0  0  0  0  0  0  0  0  0  0  # atno 17343 bound_to 10162
  156.1056  130.3653  150.0139 LP  0  0  0  0  0  0  0  0  0  0  0  0  # atno 17370 bound_to 10713
  156.8247  130.9371  151.3640 LP  0  0  0  0  0  0  0  0  0  0  0  0  # atno 17371 bound_to 10713
  140.6078  134.0111  155.7564 LP  0  0  0  0  0  0  0  0  0  0  0  0  # atno 17394 bound_to 11000
  141.0972  133.9825  157.3140 LP  0  0  0  0  0  0  0  0  0  0  0  0  # atno 17395 bound_to 11000

$$$$
