AV-unprocessed.smi:3329|AV-procd|sdf|12800|dock6
  -GOLD-   2272019163D 1   1.00000     0.00000
 Structure written by MMmdl.
 41 42  0  0  0  0  0  0  0  0  3 V2000
  151.8341  145.7272  159.7246 C   0  0  0  0  0  0  0  0  0  0  0  0
  151.7859  144.3971  159.0296 C   0  0  0  0  0  0  0  0  0  0  0  0
  151.0731  144.0580  157.8448 C   0  0  0  0  0  0  0  0  0  0  0  0
  151.2382  142.7945  157.4887 N   0  0  0  0  0  0  0  0  0  0  0  0
  152.0606  142.2839  158.4288 N   0  0  0  0  0  0  0  0  0  0  0  0
  152.4749  140.8945  158.3461 C   0  0  0  0  0  0  0  0  0  0  0  0
  151.2935  139.9278  158.5290 C   0  0  0  0  0  0  0  0  0  0  0  0
  151.5843  138.6175  157.9176 N   0  3  0  0  0  0  0  0  0  0  0  0
  151.3126  137.4536  158.7834 C   0  0  0  0  0  0  0  0  0  0  0  0
  149.8339  137.0801  158.6672 C   0  0  0  0  0  0  0  0  0  0  0  0
  149.1405  137.6245  157.8098 O   0  0  0  0  0  0  0  0  0  0  0  0
  149.4789  136.1525  159.5923 N   0  5  0  0  0  0  0  0  0  0  0  0
  148.1199  135.6289  159.7288 C   0  0  2  0  0  0  0  0  0  0  0  0
  147.8261  134.6288  158.5933 C   0  0  0  0  0  0  0  0  0  0  0  0
  147.1255  136.7244  159.7102 C   0  0  0  0  0  0  0  0  0  0  0  0
  146.3476  137.5821  159.6952 N   0  0  0  0  0  0  0  0  0  0  0  0
  148.0667  134.8980  161.0695 C   0  0  0  0  0  0  0  0  0  0  0  0
  146.7838  134.7528  161.8584 C   0  0  0  0  0  0  0  0  0  0  0  0
  147.9017  135.6215  162.3883 C   0  0  0  0  0  0  0  0  0  0  0  0
  152.4052  143.2288  159.3727 C   0  0  0  0  0  0  0  0  0  0  0  0
  150.8981  145.9457  160.2383 H   0  0  0  0  0  0  0  0  0  0  0  0
  152.0131  146.5413  159.0220 H   0  0  0  0  0  0  0  0  0  0  0  0
  152.6279  145.7675  160.4709 H   0  0  0  0  0  0  0  0  0  0  0  0
  150.4440  144.6906  157.2357 H   0  0  0  0  0  0  0  0  0  0  0  0
  152.9580  140.7286  157.3821 H   0  0  0  0  0  0  0  0  0  0  0  0
  153.2308  140.7135  159.1114 H   0  0  0  0  0  0  0  0  0  0  0  0
  151.0862  139.7863  159.5901 H   0  0  0  0  0  0  0  0  0  0  0  0
  150.3928  140.3492  158.0803 H   0  0  0  0  0  0  0  0  0  0  0  0
  151.0012  138.5120  157.0987 H   0  0  0  0  0  0  0  0  0  0  0  0
  151.9419  136.6148  158.4826 H   0  0  0  0  0  0  0  0  0  0  0  0
  151.5491  137.6887  159.8225 H   0  0  0  0  0  0  0  0  0  0  0  0
  146.8449  134.1712  158.7243 H   0  0  0  0  0  0  0  0  0  0  0  0
  148.5617  133.8239  158.5676 H   0  0  0  0  0  0  0  0  0  0  0  0
  147.8266  135.1105  157.6153 H   0  0  0  0  0  0  0  0  0  0  0  0
  148.7210  134.0276  161.1027 H   0  0  0  0  0  0  0  0  0  0  0  0
  145.8911  135.2527  161.4884 H   0  0  0  0  0  0  0  0  0  0  0  0
  146.6086  133.8018  162.3572 H   0  0  0  0  0  0  0  0  0  0  0  0
  148.4703  135.2451  163.2355 H   0  0  0  0  0  0  0  0  0  0  0  0
  147.7579  136.6997  162.3702 H   0  0  0  0  0  0  0  0  0  0  0  0
  153.0599  142.9966  160.1998 H   0  0  0  0  0  0  0  0  0  0  0  0
  152.5505  138.5861  157.6267 H   0  0  0  0  0  0  0  0  0  0  0  0
  1  2  1  0  0  0  0
  1 21  1  0  0  0  0
  1 22  1  0  0  0  0
  1 23  1  0  0  0  0
  2 20  2  0  0  0  0
  2  3  1  0  0  0  0
  3  4  2  0  0  0  0
  3 24  1  0  0  0  0
  4  5  1  0  0  0  0
  5  6  1  0  0  0  0
  5 20  1  0  0  0  0
  6  7  1  0  0  0  0
  6 25  1  0  0  0  0
  6 26  1  0  0  0  0
  7  8  1  0  0  0  0
  7 27  1  0  0  0  0
  7 28  1  0  0  0  0
  8  9  1  0  0  0  0
  8 29  1  0  0  0  0
  8 41  1  0  0  0  0
  9 10  1  0  0  0  0
  9 30  1  0  0  0  0
  9 31  1  0  0  0  0
 10 11  2  0  0  0  0
 10 12  1  0  0  0  0
 12 13  1  0  0  0  0
 13 14  1  0  0  0  0
 13 15  1  0  0  0  0
 13 17  1  0  0  0  0
 14 32  1  0  0  0  0
 14 33  1  0  0  0  0
 14 34  1  0  0  0  0
 15 16  3  0  0  0  0
 17 19  1  0  0  0  0
 17 18  1  0  0  0  0
 17 35  1  0  0  0  0
 18 19  1  0  0  0  0
 18 36  1  0  0  0  0
 18 37  1  0  0  0  0
 19 38  1  0  0  0  0
 19 39  1  0  0  0  0
 20 40  1  0  0  0  0
M  CHG  1   8   1
M  CHG  1  12  -1
M  END
> <s_m_source_file>
AV-unprocessed.smi

> <i_m_source_file_index>
3329

> <i_lp_mmshare_version>
43012

> <i_f3d_flags>
0

> <s_epik_input>
W0NIM11jMVtjSF1ubihbY0hdMSlbQ0gyXVtDSDJdW05IXVtDSDJdQyg9TylbTkhdW0NAQF0oW0NIM10pKEMjTilbQ0hdMltDSDJdW0NIMl0y

> <s_epik_cmdline>
J2VwaWtfcHl0aG9uJywgJy1waCcsICc3LjAnLCAnLXRuJywgJzgnLCAnLW1hJywgJzIwMCcsICctbWV0YWxfYmluZGluZycsICctaW1hZScsICc8aW5maWxlLm1hZT4nLCAnLW9tYWUnLCAnPG91dGZpbGUubWFlPic=

> <r_lp_tautomer_probability>
1

> <r_epik_Ionization_Penalty>
5.61187

> <r_epik_Ionization_Penalty_Charging>
5.61186

> <r_epik_Ionization_Penalty_Neutral>
4.91277e-06

> <r_epik_State_Penalty>
5.94522

> <r_epik_Charging_Adjusted_Penalty>
11.5571

> <i_epik_Tot_Q>
0

> <i_epik_Tot_abs_Q>
2

> <r_epik_Metal_State_Penalty>
1.9215

> <b_epik_Metal_Only>
1

> <s_lp_Force_Field>
OPLS_2005

> <r_lp_Energy>
5.18635

> <b_lp_Chiralities_Consistent>
1

> <s_lp_Variant>
AV-unprocessed.smi:3329-6

> <Gold.Version>
5.8.1

> <Gold.Id.Protein>
6NUR|6NUR_protein|mol2

> <Gold.PLP.Fitness>
50.7440

> <Gold.PLP.PLP>
-40.5799

> <Gold.PLP.part.hbond>
-2.0000

> <Gold.PLP.part.metal>
0.0000

> <Gold.PLP.part.buried>
-5.3914

> <Gold.PLP.part.nonpolar>
-33.7973

> <Gold.PLP.part.repulsive>
0.1485

> <Gold.PLP.ligand.clash>
0.0000

> <Gold.PLP.ligand.torsion>
1.7376

> <Gold.PLP.Chemscore.Hbond>
2.9760

> <Gold.PLP.Chemscore.CHOScore>
1.0000

> <Gold.PLP.Chemscore.Metal>
0.0000

> <Gold.Chemscore.Hbonds>
donor molecule, donor type, donor heavy atom, donor atom, acceptor molecule, acceptor atom, score
      P1  H  6896  6907       L1    12  2.00
      P1  H  6934  6947       L1    16  0.94
      L1  C     3    24       P1  8028  1.00

> <Gold.PLP.Chemscore.Internal.Correction>
1.7113

> <Gold.Rescore>
     Score         DG    S(hbond)    S(metal)    S(lipo)     H(rot)  DE(clash)    DE(int)     intcor
     13.28     -16.29       1.74        0.00      93.23       2.31       0.01       3.00       ----

> <Gold.Chemscore.Fitness>
13.2827

> <Gold.Chemscore.DG>
-16.2857

> <Gold.Chemscore.ZeroCoef>
-5.4800

> <Gold.Chemscore.Hbond>
1.7430

> <Gold.Chemscore.Metal>
0.0000

> <Gold.Chemscore.Lipo>
93.2300

> <Gold.Chemscore.Internal_Hbond>
0.0000

> <Gold.Chemscore.DEClash>
0.0067

> <Gold.Chemscore.DEInternal>
2.9964

> <Gold.Chemscore.Rot>
2.3140

> <Gold.Chemscore.Internal.Correction>
   9.000000E+99

> <Gold.Chemscore.Hbonds>
donor molecule, donor type, donor heavy atom, donor atom, acceptor molecule, acceptor atom, score
      P1  H  6896  6907       L1    12  0.65
      P1  H  6934  6947       L1    16  0.43

> <Gold.Chemscore.Hbond.Weighted>
-5.8216

> <Gold.Chemscore.Metal.Weighted>
-0.0000

> <Gold.Chemscore.Lipo.Weighted>
-10.9079

> <Gold.Chemscore.Internal_Hbond.Weighted>
0.0000

> <Gold.Chemscore.DEClash.Weighted>
0.0067

> <Gold.Chemscore.DEInternal.Weighted>
2.9964

> <Gold.Chemscore.Rot.Weighted>
5.9238

> <Gold.Chemscore.Internal.Correction.Weighted>
   9.000000E+99

> <Gold.Protein.RotatedTorsions>
[ 6907 6896 6895 6894 ] final  -46.65 input  -60.11 | X-H torsion
[ 7974 7965 7964 7962 ] final  -26.36 input  175.53 | X-H torsion
[ 8008 7997 7996 7995 ] final  150.80 input   59.86 | X-H torsion
[ 10167 10162 10161 10158 ] final   93.16 input  -65.29 | X-H torsion
[ 10718 10713 10712 10709 ] final  -61.18 input   66.30 | X-H torsion
[ 10763 10752 10751 10750 ] final  -93.49 input  -60.55 | X-H torsion
[ 11005 11000 10999 10996 ] final -117.56 input  -57.11 | X-H torsion

> <Gold.Protein.ActiveResidues>
 VAL166  LYS551  ARG553  GLY616  TRP617  ASP618  TYR619  PRO620  LYS621  CYS622 
 ASP623  PHE694  ASN695  SER759  ASP760  ASP761  ALA762  ILE779  LEU786  VAL792 
 PHE793  MET794  SER795  GLU796  ALA797  LYS798  CYS799  TRP800  GLU811  SER814 

> <Gold.Protein.RotatedAtoms>
  150.9090  134.8506  159.7411 H   0  0  0  0  0  0  0  0  0  0  0  0  # atno 6907 bound_to 6896
  152.4934  134.4388  159.9546 H   0  0  0  0  0  0  0  0  0  0  0  0  # atno 6908 bound_to 6896
  151.4432  133.3598  159.2820 H   0  0  0  0  0  0  0  0  0  0  0  0  # atno 6909 bound_to 6896
  146.1430  140.5010  142.8644 H   0  0  0  0  0  0  0  0  0  0  0  0  # atno 7974 bound_to 7965
  156.2701  140.2065  156.6074 H   0  0  0  0  0  0  0  0  0  0  0  0  # atno 8008 bound_to 7997
  154.6858  140.0535  157.0337 H   0  0  0  0  0  0  0  0  0  0  0  0  # atno 8009 bound_to 7997
  155.0936  140.3199  155.4570 H   0  0  0  0  0  0  0  0  0  0  0  0  # atno 8010 bound_to 7997
  139.8206  144.6733  150.9523 H   0  0  0  0  0  0  0  0  0  0  0  0  # atno 10167 bound_to 10162
  156.0939  130.4196  150.0958 H   0  0  0  0  0  0  0  0  0  0  0  0  # atno 10718 bound_to 10713
  154.6964  135.5192  153.8464 H   0  0  0  0  0  0  0  0  0  0  0  0  # atno 10763 bound_to 10752
  153.0670  135.6588  154.0341 H   0  0  0  0  0  0  0  0  0  0  0  0  # atno 10764 bound_to 10752
  154.0207  135.2994  155.3361 H   0  0  0  0  0  0  0  0  0  0  0  0  # atno 10765 bound_to 10752
  141.0346  133.9929  157.3091 H   0  0  0  0  0  0  0  0  0  0  0  0  # atno 11005 bound_to 11000
  144.7814  140.5848  143.6603 LP  0  0  0  0  0  0  0  0  0  0  0  0  # atno 17320 bound_to 7965
  145.5002  139.1484  143.3661 LP  0  0  0  0  0  0  0  0  0  0  0  0  # atno 17321 bound_to 7965
  140.7813  143.4095  151.1016 LP  0  0  0  0  0  0  0  0  0  0  0  0  # atno 17342 bound_to 10162
  139.7756  143.8431  152.3128 LP  0  0  0  0  0  0  0  0  0  0  0  0  # atno 17343 bound_to 10162
  156.8962  130.9605  151.3582 LP  0  0  0  0  0  0  0  0  0  0  0  0  # atno 17370 bound_to 10713
  157.6095  130.8572  149.8929 LP  0  0  0  0  0  0  0  0  0  0  0  0  # atno 17371 bound_to 10713
  139.9231  135.0201  156.8138 LP  0  0  0  0  0  0  0  0  0  0  0  0  # atno 17394 bound_to 11000
  140.6345  133.9875  155.7678 LP  0  0  0  0  0  0  0  0  0  0  0  0  # atno 17395 bound_to 11000

$$$$
