AV-unprocessed.smi:1753|AV-procd|sdf|7063|dock5
  -GOLD-   22720 8283D 1   1.00000     0.00000
 Structure written by MMmdl.
 37 38  0  0  0  0  0  0  0  0  1 V2000
  143.4311  132.3950  149.6941 C   0  0  0  0  0  0  0  0  0  0  0  0
  144.5202  133.1326  150.4155 C   0  0  0  0  0  0  0  0  0  0  0  0
  144.6880  134.5416  150.5466 C   0  0  0  0  0  0  0  0  0  0  0  0
  145.8293  134.6419  151.2949 C   0  0  0  0  0  0  0  0  0  0  0  0
  146.4685  135.7612  151.7282 N   0  0  0  0  0  0  0  0  0  0  0  0
  145.9450  136.8716  152.2768 C   0  0  0  0  0  0  0  0  0  0  0  0
  144.7497  137.0628  152.5006 O   0  0  0  0  0  0  0  0  0  0  0  0
  146.9032  137.7651  152.5629 N   0  0  0  0  0  0  0  0  0  0  0  0
  146.6883  139.0778  153.1649 C   0  0  0  0  0  0  0  0  0  0  0  0
  148.0167  139.7725  153.5206 C   0  0  1  0  0  0  0  0  0  0  0  0
  147.8040  141.2049  154.0475 C   0  0  0  0  0  0  0  0  0  0  0  0
  149.1312  141.7214  154.6116 C   0  0  0  0  0  0  0  0  0  0  0  0
  149.9565  140.2589  155.3407 S   0  0  0  0  0  0  0  0  0  0  0  0
  151.3098  140.1425  154.7770 O   0  0  0  0  0  0  0  0  0  0  0  0
  149.7375  140.2464  156.7949 O   0  0  0  0  0  0  0  0  0  0  0  0
  148.8578  139.0145  154.5628 C   0  0  0  0  0  0  0  0  0  0  0  0
  146.2897  133.3727  151.5748 N   0  0  0  0  0  0  0  0  0  0  0  0
  147.4523  132.9420  152.3275 C   0  0  0  0  0  0  0  0  0  0  0  0
  145.4748  132.4439  151.0303 N   0  0  0  0  0  0  0  0  0  0  0  0
  142.8213  133.0760  149.0999 H   0  0  0  0  0  0  0  0  0  0  0  0
  142.7712  131.8864  150.3971 H   0  0  0  0  0  0  0  0  0  0  0  0
  143.8428  131.6446  149.0187 H   0  0  0  0  0  0  0  0  0  0  0  0
  144.0637  135.3277  150.1497 H   0  0  0  0  0  0  0  0  0  0  0  0
  147.4715  135.7516  151.6175 H   0  0  0  0  0  0  0  0  0  0  0  0
  147.8581  137.5200  152.3452 H   0  0  0  0  0  0  0  0  0  0  0  0
  146.1422  139.6844  152.4419 H   0  0  0  0  0  0  0  0  0  0  0  0
  146.0462  139.0056  154.0447 H   0  0  0  0  0  0  0  0  0  0  0  0
  148.6164  139.8527  152.6125 H   0  0  0  0  0  0  0  0  0  0  0  0
  147.4170  141.8680  153.2732 H   0  0  0  0  0  0  0  0  0  0  0  0
  147.0644  141.1859  154.8494 H   0  0  0  0  0  0  0  0  0  0  0  0
  149.7675  142.1056  153.8141 H   0  0  0  0  0  0  0  0  0  0  0  0
  149.0039  142.4997  155.3640 H   0  0  0  0  0  0  0  0  0  0  0  0
  148.2263  138.5946  155.3464 H   0  0  0  0  0  0  0  0  0  0  0  0
  149.4508  138.2094  154.1287 H   0  0  0  0  0  0  0  0  0  0  0  0
  148.0490  133.7987  152.6406 H   0  0  0  0  0  0  0  0  0  0  0  0
  148.0712  132.2916  151.7085 H   0  0  0  0  0  0  0  0  0  0  0  0
  147.1324  132.3925  153.2131 H   0  0  0  0  0  0  0  0  0  0  0  0
  1  2  1  0  0  0  0
  1 20  1  0  0  0  0
  1 21  1  0  0  0  0
  1 22  1  0  0  0  0
  2 19  2  0  0  0  0
  2  3  1  0  0  0  0
  3  4  2  0  0  0  0
  3 23  1  0  0  0  0
  4  5  1  0  0  0  0
  4 17  1  0  0  0  0
  5  6  1  0  0  0  0
  5 24  1  0  0  0  0
  6  7  2  0  0  0  0
  6  8  1  0  0  0  0
  8  9  1  0  0  0  0
  8 25  1  0  0  0  0
  9 10  1  0  0  0  0
  9 26  1  0  0  0  0
  9 27  1  0  0  0  0
 10 16  1  0  0  0  0
 10 11  1  0  0  0  0
 10 28  1  0  0  0  0
 11 12  1  0  0  0  0
 11 29  1  0  0  0  0
 11 30  1  0  0  0  0
 12 13  1  0  0  0  0
 12 31  1  0  0  0  0
 12 32  1  0  0  0  0
 13 14  2  0  0  0  0
 13 15  2  0  0  0  0
 13 16  1  0  0  0  0
 16 33  1  0  0  0  0
 16 34  1  0  0  0  0
 17 18  1  0  0  0  0
 17 19  1  0  0  0  0
 18 35  1  0  0  0  0
 18 36  1  0  0  0  0
 18 37  1  0  0  0  0
M  END
> <s_m_source_file>
AV-unprocessed.smi

> <i_m_source_file_index>
1753

> <i_lp_mmshare_version>
43012

> <i_f3d_flags>
0

> <s_epik_input>
W0NIM11jMVtjSF1jKG4objEpW0NIM10pW05IXUMoPU8pW05IXVtDSDJdW0NAQEhdKFtDSDJdMilbQ0gyXVtDSDJdUzIoPU8pPU8=

> <s_epik_cmdline>
J2VwaWtfcHl0aG9uJywgJy1waCcsICc3LjAnLCAnLXRuJywgJzgnLCAnLW1hJywgJzIwMCcsICctbWV0YWxfYmluZGluZycsICctaW1hZScsICc8aW5maWxlLm1hZT4nLCAnLW9tYWUnLCAnPG91dGZpbGUubWFlPic=

> <r_lp_tautomer_probability>
1

> <r_epik_Ionization_Penalty>
9.06651e-05

> <r_epik_Ionization_Penalty_Charging>
0

> <r_epik_Ionization_Penalty_Neutral>
9.06651e-05

> <r_epik_State_Penalty>
-0

> <r_epik_Charging_Adjusted_Penalty>
0

> <i_epik_Tot_Q>
0

> <i_epik_Tot_abs_Q>
0

> <r_epik_Metal_State_Penalty>
-0

> <b_epik_Metal_Only>
0

> <s_lp_Force_Field>
OPLS_2005

> <r_lp_Energy>
6.63642

> <b_lp_Chiralities_Consistent>
1

> <s_lp_Variant>
AV-unprocessed.smi:1753-2

> <Gold.Version>
5.8.1

> <Gold.Id.Protein>
6NUR|6NUR_protein|mol2

> <Gold.PLP.Fitness>
39.9992

> <Gold.PLP.PLP>
-32.0383

> <Gold.PLP.part.hbond>
-2.8556

> <Gold.PLP.part.metal>
0.0000

> <Gold.PLP.part.buried>
-0.4623

> <Gold.PLP.part.nonpolar>
-29.4362

> <Gold.PLP.part.repulsive>
0.5233

> <Gold.PLP.ligand.clash>
0.0000

> <Gold.PLP.ligand.torsion>
0.4002

> <Gold.PLP.Chemscore.Hbond>
2.9193

> <Gold.PLP.Chemscore.CHOScore>
0.0000

> <Gold.PLP.Chemscore.Metal>
0.0000

> <Gold.Chemscore.Hbonds>
donor molecule, donor type, donor heavy atom, donor atom, acceptor molecule, acceptor atom, score
      L1  H     5    24       P1  7948  1.00
      L1  H     8    25       P1  7948  0.93
      P1  H  7989  7998       L1    14  0.93

> <Gold.PLP.Chemscore.Internal.Correction>
0.0035

> <Gold.Rescore>
     Score         DG    S(hbond)    S(metal)    S(lipo)     H(rot)  DE(clash)    DE(int)     intcor
     18.61     -19.02       2.93        0.00      60.65       1.31       0.07       0.34       ----

> <Gold.Chemscore.Fitness>
18.6135

> <Gold.Chemscore.DG>
-19.0230

> <Gold.Chemscore.ZeroCoef>
-5.4800

> <Gold.Chemscore.Hbond>
2.9329

> <Gold.Chemscore.Metal>
0.0000

> <Gold.Chemscore.Lipo>
60.6471

> <Gold.Chemscore.Internal_Hbond>
0.0000

> <Gold.Chemscore.DEClash>
0.0729

> <Gold.Chemscore.DEInternal>
0.3367

> <Gold.Chemscore.Rot>
1.3080

> <Gold.Chemscore.Internal.Correction>
   9.000000E+99

> <Gold.Chemscore.Hbonds>
donor molecule, donor type, donor heavy atom, donor atom, acceptor molecule, acceptor atom, score
      L1  H     5    24       P1  7948  0.92
      L1  H     8    25       P1  7948  0.90
      P1  H  7989  7998       L1    14  0.86

> <Gold.Chemscore.Hbond.Weighted>
-9.7958

> <Gold.Chemscore.Metal.Weighted>
-0.0000

> <Gold.Chemscore.Lipo.Weighted>
-7.0957

> <Gold.Chemscore.Internal_Hbond.Weighted>
0.0000

> <Gold.Chemscore.DEClash.Weighted>
0.0729

> <Gold.Chemscore.DEInternal.Weighted>
0.3367

> <Gold.Chemscore.Rot.Weighted>
3.3485

> <Gold.Chemscore.Internal.Correction.Weighted>
   9.000000E+99

> <Gold.Protein.RotatedTorsions>
[ 6907 6896 6895 6894 ] final  -29.80 input  -60.11 | X-H torsion
[ 7974 7965 7964 7962 ] final  -50.24 input  175.53 | X-H torsion
[ 8008 7997 7996 7995 ] final  -63.92 input   59.86 | X-H torsion
[ 10167 10162 10161 10158 ] final -114.85 input  -65.29 | X-H torsion
[ 10718 10713 10712 10709 ] final  151.16 input   66.30 | X-H torsion
[ 10763 10752 10751 10750 ] final   86.27 input  -60.55 | X-H torsion
[ 11005 11000 10999 10996 ] final  -25.03 input  -57.11 | X-H torsion

> <Gold.Protein.ActiveResidues>
 VAL166  LYS551  ARG553  GLY616  TRP617  ASP618  TYR619  PRO620  LYS621  CYS622 
 ASP623  PHE694  ASN695  SER759  ASP760  ASP761  ALA762  ILE779  LEU786  VAL792 
 PHE793  MET794  SER795  GLU796  ALA797  LYS798  CYS799  TRP800  GLU811  SER814 

> <Gold.Protein.RotatedAtoms>
  151.1142  135.0043  159.8507 H   0  0  0  0  0  0  0  0  0  0  0  0  # atno 6907 bound_to 6896
  152.5445  134.1800  159.8641 H   0  0  0  0  0  0  0  0  0  0  0  0  # atno 6908 bound_to 6896
  151.1852  133.4656  159.2627 H   0  0  0  0  0  0  0  0  0  0  0  0  # atno 6909 bound_to 6896
  145.9319  140.7741  142.9595 H   0  0  0  0  0  0  0  0  0  0  0  0  # atno 7974 bound_to 7965
  154.4581  140.0965  156.6816 H   0  0  0  0  0  0  0  0  0  0  0  0  # atno 8008 bound_to 7997
  155.5076  140.3475  155.4364 H   0  0  0  0  0  0  0  0  0  0  0  0  # atno 8009 bound_to 7997
  156.0818  140.1375  156.9692 H   0  0  0  0  0  0  0  0  0  0  0  0  # atno 8010 bound_to 7997
  140.0965  143.4652  152.1838 H   0  0  0  0  0  0  0  0  0  0  0  0  # atno 10167 bound_to 10162
  157.2742  131.0823  151.1578 H   0  0  0  0  0  0  0  0  0  0  0  0  # atno 10718 bound_to 10713
  153.1554  135.4586  154.9697 H   0  0  0  0  0  0  0  0  0  0  0  0  # atno 10763 bound_to 10752
  154.7857  135.3203  154.7893 H   0  0  0  0  0  0  0  0  0  0  0  0  # atno 10764 bound_to 10752
  153.8391  135.6931  153.4859 H   0  0  0  0  0  0  0  0  0  0  0  0  # atno 10765 bound_to 10752
  140.8900  133.7595  156.0409 H   0  0  0  0  0  0  0  0  0  0  0  0  # atno 11005 bound_to 11000
  144.6766  140.2141  143.7373 LP  0  0  0  0  0  0  0  0  0  0  0  0  # atno 17320 bound_to 7965
  145.8414  139.2132  143.1825 LP  0  0  0  0  0  0  0  0  0  0  0  0  # atno 17321 bound_to 7965
  139.5695  144.7454  151.3930 LP  0  0  0  0  0  0  0  0  0  0  0  0  # atno 17342 bound_to 10162
  140.7001  143.7654  150.7388 LP  0  0  0  0  0  0  0  0  0  0  0  0  # atno 17343 bound_to 10162
  157.3038  130.6856  149.6178 LP  0  0  0  0  0  0  0  0  0  0  0  0  # atno 17370 bound_to 10713
  155.9663  130.4384  150.5216 LP  0  0  0  0  0  0  0  0  0  0  0  0  # atno 17371 bound_to 10713
  140.8358  134.3124  157.5332 LP  0  0  0  0  0  0  0  0  0  0  0  0  # atno 17394 bound_to 11000
  139.8728  134.9389  156.3726 LP  0  0  0  0  0  0  0  0  0  0  0  0  # atno 17395 bound_to 11000

$$$$
