AV-unprocessed.smi:3040|AV-procd|sdf|11596|dock5
  -GOLD-   2272016573D 1   1.00000     0.00000
 Structure written by MMmdl.
 39 40  0  0  0  0  0  0  0  0  1 V2000
  145.8851  131.6915  150.5136 C   0  0  0  0  0  0  0  0  0  0  0  0
  145.7759  133.0210  151.1170 N   0  0  0  0  0  0  0  0  0  0  0  0
  144.8137  133.9214  150.4659 C   0  0  0  0  0  0  0  0  0  0  0  0
  145.0314  135.4005  150.8089 C   0  0  0  0  0  0  0  0  0  0  0  0
  145.1813  135.5704  152.3260 C   0  0  2  0  0  0  0  0  0  0  0  0
  145.3634  137.0465  152.7011 C   0  0  0  0  0  0  0  0  0  0  0  0
  144.4664  137.6530  153.2878 O   0  0  0  0  0  0  0  0  0  0  0  0
  146.5164  137.6212  152.3211 N   0  0  0  0  0  0  0  0  0  0  0  0
  146.8237  139.0472  152.4195 C   0  0  0  0  0  0  0  0  0  0  0  0
  147.1485  139.4691  153.8671 C   0  0  0  0  0  0  0  0  0  0  0  0
  148.6273  139.4787  154.1561 C   0  0  0  0  0  0  0  0  0  0  0  0
  149.4427  140.5877  154.5223 C   0  0  0  0  0  0  0  0  0  0  0  0
  150.7199  140.2663  154.6514 N   0  0  0  0  0  0  0  0  0  0  0  0
  150.7634  138.9461  154.3784 N   0  0  0  0  0  0  0  0  0  0  0  0
  152.0328  138.2515  154.4001 C   0  0  0  0  0  0  0  0  0  0  0  0
  149.5147  138.4415  154.0896 C   0  0  0  0  0  0  0  0  0  0  0  0
  146.3799  134.7405  152.8311 C   0  0  0  0  0  0  0  0  0  0  0  0
  146.4790  133.3274  152.2341 C   0  0  0  0  0  0  0  0  0  0  0  0
  147.2275  132.5202  152.7861 O   0  0  0  0  0  0  0  0  0  0  0  0
  145.6993  130.9106  151.2527 H   0  0  0  0  0  0  0  0  0  0  0  0
  146.8843  131.5419  150.1027 H   0  0  0  0  0  0  0  0  0  0  0  0
  145.1679  131.5461  149.7048 H   0  0  0  0  0  0  0  0  0  0  0  0
  144.8603  133.8001  149.3827 H   0  0  0  0  0  0  0  0  0  0  0  0
  143.8110  133.6191  150.7710 H   0  0  0  0  0  0  0  0  0  0  0  0
  145.9259  135.7604  150.2975 H   0  0  0  0  0  0  0  0  0  0  0  0
  144.1966  135.9936  150.4329 H   0  0  0  0  0  0  0  0  0  0  0  0
  144.2729  135.1989  152.8046 H   0  0  0  0  0  0  0  0  0  0  0  0
  147.1995  137.0421  151.8551 H   0  0  0  0  0  0  0  0  0  0  0  0
  147.6562  139.3069  151.7634 H   0  0  0  0  0  0  0  0  0  0  0  0
  145.9657  139.6125  152.0551 H   0  0  0  0  0  0  0  0  0  0  0  0
  146.7157  140.4519  154.0545 H   0  0  0  0  0  0  0  0  0  0  0  0
  146.6367  138.7919  154.5517 H   0  0  0  0  0  0  0  0  0  0  0  0
  149.1478  141.6149  154.6777 H   0  0  0  0  0  0  0  0  0  0  0  0
  151.8676  137.1773  154.4872 H   0  0  0  0  0  0  0  0  0  0  0  0
  152.6300  138.5873  155.2487 H   0  0  0  0  0  0  0  0  0  0  0  0
  152.5751  138.4537  153.4759 H   0  0  0  0  0  0  0  0  0  0  0  0
  149.3652  137.4018  153.8381 H   0  0  0  0  0  0  0  0  0  0  0  0
  147.3193  135.2472  152.6030 H   0  0  0  0  0  0  0  0  0  0  0  0
  146.3354  134.6561  153.9177 H   0  0  0  0  0  0  0  0  0  0  0  0
  1  2  1  0  0  0  0
  1 20  1  0  0  0  0
  1 21  1  0  0  0  0
  1 22  1  0  0  0  0
  2 18  1  0  0  0  0
  2  3  1  0  0  0  0
  3  4  1  0  0  0  0
  3 23  1  0  0  0  0
  3 24  1  0  0  0  0
  4  5  1  0  0  0  0
  4 25  1  0  0  0  0
  4 26  1  0  0  0  0
  5  6  1  0  0  0  0
  5 17  1  0  0  0  0
  5 27  1  0  0  0  0
  6  7  2  0  0  0  0
  6  8  1  0  0  0  0
  8  9  1  0  0  0  0
  8 28  1  0  0  0  0
  9 10  1  0  0  0  0
  9 29  1  0  0  0  0
  9 30  1  0  0  0  0
 10 11  1  0  0  0  0
 10 31  1  0  0  0  0
 10 32  1  0  0  0  0
 11 16  2  0  0  0  0
 11 12  1  0  0  0  0
 12 13  2  0  0  0  0
 12 33  1  0  0  0  0
 13 14  1  0  0  0  0
 14 15  1  0  0  0  0
 14 16  1  0  0  0  0
 15 34  1  0  0  0  0
 15 35  1  0  0  0  0
 15 36  1  0  0  0  0
 16 37  1  0  0  0  0
 17 18  1  0  0  0  0
 17 38  1  0  0  0  0
 17 39  1  0  0  0  0
 18 19  2  0  0  0  0
M  END
> <s_m_source_file>
AV-unprocessed.smi

> <i_m_source_file_index>
3040

> <i_lp_mmshare_version>
43012

> <i_f3d_flags>
0

> <s_epik_input>
W0NIM11OMVtDSDJdW0NIMl1bQ0BIXShbQ0gyXUMxPU8pQyg9TylbTkhdW0NIMl1bQ0gyXWMyW2NIXW5uKFtDSDNdKVtjSF0y

> <s_epik_cmdline>
J2VwaWtfcHl0aG9uJywgJy1waCcsICc3LjAnLCAnLXRuJywgJzgnLCAnLW1hJywgJzIwMCcsICctbWV0YWxfYmluZGluZycsICctaW1hZScsICc8aW5maWxlLm1hZT4nLCAnLW9tYWUnLCAnPG91dGZpbGUubWFlPic=

> <r_lp_tautomer_probability>
1

> <r_epik_Ionization_Penalty>
0.000456436

> <r_epik_Ionization_Penalty_Charging>
0

> <r_epik_Ionization_Penalty_Neutral>
0.000456436

> <r_epik_State_Penalty>
-0

> <r_epik_Charging_Adjusted_Penalty>
0

> <i_epik_Tot_Q>
0

> <i_epik_Tot_abs_Q>
0

> <r_epik_Metal_State_Penalty>
-0

> <b_epik_Metal_Only>
0

> <s_lp_Force_Field>
OPLS_2005

> <r_lp_Energy>
9.8739

> <b_lp_Chiralities_Consistent>
1

> <s_lp_Variant>
AV-unprocessed.smi:3040-2

> <Gold.Version>
5.8.1

> <Gold.Id.Protein>
6NUR|6NUR_protein|mol2

> <Gold.PLP.Fitness>
43.6772

> <Gold.PLP.PLP>
-35.6161

> <Gold.PLP.part.hbond>
-2.0000

> <Gold.PLP.part.metal>
0.0000

> <Gold.PLP.part.buried>
-1.6693

> <Gold.PLP.part.nonpolar>
-31.2234

> <Gold.PLP.part.repulsive>
1.4289

> <Gold.PLP.ligand.clash>
0.0000

> <Gold.PLP.ligand.torsion>
0.4776

> <Gold.PLP.Chemscore.Hbond>
2.0000

> <Gold.PLP.Chemscore.CHOScore>
1.0000

> <Gold.PLP.Chemscore.Metal>
0.0000

> <Gold.Chemscore.Hbonds>
donor molecule, donor type, donor heavy atom, donor atom, acceptor molecule, acceptor atom, score
      L1  H     8    28       P1  7948  0.99
      P1  H  7989  7998       L1    13  1.00
      L1  C    16    37       P1  7948  1.00

> <Gold.PLP.Chemscore.Internal.Correction>
0.0164

> <Gold.Rescore>
     Score         DG    S(hbond)    S(metal)    S(lipo)     H(rot)  DE(clash)    DE(int)     intcor
     13.73     -14.67       1.43        0.00      73.92       1.65       0.49       0.45       ----

> <Gold.Chemscore.Fitness>
13.7276

> <Gold.Chemscore.DG>
-14.6685

> <Gold.Chemscore.ZeroCoef>
-5.4800

> <Gold.Chemscore.Hbond>
1.4290

> <Gold.Chemscore.Metal>
0.0000

> <Gold.Chemscore.Lipo>
73.9210

> <Gold.Chemscore.Internal_Hbond>
0.0000

> <Gold.Chemscore.DEClash>
0.4872

> <Gold.Chemscore.DEInternal>
0.4537

> <Gold.Chemscore.Rot>
1.6536

> <Gold.Chemscore.Internal.Correction>
   9.000000E+99

> <Gold.Chemscore.Hbonds>
donor molecule, donor type, donor heavy atom, donor atom, acceptor molecule, acceptor atom, score
      L1  H     8    28       P1  7948  0.94
      P1  H  7989  7998       L1    13  0.29

> <Gold.Chemscore.Hbond.Weighted>
-4.7729

> <Gold.Chemscore.Metal.Weighted>
-0.0000

> <Gold.Chemscore.Lipo.Weighted>
-8.6488

> <Gold.Chemscore.Internal_Hbond.Weighted>
0.0000

> <Gold.Chemscore.DEClash.Weighted>
0.4872

> <Gold.Chemscore.DEInternal.Weighted>
0.4537

> <Gold.Chemscore.Rot.Weighted>
4.2332

> <Gold.Chemscore.Internal.Correction.Weighted>
   9.000000E+99

> <Gold.Protein.RotatedTorsions>
[ 6907 6896 6895 6894 ] final -150.20 input  -60.11 | X-H torsion
[ 7974 7965 7964 7962 ] final  -70.18 input  175.53 | X-H torsion
[ 8008 7997 7996 7995 ] final   24.29 input   59.86 | X-H torsion
[ 10167 10162 10161 10158 ] final  -13.74 input  -65.29 | X-H torsion
[ 10718 10713 10712 10709 ] final   76.08 input   66.30 | X-H torsion
[ 10763 10752 10751 10750 ] final  -35.03 input  -60.55 | X-H torsion
[ 11005 11000 10999 10996 ] final -109.89 input  -57.11 | X-H torsion

> <Gold.Protein.ActiveResidues>
 VAL166  LYS551  ARG553  GLY616  TRP617  ASP618  TYR619  PRO620  LYS621  CYS622 
 ASP623  PHE694  ASN695  SER759  ASP760  ASP761  ALA762  ILE779  LEU786  VAL792 
 PHE793  MET794  SER795  GLU796  ALA797  LYS798  CYS799  TRP800  GLU811  SER814 

> <Gold.Protein.RotatedAtoms>
  151.1951  133.4644  159.2595 H   0  0  0  0  0  0  0  0  0  0  0  0  # atno 6907 bound_to 6896
  151.1125  135.0034  159.8511 H   0  0  0  0  0  0  0  0  0  0  0  0  # atno 6908 bound_to 6896
  152.5451  134.1869  159.8711 H   0  0  0  0  0  0  0  0  0  0  0  0  # atno 6909 bound_to 6896
  145.6942  140.9141  143.0765 H   0  0  0  0  0  0  0  0  0  0  0  0  # atno 7974 bound_to 7965
  154.9940  140.3117  155.4894 H   0  0  0  0  0  0  0  0  0  0  0  0  # atno 8008 bound_to 7997
  156.2935  140.2244  156.4987 H   0  0  0  0  0  0  0  0  0  0  0  0  # atno 8009 bound_to 7997
  154.7678  140.0454  157.1014 H   0  0  0  0  0  0  0  0  0  0  0  0  # atno 8010 bound_to 7997
  140.7188  143.5395  150.9426 H   0  0  0  0  0  0  0  0  0  0  0  0  # atno 10167 bound_to 10162
  157.6659  130.9757  150.1445 H   0  0  0  0  0  0  0  0  0  0  0  0  # atno 10718 bound_to 10713
  153.8565  135.6844  153.4787 H   0  0  0  0  0  0  0  0  0  0  0  0  # atno 10763 bound_to 10752
  153.1367  135.4675  154.9431 H   0  0  0  0  0  0  0  0  0  0  0  0  # atno 10764 bound_to 10752
  154.7778  135.3259  154.8003 H   0  0  0  0  0  0  0  0  0  0  0  0  # atno 10765 bound_to 10752
  141.0822  133.9200  157.2264 H   0  0  0  0  0  0  0  0  0  0  0  0  # atno 11005 bound_to 11000
  144.6987  139.8862  143.7450 LP  0  0  0  0  0  0  0  0  0  0  0  0  # atno 17320 bound_to 7965
  146.0855  139.3843  143.0438 LP  0  0  0  0  0  0  0  0  0  0  0  0  # atno 17321 bound_to 7965
  139.9117  143.6712  152.3114 LP  0  0  0  0  0  0  0  0  0  0  0  0  # atno 17342 bound_to 10162
  139.7098  144.7622  151.1132 LP  0  0  0  0  0  0  0  0  0  0  0  0  # atno 17343 bound_to 10162
  156.2260  130.3678  149.8500 LP  0  0  0  0  0  0  0  0  0  0  0  0  # atno 17370 bound_to 10713
  156.6340  130.8677  151.3501 LP  0  0  0  0  0  0  0  0  0  0  0  0  # atno 17371 bound_to 10713
  139.9637  135.0147  156.9329 LP  0  0  0  0  0  0  0  0  0  0  0  0  # atno 17394 bound_to 11000
  140.5443  134.0689  155.7350 LP  0  0  0  0  0  0  0  0  0  0  0  0  # atno 17395 bound_to 11000

$$$$
