AV-unprocessed.smi:2531|AV-procd|sdf|9966|dock2
  -GOLD-   2272014 03D 1   1.00000     0.00000
 Structure written by MMmdl.
 45 47  0  0  0  0  0  0  0  0  2 V2000
  149.9990  142.5860  158.3039 O   0  0  0  0  0  0  0  0  0  0  0  0
  151.0839  142.0310  158.4841 C   0  0  0  0  0  0  0  0  0  0  0  0
  152.3097  142.8376  158.9611 C   0  0  0  0  0  0  0  0  0  0  0  0
  152.8634  142.3326  160.3130 C   0  0  0  0  0  0  0  0  0  0  0  0
  152.5378  143.4028  161.3669 C   0  0  0  0  0  0  0  0  0  0  0  0
  151.5862  144.3896  160.6909 C   0  0  0  0  0  0  0  0  0  0  0  0
  151.9514  144.3123  159.2096 C   0  0  0  0  0  0  0  0  0  0  0  0
  151.2695  140.6793  158.1798 N   0  0  0  0  0  0  0  0  0  0  0  0
  150.4153  140.0104  157.2095 C   0  0  0  0  0  0  0  0  0  0  0  0
  151.6238  139.1121  156.9259 C   0  0  0  0  0  0  0  0  0  0  0  0
  151.9142  138.8546  155.1175 S   0  0  0  0  0  0  0  0  0  0  0  0
  150.7926  139.5267  154.4414 O   0  0  0  0  0  0  0  0  0  0  0  0
  153.2641  139.3600  154.8185 O   0  0  0  0  0  0  0  0  0  0  0  0
  151.8288  137.2363  155.0347 N   0  5  0  0  0  0  0  0  0  0  0  0
  150.5421  136.5730  155.1865 C   0  0  0  0  0  0  0  0  0  0  0  0
  150.6916  135.2423  155.9637 C   0  0  0  0  0  0  0  0  0  0  0  0
  150.1090  134.0075  155.2810 C   0  0  0  0  0  0  0  0  0  0  0  0
  150.2359  132.7321  155.8772 C   0  0  0  0  0  0  0  0  0  0  0  0
  149.6770  131.6207  155.2186 C   0  0  0  0  0  0  0  0  0  0  0  0
  149.0259  131.8192  153.9863 C   0  0  0  0  0  0  0  0  0  0  0  0
  148.9634  133.1266  153.4652 C   0  0  0  0  0  0  0  0  0  0  0  0
  149.4960  134.1999  154.0875 N   0  0  0  0  0  0  0  0  0  0  0  0
  152.5023  140.1872  157.5805 C   0  0  0  0  0  0  0  0  0  0  0  0
  153.0942  142.7673  158.2068 H   0  0  0  0  0  0  0  0  0  0  0  0
  152.4400  141.3693  160.6019 H   0  0  0  0  0  0  0  0  0  0  0  0
  153.9422  142.1859  160.2519 H   0  0  0  0  0  0  0  0  0  0  0  0
  152.1063  142.9755  162.2726 H   0  0  0  0  0  0  0  0  0  0  0  0
  153.4544  143.9191  161.6545 H   0  0  0  0  0  0  0  0  0  0  0  0
  150.5548  144.0653  160.8346 H   0  0  0  0  0  0  0  0  0  0  0  0
  151.6747  145.3996  161.0921 H   0  0  0  0  0  0  0  0  0  0  0  0
  152.8232  144.9369  159.0108 H   0  0  0  0  0  0  0  0  0  0  0  0
  151.1428  144.6771  158.5743 H   0  0  0  0  0  0  0  0  0  0  0  0
  149.5612  139.4953  157.6493 H   0  0  0  0  0  0  0  0  0  0  0  0
  150.1354  140.6439  156.3651 H   0  0  0  0  0  0  0  0  0  0  0  0
  151.5859  138.1662  157.4682 H   0  0  0  0  0  0  0  0  0  0  0  0
  149.8014  137.2022  155.6812 H   0  0  0  0  0  0  0  0  0  0  0  0
  150.1168  136.3461  154.2087 H   0  0  0  0  0  0  0  0  0  0  0  0
  151.7516  135.0580  156.1420 H   0  0  0  0  0  0  0  0  0  0  0  0
  150.2437  135.3433  156.9532 H   0  0  0  0  0  0  0  0  0  0  0  0
  150.7339  132.6126  156.8282 H   0  0  0  0  0  0  0  0  0  0  0  0
  149.7450  130.6342  155.6523 H   0  0  0  0  0  0  0  0  0  0  0  0
  148.5841  130.9904  153.4539 H   0  0  0  0  0  0  0  0  0  0  0  0
  148.4743  133.3152  152.5211 H   0  0  0  0  0  0  0  0  0  0  0  0
  152.9575  140.8903  156.8826 H   0  0  0  0  0  0  0  0  0  0  0  0
  153.2191  139.7982  158.3038 H   0  0  0  0  0  0  0  0  0  0  0  0
  1  2  2  0  0  0  0
  2  3  1  0  0  0  0
  2  8  1  0  0  0  0
  3  7  1  0  0  0  0
  3  4  1  0  0  0  0
  3 24  1  0  0  0  0
  4  5  1  0  0  0  0
  4 25  1  0  0  0  0
  4 26  1  0  0  0  0
  5  6  1  0  0  0  0
  5 27  1  0  0  0  0
  5 28  1  0  0  0  0
  6  7  1  0  0  0  0
  6 29  1  0  0  0  0
  6 30  1  0  0  0  0
  7 31  1  0  0  0  0
  7 32  1  0  0  0  0
  8 23  1  0  0  0  0
  8  9  1  0  0  0  0
  9 10  1  0  0  0  0
  9 33  1  0  0  0  0
  9 34  1  0  0  0  0
 10 11  1  0  0  0  0
 10 23  1  0  0  0  0
 10 35  1  0  0  0  0
 11 12  2  0  0  0  0
 11 13  2  0  0  0  0
 11 14  1  0  0  0  0
 14 15  1  0  0  0  0
 15 16  1  0  0  0  0
 15 36  1  0  0  0  0
 15 37  1  0  0  0  0
 16 17  1  0  0  0  0
 16 38  1  0  0  0  0
 16 39  1  0  0  0  0
 17 22  1  0  0  0  0
 17 18  2  0  0  0  0
 18 19  1  0  0  0  0
 18 40  1  0  0  0  0
 19 20  2  0  0  0  0
 19 41  1  0  0  0  0
 20 21  1  0  0  0  0
 20 42  1  0  0  0  0
 21 22  2  0  0  0  0
 21 43  1  0  0  0  0
 23 44  1  0  0  0  0
 23 45  1  0  0  0  0
M  CHG  1  14  -1
M  END
> <s_m_source_file>
AV-unprocessed.smi

> <i_m_source_file_index>
2531

> <i_lp_mmshare_version>
43012

> <i_f3d_flags>
0

> <s_epik_input>
W0NIMl0xW0NIMl1bQ0gyXVtDSDJdW0NIXTFDKD1PKU4yW0NIMl1bQ0hdKFtDSDJdMilTKD1PKSg9TylbTkhdW0NIMl1bQ0gyXWMzW2NIXVtjSF1bY0hdW2NIXW4z

> <s_epik_cmdline>
J2VwaWtfcHl0aG9uJywgJy1waCcsICc3LjAnLCAnLXRuJywgJzgnLCAnLW1hJywgJzIwMCcsICctbWV0YWxfYmluZGluZycsICctaW1hZScsICc8aW5maWxlLm1hZT4nLCAnLW9tYWUnLCAnPG91dGZpbGUubWFlPic=

> <r_epik_Ionization_Penalty>
5.87379

> <r_epik_Ionization_Penalty_Charging>
5.8024

> <r_epik_Ionization_Penalty_Neutral>
0.0713848

> <r_epik_State_Penalty>
5.81862

> <r_epik_Charging_Adjusted_Penalty>
11.621

> <i_epik_Tot_Q>
-1

> <i_epik_Tot_abs_Q>
1

> <r_epik_Metal_State_Penalty>
1.80653

> <b_epik_Metal_Only>
1

> <s_lp_Force_Field>
OPLS_2005

> <r_lp_Energy>
33.3625

> <b_lp_Chiralities_Consistent>
1

> <s_lp_Variant>
AV-unprocessed.smi:2531-3

> <Gold.Version>
5.8.1

> <Gold.Id.Protein>
6NUR|6NUR_protein|mol2

> <Gold.PLP.Fitness>
58.8908

> <Gold.PLP.PLP>
-48.0925

> <Gold.PLP.part.hbond>
-3.5673

> <Gold.PLP.part.metal>
0.0000

> <Gold.PLP.part.buried>
-6.5519

> <Gold.PLP.part.nonpolar>
-39.7369

> <Gold.PLP.part.repulsive>
1.2317

> <Gold.PLP.ligand.clash>
0.0000

> <Gold.PLP.ligand.torsion>
1.8645

> <Gold.PLP.Chemscore.Hbond>
3.9840

> <Gold.PLP.Chemscore.CHOScore>
0.0000

> <Gold.PLP.Chemscore.Metal>
0.0000

> <Gold.Chemscore.Hbonds>
donor molecule, donor type, donor heavy atom, donor atom, acceptor molecule, acceptor atom, score
      P1  H  7989  7998       L1    12  1.00
      P1  H  7997  8009       L1    13  1.00
      P1  H 10752 10764       L1    14  1.85

> <Gold.PLP.Chemscore.Internal.Correction>
2.5755

> <Gold.Rescore>
     Score         DG    S(hbond)    S(metal)    S(lipo)     H(rot)  DE(clash)    DE(int)     intcor
     20.68     -22.63       2.73        0.00     103.83       1.61       0.11       1.85       ----

> <Gold.Chemscore.Fitness>
20.6781

> <Gold.Chemscore.DG>
-22.6332

> <Gold.Chemscore.ZeroCoef>
-5.4800

> <Gold.Chemscore.Hbond>
2.7333

> <Gold.Chemscore.Metal>
0.0000

> <Gold.Chemscore.Lipo>
103.8325

> <Gold.Chemscore.Internal_Hbond>
0.0000

> <Gold.Chemscore.DEClash>
0.1068

> <Gold.Chemscore.DEInternal>
1.8483

> <Gold.Chemscore.Rot>
1.6110

> <Gold.Chemscore.Internal.Correction>
   9.000000E+99

> <Gold.Chemscore.Hbonds>
donor molecule, donor type, donor heavy atom, donor atom, acceptor molecule, acceptor atom, score
      P1  H  7989  7998       L1    12  0.40
      P1  H  7997  8009       L1    13  0.95
      P1  H 10752 10764       L1    14  0.19

> <Gold.Chemscore.Hbond.Weighted>
-9.1291

> <Gold.Chemscore.Metal.Weighted>
-0.0000

> <Gold.Chemscore.Lipo.Weighted>
-12.1484

> <Gold.Chemscore.Internal_Hbond.Weighted>
0.0000

> <Gold.Chemscore.DEClash.Weighted>
0.1068

> <Gold.Chemscore.DEInternal.Weighted>
1.8483

> <Gold.Chemscore.Rot.Weighted>
4.1243

> <Gold.Chemscore.Internal.Correction.Weighted>
   9.000000E+99

> <Gold.Protein.RotatedTorsions>
[ 6907 6896 6895 6894 ] final -139.23 input  -60.11 | X-H torsion
[ 7974 7965 7964 7962 ] final   56.07 input  175.53 | X-H torsion
[ 8008 7997 7996 7995 ] final -110.64 input   59.86 | X-H torsion
[ 10167 10162 10161 10158 ] final  120.14 input  -65.29 | X-H torsion
[ 10718 10713 10712 10709 ] final  -52.65 input   66.30 | X-H torsion
[ 10763 10752 10751 10750 ] final  -64.23 input  -60.55 | X-H torsion
[ 11005 11000 10999 10996 ] final -157.95 input  -57.11 | X-H torsion

> <Gold.Protein.ActiveResidues>
 VAL166  LYS551  ARG553  GLY616  TRP617  ASP618  TYR619  PRO620  LYS621  CYS622 
 ASP623  PHE694  ASN695  SER759  ASP760  ASP761  ALA762  ILE779  LEU786  VAL792 
 PHE793  MET794  SER795  GLU796  ALA797  LYS798  CYS799  TRP800  GLU811  SER814 

> <Gold.Protein.RotatedAtoms>
  151.0451  133.5672  159.2647 H   0  0  0  0  0  0  0  0  0  0  0  0  # atno 6907 bound_to 6896
  151.2704  135.0682  159.9141 H   0  0  0  0  0  0  0  0  0  0  0  0  # atno 6908 bound_to 6896
  152.5371  134.0183  159.8024 H   0  0  0  0  0  0  0  0  0  0  0  0  # atno 6909 bound_to 6896
  145.9437  139.3911  143.0348 H   0  0  0  0  0  0  0  0  0  0  0  0  # atno 7974 bound_to 7965
  154.9776  140.0396  157.2263 H   0  0  0  0  0  0  0  0  0  0  0  0  # atno 8008 bound_to 7997
  154.7744  140.2807  155.6090 H   0  0  0  0  0  0  0  0  0  0  0  0  # atno 8009 bound_to 7997
  156.2926  140.2604  156.2554 H   0  0  0  0  0  0  0  0  0  0  0  0  # atno 8010 bound_to 7997
  139.6001  144.7054  151.3083 H   0  0  0  0  0  0  0  0  0  0  0  0  # atno 10167 bound_to 10162
  156.1603  130.4150  149.9803 H   0  0  0  0  0  0  0  0  0  0  0  0  # atno 10718 bound_to 10713
  154.3269  135.6184  153.5533 H   0  0  0  0  0  0  0  0  0  0  0  0  # atno 10763 bound_to 10752
  152.9815  135.5737  154.5006 H   0  0  0  0  0  0  0  0  0  0  0  0  # atno 10764 bound_to 10752
  154.4685  135.2858  155.1637 H   0  0  0  0  0  0  0  0  0  0  0  0  # atno 10765 bound_to 10752
  140.6590  134.4370  157.5234 H   0  0  0  0  0  0  0  0  0  0  0  0  # atno 11005 bound_to 11000
  145.8265  140.9653  143.0871 LP  0  0  0  0  0  0  0  0  0  0  0  0  # atno 17320 bound_to 7965
  144.6783  140.0108  143.7484 LP  0  0  0  0  0  0  0  0  0  0  0  0  # atno 17321 bound_to 7965
  140.7243  143.7049  150.7815 LP  0  0  0  0  0  0  0  0  0  0  0  0  # atno 17342 bound_to 10162
  140.0623  143.5142  152.2621 LP  0  0  0  0  0  0  0  0  0  0  0  0  # atno 17343 bound_to 10162
  156.7634  130.9159  151.3642 LP  0  0  0  0  0  0  0  0  0  0  0  0  # atno 17370 bound_to 10713
  157.6727  130.9066  150.0078 LP  0  0  0  0  0  0  0  0  0  0  0  0  # atno 17371 bound_to 10713
  139.9019  134.8535  156.1859 LP  0  0  0  0  0  0  0  0  0  0  0  0  # atno 17394 bound_to 11000
  141.0480  133.6903  156.1718 LP  0  0  0  0  0  0  0  0  0  0  0  0  # atno 17395 bound_to 11000

$$$$
