AV-unprocessed.smi:1920|AV-procd|sdf|7781|dock9
  -GOLD-   22720 9523D 1   1.00000     0.00000
 Structure written by MMmdl.
 36 37  0  0  0  0  0  0  0  0  1 V2000
  151.9221  139.6137  155.7492 C   0  0  0  0  0  0  0  0  0  0  0  0
  150.6956  140.5391  155.8107 C   0  0  2  0  0  0  0  0  0  0  0  0
  149.9076  140.5860  154.4828 C   0  0  0  0  0  0  0  0  0  0  0  0
  148.5311  141.0073  154.6632 N   0  0  0  0  0  0  0  0  0  0  0  0
  147.5300  141.0248  153.7007 C   0  0  0  0  0  0  0  0  0  0  0  0
  146.3942  141.4912  154.3234 C   0  0  0  0  0  0  0  0  0  0  0  0
  146.6698  141.7581  155.6625 N   0  0  0  0  0  0  0  0  0  0  0  0
  147.9526  141.4442  155.7904 C   0  0  0  0  0  0  0  0  0  0  0  0
  151.1283  141.8805  156.1926 N   0  0  0  0  0  0  0  0  0  0  0  0
  150.9414  142.4445  157.3961 C   0  0  0  0  0  0  0  0  0  0  0  0
  150.3689  141.8779  158.3272 O   0  0  0  0  0  0  0  0  0  0  0  0
  151.4849  143.8660  157.5768 C   0  0  0  0  0  0  0  0  0  0  0  0
  152.5350  143.9882  158.7026 C   0  0  2  0  0  0  0  0  0  0  0  0
  153.0088  142.6569  159.2348 C   0  0  0  0  0  0  0  0  0  0  0  0
  152.8770  142.5543  160.5552 C   0  0  0  0  0  0  0  0  0  0  0  0
  152.2892  143.7922  161.1736 C   0  0  0  0  0  0  0  0  0  0  0  0
  151.9940  144.7083  159.9647 C   0  0  0  0  0  0  0  0  0  0  0  0
  151.6346  138.5798  155.5571 H   0  0  0  0  0  0  0  0  0  0  0  0
  152.4699  139.6256  156.6920 H   0  0  0  0  0  0  0  0  0  0  0  0
  152.6098  139.9198  154.9603 H   0  0  0  0  0  0  0  0  0  0  0  0
  150.0378  140.1566  156.5934 H   0  0  0  0  0  0  0  0  0  0  0  0
  150.3776  141.2757  153.7806 H   0  0  0  0  0  0  0  0  0  0  0  0
  149.9121  139.6047  154.0056 H   0  0  0  0  0  0  0  0  0  0  0  0
  147.7054  140.7150  152.6810 H   0  0  0  0  0  0  0  0  0  0  0  0
  145.4073  141.6515  153.9145 H   0  0  0  0  0  0  0  0  0  0  0  0
  148.4843  141.5377  156.7261 H   0  0  0  0  0  0  0  0  0  0  0  0
  151.6098  142.4205  155.4882 H   0  0  0  0  0  0  0  0  0  0  0  0
  151.9269  144.1779  156.6300 H   0  0  0  0  0  0  0  0  0  0  0  0
  150.6579  144.5514  157.7701 H   0  0  0  0  0  0  0  0  0  0  0  0
  153.4110  144.5236  158.3328 H   0  0  0  0  0  0  0  0  0  0  0  0
  153.4216  141.8916  158.5936 H   0  0  0  0  0  0  0  0  0  0  0  0
  153.1622  141.6957  161.1450 H   0  0  0  0  0  0  0  0  0  0  0  0
  151.3833  143.5498  161.7298 H   0  0  0  0  0  0  0  0  0  0  0  0
  153.0086  144.2442  161.8569 H   0  0  0  0  0  0  0  0  0  0  0  0
  152.4632  145.6848  160.0889 H   0  0  0  0  0  0  0  0  0  0  0  0
  150.9196  144.8810  159.8875 H   0  0  0  0  0  0  0  0  0  0  0  0
  1  2  1  0  0  0  0
  1 18  1  0  0  0  0
  1 19  1  0  0  0  0
  1 20  1  0  0  0  0
  2  3  1  0  0  0  0
  2  9  1  0  0  0  0
  2 21  1  0  0  0  0
  3  4  1  0  0  0  0
  3 22  1  0  0  0  0
  3 23  1  0  0  0  0
  4  8  1  0  0  0  0
  4  5  1  0  0  0  0
  5  6  2  0  0  0  0
  5 24  1  0  0  0  0
  6  7  1  0  0  0  0
  6 25  1  0  0  0  0
  7  8  2  0  0  0  0
  8 26  1  0  0  0  0
  9 10  1  0  0  0  0
  9 27  1  0  0  0  0
 10 11  2  0  0  0  0
 10 12  1  0  0  0  0
 12 13  1  0  0  0  0
 12 28  1  0  0  0  0
 12 29  1  0  0  0  0
 13 17  1  0  0  0  0
 13 14  1  0  0  0  0
 13 30  1  0  0  0  0
 14 15  2  0  0  0  0
 14 31  1  0  0  0  0
 15 16  1  0  0  0  0
 15 32  1  0  0  0  0
 16 17  1  0  0  0  0
 16 33  1  0  0  0  0
 16 34  1  0  0  0  0
 17 35  1  0  0  0  0
 17 36  1  0  0  0  0
M  END
> <s_m_source_file>
AV-unprocessed.smi

> <i_m_source_file_index>
1920

> <i_lp_mmshare_version>
43012

> <i_f3d_flags>
0

> <s_epik_input>
W2NIXTFuW2NIXVtjSF1uMVtDSDJdW0NAQEhdKFtDSDNdKVtOSF1DKD1PKVtDSDJdW0NAQEhdMltDSF09W0NIXVtDSDJdW0NIMl0y

> <s_epik_cmdline>
J2VwaWtfcHl0aG9uJywgJy1waCcsICc3LjAnLCAnLXRuJywgJzgnLCAnLW1hJywgJzIwMCcsICctbWV0YWxfYmluZGluZycsICctaW1hZScsICc8aW5maWxlLm1hZT4nLCAnLW9tYWUnLCAnPG91dGZpbGUubWFlPic=

> <r_lp_tautomer_probability>
1

> <r_epik_Ionization_Penalty>
0.635367

> <r_epik_Ionization_Penalty_Charging>
0.635367

> <r_epik_Ionization_Penalty_Neutral>
2.1249e-08

> <r_epik_State_Penalty>
0.65258

> <r_epik_Charging_Adjusted_Penalty>
1.28795

> <i_epik_Tot_Q>
0

> <i_epik_Tot_abs_Q>
0

> <r_epik_Metal_State_Penalty>
0.310403

> <b_epik_Metal_Only>
0

> <s_lp_Force_Field>
OPLS_2005

> <r_lp_Energy>
18.8766

> <b_lp_Chiralities_Consistent>
1

> <s_lp_Variant>
AV-unprocessed.smi:1920-5

> <Gold.Version>
5.8.1

> <Gold.Id.Protein>
6NUR|6NUR_protein|mol2

> <Gold.PLP.Fitness>
46.0340

> <Gold.PLP.PLP>
-42.4608

> <Gold.PLP.part.hbond>
0.0000

> <Gold.PLP.part.metal>
0.0000

> <Gold.PLP.part.buried>
-1.5812

> <Gold.PLP.part.nonpolar>
-42.0672

> <Gold.PLP.part.repulsive>
0.3085

> <Gold.PLP.ligand.clash>
0.0000

> <Gold.PLP.ligand.torsion>
1.0563

> <Gold.PLP.Chemscore.Hbond>
0.0000

> <Gold.PLP.Chemscore.CHOScore>
1.8772

> <Gold.PLP.Chemscore.Metal>
0.0000

> <Gold.Chemscore.Hbonds>
donor molecule, donor type, donor heavy atom, donor atom, acceptor molecule, acceptor atom, score
      L1  C     5    24       P1  7957  1.00
      L1  C     6    25       P1 10175  0.93

> <Gold.PLP.Chemscore.Internal.Correction>
0.0541

> <Gold.Rescore>
     Score         DG    S(hbond)    S(metal)    S(lipo)     H(rot)  DE(clash)    DE(int)     intcor
     12.69     -13.61       0.00        0.00     111.71       1.93       0.14       0.78       ----

> <Gold.Chemscore.Fitness>
12.6871

> <Gold.Chemscore.DG>
-13.6076

> <Gold.Chemscore.ZeroCoef>
-5.4800

> <Gold.Chemscore.Hbond>
0.0000

> <Gold.Chemscore.Metal>
0.0000

> <Gold.Chemscore.Lipo>
111.7100

> <Gold.Chemscore.Internal_Hbond>
0.0000

> <Gold.Chemscore.DEClash>
0.1413

> <Gold.Chemscore.DEInternal>
0.7793

> <Gold.Chemscore.Rot>
1.9306

> <Gold.Chemscore.Internal.Correction>
   9.000000E+99

> <Gold.Chemscore.Hbond.Weighted>
-0.0000

> <Gold.Chemscore.Metal.Weighted>
-0.0000

> <Gold.Chemscore.Lipo.Weighted>
-13.0701

> <Gold.Chemscore.Internal_Hbond.Weighted>
0.0000

> <Gold.Chemscore.DEClash.Weighted>
0.1413

> <Gold.Chemscore.DEInternal.Weighted>
0.7793

> <Gold.Chemscore.Rot.Weighted>
4.9424

> <Gold.Chemscore.Internal.Correction.Weighted>
   9.000000E+99

> <Gold.Protein.RotatedTorsions>
[ 6907 6896 6895 6894 ] final  -56.66 input  -60.11 | X-H torsion
[ 7974 7965 7964 7962 ] final -171.46 input  175.53 | X-H torsion
[ 8008 7997 7996 7995 ] final  -84.68 input   59.86 | X-H torsion
[ 10167 10162 10161 10158 ] final -137.86 input  -65.29 | X-H torsion
[ 10718 10713 10712 10709 ] final   95.28 input   66.30 | X-H torsion
[ 10763 10752 10751 10750 ] final  -35.25 input  -60.55 | X-H torsion
[ 11005 11000 10999 10996 ] final  134.34 input  -57.11 | X-H torsion

> <Gold.Protein.ActiveResidues>
 VAL166  LYS551  ARG553  GLY616  TRP617  ASP618  TYR619  PRO620  LYS621  CYS622 
 ASP623  PHE694  ASN695  SER759  ASP760  ASP761  ALA762  ILE779  LEU786  VAL792 
 PHE793  MET794  SER795  GLU796  ALA797  LYS798  CYS799  TRP800  GLU811  SER814 

> <Gold.Protein.RotatedAtoms>
  150.8149  134.7325  159.6720 H   0  0  0  0  0  0  0  0  0  0  0  0  # atno 6907 bound_to 6896
  152.4268  134.5850  159.9968 H   0  0  0  0  0  0  0  0  0  0  0  0  # atno 6908 bound_to 6896
  151.6049  133.3315  159.3091 H   0  0  0  0  0  0  0  0  0  0  0  0  # atno 6909 bound_to 6896
  144.7157  140.1919  143.6347 H   0  0  0  0  0  0  0  0  0  0  0  0  # atno 7974 bound_to 7965
  154.6324  140.0602  156.9748 H   0  0  0  0  0  0  0  0  0  0  0  0  # atno 8008 bound_to 7997
  155.1644  140.3285  155.4386 H   0  0  0  0  0  0  0  0  0  0  0  0  # atno 8009 bound_to 7997
  156.2490  140.1925  156.6750 H   0  0  0  0  0  0  0  0  0  0  0  0  # atno 8010 bound_to 7997
  139.8536  143.7167  152.2656 H   0  0  0  0  0  0  0  0  0  0  0  0  # atno 10167 bound_to 10162
  157.6940  131.0540  150.4315 H   0  0  0  0  0  0  0  0  0  0  0  0  # atno 10718 bound_to 10713
  153.8602  135.6841  153.4783 H   0  0  0  0  0  0  0  0  0  0  0  0  # atno 10763 bound_to 10752
  153.1346  135.4683  154.9401 H   0  0  0  0  0  0  0  0  0  0  0  0  # atno 10764 bound_to 10752
  154.7762  135.3254  154.8036 H   0  0  0  0  0  0  0  0  0  0  0  0  # atno 10765 bound_to 10752
  139.9908  134.9515  156.9852 H   0  0  0  0  0  0  0  0  0  0  0  0  # atno 11005 bound_to 11000
  145.8761  139.2297  143.1633 LP  0  0  0  0  0  0  0  0  0  0  0  0  # atno 17320 bound_to 7965
  146.0039  140.8495  143.0004 LP  0  0  0  0  0  0  0  0  0  0  0  0  # atno 17321 bound_to 7965
  139.7442  144.7551  151.0606 LP  0  0  0  0  0  0  0  0  0  0  0  0  # atno 17342 bound_to 10162
  140.7784  143.4937  150.9861 LP  0  0  0  0  0  0  0  0  0  0  0  0  # atno 17343 bound_to 10162
  156.4681  130.4046  149.6535 LP  0  0  0  0  0  0  0  0  0  0  0  0  # atno 17370 bound_to 10713
  156.3625  130.7489  151.2463 LP  0  0  0  0  0  0  0  0  0  0  0  0  # atno 17371 bound_to 10713
  140.4912  134.1192  155.7233 LP  0  0  0  0  0  0  0  0  0  0  0  0  # atno 17394 bound_to 11000
  141.1564  133.8874  157.1965 LP  0  0  0  0  0  0  0  0  0  0  0  0  # atno 17395 bound_to 11000

$$$$
