AV-unprocessed.smi:2531|AV-procd|sdf|9967|dock2
  -GOLD-   2272014 13D 1   1.00000     0.00000
 Structure written by MMmdl.
 46 48  0  0  0  0  0  0  0  0  3 V2000
  153.6410  141.0291  159.9285 O   0  0  0  0  0  0  0  0  0  0  0  0
  152.5719  140.8955  159.3312 C   0  0  0  0  0  0  0  0  0  0  0  0
  151.5436  142.0448  159.2940 C   0  0  0  0  0  0  0  0  0  0  0  0
  151.3449  142.6186  157.8716 C   0  0  0  0  0  0  0  0  0  0  0  0
  151.8792  144.0588  157.8864 C   0  0  0  0  0  0  0  0  0  0  0  0
  152.6983  144.1865  159.1695 C   0  0  0  0  0  0  0  0  0  0  0  0
  152.0062  143.2389  160.1475 C   0  0  0  0  0  0  0  0  0  0  0  0
  152.2099  139.6775  158.7479 N   0  0  0  0  0  0  0  0  0  0  0  0
  151.2399  139.6267  157.6635 C   0  0  0  0  0  0  0  0  0  0  0  0
  151.9928  138.3768  157.1935 C   0  0  0  0  0  0  0  0  0  0  0  0
  152.3126  138.3704  155.3727 S   0  0  0  0  0  0  0  0  0  0  0  0
  151.8988  137.0392  154.8997 O   0  0  0  0  0  0  0  0  0  0  0  0
  151.5963  139.5258  154.8078 O   0  0  0  0  0  0  0  0  0  0  0  0
  153.9236  138.5654  155.3548 N   0  5  0  0  0  0  0  0  0  0  0  0
  154.7050  138.0884  154.2253 C   0  0  0  0  0  0  0  0  0  0  0  0
  156.2170  138.1139  154.5444 C   0  0  0  0  0  0  0  0  0  0  0  0
  157.0466  137.1807  153.6728 C   0  0  0  0  0  0  0  0  0  0  0  0
  156.5450  136.6335  152.4697 C   0  0  0  0  0  0  0  0  0  0  0  0
  157.3597  135.7671  151.7114 C   0  0  0  0  0  0  0  0  0  0  0  0
  158.6572  135.4603  152.1709 C   0  0  0  0  0  0  0  0  0  0  0  0
  159.1080  136.0278  153.3798 C   0  0  0  0  0  0  0  0  0  0  0  0
  158.2982  136.8536  154.0780 N   0  3  0  0  0  0  0  0  0  0  0  0
  153.1778  138.8423  158.0507 C   0  0  0  0  0  0  0  0  0  0  0  0
  150.5855  141.6779  159.6637 H   0  0  0  0  0  0  0  0  0  0  0  0
  151.8641  142.0315  157.1126 H   0  0  0  0  0  0  0  0  0  0  0  0
  150.2900  142.6105  157.5952 H   0  0  0  0  0  0  0  0  0  0  0  0
  152.4656  144.2948  156.9977 H   0  0  0  0  0  0  0  0  0  0  0  0
  151.0412  144.7565  157.9203 H   0  0  0  0  0  0  0  0  0  0  0  0
  153.7211  143.8518  158.9911 H   0  0  0  0  0  0  0  0  0  0  0  0
  152.7431  145.2115  159.5385 H   0  0  0  0  0  0  0  0  0  0  0  0
  151.1372  143.7313  160.5855 H   0  0  0  0  0  0  0  0  0  0  0  0
  152.6642  142.9571  160.9712 H   0  0  0  0  0  0  0  0  0  0  0  0
  150.2165  139.4429  157.9912 H   0  0  0  0  0  0  0  0  0  0  0  0
  151.3150  140.4685  156.9717 H   0  0  0  0  0  0  0  0  0  0  0  0
  151.5322  137.4463  157.5287 H   0  0  0  0  0  0  0  0  0  0  0  0
  154.4262  137.0654  153.9708 H   0  0  0  0  0  0  0  0  0  0  0  0
  154.5168  138.6731  153.3242 H   0  0  0  0  0  0  0  0  0  0  0  0
  156.6147  139.1211  154.4208 H   0  0  0  0  0  0  0  0  0  0  0  0
  156.3798  137.8505  155.5905 H   0  0  0  0  0  0  0  0  0  0  0  0
  155.5485  136.8777  152.1310 H   0  0  0  0  0  0  0  0  0  0  0  0
  156.9927  135.3424  150.7885 H   0  0  0  0  0  0  0  0  0  0  0  0
  159.2964  134.7988  151.6045 H   0  0  0  0  0  0  0  0  0  0  0  0
  160.0838  135.8483  153.8070 H   0  0  0  0  0  0  0  0  0  0  0  0
  153.9332  139.4120  157.5082 H   0  0  0  0  0  0  0  0  0  0  0  0
  153.6146  138.0595  158.6713 H   0  0  0  0  0  0  0  0  0  0  0  0
  158.6447  137.2538  154.9506 H   0  0  0  0  0  0  0  0  0  0  0  0
  1  2  2  0  0  0  0
  2  3  1  0  0  0  0
  2  8  1  0  0  0  0
  3  7  1  0  0  0  0
  3  4  1  0  0  0  0
  3 24  1  0  0  0  0
  4  5  1  0  0  0  0
  4 25  1  0  0  0  0
  4 26  1  0  0  0  0
  5  6  1  0  0  0  0
  5 27  1  0  0  0  0
  5 28  1  0  0  0  0
  6  7  1  0  0  0  0
  6 29  1  0  0  0  0
  6 30  1  0  0  0  0
  7 31  1  0  0  0  0
  7 32  1  0  0  0  0
  8 23  1  0  0  0  0
  8  9  1  0  0  0  0
  9 10  1  0  0  0  0
  9 33  1  0  0  0  0
  9 34  1  0  0  0  0
 10 11  1  0  0  0  0
 10 23  1  0  0  0  0
 10 35  1  0  0  0  0
 11 12  2  0  0  0  0
 11 13  2  0  0  0  0
 11 14  1  0  0  0  0
 14 15  1  0  0  0  0
 15 16  1  0  0  0  0
 15 36  1  0  0  0  0
 15 37  1  0  0  0  0
 16 17  1  0  0  0  0
 16 38  1  0  0  0  0
 16 39  1  0  0  0  0
 17 22  1  0  0  0  0
 17 18  2  0  0  0  0
 18 19  1  0  0  0  0
 18 40  1  0  0  0  0
 19 20  2  0  0  0  0
 19 41  1  0  0  0  0
 20 21  1  0  0  0  0
 20 42  1  0  0  0  0
 21 22  2  0  0  0  0
 21 43  1  0  0  0  0
 22 46  1  0  0  0  0
 23 44  1  0  0  0  0
 23 45  1  0  0  0  0
M  CHG  1  14  -1
M  CHG  1  22   1
M  END
> <s_m_source_file>
AV-unprocessed.smi

> <i_m_source_file_index>
2531

> <i_lp_mmshare_version>
43012

> <i_f3d_flags>
0

> <s_epik_input>
W0NIMl0xW0NIMl1bQ0gyXVtDSDJdW0NIXTFDKD1PKU4yW0NIMl1bQ0hdKFtDSDJdMilTKD1PKSg9TylbTkhdW0NIMl1bQ0gyXWMzW2NIXVtjSF1bY0hdW2NIXW4z

> <s_epik_cmdline>
J2VwaWtfcHl0aG9uJywgJy1waCcsICc3LjAnLCAnLXRuJywgJzgnLCAnLW1hJywgJzIwMCcsICctbWV0YWxfYmluZGluZycsICctaW1hZScsICc8aW5maWxlLm1hZT4nLCAnLW9tYWUnLCAnPG91dGZpbGUubWFlPic=

> <r_epik_Ionization_Penalty>
6.66855

> <r_epik_Ionization_Penalty_Charging>
6.66855

> <r_epik_Ionization_Penalty_Neutral>
2.37876e-07

> <r_epik_State_Penalty>
7.51815

> <r_epik_Charging_Adjusted_Penalty>
14.1867

> <i_epik_Tot_Q>
0

> <i_epik_Tot_abs_Q>
2

> <r_epik_Metal_State_Penalty>
3.5378

> <b_epik_Metal_Only>
1

> <s_lp_Force_Field>
OPLS_2005

> <r_lp_Energy>
33.2094

> <b_lp_Chiralities_Consistent>
1

> <s_lp_Variant>
AV-unprocessed.smi:2531-4

> <Gold.Version>
5.8.1

> <Gold.Id.Protein>
6NUR|6NUR_protein|mol2

> <Gold.PLP.Fitness>
53.3734

> <Gold.PLP.PLP>
-43.9736

> <Gold.PLP.part.hbond>
-2.9188

> <Gold.PLP.part.metal>
0.0000

> <Gold.PLP.part.buried>
-1.5254

> <Gold.PLP.part.nonpolar>
-39.9965

> <Gold.PLP.part.repulsive>
0.2265

> <Gold.PLP.ligand.clash>
0.0000

> <Gold.PLP.ligand.torsion>
1.8541

> <Gold.PLP.Chemscore.Hbond>
3.4960

> <Gold.PLP.Chemscore.CHOScore>
0.0000

> <Gold.PLP.Chemscore.Metal>
0.0000

> <Gold.Chemscore.Hbonds>
donor molecule, donor type, donor heavy atom, donor atom, acceptor molecule, acceptor atom, score
      P1  H  7989  7998       L1    13  1.00
      P1  H  7997  8010       L1    14  1.34
      P1  H 10752 10765       L1    12  0.93

> <Gold.PLP.Chemscore.Internal.Correction>
2.6200

> <Gold.Rescore>
     Score         DG    S(hbond)    S(metal)    S(lipo)     H(rot)  DE(clash)    DE(int)     intcor
     23.33     -26.54       2.56        0.00     144.55       1.72       0.33       2.88       ----

> <Gold.Chemscore.Fitness>
23.3323

> <Gold.Chemscore.DG>
-26.5425

> <Gold.Chemscore.ZeroCoef>
-5.4800

> <Gold.Chemscore.Hbond>
2.5576

> <Gold.Chemscore.Metal>
0.0000

> <Gold.Chemscore.Lipo>
144.5526

> <Gold.Chemscore.Internal_Hbond>
0.0000

> <Gold.Chemscore.DEClash>
0.3281

> <Gold.Chemscore.DEInternal>
2.8821

> <Gold.Chemscore.Rot>
1.7158

> <Gold.Chemscore.Internal.Correction>
   9.000000E+99

> <Gold.Chemscore.Hbonds>
donor molecule, donor type, donor heavy atom, donor atom, acceptor molecule, acceptor atom, score
      P1  H  7989  7998       L1    13  0.99
      P1  H  7997  8010       L1    14  0.47
      P1  H 10752 10765       L1    12  0.91

> <Gold.Chemscore.Hbond.Weighted>
-8.5422

> <Gold.Chemscore.Metal.Weighted>
-0.0000

> <Gold.Chemscore.Lipo.Weighted>
-16.9127

> <Gold.Chemscore.Internal_Hbond.Weighted>
0.0000

> <Gold.Chemscore.DEClash.Weighted>
0.3281

> <Gold.Chemscore.DEInternal.Weighted>
2.8821

> <Gold.Chemscore.Rot.Weighted>
4.3924

> <Gold.Chemscore.Internal.Correction.Weighted>
   9.000000E+99

> <Gold.Protein.RotatedTorsions>
[ 6907 6896 6895 6894 ] final   11.01 input  -60.11 | X-H torsion
[ 7974 7965 7964 7962 ] final  -96.56 input  175.53 | X-H torsion
[ 8008 7997 7996 7995 ] final  104.61 input   59.86 | X-H torsion
[ 10167 10162 10161 10158 ] final    7.47 input  -65.29 | X-H torsion
[ 10718 10713 10712 10709 ] final  -47.42 input   66.30 | X-H torsion
[ 10763 10752 10751 10750 ] final  162.06 input  -60.55 | X-H torsion
[ 11005 11000 10999 10996 ] final  -40.76 input  -57.11 | X-H torsion

> <Gold.Protein.ActiveResidues>
 VAL166  LYS551  ARG553  GLY616  TRP617  ASP618  TYR619  PRO620  LYS621  CYS622 
 ASP623  PHE694  ASN695  SER759  ASP760  ASP761  ALA762  ILE779  LEU786  VAL792 
 PHE793  MET794  SER795  GLU796  ALA797  LYS798  CYS799  TRP800  GLU811  SER814 

> <Gold.Protein.RotatedAtoms>
  151.7474  135.0840  160.0325 H   0  0  0  0  0  0  0  0  0  0  0  0  # atno 6907 bound_to 6896
  152.3439  133.6095  159.5904 H   0  0  0  0  0  0  0  0  0  0  0  0  # atno 6908 bound_to 6896
  150.7496  133.9595  159.3553 H   0  0  0  0  0  0  0  0  0  0  0  0  # atno 6909 bound_to 6896
  145.3453  140.9467  143.2585 H   0  0  0  0  0  0  0  0  0  0  0  0  # atno 7974 bound_to 7965
  156.1588  140.3145  155.8772 H   0  0  0  0  0  0  0  0  0  0  0  0  # atno 8008 bound_to 7997
  155.3824  140.0488  157.3060 H   0  0  0  0  0  0  0  0  0  0  0  0  # atno 8009 bound_to 7997
  154.5127  140.2170  155.9137 H   0  0  0  0  0  0  0  0  0  0  0  0  # atno 8010 bound_to 7997
  140.6370  143.7864  150.7373 H   0  0  0  0  0  0  0  0  0  0  0  0  # atno 10167 bound_to 10162
  156.2086  130.4159  149.9145 H   0  0  0  0  0  0  0  0  0  0  0  0  # atno 10718 bound_to 10713
  154.2725  135.2765  155.2732 H   0  0  0  0  0  0  0  0  0  0  0  0  # atno 10763 bound_to 10752
  154.5289  135.5735  153.6745 H   0  0  0  0  0  0  0  0  0  0  0  0  # atno 10764 bound_to 10752
  152.9942  135.6223  154.2881 H   0  0  0  0  0  0  0  0  0  0  0  0  # atno 10765 bound_to 10752
  141.0198  133.6868  156.2365 H   0  0  0  0  0  0  0  0  0  0  0  0  # atno 11005 bound_to 11000
  144.8759  139.4972  143.6746 LP  0  0  0  0  0  0  0  0  0  0  0  0  # atno 17320 bound_to 7965
  146.2990  139.7368  142.9105 LP  0  0  0  0  0  0  0  0  0  0  0  0  # atno 17321 bound_to 7965
  140.1487  143.4377  152.2145 LP  0  0  0  0  0  0  0  0  0  0  0  0  # atno 17342 bound_to 10162
  139.5580  144.7386  151.4238 LP  0  0  0  0  0  0  0  0  0  0  0  0  # atno 17343 bound_to 10162
  156.6830  130.8866  151.3578 LP  0  0  0  0  0  0  0  0  0  0  0  0  # atno 17370 bound_to 10713
  157.7026  130.9350  150.0832 LP  0  0  0  0  0  0  0  0  0  0  0  0  # atno 17371 bound_to 10713
  140.6593  134.4985  157.5582 LP  0  0  0  0  0  0  0  0  0  0  0  0  # atno 17394 bound_to 11000
  139.9139  134.8287  156.1433 LP  0  0  0  0  0  0  0  0  0  0  0  0  # atno 17395 bound_to 11000

$$$$
