AV-unprocessed.smi:2319|AV-procd|sdf|9278|dock10
  -GOLD-   2272012503D 1   1.00000     0.00000
 Structure written by MMmdl.
 46 47  0  0  0  0  0  0  0  0  1 V2000
  149.1202  140.8081  154.2779 C   0  0  0  0  0  0  0  0  0  0  0  0
  149.4212  139.3850  154.7595 C   0  0  0  0  0  0  0  0  0  0  0  0
  150.5422  139.3252  155.7443 C   0  0  0  0  0  0  0  0  0  0  0  0
  151.7534  139.7845  155.3333 O   0  0  0  0  0  0  0  0  0  0  0  0
  152.6702  139.6567  156.3881 N   0  0  0  0  0  0  0  0  0  0  0  0
  152.0066  139.1320  157.4078 C   0  0  0  0  0  0  0  0  0  0  0  0
  152.7183  138.9316  158.7166 C   0  0  0  0  0  0  0  0  0  0  0  0
  150.6551  138.8813  157.0287 C   0  0  0  0  0  0  0  0  0  0  0  0
  149.5864  138.3568  157.7973 N   0  0  0  0  0  0  0  0  0  0  0  0
  149.6478  137.3362  158.6654 C   0  0  0  0  0  0  0  0  0  0  0  0
  150.6625  136.6879  158.9188 O   0  0  0  0  0  0  0  0  0  0  0  0
  148.4486  137.0847  159.2073 N   0  0  0  0  0  0  0  0  0  0  0  0
  148.1608  136.0013  160.1451 C   0  0  1  0  0  0  0  0  0  0  0  0
  147.2681  136.4655  161.2788 C   0  0  0  0  0  0  0  0  0  0  0  0
  146.6115  135.1653  161.7597 C   0  0  0  0  0  0  0  0  0  0  0  0
  147.4303  134.4843  162.8696 C   0  0  0  0  0  0  0  0  0  0  0  0
  145.1550  135.3767  162.2010 C   0  0  0  0  0  0  0  0  0  0  0  0
  146.6210  134.2928  160.6305 O   0  0  0  0  0  0  0  0  0  0  0  0
  147.3424  134.8452  159.5304 C   0  0  0  0  0  0  0  0  0  0  0  0
  146.2890  135.2922  158.4948 C   0  0  0  0  0  0  0  0  0  0  0  0
  148.2376  133.7387  158.9507 C   0  0  0  0  0  0  0  0  0  0  0  0
  148.3024  140.8106  153.5573 H   0  0  0  0  0  0  0  0  0  0  0  0
  149.9916  141.2521  153.7956 H   0  0  0  0  0  0  0  0  0  0  0  0
  148.8326  141.4528  155.1094 H   0  0  0  0  0  0  0  0  0  0  0  0
  148.5247  138.9579  155.2098 H   0  0  0  0  0  0  0  0  0  0  0  0
  149.6566  138.7577  153.8995 H   0  0  0  0  0  0  0  0  0  0  0  0
  152.0461  139.0904  159.5599 H   0  0  0  0  0  0  0  0  0  0  0  0
  153.5507  139.6270  158.8293 H   0  0  0  0  0  0  0  0  0  0  0  0
  153.1209  137.9215  158.7921 H   0  0  0  0  0  0  0  0  0  0  0  0
  148.6687  138.7216  157.5887 H   0  0  0  0  0  0  0  0  0  0  0  0
  147.6713  137.6684  158.9361 H   0  0  0  0  0  0  0  0  0  0  0  0
  149.0862  135.6177  160.5798 H   0  0  0  0  0  0  0  0  0  0  0  0
  147.8169  136.9859  162.0647 H   0  0  0  0  0  0  0  0  0  0  0  0
  146.5114  137.1541  160.8994 H   0  0  0  0  0  0  0  0  0  0  0  0
  147.4758  135.1058  163.7642 H   0  0  0  0  0  0  0  0  0  0  0  0
  148.4538  134.2883  162.5490 H   0  0  0  0  0  0  0  0  0  0  0  0
  146.9887  133.5283  163.1527 H   0  0  0  0  0  0  0  0  0  0  0  0
  145.0955  136.0556  163.0522 H   0  0  0  0  0  0  0  0  0  0  0  0
  144.6914  134.4343  162.4937 H   0  0  0  0  0  0  0  0  0  0  0  0
  144.5548  135.7994  161.3944 H   0  0  0  0  0  0  0  0  0  0  0  0
  146.7549  135.6920  157.5936 H   0  0  0  0  0  0  0  0  0  0  0  0
  145.6284  136.0603  158.8973 H   0  0  0  0  0  0  0  0  0  0  0  0
  145.6626  134.4534  158.1904 H   0  0  0  0  0  0  0  0  0  0  0  0
  148.8160  134.1018  158.1010 H   0  0  0  0  0  0  0  0  0  0  0  0
  147.6438  132.8911  158.6077 H   0  0  0  0  0  0  0  0  0  0  0  0
  148.9399  133.3664  159.6969 H   0  0  0  0  0  0  0  0  0  0  0  0
  1  2  1  0  0  0  0
  1 22  1  0  0  0  0
  1 23  1  0  0  0  0
  1 24  1  0  0  0  0
  2  3  1  0  0  0  0
  2 25  1  0  0  0  0
  2 26  1  0  0  0  0
  3  8  2  0  0  0  0
  3  4  1  0  0  0  0
  4  5  1  0  0  0  0
  5  6  2  0  0  0  0
  6  7  1  0  0  0  0
  6  8  1  0  0  0  0
  7 27  1  0  0  0  0
  7 28  1  0  0  0  0
  7 29  1  0  0  0  0
  8  9  1  0  0  0  0
  9 10  1  0  0  0  0
  9 30  1  0  0  0  0
 10 11  2  0  0  0  0
 10 12  1  0  0  0  0
 12 13  1  0  0  0  0
 12 31  1  0  0  0  0
 13 19  1  0  0  0  0
 13 14  1  0  0  0  0
 13 32  1  0  0  0  0
 14 15  1  0  0  0  0
 14 33  1  0  0  0  0
 14 34  1  0  0  0  0
 15 16  1  0  0  0  0
 15 17  1  0  0  0  0
 15 18  1  0  0  0  0
 16 35  1  0  0  0  0
 16 36  1  0  0  0  0
 16 37  1  0  0  0  0
 17 38  1  0  0  0  0
 17 39  1  0  0  0  0
 17 40  1  0  0  0  0
 18 19  1  0  0  0  0
 19 20  1  0  0  0  0
 19 21  1  0  0  0  0
 20 41  1  0  0  0  0
 20 42  1  0  0  0  0
 20 43  1  0  0  0  0
 21 44  1  0  0  0  0
 21 45  1  0  0  0  0
 21 46  1  0  0  0  0
M  END
> <s_m_source_file>
AV-unprocessed.smi

> <i_m_source_file_index>
2319

> <i_lp_mmshare_version>
43012

> <i_f3d_flags>
0

> <s_epik_input>
W0NIM11bQ0gyXWMxb25jKFtDSDNdKWMxW05IXUMoPU8pW05IXVtDQEBIXShDKE8yKShbQ0gzXSlbQ0gzXSlbQ0gyXUMyKFtDSDNdKVtDSDNd

> <s_epik_cmdline>
J2VwaWtfcHl0aG9uJywgJy1waCcsICc3LjAnLCAnLXRuJywgJzgnLCAnLW1hJywgJzIwMCcsICctbWV0YWxfYmluZGluZycsICctaW1hZScsICc8aW5maWxlLm1hZT4nLCAnLW9tYWUnLCAnPG91dGZpbGUubWFlPic=

> <r_lp_tautomer_probability>
1

> <r_epik_Ionization_Penalty>
3.17207e-05

> <r_epik_Ionization_Penalty_Charging>
0

> <r_epik_Ionization_Penalty_Neutral>
3.17207e-05

> <r_epik_State_Penalty>
-0

> <r_epik_Charging_Adjusted_Penalty>
0

> <i_epik_Tot_Q>
0

> <i_epik_Tot_abs_Q>
0

> <r_epik_Metal_State_Penalty>
-0

> <b_epik_Metal_Only>
0

> <s_lp_Force_Field>
OPLS_2005

> <r_lp_Energy>
19.7342

> <b_lp_Chiralities_Consistent>
1

> <s_lp_Variant>
AV-unprocessed.smi:2319-2

> <Gold.Version>
5.8.1

> <Gold.Id.Protein>
6NUR|6NUR_protein|mol2

> <Gold.PLP.Fitness>
37.9595

> <Gold.PLP.PLP>
-29.7013

> <Gold.PLP.part.hbond>
-3.0000

> <Gold.PLP.part.metal>
0.0000

> <Gold.PLP.part.buried>
-5.4467

> <Gold.PLP.part.nonpolar>
-22.4378

> <Gold.PLP.part.repulsive>
0.2893

> <Gold.PLP.ligand.clash>
0.0000

> <Gold.PLP.ligand.torsion>
0.4959

> <Gold.PLP.Chemscore.Hbond>
2.9920

> <Gold.PLP.Chemscore.CHOScore>
0.0000

> <Gold.PLP.Chemscore.Metal>
0.0000

> <Gold.Chemscore.Hbonds>
donor molecule, donor type, donor heavy atom, donor atom, acceptor molecule, acceptor atom, score
      P1  H  6896  6908       L1    11  1.00
      P1  H  7989  7998       L1     4  0.76
      P1  H  7997  8008       L1     5  1.00

> <Gold.PLP.Chemscore.Internal.Correction>
0.2740

> <Gold.Rescore>
     Score         DG    S(hbond)    S(metal)    S(lipo)     H(rot)  DE(clash)    DE(int)     intcor
     20.41     -20.91       2.86        0.00      75.66       1.16       0.01       0.49       ----

> <Gold.Chemscore.Fitness>
20.4069

> <Gold.Chemscore.DG>
-20.9105

> <Gold.Chemscore.ZeroCoef>
-5.4800

> <Gold.Chemscore.Hbond>
2.8578

> <Gold.Chemscore.Metal>
0.0000

> <Gold.Chemscore.Lipo>
75.6636

> <Gold.Chemscore.Internal_Hbond>
0.0000

> <Gold.Chemscore.DEClash>
0.0135

> <Gold.Chemscore.DEInternal>
0.4901

> <Gold.Chemscore.Rot>
1.1590

> <Gold.Chemscore.Internal.Correction>
   9.000000E+99

> <Gold.Chemscore.Hbonds>
donor molecule, donor type, donor heavy atom, donor atom, acceptor molecule, acceptor atom, score
      P1  H  6896  6908       L1    11  0.97
      P1  H  7989  7998       L1     4  0.60
      P1  H  7997  8008       L1     5  0.96

> <Gold.Chemscore.Hbond.Weighted>
-9.5450

> <Gold.Chemscore.Metal.Weighted>
-0.0000

> <Gold.Chemscore.Lipo.Weighted>
-8.8526

> <Gold.Chemscore.Internal_Hbond.Weighted>
0.0000

> <Gold.Chemscore.DEClash.Weighted>
0.0135

> <Gold.Chemscore.DEInternal.Weighted>
0.4901

> <Gold.Chemscore.Rot.Weighted>
2.9671

> <Gold.Chemscore.Internal.Correction.Weighted>
   9.000000E+99

> <Gold.Protein.RotatedTorsions>
[ 6907 6896 6895 6894 ] final -158.61 input  -60.11 | X-H torsion
[ 7974 7965 7964 7962 ] final -149.73 input  175.53 | X-H torsion
[ 8008 7997 7996 7995 ] final  -30.51 input   59.86 | X-H torsion
[ 10167 10162 10161 10158 ] final  -37.56 input  -65.29 | X-H torsion
[ 10718 10713 10712 10709 ] final  162.25 input   66.30 | X-H torsion
[ 10763 10752 10751 10750 ] final   18.69 input  -60.55 | X-H torsion
[ 11005 11000 10999 10996 ] final  149.50 input  -57.11 | X-H torsion

> <Gold.Protein.ActiveResidues>
 VAL166  LYS551  ARG553  GLY616  TRP617  ASP618  TYR619  PRO620  LYS621  CYS622 
 ASP623  PHE694  ASN695  SER759  ASP760  ASP761  ALA762  ILE779  LEU786  VAL792 
 PHE793  MET794  SER795  GLU796  ALA797  LYS798  CYS799  TRP800  GLU811  SER814 

> <Gold.Protein.RotatedAtoms>
  151.3208  133.4041  159.2654 H   0  0  0  0  0  0  0  0  0  0  0  0  # atno 6907 bound_to 6896
  151.0036  134.9342  159.7978 H   0  0  0  0  0  0  0  0  0  0  0  0  # atno 6908 bound_to 6896
  152.5282  134.3173  159.9188 H   0  0  0  0  0  0  0  0  0  0  0  0  # atno 6909 bound_to 6896
  144.7950  140.5026  143.5746 H   0  0  0  0  0  0  0  0  0  0  0  0  # atno 7974 bound_to 7965
  154.4248  140.1789  156.1418 H   0  0  0  0  0  0  0  0  0  0  0  0  # atno 8008 bound_to 7997
  155.9985  140.3362  155.6798 H   0  0  0  0  0  0  0  0  0  0  0  0  # atno 8009 bound_to 7997
  155.6275  140.0666  157.2650 H   0  0  0  0  0  0  0  0  0  0  0  0  # atno 8010 bound_to 7997
  140.7115  143.3334  151.2518 H   0  0  0  0  0  0  0  0  0  0  0  0  # atno 10167 bound_to 10162
  157.1252  131.0502  151.2397 H   0  0  0  0  0  0  0  0  0  0  0  0  # atno 10718 bound_to 10713
  153.1227  135.6723  153.9308 H   0  0  0  0  0  0  0  0  0  0  0  0  # atno 10763 bound_to 10752
  153.8818  135.3057  155.3446 H   0  0  0  0  0  0  0  0  0  0  0  0  # atno 10764 bound_to 10752
  154.7637  135.4975  153.9592 H   0  0  0  0  0  0  0  0  0  0  0  0  # atno 10765 bound_to 10752
  140.1050  134.8959  157.1853 H   0  0  0  0  0  0  0  0  0  0  0  0  # atno 11005 bound_to 11000
  145.5697  139.1483  143.3295 LP  0  0  0  0  0  0  0  0  0  0  0  0  # atno 17320 bound_to 7965
  146.2215  140.5831  142.9015 LP  0  0  0  0  0  0  0  0  0  0  0  0  # atno 17321 bound_to 7965
  139.6822  143.9835  152.2815 LP  0  0  0  0  0  0  0  0  0  0  0  0  # atno 17342 bound_to 10162
  139.9469  144.6646  150.8211 LP  0  0  0  0  0  0  0  0  0  0  0  0  # atno 17343 bound_to 10162
  157.4441  130.7561  149.7094 LP  0  0  0  0  0  0  0  0  0  0  0  0  # atno 17370 bound_to 10713
  155.9820  130.4014  150.3442 LP  0  0  0  0  0  0  0  0  0  0  0  0  # atno 17371 bound_to 10713
  140.3168  134.2962  155.7255 LP  0  0  0  0  0  0  0  0  0  0  0  0  # atno 17394 bound_to 11000
  141.2116  133.7684  156.9854 LP  0  0  0  0  0  0  0  0  0  0  0  0  # atno 17395 bound_to 11000

$$$$
