AV-unprocessed.smi:1056|AV-procd|sdf|4636|dock3
  -GOLD-   22720 3143D 1   1.00000     0.00000
 Structure written by MMmdl.
 46 48  0  0  0  0  0  0  0  0  3 V2000
  152.8894  142.6209  161.4175 C   0  0  0  0  0  0  0  0  0  0  0  0
  152.2419  142.3256  160.0751 C   0  0  0  0  0  0  0  0  0  0  0  0
  152.3665  141.0251  159.5369 C   0  0  0  0  0  0  0  0  0  0  0  0
  151.7626  140.7865  158.3081 C   0  0  0  0  0  0  0  0  0  0  0  0
  151.7060  139.6301  157.5279 N   0  3  0  0  0  0  0  0  0  0  0  0
  150.9940  139.8802  156.3948 C   0  0  0  0  0  0  0  0  0  0  0  0
  150.5965  141.1812  156.4368 N   0  0  0  0  0  0  0  0  0  0  0  0
  149.8042  141.9512  155.4659 C   0  0  0  0  0  0  0  0  0  0  0  0
  148.9785  141.0566  154.5198 C   0  0  2  0  0  0  0  0  0  0  0  0
  149.7382  140.7546  153.3650 O   0  0  0  0  0  0  0  0  0  0  0  0
  147.6689  141.7424  154.0830 C   0  0  0  0  0  0  0  0  0  0  0  0
  146.9836  142.4279  155.2084 N   0  3  1  0  0  0  0  0  0  0  0  0
  145.6631  142.9938  154.8427 C   0  0  0  0  0  0  0  0  0  0  0  0
  145.1225  143.8640  155.9909 C   0  0  0  0  0  0  0  0  0  0  0  0
  145.3029  143.2515  157.3050 N   0  0  0  0  0  0  0  0  0  0  0  0
  146.1072  142.2105  157.5752 C   0  0  0  0  0  0  0  0  0  0  0  0
  146.2161  141.7545  158.7104 O   0  0  0  0  0  0  0  0  0  0  0  0
  146.9032  141.5774  156.4234 C   0  0  0  0  0  0  0  0  0  0  0  0
  151.0528  141.7869  157.6151 C   0  0  0  0  0  0  0  0  0  0  0  0
  150.9228  143.0746  158.1317 C   0  0  0  0  0  0  0  0  0  0  0  0
  151.5287  143.3370  159.3813 C   0  0  0  0  0  0  0  0  0  0  0  0
  151.4006  144.7319  159.9694 C   0  0  0  0  0  0  0  0  0  0  0  0
  153.4295  141.7543  161.7997 H   0  0  0  0  0  0  0  0  0  0  0  0
  152.1337  142.8944  162.1543 H   0  0  0  0  0  0  0  0  0  0  0  0
  153.6006  143.4424  161.3286 H   0  0  0  0  0  0  0  0  0  0  0  0
  152.9077  140.2498  160.0594 H   0  0  0  0  0  0  0  0  0  0  0  0
  150.7835  139.1722  155.6061 H   0  0  0  0  0  0  0  0  0  0  0  0
  149.1372  142.5957  156.0397 H   0  0  0  0  0  0  0  0  0  0  0  0
  150.4619  142.6181  154.9083 H   0  0  0  0  0  0  0  0  0  0  0  0
  148.7629  140.1199  155.0334 H   0  0  0  0  0  0  0  0  0  0  0  0
  149.6322  139.8376  153.1615 H   0  0  0  0  0  0  0  0  0  0  0  0
  147.8588  142.4646  153.2874 H   0  0  0  0  0  0  0  0  0  0  0  0
  147.0089  140.9866  153.6533 H   0  0  0  0  0  0  0  0  0  0  0  0
  145.7265  143.5912  153.9339 H   0  0  0  0  0  0  0  0  0  0  0  0
  144.9703  142.1764  154.6350 H   0  0  0  0  0  0  0  0  0  0  0  0
  145.6435  144.8220  156.0004 H   0  0  0  0  0  0  0  0  0  0  0  0
  144.0658  144.0835  155.8357 H   0  0  0  0  0  0  0  0  0  0  0  0
  144.7807  143.6532  158.0711 H   0  0  0  0  0  0  0  0  0  0  0  0
  146.4310  140.6269  156.1705 H   0  0  0  0  0  0  0  0  0  0  0  0
  147.9113  141.3519  156.7737 H   0  0  0  0  0  0  0  0  0  0  0  0
  150.3841  143.8489  157.6068 H   0  0  0  0  0  0  0  0  0  0  0  0
  150.7915  145.3783  159.3368 H   0  0  0  0  0  0  0  0  0  0  0  0
  152.3824  145.1943  160.0719 H   0  0  0  0  0  0  0  0  0  0  0  0
  150.9314  144.6925  160.9527 H   0  0  0  0  0  0  0  0  0  0  0  0
  147.5700  143.2108  155.4611 H   0  0  0  0  0  0  0  0  0  0  0  0
  152.1210  138.7342  157.7513 H   0  0  0  0  0  0  0  0  0  0  0  0
  1  2  1  0  0  0  0
  1 23  1  0  0  0  0
  1 24  1  0  0  0  0
  1 25  1  0  0  0  0
  2 21  1  0  0  0  0
  2  3  2  0  0  0  0
  3  4  1  0  0  0  0
  3 26  1  0  0  0  0
  4 19  2  0  0  0  0
  4  5  1  0  0  0  0
  5  6  2  0  0  0  0
  5 46  1  0  0  0  0
  6  7  1  0  0  0  0
  6 27  1  0  0  0  0
  7  8  1  0  0  0  0
  7 19  1  0  0  0  0
  8  9  1  0  0  0  0
  8 28  1  0  0  0  0
  8 29  1  0  0  0  0
  9 10  1  0  0  0  0
  9 11  1  0  0  0  0
  9 30  1  0  0  0  0
 10 31  1  0  0  0  0
 11 12  1  0  0  0  0
 11 32  1  0  0  0  0
 11 33  1  0  0  0  0
 12 18  1  0  0  0  0
 12 13  1  0  0  0  0
 12 45  1  0  0  0  0
 13 14  1  0  0  0  0
 13 34  1  0  0  0  0
 13 35  1  0  0  0  0
 14 15  1  0  0  0  0
 14 36  1  0  0  0  0
 14 37  1  0  0  0  0
 15 16  1  0  0  0  0
 15 38  1  0  0  0  0
 16 17  2  0  0  0  0
 16 18  1  0  0  0  0
 18 39  1  0  0  0  0
 18 40  1  0  0  0  0
 19 20  1  0  0  0  0
 20 21  2  0  0  0  0
 20 41  1  0  0  0  0
 21 22  1  0  0  0  0
 22 42  1  0  0  0  0
 22 43  1  0  0  0  0
 22 44  1  0  0  0  0
M  CHG  1   5   1
M  CHG  1  12   1
M  END
> <s_m_source_file>
AV-unprocessed.smi

> <i_m_source_file_index>
1056

> <i_lp_mmshare_version>
43012

> <i_f3d_flags>
0

> <s_epik_input>
W0NIM11jKFtjSF0xKWMoW0NIM10pW2NIXWMoYzEyKW4oW2NIXW4yKVtDSDJdW0NASF0oW09IXSlbQ0gyXU4zW0NIMl1bQ0gyXVtOSF1DKD1PKVtDSDJdMw==

> <s_epik_cmdline>
J2VwaWtfcHl0aG9uJywgJy1waCcsICc3LjAnLCAnLXRuJywgJzgnLCAnLW1hJywgJzIwMCcsICctbWV0YWxfYmluZGluZycsICctaW1hZScsICc8aW5maWxlLm1hZT4nLCAnLW9tYWUnLCAnPG91dGZpbGUubWFlPic=

> <r_epik_Ionization_Penalty>
1.262

> <r_epik_Ionization_Penalty_Charging>
1.26188

> <r_epik_Ionization_Penalty_Neutral>
0.000125436

> <r_epik_State_Penalty>
1.3387

> <r_epik_Charging_Adjusted_Penalty>
2.60058

> <i_epik_Tot_Q>
2

> <i_epik_Tot_abs_Q>
2

> <r_epik_Metal_State_Penalty>
1.58938

> <b_epik_Metal_Only>
0

> <s_lp_Force_Field>
OPLS_2005

> <r_lp_Energy>
35.3013

> <b_lp_Chiralities_Consistent>
1

> <s_lp_Variant>
AV-unprocessed.smi:1056-7

> <Gold.Version>
5.8.1

> <Gold.Id.Protein>
6NUR|6NUR_protein|mol2

> <Gold.PLP.Fitness>
55.8842

> <Gold.PLP.PLP>
-45.5337

> <Gold.PLP.part.hbond>
-3.9780

> <Gold.PLP.part.metal>
0.0000

> <Gold.PLP.part.buried>
-4.6989

> <Gold.PLP.part.nonpolar>
-36.5421

> <Gold.PLP.part.repulsive>
0.1627

> <Gold.PLP.ligand.clash>
0.0000

> <Gold.PLP.ligand.torsion>
0.8568

> <Gold.PLP.Chemscore.Hbond>
4.0017

> <Gold.PLP.Chemscore.CHOScore>
0.0000

> <Gold.PLP.Chemscore.Metal>
0.0000

> <Gold.Chemscore.Hbonds>
donor molecule, donor type, donor heavy atom, donor atom, acceptor molecule, acceptor atom, score
      L1  H    12    45       P1  8028  1.90
      P1  H  6934  6946       L1    17  0.28
      P1  H  7989  7998       L1    10  0.30
      P1  H  8011  8017       L1    10  1.00

> <Gold.PLP.Chemscore.Internal.Correction>
0.0589

> <Gold.Rescore>
     Score         DG    S(hbond)    S(metal)    S(lipo)     H(rot)  DE(clash)    DE(int)     intcor
     17.00     -19.29       2.14        0.00     110.24       2.44       1.39       0.90       ----

> <Gold.Chemscore.Fitness>
17.0041

> <Gold.Chemscore.DG>
-19.2932

> <Gold.Chemscore.ZeroCoef>
-5.4800

> <Gold.Chemscore.Hbond>
2.1408

> <Gold.Chemscore.Metal>
0.0000

> <Gold.Chemscore.Lipo>
110.2416

> <Gold.Chemscore.Internal_Hbond>
0.0000

> <Gold.Chemscore.DEClash>
1.3864

> <Gold.Chemscore.DEInternal>
0.9027

> <Gold.Chemscore.Rot>
2.4357

> <Gold.Chemscore.Internal.Correction>
   9.000000E+99

> <Gold.Chemscore.Hbonds>
donor molecule, donor type, donor heavy atom, donor atom, acceptor molecule, acceptor atom, score
      L1  H    10    31       P1  7957  0.03
      L1  H    12    45       P1  8028  0.21
      P1  H  6934  6946       L1    17  0.27
      P1  H  7989  7998       L1    10  0.09
      P1  H  8011  8017       L1    10  0.54

> <Gold.Chemscore.Hbond.Weighted>
-7.1503

> <Gold.Chemscore.Metal.Weighted>
-0.0000

> <Gold.Chemscore.Lipo.Weighted>
-12.8983

> <Gold.Chemscore.Internal_Hbond.Weighted>
0.0000

> <Gold.Chemscore.DEClash.Weighted>
1.3864

> <Gold.Chemscore.DEInternal.Weighted>
0.9027

> <Gold.Chemscore.Rot.Weighted>
6.2353

> <Gold.Chemscore.Internal.Correction.Weighted>
   9.000000E+99

> <Gold.Protein.RotatedTorsions>
[ 6907 6896 6895 6894 ] final   46.03 input  -60.11 | X-H torsion
[ 7974 7965 7964 7962 ] final  162.37 input  175.53 | X-H torsion
[ 8008 7997 7996 7995 ] final -101.51 input   59.86 | X-H torsion
[ 10167 10162 10161 10158 ] final  125.89 input  -65.29 | X-H torsion
[ 10718 10713 10712 10709 ] final  133.50 input   66.30 | X-H torsion
[ 10763 10752 10751 10750 ] final   -5.48 input  -60.55 | X-H torsion
[ 11005 11000 10999 10996 ] final -135.90 input  -57.11 | X-H torsion

> <Gold.Protein.ActiveResidues>
 VAL166  LYS551  ARG553  GLY616  TRP617  ASP618  TYR619  PRO620  LYS621  CYS622 
 ASP623  PHE694  ASN695  SER759  ASP760  ASP761  ALA762  ILE779  LEU786  VAL792 
 PHE793  MET794  SER795  GLU796  ALA797  LYS798  CYS799  TRP800  GLU811  SER814 

> <Gold.Protein.RotatedAtoms>
  152.2515  134.8127  160.0444 H   0  0  0  0  0  0  0  0  0  0  0  0  # atno 6907 bound_to 6896
  151.8806  133.3489  159.3773 H   0  0  0  0  0  0  0  0  0  0  0  0  # atno 6908 bound_to 6896
  150.7086  134.4949  159.5578 H   0  0  0  0  0  0  0  0  0  0  0  0  # atno 6909 bound_to 6896
  144.7640  139.8030  143.6322 H   0  0  0  0  0  0  0  0  0  0  0  0  # atno 7974 bound_to 7965
  154.8435  140.0434  157.1557 H   0  0  0  0  0  0  0  0  0  0  0  0  # atno 8008 bound_to 7997
  154.9020  140.3001  155.5292 H   0  0  0  0  0  0  0  0  0  0  0  0  # atno 8009 bound_to 7997
  156.2993  140.2374  156.4049 H   0  0  0  0  0  0  0  0  0  0  0  0  # atno 8010 bound_to 7997
  139.5661  144.6912  151.3907 H   0  0  0  0  0  0  0  0  0  0  0  0  # atno 10167 bound_to 10162
  157.4766  131.1083  150.9735 H   0  0  0  0  0  0  0  0  0  0  0  0  # atno 10718 bound_to 10713
  153.3991  135.7004  153.6439 H   0  0  0  0  0  0  0  0  0  0  0  0  # atno 10763 bound_to 10752
  153.4980  135.3658  155.2526 H   0  0  0  0  0  0  0  0  0  0  0  0  # atno 10764 bound_to 10752
  154.8709  135.4105  154.3322 H   0  0  0  0  0  0  0  0  0  0  0  0  # atno 10765 bound_to 10752
  140.8855  134.1878  157.4563 H   0  0  0  0  0  0  0  0  0  0  0  0  # atno 11005 bound_to 11000
  146.1730  139.4889  142.9915 LP  0  0  0  0  0  0  0  0  0  0  0  0  # atno 17320 bound_to 7965
  145.6529  141.0259  143.1751 LP  0  0  0  0  0  0  0  0  0  0  0  0  # atno 17321 bound_to 7965
  140.6944  143.7784  150.7304 LP  0  0  0  0  0  0  0  0  0  0  0  0  # atno 17342 bound_to 10162
  140.1276  143.4555  152.2274 LP  0  0  0  0  0  0  0  0  0  0  0  0  # atno 17343 bound_to 10162
  157.0482  130.5776  149.5366 LP  0  0  0  0  0  0  0  0  0  0  0  0  # atno 17370 bound_to 10713
  156.0100  130.5191  150.7957 LP  0  0  0  0  0  0  0  0  0  0  0  0  # atno 17371 bound_to 10713
  139.8724  134.9836  156.5203 LP  0  0  0  0  0  0  0  0  0  0  0  0  # atno 17394 bound_to 11000
  140.8410  133.8205  155.9075 LP  0  0  0  0  0  0  0  0  0  0  0  0  # atno 17395 bound_to 11000

$$$$
