AV-unprocessed.smi:3097|AV-procd|sdf|11798|dock3
  -GOLD-   2272017173D 1   1.00000     0.00000
 Structure written by MMmdl.
 35 35  0  0  0  0  0  0  0  0  2 V2000
  144.3236  145.2223  153.7022 C   0  0  0  0  0  0  0  0  0  0  0  0
  145.3047  144.1014  153.3357 C   0  0  0  0  0  0  0  0  0  0  0  0
  145.4718  143.0562  154.4487 C   0  0  0  0  0  0  0  0  0  0  0  0
  145.9806  141.7791  153.9264 N   0  0  0  0  0  0  0  0  0  0  0  0
  147.2387  141.3117  154.0510 C   0  0  0  0  0  0  0  0  0  0  0  0
  147.5741  140.1313  153.4946 N   0  3  0  0  0  0  0  0  0  0  0  0
  146.6726  139.2587  152.7325 C   0  0  0  0  0  0  0  0  0  0  0  0
  148.1617  142.0223  154.7283 N   0  0  0  0  0  0  0  0  0  0  0  0
  149.5638  141.6347  154.9299 C   0  0  0  0  0  0  0  0  0  0  0  0
  149.6733  140.4008  155.8352 C   0  0  0  0  0  0  0  0  0  0  0  0
  150.6448  139.4516  155.3284 N   0  0  0  0  0  0  0  0  0  0  0  0
  150.4582  138.1266  154.9940 C   0  0  0  0  0  0  0  0  0  0  0  0
  151.6611  137.6431  154.5652 C   0  0  0  0  0  0  0  0  0  0  0  0
  152.5344  138.7610  154.6772 C   0  0  0  0  0  0  0  0  0  0  0  0
  151.9228  139.8425  155.1332 N   0  0  0  0  0  0  0  0  0  0  0  0
  144.2504  145.9516  152.8951 H   0  0  0  0  0  0  0  0  0  0  0  0
  144.6470  145.7512  154.5993 H   0  0  0  0  0  0  0  0  0  0  0  0
  143.3226  144.8309  153.8855 H   0  0  0  0  0  0  0  0  0  0  0  0
  144.9732  143.6159  152.4172 H   0  0  0  0  0  0  0  0  0  0  0  0
  146.2779  144.5388  153.1107 H   0  0  0  0  0  0  0  0  0  0  0  0
  146.1559  143.4252  155.2133 H   0  0  0  0  0  0  0  0  0  0  0  0
  144.5171  142.8806  154.9451 H   0  0  0  0  0  0  0  0  0  0  0  0
  145.3267  141.2310  153.3858 H   0  0  0  0  0  0  0  0  0  0  0  0
  147.2085  138.3753  152.3858 H   0  0  0  0  0  0  0  0  0  0  0  0
  146.2761  139.7852  151.8643 H   0  0  0  0  0  0  0  0  0  0  0  0
  145.8393  138.9345  153.3559 H   0  0  0  0  0  0  0  0  0  0  0  0
  147.8812  142.9084  155.1234 H   0  0  0  0  0  0  0  0  0  0  0  0
  150.0183  141.4287  153.9603 H   0  0  0  0  0  0  0  0  0  0  0  0
  150.1012  142.4764  155.3680 H   0  0  0  0  0  0  0  0  0  0  0  0
  149.9647  140.6907  156.8460 H   0  0  0  0  0  0  0  0  0  0  0  0
  148.7071  139.9004  155.9143 H   0  0  0  0  0  0  0  0  0  0  0  0
  149.4967  137.6430  155.0868 H   0  0  0  0  0  0  0  0  0  0  0  0
  151.8839  136.6427  154.2245 H   0  0  0  0  0  0  0  0  0  0  0  0
  153.5869  138.8189  154.4410 H   0  0  0  0  0  0  0  0  0  0  0  0
  148.5251  139.8080  153.6017 H   0  0  0  0  0  0  0  0  0  0  0  0
  1  2  1  0  0  0  0
  1 16  1  0  0  0  0
  1 17  1  0  0  0  0
  1 18  1  0  0  0  0
  2  3  1  0  0  0  0
  2 19  1  0  0  0  0
  2 20  1  0  0  0  0
  3  4  1  0  0  0  0
  3 21  1  0  0  0  0
  3 22  1  0  0  0  0
  4  5  1  0  0  0  0
  4 23  1  0  0  0  0
  5  6  2  0  0  0  0
  5  8  1  0  0  0  0
  6  7  1  0  0  0  0
  6 35  1  0  0  0  0
  7 24  1  0  0  0  0
  7 25  1  0  0  0  0
  7 26  1  0  0  0  0
  8  9  1  0  0  0  0
  8 27  1  0  0  0  0
  9 10  1  0  0  0  0
  9 28  1  0  0  0  0
  9 29  1  0  0  0  0
 10 11  1  0  0  0  0
 10 30  1  0  0  0  0
 10 31  1  0  0  0  0
 11 15  1  0  0  0  0
 11 12  1  0  0  0  0
 12 13  2  0  0  0  0
 12 32  1  0  0  0  0
 13 14  1  0  0  0  0
 13 33  1  0  0  0  0
 14 15  2  0  0  0  0
 14 34  1  0  0  0  0
M  CHG  1   6   1
M  END
> <s_m_source_file>
AV-unprocessed.smi

> <i_m_source_file_index>
3097

> <i_lp_mmshare_version>
43012

> <i_f3d_flags>
0

> <s_epik_input>
W0NIM11bQ0gyXVtDSDJdW05IXS9DKD1OXFtDSDNdKVtOSF1bQ0gyXVtDSDJdbjFbY0hdW2NIXVtjSF1uMQ==

> <s_epik_cmdline>
J2VwaWtfcHl0aG9uJywgJy1waCcsICc3LjAnLCAnLXRuJywgJzgnLCAnLW1hJywgJzIwMCcsICctbWV0YWxfYmluZGluZycsICctaW1hZScsICc8aW5maWxlLm1hZT4nLCAnLW9tYWUnLCAnPG91dGZpbGUubWFlPic=

> <r_lp_tautomer_probability>
1

> <r_epik_Ionization_Penalty>
4.40305e-05

> <r_epik_Ionization_Penalty_Charging>
1.64417e-07

> <r_epik_Ionization_Penalty_Neutral>
4.38661e-05

> <r_epik_State_Penalty>
-0

> <r_epik_Charging_Adjusted_Penalty>
1.64417e-07

> <i_epik_Tot_Q>
1

> <i_epik_Tot_abs_Q>
1

> <r_epik_Metal_State_Penalty>
-0

> <b_epik_Metal_Only>
0

> <s_epik_Chemistry_Notes>
This compound has an imine and may undergo hydrolysis.

> <s_lp_Force_Field>
OPLS_2005

> <r_lp_Energy>
7.72145

> <b_lp_Chiralities_Consistent>
1

> <s_lp_Variant>
AV-unprocessed.smi:3097-1

> <Gold.Version>
5.8.1

> <Gold.Id.Protein>
6NUR|6NUR_protein|mol2

> <Gold.PLP.Fitness>
45.3721

> <Gold.PLP.PLP>
-33.6603

> <Gold.PLP.part.hbond>
-3.9971

> <Gold.PLP.part.metal>
0.0000

> <Gold.PLP.part.buried>
-4.0084

> <Gold.PLP.part.nonpolar>
-28.3412

> <Gold.PLP.part.repulsive>
0.3191

> <Gold.PLP.ligand.clash>
0.0000

> <Gold.PLP.ligand.torsion>
0.5481

> <Gold.PLP.Chemscore.Hbond>
4.2624

> <Gold.PLP.Chemscore.CHOScore>
0.0000

> <Gold.PLP.Chemscore.Metal>
0.0000

> <Gold.Chemscore.Hbonds>
donor molecule, donor type, donor heavy atom, donor atom, acceptor molecule, acceptor atom, score
      L1  H     4    23       P1 10175  2.00
      L1  H     8    27       P1  8028  1.15
      P1  H  7989  7998       L1    15  0.87

> <Gold.PLP.Chemscore.Internal.Correction>
0.0208

> <Gold.Rescore>
     Score         DG    S(hbond)    S(metal)    S(lipo)     H(rot)  DE(clash)    DE(int)     intcor
     12.90     -13.87       1.64        0.00      65.56       1.86       0.16       0.80       ----

> <Gold.Chemscore.Fitness>
12.8993

> <Gold.Chemscore.DG>
-13.8650

> <Gold.Chemscore.ZeroCoef>
-5.4800

> <Gold.Chemscore.Hbond>
1.6367

> <Gold.Chemscore.Metal>
0.0000

> <Gold.Chemscore.Lipo>
65.5582

> <Gold.Chemscore.Internal_Hbond>
0.0000

> <Gold.Chemscore.DEClash>
0.1615

> <Gold.Chemscore.DEInternal>
0.8043

> <Gold.Chemscore.Rot>
1.8561

> <Gold.Chemscore.Internal.Correction>
   9.000000E+99

> <Gold.Chemscore.Hbonds>
donor molecule, donor type, donor heavy atom, donor atom, acceptor molecule, acceptor atom, score
      L1  H     4    23       P1 10175  0.29
      L1  H     8    27       P1  8028  0.48
      P1  H  7989  7998       L1    15  0.07

> <Gold.Chemscore.Hbond.Weighted>
-5.4665

> <Gold.Chemscore.Metal.Weighted>
-0.0000

> <Gold.Chemscore.Lipo.Weighted>
-7.6703

> <Gold.Chemscore.Internal_Hbond.Weighted>
0.0000

> <Gold.Chemscore.DEClash.Weighted>
0.1615

> <Gold.Chemscore.DEInternal.Weighted>
0.8043

> <Gold.Chemscore.Rot.Weighted>
4.7517

> <Gold.Chemscore.Internal.Correction.Weighted>
   9.000000E+99

> <Gold.Protein.RotatedTorsions>
[ 6907 6896 6895 6894 ] final  -99.90 input  -60.11 | X-H torsion
[ 7974 7965 7964 7962 ] final  118.66 input  175.53 | X-H torsion
[ 8008 7997 7996 7995 ] final   55.70 input   59.86 | X-H torsion
[ 10167 10162 10161 10158 ] final  108.22 input  -65.29 | X-H torsion
[ 10718 10713 10712 10709 ] final  -93.78 input   66.30 | X-H torsion
[ 10763 10752 10751 10750 ] final   74.31 input  -60.55 | X-H torsion
[ 11005 11000 10999 10996 ] final  -84.60 input  -57.11 | X-H torsion

> <Gold.Protein.ActiveResidues>
 VAL166  LYS551  ARG553  GLY616  TRP617  ASP618  TYR619  PRO620  LYS621  CYS622 
 ASP623  PHE694  ASN695  SER759  ASP760  ASP761  ALA762  ILE779  LEU786  VAL792 
 PHE793  MET794  SER795  GLU796  ALA797  LYS798  CYS799  TRP800  GLU811  SER814 

> <Gold.Protein.RotatedAtoms>
  150.7096  134.0970  159.3951 H   0  0  0  0  0  0  0  0  0  0  0  0  # atno 6907 bound_to 6896
  151.8956  135.0397  160.0511 H   0  0  0  0  0  0  0  0  0  0  0  0  # atno 6908 bound_to 6896
  152.2456  133.5136  159.5332 H   0  0  0  0  0  0  0  0  0  0  0  0  # atno 6909 bound_to 6896
  145.1525  139.3202  143.4559 H   0  0  0  0  0  0  0  0  0  0  0  0  # atno 7974 bound_to 7965
  155.5054  140.3475  155.4378 H   0  0  0  0  0  0  0  0  0  0  0  0  # atno 8008 bound_to 7997
  156.0885  140.1404  156.9649 H   0  0  0  0  0  0  0  0  0  0  0  0  # atno 8009 bound_to 7997
  154.4621  140.0931  156.6898 H   0  0  0  0  0  0  0  0  0  0  0  0  # atno 8010 bound_to 7997
  139.6863  144.7113  151.1426 H   0  0  0  0  0  0  0  0  0  0  0  0  # atno 10167 bound_to 10162
  156.0018  130.5041  150.5827 H   0  0  0  0  0  0  0  0  0  0  0  0  # atno 10718 bound_to 10713
  153.0578  135.5030  154.8023 H   0  0  0  0  0  0  0  0  0  0  0  0  # atno 10763 bound_to 10752
  154.6835  135.2972  154.9582 H   0  0  0  0  0  0  0  0  0  0  0  0  # atno 10764 bound_to 10752
  154.0360  135.6723  153.4838 H   0  0  0  0  0  0  0  0  0  0  0  0  # atno 10765 bound_to 10752
  141.1649  133.7354  156.8891 H   0  0  0  0  0  0  0  0  0  0  0  0  # atno 11005 bound_to 11000
  146.3493  140.1605  142.8591 LP  0  0  0  0  0  0  0  0  0  0  0  0  # atno 17320 bound_to 7965
  145.0416  140.8949  143.5049 LP  0  0  0  0  0  0  0  0  0  0  0  0  # atno 17321 bound_to 7965
  140.7669  143.5624  150.9085 LP  0  0  0  0  0  0  0  0  0  0  0  0  # atno 17342 bound_to 10162
  139.9299  143.6506  152.3078 LP  0  0  0  0  0  0  0  0  0  0  0  0  # atno 17343 bound_to 10162
  157.3705  131.0765  151.1562 LP  0  0  0  0  0  0  0  0  0  0  0  0  # atno 17370 bound_to 10713
  157.2317  130.6528  149.5852 LP  0  0  0  0  0  0  0  0  0  0  0  0  # atno 17371 bound_to 10713
  140.1661  134.9132  157.2775 LP  0  0  0  0  0  0  0  0  0  0  0  0  # atno 17394 bound_to 11000
  140.2555  134.3632  155.7426 LP  0  0  0  0  0  0  0  0  0  0  0  0  # atno 17395 bound_to 11000

$$$$
