AV-unprocessed.smi:239|AV-procd|sdf|1821|dock5
  -GOLD-   2262020413D 1   1.00000     0.00000
 Structure written by MMmdl.
 54 58  0  0  0  0  0  0  0  0  1 V2000
  154.9176  140.5136  162.3838 C   0  0  0  0  0  0  0  0  0  0  0  0
  154.3310  141.1787  161.1342 C   0  0  1  0  0  0  0  0  0  0  0  0
  153.5777  140.1734  160.2446 C   0  0  0  0  0  0  0  0  0  0  0  0
  152.9412  140.8661  159.1273 N   0  0  0  0  0  0  0  0  0  0  0  0
  152.4433  140.1156  158.1110 C   0  0  0  0  0  0  0  0  0  0  0  0
  152.7952  138.8063  157.9993 N   0  0  0  0  0  0  0  0  0  0  0  0
  152.3054  138.0559  157.0083 C   0  0  0  0  0  0  0  0  0  0  0  0
  151.4669  138.4071  156.0321 N   0  0  0  0  0  0  0  0  0  0  0  0
  151.1181  139.7216  156.1295 C   0  0  0  0  0  0  0  0  0  0  0  0
  151.5531  140.6377  157.1292 C   0  0  0  0  0  0  0  0  0  0  0  0
  150.9920  141.8885  156.8973 N   0  0  0  0  0  0  0  0  0  0  0  0
  150.2587  141.7179  155.8314 C   0  0  0  0  0  0  0  0  0  0  0  0
  150.2851  140.4495  155.2974 N   0  0  0  0  0  0  0  0  0  0  0  0
  149.5736  139.9851  154.1157 C   0  0  0  0  0  0  0  0  0  0  0  0
  148.0691  140.3554  154.0971 C   0  0  0  0  0  0  0  0  0  0  0  0
  147.4935  139.7739  152.9404 O   0  0  0  0  0  0  0  0  0  0  0  0
  147.3588  139.7754  155.3370 C   0  0  0  0  0  0  0  0  0  0  0  0
  145.9022  140.2593  155.4520 C   0  0  0  0  0  0  0  0  0  0  0  0
  145.8615  141.6810  155.4518 O   0  0  0  0  0  0  0  0  0  0  0  0
  146.3491  142.2444  154.2404 C   0  0  0  0  0  0  0  0  0  0  0  0
  147.8318  141.8807  154.0450 C   0  0  0  0  0  0  0  0  0  0  0  0
  152.0917  141.9742  159.5517 C   0  0  0  0  0  0  0  0  0  0  0  0
  152.8817  142.9348  160.4592 C   0  0  1  0  0  0  0  0  0  0  0  0
  152.0063  144.0697  160.9642 C   0  0  0  0  0  0  0  0  0  0  0  0
  150.7062  144.4262  160.2754 C   0  0  0  0  0  0  0  0  0  0  0  0
  151.8805  145.3674  160.1951 C   0  0  0  0  0  0  0  0  0  0  0  0
  153.4268  142.1970  161.5527 O   0  0  0  0  0  0  0  0  0  0  0  0
  155.6257  139.7295  162.1151 H   0  0  0  0  0  0  0  0  0  0  0  0
  154.1352  140.0629  162.9951 H   0  0  0  0  0  0  0  0  0  0  0  0
  155.4454  141.2411  163.0011 H   0  0  0  0  0  0  0  0  0  0  0  0
  155.1450  141.6336  160.5672 H   0  0  0  0  0  0  0  0  0  0  0  0
  154.2741  139.4215  159.8707 H   0  0  0  0  0  0  0  0  0  0  0  0
  152.8168  139.6531  160.8285 H   0  0  0  0  0  0  0  0  0  0  0  0
  152.6319  137.0265  156.9961 H   0  0  0  0  0  0  0  0  0  0  0  0
  149.6823  142.5211  155.3960 H   0  0  0  0  0  0  0  0  0  0  0  0
  150.0732  140.3899  153.2343 H   0  0  0  0  0  0  0  0  0  0  0  0
  149.6917  138.9023  154.0581 H   0  0  0  0  0  0  0  0  0  0  0  0
  148.0944  139.8810  152.2190 H   0  0  0  0  0  0  0  0  0  0  0  0
  147.3906  138.6852  155.3224 H   0  0  0  0  0  0  0  0  0  0  0  0
  147.8943  140.0831  156.2361 H   0  0  0  0  0  0  0  0  0  0  0  0
  145.2891  139.8655  154.6400 H   0  0  0  0  0  0  0  0  0  0  0  0
  145.4626  139.8969  156.3813 H   0  0  0  0  0  0  0  0  0  0  0  0
  145.7461  141.9021  153.3979 H   0  0  0  0  0  0  0  0  0  0  0  0
  146.2354  143.3275  154.2877 H   0  0  0  0  0  0  0  0  0  0  0  0
  148.4130  142.3612  154.8331 H   0  0  0  0  0  0  0  0  0  0  0  0
  148.1868  142.2989  153.1027 H   0  0  0  0  0  0  0  0  0  0  0  0
  151.6979  142.5245  158.6982 H   0  0  0  0  0  0  0  0  0  0  0  0
  151.2327  141.5721  160.0907 H   0  0  0  0  0  0  0  0  0  0  0  0
  153.6998  143.3831  159.8924 H   0  0  0  0  0  0  0  0  0  0  0  0
  152.0033  144.1626  162.0488 H   0  0  0  0  0  0  0  0  0  0  0  0
  150.4370  143.8822  159.3721 H   0  0  0  0  0  0  0  0  0  0  0  0
  149.8697  144.7189  160.9067 H   0  0  0  0  0  0  0  0  0  0  0  0
  151.8284  146.2877  160.7732 H   0  0  0  0  0  0  0  0  0  0  0  0
  152.3955  145.4484  159.2399 H   0  0  0  0  0  0  0  0  0  0  0  0
  1  2  1  0  0  0  0
  1 28  1  0  0  0  0
  1 29  1  0  0  0  0
  1 30  1  0  0  0  0
  2 27  1  0  0  0  0
  2  3  1  0  0  0  0
  2 31  1  0  0  0  0
  3  4  1  0  0  0  0
  3 32  1  0  0  0  0
  3 33  1  0  0  0  0
  4  5  1  0  0  0  0
  4 22  1  0  0  0  0
  5 10  1  0  0  0  0
  5  6  2  0  0  0  0
  6  7  1  0  0  0  0
  7  8  2  0  0  0  0
  7 34  1  0  0  0  0
  8  9  1  0  0  0  0
  9 13  1  0  0  0  0
  9 10  2  0  0  0  0
 10 11  1  0  0  0  0
 11 12  2  0  0  0  0
 12 13  1  0  0  0  0
 12 35  1  0  0  0  0
 13 14  1  0  0  0  0
 14 15  1  0  0  0  0
 14 36  1  0  0  0  0
 14 37  1  0  0  0  0
 15 21  1  0  0  0  0
 15 16  1  0  0  0  0
 15 17  1  0  0  0  0
 16 38  1  0  0  0  0
 17 18  1  0  0  0  0
 17 39  1  0  0  0  0
 17 40  1  0  0  0  0
 18 19  1  0  0  0  0
 18 41  1  0  0  0  0
 18 42  1  0  0  0  0
 19 20  1  0  0  0  0
 20 21  1  0  0  0  0
 20 43  1  0  0  0  0
 20 44  1  0  0  0  0
 21 45  1  0  0  0  0
 21 46  1  0  0  0  0
 22 23  1  0  0  0  0
 22 47  1  0  0  0  0
 22 48  1  0  0  0  0
 23 24  1  0  0  0  0
 23 27  1  0  0  0  0
 23 49  1  0  0  0  0
 24 26  1  0  0  0  0
 24 25  1  0  0  0  0
 24 50  1  0  0  0  0
 25 26  1  0  0  0  0
 25 51  1  0  0  0  0
 25 52  1  0  0  0  0
 26 53  1  0  0  0  0
 26 54  1  0  0  0  0
M  END
> <s_m_source_file>
AV-unprocessed.smi

> <i_m_source_file_index>
239

> <i_lp_mmshare_version>
43012

> <i_f3d_flags>
0

> <s_epik_input>
W0NIMl0xW0NIMl1bQ0hdMVtDQEBIXShPMilbQ0gyXU4oW0NIMl1bQ0BIXTJbQ0gzXSljKG5bY0hdbjMpYyhjMzQpbltjSF1uNFtDSDJdQzUoW09IXSlbQ0gyXVtDSDJdT1tDSDJdW0NIMl01

> <s_epik_cmdline>
J2VwaWtfcHl0aG9uJywgJy1waCcsICc3LjAnLCAnLXRuJywgJzgnLCAnLW1hJywgJzIwMCcsICctbWV0YWxfYmluZGluZycsICctaW1hZScsICc8aW5maWxlLm1hZT4nLCAnLW9tYWUnLCAnPG91dGZpbGUubWFlPic=

> <r_lp_tautomer_probability>
1

> <r_epik_Ionization_Penalty>
9.13091e-05

> <r_epik_Ionization_Penalty_Charging>
0

> <r_epik_Ionization_Penalty_Neutral>
9.13091e-05

> <r_epik_State_Penalty>
-0

> <r_epik_Charging_Adjusted_Penalty>
0

> <i_epik_Tot_Q>
0

> <i_epik_Tot_abs_Q>
0

> <r_epik_Metal_State_Penalty>
-0

> <b_epik_Metal_Only>
0

> <s_lp_Force_Field>
OPLS_2005

> <r_lp_Energy>
35.8814

> <b_lp_Chiralities_Consistent>
1

> <s_lp_Variant>
AV-unprocessed.smi:239-2

> <Gold.Version>
5.8.1

> <Gold.Id.Protein>
6NUR|6NUR_protein|mol2

> <Gold.PLP.Fitness>
54.1794

> <Gold.PLP.PLP>
-50.0345

> <Gold.PLP.part.hbond>
-1.0000

> <Gold.PLP.part.metal>
0.0000

> <Gold.PLP.part.buried>
-3.8129

> <Gold.PLP.part.nonpolar>
-44.8960

> <Gold.PLP.part.repulsive>
0.2047

> <Gold.PLP.ligand.clash>
0.0000

> <Gold.PLP.ligand.torsion>
1.6205

> <Gold.PLP.Chemscore.Hbond>
1.0000

> <Gold.PLP.Chemscore.CHOScore>
1.0000

> <Gold.PLP.Chemscore.Metal>
0.0000

> <Gold.Chemscore.Hbonds>
donor molecule, donor type, donor heavy atom, donor atom, acceptor molecule, acceptor atom, score
      L1  H    16    38       P1  7957  1.00
      L1  C    12    35       P1  8028  1.00

> <Gold.PLP.Chemscore.Internal.Correction>
1.3858

> <Gold.Rescore>
     Score         DG    S(hbond)    S(metal)    S(lipo)     H(rot)  DE(clash)    DE(int)     intcor
     13.37     -16.81       1.00        0.00     117.34       2.24       0.52       2.93       ----

> <Gold.Chemscore.Fitness>
13.3655

> <Gold.Chemscore.DG>
-16.8138

> <Gold.Chemscore.ZeroCoef>
-5.4800

> <Gold.Chemscore.Hbond>
0.9988

> <Gold.Chemscore.Metal>
0.0000

> <Gold.Chemscore.Lipo>
117.3421

> <Gold.Chemscore.Internal_Hbond>
0.0000

> <Gold.Chemscore.DEClash>
0.5170

> <Gold.Chemscore.DEInternal>
2.9312

> <Gold.Chemscore.Rot>
2.2387

> <Gold.Chemscore.Internal.Correction>
   9.000000E+99

> <Gold.Chemscore.Hbonds>
donor molecule, donor type, donor heavy atom, donor atom, acceptor molecule, acceptor atom, score
      L1  H    16    38       P1  7957  1.00

> <Gold.Chemscore.Hbond.Weighted>
-3.3359

> <Gold.Chemscore.Metal.Weighted>
-0.0000

> <Gold.Chemscore.Lipo.Weighted>
-13.7290

> <Gold.Chemscore.Internal_Hbond.Weighted>
0.0000

> <Gold.Chemscore.DEClash.Weighted>
0.5170

> <Gold.Chemscore.DEInternal.Weighted>
2.9312

> <Gold.Chemscore.Rot.Weighted>
5.7311

> <Gold.Chemscore.Internal.Correction.Weighted>
   9.000000E+99

> <Gold.Protein.RotatedTorsions>
[ 6907 6896 6895 6894 ] final  -77.27 input  -60.11 | X-H torsion
[ 7974 7965 7964 7962 ] final  -63.84 input  175.53 | X-H torsion
[ 8008 7997 7996 7995 ] final -100.73 input   59.86 | X-H torsion
[ 10167 10162 10161 10158 ] final  148.09 input  -65.29 | X-H torsion
[ 10718 10713 10712 10709 ] final -137.65 input   66.30 | X-H torsion
[ 10763 10752 10751 10750 ] final   27.91 input  -60.55 | X-H torsion
[ 11005 11000 10999 10996 ] final   21.19 input  -57.11 | X-H torsion

> <Gold.Protein.ActiveResidues>
 VAL166  LYS551  ARG553  GLY616  TRP617  ASP618  TYR619  PRO620  LYS621  CYS622 
 ASP623  PHE694  ASN695  SER759  ASP760  ASP761  ALA762  ILE779  LEU786  VAL792 
 PHE793  MET794  SER795  GLU796  ALA797  LYS798  CYS799  TRP800  GLU811  SER814 

> <Gold.Protein.RotatedAtoms>
  150.7003  134.4447  159.5308 H   0  0  0  0  0  0  0  0  0  0  0  0  # atno 6907 bound_to 6896
  152.2151  134.8463  160.0502 H   0  0  0  0  0  0  0  0  0  0  0  0  # atno 6908 bound_to 6896
  151.9334  133.3582  159.3976 H   0  0  0  0  0  0  0  0  0  0  0  0  # atno 6909 bound_to 6896
  145.7741  140.8797  143.0364 H   0  0  0  0  0  0  0  0  0  0  0  0  # atno 7974 bound_to 7965
  154.8326  140.0439  157.1487 H   0  0  0  0  0  0  0  0  0  0  0  0  # atno 8008 bound_to 7997
  154.9135  140.3017  155.5233 H   0  0  0  0  0  0  0  0  0  0  0  0  # atno 8009 bound_to 7997
  156.2988  140.2354  156.4177 H   0  0  0  0  0  0  0  0  0  0  0  0  # atno 8010 bound_to 7997
  139.4880  144.5706  151.7062 H   0  0  0  0  0  0  0  0  0  0  0  0  # atno 10167 bound_to 10162
  156.2905  130.7372  151.1396 H   0  0  0  0  0  0  0  0  0  0  0  0  # atno 10718 bound_to 10713
  153.0525  135.6526  154.0657 H   0  0  0  0  0  0  0  0  0  0  0  0  # atno 10763 bound_to 10752
  154.0342  135.2909  155.3365 H   0  0  0  0  0  0  0  0  0  0  0  0  # atno 10764 bound_to 10752
  154.6822  135.5315  153.8345 H   0  0  0  0  0  0  0  0  0  0  0  0  # atno 10765 bound_to 10752
  140.3943  134.1786  155.7663 H   0  0  0  0  0  0  0  0  0  0  0  0  # atno 11005 bound_to 11000
  144.6807  139.9897  143.7484 LP  0  0  0  0  0  0  0  0  0  0  0  0  # atno 17320 bound_to 7965
  146.0140  139.3194  143.0853 LP  0  0  0  0  0  0  0  0  0  0  0  0  # atno 17321 bound_to 7965
  140.5292  144.0756  150.6048 LP  0  0  0  0  0  0  0  0  0  0  0  0  # atno 17342 bound_to 10162
  140.3741  143.2838  152.0245 LP  0  0  0  0  0  0  0  0  0  0  0  0  # atno 17343 bound_to 10162
  157.7341  131.0585  150.5543 LP  0  0  0  0  0  0  0  0  0  0  0  0  # atno 17370 bound_to 10713
  156.5658  130.4267  149.6042 LP  0  0  0  0  0  0  0  0  0  0  0  0  # atno 17371 bound_to 10713
  141.1880  133.8270  157.1012 LP  0  0  0  0  0  0  0  0  0  0  0  0  # atno 17394 bound_to 11000
  140.0383  134.9867  157.0914 LP  0  0  0  0  0  0  0  0  0  0  0  0  # atno 17395 bound_to 11000

$$$$
