AV-unprocessed.smi:3017|AV-procd|sdf|11475|dock3
  -GOLD-   2272016413D 1   1.00000     0.00000
 Structure written by MMmdl.
 37 38  0  0  0  0  0  0  0  0  1 V2000
  151.1842  144.8234  161.4164 C   0  0  0  0  0  0  0  0  0  0  0  0
  151.7836  143.5591  160.7844 C   0  0  2  0  0  0  0  0  0  0  0  0
  152.6166  142.7589  161.8039 C   0  0  0  0  0  0  0  0  0  0  0  0
  153.2239  141.4969  161.1708 C   0  0  0  0  0  0  0  0  0  0  0  0
  154.0642  141.8436  159.9314 C   0  0  0  0  0  0  0  0  0  0  0  0
  153.2470  142.6424  158.8946 C   0  0  1  0  0  0  0  0  0  0  0  0
  152.1799  141.8644  158.3662 O   0  0  0  0  0  0  0  0  0  0  0  0
  151.2637  142.5817  157.5498 C   0  0  0  0  0  0  0  0  0  0  0  0
  150.4653  141.5892  156.7051 C   0  0  0  0  0  0  0  0  0  0  0  0
  150.8275  140.4140  156.6534 O   0  0  0  0  0  0  0  0  0  0  0  0
  149.4046  142.0926  156.0460 N   0  0  0  0  0  0  0  0  0  0  0  0
  148.4788  141.4066  155.2174 C   0  0  0  0  0  0  0  0  0  0  0  0
  147.1773  141.9587  155.1626 C   0  0  0  0  0  0  0  0  0  0  0  0
  146.1851  141.4157  154.4226 N   0  0  0  0  0  0  0  0  0  0  0  0
  146.4932  140.3022  153.7241 C   0  0  0  0  0  0  0  0  0  0  0  0
  147.7841  139.7388  153.7659 C   0  0  0  0  0  0  0  0  0  0  0  0
  148.7713  140.2868  154.5075 N   0  0  0  0  0  0  0  0  0  0  0  0
  152.6310  143.8975  159.5402 C   0  0  0  0  0  0  0  0  0  0  0  0
  151.9642  145.5027  161.7621 H   0  0  0  0  0  0  0  0  0  0  0  0
  150.5557  144.5743  162.2719 H   0  0  0  0  0  0  0  0  0  0  0  0
  150.5647  145.3635  160.7000 H   0  0  0  0  0  0  0  0  0  0  0  0
  150.9508  142.9306  160.4652 H   0  0  0  0  0  0  0  0  0  0  0  0
  153.4162  143.3859  162.2003 H   0  0  0  0  0  0  0  0  0  0  0  0
  151.9951  142.4771  162.6545 H   0  0  0  0  0  0  0  0  0  0  0  0
  153.8408  140.9756  161.9030 H   0  0  0  0  0  0  0  0  0  0  0  0
  152.4270  140.8064  160.8920 H   0  0  0  0  0  0  0  0  0  0  0  0
  154.9246  142.4384  160.2405 H   0  0  0  0  0  0  0  0  0  0  0  0
  154.4740  140.9348  159.4923 H   0  0  0  0  0  0  0  0  0  0  0  0
  153.8987  142.9636  158.0802 H   0  0  0  0  0  0  0  0  0  0  0  0
  150.5735  143.1582  158.1671 H   0  0  0  0  0  0  0  0  0  0  0  0
  151.7850  143.2767  156.8914 H   0  0  0  0  0  0  0  0  0  0  0  0
  149.2323  143.0797  156.1705 H   0  0  0  0  0  0  0  0  0  0  0  0
  146.9254  142.8490  155.7206 H   0  0  0  0  0  0  0  0  0  0  0  0
  145.7079  139.8590  153.1299 H   0  0  0  0  0  0  0  0  0  0  0  0
  148.0247  138.8479  153.2049 H   0  0  0  0  0  0  0  0  0  0  0  0
  152.0223  144.4255  158.8051 H   0  0  0  0  0  0  0  0  0  0  0  0
  153.4309  144.5835  159.8224 H   0  0  0  0  0  0  0  0  0  0  0  0
  1  2  1  0  0  0  0
  1 19  1  0  0  0  0
  1 20  1  0  0  0  0
  1 21  1  0  0  0  0
  2 18  1  0  0  0  0
  2  3  1  0  0  0  0
  2 22  1  0  0  0  0
  3  4  1  0  0  0  0
  3 23  1  0  0  0  0
  3 24  1  0  0  0  0
  4  5  1  0  0  0  0
  4 25  1  0  0  0  0
  4 26  1  0  0  0  0
  5  6  1  0  0  0  0
  5 27  1  0  0  0  0
  5 28  1  0  0  0  0
  6  7  1  0  0  0  0
  6 18  1  0  0  0  0
  6 29  1  0  0  0  0
  7  8  1  0  0  0  0
  8  9  1  0  0  0  0
  8 30  1  0  0  0  0
  8 31  1  0  0  0  0
  9 10  2  0  0  0  0
  9 11  1  0  0  0  0
 11 12  1  0  0  0  0
 11 32  1  0  0  0  0
 12 17  1  0  0  0  0
 12 13  2  0  0  0  0
 13 14  1  0  0  0  0
 13 33  1  0  0  0  0
 14 15  2  0  0  0  0
 15 16  1  0  0  0  0
 15 34  1  0  0  0  0
 16 17  2  0  0  0  0
 16 35  1  0  0  0  0
 18 36  1  0  0  0  0
 18 37  1  0  0  0  0
M  END
> <s_m_source_file>
AV-unprocessed.smi

> <i_m_source_file_index>
3017

> <i_lp_mmshare_version>
43012

> <i_f3d_flags>
0

> <s_epik_input>
W0NIM11bQ0BASF0xW0NIMl1bQ0gyXVtDSDJdW0NASF0oW0NIMl0xKU9bQ0gyXUMoPU8pW05IXWMyW2NIXW5bY0hdW2NIXW4y

> <s_epik_cmdline>
J2VwaWtfcHl0aG9uJywgJy1waCcsICc3LjAnLCAnLXRuJywgJzgnLCAnLW1hJywgJzIwMCcsICctbWV0YWxfYmluZGluZycsICctaW1hZScsICc8aW5maWxlLm1hZT4nLCAnLW9tYWUnLCAnPG91dGZpbGUubWFlPic=

> <r_lp_tautomer_probability>
1

> <r_epik_Ionization_Penalty>
2.89243e-06

> <r_epik_Ionization_Penalty_Charging>
0

> <r_epik_Ionization_Penalty_Neutral>
2.89243e-06

> <r_epik_State_Penalty>
-0

> <r_epik_Charging_Adjusted_Penalty>
0

> <i_epik_Tot_Q>
0

> <i_epik_Tot_abs_Q>
0

> <r_epik_Metal_State_Penalty>
-0

> <b_epik_Metal_Only>
0

> <s_lp_Force_Field>
OPLS_2005

> <r_lp_Energy>
20.5488

> <b_lp_Chiralities_Consistent>
1

> <s_lp_Variant>
AV-unprocessed.smi:3017-1

> <Gold.Version>
5.8.1

> <Gold.Id.Protein>
6NUR|6NUR_protein|mol2

> <Gold.PLP.Fitness>
47.6025

> <Gold.PLP.PLP>
-38.4829

> <Gold.PLP.part.hbond>
-1.0000

> <Gold.PLP.part.metal>
0.0000

> <Gold.PLP.part.buried>
-2.9980

> <Gold.PLP.part.nonpolar>
-35.7829

> <Gold.PLP.part.repulsive>
0.4712

> <Gold.PLP.ligand.clash>
0.0000

> <Gold.PLP.ligand.torsion>
0.4093

> <Gold.PLP.Chemscore.Hbond>
1.0000

> <Gold.PLP.Chemscore.CHOScore>
2.3098

> <Gold.PLP.Chemscore.Metal>
0.0000

> <Gold.Chemscore.Hbonds>
donor molecule, donor type, donor heavy atom, donor atom, acceptor molecule, acceptor atom, score
      L1  H    11    32       P1  8028  1.00
      L1  C    13    33       P1  8028  0.26
      L1  C    15    34       P1 10175  1.00
      L1  C    16    35       P1  7957  0.09

> <Gold.PLP.Chemscore.Internal.Correction>
0.0089

> <Gold.Rescore>
     Score         DG    S(hbond)    S(metal)    S(lipo)     H(rot)  DE(clash)    DE(int)     intcor
     14.90     -18.21       0.96        0.00     114.43       1.51       1.74       1.57       ----

> <Gold.Chemscore.Fitness>
14.9021

> <Gold.Chemscore.DG>
-18.2102

> <Gold.Chemscore.ZeroCoef>
-5.4800

> <Gold.Chemscore.Hbond>
0.9619

> <Gold.Chemscore.Metal>
0.0000

> <Gold.Chemscore.Lipo>
114.4268

> <Gold.Chemscore.Internal_Hbond>
0.0000

> <Gold.Chemscore.DEClash>
1.7365

> <Gold.Chemscore.DEInternal>
1.5715

> <Gold.Chemscore.Rot>
1.5119

> <Gold.Chemscore.Internal.Correction>
   9.000000E+99

> <Gold.Chemscore.Hbonds>
donor molecule, donor type, donor heavy atom, donor atom, acceptor molecule, acceptor atom, score
      L1  H    11    32       P1  8028  0.99

> <Gold.Chemscore.Hbond.Weighted>
-3.2128

> <Gold.Chemscore.Metal.Weighted>
-0.0000

> <Gold.Chemscore.Lipo.Weighted>
-13.3879

> <Gold.Chemscore.Internal_Hbond.Weighted>
0.0000

> <Gold.Chemscore.DEClash.Weighted>
1.7365

> <Gold.Chemscore.DEInternal.Weighted>
1.5715

> <Gold.Chemscore.Rot.Weighted>
3.8706

> <Gold.Chemscore.Internal.Correction.Weighted>
   9.000000E+99

> <Gold.Protein.RotatedTorsions>
[ 6907 6896 6895 6894 ] final -146.14 input  -60.11 | X-H torsion
[ 7974 7965 7964 7962 ] final   26.30 input  175.53 | X-H torsion
[ 8008 7997 7996 7995 ] final -123.42 input   59.86 | X-H torsion
[ 10167 10162 10161 10158 ] final   16.78 input  -65.29 | X-H torsion
[ 10718 10713 10712 10709 ] final  170.97 input   66.30 | X-H torsion
[ 10763 10752 10751 10750 ] final  -11.48 input  -60.55 | X-H torsion
[ 11005 11000 10999 10996 ] final    7.68 input  -57.11 | X-H torsion

> <Gold.Protein.ActiveResidues>
 VAL166  LYS551  ARG553  GLY616  TRP617  ASP618  TYR619  PRO620  LYS621  CYS622 
 ASP623  PHE694  ASN695  SER759  ASP760  ASP761  ALA762  ILE779  LEU786  VAL792 
 PHE793  MET794  SER795  GLU796  ALA797  LYS798  CYS799  TRP800  GLU811  SER814 

> <Gold.Protein.RotatedAtoms>
  151.1375  133.4994  159.2597 H   0  0  0  0  0  0  0  0  0  0  0  0  # atno 6907 bound_to 6896
  151.1690  135.0309  159.8753 H   0  0  0  0  0  0  0  0  0  0  0  0  # atno 6908 bound_to 6896
  152.5461  134.1241  159.8464 H   0  0  0  0  0  0  0  0  0  0  0  0  # atno 6909 bound_to 6896
  146.1845  139.7348  142.8877 H   0  0  0  0  0  0  0  0  0  0  0  0  # atno 7974 bound_to 7965
  155.1803  140.0410  157.2881 H   0  0  0  0  0  0  0  0  0  0  0  0  # atno 8008 bound_to 7997
  154.6208  140.2500  155.7524 H   0  0  0  0  0  0  0  0  0  0  0  0  # atno 8009 bound_to 7997
  156.2432  140.2895  156.0515 H   0  0  0  0  0  0  0  0  0  0  0  0  # atno 8010 bound_to 7997
  140.5773  143.9049  150.6760 H   0  0  0  0  0  0  0  0  0  0  0  0  # atno 10167 bound_to 10162
  157.0004  131.0174  151.2832 H   0  0  0  0  0  0  0  0  0  0  0  0  # atno 10718 bound_to 10713
  153.4844  135.7017  153.5919 H   0  0  0  0  0  0  0  0  0  0  0  0  # atno 10763 bound_to 10752
  153.4119  135.3846  155.2056 H   0  0  0  0  0  0  0  0  0  0  0  0  # atno 10764 bound_to 10752
  154.8720  135.3906  154.4297 H   0  0  0  0  0  0  0  0  0  0  0  0  # atno 10765 bound_to 10752
  140.5455  134.0333  155.7919 H   0  0  0  0  0  0  0  0  0  0  0  0  # atno 11005 bound_to 11000
  145.3980  141.0381  143.3086 LP  0  0  0  0  0  0  0  0  0  0  0  0  # atno 17320 bound_to 7965
  144.8372  139.5530  143.6917 LP  0  0  0  0  0  0  0  0  0  0  0  0  # atno 17321 bound_to 7965
  140.2539  143.3573  152.1382 LP  0  0  0  0  0  0  0  0  0  0  0  0  # atno 17342 bound_to 10162
  139.5150  144.6956  151.5640 LP  0  0  0  0  0  0  0  0  0  0  0  0  # atno 17343 bound_to 10162
  157.5394  130.8110  149.8011 LP  0  0  0  0  0  0  0  0  0  0  0  0  # atno 17370 bound_to 10713
  156.0173  130.3808  150.2070 LP  0  0  0  0  0  0  0  0  0  0  0  0  # atno 17371 bound_to 10713
  141.1202  133.9474  157.2744 LP  0  0  0  0  0  0  0  0  0  0  0  0  # atno 17394 bound_to 11000
  139.9482  135.0180  156.8914 LP  0  0  0  0  0  0  0  0  0  0  0  0  # atno 17395 bound_to 11000

$$$$
