AV-unprocessed.smi:517|AV-procd|sdf|2788|dock6
  -GOLD-   2262023263D 1   1.00000     0.00000
 Structure written by MMmdl.
 35 36  0  0  0  0  0  0  0  0  1 V2000
  146.4163  142.5694  153.9680 C   0  0  0  0  0  0  0  0  0  0  0  0
  147.8009  141.9620  154.2039 C   0  0  0  0  0  0  0  0  0  0  0  0
  147.9686  141.7472  155.5938 O   0  0  0  0  0  0  0  0  0  0  0  0
  149.1370  141.0062  155.9050 C   0  0  0  0  0  0  0  0  0  0  0  0
  150.2862  141.9755  156.2173 C   0  0  0  0  0  0  0  0  0  0  0  0
  151.3027  141.3655  157.0633 N   0  0  0  0  0  0  0  0  0  0  0  0
  152.0191  140.2336  156.8394 C   0  0  0  0  0  0  0  0  0  0  0  0
  151.8308  139.3959  155.6039 C   0  0  2  0  0  0  0  0  0  0  0  0
  151.6385  137.9120  155.9447 C   0  0  0  0  0  0  0  0  0  0  0  0
  152.9197  139.5037  154.7091 O   0  0  0  0  0  0  0  0  0  0  0  0
  152.8776  139.8956  157.8047 N   0  0  0  0  0  0  0  0  0  0  0  0
  152.7199  140.9114  158.7261 C   0  0  0  0  0  0  0  0  0  0  0  0
  153.3585  141.1328  159.9673 C   0  0  0  0  0  0  0  0  0  0  0  0
  153.0316  142.2615  160.7469 C   0  0  0  0  0  0  0  0  0  0  0  0
  152.0625  143.1821  160.2985 C   0  0  0  0  0  0  0  0  0  0  0  0
  151.4117  142.9779  159.0666 C   0  0  0  0  0  0  0  0  0  0  0  0
  151.7425  141.8500  158.2916 C   0  0  0  0  0  0  0  0  0  0  0  0
  146.2496  142.7614  152.9080 H   0  0  0  0  0  0  0  0  0  0  0  0
  146.3078  143.5140  154.5014 H   0  0  0  0  0  0  0  0  0  0  0  0
  145.6308  141.8974  154.3145 H   0  0  0  0  0  0  0  0  0  0  0  0
  147.8924  141.0199  153.6616 H   0  0  0  0  0  0  0  0  0  0  0  0
  148.5734  142.6365  153.8318 H   0  0  0  0  0  0  0  0  0  0  0  0
  148.9506  140.3637  156.7667 H   0  0  0  0  0  0  0  0  0  0  0  0
  149.4051  140.3602  155.0677 H   0  0  0  0  0  0  0  0  0  0  0  0
  150.7579  142.3012  155.2896 H   0  0  0  0  0  0  0  0  0  0  0  0
  149.9087  142.8792  156.6951 H   0  0  0  0  0  0  0  0  0  0  0  0
  150.9586  139.7524  155.0571 H   0  0  0  0  0  0  0  0  0  0  0  0
  150.7743  137.7676  156.5934 H   0  0  0  0  0  0  0  0  0  0  0  0
  152.5105  137.5068  156.4595 H   0  0  0  0  0  0  0  0  0  0  0  0
  151.4769  137.3183  155.0444 H   0  0  0  0  0  0  0  0  0  0  0  0
  152.8982  138.7633  154.1223 H   0  0  0  0  0  0  0  0  0  0  0  0
  154.1023  140.4334  160.3192 H   0  0  0  0  0  0  0  0  0  0  0  0
  153.5274  142.4225  161.6929 H   0  0  0  0  0  0  0  0  0  0  0  0
  151.8193  144.0456  160.9001 H   0  0  0  0  0  0  0  0  0  0  0  0
  150.6712  143.6826  158.7187 H   0  0  0  0  0  0  0  0  0  0  0  0
  1  2  1  0  0  0  0
  1 18  1  0  0  0  0
  1 19  1  0  0  0  0
  1 20  1  0  0  0  0
  2  3  1  0  0  0  0
  2 21  1  0  0  0  0
  2 22  1  0  0  0  0
  3  4  1  0  0  0  0
  4  5  1  0  0  0  0
  4 23  1  0  0  0  0
  4 24  1  0  0  0  0
  5  6  1  0  0  0  0
  5 25  1  0  0  0  0
  5 26  1  0  0  0  0
  6 17  1  0  0  0  0
  6  7  1  0  0  0  0
  7  8  1  0  0  0  0
  7 11  2  0  0  0  0
  8  9  1  0  0  0  0
  8 10  1  0  0  0  0
  8 27  1  0  0  0  0
  9 28  1  0  0  0  0
  9 29  1  0  0  0  0
  9 30  1  0  0  0  0
 10 31  1  0  0  0  0
 11 12  1  0  0  0  0
 12 17  2  0  0  0  0
 12 13  1  0  0  0  0
 13 14  2  0  0  0  0
 13 32  1  0  0  0  0
 14 15  1  0  0  0  0
 14 33  1  0  0  0  0
 15 16  2  0  0  0  0
 15 34  1  0  0  0  0
 16 17  1  0  0  0  0
 16 35  1  0  0  0  0
M  END
> <s_m_source_file>
AV-unprocessed.smi

> <i_m_source_file_index>
517

> <i_lp_mmshare_version>
43012

> <i_f3d_flags>
0

> <s_epik_input>
W0NIM11bQ0gyXU9bQ0gyXVtDSDJdbihjKG4xKVtDQEhdKFtDSDNdKVtPSF0pYyhjMTIpW2NIXVtjSF1bY0hdW2NIXTI=

> <s_epik_cmdline>
J2VwaWtfcHl0aG9uJywgJy1waCcsICc3LjAnLCAnLXRuJywgJzgnLCAnLW1hJywgJzIwMCcsICctbWV0YWxfYmluZGluZycsICctaW1hZScsICc8aW5maWxlLm1hZT4nLCAnLW9tYWUnLCAnPG91dGZpbGUubWFlPic=

> <r_epik_Ionization_Penalty>
0.0517997

> <r_epik_Ionization_Penalty_Charging>
0

> <r_epik_Ionization_Penalty_Neutral>
0.0517997

> <r_epik_State_Penalty>
0.0443961

> <r_epik_Charging_Adjusted_Penalty>
0.0443961

> <i_epik_Tot_Q>
0

> <i_epik_Tot_abs_Q>
0

> <r_epik_Metal_State_Penalty>
4.60999e-05

> <b_epik_Metal_Only>
0

> <s_lp_Force_Field>
OPLS_2005

> <r_lp_Energy>
5.78947

> <b_lp_Chiralities_Consistent>
1

> <s_lp_Variant>
AV-unprocessed.smi:517-1

> <Gold.Version>
5.8.1

> <Gold.Id.Protein>
6NUR|6NUR_protein|mol2

> <Gold.PLP.Fitness>
41.3463

> <Gold.PLP.PLP>
-37.7859

> <Gold.PLP.part.hbond>
-3.0000

> <Gold.PLP.part.metal>
0.0000

> <Gold.PLP.part.buried>
-3.4010

> <Gold.PLP.part.nonpolar>
-30.7078

> <Gold.PLP.part.repulsive>
0.1171

> <Gold.PLP.ligand.clash>
0.0000

> <Gold.PLP.ligand.torsion>
0.6441

> <Gold.PLP.Chemscore.Hbond>
1.6068

> <Gold.PLP.Chemscore.CHOScore>
0.0000

> <Gold.PLP.Chemscore.Metal>
0.0000

> <Gold.Chemscore.Hbonds>
donor molecule, donor type, donor heavy atom, donor atom, acceptor molecule, acceptor atom, score
      P1  H  7989  7998       L1    10  0.09
      P1  H  7997  8009       L1    11  0.48
      P1  H  7997  8010       L1    10  0.66

> <Gold.PLP.Chemscore.Internal.Correction>
0.0283

> <Gold.Rescore>
     Score         DG    S(hbond)    S(metal)    S(lipo)     H(rot)  DE(clash)    DE(int)     intcor
     15.43     -15.72       1.22        0.00      98.87       2.11       0.08       0.21       ----

> <Gold.Chemscore.Fitness>
15.4264

> <Gold.Chemscore.DG>
-15.7179

> <Gold.Chemscore.ZeroCoef>
-5.4800

> <Gold.Chemscore.Hbond>
1.2153

> <Gold.Chemscore.Metal>
0.0000

> <Gold.Chemscore.Lipo>
98.8737

> <Gold.Chemscore.Internal_Hbond>
0.0000

> <Gold.Chemscore.DEClash>
0.0833

> <Gold.Chemscore.DEInternal>
0.2082

> <Gold.Chemscore.Rot>
2.1052

> <Gold.Chemscore.Internal.Correction>
   9.000000E+99

> <Gold.Chemscore.Hbonds>
donor molecule, donor type, donor heavy atom, donor atom, acceptor molecule, acceptor atom, score
      P1  H  7997  8009       L1    11  0.19
      P1  H  7997  8010       L1    10  0.58

> <Gold.Chemscore.Hbond.Weighted>
-4.0591

> <Gold.Chemscore.Metal.Weighted>
-0.0000

> <Gold.Chemscore.Lipo.Weighted>
-11.5682

> <Gold.Chemscore.Internal_Hbond.Weighted>
0.0000

> <Gold.Chemscore.DEClash.Weighted>
0.0833

> <Gold.Chemscore.DEInternal.Weighted>
0.2082

> <Gold.Chemscore.Rot.Weighted>
5.3894

> <Gold.Chemscore.Internal.Correction.Weighted>
   9.000000E+99

> <Gold.Protein.RotatedTorsions>
[ 6907 6896 6895 6894 ] final  127.85 input  -60.11 | X-H torsion
[ 7974 7965 7964 7962 ] final   83.65 input  175.53 | X-H torsion
[ 8008 7997 7996 7995 ] final  131.68 input   59.86 | X-H torsion
[ 10167 10162 10161 10158 ] final   65.65 input  -65.29 | X-H torsion
[ 10718 10713 10712 10709 ] final -122.43 input   66.30 | X-H torsion
[ 10763 10752 10751 10750 ] final  113.54 input  -60.55 | X-H torsion
[ 11005 11000 10999 10996 ] final -142.86 input  -57.11 | X-H torsion

> <Gold.Protein.ActiveResidues>
 VAL166  LYS551  ARG553  GLY616  TRP617  ASP618  TYR619  PRO620  LYS621  CYS622 
 ASP623  PHE694  ASN695  SER759  ASP760  ASP761  ALA762  ILE779  LEU786  VAL792 
 PHE793  MET794  SER795  GLU796  ALA797  LYS798  CYS799  TRP800  GLU811  SER814 

> <Gold.Protein.RotatedAtoms>
  152.3774  133.6500  159.6134 H   0  0  0  0  0  0  0  0  0  0  0  0  # atno 6907 bound_to 6896
  150.7715  133.9170  159.3395 H   0  0  0  0  0  0  0  0  0  0  0  0  # atno 6908 bound_to 6896
  151.6982  135.0936  160.0297 H   0  0  0  0  0  0  0  0  0  0  0  0  # atno 6909 bound_to 6896
  145.6091  139.2365  143.2202 H   0  0  0  0  0  0  0  0  0  0  0  0  # atno 7974 bound_to 7965
  156.2973  140.2565  156.2965 H   0  0  0  0  0  0  0  0  0  0  0  0  # atno 8008 bound_to 7997
  154.9459  140.0395  157.2138 H   0  0  0  0  0  0  0  0  0  0  0  0  # atno 8009 bound_to 7997
  154.8082  140.2840  155.5876 H   0  0  0  0  0  0  0  0  0  0  0  0  # atno 8010 bound_to 7997
  140.1090  144.4835  150.6990 H   0  0  0  0  0  0  0  0  0  0  0  0  # atno 10167 bound_to 10162
  156.1418  130.6471  150.9782 H   0  0  0  0  0  0  0  0  0  0  0  0  # atno 10718 bound_to 10713
  153.4940  135.3652  155.2506 H   0  0  0  0  0  0  0  0  0  0  0  0  # atno 10763 bound_to 10752
  154.8751  135.3984  154.3556 H   0  0  0  0  0  0  0  0  0  0  0  0  # atno 10764 bound_to 10752
  153.4180  135.7079  153.6379 H   0  0  0  0  0  0  0  0  0  0  0  0  # atno 10765 bound_to 10752
  140.8183  134.2661  157.4911 H   0  0  0  0  0  0  0  0  0  0  0  0  # atno 11005 bound_to 11000
  146.1518  140.6915  142.9318 LP  0  0  0  0  0  0  0  0  0  0  0  0  # atno 17320 bound_to 7965
  144.7277  140.4576  143.6961 LP  0  0  0  0  0  0  0  0  0  0  0  0  # atno 17321 bound_to 7965
  140.6936  143.2390  151.5062 LP  0  0  0  0  0  0  0  0  0  0  0  0  # atno 17342 bound_to 10162
  139.5630  144.2111  152.1720 LP  0  0  0  0  0  0  0  0  0  0  0  0  # atno 17343 bound_to 10162
  157.6582  131.0885  150.7899 LP  0  0  0  0  0  0  0  0  0  0  0  0  # atno 17370 bound_to 10713
  156.7974  130.4910  149.5375 LP  0  0  0  0  0  0  0  0  0  0  0  0  # atno 17371 bound_to 10713
  139.8710  134.9521  156.4106 LP  0  0  0  0  0  0  0  0  0  0  0  0  # atno 17394 bound_to 11000
  140.9125  133.7701  155.9809 LP  0  0  0  0  0  0  0  0  0  0  0  0  # atno 17395 bound_to 11000

$$$$
