AV-unprocessed.smi:2188|AV-procd|sdf|8882|dock3
  -GOLD-   2272012 83D 1   1.00000     0.00000
 Structure written by MMmdl.
 38 40  0  0  0  0  0  0  0  0  2 V2000
  152.4654  140.2028  157.4175 O   0  0  0  0  0  0  0  0  0  0  0  0
  152.0541  141.1523  158.0974 C   0  0  0  0  0  0  0  0  0  0  0  0
  151.1137  142.0598  157.6882 N   0  5  0  0  0  0  0  0  0  0  0  0
  149.9209  141.7550  156.8969 C   0  0  0  0  0  0  0  0  0  0  0  0
  150.3416  141.1864  155.5267 C   0  0  0  0  0  0  0  0  0  0  0  0
  149.1729  140.7089  154.6750 C   0  0  0  0  0  0  0  0  0  0  0  0
  149.0519  139.3519  154.3028 C   0  0  0  0  0  0  0  0  0  0  0  0
  147.9602  138.9595  153.5049 C   0  0  0  0  0  0  0  0  0  0  0  0
  147.0339  139.9433  153.1061 C   0  0  0  0  0  0  0  0  0  0  0  0
  147.1401  141.2451  153.4487 N   0  0  0  0  0  0  0  0  0  0  0  0
  148.1894  141.6133  154.2155 C   0  0  0  0  0  0  0  0  0  0  0  0
  152.6208  141.3661  159.4454 C   0  0  0  0  0  0  0  0  0  0  0  0
  152.4504  142.5787  160.0368 C   0  0  0  0  0  0  0  0  0  0  0  0
  152.9583  142.8631  161.3554 C   0  0  0  0  0  0  0  0  0  0  0  0
  153.6428  141.9030  161.9850 C   0  0  0  0  0  0  0  0  0  0  0  0
  153.8856  140.6485  161.4287 N   0  0  0  0  0  0  0  0  0  0  0  0
  154.7351  139.7411  162.1928 C   0  0  0  0  0  0  0  0  0  0  0  0
  154.1892  138.3265  162.1299 C   0  0  0  0  0  0  0  0  0  0  0  0
  154.2853  137.8355  160.3716 S   0  0  0  0  0  0  0  0  0  0  0  0
  155.6952  137.9028  159.9561 O   0  0  0  0  0  0  0  0  0  0  0  0
  153.5448  136.5753  160.2084 O   0  0  0  0  0  0  0  0  0  0  0  0
  153.4383  139.0922  159.6591 N   0  0  0  0  0  0  0  0  0  0  0  0
  153.3447  140.2919  160.1605 C   0  0  0  0  0  0  0  0  0  0  0  0
  149.2711  141.0289  157.3877 H   0  0  0  0  0  0  0  0  0  0  0  0
  149.3093  142.6444  156.7416 H   0  0  0  0  0  0  0  0  0  0  0  0
  150.8958  141.9410  154.9664 H   0  0  0  0  0  0  0  0  0  0  0  0
  151.0279  140.3499  155.6682 H   0  0  0  0  0  0  0  0  0  0  0  0
  149.7808  138.6236  154.6270 H   0  0  0  0  0  0  0  0  0  0  0  0
  147.8360  137.9290  153.2065 H   0  0  0  0  0  0  0  0  0  0  0  0
  146.1855  139.6770  152.4934 H   0  0  0  0  0  0  0  0  0  0  0  0
  148.2454  142.6616  154.4703 H   0  0  0  0  0  0  0  0  0  0  0  0
  151.9321  143.3793  159.5282 H   0  0  0  0  0  0  0  0  0  0  0  0
  152.7905  143.8237  161.8194 H   0  0  0  0  0  0  0  0  0  0  0  0
  154.0497  142.0571  162.9738 H   0  0  0  0  0  0  0  0  0  0  0  0
  155.7522  139.7835  161.8018 H   0  0  0  0  0  0  0  0  0  0  0  0
  154.7899  140.0499  163.2371 H   0  0  0  0  0  0  0  0  0  0  0  0
  154.7876  137.6334  162.7206 H   0  0  0  0  0  0  0  0  0  0  0  0
  153.1535  138.2691  162.4669 H   0  0  0  0  0  0  0  0  0  0  0  0
  1  2  2  0  0  0  0
  2  3  1  0  0  0  0
  2 12  1  0  0  0  0
  3  4  1  0  0  0  0
  4  5  1  0  0  0  0
  4 24  1  0  0  0  0
  4 25  1  0  0  0  0
  5  6  1  0  0  0  0
  5 26  1  0  0  0  0
  5 27  1  0  0  0  0
  6 11  1  0  0  0  0
  6  7  2  0  0  0  0
  7  8  1  0  0  0  0
  7 28  1  0  0  0  0
  8  9  2  0  0  0  0
  8 29  1  0  0  0  0
  9 10  1  0  0  0  0
  9 30  1  0  0  0  0
 10 11  2  0  0  0  0
 11 31  1  0  0  0  0
 12 23  1  0  0  0  0
 12 13  2  0  0  0  0
 13 14  1  0  0  0  0
 13 32  1  0  0  0  0
 14 15  2  0  0  0  0
 14 33  1  0  0  0  0
 15 16  1  0  0  0  0
 15 34  1  0  0  0  0
 16 23  1  0  0  0  0
 16 17  1  0  0  0  0
 17 18  1  0  0  0  0
 17 35  1  0  0  0  0
 17 36  1  0  0  0  0
 18 19  1  0  0  0  0
 18 37  1  0  0  0  0
 18 38  1  0  0  0  0
 19 20  2  0  0  0  0
 19 21  2  0  0  0  0
 19 22  1  0  0  0  0
 22 23  2  0  0  0  0
M  CHG  1   3  -1
M  END
> <s_m_source_file>
AV-unprocessed.smi

> <i_m_source_file_index>
2188

> <i_lp_mmshare_version>
43012

> <i_f3d_flags>
0

> <s_epik_input>
W0NIMl0xW0NIMl1TKD1PKSg9TylOPUMoTjEyKUMoPVtDSF1bQ0hdPVtDSF0yKUMoPU8pW05IXVtDSDJdW0NIMl1jM1tjSF1bY0hdW2NIXW5bY0hdMw==

> <s_epik_cmdline>
J2VwaWtfcHl0aG9uJywgJy1waCcsICc3LjAnLCAnLXRuJywgJzgnLCAnLW1hJywgJzIwMCcsICctbWV0YWxfYmluZGluZycsICctaW1hZScsICc8aW5maWxlLm1hZT4nLCAnLW9tYWUnLCAnPG91dGZpbGUubWFlPic=

> <r_epik_Ionization_Penalty>
5.61471

> <r_epik_Ionization_Penalty_Charging>
5.5942

> <r_epik_Ionization_Penalty_Neutral>
0.0205175

> <r_epik_State_Penalty>
5.60129

> <r_epik_Charging_Adjusted_Penalty>
11.1955

> <i_epik_Tot_Q>
-1

> <i_epik_Tot_abs_Q>
1

> <r_epik_Metal_State_Penalty>
1.60393

> <b_epik_Metal_Only>
1

> <s_lp_Force_Field>
OPLS_2005

> <r_lp_Energy>
34.9518

> <b_lp_Chiralities_Consistent>
1

> <s_lp_Variant>
AV-unprocessed.smi:2188-3

> <Gold.Version>
5.8.1

> <Gold.Id.Protein>
6NUR|6NUR_protein|mol2

> <Gold.PLP.Fitness>
55.2597

> <Gold.PLP.PLP>
-43.8493

> <Gold.PLP.part.hbond>
-2.0000

> <Gold.PLP.part.metal>
0.0000

> <Gold.PLP.part.buried>
-3.5006

> <Gold.PLP.part.nonpolar>
-38.5954

> <Gold.PLP.part.repulsive>
0.2259

> <Gold.PLP.ligand.clash>
0.0000

> <Gold.PLP.ligand.torsion>
0.4411

> <Gold.PLP.Chemscore.Hbond>
2.0000

> <Gold.PLP.Chemscore.CHOScore>
2.0000

> <Gold.PLP.Chemscore.Metal>
0.0000

> <Gold.Chemscore.Hbonds>
donor molecule, donor type, donor heavy atom, donor atom, acceptor molecule, acceptor atom, score
      P1  H  6896  6907       L1    21  0.78
      P1  H  7997  8009       L1     1  0.93
      L1  C     9    30       P1 10175  0.77
      L1  C    11    31       P1  8028  1.00

> <Gold.PLP.Chemscore.Internal.Correction>
0.2927

> <Gold.Rescore>
     Score         DG    S(hbond)    S(metal)    S(lipo)     H(rot)  DE(clash)    DE(int)     intcor
     16.38     -19.38       1.76        0.00     100.11       1.44       0.06       2.94       ----

> <Gold.Chemscore.Fitness>
16.3767

> <Gold.Chemscore.DG>
-19.3785

> <Gold.Chemscore.ZeroCoef>
-5.4800

> <Gold.Chemscore.Hbond>
1.7605

> <Gold.Chemscore.Metal>
0.0000

> <Gold.Chemscore.Lipo>
100.1142

> <Gold.Chemscore.Internal_Hbond>
0.0000

> <Gold.Chemscore.DEClash>
0.0646

> <Gold.Chemscore.DEInternal>
2.9372

> <Gold.Chemscore.Rot>
1.4433

> <Gold.Chemscore.Internal.Correction>
   9.000000E+99

> <Gold.Chemscore.Hbonds>
donor molecule, donor type, donor heavy atom, donor atom, acceptor molecule, acceptor atom, score
      P1  H  6896  6907       L1    21  0.77
      P1  H  7997  8009       L1     1  0.84

> <Gold.Chemscore.Hbond.Weighted>
-5.8800

> <Gold.Chemscore.Metal.Weighted>
-0.0000

> <Gold.Chemscore.Lipo.Weighted>
-11.7134

> <Gold.Chemscore.Internal_Hbond.Weighted>
0.0000

> <Gold.Chemscore.DEClash.Weighted>
0.0646

> <Gold.Chemscore.DEInternal.Weighted>
2.9372

> <Gold.Chemscore.Rot.Weighted>
3.6949

> <Gold.Chemscore.Internal.Correction.Weighted>
   9.000000E+99

> <Gold.Protein.RotatedTorsions>
[ 6907 6896 6895 6894 ] final   44.01 input  -60.11 | X-H torsion
[ 7974 7965 7964 7962 ] final -161.46 input  175.53 | X-H torsion
[ 8008 7997 7996 7995 ] final -179.44 input   59.86 | X-H torsion
[ 10167 10162 10161 10158 ] final -117.67 input  -65.29 | X-H torsion
[ 10718 10713 10712 10709 ] final   62.67 input   66.30 | X-H torsion
[ 10763 10752 10751 10750 ] final -169.64 input  -60.55 | X-H torsion
[ 11005 11000 10999 10996 ] final -149.65 input  -57.11 | X-H torsion

> <Gold.Protein.ActiveResidues>
 VAL166  LYS551  ARG553  GLY616  TRP617  ASP618  TYR619  PRO620  LYS621  CYS622 
 ASP623  PHE694  ASN695  SER759  ASP760  ASP761  ALA762  ILE779  LEU786  VAL792 
 PHE793  MET794  SER795  GLU796  ALA797  LYS798  CYS799  TRP800  GLU811  SER814 

> <Gold.Protein.RotatedAtoms>
  152.2273  134.8355  160.0477 H   0  0  0  0  0  0  0  0  0  0  0  0  # atno 6907 bound_to 6896
  151.9117  133.3558  159.3874 H   0  0  0  0  0  0  0  0  0  0  0  0  # atno 6908 bound_to 6896
  150.7016  134.4651  159.5443 H   0  0  0  0  0  0  0  0  0  0  0  0  # atno 6909 bound_to 6896
  144.7390  140.3395  143.6137 H   0  0  0  0  0  0  0  0  0  0  0  0  # atno 7974 bound_to 7965
  156.0305  140.1281  157.0263 H   0  0  0  0  0  0  0  0  0  0  0  0  # atno 8008 bound_to 7997
  154.4348  140.1050  156.6162 H   0  0  0  0  0  0  0  0  0  0  0  0  # atno 8009 bound_to 7997
  155.5814  140.3468  155.4543 H   0  0  0  0  0  0  0  0  0  0  0  0  # atno 8010 bound_to 7997
  140.0659  143.4924  152.2006 H   0  0  0  0  0  0  0  0  0  0  0  0  # atno 10167 bound_to 10162
  157.5917  130.9063  149.9617 H   0  0  0  0  0  0  0  0  0  0  0  0  # atno 10718 bound_to 10713
  154.6501  135.2910  154.9998 H   0  0  0  0  0  0  0  0  0  0  0  0  # atno 10763 bound_to 10752
  154.1094  135.6565  153.4886 H   0  0  0  0  0  0  0  0  0  0  0  0  # atno 10764 bound_to 10752
  153.0372  135.5261  154.7405 H   0  0  0  0  0  0  0  0  0  0  0  0  # atno 10765 bound_to 10752
  140.7485  134.3433  157.5131 H   0  0  0  0  0  0  0  0  0  0  0  0  # atno 11005 bound_to 11000
  145.7389  139.1758  143.2387 LP  0  0  0  0  0  0  0  0  0  0  0  0  # atno 17320 bound_to 7965
  146.1149  140.7382  142.9485 LP  0  0  0  0  0  0  0  0  0  0  0  0  # atno 17321 bound_to 7965
  139.5865  144.7533  151.3506 LP  0  0  0  0  0  0  0  0  0  0  0  0  # atno 17342 bound_to 10162
  140.7149  143.7292  150.7637 LP  0  0  0  0  0  0  0  0  0  0  0  0  # atno 17343 bound_to 10162
  156.0973  130.3658  150.0283 LP  0  0  0  0  0  0  0  0  0  0  0  0  # atno 17370 bound_to 10713
  156.8405  130.9424  151.3632 LP  0  0  0  0  0  0  0  0  0  0  0  0  # atno 17371 bound_to 10713
  139.8792  134.9127  156.3066 LP  0  0  0  0  0  0  0  0  0  0  0  0  # atno 17394 bound_to 11000
  140.9772  133.7290  156.0620 LP  0  0  0  0  0  0  0  0  0  0  0  0  # atno 17395 bound_to 11000

$$$$
