AV-unprocessed.smi:539|AV-procd|sdf|2868|dock10
  -GOLD-   2262023363D 1   1.00000     0.00000
 Structure written by MMmdl.
 39 41  0  0  0  0  0  0  0  0  2 V2000
  147.7599  141.1177  153.8171 C   0  0  0  0  0  0  0  0  0  0  0  0
  149.0467  141.5785  154.1864 O   0  0  0  0  0  0  0  0  0  0  0  0
  149.3537  141.3139  155.5453 C   0  0  0  0  0  0  0  0  0  0  0  0
  150.6961  141.9641  155.9140 C   0  0  0  0  0  0  0  0  0  0  0  0
  151.4643  141.1442  156.8515 N   0  0  0  0  0  0  0  0  0  0  0  0
  151.9842  141.4896  158.0678 C   0  0  0  0  0  0  0  0  0  0  0  0
  151.8422  142.7519  158.6652 N   0  0  0  0  0  0  0  0  0  0  0  0
  151.9625  143.1651  160.0644 C   0  0  0  0  0  0  0  0  0  0  0  0
  152.0639  144.6879  160.1147 C   0  0  0  0  0  0  0  0  0  0  0  0
  151.2980  145.0993  158.8770 C   0  0  0  0  0  0  0  0  0  0  0  0
  151.6754  143.9887  157.9036 C   0  0  0  0  0  0  0  0  0  0  0  0
  152.6836  140.5167  158.6567 N   0  0  0  0  0  0  0  0  0  0  0  0
  152.5998  139.4670  157.7600 C   0  0  0  0  0  0  0  0  0  0  0  0
  151.8808  139.8171  156.6607 C   0  0  0  0  0  0  0  0  0  0  0  0
  151.6543  138.9046  155.5125 C   0  0  0  0  0  0  0  0  0  0  0  0
  151.0298  139.2661  154.5178 O   0  0  0  0  0  0  0  0  0  0  0  0
  152.2153  137.6699  155.7106 N   0  5  0  0  0  0  0  0  0  0  0  0
  152.9379  137.2752  156.8146 C   0  0  0  0  0  0  0  0  0  0  0  0
  153.4042  136.1395  156.9148 O   0  0  0  0  0  0  0  0  0  0  0  0
  153.1510  138.1591  157.8383 N   0  0  0  0  0  0  0  0  0  0  0  0
  153.9239  137.7712  159.0219 C   0  0  0  0  0  0  0  0  0  0  0  0
  147.5788  141.3442  152.7665 H   0  0  0  0  0  0  0  0  0  0  0  0
  146.9825  141.6062  154.4059 H   0  0  0  0  0  0  0  0  0  0  0  0
  147.6745  140.0384  153.9488 H   0  0  0  0  0  0  0  0  0  0  0  0
  148.5587  141.7041  156.1818 H   0  0  0  0  0  0  0  0  0  0  0  0
  149.4070  140.2373  155.7129 H   0  0  0  0  0  0  0  0  0  0  0  0
  151.2860  142.1733  155.0277 H   0  0  0  0  0  0  0  0  0  0  0  0
  150.5268  142.9512  156.3350 H   0  0  0  0  0  0  0  0  0  0  0  0
  151.0760  142.8430  160.6097 H   0  0  0  0  0  0  0  0  0  0  0  0
  152.8378  142.7140  160.5320 H   0  0  0  0  0  0  0  0  0  0  0  0
  151.6581  145.1126  161.0333 H   0  0  0  0  0  0  0  0  0  0  0  0
  153.1066  144.9967  160.0270 H   0  0  0  0  0  0  0  0  0  0  0  0
  150.2253  145.0798  159.0747 H   0  0  0  0  0  0  0  0  0  0  0  0
  151.5642  146.0929  158.5154 H   0  0  0  0  0  0  0  0  0  0  0  0
  152.6200  144.2217  157.4103 H   0  0  0  0  0  0  0  0  0  0  0  0
  150.9175  143.8715  157.1281 H   0  0  0  0  0  0  0  0  0  0  0  0
  154.9069  137.3947  158.7343 H   0  0  0  0  0  0  0  0  0  0  0  0
  153.4049  136.9852  159.5722 H   0  0  0  0  0  0  0  0  0  0  0  0
  154.0866  138.6013  159.7093 H   0  0  0  0  0  0  0  0  0  0  0  0
  1  2  1  0  0  0  0
  1 22  1  0  0  0  0
  1 23  1  0  0  0  0
  1 24  1  0  0  0  0
  2  3  1  0  0  0  0
  3  4  1  0  0  0  0
  3 25  1  0  0  0  0
  3 26  1  0  0  0  0
  4  5  1  0  0  0  0
  4 27  1  0  0  0  0
  4 28  1  0  0  0  0
  5 14  1  0  0  0  0
  5  6  1  0  0  0  0
  6  7  1  0  0  0  0
  6 12  2  0  0  0  0
  7 11  1  0  0  0  0
  7  8  1  0  0  0  0
  8  9  1  0  0  0  0
  8 29  1  0  0  0  0
  8 30  1  0  0  0  0
  9 10  1  0  0  0  0
  9 31  1  0  0  0  0
  9 32  1  0  0  0  0
 10 11  1  0  0  0  0
 10 33  1  0  0  0  0
 10 34  1  0  0  0  0
 11 35  1  0  0  0  0
 11 36  1  0  0  0  0
 12 13  1  0  0  0  0
 13 20  1  0  0  0  0
 13 14  2  0  0  0  0
 14 15  1  0  0  0  0
 15 16  2  0  0  0  0
 15 17  1  0  0  0  0
 17 18  1  0  0  0  0
 18 19  2  0  0  0  0
 18 20  1  0  0  0  0
 20 21  1  0  0  0  0
 21 37  1  0  0  0  0
 21 38  1  0  0  0  0
 21 39  1  0  0  0  0
M  CHG  1  17  -1
M  END
> <s_m_source_file>
AV-unprocessed.smi

> <i_m_source_file_index>
539

> <i_lp_mmshare_version>
43012

> <i_f3d_flags>
0

> <s_epik_input>
W0NIM11uMWMoPU8pW25IXWMoPU8pYyhjMTIpbihbQ0gyXVtDSDJdT1tDSDNdKWMobjIpTjNbQ0gyXVtDSDJdW0NIMl1bQ0gyXTM=

> <s_epik_cmdline>
J2VwaWtfcHl0aG9uJywgJy1waCcsICc3LjAnLCAnLXRuJywgJzgnLCAnLW1hJywgJzIwMCcsICctbWV0YWxfYmluZGluZycsICctaW1hZScsICc8aW5maWxlLm1hZT4nLCAnLW9tYWUnLCAnPG91dGZpbGUubWFlPic=

> <r_lp_tautomer_probability>
1

> <r_epik_Ionization_Penalty>
6.13244

> <r_epik_Ionization_Penalty_Charging>
0.078064

> <r_epik_Ionization_Penalty_Neutral>
6.05438

> <r_epik_State_Penalty>
6.05106

> <r_epik_Charging_Adjusted_Penalty>
6.12912

> <i_epik_Tot_Q>
-1

> <i_epik_Tot_abs_Q>
1

> <r_epik_Metal_State_Penalty>
2.00027

> <b_epik_Metal_Only>
1

> <s_lp_Force_Field>
OPLS_2005

> <r_lp_Energy>
49.7723

> <b_lp_Chiralities_Consistent>
1

> <s_lp_Variant>
AV-unprocessed.smi:539-2

> <Gold.Version>
5.8.1

> <Gold.Id.Protein>
6NUR|6NUR_protein|mol2

> <Gold.PLP.Fitness>
48.0122

> <Gold.PLP.PLP>
-41.3793

> <Gold.PLP.part.hbond>
-3.6614

> <Gold.PLP.part.metal>
0.0000

> <Gold.PLP.part.buried>
-6.7724

> <Gold.PLP.part.nonpolar>
-31.6714

> <Gold.PLP.part.repulsive>
0.3386

> <Gold.PLP.ligand.clash>
0.0000

> <Gold.PLP.ligand.torsion>
0.5518

> <Gold.PLP.Chemscore.Hbond>
2.5710

> <Gold.PLP.Chemscore.CHOScore>
0.0000

> <Gold.PLP.Chemscore.Metal>
0.0000

> <Gold.Chemscore.Hbonds>
donor molecule, donor type, donor heavy atom, donor atom, acceptor molecule, acceptor atom, score
      P1  H  7989  7998       L1    16  1.00
      P1  H  8011  8017       L1     2  0.41
      P1  H 10752 10763       L1    19  0.91

> <Gold.PLP.Chemscore.Internal.Correction>
0.0236

> <Gold.Rescore>
     Score         DG    S(hbond)    S(metal)    S(lipo)     H(rot)  DE(clash)    DE(int)     intcor
     15.66     -17.51       1.95        0.00      79.82       1.50       0.20       1.65       ----

> <Gold.Chemscore.Fitness>
15.6573

> <Gold.Chemscore.DG>
-17.5094

> <Gold.Chemscore.ZeroCoef>
-5.4800

> <Gold.Chemscore.Hbond>
1.9521

> <Gold.Chemscore.Metal>
0.0000

> <Gold.Chemscore.Lipo>
79.8158

> <Gold.Chemscore.Internal_Hbond>
0.0000

> <Gold.Chemscore.DEClash>
0.1978

> <Gold.Chemscore.DEInternal>
1.6543

> <Gold.Chemscore.Rot>
1.4957

> <Gold.Chemscore.Internal.Correction>
   9.000000E+99

> <Gold.Chemscore.Hbonds>
donor molecule, donor type, donor heavy atom, donor atom, acceptor molecule, acceptor atom, score
      P1  H  7989  7998       L1    16  0.95
      P1  H  8011  8017       L1     2  0.16
      P1  H 10752 10763       L1    19  0.49

> <Gold.Chemscore.Hbond.Weighted>
-6.5199

> <Gold.Chemscore.Metal.Weighted>
-0.0000

> <Gold.Chemscore.Lipo.Weighted>
-9.3384

> <Gold.Chemscore.Internal_Hbond.Weighted>
0.0000

> <Gold.Chemscore.DEClash.Weighted>
0.1978

> <Gold.Chemscore.DEInternal.Weighted>
1.6543

> <Gold.Chemscore.Rot.Weighted>
3.8290

> <Gold.Chemscore.Internal.Correction.Weighted>
   9.000000E+99

> <Gold.Protein.RotatedTorsions>
[ 6907 6896 6895 6894 ] final   51.75 input  -60.11 | X-H torsion
[ 7974 7965 7964 7962 ] final    3.27 input  175.53 | X-H torsion
[ 8008 7997 7996 7995 ] final  -45.01 input   59.86 | X-H torsion
[ 10167 10162 10161 10158 ] final -134.16 input  -65.29 | X-H torsion
[ 10718 10713 10712 10709 ] final   54.84 input   66.30 | X-H torsion
[ 10763 10752 10751 10750 ] final  103.46 input  -60.55 | X-H torsion
[ 11005 11000 10999 10996 ] final   15.97 input  -57.11 | X-H torsion

> <Gold.Protein.ActiveResidues>
 VAL166  LYS551  ARG553  GLY616  TRP617  ASP618  TYR619  PRO620  LYS621  CYS622 
 ASP623  PHE694  ASN695  SER759  ASP760  ASP761  ALA762  ILE779  LEU786  VAL792 
 PHE793  MET794  SER795  GLU796  ALA797  LYS798  CYS799  TRP800  GLU811  SER814 

> <Gold.Protein.RotatedAtoms>
  152.3160  134.7439  160.0324 H   0  0  0  0  0  0  0  0  0  0  0  0  # atno 6907 bound_to 6896
  151.7903  133.3353  159.3505 H   0  0  0  0  0  0  0  0  0  0  0  0  # atno 6908 bound_to 6896
  150.7345  134.5779  159.5968 H   0  0  0  0  0  0  0  0  0  0  0  0  # atno 6909 bound_to 6896
  146.2445  140.0710  142.8362 H   0  0  0  0  0  0  0  0  0  0  0  0  # atno 7974 bound_to 7965
  154.3999  140.1407  156.3777 H   0  0  0  0  0  0  0  0  0  0  0  0  # atno 8008 bound_to 7997
  155.8033  140.3475  155.5394 H   0  0  0  0  0  0  0  0  0  0  0  0  # atno 8009 bound_to 7997
  155.8461  140.0934  157.1694 H   0  0  0  0  0  0  0  0  0  0  0  0  # atno 8010 bound_to 7997
  139.8908  143.6724  152.2612 H   0  0  0  0  0  0  0  0  0  0  0  0  # atno 10167 bound_to 10162
  157.5293  130.8619  149.8665 H   0  0  0  0  0  0  0  0  0  0  0  0  # atno 10718 bound_to 10713
  153.3530  135.3976  155.1660 H   0  0  0  0  0  0  0  0  0  0  0  0  # atno 10763 bound_to 10752
  154.8666  135.3661  154.5198 H   0  0  0  0  0  0  0  0  0  0  0  0  # atno 10764 bound_to 10752
  153.5651  135.7080  153.5590 H   0  0  0  0  0  0  0  0  0  0  0  0  # atno 10765 bound_to 10752
  140.4524  134.1211  155.7704 H   0  0  0  0  0  0  0  0  0  0  0  0  # atno 11005 bound_to 11000
  145.0816  140.9225  143.4822 LP  0  0  0  0  0  0  0  0  0  0  0  0  # atno 17320 bound_to 7965
  145.0864  139.2922  143.5757 LP  0  0  0  0  0  0  0  0  0  0  0  0  # atno 17321 bound_to 7965
  139.7111  144.7620  151.1110 LP  0  0  0  0  0  0  0  0  0  0  0  0  # atno 17342 bound_to 10162
  140.7727  143.5329  150.9402 LP  0  0  0  0  0  0  0  0  0  0  0  0  # atno 17343 bound_to 10162
  156.0410  130.3739  150.1435 LP  0  0  0  0  0  0  0  0  0  0  0  0  # atno 17370 bound_to 10713
  156.9621  130.9808  151.3477 LP  0  0  0  0  0  0  0  0  0  0  0  0  # atno 17371 bound_to 10713
  141.1658  133.8705  157.1718 LP  0  0  0  0  0  0  0  0  0  0  0  0  # atno 17394 bound_to 11000
  139.9998  135.0032  157.0165 LP  0  0  0  0  0  0  0  0  0  0  0  0  # atno 17395 bound_to 11000

$$$$
