AV-unprocessed.smi:3067|AV-procd|sdf|11695|dock1
  -GOLD-   2272017 93D 1   1.00000     0.00000
 Structure written by MMmdl.
 34 35  0  0  0  0  0  0  0  0  1 V2000
  144.6146  136.1597  151.9523 C   0  0  0  0  0  0  0  0  0  0  0  0
  145.3114  135.0596  151.3892 O   0  0  0  0  0  0  0  0  0  0  0  0
  145.1677  133.8406  152.1130 C   0  0  1  0  0  0  0  0  0  0  0  0
  143.9022  133.0856  151.6534 C   0  0  0  0  0  0  0  0  0  0  0  0
  144.0028  132.6465  150.1829 C   0  0  0  0  0  0  0  0  0  0  0  0
  145.2659  131.8075  149.9362 C   0  0  0  0  0  0  0  0  0  0  0  0
  146.5304  132.5524  150.3924 C   0  0  0  0  0  0  0  0  0  0  0  0
  146.4277  132.9741  151.8709 C   0  0  1  0  0  0  0  0  0  0  0  0
  147.6475  133.6501  152.3007 N   0  0  0  0  0  0  0  0  0  0  0  0
  148.3910  133.2116  153.4074 C   0  0  0  0  0  0  0  0  0  0  0  0
  148.5787  131.8494  153.7395 C   0  0  0  0  0  0  0  0  0  0  0  0
  149.3439  131.5212  154.8750 C   0  0  0  0  0  0  0  0  0  0  0  0
  149.9005  132.5657  155.6421 C   0  0  0  0  0  0  0  0  0  0  0  0
  150.6932  132.2476  156.8176 C   0  0  0  0  0  0  0  0  0  0  0  0
  151.3243  131.9950  157.7540 N   0  0  0  0  0  0  0  0  0  0  0  0
  149.7304  133.8689  155.3318 N   0  0  0  0  0  0  0  0  0  0  0  0
  148.9953  134.1754  154.2418 C   0  0  0  0  0  0  0  0  0  0  0  0
  144.7953  137.0492  151.3487 H   0  0  0  0  0  0  0  0  0  0  0  0
  144.9616  136.3688  152.9649 H   0  0  0  0  0  0  0  0  0  0  0  0
  143.5385  135.9895  151.9785 H   0  0  0  0  0  0  0  0  0  0  0  0
  145.0840  134.0560  153.1791 H   0  0  0  0  0  0  0  0  0  0  0  0
  143.7671  132.2032  152.2802 H   0  0  0  0  0  0  0  0  0  0  0  0
  143.0101  133.6935  151.7999 H   0  0  0  0  0  0  0  0  0  0  0  0
  143.1177  132.0740  149.9046 H   0  0  0  0  0  0  0  0  0  0  0  0
  144.0160  133.5260  149.5379 H   0  0  0  0  0  0  0  0  0  0  0  0
  145.1866  130.8621  150.4744 H   0  0  0  0  0  0  0  0  0  0  0  0
  145.3439  131.5550  148.8784 H   0  0  0  0  0  0  0  0  0  0  0  0
  147.4001  131.9106  150.2473 H   0  0  0  0  0  0  0  0  0  0  0  0
  146.6857  133.4288  149.7614 H   0  0  0  0  0  0  0  0  0  0  0  0
  146.3339  132.0547  152.4484 H   0  0  0  0  0  0  0  0  0  0  0  0
  147.7828  134.6000  151.9849 H   0  0  0  0  0  0  0  0  0  0  0  0
  148.1519  131.0539  153.1483 H   0  0  0  0  0  0  0  0  0  0  0  0
  149.4978  130.4867  155.1464 H   0  0  0  0  0  0  0  0  0  0  0  0
  148.8844  135.2293  154.0312 H   0  0  0  0  0  0  0  0  0  0  0  0
  1  2  1  0  0  0  0
  1 18  1  0  0  0  0
  1 19  1  0  0  0  0
  1 20  1  0  0  0  0
  2  3  1  0  0  0  0
  3  8  1  0  0  0  0
  3  4  1  0  0  0  0
  3 21  1  0  0  0  0
  4  5  1  0  0  0  0
  4 22  1  0  0  0  0
  4 23  1  0  0  0  0
  5  6  1  0  0  0  0
  5 24  1  0  0  0  0
  5 25  1  0  0  0  0
  6  7  1  0  0  0  0
  6 26  1  0  0  0  0
  6 27  1  0  0  0  0
  7  8  1  0  0  0  0
  7 28  1  0  0  0  0
  7 29  1  0  0  0  0
  8  9  1  0  0  0  0
  8 30  1  0  0  0  0
  9 10  1  0  0  0  0
  9 31  1  0  0  0  0
 10 17  1  0  0  0  0
 10 11  2  0  0  0  0
 11 12  1  0  0  0  0
 11 32  1  0  0  0  0
 12 13  2  0  0  0  0
 12 33  1  0  0  0  0
 13 14  1  0  0  0  0
 13 16  1  0  0  0  0
 14 15  3  0  0  0  0
 16 17  2  0  0  0  0
 17 34  1  0  0  0  0
M  END
> <s_m_source_file>
AV-unprocessed.smi

> <i_m_source_file_index>
3067

> <i_lp_mmshare_version>
43012

> <i_f3d_flags>
0

> <s_epik_input>
W0NIM11PW0NAQEhdMVtDSDJdW0NIMl1bQ0gyXVtDSDJdW0NASF0xW05IXWMyW2NIXVtjSF1jKEMjTiluW2NIXTI=

> <s_epik_cmdline>
J2VwaWtfcHl0aG9uJywgJy1waCcsICc3LjAnLCAnLXRuJywgJzgnLCAnLW1hJywgJzIwMCcsICctbWV0YWxfYmluZGluZycsICctaW1hZScsICc8aW5maWxlLm1hZT4nLCAnLW9tYWUnLCAnPG91dGZpbGUubWFlPic=

> <r_lp_tautomer_probability>
1

> <r_epik_Ionization_Penalty>
2.01011e-07

> <r_epik_Ionization_Penalty_Charging>
0

> <r_epik_Ionization_Penalty_Neutral>
2.01011e-07

> <r_epik_State_Penalty>
-0

> <r_epik_Charging_Adjusted_Penalty>
0

> <i_epik_Tot_Q>
0

> <i_epik_Tot_abs_Q>
0

> <r_epik_Metal_State_Penalty>
-0

> <b_epik_Metal_Only>
0

> <s_lp_Force_Field>
OPLS_2005

> <r_lp_Energy>
17.9327

> <b_lp_Chiralities_Consistent>
1

> <s_lp_Variant>
AV-unprocessed.smi:3067-2

> <Gold.Version>
5.8.1

> <Gold.Id.Protein>
6NUR|6NUR_protein|mol2

> <Gold.PLP.Fitness>
38.7712

> <Gold.PLP.PLP>
-31.3548

> <Gold.PLP.part.hbond>
-2.0000

> <Gold.PLP.part.metal>
0.0000

> <Gold.PLP.part.buried>
-1.1277

> <Gold.PLP.part.nonpolar>
-28.3250

> <Gold.PLP.part.repulsive>
0.2642

> <Gold.PLP.ligand.clash>
0.0000

> <Gold.PLP.ligand.torsion>
0.6400

> <Gold.PLP.Chemscore.Hbond>
1.9920

> <Gold.PLP.Chemscore.CHOScore>
0.8957

> <Gold.PLP.Chemscore.Metal>
0.0000

> <Gold.Chemscore.Hbonds>
donor molecule, donor type, donor heavy atom, donor atom, acceptor molecule, acceptor atom, score
      L1  H     9    31       P1  7948  0.98
      P1  H  6896  6907       L1    15  1.00
      L1  C    17    34       P1  7948  0.89

> <Gold.PLP.Chemscore.Internal.Correction>
0.0333

> <Gold.Rescore>
     Score         DG    S(hbond)    S(metal)    S(lipo)     H(rot)  DE(clash)    DE(int)     intcor
     15.84     -16.61       1.60        0.00      75.76       1.20       0.19       0.58       ----

> <Gold.Chemscore.Fitness>
15.8352

> <Gold.Chemscore.DG>
-16.6104

> <Gold.Chemscore.ZeroCoef>
-5.4800

> <Gold.Chemscore.Hbond>
1.5991

> <Gold.Chemscore.Metal>
0.0000

> <Gold.Chemscore.Lipo>
75.7646

> <Gold.Chemscore.Internal_Hbond>
0.0000

> <Gold.Chemscore.DEClash>
0.1937

> <Gold.Chemscore.DEInternal>
0.5816

> <Gold.Chemscore.Rot>
1.2012

> <Gold.Chemscore.Internal.Correction>
   9.000000E+99

> <Gold.Chemscore.Hbonds>
donor molecule, donor type, donor heavy atom, donor atom, acceptor molecule, acceptor atom, score
      L1  H     9    31       P1  7948  0.37
      P1  H  6896  6907       L1    15  0.95

> <Gold.Chemscore.Hbond.Weighted>
-5.3410

> <Gold.Chemscore.Metal.Weighted>
-0.0000

> <Gold.Chemscore.Lipo.Weighted>
-8.8645

> <Gold.Chemscore.Internal_Hbond.Weighted>
0.0000

> <Gold.Chemscore.DEClash.Weighted>
0.1937

> <Gold.Chemscore.DEInternal.Weighted>
0.5816

> <Gold.Chemscore.Rot.Weighted>
3.0750

> <Gold.Chemscore.Internal.Correction.Weighted>
   9.000000E+99

> <Gold.Protein.RotatedTorsions>
[ 6907 6896 6895 6894 ] final -179.27 input  -60.11 | X-H torsion
[ 7974 7965 7964 7962 ] final  -15.14 input  175.53 | X-H torsion
[ 8008 7997 7996 7995 ] final   52.32 input   59.86 | X-H torsion
[ 10167 10162 10161 10158 ] final  -39.39 input  -65.29 | X-H torsion
[ 10718 10713 10712 10709 ] final   53.53 input   66.30 | X-H torsion
[ 10763 10752 10751 10750 ] final   -1.38 input  -60.55 | X-H torsion
[ 11005 11000 10999 10996 ] final   13.11 input  -57.11 | X-H torsion

> <Gold.Protein.ActiveResidues>
 VAL166  LYS551  ARG553  GLY616  TRP617  ASP618  TYR619  PRO620  LYS621  CYS622 
 ASP623  PHE694  ASN695  SER759  ASP760  ASP761  ALA762  ILE779  LEU786  VAL792 
 PHE793  MET794  SER795  GLU796  ALA797  LYS798  CYS799  TRP800  GLU811  SER814 

> <Gold.Protein.RotatedAtoms>
  151.6506  133.3321  159.3150 H   0  0  0  0  0  0  0  0  0  0  0  0  # atno 6907 bound_to 6896
  150.7962  134.7027  159.6568 H   0  0  0  0  0  0  0  0  0  0  0  0  # atno 6908 bound_to 6896
  152.4049  134.6228  160.0106 H   0  0  0  0  0  0  0  0  0  0  0  0  # atno 6909 bound_to 6896
  146.2045  140.3449  142.8412 H   0  0  0  0  0  0  0  0  0  0  0  0  # atno 7974 bound_to 7965
  155.4499  140.3458  155.4299 H   0  0  0  0  0  0  0  0  0  0  0  0  # atno 8008 bound_to 7997
  156.1227  140.1491  156.9211 H   0  0  0  0  0  0  0  0  0  0  0  0  # atno 8009 bound_to 7997
  154.4835  140.0862  156.7412 H   0  0  0  0  0  0  0  0  0  0  0  0  # atno 8010 bound_to 7997
  140.7065  143.3217  151.2776 H   0  0  0  0  0  0  0  0  0  0  0  0  # atno 10167 bound_to 10162
  157.5175  130.8542  149.8515 H   0  0  0  0  0  0  0  0  0  0  0  0  # atno 10718 bound_to 10713
  153.3441  135.6982  153.6843 H   0  0  0  0  0  0  0  0  0  0  0  0  # atno 10763 bound_to 10752
  153.5596  135.3537  155.2794 H   0  0  0  0  0  0  0  0  0  0  0  0  # atno 10764 bound_to 10752
  154.8642  135.4246  154.2660 H   0  0  0  0  0  0  0  0  0  0  0  0  # atno 10765 bound_to 10752
  140.4844  134.0903  155.7757 H   0  0  0  0  0  0  0  0  0  0  0  0  # atno 11005 bound_to 11000
  144.8759  140.7336  143.6017 LP  0  0  0  0  0  0  0  0  0  0  0  0  # atno 17320 bound_to 7965
  145.3369  139.1743  143.4507 LP  0  0  0  0  0  0  0  0  0  0  0  0  # atno 17321 bound_to 7965
  139.6673  144.0082  152.2731 LP  0  0  0  0  0  0  0  0  0  0  0  0  # atno 17342 bound_to 10162
  139.9669  144.6520  150.8026 LP  0  0  0  0  0  0  0  0  0  0  0  0  # atno 17343 bound_to 10162
  156.0330  130.3759  150.1635 LP  0  0  0  0  0  0  0  0  0  0  0  0  # atno 17370 bound_to 10713
  156.9823  130.9868  151.3434 LP  0  0  0  0  0  0  0  0  0  0  0  0  # atno 17371 bound_to 10713
  141.1515  133.8959  157.2085 LP  0  0  0  0  0  0  0  0  0  0  0  0  # atno 17394 bound_to 11000
  139.9807  135.0099  156.9742 LP  0  0  0  0  0  0  0  0  0  0  0  0  # atno 17395 bound_to 11000

$$$$
