AV-unprocessed.smi:2107|AV-procd|sdf|8603|dock7
  -GOLD-   2272011343D 1   1.00000     0.00000
 Structure written by MMmdl.
 46 47  0  0  0  0  0  0  0  0  3 V2000
  154.6894  137.2582  163.1919 C   0  0  0  0  0  0  0  0  0  0  0  0
  153.7409  137.2882  161.9861 C   0  0  0  0  0  0  0  0  0  0  0  0
  154.3087  138.0884  160.8888 N   0  0  0  0  0  0  0  0  0  0  0  0
  155.1906  139.2045  161.2716 C   0  0  0  0  0  0  0  0  0  0  0  0
  154.3920  140.4962  161.4913 C   0  0  0  0  0  0  0  0  0  0  0  0
  153.5926  138.0449  159.3009 S   0  0  0  0  0  0  0  0  0  0  0  0
  154.6669  138.3285  158.3333 O   0  0  0  0  0  0  0  0  0  0  0  0
  152.9296  136.7353  159.2097 O   0  0  0  0  0  0  0  0  0  0  0  0
  152.5243  139.2610  159.4899 N   0  5  0  0  0  0  0  0  0  0  0  0
  151.7430  139.7729  158.3712 C   0  0  0  0  0  0  0  0  0  0  0  0
  151.6328  141.3024  158.4098 C   0  0  0  0  0  0  0  0  0  0  0  0
  152.4855  142.0155  159.2900 C   0  0  0  0  0  0  0  0  0  0  0  0
  152.4295  143.4219  159.3463 C   0  0  0  0  0  0  0  0  0  0  0  0
  151.5189  144.1025  158.5202 C   0  0  0  0  0  0  0  0  0  0  0  0
  150.7152  143.4036  157.6932 N   0  3  0  0  0  0  0  0  0  0  0  0
  150.7217  142.0497  157.5954 C   0  0  0  0  0  0  0  0  0  0  0  0
  149.7983  141.4746  156.6975 N   0  0  0  0  0  0  0  0  0  0  0  0
  148.4089  141.7418  157.0485 C   0  0  0  0  0  0  0  0  0  0  0  0
  147.4669  140.9509  156.1243 C   0  0  0  0  0  0  0  0  0  0  0  0
  147.7692  141.2466  154.7632 O   0  0  0  0  0  0  0  0  0  0  0  0
  149.1063  140.8909  154.4229 C   0  0  0  0  0  0  0  0  0  0  0  0
  150.0851  141.7025  155.2876 C   0  0  0  0  0  0  0  0  0  0  0  0
  154.2556  136.6832  164.0098 H   0  0  0  0  0  0  0  0  0  0  0  0
  154.8880  138.2644  163.5620 H   0  0  0  0  0  0  0  0  0  0  0  0
  155.6465  136.8018  162.9405 H   0  0  0  0  0  0  0  0  0  0  0  0
  153.5467  136.2762  161.6294 H   0  0  0  0  0  0  0  0  0  0  0  0
  152.7764  137.6964  162.2899 H   0  0  0  0  0  0  0  0  0  0  0  0
  155.7211  138.9512  162.1903 H   0  0  0  0  0  0  0  0  0  0  0  0
  155.9538  139.3460  160.5058 H   0  0  0  0  0  0  0  0  0  0  0  0
  155.0481  141.3046  161.8135 H   0  0  0  0  0  0  0  0  0  0  0  0
  153.6311  140.3608  162.2605 H   0  0  0  0  0  0  0  0  0  0  0  0
  153.8929  140.8211  160.5785 H   0  0  0  0  0  0  0  0  0  0  0  0
  152.1751  139.4669  157.4180 H   0  0  0  0  0  0  0  0  0  0  0  0
  150.7258  139.3815  158.3581 H   0  0  0  0  0  0  0  0  0  0  0  0
  153.1913  141.5044  159.9313 H   0  0  0  0  0  0  0  0  0  0  0  0
  153.0770  143.9687  160.0159 H   0  0  0  0  0  0  0  0  0  0  0  0
  151.4060  145.1764  158.4978 H   0  0  0  0  0  0  0  0  0  0  0  0
  148.2296  141.4645  158.0880 H   0  0  0  0  0  0  0  0  0  0  0  0
  148.2071  142.8100  156.9592 H   0  0  0  0  0  0  0  0  0  0  0  0
  147.5542  139.8783  156.3014 H   0  0  0  0  0  0  0  0  0  0  0  0
  146.4303  141.2209  156.3259 H   0  0  0  0  0  0  0  0  0  0  0  0
  149.2574  139.8192  154.5644 H   0  0  0  0  0  0  0  0  0  0  0  0
  149.2733  141.1010  153.3665 H   0  0  0  0  0  0  0  0  0  0  0  0
  149.9909  142.7638  155.0546 H   0  0  0  0  0  0  0  0  0  0  0  0
  151.1127  141.4105  155.0686 H   0  0  0  0  0  0  0  0  0  0  0  0
  150.0583  143.9227  157.1108 H   0  0  0  0  0  0  0  0  0  0  0  0
  1  2  1  0  0  0  0
  1 23  1  0  0  0  0
  1 24  1  0  0  0  0
  1 25  1  0  0  0  0
  2  3  1  0  0  0  0
  2 26  1  0  0  0  0
  2 27  1  0  0  0  0
  3  4  1  0  0  0  0
  3  6  1  0  0  0  0
  4  5  1  0  0  0  0
  4 28  1  0  0  0  0
  4 29  1  0  0  0  0
  5 30  1  0  0  0  0
  5 31  1  0  0  0  0
  5 32  1  0  0  0  0
  6  7  2  0  0  0  0
  6  8  2  0  0  0  0
  6  9  1  0  0  0  0
  9 10  1  0  0  0  0
 10 11  1  0  0  0  0
 10 33  1  0  0  0  0
 10 34  1  0  0  0  0
 11 16  1  0  0  0  0
 11 12  2  0  0  0  0
 12 13  1  0  0  0  0
 12 35  1  0  0  0  0
 13 14  2  0  0  0  0
 13 36  1  0  0  0  0
 14 15  1  0  0  0  0
 14 37  1  0  0  0  0
 15 16  2  0  0  0  0
 15 46  1  0  0  0  0
 16 17  1  0  0  0  0
 17 22  1  0  0  0  0
 17 18  1  0  0  0  0
 18 19  1  0  0  0  0
 18 38  1  0  0  0  0
 18 39  1  0  0  0  0
 19 20  1  0  0  0  0
 19 40  1  0  0  0  0
 19 41  1  0  0  0  0
 20 21  1  0  0  0  0
 21 22  1  0  0  0  0
 21 42  1  0  0  0  0
 21 43  1  0  0  0  0
 22 44  1  0  0  0  0
 22 45  1  0  0  0  0
M  CHG  1   9  -1
M  CHG  1  15   1
M  END
> <s_m_source_file>
AV-unprocessed.smi

> <i_m_source_file_index>
2107

> <i_lp_mmshare_version>
43012

> <i_f3d_flags>
0

> <s_epik_input>
W0NIM11bQ0gyXU4oW0NIMl1bQ0gzXSlTKD1PKSg9TylbTkhdW0NIMl1jMVtjSF1bY0hdW2NIXW5jMU4yW0NIMl1bQ0gyXU9bQ0gyXVtDSDJdMg==

> <s_epik_cmdline>
J2VwaWtfcHl0aG9uJywgJy1waCcsICc3LjAnLCAnLXRuJywgJzgnLCAnLW1hJywgJzIwMCcsICctbWV0YWxfYmluZGluZycsICctaW1hZScsICc8aW5maWxlLm1hZT4nLCAnLW9tYWUnLCAnPG91dGZpbGUubWFlPic=

> <r_lp_tautomer_probability>
0.999994

> <r_epik_Ionization_Penalty>
2.67026

> <r_epik_Ionization_Penalty_Charging>
2.67026

> <r_epik_Ionization_Penalty_Neutral>
4.07977e-08

> <r_epik_State_Penalty>
4.05768

> <r_epik_Charging_Adjusted_Penalty>
6.72795

> <i_epik_Tot_Q>
0

> <i_epik_Tot_abs_Q>
2

> <r_epik_Metal_State_Penalty>
2.91237

> <b_epik_Metal_Only>
1

> <s_lp_Force_Field>
OPLS_2005

> <r_lp_Energy>
19.7011

> <b_lp_Chiralities_Consistent>
1

> <s_lp_Variant>
AV-unprocessed.smi:2107-4

> <Gold.Version>
5.8.1

> <Gold.Id.Protein>
6NUR|6NUR_protein|mol2

> <Gold.PLP.Fitness>
49.1450

> <Gold.PLP.PLP>
-38.7636

> <Gold.PLP.part.hbond>
-3.0000

> <Gold.PLP.part.metal>
0.0000

> <Gold.PLP.part.buried>
-4.6551

> <Gold.PLP.part.nonpolar>
-31.3196

> <Gold.PLP.part.repulsive>
0.2109

> <Gold.PLP.ligand.clash>
0.0000

> <Gold.PLP.ligand.torsion>
2.5919

> <Gold.PLP.Chemscore.Hbond>
3.9750

> <Gold.PLP.Chemscore.CHOScore>
0.0000

> <Gold.PLP.Chemscore.Metal>
0.0000

> <Gold.Chemscore.Hbonds>
donor molecule, donor type, donor heavy atom, donor atom, acceptor molecule, acceptor atom, score
      L1  H    15    46       P1  8028  2.00
      P1  H  6896  6909       L1     8  0.86
      P1  H  7997  8010       L1     7  1.00

> <Gold.PLP.Chemscore.Internal.Correction>
3.6402

> <Gold.Rescore>
     Score         DG    S(hbond)    S(metal)    S(lipo)     H(rot)  DE(clash)    DE(int)     intcor
     19.32     -21.99       2.84        0.00      97.55       1.72       0.25       2.42       ----

> <Gold.Chemscore.Fitness>
19.3163

> <Gold.Chemscore.DG>
-21.9928

> <Gold.Chemscore.ZeroCoef>
-5.4800

> <Gold.Chemscore.Hbond>
2.8420

> <Gold.Chemscore.Metal>
0.0000

> <Gold.Chemscore.Lipo>
97.5471

> <Gold.Chemscore.Internal_Hbond>
0.0000

> <Gold.Chemscore.DEClash>
0.2534

> <Gold.Chemscore.DEInternal>
2.4231

> <Gold.Chemscore.Rot>
1.7159

> <Gold.Chemscore.Internal.Correction>
   9.000000E+99

> <Gold.Chemscore.Hbonds>
donor molecule, donor type, donor heavy atom, donor atom, acceptor molecule, acceptor atom, score
      L1  H    15    46       P1  8028  0.88
      P1  H  6896  6909       L1     8  0.80
      P1  H  7997  8010       L1     7  0.93

> <Gold.Chemscore.Hbond.Weighted>
-9.4924

> <Gold.Chemscore.Metal.Weighted>
-0.0000

> <Gold.Chemscore.Lipo.Weighted>
-11.4130

> <Gold.Chemscore.Internal_Hbond.Weighted>
0.0000

> <Gold.Chemscore.DEClash.Weighted>
0.2534

> <Gold.Chemscore.DEInternal.Weighted>
2.4231

> <Gold.Chemscore.Rot.Weighted>
4.3926

> <Gold.Chemscore.Internal.Correction.Weighted>
   9.000000E+99

> <Gold.Protein.RotatedTorsions>
[ 6907 6896 6895 6894 ] final  143.16 input  -60.11 | X-H torsion
[ 7974 7965 7964 7962 ] final   62.56 input  175.53 | X-H torsion
[ 8008 7997 7996 7995 ] final   11.41 input   59.86 | X-H torsion
[ 10167 10162 10161 10158 ] final  101.11 input  -65.29 | X-H torsion
[ 10718 10713 10712 10709 ] final   46.30 input   66.30 | X-H torsion
[ 10763 10752 10751 10750 ] final -120.84 input  -60.55 | X-H torsion
[ 11005 11000 10999 10996 ] final  120.45 input  -57.11 | X-H torsion

> <Gold.Protein.ActiveResidues>
 VAL166  LYS551  ARG553  GLY616  TRP617  ASP618  TYR619  PRO620  LYS621  CYS622 
 ASP623  PHE694  ASN695  SER759  ASP760  ASP761  ALA762  ILE779  LEU786  VAL792 
 PHE793  MET794  SER795  GLU796  ALA797  LYS798  CYS799  TRP800  GLU811  SER814 

> <Gold.Protein.RotatedAtoms>
  152.2098  133.4902  159.5103 H   0  0  0  0  0  0  0  0  0  0  0  0  # atno 6907 bound_to 6896
  150.6987  134.1482  159.4139 H   0  0  0  0  0  0  0  0  0  0  0  0  # atno 6908 bound_to 6896
  151.9401  135.0217  160.0586 H   0  0  0  0  0  0  0  0  0  0  0  0  # atno 6909 bound_to 6896
  145.8719  139.3384  143.0757 H   0  0  0  0  0  0  0  0  0  0  0  0  # atno 7974 bound_to 7965
  154.8066  140.2861  155.5883 H   0  0  0  0  0  0  0  0  0  0  0  0  # atno 8008 bound_to 7997
  156.2983  140.2576  156.2875 H   0  0  0  0  0  0  0  0  0  0  0  0  # atno 8009 bound_to 7997
  154.9496  140.0379  157.2127 H   0  0  0  0  0  0  0  0  0  0  0  0  # atno 8010 bound_to 7997
  139.7467  144.6996  151.0493 H   0  0  0  0  0  0  0  0  0  0  0  0  # atno 10167 bound_to 10162
  157.4466  130.8113  149.7747 H   0  0  0  0  0  0  0  0  0  0  0  0  # atno 10718 bound_to 10713
  154.8654  135.4189  154.2524 H   0  0  0  0  0  0  0  0  0  0  0  0  # atno 10763 bound_to 10752
  153.3468  135.6996  153.6827 H   0  0  0  0  0  0  0  0  0  0  0  0  # atno 10764 bound_to 10752
  153.5783  135.3578  155.2838 H   0  0  0  0  0  0  0  0  0  0  0  0  # atno 10765 bound_to 10752
  139.9186  134.9634  156.7809 H   0  0  0  0  0  0  0  0  0  0  0  0  # atno 11005 bound_to 11000
  145.9127  140.9169  143.0446 LP  0  0  0  0  0  0  0  0  0  0  0  0  # atno 17320 bound_to 7965
  144.6726  140.1181  143.7451 LP  0  0  0  0  0  0  0  0  0  0  0  0  # atno 17321 bound_to 7965
  140.7793  143.4858  150.9958 LP  0  0  0  0  0  0  0  0  0  0  0  0  # atno 17342 bound_to 10162
  139.8546  143.7394  152.3176 LP  0  0  0  0  0  0  0  0  0  0  0  0  # atno 17343 bound_to 10162
  155.9970  130.3902  150.2758 LP  0  0  0  0  0  0  0  0  0  0  0  0  # atno 17370 bound_to 10713
  157.0926  131.0174  151.3116 LP  0  0  0  0  0  0  0  0  0  0  0  0  # atno 17371 bound_to 10713
  140.6545  133.9701  155.7772 LP  0  0  0  0  0  0  0  0  0  0  0  0  # atno 17394 bound_to 11000
  141.0686  134.0240  157.3559 LP  0  0  0  0  0  0  0  0  0  0  0  0  # atno 17395 bound_to 11000

$$$$
