AV-unprocessed.smi:1877|AV-procd|sdf|7622|dock2
  -GOLD-   22720 9353D 1   1.00000     0.00000
 Structure written by MMmdl.
 32 34  0  0  0  0  0  0  0  0  1 V2000
  151.2820  144.2938  157.4564 O   0  0  0  0  0  0  0  0  0  0  0  0
  151.5049  142.9483  157.8270 C   0  0  2  0  0  0  0  0  0  0  0  0
  150.1708  142.1880  157.6975 C   0  0  0  0  0  0  0  0  0  0  0  0
  150.0755  141.4577  156.4465 N   0  0  0  0  0  0  0  0  0  0  0  0
  151.0555  140.7705  155.8285 C   0  0  0  0  0  0  0  0  0  0  0  0
  150.7519  140.1788  154.6767 N   0  0  0  0  0  0  0  0  0  0  0  0
  149.4178  140.5188  154.5312 C   0  0  0  0  0  0  0  0  0  0  0  0
  148.4959  140.2012  153.5082 C   0  0  0  0  0  0  0  0  0  0  0  0
  147.1663  140.6678  153.5746 C   0  0  0  0  0  0  0  0  0  0  0  0
  146.7388  141.4577  154.6617 C   0  0  0  0  0  0  0  0  0  0  0  0
  147.6393  141.7874  155.6928 C   0  0  0  0  0  0  0  0  0  0  0  0
  148.9640  141.3186  155.6233 C   0  0  0  0  0  0  0  0  0  0  0  0
  152.1047  142.8243  159.2232 C   0  0  0  0  0  0  0  0  0  0  0  0
  153.0118  141.7818  159.5177 C   0  0  0  0  0  0  0  0  0  0  0  0
  153.5838  141.6761  160.7999 C   0  0  0  0  0  0  0  0  0  0  0  0
  154.4520  140.6737  161.0731 F   0  0  0  0  0  0  0  0  0  0  0  0
  153.2554  142.6138  161.7968 C   0  0  0  0  0  0  0  0  0  0  0  0
  152.3558  143.6580  161.5099 C   0  0  0  0  0  0  0  0  0  0  0  0
  151.7820  143.7654  160.2280 C   0  0  0  0  0  0  0  0  0  0  0  0
  150.9267  144.7832  159.9668 F   0  0  0  0  0  0  0  0  0  0  0  0
  150.3724  144.3925  157.2199 H   0  0  0  0  0  0  0  0  0  0  0  0
  152.2116  142.5502  157.0981 H   0  0  0  0  0  0  0  0  0  0  0  0
  150.0398  141.4907  158.5265 H   0  0  0  0  0  0  0  0  0  0  0  0
  149.3329  142.8852  157.7406 H   0  0  0  0  0  0  0  0  0  0  0  0
  152.0505  140.7075  156.2445 H   0  0  0  0  0  0  0  0  0  0  0  0
  148.8119  139.5973  152.6705 H   0  0  0  0  0  0  0  0  0  0  0  0
  146.4705  140.4183  152.7871 H   0  0  0  0  0  0  0  0  0  0  0  0
  145.7186  141.8106  154.7035 H   0  0  0  0  0  0  0  0  0  0  0  0
  147.3167  142.3932  156.5265 H   0  0  0  0  0  0  0  0  0  0  0  0
  153.2768  141.0611  158.7581 H   0  0  0  0  0  0  0  0  0  0  0  0
  153.6952  142.5344  162.7799 H   0  0  0  0  0  0  0  0  0  0  0  0
  152.1073  144.3798  162.2739 H   0  0  0  0  0  0  0  0  0  0  0  0
  1  2  1  0  0  0  0
  1 21  1  0  0  0  0
  2  3  1  0  0  0  0
  2 13  1  0  0  0  0
  2 22  1  0  0  0  0
  3  4  1  0  0  0  0
  3 23  1  0  0  0  0
  3 24  1  0  0  0  0
  4 12  1  0  0  0  0
  4  5  1  0  0  0  0
  5  6  2  0  0  0  0
  5 25  1  0  0  0  0
  6  7  1  0  0  0  0
  7 12  2  0  0  0  0
  7  8  1  0  0  0  0
  8  9  2  0  0  0  0
  8 26  1  0  0  0  0
  9 10  1  0  0  0  0
  9 27  1  0  0  0  0
 10 11  2  0  0  0  0
 10 28  1  0  0  0  0
 11 12  1  0  0  0  0
 11 29  1  0  0  0  0
 13 19  1  0  0  0  0
 13 14  2  0  0  0  0
 14 15  1  0  0  0  0
 14 30  1  0  0  0  0
 15 16  1  0  0  0  0
 15 17  2  0  0  0  0
 17 18  1  0  0  0  0
 17 31  1  0  0  0  0
 18 19  2  0  0  0  0
 18 32  1  0  0  0  0
 19 20  1  0  0  0  0
M  END
> <s_m_source_file>
AV-unprocessed.smi

> <i_m_source_file_index>
1877

> <i_lp_mmshare_version>
43012

> <i_f3d_flags>
0

> <s_epik_input>
RmMxW2NIXVtjSF1jKEYpW2NIXWMxW0NASF0oW09IXSlbQ0gyXW4oW2NIXW4yKWMoYzIzKVtjSF1bY0hdW2NIXVtjSF0z

> <s_epik_cmdline>
J2VwaWtfcHl0aG9uJywgJy1waCcsICc3LjAnLCAnLXRuJywgJzgnLCAnLW1hJywgJzIwMCcsICctbWV0YWxfYmluZGluZycsICctaW1hZScsICc8aW5maWxlLm1hZT4nLCAnLW9tYWUnLCAnPG91dGZpbGUubWFlPic=

> <r_epik_Ionization_Penalty>
0.0696522

> <r_epik_Ionization_Penalty_Charging>
0

> <r_epik_Ionization_Penalty_Neutral>
0.0696522

> <r_epik_State_Penalty>
0.0610247

> <r_epik_Charging_Adjusted_Penalty>
0.0610247

> <i_epik_Tot_Q>
0

> <i_epik_Tot_abs_Q>
0

> <r_epik_Metal_State_Penalty>
6.42746e-05

> <b_epik_Metal_Only>
0

> <s_lp_Force_Field>
OPLS_2005

> <r_lp_Energy>
11.8113

> <b_lp_Chiralities_Consistent>
1

> <s_lp_Variant>
AV-unprocessed.smi:1877-1

> <Gold.Version>
5.8.1

> <Gold.Id.Protein>
6NUR|6NUR_protein|mol2

> <Gold.PLP.Fitness>
54.0264

> <Gold.PLP.PLP>
-51.2013

> <Gold.PLP.part.hbond>
-2.0000

> <Gold.PLP.part.metal>
0.0000

> <Gold.PLP.part.buried>
1.2270

> <Gold.PLP.part.nonpolar>
-50.1661

> <Gold.PLP.part.repulsive>
0.0669

> <Gold.PLP.ligand.clash>
0.0000

> <Gold.PLP.ligand.torsion>
1.5947

> <Gold.PLP.Chemscore.Hbond>
2.0000

> <Gold.PLP.Chemscore.CHOScore>
0.0000

> <Gold.PLP.Chemscore.Metal>
0.0000

> <Gold.Chemscore.Hbonds>
donor molecule, donor type, donor heavy atom, donor atom, acceptor molecule, acceptor atom, score
      L1  H     1    21       P1  8028  0.67
      P1  H  7989  7998       L1     6  1.00

> <Gold.PLP.Chemscore.Internal.Correction>
0.0144

> <Gold.Rescore>
     Score         DG    S(hbond)    S(metal)    S(lipo)     H(rot)  DE(clash)    DE(int)     intcor
     13.65     -17.24       1.05        0.00     114.46       2.00       0.13       3.46       ----

> <Gold.Chemscore.Fitness>
13.6489

> <Gold.Chemscore.DG>
-17.2393

> <Gold.Chemscore.ZeroCoef>
-5.4800

> <Gold.Chemscore.Hbond>
1.0474

> <Gold.Chemscore.Metal>
0.0000

> <Gold.Chemscore.Lipo>
114.4565

> <Gold.Chemscore.Internal_Hbond>
0.0000

> <Gold.Chemscore.DEClash>
0.1281

> <Gold.Chemscore.DEInternal>
3.4623

> <Gold.Chemscore.Rot>
2.0040

> <Gold.Chemscore.Internal.Correction>
   9.000000E+99

> <Gold.Chemscore.Hbonds>
donor molecule, donor type, donor heavy atom, donor atom, acceptor molecule, acceptor atom, score
      L1  H     1    21       P1  8028  0.49
      P1  H  7989  7998       L1     6  0.48

> <Gold.Chemscore.Hbond.Weighted>
-3.4983

> <Gold.Chemscore.Metal.Weighted>
-0.0000

> <Gold.Chemscore.Lipo.Weighted>
-13.3914

> <Gold.Chemscore.Internal_Hbond.Weighted>
0.0000

> <Gold.Chemscore.DEClash.Weighted>
0.1281

> <Gold.Chemscore.DEInternal.Weighted>
3.4623

> <Gold.Chemscore.Rot.Weighted>
5.1303

> <Gold.Chemscore.Internal.Correction.Weighted>
   9.000000E+99

> <Gold.Protein.RotatedTorsions>
[ 6907 6896 6895 6894 ] final   81.81 input  -60.11 | X-H torsion
[ 7974 7965 7964 7962 ] final  -40.66 input  175.53 | X-H torsion
[ 8008 7997 7996 7995 ] final   99.48 input   59.86 | X-H torsion
[ 10167 10162 10161 10158 ] final  -50.14 input  -65.29 | X-H torsion
[ 10718 10713 10712 10709 ] final  157.10 input   66.30 | X-H torsion
[ 10763 10752 10751 10750 ] final  -14.75 input  -60.55 | X-H torsion
[ 11005 11000 10999 10996 ] final  -78.16 input  -57.11 | X-H torsion

> <Gold.Protein.ActiveResidues>
 VAL166  LYS551  ARG553  GLY616  TRP617  ASP618  TYR619  PRO620  LYS621  CYS622 
 ASP623  PHE694  ASN695  SER759  ASP760  ASP761  ALA762  ILE779  LEU786  VAL792 
 PHE793  MET794  SER795  GLU796  ALA797  LYS798  CYS799  TRP800  GLU811  SER814 

> <Gold.Protein.RotatedAtoms>
  152.5280  134.3147  159.9126 H   0  0  0  0  0  0  0  0  0  0  0  0  # atno 6907 bound_to 6896
  151.3096  133.4080  159.2653 H   0  0  0  0  0  0  0  0  0  0  0  0  # atno 6908 bound_to 6896
  151.0049  134.9368  159.8032 H   0  0  0  0  0  0  0  0  0  0  0  0  # atno 6909 bound_to 6896
  146.0284  140.6763  142.9144 H   0  0  0  0  0  0  0  0  0  0  0  0  # atno 7974 bound_to 7965
  156.1109  140.3228  155.8072 H   0  0  0  0  0  0  0  0  0  0  0  0  # atno 8008 bound_to 7997
  155.4674  140.0544  157.3001 H   0  0  0  0  0  0  0  0  0  0  0  0  # atno 8009 bound_to 7997
  154.4759  140.2032  155.9893 H   0  0  0  0  0  0  0  0  0  0  0  0  # atno 8010 bound_to 7997
  140.6652  143.2669  151.4317 H   0  0  0  0  0  0  0  0  0  0  0  0  # atno 10167 bound_to 10162
  157.1961  131.0665  151.2052 H   0  0  0  0  0  0  0  0  0  0  0  0  # atno 10718 bound_to 10713
  153.5330  135.7014  153.5674 H   0  0  0  0  0  0  0  0  0  0  0  0  # atno 10763 bound_to 10752
  153.3673  135.3954  155.1763 H   0  0  0  0  0  0  0  0  0  0  0  0  # atno 10764 bound_to 10752
  154.8682  135.3803  154.4828 H   0  0  0  0  0  0  0  0  0  0  0  0  # atno 10765 bound_to 10752
  141.1663  133.7051  156.7929 H   0  0  0  0  0  0  0  0  0  0  0  0  # atno 11005 bound_to 11000
  144.7019  140.3691  143.7149 LP  0  0  0  0  0  0  0  0  0  0  0  0  # atno 17320 bound_to 7965
  145.7081  139.1677  143.2554 LP  0  0  0  0  0  0  0  0  0  0  0  0  # atno 17321 bound_to 7965
  139.5898  144.1524  152.2074 LP  0  0  0  0  0  0  0  0  0  0  0  0  # atno 17342 bound_to 10162
  140.0875  144.5649  150.7078 LP  0  0  0  0  0  0  0  0  0  0  0  0  # atno 17343 bound_to 10162
  157.3813  130.7233  149.6632 LP  0  0  0  0  0  0  0  0  0  0  0  0  # atno 17370 bound_to 10713
  155.9706  130.4171  150.4266 LP  0  0  0  0  0  0  0  0  0  0  0  0  # atno 17371 bound_to 10713
  140.2312  134.8684  157.3478 LP  0  0  0  0  0  0  0  0  0  0  0  0  # atno 17394 bound_to 11000
  140.1889  134.4396  155.7727 LP  0  0  0  0  0  0  0  0  0  0  0  0  # atno 17395 bound_to 11000

$$$$
