AV-unprocessed.smi:2609|AV-procd|sdf|10205|dock3
  -GOLD-   2272014213D 1   1.00000     0.00000
 Structure written by MMmdl.
 25 26  0  0  0  0  0  0  0  0  1 V2000
  149.1775  141.7519  153.9639 O   0  0  0  0  0  0  0  0  0  0  0  0
  149.8909  141.3142  154.8635 C   0  0  0  0  0  0  0  0  0  0  0  0
  150.5044  139.9837  154.8512 C   0  0  0  0  0  0  0  0  0  0  0  0
  151.2778  139.5934  155.8911 C   0  0  0  0  0  0  0  0  0  0  0  0
  151.5246  140.4127  156.9976 N   0  0  0  0  0  0  0  0  0  0  0  0
  150.9797  141.5896  157.0114 C   0  0  0  0  0  0  0  0  0  0  0  0
  151.1431  142.6165  158.1321 C   0  0  0  0  0  0  0  0  0  0  0  0
  151.7236  143.9519  157.6257 C   0  0  0  0  0  0  0  0  0  0  0  0
  151.9005  144.9460  158.7856 C   0  0  0  0  0  0  0  0  0  0  0  0
  152.7237  144.3771  159.7976 O   0  0  0  0  0  0  0  0  0  0  0  0
  152.1607  143.2051  160.3763 C   0  0  0  0  0  0  0  0  0  0  0  0
  152.0091  142.1136  159.3048 C   0  0  0  0  0  0  0  0  0  0  0  0
  150.1698  142.0517  155.9652 N   0  0  0  0  0  0  0  0  0  0  0  0
  149.7737  142.9782  156.0287 H   0  0  0  0  0  0  0  0  0  0  0  0
  150.3386  139.3191  154.0162 H   0  0  0  0  0  0  0  0  0  0  0  0
  151.7429  138.6189  155.9109 H   0  0  0  0  0  0  0  0  0  0  0  0
  150.1457  142.8167  158.5275 H   0  0  0  0  0  0  0  0  0  0  0  0
  152.6900  143.7800  157.1493 H   0  0  0  0  0  0  0  0  0  0  0  0
  151.0771  144.3961  156.8680 H   0  0  0  0  0  0  0  0  0  0  0  0
  152.3699  145.8612  158.4245 H   0  0  0  0  0  0  0  0  0  0  0  0
  150.9345  145.2295  159.2060 H   0  0  0  0  0  0  0  0  0  0  0  0
  152.8174  142.8567  161.1736 H   0  0  0  0  0  0  0  0  0  0  0  0
  151.1986  143.4379  160.8355 H   0  0  0  0  0  0  0  0  0  0  0  0
  151.5682  141.2208  159.7503 H   0  0  0  0  0  0  0  0  0  0  0  0
  153.0006  141.8298  158.9478 H   0  0  0  0  0  0  0  0  0  0  0  0
  1  2  2  0  0  0  0
  2  3  1  0  0  0  0
  2 13  1  0  0  0  0
  3 15  1  0  0  0  0
  3  4  2  0  0  0  0
  4 16  1  0  0  0  0
  4  5  1  0  0  0  0
  5  6  2  0  0  0  0
  6  7  1  0  0  0  0
  6 13  1  0  0  0  0
  7 12  1  0  0  0  0
  7  8  1  0  0  0  0
  7 17  1  0  0  0  0
  8  9  1  0  0  0  0
  8 18  1  0  0  0  0
  8 19  1  0  0  0  0
  9 10  1  0  0  0  0
  9 20  1  0  0  0  0
  9 21  1  0  0  0  0
 10 11  1  0  0  0  0
 11 12  1  0  0  0  0
 11 22  1  0  0  0  0
 11 23  1  0  0  0  0
 12 24  1  0  0  0  0
 12 25  1  0  0  0  0
 13 14  1  0  0  0  0
M  END
> <s_m_source_file>
AV-unprocessed.smi

> <i_m_source_file_index>
2609

> <i_lp_mmshare_version>
43012

> <i_f3d_flags>
0

> <s_epik_input>
Tz1jMVtjSF1bY0hdW25IXWMobjEpW0NIXTJbQ0gyXVtDSDJdT1tDSDJdW0NIMl0y

> <s_epik_cmdline>
J2VwaWtfcHl0aG9uJywgJy1waCcsICc3LjAnLCAnLXRuJywgJzgnLCAnLW1hJywgJzIwMCcsICctbWV0YWxfYmluZGluZycsICctaW1hZScsICc8aW5maWxlLm1hZT4nLCAnLW9tYWUnLCAnPG91dGZpbGUubWFlPic=

> <r_lp_tautomer_probability>
0.839158

> <r_epik_Ionization_Penalty>
0.000496986

> <r_epik_Ionization_Penalty_Charging>
0.000470711

> <r_epik_Ionization_Penalty_Neutral>
2.62743e-05

> <r_epik_State_Penalty>
0.0498811

> <r_epik_Charging_Adjusted_Penalty>
0.0503518

> <i_epik_Tot_Q>
0

> <i_epik_Tot_abs_Q>
0

> <r_epik_Metal_State_Penalty>
0.251987

> <b_epik_Metal_Only>
0

> <s_lp_Force_Field>
OPLS_2005

> <r_lp_Energy>
14.7139

> <b_lp_Chiralities_Consistent>
1

> <s_lp_Variant>
AV-unprocessed.smi:2609-1

> <Gold.Version>
5.8.1

> <Gold.Id.Protein>
6NUR|6NUR_protein|mol2

> <Gold.PLP.Fitness>
33.8330

> <Gold.PLP.PLP>
-29.0588

> <Gold.PLP.part.hbond>
-2.3047

> <Gold.PLP.part.metal>
0.0000

> <Gold.PLP.part.buried>
-0.8129

> <Gold.PLP.part.nonpolar>
-25.6646

> <Gold.PLP.part.repulsive>
0.3198

> <Gold.PLP.ligand.clash>
0.0000

> <Gold.PLP.ligand.torsion>
0.0087

> <Gold.PLP.Chemscore.Hbond>
1.5920

> <Gold.PLP.Chemscore.CHOScore>
0.0000

> <Gold.PLP.Chemscore.Metal>
0.0000

> <Gold.Chemscore.Hbonds>
donor molecule, donor type, donor heavy atom, donor atom, acceptor molecule, acceptor atom, score
      L1  H    13    14       P1  8028  1.00
      P1  H  8011  8017       L1     1  0.56

> <Gold.PLP.Chemscore.Internal.Correction>
0.0156

> <Gold.Rescore>
     Score         DG    S(hbond)    S(metal)    S(lipo)     H(rot)  DE(clash)    DE(int)     intcor
     16.29     -16.42       1.62        0.00      69.15       1.00       0.10       0.03       ----

> <Gold.Chemscore.Fitness>
16.2860

> <Gold.Chemscore.DG>
-16.4155

> <Gold.Chemscore.ZeroCoef>
-5.4800

> <Gold.Chemscore.Hbond>
1.6182

> <Gold.Chemscore.Metal>
0.0000

> <Gold.Chemscore.Lipo>
69.1504

> <Gold.Chemscore.Internal_Hbond>
0.0000

> <Gold.Chemscore.DEClash>
0.0975

> <Gold.Chemscore.DEInternal>
0.0320

> <Gold.Chemscore.Rot>
1.0000

> <Gold.Chemscore.Internal.Correction>
   9.000000E+99

> <Gold.Chemscore.Hbonds>
donor molecule, donor type, donor heavy atom, donor atom, acceptor molecule, acceptor atom, score
      L1  H    13    14       P1  8028  0.97
      P1  H  8011  8017       L1     1  0.56

> <Gold.Chemscore.Hbond.Weighted>
-5.4049

> <Gold.Chemscore.Metal.Weighted>
-0.0000

> <Gold.Chemscore.Lipo.Weighted>
-8.0906

> <Gold.Chemscore.Internal_Hbond.Weighted>
0.0000

> <Gold.Chemscore.DEClash.Weighted>
0.0975

> <Gold.Chemscore.DEInternal.Weighted>
0.0320

> <Gold.Chemscore.Rot.Weighted>
2.5600

> <Gold.Chemscore.Internal.Correction.Weighted>
   9.000000E+99

> <Gold.Protein.RotatedTorsions>
[ 6907 6896 6895 6894 ] final -104.06 input  -60.11 | X-H torsion
[ 7974 7965 7964 7962 ] final   11.45 input  175.53 | X-H torsion
[ 8008 7997 7996 7995 ] final  -33.82 input   59.86 | X-H torsion
[ 10167 10162 10161 10158 ] final  171.01 input  -65.29 | X-H torsion
[ 10718 10713 10712 10709 ] final  -63.17 input   66.30 | X-H torsion
[ 10763 10752 10751 10750 ] final  117.69 input  -60.55 | X-H torsion
[ 11005 11000 10999 10996 ] final  -58.47 input  -57.11 | X-H torsion

> <Gold.Protein.ActiveResidues>
 VAL166  LYS551  ARG553  GLY616  TRP617  ASP618  TYR619  PRO620  LYS621  CYS622 
 ASP623  PHE694  ASN695  SER759  ASP760  ASP761  ALA762  ILE779  LEU786  VAL792 
 PHE793  MET794  SER795  GLU796  ALA797  LYS798  CYS799  TRP800  GLU811  SER814 

> <Gold.Protein.RotatedAtoms>
  150.7269  134.0334  159.3740 H   0  0  0  0  0  0  0  0  0  0  0  0  # atno 6907 bound_to 6896
  151.8304  135.0621  160.0445 H   0  0  0  0  0  0  0  0  0  0  0  0  # atno 6908 bound_to 6896
  152.2937  133.5551  159.5610 H   0  0  0  0  0  0  0  0  0  0  0  0  # atno 6909 bound_to 6896
  146.2370  139.9483  142.8474 H   0  0  0  0  0  0  0  0  0  0  0  0  # atno 7974 bound_to 7965
  154.4138  140.1700  156.1949 H   0  0  0  0  0  0  0  0  0  0  0  0  # atno 8008 bound_to 7997
  155.9572  140.3396  155.6435 H   0  0  0  0  0  0  0  0  0  0  0  0  # atno 8009 bound_to 7997
  155.6794  140.0721  157.2481 H   0  0  0  0  0  0  0  0  0  0  0  0  # atno 8010 bound_to 7997
  139.5034  144.3533  151.9900 H   0  0  0  0  0  0  0  0  0  0  0  0  # atno 10167 bound_to 10162
  156.0808  130.4217  150.1239 H   0  0  0  0  0  0  0  0  0  0  0  0  # atno 10718 bound_to 10713
  153.5562  135.3530  155.2780 H   0  0  0  0  0  0  0  0  0  0  0  0  # atno 10763 bound_to 10752
  154.8701  135.4126  154.2881 H   0  0  0  0  0  0  0  0  0  0  0  0  # atno 10764 bound_to 10752
  153.3618  135.7060  153.6775 H   0  0  0  0  0  0  0  0  0  0  0  0  # atno 10765 bound_to 10752
  141.1209  133.6612  156.4926 H   0  0  0  0  0  0  0  0  0  0  0  0  # atno 11005 bound_to 11000
  145.1886  140.9801  143.4224 LP  0  0  0  0  0  0  0  0  0  0  0  0  # atno 17320 bound_to 7965
  144.9878  139.3719  143.6230 LP  0  0  0  0  0  0  0  0  0  0  0  0  # atno 17321 bound_to 7965
  140.2970  144.3690  150.6071 LP  0  0  0  0  0  0  0  0  0  0  0  0  # atno 17342 bound_to 10162
  140.5903  143.2168  151.7265 LP  0  0  0  0  0  0  0  0  0  0  0  0  # atno 17343 bound_to 10162
  156.9270  130.9701  151.3539 LP  0  0  0  0  0  0  0  0  0  0  0  0  # atno 17370 bound_to 10713
  157.5924  130.8453  149.8679 LP  0  0  0  0  0  0  0  0  0  0  0  0  # atno 17371 bound_to 10713
  140.4511  134.6928  157.5040 LP  0  0  0  0  0  0  0  0  0  0  0  0  # atno 17394 bound_to 11000
  140.0165  134.6611  155.9302 LP  0  0  0  0  0  0  0  0  0  0  0  0  # atno 17395 bound_to 11000

$$$$
