AV-unprocessed.smi:2021|AV-procd|sdf|8182|dock6
  -GOLD-   2272010433D 1   1.00000     0.00000
 Structure written by MMmdl.
 41 42  0  0  0  0  0  0  0  0  3 V2000
  146.7052  134.0851  151.7521 C   0  0  0  0  0  0  0  0  0  0  0  0
  146.4796  132.5777  151.5616 C   0  0  0  0  0  0  0  0  0  0  0  0
  144.9964  132.2906  151.2732 C   0  0  0  0  0  0  0  0  0  0  0  0
  146.9932  131.7940  152.7892 C   0  0  0  0  0  0  0  0  0  0  0  0
  148.4783  131.7636  152.8850 N   0  3  2  0  0  0  0  0  0  0  0  0
  148.9967  130.6371  153.6989 C   0  0  0  0  0  0  0  0  0  0  0  0
  148.8652  130.9326  155.2031 C   0  0  0  0  0  0  0  0  0  0  0  0
  149.5461  132.1436  155.4993 O   0  0  0  0  0  0  0  0  0  0  0  0
  148.9826  133.2682  154.8310 C   0  0  1  0  0  0  0  0  0  0  0  0
  149.7249  134.5393  155.2784 C   0  0  0  0  0  0  0  0  0  0  0  0
  149.8048  134.6294  156.7324 N   0  0  0  0  0  0  0  0  0  0  0  0
  149.1922  135.5419  157.4996 C   0  0  0  0  0  0  0  0  0  0  0  0
  148.4657  136.3943  156.9834 O   0  0  0  0  0  0  0  0  0  0  0  0
  149.4625  135.4117  158.8177 N   0  5  0  0  0  0  0  0  0  0  0  0
  148.5660  135.8230  159.7299 C   0  0  0  0  0  0  0  0  0  0  0  0
  148.3606  137.1221  159.9995 N   0  0  0  0  0  0  0  0  0  0  0  0
  147.3920  137.3316  160.9720 N   0  0  0  0  0  0  0  0  0  0  0  0
  146.8952  136.1784  161.4191 C   0  0  0  0  0  0  0  0  0  0  0  0
  147.5704  134.7324  160.6985 S   0  0  0  0  0  0  0  0  0  0  0  0
  149.1068  133.0424  153.3077 C   0  0  0  0  0  0  0  0  0  0  0  0
  146.1511  134.4646  152.6115 H   0  0  0  0  0  0  0  0  0  0  0  0
  146.3815  134.6459  150.8748 H   0  0  0  0  0  0  0  0  0  0  0  0
  147.7605  134.3084  151.9116 H   0  0  0  0  0  0  0  0  0  0  0  0
  147.0537  132.2859  150.6829 H   0  0  0  0  0  0  0  0  0  0  0  0
  144.3662  132.5674  152.1191 H   0  0  0  0  0  0  0  0  0  0  0  0
  144.8260  131.2349  151.0616 H   0  0  0  0  0  0  0  0  0  0  0  0
  144.6510  132.8530  150.4050 H   0  0  0  0  0  0  0  0  0  0  0  0
  146.5685  132.2036  153.7056 H   0  0  0  0  0  0  0  0  0  0  0  0
  146.6170  130.7724  152.7176 H   0  0  0  0  0  0  0  0  0  0  0  0
  148.4932  129.7056  153.4388 H   0  0  0  0  0  0  0  0  0  0  0  0
  150.0498  130.4932  153.4531 H   0  0  0  0  0  0  0  0  0  0  0  0
  147.8198  130.9991  155.5077 H   0  0  0  0  0  0  0  0  0  0  0  0
  149.3140  130.1269  155.7842 H   0  0  0  0  0  0  0  0  0  0  0  0
  147.9327  133.3675  155.1103 H   0  0  0  0  0  0  0  0  0  0  0  0
  150.7170  134.5907  154.8267 H   0  0  0  0  0  0  0  0  0  0  0  0
  149.1848  135.4202  154.9307 H   0  0  0  0  0  0  0  0  0  0  0  0
  150.3853  133.9495  157.2012 H   0  0  0  0  0  0  0  0  0  0  0  0
  146.1301  136.1790  162.1809 H   0  0  0  0  0  0  0  0  0  0  0  0
  150.1626  133.0005  153.0367 H   0  0  0  0  0  0  0  0  0  0  0  0
  148.6900  133.8858  152.7592 H   0  0  0  0  0  0  0  0  0  0  0  0
  148.7945  131.5864  151.9421 H   0  0  0  0  0  0  0  0  0  0  0  0
  1  2  1  0  0  0  0
  1 21  1  0  0  0  0
  1 22  1  0  0  0  0
  1 23  1  0  0  0  0
  2  3  1  0  0  0  0
  2  4  1  0  0  0  0
  2 24  1  0  0  0  0
  3 25  1  0  0  0  0
  3 26  1  0  0  0  0
  3 27  1  0  0  0  0
  4  5  1  0  0  0  0
  4 28  1  0  0  0  0
  4 29  1  0  0  0  0
  5 20  1  0  0  0  0
  5  6  1  0  0  0  0
  5 41  1  0  0  0  0
  6  7  1  0  0  0  0
  6 30  1  0  0  0  0
  6 31  1  0  0  0  0
  7  8  1  0  0  0  0
  7 32  1  0  0  0  0
  7 33  1  0  0  0  0
  8  9  1  0  0  0  0
  9 10  1  0  0  0  0
  9 20  1  0  0  0  0
  9 34  1  0  0  0  0
 10 11  1  0  0  0  0
 10 35  1  0  0  0  0
 10 36  1  0  0  0  0
 11 12  1  0  0  0  0
 11 37  1  0  0  0  0
 12 13  2  0  0  0  0
 12 14  1  0  0  0  0
 14 15  1  0  0  0  0
 15 19  1  0  0  0  0
 15 16  2  0  0  0  0
 16 17  1  0  0  0  0
 17 18  2  0  0  0  0
 18 19  1  0  0  0  0
 18 38  1  0  0  0  0
 20 39  1  0  0  0  0
 20 40  1  0  0  0  0
M  CHG  1   5   1
M  CHG  1  14  -1
M  END
> <s_m_source_file>
AV-unprocessed.smi

> <i_m_source_file_index>
2021

> <i_lp_mmshare_version>
43012

> <i_f3d_flags>
0

> <s_epik_input>
W0NIM11bQ0hdKFtDSDNdKVtDSDJdTjFbQ0gyXVtDSDJdT1tDQEhdKFtDSDJdMSlbQ0gyXVtOSF1DKD1PKVtOSF1jMm5uW2NIXXMy

> <s_epik_cmdline>
J2VwaWtfcHl0aG9uJywgJy1waCcsICc3LjAnLCAnLXRuJywgJzgnLCAnLW1hJywgJzIwMCcsICctbWV0YWxfYmluZGluZycsICctaW1hZScsICc8aW5maWxlLm1hZT4nLCAnLW9tYWUnLCAnPG91dGZpbGUubWFlPic=

> <r_lp_tautomer_probability>
1

> <r_epik_Ionization_Penalty>
3.15762

> <r_epik_Ionization_Penalty_Charging>
3.12229

> <r_epik_Ionization_Penalty_Neutral>
0.0353298

> <r_epik_State_Penalty>
3.11266

> <r_epik_Charging_Adjusted_Penalty>
6.23495

> <i_epik_Tot_Q>
0

> <i_epik_Tot_abs_Q>
2

> <r_epik_Metal_State_Penalty>
0.541462

> <b_epik_Metal_Only>
1

> <s_lp_Force_Field>
OPLS_2005

> <r_lp_Energy>
12.8808

> <b_lp_Chiralities_Consistent>
1

> <s_lp_Variant>
AV-unprocessed.smi:2021-8

> <Gold.Version>
5.8.1

> <Gold.Id.Protein>
6NUR|6NUR_protein|mol2

> <Gold.PLP.Fitness>
40.8982

> <Gold.PLP.PLP>
-30.8810

> <Gold.PLP.part.hbond>
-5.8064

> <Gold.PLP.part.metal>
0.0000

> <Gold.PLP.part.buried>
-4.0749

> <Gold.PLP.part.nonpolar>
-21.7223

> <Gold.PLP.part.repulsive>
0.0905

> <Gold.PLP.ligand.clash>
0.0000

> <Gold.PLP.ligand.torsion>
1.1757

> <Gold.PLP.Chemscore.Hbond>
4.0784

> <Gold.PLP.Chemscore.CHOScore>
0.0000

> <Gold.PLP.Chemscore.Metal>
0.0000

> <Gold.Chemscore.Hbonds>
donor molecule, donor type, donor heavy atom, donor atom, acceptor molecule, acceptor atom, score
      L1  H     5    41       P1 10747  1.00
      P1  H  6896  6909       L1    14  2.00
      P1  H  6934  6947       L1    17  1.00

> <Gold.PLP.Chemscore.Internal.Correction>
0.1333

> <Gold.Rescore>
     Score         DG    S(hbond)    S(metal)    S(lipo)     H(rot)  DE(clash)    DE(int)     intcor
     14.57     -16.01       2.53        0.00      58.10       1.85       0.09       1.36       ----

> <Gold.Chemscore.Fitness>
14.5657

> <Gold.Chemscore.DG>
-16.0120

> <Gold.Chemscore.ZeroCoef>
-5.4800

> <Gold.Chemscore.Hbond>
2.5333

> <Gold.Chemscore.Metal>
0.0000

> <Gold.Chemscore.Lipo>
58.1012

> <Gold.Chemscore.Internal_Hbond>
0.0000

> <Gold.Chemscore.DEClash>
0.0899

> <Gold.Chemscore.DEInternal>
1.3565

> <Gold.Chemscore.Rot>
1.8466

> <Gold.Chemscore.Internal.Correction>
   9.000000E+99

> <Gold.Chemscore.Hbonds>
donor molecule, donor type, donor heavy atom, donor atom, acceptor molecule, acceptor atom, score
      L1  H     5    41       P1 10747  0.94
      P1  H  6896  6909       L1    14  0.65
      P1  H  6934  6947       L1    17  0.38

> <Gold.Chemscore.Hbond.Weighted>
-8.4614

> <Gold.Chemscore.Metal.Weighted>
-0.0000

> <Gold.Chemscore.Lipo.Weighted>
-6.7978

> <Gold.Chemscore.Internal_Hbond.Weighted>
0.0000

> <Gold.Chemscore.DEClash.Weighted>
0.0899

> <Gold.Chemscore.DEInternal.Weighted>
1.3565

> <Gold.Chemscore.Rot.Weighted>
4.7272

> <Gold.Chemscore.Internal.Correction.Weighted>
   9.000000E+99

> <Gold.Protein.RotatedTorsions>
[ 6907 6896 6895 6894 ] final   59.75 input  -60.11 | X-H torsion
[ 7974 7965 7964 7962 ] final  149.50 input  175.53 | X-H torsion
[ 8008 7997 7996 7995 ] final -138.47 input   59.86 | X-H torsion
[ 10167 10162 10161 10158 ] final   53.85 input  -65.29 | X-H torsion
[ 10718 10713 10712 10709 ] final -116.96 input   66.30 | X-H torsion
[ 10763 10752 10751 10750 ] final  123.17 input  -60.55 | X-H torsion
[ 11005 11000 10999 10996 ] final  141.18 input  -57.11 | X-H torsion

> <Gold.Protein.ActiveResidues>
 VAL166  LYS551  ARG553  GLY616  TRP617  ASP618  TYR619  PRO620  LYS621  CYS622 
 ASP623  PHE694  ASN695  SER759  ASP760  ASP761  ALA762  ILE779  LEU786  VAL792 
 PHE793  MET794  SER795  GLU796  ALA797  LYS798  CYS799  TRP800  GLU811  SER814 

> <Gold.Protein.RotatedAtoms>
  152.3943  134.6391  160.0095 H   0  0  0  0  0  0  0  0  0  0  0  0  # atno 6907 bound_to 6896
  151.6616  133.3311  159.3183 H   0  0  0  0  0  0  0  0  0  0  0  0  # atno 6908 bound_to 6896
  150.7853  134.6876  159.6523 H   0  0  0  0  0  0  0  0  0  0  0  0  # atno 6909 bound_to 6896
  144.8433  139.6289  143.6006 H   0  0  0  0  0  0  0  0  0  0  0  0  # atno 7974 bound_to 7965
  155.4289  140.0523  157.3020 H   0  0  0  0  0  0  0  0  0  0  0  0  # atno 8008 bound_to 7997
  154.4869  140.2104  155.9594 H   0  0  0  0  0  0  0  0  0  0  0  0  # atno 8009 bound_to 7997
  156.1287  140.3175  155.8321 H   0  0  0  0  0  0  0  0  0  0  0  0  # atno 8010 bound_to 7997
  140.2364  144.3631  150.6396 H   0  0  0  0  0  0  0  0  0  0  0  0  # atno 10167 bound_to 10162
  156.1000  130.6164  150.9103 H   0  0  0  0  0  0  0  0  0  0  0  0  # atno 10718 bound_to 10713
  153.6413  135.3379  155.3072 H   0  0  0  0  0  0  0  0  0  0  0  0  # atno 10763 bound_to 10752
  154.8559  135.4319  154.2002 H   0  0  0  0  0  0  0  0  0  0  0  0  # atno 10764 bound_to 10752
  153.2921  135.7018  153.7357 H   0  0  0  0  0  0  0  0  0  0  0  0  # atno 10765 bound_to 10752
  140.0382  134.9318  157.0793 H   0  0  0  0  0  0  0  0  0  0  0  0  # atno 11005 bound_to 11000
  146.2722  139.6664  142.9288 LP  0  0  0  0  0  0  0  0  0  0  0  0  # atno 17320 bound_to 7965
  145.4648  141.0434  143.2731 LP  0  0  0  0  0  0  0  0  0  0  0  0  # atno 17321 bound_to 7965
  140.6146  143.2171  151.6817 LP  0  0  0  0  0  0  0  0  0  0  0  0  # atno 17342 bound_to 10162
  139.5092  144.3584  152.0585 LP  0  0  0  0  0  0  0  0  0  0  0  0  # atno 17343 bound_to 10162
  157.6168  131.0932  150.8695 LP  0  0  0  0  0  0  0  0  0  0  0  0  # atno 17370 bound_to 10713
  156.8825  130.5184  149.5290 LP  0  0  0  0  0  0  0  0  0  0  0  0  # atno 17371 bound_to 10713
  140.4112  134.1979  155.7163 LP  0  0  0  0  0  0  0  0  0  0  0  0  # atno 17394 bound_to 11000
  141.1869  133.8293  157.1052 LP  0  0  0  0  0  0  0  0  0  0  0  0  # atno 17395 bound_to 11000

$$$$
