AV-unprocessed.smi:1990|AV-procd|sdf|8064|dock5
  -GOLD-   2272010273D 1   1.00000     0.00000
 Structure written by MMmdl.
 46 47  0  0  0  0  0  0  0  0  1 V2000
  143.9065  132.0541  150.2809 C   0  0  0  0  0  0  0  0  0  0  0  0
  145.2843  131.7326  150.8690 C   0  0  1  0  0  0  0  0  0  0  0  0
  145.7001  132.7423  151.9555 C   0  0  0  0  0  0  0  0  0  0  0  0
  146.9563  132.3386  152.5814 N   0  0  0  0  0  0  0  0  0  0  0  0
  147.6533  133.2760  153.3782 C   0  0  0  0  0  0  0  0  0  0  0  0
  148.9731  133.0429  153.8422 C   0  0  0  0  0  0  0  0  0  0  0  0
  149.6083  134.0154  154.6386 C   0  0  0  0  0  0  0  0  0  0  0  0
  148.9141  135.2065  154.9529 C   0  0  0  0  0  0  0  0  0  0  0  0
  149.4300  136.2590  155.7568 N   0  0  0  0  0  0  0  0  0  0  0  0
  150.7001  136.6859  155.8863 C   0  0  0  0  0  0  0  0  0  0  0  0
  151.6643  136.2017  155.2944 O   0  0  0  0  0  0  0  0  0  0  0  0
  150.9058  137.8719  156.8388 C   0  0  1  0  0  0  0  0  0  0  0  0
  151.8061  137.4995  158.0280 C   0  0  0  0  0  0  0  0  0  0  0  0
  151.6353  139.3083  155.9202 S   0  0  0  0  0  0  0  0  0  0  0  0
  151.7073  140.6315  157.2004 C   0  0  0  0  0  0  0  0  0  0  0  0
  153.0137  138.9554  155.5473 O   0  0  0  0  0  0  0  0  0  0  0  0
  150.6938  139.7364  154.8742 O   0  0  0  0  0  0  0  0  0  0  0  0
  147.6024  135.3427  154.4590 C   0  0  0  0  0  0  0  0  0  0  0  0
  146.9910  134.4145  153.6954 N   0  0  0  0  0  0  0  0  0  0  0  0
  146.9694  130.9488  153.0381 C   0  0  0  0  0  0  0  0  0  0  0  0
  146.5067  130.0004  151.9163 C   0  0  1  0  0  0  0  0  0  0  0  0
  146.3767  128.5542  152.4057 C   0  0  0  0  0  0  0  0  0  0  0  0
  145.2358  130.4266  151.4348 O   0  0  0  0  0  0  0  0  0  0  0  0
  143.8949  133.0453  149.8270 H   0  0  0  0  0  0  0  0  0  0  0  0
  143.1335  132.0280  151.0494 H   0  0  0  0  0  0  0  0  0  0  0  0
  143.6348  131.3325  149.5100 H   0  0  0  0  0  0  0  0  0  0  0  0
  146.0160  131.7448  150.0591 H   0  0  0  0  0  0  0  0  0  0  0  0
  145.8058  133.7246  151.4944 H   0  0  0  0  0  0  0  0  0  0  0  0
  144.9267  132.8170  152.7213 H   0  0  0  0  0  0  0  0  0  0  0  0
  149.5176  132.1426  153.6017 H   0  0  0  0  0  0  0  0  0  0  0  0
  150.6062  133.8180  154.9965 H   0  0  0  0  0  0  0  0  0  0  0  0
  148.7350  136.7917  156.2597 H   0  0  0  0  0  0  0  0  0  0  0  0
  149.9392  138.1973  157.2251 H   0  0  0  0  0  0  0  0  0  0  0  0
  151.4125  136.6382  158.5688 H   0  0  0  0  0  0  0  0  0  0  0  0
  151.8759  138.3261  158.7353 H   0  0  0  0  0  0  0  0  0  0  0  0
  152.8197  137.2588  157.7043 H   0  0  0  0  0  0  0  0  0  0  0  0
  152.2086  141.5054  156.7846 H   0  0  0  0  0  0  0  0  0  0  0  0
  152.2645  140.2751  158.0663 H   0  0  0  0  0  0  0  0  0  0  0  0
  150.6988  140.9124  157.5028 H   0  0  0  0  0  0  0  0  0  0  0  0
  147.0224  136.2270  154.6796 H   0  0  0  0  0  0  0  0  0  0  0  0
  147.9633  130.6412  153.3630 H   0  0  0  0  0  0  0  0  0  0  0  0
  146.3103  130.8609  153.9026 H   0  0  0  0  0  0  0  0  0  0  0  0
  147.2269  130.0237  151.0965 H   0  0  0  0  0  0  0  0  0  0  0  0
  147.3316  128.1777  152.7734 H   0  0  0  0  0  0  0  0  0  0  0  0
  146.0491  127.8976  151.5994 H   0  0  0  0  0  0  0  0  0  0  0  0
  145.6508  128.4750  153.2155 H   0  0  0  0  0  0  0  0  0  0  0  0
  1  2  1  0  0  0  0
  1 24  1  0  0  0  0
  1 25  1  0  0  0  0
  1 26  1  0  0  0  0
  2 23  1  0  0  0  0
  2  3  1  0  0  0  0
  2 27  1  0  0  0  0
  3  4  1  0  0  0  0
  3 28  1  0  0  0  0
  3 29  1  0  0  0  0
  4  5  1  0  0  0  0
  4 20  1  0  0  0  0
  5 19  1  0  0  0  0
  5  6  2  0  0  0  0
  6  7  1  0  0  0  0
  6 30  1  0  0  0  0
  7  8  2  0  0  0  0
  7 31  1  0  0  0  0
  8  9  1  0  0  0  0
  8 18  1  0  0  0  0
  9 10  1  0  0  0  0
  9 32  1  0  0  0  0
 10 11  2  0  0  0  0
 10 12  1  0  0  0  0
 12 13  1  0  0  0  0
 12 14  1  0  0  0  0
 12 33  1  0  0  0  0
 13 34  1  0  0  0  0
 13 35  1  0  0  0  0
 13 36  1  0  0  0  0
 14 15  1  0  0  0  0
 14 16  2  0  0  0  0
 14 17  2  0  0  0  0
 15 37  1  0  0  0  0
 15 38  1  0  0  0  0
 15 39  1  0  0  0  0
 18 19  2  0  0  0  0
 18 40  1  0  0  0  0
 20 21  1  0  0  0  0
 20 41  1  0  0  0  0
 20 42  1  0  0  0  0
 21 22  1  0  0  0  0
 21 23  1  0  0  0  0
 21 43  1  0  0  0  0
 22 44  1  0  0  0  0
 22 45  1  0  0  0  0
 22 46  1  0  0  0  0
M  END
> <s_m_source_file>
AV-unprocessed.smi

> <i_m_source_file_index>
1990

> <i_lp_mmshare_version>
43012

> <i_f3d_flags>
0

> <s_epik_input>
W0NIM11bQ0BASF0xW0NIMl1OKFtDSDJdW0NASF0oTzEpW0NIM10pYzJbY0hdW2NIXWMoW2NIXW4yKVtOSF1DKD1PKVtDQEhdKFtDSDNdKVMoPU8pKD1PKVtDSDNd

> <s_epik_cmdline>
J2VwaWtfcHl0aG9uJywgJy1waCcsICc3LjAnLCAnLXRuJywgJzgnLCAnLW1hJywgJzIwMCcsICctbWV0YWxfYmluZGluZycsICctaW1hZScsICc8aW5maWxlLm1hZT4nLCAnLW9tYWUnLCAnPG91dGZpbGUubWFlPic=

> <r_lp_tautomer_probability>
1

> <r_epik_Ionization_Penalty>
0.000334888

> <r_epik_Ionization_Penalty_Charging>
0

> <r_epik_Ionization_Penalty_Neutral>
0.000334888

> <r_epik_State_Penalty>
0.000200905

> <r_epik_Charging_Adjusted_Penalty>
0.000200905

> <i_epik_Tot_Q>
0

> <i_epik_Tot_abs_Q>
0

> <r_epik_Metal_State_Penalty>
-0

> <b_epik_Metal_Only>
0

> <s_lp_Force_Field>
OPLS_2005

> <r_lp_Energy>
18.0691

> <b_lp_Chiralities_Consistent>
1

> <s_lp_Variant>
AV-unprocessed.smi:1990-4

> <Gold.Version>
5.8.1

> <Gold.Id.Protein>
6NUR|6NUR_protein|mol2

> <Gold.PLP.Fitness>
42.6304

> <Gold.PLP.PLP>
-34.0637

> <Gold.PLP.part.hbond>
-3.0000

> <Gold.PLP.part.metal>
0.0000

> <Gold.PLP.part.buried>
-4.0859

> <Gold.PLP.part.nonpolar>
-27.5665

> <Gold.PLP.part.repulsive>
0.6551

> <Gold.PLP.ligand.clash>
0.0000

> <Gold.PLP.ligand.torsion>
0.5228

> <Gold.PLP.Chemscore.Hbond>
3.0000

> <Gold.PLP.Chemscore.CHOScore>
0.0000

> <Gold.PLP.Chemscore.Metal>
0.0000

> <Gold.Chemscore.Hbonds>
donor molecule, donor type, donor heavy atom, donor atom, acceptor molecule, acceptor atom, score
      P1  H  7989  7998       L1    17  1.00
      P1  H  7997  8009       L1    16  1.00
      P1  H 10752 10764       L1    11  1.00

> <Gold.PLP.Chemscore.Internal.Correction>
0.6123

> <Gold.Rescore>
     Score         DG    S(hbond)    S(metal)    S(lipo)     H(rot)  DE(clash)    DE(int)     intcor
     19.49     -20.35       2.95        0.00      76.11       1.52       0.16       0.69       ----

> <Gold.Chemscore.Fitness>
19.4938

> <Gold.Chemscore.DG>
-20.3468

> <Gold.Chemscore.ZeroCoef>
-5.4800

> <Gold.Chemscore.Hbond>
2.9483

> <Gold.Chemscore.Metal>
0.0000

> <Gold.Chemscore.Lipo>
76.1084

> <Gold.Chemscore.Internal_Hbond>
0.0000

> <Gold.Chemscore.DEClash>
0.1633

> <Gold.Chemscore.DEInternal>
0.6896

> <Gold.Chemscore.Rot>
1.5177

> <Gold.Chemscore.Internal.Correction>
   9.000000E+99

> <Gold.Chemscore.Hbonds>
donor molecule, donor type, donor heavy atom, donor atom, acceptor molecule, acceptor atom, score
      P1  H  7989  7998       L1    17  0.75
      P1  H  7997  8009       L1    16  0.94
      P1  H 10752 10764       L1    11  0.96

> <Gold.Chemscore.Hbond.Weighted>
-9.8474

> <Gold.Chemscore.Metal.Weighted>
-0.0000

> <Gold.Chemscore.Lipo.Weighted>
-8.9047

> <Gold.Chemscore.Internal_Hbond.Weighted>
0.0000

> <Gold.Chemscore.DEClash.Weighted>
0.1633

> <Gold.Chemscore.DEInternal.Weighted>
0.6896

> <Gold.Chemscore.Rot.Weighted>
3.8853

> <Gold.Chemscore.Internal.Correction.Weighted>
   9.000000E+99

> <Gold.Protein.RotatedTorsions>
[ 6907 6896 6895 6894 ] final  130.62 input  -60.11 | X-H torsion
[ 7974 7965 7964 7962 ] final  -87.12 input  175.53 | X-H torsion
[ 8008 7997 7996 7995 ] final -148.33 input   59.86 | X-H torsion
[ 10167 10162 10161 10158 ] final  -29.53 input  -65.29 | X-H torsion
[ 10718 10713 10712 10709 ] final  -77.84 input   66.30 | X-H torsion
[ 10763 10752 10751 10750 ] final  -47.33 input  -60.55 | X-H torsion
[ 11005 11000 10999 10996 ] final  119.11 input  -57.11 | X-H torsion

> <Gold.Protein.ActiveResidues>
 VAL166  LYS551  ARG553  GLY616  TRP617  ASP618  TYR619  PRO620  LYS621  CYS622 
 ASP623  PHE694  ASN695  SER759  ASP760  ASP761  ALA762  ILE779  LEU786  VAL792 
 PHE793  MET794  SER795  GLU796  ALA797  LYS798  CYS799  TRP800  GLU811  SER814 

> <Gold.Protein.RotatedAtoms>
  152.3508  133.6177  159.5942 H   0  0  0  0  0  0  0  0  0  0  0  0  # atno 6907 bound_to 6896
  150.7536  133.9578  159.3514 H   0  0  0  0  0  0  0  0  0  0  0  0  # atno 6908 bound_to 6896
  151.7430  135.0851  160.0370 H   0  0  0  0  0  0  0  0  0  0  0  0  # atno 6909 bound_to 6896
  145.4707  140.9559  143.1918 H   0  0  0  0  0  0  0  0  0  0  0  0  # atno 7974 bound_to 7965
  155.5899  140.0651  157.2761 H   0  0  0  0  0  0  0  0  0  0  0  0  # atno 8008 bound_to 7997
  154.4308  140.1837  156.1111 H   0  0  0  0  0  0  0  0  0  0  0  0  # atno 8009 bound_to 7997
  156.0240  140.3313  155.7073 H   0  0  0  0  0  0  0  0  0  0  0  0  # atno 8010 bound_to 7997
  140.7259  143.3921  151.1411 H   0  0  0  0  0  0  0  0  0  0  0  0  # atno 10167 bound_to 10162
  156.0133  130.4502  150.3407 H   0  0  0  0  0  0  0  0  0  0  0  0  # atno 10718 bound_to 10713
  154.0597  135.6619  153.4810 H   0  0  0  0  0  0  0  0  0  0  0  0  # atno 10763 bound_to 10752
  153.0431  135.5132  154.7671 H   0  0  0  0  0  0  0  0  0  0  0  0  # atno 10764 bound_to 10752
  154.6703  135.3028  154.9717 H   0  0  0  0  0  0  0  0  0  0  0  0  # atno 10765 bound_to 10752
  139.9134  134.9626  156.7605 H   0  0  0  0  0  0  0  0  0  0  0  0  # atno 11005 bound_to 11000
  144.7947  139.6259  143.7098 LP  0  0  0  0  0  0  0  0  0  0  0  0  # atno 17320 bound_to 7965
  146.2398  139.5978  142.9499 LP  0  0  0  0  0  0  0  0  0  0  0  0  # atno 17321 bound_to 7965
  139.7528  143.8753  152.3081 LP  0  0  0  0  0  0  0  0  0  0  0  0  # atno 17342 bound_to 10162
  139.8612  144.7116  150.9097 LP  0  0  0  0  0  0  0  0  0  0  0  0  # atno 17343 bound_to 10162
  157.1502  131.0319  151.2888 LP  0  0  0  0  0  0  0  0  0  0  0  0  # atno 17370 bound_to 10713
  157.4398  130.7538  149.7060 LP  0  0  0  0  0  0  0  0  0  0  0  0  # atno 17371 bound_to 10713
  140.6701  133.9567  155.7852 LP  0  0  0  0  0  0  0  0  0  0  0  0  # atno 17394 bound_to 11000
  141.0583  134.0383  157.3692 LP  0  0  0  0  0  0  0  0  0  0  0  0  # atno 17395 bound_to 11000

$$$$
