AV-unprocessed.smi:853|AV-procd|sdf|3954|dock2
  -GOLD-   22720 1423D 1   1.00000     0.00000
 Structure written by MMmdl.
 50 52  0  0  0  0  0  0  0  0  2 V2000
  144.2942  133.6826  150.8349 C   0  0  0  0  0  0  0  0  0  0  0  0
  143.8540  134.8130  151.7679 C   0  0  0  0  0  0  0  0  0  0  0  0
  143.1707  134.5191  152.7492 O   0  0  0  0  0  0  0  0  0  0  0  0
  144.2226  136.0861  151.4870 N   0  0  0  0  0  0  0  0  0  0  0  0
  143.9346  137.2585  152.3229 C   0  0  0  0  0  0  0  0  0  0  0  0
  145.2465  137.7514  152.9591 C   0  0  0  0  0  0  0  0  0  0  0  0
  146.3131  138.0547  151.8810 C   0  0  0  0  0  0  0  0  0  0  0  0
  147.6059  138.3410  152.4957 N   0  0  0  0  0  0  0  0  0  0  0  0
  147.8389  139.3217  153.3795 C   0  0  0  0  0  0  0  0  0  0  0  0
  146.9695  140.0958  153.7789 O   0  0  0  0  0  0  0  0  0  0  0  0
  149.1238  139.3266  153.7744 N   0  0  0  0  0  0  0  0  0  0  0  0
  149.7587  140.1936  154.7043 C   0  0  0  0  0  0  0  0  0  0  0  0
  150.8616  139.8208  155.5128 C   0  0  0  0  0  0  0  0  0  0  0  0
  151.4106  140.7565  156.4132 C   0  0  0  0  0  0  0  0  0  0  0  0
  150.8450  142.0497  156.5050 C   0  0  0  0  0  0  0  0  0  0  0  0
  151.3231  143.0539  157.3588 N   0  0  0  0  0  0  0  0  0  0  0  0
  150.3242  143.7170  158.1818 C   0  0  0  0  0  0  0  0  0  0  0  0
  151.1062  144.4124  159.2996 C   0  0  0  0  0  0  0  0  0  0  0  0
  152.4564  143.6877  159.3492 C   0  0  0  0  0  0  0  0  0  0  0  0
  152.3646  142.6083  158.2681 C   0  0  0  0  0  0  0  0  0  0  0  0
  149.7880  142.3603  155.7233 N   0  3  0  0  0  0  0  0  0  0  0  0
  149.2323  141.4942  154.8487 C   0  0  0  0  0  0  0  0  0  0  0  0
  146.4588  136.8792  150.8914 C   0  0  0  0  0  0  0  0  0  0  0  0
  145.0889  136.4299  150.3531 C   0  0  0  0  0  0  0  0  0  0  0  0
  143.9196  133.8471  149.8242 H   0  0  0  0  0  0  0  0  0  0  0  0
  143.9060  132.7245  151.1820 H   0  0  0  0  0  0  0  0  0  0  0  0
  145.3815  133.6079  150.8041 H   0  0  0  0  0  0  0  0  0  0  0  0
  143.5066  138.0448  151.6994 H   0  0  0  0  0  0  0  0  0  0  0  0
  143.1950  137.0716  153.0998 H   0  0  0  0  0  0  0  0  0  0  0  0
  145.0527  138.6407  153.5596 H   0  0  0  0  0  0  0  0  0  0  0  0
  145.6193  136.9903  153.6463 H   0  0  0  0  0  0  0  0  0  0  0  0
  145.9895  138.9282  151.3111 H   0  0  0  0  0  0  0  0  0  0  0  0
  148.3771  137.7485  152.2252 H   0  0  0  0  0  0  0  0  0  0  0  0
  149.6998  138.5798  153.4142 H   0  0  0  0  0  0  0  0  0  0  0  0
  151.2933  138.8331  155.4708 H   0  0  0  0  0  0  0  0  0  0  0  0
  152.2584  140.4760  157.0206 H   0  0  0  0  0  0  0  0  0  0  0  0
  149.7478  144.4325  157.5942 H   0  0  0  0  0  0  0  0  0  0  0  0
  149.6263  142.9972  158.6098 H   0  0  0  0  0  0  0  0  0  0  0  0
  151.2580  145.4657  159.0607 H   0  0  0  0  0  0  0  0  0  0  0  0
  150.5746  144.3618  160.2504 H   0  0  0  0  0  0  0  0  0  0  0  0
  153.2609  144.3873  159.1188 H   0  0  0  0  0  0  0  0  0  0  0  0
  152.6617  143.2575  160.3299 H   0  0  0  0  0  0  0  0  0  0  0  0
  152.0940  141.6497  158.7137 H   0  0  0  0  0  0  0  0  0  0  0  0
  153.3139  142.4816  157.7466 H   0  0  0  0  0  0  0  0  0  0  0  0
  148.3898  141.8718  154.2870 H   0  0  0  0  0  0  0  0  0  0  0  0
  147.1087  137.1638  150.0632 H   0  0  0  0  0  0  0  0  0  0  0  0
  146.9411  136.0346  151.3865 H   0  0  0  0  0  0  0  0  0  0  0  0
  145.2193  135.6028  149.6539 H   0  0  0  0  0  0  0  0  0  0  0  0
  144.6295  137.2349  149.7777 H   0  0  0  0  0  0  0  0  0  0  0  0
  149.3888  143.2964  155.7982 H   0  0  0  0  0  0  0  0  0  0  0  0
  1  2  1  0  0  0  0
  1 25  1  0  0  0  0
  1 26  1  0  0  0  0
  1 27  1  0  0  0  0
  2  3  2  0  0  0  0
  2  4  1  0  0  0  0
  4 24  1  0  0  0  0
  4  5  1  0  0  0  0
  5  6  1  0  0  0  0
  5 28  1  0  0  0  0
  5 29  1  0  0  0  0
  6  7  1  0  0  0  0
  6 30  1  0  0  0  0
  6 31  1  0  0  0  0
  7  8  1  0  0  0  0
  7 23  1  0  0  0  0
  7 32  1  0  0  0  0
  8  9  1  0  0  0  0
  8 33  1  0  0  0  0
  9 10  2  0  0  0  0
  9 11  1  0  0  0  0
 11 12  1  0  0  0  0
 11 34  1  0  0  0  0
 12 22  1  0  0  0  0
 12 13  2  0  0  0  0
 13 14  1  0  0  0  0
 13 35  1  0  0  0  0
 14 15  2  0  0  0  0
 14 36  1  0  0  0  0
 15 16  1  0  0  0  0
 15 21  1  0  0  0  0
 16 20  1  0  0  0  0
 16 17  1  0  0  0  0
 17 18  1  0  0  0  0
 17 37  1  0  0  0  0
 17 38  1  0  0  0  0
 18 19  1  0  0  0  0
 18 39  1  0  0  0  0
 18 40  1  0  0  0  0
 19 20  1  0  0  0  0
 19 41  1  0  0  0  0
 19 42  1  0  0  0  0
 20 43  1  0  0  0  0
 20 44  1  0  0  0  0
 21 22  2  0  0  0  0
 21 50  1  0  0  0  0
 22 45  1  0  0  0  0
 23 24  1  0  0  0  0
 23 46  1  0  0  0  0
 23 47  1  0  0  0  0
 24 48  1  0  0  0  0
 24 49  1  0  0  0  0
M  CHG  1  21   1
M  END
> <s_m_source_file>
AV-unprocessed.smi

> <i_m_source_file_index>
853

> <i_lp_mmshare_version>
43012

> <i_f3d_flags>
0

> <s_epik_input>
W0NIM11DKD1PKU4xW0NIMl1bQ0gyXVtDSF0oW0NIMl1bQ0gyXTEpW05IXUMoPU8pW05IXWMyW2NIXVtjSF1jKG5bY0hdMilOM1tDSDJdW0NIMl1bQ0gyXVtDSDJdMw==

> <s_epik_cmdline>
J2VwaWtfcHl0aG9uJywgJy1waCcsICc3LjAnLCAnLXRuJywgJzgnLCAnLW1hJywgJzIwMCcsICctbWV0YWxfYmluZGluZycsICctaW1hZScsICc8aW5maWxlLm1hZT4nLCAnLW9tYWUnLCAnPG91dGZpbGUubWFlPic=

> <r_lp_tautomer_probability>
0.999994

> <r_epik_Ionization_Penalty>
1.09439

> <r_epik_Ionization_Penalty_Charging>
1.09437

> <r_epik_Ionization_Penalty_Neutral>
2.1425e-05

> <r_epik_State_Penalty>
1.15094

> <r_epik_Charging_Adjusted_Penalty>
2.24531

> <i_epik_Tot_Q>
1

> <i_epik_Tot_abs_Q>
1

> <r_epik_Metal_State_Penalty>
1.2392

> <b_epik_Metal_Only>
0

> <s_lp_Force_Field>
OPLS_2005

> <r_lp_Energy>
58.2519

> <b_lp_Chiralities_Consistent>
1

> <s_lp_Variant>
AV-unprocessed.smi:853-2

> <Gold.Version>
5.8.1

> <Gold.Id.Protein>
6NUR|6NUR_protein|mol2

> <Gold.PLP.Fitness>
48.3860

> <Gold.PLP.PLP>
-39.9994

> <Gold.PLP.part.hbond>
-3.8891

> <Gold.PLP.part.metal>
0.0000

> <Gold.PLP.part.buried>
4.2240

> <Gold.PLP.part.nonpolar>
-40.8961

> <Gold.PLP.part.repulsive>
0.6999

> <Gold.PLP.ligand.clash>
0.0000

> <Gold.PLP.ligand.torsion>
0.3247

> <Gold.PLP.Chemscore.Hbond>
3.0000

> <Gold.PLP.Chemscore.CHOScore>
0.0000

> <Gold.PLP.Chemscore.Metal>
0.0000

> <Gold.Chemscore.Hbonds>
donor molecule, donor type, donor heavy atom, donor atom, acceptor molecule, acceptor atom, score
      L1  H     8    33       P1  7948  1.00
      L1  H    21    50       P1  8028  1.92

> <Gold.PLP.Chemscore.Internal.Correction>
0.0360

> <Gold.Rescore>
     Score         DG    S(hbond)    S(metal)    S(lipo)     H(rot)  DE(clash)    DE(int)     intcor
     16.94     -21.70       1.96        0.00     109.32       1.22       3.12       1.65       ----

> <Gold.Chemscore.Fitness>
16.9395

> <Gold.Chemscore.DG>
-21.7005

> <Gold.Chemscore.ZeroCoef>
-5.4800

> <Gold.Chemscore.Hbond>
1.9637

> <Gold.Chemscore.Metal>
0.0000

> <Gold.Chemscore.Lipo>
109.3223

> <Gold.Chemscore.Internal_Hbond>
0.0000

> <Gold.Chemscore.DEClash>
3.1156

> <Gold.Chemscore.DEInternal>
1.6454

> <Gold.Chemscore.Rot>
1.2222

> <Gold.Chemscore.Internal.Correction>
   9.000000E+99

> <Gold.Chemscore.Hbonds>
donor molecule, donor type, donor heavy atom, donor atom, acceptor molecule, acceptor atom, score
      L1  H     8    33       P1  7948  0.95
      L1  H    21    50       P1  8028  0.91

> <Gold.Chemscore.Hbond.Weighted>
-6.5587

> <Gold.Chemscore.Metal.Weighted>
-0.0000

> <Gold.Chemscore.Lipo.Weighted>
-12.7907

> <Gold.Chemscore.Internal_Hbond.Weighted>
0.0000

> <Gold.Chemscore.DEClash.Weighted>
3.1156

> <Gold.Chemscore.DEInternal.Weighted>
1.6454

> <Gold.Chemscore.Rot.Weighted>
3.1289

> <Gold.Chemscore.Internal.Correction.Weighted>
   9.000000E+99

> <Gold.Protein.RotatedTorsions>
[ 6907 6896 6895 6894 ] final  -84.03 input  -60.11 | X-H torsion
[ 7974 7965 7964 7962 ] final   26.09 input  175.53 | X-H torsion
[ 8008 7997 7996 7995 ] final   31.78 input   59.86 | X-H torsion
[ 10167 10162 10161 10158 ] final  177.69 input  -65.29 | X-H torsion
[ 10718 10713 10712 10709 ] final -131.30 input   66.30 | X-H torsion
[ 10763 10752 10751 10750 ] final  130.04 input  -60.55 | X-H torsion
[ 11005 11000 10999 10996 ] final -172.66 input  -57.11 | X-H torsion

> <Gold.Protein.ActiveResidues>
 VAL166  LYS551  ARG553  GLY616  TRP617  ASP618  TYR619  PRO620  LYS621  CYS622 
 ASP623  PHE694  ASN695  SER759  ASP760  ASP761  ALA762  ILE779  LEU786  VAL792 
 PHE793  MET794  SER795  GLU796  ALA797  LYS798  CYS799  TRP800  GLU811  SER814 

> <Gold.Protein.RotatedAtoms>
  150.6880  134.3421  159.4872 H   0  0  0  0  0  0  0  0  0  0  0  0  # atno 6907 bound_to 6896
  152.1273  134.9158  160.0569 H   0  0  0  0  0  0  0  0  0  0  0  0  # atno 6908 bound_to 6896
  152.0341  133.3915  159.4346 H   0  0  0  0  0  0  0  0  0  0  0  0  # atno 6909 bound_to 6896
  146.1855  139.7375  142.8870 H   0  0  0  0  0  0  0  0  0  0  0  0  # atno 7974 bound_to 7965
  155.1120  140.3240  155.4519 H   0  0  0  0  0  0  0  0  0  0  0  0  # atno 8008 bound_to 7997
  156.2688  140.2042  156.6192 H   0  0  0  0  0  0  0  0  0  0  0  0  # atno 8009 bound_to 7997
  154.6749  140.0532  157.0192 H   0  0  0  0  0  0  0  0  0  0  0  0  # atno 8010 bound_to 7997
  139.5263  144.2769  152.0580 H   0  0  0  0  0  0  0  0  0  0  0  0  # atno 10167 bound_to 10162
  156.2230  130.6990  151.0777 H   0  0  0  0  0  0  0  0  0  0  0  0  # atno 10718 bound_to 10713
  153.7516  135.3209  155.3322 H   0  0  0  0  0  0  0  0  0  0  0  0  # atno 10763 bound_to 10752
  154.8261  135.4568  154.0926 H   0  0  0  0  0  0  0  0  0  0  0  0  # atno 10764 bound_to 10752
  153.2131  135.6938  153.8173 H   0  0  0  0  0  0  0  0  0  0  0  0  # atno 10765 bound_to 10752
  140.4944  134.5953  157.4966 H   0  0  0  0  0  0  0  0  0  0  0  0  # atno 11005 bound_to 11000
  145.3951  141.0377  143.3102 LP  0  0  0  0  0  0  0  0  0  0  0  0  # atno 17320 bound_to 7965
  144.8390  139.5503  143.6909 LP  0  0  0  0  0  0  0  0  0  0  0  0  # atno 17321 bound_to 7965
  140.2226  144.4451  150.6335 LP  0  0  0  0  0  0  0  0  0  0  0  0  # atno 17342 bound_to 10162
  140.6409  143.2203  151.6293 LP  0  0  0  0  0  0  0  0  0  0  0  0  # atno 17343 bound_to 10162
  157.7097  131.0740  150.6544 LP  0  0  0  0  0  0  0  0  0  0  0  0  # atno 17370 bound_to 10713
  156.6608  130.4512  149.5688 LP  0  0  0  0  0  0  0  0  0  0  0  0  # atno 17371 bound_to 10713
  139.9750  134.7231  155.9968 LP  0  0  0  0  0  0  0  0  0  0  0  0  # atno 17394 bound_to 11000
  141.1467  133.6555  156.3890 LP  0  0  0  0  0  0  0  0  0  0  0  0  # atno 17395 bound_to 11000

$$$$
