AV-unprocessed.smi:2323|AV-procd|sdf|9289|dock3
  -GOLD-   2272012513D 1   1.00000     0.00000
 Structure written by MMmdl.
 30 31  0  0  0  0  0  0  0  0  1 V2000
  146.9943  142.4134  153.9874 C   0  0  0  0  0  0  0  0  0  0  0  0
  148.2155  142.0136  154.6691 N   0  0  0  0  0  0  0  0  0  0  0  0
  148.7560  140.7878  154.5945 C   0  0  0  0  0  0  0  0  0  0  0  0
  148.2537  139.8631  153.9550 O   0  0  0  0  0  0  0  0  0  0  0  0
  150.0022  140.5763  155.4060 C   0  0  0  0  0  0  0  0  0  0  0  0
  151.0187  139.7133  154.9422 C   0  0  0  0  0  0  0  0  0  0  0  0
  152.1814  139.5586  155.7206 C   0  0  0  0  0  0  0  0  0  0  0  0
  152.3806  140.2001  156.8905 N   0  0  0  0  0  0  0  0  0  0  0  0
  151.4125  141.0384  157.3356 C   0  0  0  0  0  0  0  0  0  0  0  0
  151.6016  141.7105  158.5270 O   0  0  0  0  0  0  0  0  0  0  0  0
  152.5408  142.7861  158.5892 C   0  0  2  0  0  0  0  0  0  0  0  0
  152.7334  143.2627  160.0236 C   0  0  0  0  0  0  0  0  0  0  0  0
  151.6370  144.3067  160.1742 C   0  0  0  0  0  0  0  0  0  0  0  0
  151.6611  144.9696  158.9220 O   0  0  0  0  0  0  0  0  0  0  0  0
  151.9102  144.0070  157.9019 C   0  0  0  0  0  0  0  0  0  0  0  0
  150.2143  141.2584  156.6265 C   0  0  0  0  0  0  0  0  0  0  0  0
  146.7595  143.4512  154.2233 H   0  0  0  0  0  0  0  0  0  0  0  0
  146.1531  141.7939  154.3009 H   0  0  0  0  0  0  0  0  0  0  0  0
  147.1078  142.3264  152.9062 H   0  0  0  0  0  0  0  0  0  0  0  0
  148.6808  142.7089  155.2347 H   0  0  0  0  0  0  0  0  0  0  0  0
  150.9150  139.1756  154.0107 H   0  0  0  0  0  0  0  0  0  0  0  0
  152.9746  138.9027  155.3934 H   0  0  0  0  0  0  0  0  0  0  0  0
  153.4844  142.5259  158.1066 H   0  0  0  0  0  0  0  0  0  0  0  0
  152.6683  142.4689  160.7681 H   0  0  0  0  0  0  0  0  0  0  0  0
  153.7088  143.7401  160.1256 H   0  0  0  0  0  0  0  0  0  0  0  0
  150.6646  143.8339  160.3213 H   0  0  0  0  0  0  0  0  0  0  0  0
  151.8175  144.9955  160.9996 H   0  0  0  0  0  0  0  0  0  0  0  0
  152.5779  144.4377  157.1551 H   0  0  0  0  0  0  0  0  0  0  0  0
  150.9760  143.7473  157.4018 H   0  0  0  0  0  0  0  0  0  0  0  0
  149.4800  141.9457  157.0210 H   0  0  0  0  0  0  0  0  0  0  0  0
  1  2  1  0  0  0  0
  1 17  1  0  0  0  0
  1 18  1  0  0  0  0
  1 19  1  0  0  0  0
  2  3  1  0  0  0  0
  2 20  1  0  0  0  0
  3  4  2  0  0  0  0
  3  5  1  0  0  0  0
  5 16  1  0  0  0  0
  5  6  2  0  0  0  0
  6  7  1  0  0  0  0
  6 21  1  0  0  0  0
  7  8  2  0  0  0  0
  7 22  1  0  0  0  0
  8  9  1  0  0  0  0
  9 10  1  0  0  0  0
  9 16  2  0  0  0  0
 10 11  1  0  0  0  0
 11 15  1  0  0  0  0
 11 12  1  0  0  0  0
 11 23  1  0  0  0  0
 12 13  1  0  0  0  0
 12 24  1  0  0  0  0
 12 25  1  0  0  0  0
 13 14  1  0  0  0  0
 13 26  1  0  0  0  0
 13 27  1  0  0  0  0
 14 15  1  0  0  0  0
 15 28  1  0  0  0  0
 15 29  1  0  0  0  0
 16 30  1  0  0  0  0
M  END
> <s_m_source_file>
AV-unprocessed.smi

> <i_m_source_file_index>
2323

> <i_lp_mmshare_version>
43012

> <i_f3d_flags>
0

> <s_epik_input>
W0NIM11bTkhdQyg9TyljMVtjSF1bY0hdbmMoW2NIXTEpT1tDQEBIXTJbQ0gyXVtDSDJdT1tDSDJdMg==

> <s_epik_cmdline>
J2VwaWtfcHl0aG9uJywgJy1waCcsICc3LjAnLCAnLXRuJywgJzgnLCAnLW1hJywgJzIwMCcsICctbWV0YWxfYmluZGluZycsICctaW1hZScsICc8aW5maWxlLm1hZT4nLCAnLW9tYWUnLCAnPG91dGZpbGUubWFlPic=

> <r_lp_tautomer_probability>
1

> <r_epik_Ionization_Penalty>
2.2633e-06

> <r_epik_Ionization_Penalty_Charging>
0

> <r_epik_Ionization_Penalty_Neutral>
2.2633e-06

> <r_epik_State_Penalty>
-0

> <r_epik_Charging_Adjusted_Penalty>
0

> <i_epik_Tot_Q>
0

> <i_epik_Tot_abs_Q>
0

> <r_epik_Metal_State_Penalty>
-0

> <b_epik_Metal_Only>
0

> <s_lp_Force_Field>
OPLS_2005

> <r_lp_Energy>
16.8838

> <b_lp_Chiralities_Consistent>
1

> <s_lp_Variant>
AV-unprocessed.smi:2323-1

> <Gold.Version>
5.8.1

> <Gold.Id.Protein>
6NUR|6NUR_protein|mol2

> <Gold.PLP.Fitness>
38.6118

> <Gold.PLP.PLP>
-35.2385

> <Gold.PLP.part.hbond>
-2.0000

> <Gold.PLP.part.metal>
0.0000

> <Gold.PLP.part.buried>
-3.2629

> <Gold.PLP.part.nonpolar>
-30.3561

> <Gold.PLP.part.repulsive>
0.3918

> <Gold.PLP.ligand.clash>
0.0000

> <Gold.PLP.ligand.torsion>
0.6809

> <Gold.PLP.Chemscore.Hbond>
1.5720

> <Gold.PLP.Chemscore.CHOScore>
0.0000

> <Gold.PLP.Chemscore.Metal>
0.0000

> <Gold.Chemscore.Hbonds>
donor molecule, donor type, donor heavy atom, donor atom, acceptor molecule, acceptor atom, score
      L1  H     2    20       P1  8028  0.84
      P1  H  7997  8008       L1     8  0.60

> <Gold.PLP.Chemscore.Internal.Correction>
0.0191

> <Gold.Rescore>
     Score         DG    S(hbond)    S(metal)    S(lipo)     H(rot)  DE(clash)    DE(int)     intcor
     14.55     -15.39       1.03        0.00      82.41       1.24       0.06       0.78       ----

> <Gold.Chemscore.Fitness>
14.5476

> <Gold.Chemscore.DG>
-15.3877

> <Gold.Chemscore.ZeroCoef>
-5.4800

> <Gold.Chemscore.Hbond>
1.0335

> <Gold.Chemscore.Metal>
0.0000

> <Gold.Chemscore.Lipo>
82.4146

> <Gold.Chemscore.Internal_Hbond>
0.0000

> <Gold.Chemscore.DEClash>
0.0579

> <Gold.Chemscore.DEInternal>
0.7822

> <Gold.Chemscore.Rot>
1.2448

> <Gold.Chemscore.Internal.Correction>
   9.000000E+99

> <Gold.Chemscore.Hbonds>
donor molecule, donor type, donor heavy atom, donor atom, acceptor molecule, acceptor atom, score
      L1  H     2    20       P1  8028  0.79
      P1  H  7997  8008       L1     8  0.05

> <Gold.Chemscore.Hbond.Weighted>
-3.4518

> <Gold.Chemscore.Metal.Weighted>
-0.0000

> <Gold.Chemscore.Lipo.Weighted>
-9.6425

> <Gold.Chemscore.Internal_Hbond.Weighted>
0.0000

> <Gold.Chemscore.DEClash.Weighted>
0.0579

> <Gold.Chemscore.DEInternal.Weighted>
0.7822

> <Gold.Chemscore.Rot.Weighted>
3.1866

> <Gold.Chemscore.Internal.Correction.Weighted>
   9.000000E+99

> <Gold.Protein.RotatedTorsions>
[ 6907 6896 6895 6894 ] final  -50.74 input  -60.11 | X-H torsion
[ 7974 7965 7964 7962 ] final  152.97 input  175.53 | X-H torsion
[ 8008 7997 7996 7995 ] final  -67.63 input   59.86 | X-H torsion
[ 10167 10162 10161 10158 ] final  130.63 input  -65.29 | X-H torsion
[ 10718 10713 10712 10709 ] final   23.85 input   66.30 | X-H torsion
[ 10763 10752 10751 10750 ] final -117.22 input  -60.55 | X-H torsion
[ 11005 11000 10999 10996 ] final   -7.06 input  -57.11 | X-H torsion

> <Gold.Protein.ActiveResidues>
 VAL166  LYS551  ARG553  GLY616  TRP617  ASP618  TYR619  PRO620  LYS621  CYS622 
 ASP623  PHE694  ASN695  SER759  ASP760  ASP761  ALA762  ILE779  LEU786  VAL792 
 PHE793  MET794  SER795  GLU796  ALA797  LYS798  CYS799  TRP800  GLU811  SER814 

> <Gold.Protein.RotatedAtoms>
  150.8678  134.8045  159.7131 H   0  0  0  0  0  0  0  0  0  0  0  0  # atno 6907 bound_to 6896
  152.4693  134.4996  159.9730 H   0  0  0  0  0  0  0  0  0  0  0  0  # atno 6908 bound_to 6896
  151.5090  133.3450  159.2917 H   0  0  0  0  0  0  0  0  0  0  0  0  # atno 6909 bound_to 6896
  144.8186  139.6738  143.6110 H   0  0  0  0  0  0  0  0  0  0  0  0  # atno 7974 bound_to 7965
  154.4813  140.0889  156.7383 H   0  0  0  0  0  0  0  0  0  0  0  0  # atno 8008 bound_to 7997
  155.4464  140.3455  155.4277 H   0  0  0  0  0  0  0  0  0  0  0  0  # atno 8009 bound_to 7997
  156.1195  140.1470  156.9213 H   0  0  0  0  0  0  0  0  0  0  0  0  # atno 8010 bound_to 7997
  139.5421  144.6740  151.4591 H   0  0  0  0  0  0  0  0  0  0  0  0  # atno 10167 bound_to 10162
  157.1717  130.6762  149.6080 H   0  0  0  0  0  0  0  0  0  0  0  0  # atno 10718 bound_to 10713
  154.8547  135.4317  154.1945 H   0  0  0  0  0  0  0  0  0  0  0  0  # atno 10763 bound_to 10752
  153.3006  135.6968  153.7213 H   0  0  0  0  0  0  0  0  0  0  0  0  # atno 10764 bound_to 10752
  153.6344  135.3479  155.3026 H   0  0  0  0  0  0  0  0  0  0  0  0  # atno 10765 bound_to 10752
  140.7087  133.8927  155.8735 H   0  0  0  0  0  0  0  0  0  0  0  0  # atno 11005 bound_to 11000
  146.2491  139.6160  142.9439 LP  0  0  0  0  0  0  0  0  0  0  0  0  # atno 17320 bound_to 7965
  145.5156  141.0434  143.2463 LP  0  0  0  0  0  0  0  0  0  0  0  0  # atno 17321 bound_to 7965
  140.6655  143.8407  150.6937 LP  0  0  0  0  0  0  0  0  0  0  0  0  # atno 17342 bound_to 10162
  140.1815  143.4111  152.1930 LP  0  0  0  0  0  0  0  0  0  0  0  0  # atno 17343 bound_to 10162
  155.9737  130.4677  150.6333 LP  0  0  0  0  0  0  0  0  0  0  0  0  # atno 17370 bound_to 10713
  157.4037  131.0813  151.1285 LP  0  0  0  0  0  0  0  0  0  0  0  0  # atno 17371 bound_to 10713
  141.0103  134.1030  157.4228 LP  0  0  0  0  0  0  0  0  0  0  0  0  # atno 17394 bound_to 11000
  139.8877  135.0092  156.6578 LP  0  0  0  0  0  0  0  0  0  0  0  0  # atno 17395 bound_to 11000

$$$$
