AV-unprocessed.smi:1655|AV-procd|sdf|6645|dock10
  -GOLD-   22720 7353D 1   1.00000     0.00000
 Structure written by MMmdl.
 34 35  0  0  0  0  0  0  0  0  1 V2000
  153.4674  137.6172  156.6798 C   0  0  0  0  0  0  0  0  0  0  0  0
  152.4647  138.2918  155.8073 C   0  0  0  0  0  0  0  0  0  0  0  0
  151.4568  137.8209  155.0137 C   0  0  0  0  0  0  0  0  0  0  0  0
  150.8983  139.0072  154.4679 C   0  0  0  0  0  0  0  0  0  0  0  0
  149.8018  138.9488  153.5704 N   0  0  0  0  0  0  0  0  0  0  0  0
  148.5377  138.5835  153.8437 C   0  0  0  0  0  0  0  0  0  0  0  0
  148.1242  138.2285  154.9481 O   0  0  0  0  0  0  0  0  0  0  0  0
  147.7633  138.6546  152.7512 N   0  0  0  0  0  0  0  0  0  0  0  0
  146.3413  138.3335  152.7099 C   0  0  0  0  0  0  0  0  0  0  0  0
  146.0357  137.2502  151.6622 C   0  0  0  0  0  0  0  0  0  0  0  0
  144.7573  136.4614  151.9814 C   0  0  1  0  0  0  0  0  0  0  0  0
  144.4597  135.3344  150.9924 C   0  0  0  0  0  0  0  0  0  0  0  0
  143.6829  134.3189  151.8187 C   0  0  0  0  0  0  0  0  0  0  0  0
  143.8322  134.8122  153.2600 C   0  0  0  0  0  0  0  0  0  0  0  0
  144.8831  135.7655  153.2115 O   0  0  0  0  0  0  0  0  0  0  0  0
  151.5104  140.1033  154.8892 N   0  0  0  0  0  0  0  0  0  0  0  0
  152.5177  139.6504  155.7496 O   0  0  0  0  0  0  0  0  0  0  0  0
  153.0897  136.6585  157.0356 H   0  0  0  0  0  0  0  0  0  0  0  0
  153.7024  138.2304  157.5500 H   0  0  0  0  0  0  0  0  0  0  0  0
  154.3932  137.4350  156.1341 H   0  0  0  0  0  0  0  0  0  0  0  0
  151.1685  136.7928  154.8522 H   0  0  0  0  0  0  0  0  0  0  0  0
  150.0004  139.2170  152.6181 H   0  0  0  0  0  0  0  0  0  0  0  0
  148.1859  138.9551  151.8852 H   0  0  0  0  0  0  0  0  0  0  0  0
  146.0473  137.9865  153.7007 H   0  0  0  0  0  0  0  0  0  0  0  0
  145.7587  139.2348  152.5113 H   0  0  0  0  0  0  0  0  0  0  0  0
  145.9258  137.7163  150.6821 H   0  0  0  0  0  0  0  0  0  0  0  0
  146.8800  136.5641  151.5839 H   0  0  0  0  0  0  0  0  0  0  0  0
  143.8997  137.1343  152.0401 H   0  0  0  0  0  0  0  0  0  0  0  0
  143.9061  135.6832  150.1203 H   0  0  0  0  0  0  0  0  0  0  0  0
  145.3876  134.8816  150.6401 H   0  0  0  0  0  0  0  0  0  0  0  0
  142.6328  134.2758  151.5281 H   0  0  0  0  0  0  0  0  0  0  0  0
  144.1072  133.3217  151.6954 H   0  0  0  0  0  0  0  0  0  0  0  0
  142.9177  135.3050  153.5938 H   0  0  0  0  0  0  0  0  0  0  0  0
  144.0596  134.0067  153.9584 H   0  0  0  0  0  0  0  0  0  0  0  0
  1  2  1  0  0  0  0
  1 18  1  0  0  0  0
  1 19  1  0  0  0  0
  1 20  1  0  0  0  0
  2 17  1  0  0  0  0
  2  3  2  0  0  0  0
  3  4  1  0  0  0  0
  3 21  1  0  0  0  0
  4  5  1  0  0  0  0
  4 16  2  0  0  0  0
  5  6  1  0  0  0  0
  5 22  1  0  0  0  0
  6  7  2  0  0  0  0
  6  8  1  0  0  0  0
  8  9  1  0  0  0  0
  8 23  1  0  0  0  0
  9 10  1  0  0  0  0
  9 24  1  0  0  0  0
  9 25  1  0  0  0  0
 10 11  1  0  0  0  0
 10 26  1  0  0  0  0
 10 27  1  0  0  0  0
 11 15  1  0  0  0  0
 11 12  1  0  0  0  0
 11 28  1  0  0  0  0
 12 13  1  0  0  0  0
 12 29  1  0  0  0  0
 12 30  1  0  0  0  0
 13 14  1  0  0  0  0
 13 31  1  0  0  0  0
 13 32  1  0  0  0  0
 14 15  1  0  0  0  0
 14 33  1  0  0  0  0
 14 34  1  0  0  0  0
 16 17  1  0  0  0  0
M  END
> <s_m_source_file>
AV-unprocessed.smi

> <i_m_source_file_index>
1655

> <i_lp_mmshare_version>
43012

> <i_f3d_flags>
0

> <s_epik_input>
W0NIM11jMVtjSF1jKG5vMSlbTkhdQyg9TylbTkhdW0NIMl1bQ0gyXVtDQEBIXTJbQ0gyXVtDSDJdW0NIMl1PMg==

> <s_epik_cmdline>
J2VwaWtfcHl0aG9uJywgJy1waCcsICc3LjAnLCAnLXRuJywgJzgnLCAnLW1hJywgJzIwMCcsICctbWV0YWxfYmluZGluZycsICctaW1hZScsICc8aW5maWxlLm1hZT4nLCAnLW9tYWUnLCAnPG91dGZpbGUubWFlPic=

> <r_lp_tautomer_probability>
1

> <r_epik_Ionization_Penalty>
2.23964e-05

> <r_epik_Ionization_Penalty_Charging>
0

> <r_epik_Ionization_Penalty_Neutral>
2.23964e-05

> <r_epik_State_Penalty>
-0

> <r_epik_Charging_Adjusted_Penalty>
0

> <i_epik_Tot_Q>
0

> <i_epik_Tot_abs_Q>
0

> <r_epik_Metal_State_Penalty>
-0

> <b_epik_Metal_Only>
0

> <s_lp_Force_Field>
OPLS_2005

> <r_lp_Energy>
15.0992

> <b_lp_Chiralities_Consistent>
1

> <s_lp_Variant>
AV-unprocessed.smi:1655-2

> <Gold.Version>
5.8.1

> <Gold.Id.Protein>
6NUR|6NUR_protein|mol2

> <Gold.PLP.Fitness>
37.0149

> <Gold.PLP.PLP>
-26.9195

> <Gold.PLP.part.hbond>
-5.1449

> <Gold.PLP.part.metal>
0.0000

> <Gold.PLP.part.buried>
-0.9140

> <Gold.PLP.part.nonpolar>
-21.4526

> <Gold.PLP.part.repulsive>
0.3770

> <Gold.PLP.ligand.clash>
0.0000

> <Gold.PLP.ligand.torsion>
0.8004

> <Gold.PLP.Chemscore.Hbond>
3.8960

> <Gold.PLP.Chemscore.CHOScore>
0.0000

> <Gold.PLP.Chemscore.Metal>
0.0000

> <Gold.Chemscore.Hbonds>
donor molecule, donor type, donor heavy atom, donor atom, acceptor molecule, acceptor atom, score
      L1  H     5    22       P1  7957  1.00
      L1  H     8    23       P1  7957  0.90
      P1  H  7989  7998       L1    16  1.00
      P1  H  7997  8008       L1    17  1.00

> <Gold.PLP.Chemscore.Internal.Correction>
0.0083

> <Gold.Rescore>
     Score         DG    S(hbond)    S(metal)    S(lipo)     H(rot)  DE(clash)    DE(int)     intcor
     18.00     -18.72       3.41        0.00      49.85       1.55       0.10       0.62       ----

> <Gold.Chemscore.Fitness>
17.9957

> <Gold.Chemscore.DG>
-18.7189

> <Gold.Chemscore.ZeroCoef>
-5.4800

> <Gold.Chemscore.Hbond>
3.4058

> <Gold.Chemscore.Metal>
0.0000

> <Gold.Chemscore.Lipo>
49.8488

> <Gold.Chemscore.Internal_Hbond>
0.0000

> <Gold.Chemscore.DEClash>
0.0991

> <Gold.Chemscore.DEInternal>
0.6241

> <Gold.Chemscore.Rot>
1.5503

> <Gold.Chemscore.Internal.Correction>
   9.000000E+99

> <Gold.Chemscore.Hbonds>
donor molecule, donor type, donor heavy atom, donor atom, acceptor molecule, acceptor atom, score
      L1  H     5    22       P1  7957  0.80
      L1  H     8    23       P1  7957  0.83
      P1  H  7989  7998       L1    16  0.25
      P1  H  7997  8008       L1    17  0.49

> <Gold.Chemscore.Hbond.Weighted>
-11.3753

> <Gold.Chemscore.Metal.Weighted>
-0.0000

> <Gold.Chemscore.Lipo.Weighted>
-5.8323

> <Gold.Chemscore.Internal_Hbond.Weighted>
0.0000

> <Gold.Chemscore.DEClash.Weighted>
0.0991

> <Gold.Chemscore.DEInternal.Weighted>
0.6241

> <Gold.Chemscore.Rot.Weighted>
3.9687

> <Gold.Chemscore.Internal.Correction.Weighted>
   9.000000E+99

> <Gold.Protein.RotatedTorsions>
[ 6907 6896 6895 6894 ] final  160.28 input  -60.11 | X-H torsion
[ 7974 7965 7964 7962 ] final  117.15 input  175.53 | X-H torsion
[ 8008 7997 7996 7995 ] final  -46.10 input   59.86 | X-H torsion
[ 10167 10162 10161 10158 ] final  -37.48 input  -65.29 | X-H torsion
[ 10718 10713 10712 10709 ] final  -38.11 input   66.30 | X-H torsion
[ 10763 10752 10751 10750 ] final   18.15 input  -60.55 | X-H torsion
[ 11005 11000 10999 10996 ] final -103.58 input  -57.11 | X-H torsion

> <Gold.Protein.ActiveResidues>
 VAL166  LYS551  ARG553  GLY616  TRP617  ASP618  TYR619  PRO620  LYS621  CYS622 
 ASP623  PHE694  ASN695  SER759  ASP760  ASP761  ALA762  ILE779  LEU786  VAL792 
 PHE793  MET794  SER795  GLU796  ALA797  LYS798  CYS799  TRP800  GLU811  SER814 

> <Gold.Protein.RotatedAtoms>
  151.9731  133.3732  159.4078 H   0  0  0  0  0  0  0  0  0  0  0  0  # atno 6907 bound_to 6896
  150.6946  134.4119  159.5175 H   0  0  0  0  0  0  0  0  0  0  0  0  # atno 6908 bound_to 6896
  152.1826  134.8741  160.0575 H   0  0  0  0  0  0  0  0  0  0  0  0  # atno 6909 bound_to 6896
  145.1709  139.3102  143.4468 H   0  0  0  0  0  0  0  0  0  0  0  0  # atno 7974 bound_to 7965
  154.4005  140.1380  156.3956 H   0  0  0  0  0  0  0  0  0  0  0  0  # atno 8008 bound_to 7997
  155.7873  140.3480  155.5309 H   0  0  0  0  0  0  0  0  0  0  0  0  # atno 8009 bound_to 7997
  155.8614  140.0957  157.1601 H   0  0  0  0  0  0  0  0  0  0  0  0  # atno 8010 bound_to 7997
  140.7117  143.3339  151.2507 H   0  0  0  0  0  0  0  0  0  0  0  0  # atno 10167 bound_to 10162
  156.3074  130.4248  149.8083 H   0  0  0  0  0  0  0  0  0  0  0  0  # atno 10718 bound_to 10713
  153.1274  135.6733  153.9234 H   0  0  0  0  0  0  0  0  0  0  0  0  # atno 10763 bound_to 10752
  153.8730  135.3067  155.3444 H   0  0  0  0  0  0  0  0  0  0  0  0  # atno 10764 bound_to 10752
  154.7677  135.4955  153.9668 H   0  0  0  0  0  0  0  0  0  0  0  0  # atno 10765 bound_to 10752
  141.1139  133.8652  157.1504 H   0  0  0  0  0  0  0  0  0  0  0  0  # atno 11005 bound_to 11000
  146.3468  140.1854  142.8589 LP  0  0  0  0  0  0  0  0  0  0  0  0  # atno 17320 bound_to 7965
  145.0233  140.8812  143.5153 LP  0  0  0  0  0  0  0  0  0  0  0  0  # atno 17321 bound_to 7965
  139.6829  143.9824  152.2818 LP  0  0  0  0  0  0  0  0  0  0  0  0  # atno 17342 bound_to 10162
  139.9460  144.6651  150.8219 LP  0  0  0  0  0  0  0  0  0  0  0  0  # atno 17343 bound_to 10162
  156.5439  130.8312  151.3278 LP  0  0  0  0  0  0  0  0  0  0  0  0  # atno 17370 bound_to 10713
  157.7383  130.9811  150.2243 LP  0  0  0  0  0  0  0  0  0  0  0  0  # atno 17371 bound_to 10713
  140.0049  135.0012  157.0271 LP  0  0  0  0  0  0  0  0  0  0  0  0  # atno 17394 bound_to 11000
  140.4699  134.1397  155.7202 LP  0  0  0  0  0  0  0  0  0  0  0  0  # atno 17395 bound_to 11000

$$$$
