AV-unprocessed.smi:1155|AV-procd|sdf|4904|dock6
  -GOLD-   22720 3483D 1   1.00000     0.00000
 Structure written by MMmdl.
 38 40  0  0  0  0  0  0  0  0  1 V2000
  147.0554  142.0717  153.7662 C   0  0  0  0  0  0  0  0  0  0  0  0
  148.1285  141.1414  154.1267 N   0  0  0  0  0  0  0  0  0  0  0  0
  149.0774  141.5691  155.0758 C   0  0  0  0  0  0  0  0  0  0  0  0
  150.1049  140.7860  155.4724 C   0  0  0  0  0  0  0  0  0  0  0  0
  151.0758  141.1378  156.4222 N   0  0  0  0  0  0  0  0  0  0  0  0
  150.9572  141.9218  157.5101 C   0  0  0  0  0  0  0  0  0  0  0  0
  149.9446  142.5340  157.8484 O   0  0  0  0  0  0  0  0  0  0  0  0
  152.1133  141.9695  158.1902 N   0  0  0  0  0  0  0  0  0  0  0  0
  152.3826  142.7346  159.4063 C   0  0  0  0  0  0  0  0  0  0  0  0
  152.5155  144.2333  159.1774 C   0  0  0  0  0  0  0  0  0  0  0  0
  151.9130  145.2291  160.1397 C   0  0  0  0  0  0  0  0  0  0  0  0
  151.3313  145.0674  158.7529 C   0  0  0  0  0  0  0  0  0  0  0  0
  153.5555  142.2024  160.2160 C   0  0  0  0  0  0  0  0  0  0  0  0
  153.5837  140.7739  160.7024 C   0  0  0  0  0  0  0  0  0  0  0  0
  153.4198  141.9069  161.6909 C   0  0  0  0  0  0  0  0  0  0  0  0
  150.1867  139.4663  154.8834 C   0  0  0  0  0  0  0  0  0  0  0  0
  149.2804  139.0479  153.9787 C   0  0  0  0  0  0  0  0  0  0  0  0
  148.1723  139.9050  153.5515 C   0  0  0  0  0  0  0  0  0  0  0  0
  147.3347  139.5346  152.7285 O   0  0  0  0  0  0  0  0  0  0  0  0
  147.1630  143.0473  154.2415 H   0  0  0  0  0  0  0  0  0  0  0  0
  146.0862  141.6683  154.0631 H   0  0  0  0  0  0  0  0  0  0  0  0
  147.0374  142.2401  152.6885 H   0  0  0  0  0  0  0  0  0  0  0  0
  148.8909  142.5614  155.4539 H   0  0  0  0  0  0  0  0  0  0  0  0
  151.9906  140.7455  156.2542 H   0  0  0  0  0  0  0  0  0  0  0  0
  152.8867  141.4320  157.8268 H   0  0  0  0  0  0  0  0  0  0  0  0
  151.4903  142.5907  160.0172 H   0  0  0  0  0  0  0  0  0  0  0  0
  153.4736  144.5269  158.7525 H   0  0  0  0  0  0  0  0  0  0  0  0
  151.3299  144.8449  160.9740 H   0  0  0  0  0  0  0  0  0  0  0  0
  152.4814  146.1338  160.3453 H   0  0  0  0  0  0  0  0  0  0  0  0
  151.5116  145.8645  158.0345 H   0  0  0  0  0  0  0  0  0  0  0  0
  150.3660  144.5725  158.6684 H   0  0  0  0  0  0  0  0  0  0  0  0
  154.5169  142.6123  159.9121 H   0  0  0  0  0  0  0  0  0  0  0  0
  152.7134  140.1525  160.5010 H   0  0  0  0  0  0  0  0  0  0  0  0
  154.5410  140.2573  160.6813 H   0  0  0  0  0  0  0  0  0  0  0  0
  154.2677  142.1436  162.3304 H   0  0  0  0  0  0  0  0  0  0  0  0
  152.4407  142.0316  162.1492 H   0  0  0  0  0  0  0  0  0  0  0  0
  150.9894  138.8022  155.1691 H   0  0  0  0  0  0  0  0  0  0  0  0
  149.3716  138.0579  153.5568 H   0  0  0  0  0  0  0  0  0  0  0  0
  1  2  1  0  0  0  0
  1 20  1  0  0  0  0
  1 21  1  0  0  0  0
  1 22  1  0  0  0  0
  2 18  1  0  0  0  0
  2  3  1  0  0  0  0
  3  4  2  0  0  0  0
  3 23  1  0  0  0  0
  4  5  1  0  0  0  0
  4 16  1  0  0  0  0
  5  6  1  0  0  0  0
  5 24  1  0  0  0  0
  6  7  2  0  0  0  0
  6  8  1  0  0  0  0
  8  9  1  0  0  0  0
  8 25  1  0  0  0  0
  9 10  1  0  0  0  0
  9 13  1  0  0  0  0
  9 26  1  0  0  0  0
 10 12  1  0  0  0  0
 10 11  1  0  0  0  0
 10 27  1  0  0  0  0
 11 12  1  0  0  0  0
 11 28  1  0  0  0  0
 11 29  1  0  0  0  0
 12 30  1  0  0  0  0
 12 31  1  0  0  0  0
 13 15  1  0  0  0  0
 13 14  1  0  0  0  0
 13 32  1  0  0  0  0
 14 15  1  0  0  0  0
 14 33  1  0  0  0  0
 14 34  1  0  0  0  0
 15 35  1  0  0  0  0
 15 36  1  0  0  0  0
 16 17  2  0  0  0  0
 16 37  1  0  0  0  0
 17 18  1  0  0  0  0
 17 38  1  0  0  0  0
 18 19  2  0  0  0  0
M  END
> <s_m_source_file>
AV-unprocessed.smi

> <i_m_source_file_index>
1155

> <i_lp_mmshare_version>
43012

> <i_f3d_flags>
0

> <s_epik_input>
Tz1jMVtjSF1bY0hdYyhbY0hdbjFbQ0gzXSlbTkhdQyg9TylbTkhdW0NIXShbQ0hdMltDSDJdW0NIMl0yKVtDSF0zW0NIMl1bQ0gyXTM=

> <s_epik_cmdline>
J2VwaWtfcHl0aG9uJywgJy1waCcsICc3LjAnLCAnLXRuJywgJzgnLCAnLW1hJywgJzIwMCcsICctbWV0YWxfYmluZGluZycsICctaW1hZScsICc8aW5maWxlLm1hZT4nLCAnLW9tYWUnLCAnPG91dGZpbGUubWFlPic=

> <r_lp_tautomer_probability>
1

> <r_epik_Ionization_Penalty>
2.79104e-05

> <r_epik_Ionization_Penalty_Charging>
6.05378e-06

> <r_epik_Ionization_Penalty_Neutral>
2.18566e-05

> <r_epik_State_Penalty>
-0

> <r_epik_Charging_Adjusted_Penalty>
6.05378e-06

> <i_epik_Tot_Q>
0

> <i_epik_Tot_abs_Q>
0

> <r_epik_Metal_State_Penalty>
-0

> <b_epik_Metal_Only>
0

> <s_lp_Force_Field>
OPLS_2005

> <r_lp_Energy>
36.9075

> <b_lp_Chiralities_Consistent>
1

> <s_lp_Variant>
AV-unprocessed.smi:1155-1

> <Gold.Version>
5.8.1

> <Gold.Id.Protein>
6NUR|6NUR_protein|mol2

> <Gold.PLP.Fitness>
47.9482

> <Gold.PLP.PLP>
-46.1722

> <Gold.PLP.part.hbond>
0.0000

> <Gold.PLP.part.metal>
0.0000

> <Gold.PLP.part.buried>
-3.7695

> <Gold.PLP.part.nonpolar>
-43.6326

> <Gold.PLP.part.repulsive>
1.6585

> <Gold.PLP.ligand.clash>
0.0000

> <Gold.PLP.ligand.torsion>
1.6950

> <Gold.PLP.Chemscore.Hbond>
0.0000

> <Gold.PLP.Chemscore.CHOScore>
1.0000

> <Gold.PLP.Chemscore.Metal>
0.0000

> <Gold.Chemscore.Hbonds>
donor molecule, donor type, donor heavy atom, donor atom, acceptor molecule, acceptor atom, score
      L1  C     3    23       P1  8028  1.00

> <Gold.PLP.Chemscore.Internal.Correction>
2.1660

> <Gold.Rescore>
     Score         DG    S(hbond)    S(metal)    S(lipo)     H(rot)  DE(clash)    DE(int)     intcor
     13.43     -15.42       0.00        0.00     114.51       1.35       0.05       1.94       ----

> <Gold.Chemscore.Fitness>
13.4294

> <Gold.Chemscore.DG>
-15.4216

> <Gold.Chemscore.ZeroCoef>
-5.4800

> <Gold.Chemscore.Hbond>
0.0000

> <Gold.Chemscore.Metal>
0.0000

> <Gold.Chemscore.Lipo>
114.5095

> <Gold.Chemscore.Internal_Hbond>
0.0000

> <Gold.Chemscore.DEClash>
0.0540

> <Gold.Chemscore.DEInternal>
1.9382

> <Gold.Chemscore.Rot>
1.3500

> <Gold.Chemscore.Internal.Correction>
   9.000000E+99

> <Gold.Chemscore.Hbond.Weighted>
-0.0000

> <Gold.Chemscore.Metal.Weighted>
-0.0000

> <Gold.Chemscore.Lipo.Weighted>
-13.3976

> <Gold.Chemscore.Internal_Hbond.Weighted>
0.0000

> <Gold.Chemscore.DEClash.Weighted>
0.0540

> <Gold.Chemscore.DEInternal.Weighted>
1.9382

> <Gold.Chemscore.Rot.Weighted>
3.4560

> <Gold.Chemscore.Internal.Correction.Weighted>
   9.000000E+99

> <Gold.Protein.RotatedTorsions>
[ 6907 6896 6895 6894 ] final   93.43 input  -60.11 | X-H torsion
[ 7974 7965 7964 7962 ] final  -81.49 input  175.53 | X-H torsion
[ 8008 7997 7996 7995 ] final   42.46 input   59.86 | X-H torsion
[ 10167 10162 10161 10158 ] final  119.02 input  -65.29 | X-H torsion
[ 10718 10713 10712 10709 ] final  -23.12 input   66.30 | X-H torsion
[ 10763 10752 10751 10750 ] final  136.28 input  -60.55 | X-H torsion
[ 11005 11000 10999 10996 ] final  -99.48 input  -57.11 | X-H torsion

> <Gold.Protein.ActiveResidues>
 VAL166  LYS551  ARG553  GLY616  TRP617  ASP618  TYR619  PRO620  LYS621  CYS622 
 ASP623  PHE694  ASN695  SER759  ASP760  ASP761  ALA762  ILE779  LEU786  VAL792 
 PHE793  MET794  SER795  GLU796  ALA797  LYS798  CYS799  TRP800  GLU811  SER814 

> <Gold.Protein.RotatedAtoms>
  152.5452  134.1350  159.8454 H   0  0  0  0  0  0  0  0  0  0  0  0  # atno 6907 bound_to 6896
  151.1391  133.4976  159.2604 H   0  0  0  0  0  0  0  0  0  0  0  0  # atno 6908 bound_to 6896
  151.1592  135.0275  159.8757 H   0  0  0  0  0  0  0  0  0  0  0  0  # atno 6909 bound_to 6896
  145.5460  140.9503  143.1525 H   0  0  0  0  0  0  0  0  0  0  0  0  # atno 7974 bound_to 7965
  155.2865  140.3376  155.4255 H   0  0  0  0  0  0  0  0  0  0  0  0  # atno 8008 bound_to 7997
  156.2066  140.1753  156.7827 H   0  0  0  0  0  0  0  0  0  0  0  0  # atno 8009 bound_to 7997
  154.5629  140.0684  156.8831 H   0  0  0  0  0  0  0  0  0  0  0  0  # atno 8010 bound_to 7997
  139.6073  144.7073  151.2924 H   0  0  0  0  0  0  0  0  0  0  0  0  # atno 10167 bound_to 10162
  156.4953  130.4576  149.6732 H   0  0  0  0  0  0  0  0  0  0  0  0  # atno 10718 bound_to 10713
  153.8539  135.3076  155.3434 H   0  0  0  0  0  0  0  0  0  0  0  0  # atno 10763 bound_to 10752
  154.7879  135.4799  153.9989 H   0  0  0  0  0  0  0  0  0  0  0  0  # atno 10764 bound_to 10752
  153.1502  135.6841  153.8988 H   0  0  0  0  0  0  0  0  0  0  0  0  # atno 10765 bound_to 10752
  141.1307  133.8325  157.0977 H   0  0  0  0  0  0  0  0  0  0  0  0  # atno 11005 bound_to 11000
  144.7553  139.7090  143.7256 LP  0  0  0  0  0  0  0  0  0  0  0  0  # atno 17320 bound_to 7965
  146.1949  139.5210  142.9781 LP  0  0  0  0  0  0  0  0  0  0  0  0  # atno 17321 bound_to 7965
  140.7294  143.6909  150.7923 LP  0  0  0  0  0  0  0  0  0  0  0  0  # atno 17342 bound_to 10162
  140.0497  143.5262  152.2679 LP  0  0  0  0  0  0  0  0  0  0  0  0  # atno 17343 bound_to 10162
  156.3385  130.7369  151.2311 LP  0  0  0  0  0  0  0  0  0  0  0  0  # atno 17370 bound_to 10713
  157.7469  131.0410  150.4625 LP  0  0  0  0  0  0  0  0  0  0  0  0  # atno 17371 bound_to 10713
  140.0353  134.9881  157.0858 LP  0  0  0  0  0  0  0  0  0  0  0  0  # atno 17394 bound_to 11000
  140.4221  134.1870  155.7165 LP  0  0  0  0  0  0  0  0  0  0  0  0  # atno 17395 bound_to 11000

$$$$
