AV-unprocessed.smi:657|AV-procd|sdf|3223|dock3
  -GOLD-   22720 0163D 1   1.00000     0.00000
 Structure written by MMmdl.
 47 48  0  0  0  0  0  0  0  0  2 V2000
  145.5048  135.0332  150.9425 C   0  0  0  0  0  0  0  0  0  0  0  0
  145.5732  135.4850  152.4121 C   0  0  0  0  0  0  0  0  0  0  0  0
  144.1688  135.5864  153.0393 C   0  0  0  0  0  0  0  0  0  0  0  0
  146.3965  136.7323  152.5702 N   0  3  1  0  0  0  0  0  0  0  0  0
  145.8866  137.8759  151.7562 C   0  0  0  0  0  0  0  0  0  0  0  0
  146.8545  139.0656  151.7656 C   0  0  0  0  0  0  0  0  0  0  0  0
  147.0954  139.5389  153.1990 C   0  0  0  0  0  0  0  0  0  0  0  0
  147.6271  138.3704  154.0316 C   0  0  0  0  0  0  0  0  0  0  0  0
  146.6865  137.1409  153.9882 C   0  0  2  0  0  0  0  0  0  0  0  0
  147.3478  136.0331  154.8263 C   0  0  0  0  0  0  0  0  0  0  0  0
  146.7697  135.5708  155.8105 O   0  0  0  0  0  0  0  0  0  0  0  0
  148.5500  135.6072  154.4129 N   0  0  0  0  0  0  0  0  0  0  0  0
  149.3284  134.5715  155.0772 C   0  0  0  0  0  0  0  0  0  0  0  0
  149.4486  133.3297  154.1844 C   0  0  0  0  0  0  0  0  0  0  0  0
  148.1174  132.9321  153.6114 C   0  0  0  0  0  0  0  0  0  0  0  0
  146.8989  132.6993  154.3111 C   0  0  0  0  0  0  0  0  0  0  0  0
  145.9021  132.3607  153.5098 N   0  0  0  0  0  0  0  0  0  0  0  0
  146.4462  132.3667  152.2756 N   0  0  0  0  0  0  0  0  0  0  0  0
  145.6233  132.0374  151.1316 C   0  0  0  0  0  0  0  0  0  0  0  0
  147.7816  132.7063  152.3062 C   0  0  0  0  0  0  0  0  0  0  0  0
  145.0626  134.0393  150.8663 H   0  0  0  0  0  0  0  0  0  0  0  0
  146.5000  134.9807  150.4999 H   0  0  0  0  0  0  0  0  0  0  0  0
  144.8971  135.6979  150.3295 H   0  0  0  0  0  0  0  0  0  0  0  0
  146.0756  134.6626  152.9172 H   0  0  0  0  0  0  0  0  0  0  0  0
  143.6565  134.6253  152.9847 H   0  0  0  0  0  0  0  0  0  0  0  0
  143.5396  136.3116  152.5233 H   0  0  0  0  0  0  0  0  0  0  0  0
  144.2144  135.8647  154.0919 H   0  0  0  0  0  0  0  0  0  0  0  0
  145.7290  137.5741  150.7220 H   0  0  0  0  0  0  0  0  0  0  0  0
  144.9199  138.2036  152.1399 H   0  0  0  0  0  0  0  0  0  0  0  0
  147.7994  138.7811  151.3003 H   0  0  0  0  0  0  0  0  0  0  0  0
  146.4472  139.8824  151.1688 H   0  0  0  0  0  0  0  0  0  0  0  0
  147.8066  140.3654  153.2100 H   0  0  0  0  0  0  0  0  0  0  0  0
  146.1674  139.9147  153.6316 H   0  0  0  0  0  0  0  0  0  0  0  0
  148.6168  138.0969  153.6603 H   0  0  0  0  0  0  0  0  0  0  0  0
  147.7696  138.7010  155.0618 H   0  0  0  0  0  0  0  0  0  0  0  0
  145.7406  137.4161  154.4576 H   0  0  0  0  0  0  0  0  0  0  0  0
  148.9544  136.0281  153.5888 H   0  0  0  0  0  0  0  0  0  0  0  0
  150.3205  134.9607  155.3119 H   0  0  0  0  0  0  0  0  0  0  0  0
  148.8512  134.3094  156.0230 H   0  0  0  0  0  0  0  0  0  0  0  0
  150.1615  133.5292  153.3833 H   0  0  0  0  0  0  0  0  0  0  0  0
  149.8751  132.5089  154.7627 H   0  0  0  0  0  0  0  0  0  0  0  0
  146.7115  132.7654  155.3727 H   0  0  0  0  0  0  0  0  0  0  0  0
  146.1926  132.1679  150.2110 H   0  0  0  0  0  0  0  0  0  0  0  0
  144.7504  132.6904  151.1035 H   0  0  0  0  0  0  0  0  0  0  0  0
  145.2936  131.0005  151.2014 H   0  0  0  0  0  0  0  0  0  0  0  0
  148.3769  132.7591  151.4062 H   0  0  0  0  0  0  0  0  0  0  0  0
  147.2995  136.4986  152.1823 H   0  0  0  0  0  0  0  0  0  0  0  0
  1  2  1  0  0  0  0
  1 21  1  0  0  0  0
  1 22  1  0  0  0  0
  1 23  1  0  0  0  0
  2  3  1  0  0  0  0
  2  4  1  0  0  0  0
  2 24  1  0  0  0  0
  3 25  1  0  0  0  0
  3 26  1  0  0  0  0
  3 27  1  0  0  0  0
  4  9  1  0  0  0  0
  4  5  1  0  0  0  0
  4 47  1  0  0  0  0
  5  6  1  0  0  0  0
  5 28  1  0  0  0  0
  5 29  1  0  0  0  0
  6  7  1  0  0  0  0
  6 30  1  0  0  0  0
  6 31  1  0  0  0  0
  7  8  1  0  0  0  0
  7 32  1  0  0  0  0
  7 33  1  0  0  0  0
  8  9  1  0  0  0  0
  8 34  1  0  0  0  0
  8 35  1  0  0  0  0
  9 10  1  0  0  0  0
  9 36  1  0  0  0  0
 10 11  2  0  0  0  0
 10 12  1  0  0  0  0
 12 13  1  0  0  0  0
 12 37  1  0  0  0  0
 13 14  1  0  0  0  0
 13 38  1  0  0  0  0
 13 39  1  0  0  0  0
 14 15  1  0  0  0  0
 14 40  1  0  0  0  0
 14 41  1  0  0  0  0
 15 20  2  0  0  0  0
 15 16  1  0  0  0  0
 16 17  2  0  0  0  0
 16 42  1  0  0  0  0
 17 18  1  0  0  0  0
 18 19  1  0  0  0  0
 18 20  1  0  0  0  0
 19 43  1  0  0  0  0
 19 44  1  0  0  0  0
 19 45  1  0  0  0  0
 20 46  1  0  0  0  0
M  CHG  1   4   1
M  END
> <s_m_source_file>
AV-unprocessed.smi

> <i_m_source_file_index>
657

> <i_lp_mmshare_version>
43012

> <i_f3d_flags>
0

> <s_epik_input>
W0NIM11bQ0hdKFtDSDNdKU4xW0NIMl1bQ0gyXVtDSDJdW0NIMl1bQ0BIXTFDKD1PKVtOSF1bQ0gyXVtDSDJdYzJbY0hdbm4oW0NIM10pW2NIXTI=

> <s_epik_cmdline>
J2VwaWtfcHl0aG9uJywgJy1waCcsICc3LjAnLCAnLXRuJywgJzgnLCAnLW1hJywgJzIwMCcsICctbWV0YWxfYmluZGluZycsICctaW1hZScsICc8aW5maWxlLm1hZT4nLCAnLW9tYWUnLCAnPG91dGZpbGUubWFlPic=

> <r_lp_tautomer_probability>
1

> <r_epik_Ionization_Penalty>
0.0244317

> <r_epik_Ionization_Penalty_Charging>
0.0240236

> <r_epik_Ionization_Penalty_Neutral>
0.00040815

> <r_epik_State_Penalty>
0.0194773

> <r_epik_Charging_Adjusted_Penalty>
0.0435009

> <i_epik_Tot_Q>
1

> <i_epik_Tot_abs_Q>
1

> <r_epik_Metal_State_Penalty>
0.0361957

> <b_epik_Metal_Only>
0

> <s_lp_Force_Field>
OPLS_2005

> <r_lp_Energy>
18.4932

> <b_lp_Chiralities_Consistent>
1

> <s_lp_Variant>
AV-unprocessed.smi:657-4

> <Gold.Version>
5.8.1

> <Gold.Id.Protein>
6NUR|6NUR_protein|mol2

> <Gold.PLP.Fitness>
40.7090

> <Gold.PLP.PLP>
-29.3979

> <Gold.PLP.part.hbond>
-2.0000

> <Gold.PLP.part.metal>
0.0000

> <Gold.PLP.part.buried>
2.0897

> <Gold.PLP.part.nonpolar>
-30.1786

> <Gold.PLP.part.repulsive>
0.1934

> <Gold.PLP.ligand.clash>
0.0000

> <Gold.PLP.ligand.torsion>
0.1607

> <Gold.PLP.Chemscore.Hbond>
2.9920

> <Gold.PLP.Chemscore.CHOScore>
0.8370

> <Gold.PLP.Chemscore.Metal>
0.0000

> <Gold.Chemscore.Hbonds>
donor molecule, donor type, donor heavy atom, donor atom, acceptor molecule, acceptor atom, score
      L1  H     4    47       P1  7948  2.00
      L1  H    12    37       P1  7948  0.99
      L1  C    20    46       P1 10747  0.84

> <Gold.PLP.Chemscore.Internal.Correction>
0.1455

> <Gold.Rescore>
     Score         DG    S(hbond)    S(metal)    S(lipo)     H(rot)  DE(clash)    DE(int)     intcor
     15.97     -16.30       1.94        0.00      72.70       1.63       0.18       0.16       ----

> <Gold.Chemscore.Fitness>
15.9675

> <Gold.Chemscore.DG>
-16.3005

> <Gold.Chemscore.ZeroCoef>
-5.4800

> <Gold.Chemscore.Hbond>
1.9406

> <Gold.Chemscore.Metal>
0.0000

> <Gold.Chemscore.Lipo>
72.7043

> <Gold.Chemscore.Internal_Hbond>
0.0000

> <Gold.Chemscore.DEClash>
0.1770

> <Gold.Chemscore.DEInternal>
0.1561

> <Gold.Chemscore.Rot>
1.6279

> <Gold.Chemscore.Internal.Correction>
   9.000000E+99

> <Gold.Chemscore.Hbonds>
donor molecule, donor type, donor heavy atom, donor atom, acceptor molecule, acceptor atom, score
      L1  H     4    47       P1  7948  1.00
      L1  H    12    37       P1  7948  0.92

> <Gold.Chemscore.Hbond.Weighted>
-6.4815

> <Gold.Chemscore.Metal.Weighted>
-0.0000

> <Gold.Chemscore.Lipo.Weighted>
-8.5064

> <Gold.Chemscore.Internal_Hbond.Weighted>
0.0000

> <Gold.Chemscore.DEClash.Weighted>
0.1770

> <Gold.Chemscore.DEInternal.Weighted>
0.1561

> <Gold.Chemscore.Rot.Weighted>
4.1673

> <Gold.Chemscore.Internal.Correction.Weighted>
   9.000000E+99

> <Gold.Protein.RotatedTorsions>
[ 6907 6896 6895 6894 ] final  -71.73 input  -60.11 | X-H torsion
[ 7974 7965 7964 7962 ] final -153.53 input  175.53 | X-H torsion
[ 8008 7997 7996 7995 ] final -140.05 input   59.86 | X-H torsion
[ 10167 10162 10161 10158 ] final -132.33 input  -65.29 | X-H torsion
[ 10718 10713 10712 10709 ] final  148.63 input   66.30 | X-H torsion
[ 10763 10752 10751 10750 ] final    5.19 input  -60.55 | X-H torsion
[ 11005 11000 10999 10996 ] final  115.14 input  -57.11 | X-H torsion

> <Gold.Protein.ActiveResidues>
 VAL166  LYS551  ARG553  GLY616  TRP617  ASP618  TYR619  PRO620  LYS621  CYS622 
 ASP623  PHE694  ASN695  SER759  ASP760  ASP761  ALA762  ILE779  LEU786  VAL792 
 PHE793  MET794  SER795  GLU796  ALA797  LYS798  CYS799  TRP800  GLU811  SER814 

> <Gold.Protein.RotatedAtoms>
  150.7200  134.5266  159.5679 H   0  0  0  0  0  0  0  0  0  0  0  0  # atno 6907 bound_to 6896
  152.2809  134.7827  160.0406 H   0  0  0  0  0  0  0  0  0  0  0  0  # atno 6908 bound_to 6896
  151.8474  133.3398  159.3699 H   0  0  0  0  0  0  0  0  0  0  0  0  # atno 6909 bound_to 6896
  144.7736  140.4513  143.5889 H   0  0  0  0  0  0  0  0  0  0  0  0  # atno 7974 bound_to 7965
  155.4550  140.0541  157.2997 H   0  0  0  0  0  0  0  0  0  0  0  0  # atno 8008 bound_to 7997
  154.4761  140.2061  155.9830 H   0  0  0  0  0  0  0  0  0  0  0  0  # atno 8009 bound_to 7997
  156.1134  140.3200  155.8109 H   0  0  0  0  0  0  0  0  0  0  0  0  # atno 8010 bound_to 7997
  139.9097  143.6509  152.2578 H   0  0  0  0  0  0  0  0  0  0  0  0  # atno 10167 bound_to 10162
  157.3062  131.0879  151.1352 H   0  0  0  0  0  0  0  0  0  0  0  0  # atno 10718 bound_to 10713
  153.2623  135.6924  153.7565 H   0  0  0  0  0  0  0  0  0  0  0  0  # atno 10763 bound_to 10752
  153.6620  135.3359  155.3130 H   0  0  0  0  0  0  0  0  0  0  0  0  # atno 10764 bound_to 10752
  154.8435  135.4479  154.1618 H   0  0  0  0  0  0  0  0  0  0  0  0  # atno 10765 bound_to 10752
  139.9001  134.9579  156.6999 H   0  0  0  0  0  0  0  0  0  0  0  0  # atno 11005 bound_to 11000
  145.6251  139.1529  143.3000 LP  0  0  0  0  0  0  0  0  0  0  0  0  # atno 17320 bound_to 7965
  146.1900  140.6359  142.9150 LP  0  0  0  0  0  0  0  0  0  0  0  0  # atno 17321 bound_to 7965
  139.6953  144.7642  151.1367 LP  0  0  0  0  0  0  0  0  0  0  0  0  # atno 17342 bound_to 10162
  140.7688  143.5532  150.9181 LP  0  0  0  0  0  0  0  0  0  0  0  0  # atno 17343 bound_to 10162
  157.2691  130.6696  149.6011 LP  0  0  0  0  0  0  0  0  0  0  0  0  # atno 17370 bound_to 10713
  155.9674  130.4484  150.5620 LP  0  0  0  0  0  0  0  0  0  0  0  0  # atno 17371 bound_to 10713
  140.7158  133.9183  155.8114 LP  0  0  0  0  0  0  0  0  0  0  0  0  # atno 17394 bound_to 11000
  141.0265  134.0816  157.4062 LP  0  0  0  0  0  0  0  0  0  0  0  0  # atno 17395 bound_to 11000

$$$$
