AV-unprocessed.smi:689|AV-procd|sdf|3359|dock8
  -GOLD-   22720 0333D 1   1.00000     0.00000
 Structure written by MMmdl.
 34 35  0  0  0  0  0  0  0  0  1 V2000
  150.7104  137.8240  154.9630 C   0  0  0  0  0  0  0  0  0  0  0  0
  150.9277  139.0437  155.8118 C   0  0  0  0  0  0  0  0  0  0  0  0
  151.0396  140.2293  155.2371 N   0  0  0  0  0  0  0  0  0  0  0  0
  151.2202  141.1443  156.2785 O   0  0  0  0  0  0  0  0  0  0  0  0
  151.2085  140.4660  157.4537 C   0  0  0  0  0  0  0  0  0  0  0  0
  151.3767  141.2818  158.6907 C   0  0  0  0  0  0  0  0  0  0  0  0
  151.0296  139.1277  157.2301 C   0  0  0  0  0  0  0  0  0  0  0  0
  150.9413  138.0041  158.2304 C   0  0  0  0  0  0  0  0  0  0  0  0
  149.5009  137.8909  158.7239 C   0  0  0  0  0  0  0  0  0  0  0  0
  148.6632  138.7531  158.4633 O   0  0  0  0  0  0  0  0  0  0  0  0
  149.2319  136.7776  159.5250 N   0  0  0  0  0  0  0  0  0  0  0  0
  147.8552  136.5912  160.5532 S   0  0  0  0  0  0  0  0  0  0  0  0
  148.3050  136.6976  161.9501 O   0  0  0  0  0  0  0  0  0  0  0  0
  146.8254  137.5060  160.0377 O   0  0  0  0  0  0  0  0  0  0  0  0
  147.3053  134.8613  160.1915 C   0  0  0  0  0  0  0  0  0  0  0  0
  147.2562  133.9775  161.4242 C   0  0  0  0  0  0  0  0  0  0  0  0
  146.1164  133.0071  161.6365 C   0  0  0  0  0  0  0  0  0  0  0  0
  146.2426  134.2221  162.5197 C   0  0  0  0  0  0  0  0  0  0  0  0
  149.7006  137.4345  155.0945 H   0  0  0  0  0  0  0  0  0  0  0  0
  151.4088  137.0319  155.2324 H   0  0  0  0  0  0  0  0  0  0  0  0
  150.8497  138.0383  153.9027 H   0  0  0  0  0  0  0  0  0  0  0  0
  151.2971  140.6639  159.5849 H   0  0  0  0  0  0  0  0  0  0  0  0
  150.6113  142.0559  158.7482 H   0  0  0  0  0  0  0  0  0  0  0  0
  152.3522  141.7677  158.7024 H   0  0  0  0  0  0  0  0  0  0  0  0
  151.2348  137.0507  157.7902 H   0  0  0  0  0  0  0  0  0  0  0  0
  151.6128  138.1671  159.0746 H   0  0  0  0  0  0  0  0  0  0  0  0
  149.9558  136.0855  159.7152 H   0  0  0  0  0  0  0  0  0  0  0  0
  146.3053  134.9264  159.7623 H   0  0  0  0  0  0  0  0  0  0  0  0
  147.9591  134.4260  159.4361 H   0  0  0  0  0  0  0  0  0  0  0  0
  148.2343  133.6356  161.7557 H   0  0  0  0  0  0  0  0  0  0  0  0
  145.3089  133.0001  160.9070 H   0  0  0  0  0  0  0  0  0  0  0  0
  146.3560  132.0405  162.0747 H   0  0  0  0  0  0  0  0  0  0  0  0
  146.5702  134.0699  163.5462 H   0  0  0  0  0  0  0  0  0  0  0  0
  145.5200  135.0231  162.3749 H   0  0  0  0  0  0  0  0  0  0  0  0
  1  2  1  0  0  0  0
  1 19  1  0  0  0  0
  1 20  1  0  0  0  0
  1 21  1  0  0  0  0
  2  7  1  0  0  0  0
  2  3  2  0  0  0  0
  3  4  1  0  0  0  0
  4  5  1  0  0  0  0
  5  6  1  0  0  0  0
  5  7  2  0  0  0  0
  6 22  1  0  0  0  0
  6 23  1  0  0  0  0
  6 24  1  0  0  0  0
  7  8  1  0  0  0  0
  8  9  1  0  0  0  0
  8 25  1  0  0  0  0
  8 26  1  0  0  0  0
  9 10  2  0  0  0  0
  9 11  1  0  0  0  0
 11 12  1  0  0  0  0
 11 27  1  0  0  0  0
 12 13  2  0  0  0  0
 12 14  2  0  0  0  0
 12 15  1  0  0  0  0
 15 16  1  0  0  0  0
 15 28  1  0  0  0  0
 15 29  1  0  0  0  0
 16 18  1  0  0  0  0
 16 17  1  0  0  0  0
 16 30  1  0  0  0  0
 17 18  1  0  0  0  0
 17 31  1  0  0  0  0
 17 32  1  0  0  0  0
 18 33  1  0  0  0  0
 18 34  1  0  0  0  0
M  END
> <s_m_source_file>
AV-unprocessed.smi

> <i_m_source_file_index>
689

> <i_lp_mmshare_version>
43012

> <i_f3d_flags>
0

> <s_epik_input>
W0NIM11jMW5vYyhbQ0gzXSljMVtDSDJdQyg9TylbTkhdUyg9TykoPU8pW0NIMl1bQ0hdMltDSDJdW0NIMl0y

> <s_epik_cmdline>
J2VwaWtfcHl0aG9uJywgJy1waCcsICc3LjAnLCAnLXRuJywgJzgnLCAnLW1hJywgJzIwMCcsICctbWV0YWxfYmluZGluZycsICctaW1hZScsICc8aW5maWxlLm1hZT4nLCAnLW9tYWUnLCAnPG91dGZpbGUubWFlPic=

> <r_epik_Ionization_Penalty>
2.32728

> <r_epik_Ionization_Penalty_Charging>
0

> <r_epik_Ionization_Penalty_Neutral>
2.32728

> <r_epik_State_Penalty>
2.47991

> <r_epik_Charging_Adjusted_Penalty>
2.47991

> <i_epik_Tot_Q>
0

> <i_epik_Tot_abs_Q>
0

> <r_epik_Metal_State_Penalty>
2.4915

> <b_epik_Metal_Only>
0

> <s_lp_Force_Field>
OPLS_2005

> <r_lp_Energy>
-0.069028

> <b_lp_Chiralities_Consistent>
1

> <s_lp_Variant>
AV-unprocessed.smi:689-2

> <Gold.Version>
5.8.1

> <Gold.Id.Protein>
6NUR|6NUR_protein|mol2

> <Gold.PLP.Fitness>
36.6293

> <Gold.PLP.PLP>
-28.8679

> <Gold.PLP.part.hbond>
-3.5290

> <Gold.PLP.part.metal>
0.0000

> <Gold.PLP.part.buried>
-5.0430

> <Gold.PLP.part.nonpolar>
-20.7705

> <Gold.PLP.part.repulsive>
0.2938

> <Gold.PLP.ligand.clash>
0.0000

> <Gold.PLP.ligand.torsion>
1.3658

> <Gold.PLP.Chemscore.Hbond>
2.9500

> <Gold.PLP.Chemscore.CHOScore>
0.0000

> <Gold.PLP.Chemscore.Metal>
0.0000

> <Gold.Chemscore.Hbonds>
donor molecule, donor type, donor heavy atom, donor atom, acceptor molecule, acceptor atom, score
      P1  H  6931  6943       L1    13  1.00
      P1  H  6934  6947       L1    14  1.00
      P1  H  7989  7998       L1     3  1.00

> <Gold.PLP.Chemscore.Internal.Correction>
1.6429

> <Gold.Rescore>
     Score         DG    S(hbond)    S(metal)    S(lipo)     H(rot)  DE(clash)    DE(int)     intcor
     11.13     -14.03       1.72        0.00      60.12       1.65       0.00       2.90       ----

> <Gold.Chemscore.Fitness>
11.1266

> <Gold.Chemscore.DG>
-14.0298

> <Gold.Chemscore.ZeroCoef>
-5.4800

> <Gold.Chemscore.Hbond>
1.7198

> <Gold.Chemscore.Metal>
0.0000

> <Gold.Chemscore.Lipo>
60.1238

> <Gold.Chemscore.Internal_Hbond>
0.0000

> <Gold.Chemscore.DEClash>
0.0048

> <Gold.Chemscore.DEInternal>
2.8983

> <Gold.Chemscore.Rot>
1.6519

> <Gold.Chemscore.Internal.Correction>
   9.000000E+99

> <Gold.Chemscore.Hbonds>
donor molecule, donor type, donor heavy atom, donor atom, acceptor molecule, acceptor atom, score
      P1  H  6931  6943       L1    13  0.30
      P1  H  6934  6947       L1    14  0.39
      P1  H  7989  7998       L1     3  0.86

> <Gold.Chemscore.Hbond.Weighted>
-5.7443

> <Gold.Chemscore.Metal.Weighted>
-0.0000

> <Gold.Chemscore.Lipo.Weighted>
-7.0345

> <Gold.Chemscore.Internal_Hbond.Weighted>
0.0000

> <Gold.Chemscore.DEClash.Weighted>
0.0048

> <Gold.Chemscore.DEInternal.Weighted>
2.8983

> <Gold.Chemscore.Rot.Weighted>
4.2290

> <Gold.Chemscore.Internal.Correction.Weighted>
   9.000000E+99

> <Gold.Protein.RotatedTorsions>
[ 6907 6896 6895 6894 ] final  -48.57 input  -60.11 | X-H torsion
[ 7974 7965 7964 7962 ] final   87.31 input  175.53 | X-H torsion
[ 8008 7997 7996 7995 ] final  133.06 input   59.86 | X-H torsion
[ 10167 10162 10161 10158 ] final   -2.56 input  -65.29 | X-H torsion
[ 10718 10713 10712 10709 ] final  131.26 input   66.30 | X-H torsion
[ 10763 10752 10751 10750 ] final  -68.35 input  -60.55 | X-H torsion
[ 11005 11000 10999 10996 ] final -116.81 input  -57.11 | X-H torsion

> <Gold.Protein.ActiveResidues>
 VAL166  LYS551  ARG553  GLY616  TRP617  ASP618  TYR619  PRO620  LYS621  CYS622 
 ASP623  PHE694  ASN695  SER759  ASP760  ASP761  ALA762  ILE779  LEU786  VAL792 
 PHE793  MET794  SER795  GLU796  ALA797  LYS798  CYS799  TRP800  GLU811  SER814 

> <Gold.Protein.RotatedAtoms>
  150.8892  134.8294  159.7281 H   0  0  0  0  0  0  0  0  0  0  0  0  # atno 6907 bound_to 6896
  152.4827  134.4674  159.9634 H   0  0  0  0  0  0  0  0  0  0  0  0  # atno 6908 bound_to 6896
  151.4739  133.3523  159.2863 H   0  0  0  0  0  0  0  0  0  0  0  0  # atno 6909 bound_to 6896
  145.5607  139.2303  143.2461 H   0  0  0  0  0  0  0  0  0  0  0  0  # atno 7974 bound_to 7965
  156.2989  140.2531  156.3192 H   0  0  0  0  0  0  0  0  0  0  0  0  # atno 8008 bound_to 7997
  154.9252  140.0400  157.2038 H   0  0  0  0  0  0  0  0  0  0  0  0  # atno 8009 bound_to 7997
  154.8272  140.2870  155.5751 H   0  0  0  0  0  0  0  0  0  0  0  0  # atno 8010 bound_to 7997
  140.6856  143.6643  150.8240 H   0  0  0  0  0  0  0  0  0  0  0  0  # atno 10167 bound_to 10162
  157.4985  131.1093  150.9460 H   0  0  0  0  0  0  0  0  0  0  0  0  # atno 10718 bound_to 10713
  154.3878  135.6059  153.5826 H   0  0  0  0  0  0  0  0  0  0  0  0  # atno 10763 bound_to 10752
  152.9787  135.5876  154.4334 H   0  0  0  0  0  0  0  0  0  0  0  0  # atno 10764 bound_to 10752
  154.4113  135.2844  155.2013 H   0  0  0  0  0  0  0  0  0  0  0  0  # atno 10765 bound_to 10752
  141.0397  133.9855  157.3015 H   0  0  0  0  0  0  0  0  0  0  0  0  # atno 11005 bound_to 11000
  146.1853  140.6431  142.9170 LP  0  0  0  0  0  0  0  0  0  0  0  0  # atno 17320 bound_to 7965
  144.7484  140.5129  143.6819 LP  0  0  0  0  0  0  0  0  0  0  0  0  # atno 17321 bound_to 7965
  140.0349  143.5405  152.2744 LP  0  0  0  0  0  0  0  0  0  0  0  0  # atno 17342 bound_to 10162
  139.6211  144.7629  151.2738 LP  0  0  0  0  0  0  0  0  0  0  0  0  # atno 17343 bound_to 10162
  157.0139  130.5647  149.5324 LP  0  0  0  0  0  0  0  0  0  0  0  0  # atno 17370 bound_to 10713
  156.0214  130.5309  150.8287 LP  0  0  0  0  0  0  0  0  0  0  0  0  # atno 17371 bound_to 10713
  139.9266  135.0201  156.8257 LP  0  0  0  0  0  0  0  0  0  0  0  0  # atno 17394 bound_to 11000
  140.6257  133.9952  155.7639 LP  0  0  0  0  0  0  0  0  0  0  0  0  # atno 17395 bound_to 11000

$$$$
