AV-unprocessed.smi:2751|AV-procd|sdf|10600|dock5
  -GOLD-   2272015 53D 1   1.00000     0.00000
 Structure written by MMmdl.
 34 35  0  0  0  0  0  0  0  0  1 V2000
  151.0642  140.4982  155.0483 O   0  0  0  0  0  0  0  0  0  0  0  0
  149.9690  139.9275  155.0685 C   0  0  0  0  0  0  0  0  0  0  0  0
  149.0536  140.2030  156.0099 N   0  0  0  0  0  0  0  0  0  0  0  0
  149.2146  141.1691  157.0913 C   0  0  0  0  0  0  0  0  0  0  0  0
  150.5879  141.0337  157.7711 C   0  0  0  0  0  0  0  0  0  0  0  0
  150.9392  142.2418  158.6538 C   0  0  1  0  0  0  0  0  0  0  0  0
  152.3845  142.1660  159.1840 C   0  0  0  0  0  0  0  0  0  0  0  0
  152.7302  143.4212  159.9934 C   0  0  0  0  0  0  0  0  0  0  0  0
  152.4301  144.6724  159.1612 C   0  0  0  0  0  0  0  0  0  0  0  0
  150.9897  144.6246  158.6273 C   0  0  0  0  0  0  0  0  0  0  0  0
  150.7903  143.4298  157.8781 O   0  0  0  0  0  0  0  0  0  0  0  0
  149.4818  138.9579  154.2036 N   0  0  0  0  0  0  0  0  0  0  0  0
  148.4139  139.1950  153.5062 C   0  0  0  0  0  0  0  0  0  0  0  0
  147.7927  138.3513  152.5991 N   0  0  0  0  0  0  0  0  0  0  0  0
  146.7020  139.0011  152.0911 C   0  0  0  0  0  0  0  0  0  0  0  0
  146.6369  140.2038  152.6548 C   0  0  0  0  0  0  0  0  0  0  0  0
  147.6719  140.3538  153.5274 O   0  0  0  0  0  0  0  0  0  0  0  0
  148.1774  139.7024  155.9740 H   0  0  0  0  0  0  0  0  0  0  0  0
  149.0681  142.1823  156.7134 H   0  0  0  0  0  0  0  0  0  0  0  0
  148.4222  140.9936  157.8191 H   0  0  0  0  0  0  0  0  0  0  0  0
  150.5907  140.1308  158.3832 H   0  0  0  0  0  0  0  0  0  0  0  0
  151.3651  140.8960  157.0183 H   0  0  0  0  0  0  0  0  0  0  0  0
  150.2467  142.2741  159.4969 H   0  0  0  0  0  0  0  0  0  0  0  0
  152.5148  141.2778  159.8028 H   0  0  0  0  0  0  0  0  0  0  0  0
  153.0791  142.0697  158.3484 H   0  0  0  0  0  0  0  0  0  0  0  0
  152.1409  143.4404  160.9109 H   0  0  0  0  0  0  0  0  0  0  0  0
  153.7785  143.4051  160.2928 H   0  0  0  0  0  0  0  0  0  0  0  0
  152.5827  145.5706  159.7600 H   0  0  0  0  0  0  0  0  0  0  0  0
  153.1266  144.7320  158.3240 H   0  0  0  0  0  0  0  0  0  0  0  0
  150.2690  144.6788  159.4447 H   0  0  0  0  0  0  0  0  0  0  0  0
  150.8012  145.4814  157.9803 H   0  0  0  0  0  0  0  0  0  0  0  0
  148.0624  137.4168  152.3276 H   0  0  0  0  0  0  0  0  0  0  0  0
  146.0715  138.5192  151.3586 H   0  0  0  0  0  0  0  0  0  0  0  0
  145.9494  141.0297  152.5456 H   0  0  0  0  0  0  0  0  0  0  0  0
  1  2  2  0  0  0  0
  2 12  1  0  0  0  0
  2  3  1  0  0  0  0
  3  4  1  0  0  0  0
  3 18  1  0  0  0  0
  4  5  1  0  0  0  0
  4 19  1  0  0  0  0
  4 20  1  0  0  0  0
  5  6  1  0  0  0  0
  5 21  1  0  0  0  0
  5 22  1  0  0  0  0
  6 11  1  0  0  0  0
  6  7  1  0  0  0  0
  6 23  1  0  0  0  0
  7  8  1  0  0  0  0
  7 24  1  0  0  0  0
  7 25  1  0  0  0  0
  8  9  1  0  0  0  0
  8 26  1  0  0  0  0
  8 27  1  0  0  0  0
  9 10  1  0  0  0  0
  9 28  1  0  0  0  0
  9 29  1  0  0  0  0
 10 11  1  0  0  0  0
 10 30  1  0  0  0  0
 10 31  1  0  0  0  0
 12 13  2  0  0  0  0
 13 17  1  0  0  0  0
 13 14  1  0  0  0  0
 14 32  1  0  0  0  0
 14 15  1  0  0  0  0
 15 33  1  0  0  0  0
 15 16  2  0  0  0  0
 16 34  1  0  0  0  0
 16 17  1  0  0  0  0
M  END
> <s_m_source_file>
AV-unprocessed.smi

> <i_m_source_file_index>
2751

> <i_lp_mmshare_version>
43012

> <i_f3d_flags>
0

> <s_epik_input>
bzFbY0hdW2NIXW5jMVtOSF1DKD1PKVtOSF1bQ0gyXVtDSDJdW0NAQEhdMltDSDJdW0NIMl1bQ0gyXVtDSDJdTzI=

> <s_epik_cmdline>
J2VwaWtfcHl0aG9uJywgJy1waCcsICc3LjAnLCAnLXRuJywgJzgnLCAnLW1hJywgJzIwMCcsICctbWV0YWxfYmluZGluZycsICctaW1hZScsICc8aW5maWxlLm1hZT4nLCAnLW9tYWUnLCAnPG91dGZpbGUubWFlPic=

> <r_lp_tautomer_probability>
0.107061

> <r_epik_Ionization_Penalty>
1.421

> <r_epik_Ionization_Penalty_Charging>
1.42064

> <r_epik_Ionization_Penalty_Neutral>
0.0003614

> <r_epik_State_Penalty>
2.61489

> <r_epik_Charging_Adjusted_Penalty>
4.03553

> <i_epik_Tot_Q>
0

> <i_epik_Tot_abs_Q>
0

> <r_epik_Metal_State_Penalty>
3.57288

> <b_epik_Metal_Only>
0

> <s_lp_Force_Field>
OPLS_2005

> <r_lp_Energy>
32.4841

> <b_lp_Chiralities_Consistent>
1

> <s_lp_Variant>
AV-unprocessed.smi:2751-6

> <Gold.Version>
5.8.1

> <Gold.Id.Protein>
6NUR|6NUR_protein|mol2

> <Gold.PLP.Fitness>
38.5710

> <Gold.PLP.PLP>
-30.4894

> <Gold.PLP.part.hbond>
-2.8753

> <Gold.PLP.part.metal>
0.0000

> <Gold.PLP.part.buried>
0.0884

> <Gold.PLP.part.nonpolar>
-29.3920

> <Gold.PLP.part.repulsive>
1.2764

> <Gold.PLP.ligand.clash>
0.0000

> <Gold.PLP.ligand.torsion>
0.7446

> <Gold.PLP.Chemscore.Hbond>
2.0000

> <Gold.PLP.Chemscore.CHOScore>
1.1839

> <Gold.PLP.Chemscore.Metal>
0.0000

> <Gold.Chemscore.Hbonds>
donor molecule, donor type, donor heavy atom, donor atom, acceptor molecule, acceptor atom, score
      L1  H    14    32       P1  7948  1.00
      P1  H  7989  7998       L1     1  1.00
      L1  C    15    33       P1 10171  0.63
      L1  C    16    34       P1 10175  0.55

> <Gold.PLP.Chemscore.Internal.Correction>
0.0189

> <Gold.Rescore>
     Score         DG    S(hbond)    S(metal)    S(lipo)     H(rot)  DE(clash)    DE(int)     intcor
     12.69     -16.99       1.77        0.00      83.45       1.63       0.98       3.32       ----

> <Gold.Chemscore.Fitness>
12.6893

> <Gold.Chemscore.DG>
-16.9875

> <Gold.Chemscore.ZeroCoef>
-5.4800

> <Gold.Chemscore.Hbond>
1.7736

> <Gold.Chemscore.Metal>
0.0000

> <Gold.Chemscore.Lipo>
83.4484

> <Gold.Chemscore.Internal_Hbond>
0.0000

> <Gold.Chemscore.DEClash>
0.9789

> <Gold.Chemscore.DEInternal>
3.3192

> <Gold.Chemscore.Rot>
1.6328

> <Gold.Chemscore.Internal.Correction>
   9.000000E+99

> <Gold.Chemscore.Hbonds>
donor molecule, donor type, donor heavy atom, donor atom, acceptor molecule, acceptor atom, score
      L1  H    14    32       P1  7948  0.93
      P1  H  7989  7998       L1     1  0.86

> <Gold.Chemscore.Hbond.Weighted>
-5.9239

> <Gold.Chemscore.Metal.Weighted>
-0.0000

> <Gold.Chemscore.Lipo.Weighted>
-9.7635

> <Gold.Chemscore.Internal_Hbond.Weighted>
0.0000

> <Gold.Chemscore.DEClash.Weighted>
0.9789

> <Gold.Chemscore.DEInternal.Weighted>
3.3192

> <Gold.Chemscore.Rot.Weighted>
4.1799

> <Gold.Chemscore.Internal.Correction.Weighted>
   9.000000E+99

> <Gold.Protein.RotatedTorsions>
[ 6907 6896 6895 6894 ] final -118.72 input  -60.11 | X-H torsion
[ 7974 7965 7964 7962 ] final   19.87 input  175.53 | X-H torsion
[ 8008 7997 7996 7995 ] final -113.62 input   59.86 | X-H torsion
[ 10167 10162 10161 10158 ] final -164.65 input  -65.29 | X-H torsion
[ 10718 10713 10712 10709 ] final   38.18 input   66.30 | X-H torsion
[ 10763 10752 10751 10750 ] final -158.39 input  -60.55 | X-H torsion
[ 11005 11000 10999 10996 ] final -152.10 input  -57.11 | X-H torsion

> <Gold.Protein.ActiveResidues>
 VAL166  LYS551  ARG553  GLY616  TRP617  ASP618  TYR619  PRO620  LYS621  CYS622 
 ASP623  PHE694  ASN695  SER759  ASP760  ASP761  ALA762  ILE779  LEU786  VAL792 
 PHE793  MET794  SER795  GLU796  ALA797  LYS798  CYS799  TRP800  GLU811  SER814 

> <Gold.Protein.RotatedAtoms>
  150.8244  133.8198  159.3124 H   0  0  0  0  0  0  0  0  0  0  0  0  # atno 6907 bound_to 6896
  151.5947  135.1049  160.0056 H   0  0  0  0  0  0  0  0  0  0  0  0  # atno 6908 bound_to 6896
  152.4330  133.7270  159.6622 H   0  0  0  0  0  0  0  0  0  0  0  0  # atno 6909 bound_to 6896
  146.2133  139.8251  142.8671 H   0  0  0  0  0  0  0  0  0  0  0  0  # atno 7974 bound_to 7965
  155.0236  140.0393  157.2447 H   0  0  0  0  0  0  0  0  0  0  0  0  # atno 8008 bound_to 7997
  154.7356  140.2739  155.6394 H   0  0  0  0  0  0  0  0  0  0  0  0  # atno 8009 bound_to 7997
  156.2852  140.2675  156.2069 H   0  0  0  0  0  0  0  0  0  0  0  0  # atno 8010 bound_to 7997
  139.6236  144.0577  152.1954 H   0  0  0  0  0  0  0  0  0  0  0  0  # atno 10167 bound_to 10162
  157.3557  130.7622  149.7011 H   0  0  0  0  0  0  0  0  0  0  0  0  # atno 10718 bound_to 10713
  154.7560  135.3105  154.8469 H   0  0  0  0  0  0  0  0  0  0  0  0  # atno 10763 bound_to 10752
  153.9243  135.6792  153.4751 H   0  0  0  0  0  0  0  0  0  0  0  0  # atno 10764 bound_to 10752
  153.1158  135.4845  154.9042 H   0  0  0  0  0  0  0  0  0  0  0  0  # atno 10765 bound_to 10752
  140.7225  134.3711  157.5181 H   0  0  0  0  0  0  0  0  0  0  0  0  # atno 11005 bound_to 11000
  145.3055  141.0206  143.3584 LP  0  0  0  0  0  0  0  0  0  0  0  0  # atno 17320 bound_to 7965
  144.8974  139.4694  143.6649 LP  0  0  0  0  0  0  0  0  0  0  0  0  # atno 17321 bound_to 7965
  140.0225  144.6142  150.7555 LP  0  0  0  0  0  0  0  0  0  0  0  0  # atno 17342 bound_to 10162
  140.7397  143.2794  151.3642 LP  0  0  0  0  0  0  0  0  0  0  0  0  # atno 17343 bound_to 10162
  155.9729  130.4128  150.4049 LP  0  0  0  0  0  0  0  0  0  0  0  0  # atno 17370 bound_to 10713
  157.2119  131.0462  151.2594 LP  0  0  0  0  0  0  0  0  0  0  0  0  # atno 17371 bound_to 10713
  139.8845  134.8964  156.2702 LP  0  0  0  0  0  0  0  0  0  0  0  0  # atno 17394 bound_to 11000
  140.9991  133.7162  156.0932 LP  0  0  0  0  0  0  0  0  0  0  0  0  # atno 17395 bound_to 11000

$$$$
