AV-unprocessed.smi:598|AV-procd|sdf|3026|dock2
  -GOLD-   2262023533D 1   1.00000     0.00000
 Structure written by MMmdl.
 43 44  0  0  0  0  0  0  0  0  3 V2000
  154.0430  142.0227  160.3573 C   0  0  0  0  0  0  0  0  0  0  0  0
  152.7618  142.6741  159.8046 C   0  0  1  0  0  0  0  0  0  0  0  0
  152.9914  144.1882  159.6261 C   0  0  0  0  0  0  0  0  0  0  0  0
  151.7363  144.8982  159.1085 C   0  0  0  0  0  0  0  0  0  0  0  0
  151.2768  144.2821  157.7843 C   0  0  0  0  0  0  0  0  0  0  0  0
  151.0216  142.7691  157.9275 C   0  0  1  0  0  0  0  0  0  0  0  0
  150.6295  142.2232  156.6292 N   0  0  0  0  0  0  0  0  0  0  0  0
  149.4631  141.6176  156.3588 C   0  0  0  0  0  0  0  0  0  0  0  0
  148.5698  141.4686  157.1940 O   0  0  0  0  0  0  0  0  0  0  0  0
  149.2819  141.1276  154.9152 C   0  0  0  0  0  0  0  0  0  0  0  0
  150.0931  139.9404  154.5975 N   0  0  0  0  0  0  0  0  0  0  0  0
  151.4931  140.0873  154.6578 C   0  0  0  0  0  0  0  0  0  0  0  0
  152.3323  139.0706  154.3792 C   0  0  0  0  0  0  0  0  0  0  0  0
  153.7674  139.2417  154.4380 N   0  3  0  0  0  0  0  0  0  0  0  0
  154.2399  140.3442  154.1801 O   0  0  0  0  0  0  0  0  0  0  0  0
  154.4694  138.2822  154.7434 O   0  5  0  0  0  0  0  0  0  0  0  0
  151.7477  137.7956  154.0110 C   0  0  0  0  0  0  0  0  0  0  0  0
  150.4096  137.6501  153.9467 C   0  0  0  0  0  0  0  0  0  0  0  0
  149.4981  138.7600  154.2441 C   0  0  0  0  0  0  0  0  0  0  0  0
  148.2748  138.6357  154.1795 O   0  0  0  0  0  0  0  0  0  0  0  0
  152.2649  142.0218  158.4826 C   0  0  2  0  0  0  0  0  0  0  0  0
  151.9730  140.5148  158.6568 C   0  0  0  0  0  0  0  0  0  0  0  0
  154.8442  142.0331  159.6179 H   0  0  0  0  0  0  0  0  0  0  0  0
  153.8770  140.9897  160.6611 H   0  0  0  0  0  0  0  0  0  0  0  0
  154.4015  142.5537  161.2396 H   0  0  0  0  0  0  0  0  0  0  0  0
  151.9812  142.5481  160.5563 H   0  0  0  0  0  0  0  0  0  0  0  0
  153.2898  144.6351  160.5751 H   0  0  0  0  0  0  0  0  0  0  0  0
  153.8167  144.3587  158.9335 H   0  0  0  0  0  0  0  0  0  0  0  0
  150.9375  144.8253  159.8475 H   0  0  0  0  0  0  0  0  0  0  0  0
  151.9396  145.9608  158.9737 H   0  0  0  0  0  0  0  0  0  0  0  0
  150.3712  144.7869  157.4453 H   0  0  0  0  0  0  0  0  0  0  0  0
  152.0340  144.4602  157.0193 H   0  0  0  0  0  0  0  0  0  0  0  0
  150.2033  142.6242  158.6359 H   0  0  0  0  0  0  0  0  0  0  0  0
  151.3028  142.3066  155.8814 H   0  0  0  0  0  0  0  0  0  0  0  0
  148.2227  140.9188  154.7581 H   0  0  0  0  0  0  0  0  0  0  0  0
  149.5162  141.9409  154.2256 H   0  0  0  0  0  0  0  0  0  0  0  0
  151.8280  141.0768  154.9341 H   0  0  0  0  0  0  0  0  0  0  0  0
  152.3783  136.9488  153.7830 H   0  0  0  0  0  0  0  0  0  0  0  0
  149.9958  136.6917  153.6685 H   0  0  0  0  0  0  0  0  0  0  0  0
  153.0647  142.1166  157.7461 H   0  0  0  0  0  0  0  0  0  0  0  0
  151.2163  140.3461  159.4234 H   0  0  0  0  0  0  0  0  0  0  0  0
  152.8659  139.9589  158.9394 H   0  0  0  0  0  0  0  0  0  0  0  0
  151.6131  140.0596  157.7342 H   0  0  0  0  0  0  0  0  0  0  0  0
  1  2  1  0  0  0  0
  1 23  1  0  0  0  0
  1 24  1  0  0  0  0
  1 25  1  0  0  0  0
  2 21  1  0  0  0  0
  2  3  1  0  0  0  0
  2 26  1  0  0  0  0
  3  4  1  0  0  0  0
  3 27  1  0  0  0  0
  3 28  1  0  0  0  0
  4  5  1  0  0  0  0
  4 29  1  0  0  0  0
  4 30  1  0  0  0  0
  5  6  1  0  0  0  0
  5 31  1  0  0  0  0
  5 32  1  0  0  0  0
  6  7  1  0  0  0  0
  6 21  1  0  0  0  0
  6 33  1  0  0  0  0
  7  8  1  0  0  0  0
  7 34  1  0  0  0  0
  8  9  2  0  0  0  0
  8 10  1  0  0  0  0
 10 11  1  0  0  0  0
 10 35  1  0  0  0  0
 10 36  1  0  0  0  0
 11 19  1  0  0  0  0
 11 12  1  0  0  0  0
 12 13  2  0  0  0  0
 12 37  1  0  0  0  0
 13 14  1  0  0  0  0
 13 17  1  0  0  0  0
 14 15  2  0  0  0  0
 14 16  1  0  0  0  0
 17 18  2  0  0  0  0
 17 38  1  0  0  0  0
 18 19  1  0  0  0  0
 18 39  1  0  0  0  0
 19 20  2  0  0  0  0
 21 22  1  0  0  0  0
 21 40  1  0  0  0  0
 22 41  1  0  0  0  0
 22 42  1  0  0  0  0
 22 43  1  0  0  0  0
M  CHG  1  14   1
M  CHG  1  16  -1
M  END
> <s_m_source_file>
AV-unprocessed.smi

> <i_m_source_file_index>
598

> <i_lp_mmshare_version>
43012

> <i_f3d_flags>
0

> <s_epik_input>
W0NIM11bQ0BASF0xW0NIMl1bQ0gyXVtDSDJdW0NASF0oW0NASF0xW0NIM10pW05IXUMoPU8pW0NIMl1uMltjSF1jKFtOK10oPU8pW08tXSlbY0hdW2NIXWMyPU8=

> <s_epik_cmdline>
J2VwaWtfcHl0aG9uJywgJy1waCcsICc3LjAnLCAnLXRuJywgJzgnLCAnLW1hJywgJzIwMCcsICctbWV0YWxfYmluZGluZycsICctaW1hZScsICc8aW5maWxlLm1hZT4nLCAnLW9tYWUnLCAnPG91dGZpbGUubWFlPic=

> <r_lp_tautomer_probability>
1

> <r_epik_Ionization_Penalty>
1.91291e-08

> <r_epik_Ionization_Penalty_Charging>
8.21931e-11

> <r_epik_Ionization_Penalty_Neutral>
1.90469e-08

> <r_epik_State_Penalty>
-0

> <r_epik_Charging_Adjusted_Penalty>
8.21931e-11

> <i_epik_Tot_Q>
0

> <i_epik_Tot_abs_Q>
2

> <r_epik_Metal_State_Penalty>
-0

> <b_epik_Metal_Only>
0

> <s_lp_Force_Field>
OPLS_2005

> <r_lp_Energy>
23.592

> <b_lp_Chiralities_Consistent>
1

> <s_lp_Variant>
AV-unprocessed.smi:598-6

> <Gold.Version>
5.8.1

> <Gold.Id.Protein>
6NUR|6NUR_protein|mol2

> <Gold.PLP.Fitness>
47.0614

> <Gold.PLP.PLP>
-44.8978

> <Gold.PLP.part.hbond>
-1.8996

> <Gold.PLP.part.metal>
0.0000

> <Gold.PLP.part.buried>
0.8297

> <Gold.PLP.part.nonpolar>
-45.8846

> <Gold.PLP.part.repulsive>
1.1765

> <Gold.PLP.ligand.clash>
0.0000

> <Gold.PLP.ligand.torsion>
0.5440

> <Gold.PLP.Chemscore.Hbond>
1.0800

> <Gold.PLP.Chemscore.CHOScore>
0.0000

> <Gold.PLP.Chemscore.Metal>
0.0000

> <Gold.Chemscore.Hbonds>
donor molecule, donor type, donor heavy atom, donor atom, acceptor molecule, acceptor atom, score
      P1  H  7997  8010       L1    15  0.17

> <Gold.PLP.Chemscore.Internal.Correction>
0.0114

> <Gold.Rescore>
     Score         DG    S(hbond)    S(metal)    S(lipo)     H(rot)  DE(clash)    DE(int)     intcor
     16.97     -19.20       1.30        0.00     113.79       1.54       1.58       0.66       ----

> <Gold.Chemscore.Fitness>
16.9675

> <Gold.Chemscore.DG>
-19.2045

> <Gold.Chemscore.ZeroCoef>
-5.4800

> <Gold.Chemscore.Hbond>
1.3030

> <Gold.Chemscore.Metal>
0.0000

> <Gold.Chemscore.Lipo>
113.7886

> <Gold.Chemscore.Internal_Hbond>
0.0000

> <Gold.Chemscore.DEClash>
1.5798

> <Gold.Chemscore.DEInternal>
0.6572

> <Gold.Chemscore.Rot>
1.5393

> <Gold.Chemscore.Internal.Correction>
   9.000000E+99

> <Gold.Chemscore.Hbond.Weighted>
-4.3520

> <Gold.Chemscore.Metal.Weighted>
-0.0000

> <Gold.Chemscore.Lipo.Weighted>
-13.3133

> <Gold.Chemscore.Internal_Hbond.Weighted>
0.0000

> <Gold.Chemscore.DEClash.Weighted>
1.5798

> <Gold.Chemscore.DEInternal.Weighted>
0.6572

> <Gold.Chemscore.Rot.Weighted>
3.9407

> <Gold.Chemscore.Internal.Correction.Weighted>
   9.000000E+99

> <Gold.Protein.RotatedTorsions>
[ 6907 6896 6895 6894 ] final  -91.71 input  -60.11 | X-H torsion
[ 7974 7965 7964 7962 ] final  137.10 input  175.53 | X-H torsion
[ 8008 7997 7996 7995 ] final  129.34 input   59.86 | X-H torsion
[ 10167 10162 10161 10158 ] final   54.29 input  -65.29 | X-H torsion
[ 10718 10713 10712 10709 ] final   80.61 input   66.30 | X-H torsion
[ 10763 10752 10751 10750 ] final  -53.09 input  -60.55 | X-H torsion
[ 11005 11000 10999 10996 ] final  -97.59 input  -57.11 | X-H torsion

> <Gold.Protein.ActiveResidues>
 VAL166  LYS551  ARG553  GLY616  TRP617  ASP618  TYR619  PRO620  LYS621  CYS622 
 ASP623  PHE694  ASN695  SER759  ASP760  ASP761  ALA762  ILE779  LEU786  VAL792 
 PHE793  MET794  SER795  GLU796  ALA797  LYS798  CYS799  TRP800  GLU811  SER814 

> <Gold.Protein.RotatedAtoms>
  150.6896  134.2235  159.4405 H   0  0  0  0  0  0  0  0  0  0  0  0  # atno 6907 bound_to 6896
  152.0190  134.9831  160.0579 H   0  0  0  0  0  0  0  0  0  0  0  0  # atno 6908 bound_to 6896
  152.1415  133.4432  159.4806 H   0  0  0  0  0  0  0  0  0  0  0  0  # atno 6909 bound_to 6896
  144.9500  139.4830  143.5530 H   0  0  0  0  0  0  0  0  0  0  0  0  # atno 7974 bound_to 7965
  156.2934  140.2623  156.2583 H   0  0  0  0  0  0  0  0  0  0  0  0  # atno 8008 bound_to 7997
  154.9814  140.0389  157.2297 H   0  0  0  0  0  0  0  0  0  0  0  0  # atno 8009 bound_to 7997
  154.7768  140.2788  155.6099 H   0  0  0  0  0  0  0  0  0  0  0  0  # atno 8010 bound_to 7997
  140.2317  144.3679  150.6412 H   0  0  0  0  0  0  0  0  0  0  0  0  # atno 10167 bound_to 10162
  157.6811  130.9967  150.2104 H   0  0  0  0  0  0  0  0  0  0  0  0  # atno 10718 bound_to 10713
  154.1533  135.6486  153.4968 H   0  0  0  0  0  0  0  0  0  0  0  0  # atno 10763 bound_to 10752
  153.0131  135.5343  154.6786 H   0  0  0  0  0  0  0  0  0  0  0  0  # atno 10764 bound_to 10752
  154.6080  135.2951  155.0435 H   0  0  0  0  0  0  0  0  0  0  0  0  # atno 10765 bound_to 10752
  141.1374  133.8182  157.0726 H   0  0  0  0  0  0  0  0  0  0  0  0  # atno 11005 bound_to 11000
  146.3317  139.8579  142.8861 LP  0  0  0  0  0  0  0  0  0  0  0  0  # atno 17320 bound_to 7965
  145.2858  141.0152  143.3691 LP  0  0  0  0  0  0  0  0  0  0  0  0  # atno 17321 bound_to 7965
  140.6180  143.2174  151.6752 LP  0  0  0  0  0  0  0  0  0  0  0  0  # atno 17342 bound_to 10162
  139.5108  144.3532  152.0633 LP  0  0  0  0  0  0  0  0  0  0  0  0  # atno 17343 bound_to 10162
  156.2776  130.3729  149.7967 LP  0  0  0  0  0  0  0  0  0  0  0  0  # atno 17370 bound_to 10713
  156.5666  130.8406  151.3344 LP  0  0  0  0  0  0  0  0  0  0  0  0  # atno 17371 bound_to 10713
  140.0501  134.9810  157.1121 LP  0  0  0  0  0  0  0  0  0  0  0  0  # atno 17394 bound_to 11000
  140.4002  134.2090  155.7163 LP  0  0  0  0  0  0  0  0  0  0  0  0  # atno 17395 bound_to 11000

$$$$
