AV-unprocessed.smi:101|AV-procd|sdf|943|dock8
  -GOLD-   2262017463D 1   1.00000     0.00000
 Structure written by MMmdl.
 43 45  0  0  0  0  0  0  0  0  2 V2000
  148.1159  137.0467  159.1036 C   0  0  0  0  0  0  0  0  0  0  0  0
  149.0453  136.8446  157.9199 C   0  0  0  0  0  0  0  0  0  0  0  0
  149.5369  137.8800  157.2037 C   0  0  0  0  0  0  0  0  0  0  0  0
  150.3798  137.6905  156.1231 N   0  0  0  0  0  0  0  0  0  0  0  0
  150.9054  138.8772  155.3429 C   0  0  2  0  0  0  0  0  0  0  0  0
  151.0704  139.9521  156.2194 O   0  0  0  0  0  0  0  0  0  0  0  0
  150.5894  141.1446  155.6105 C   0  0  2  0  0  0  0  0  0  0  0  0
  150.2339  142.1985  156.6687 C   0  0  0  0  0  0  0  0  0  0  0  0
  151.2109  142.1760  157.6962 O   0  0  0  0  0  0  0  0  0  0  0  0
  151.5002  143.3025  158.3754 C   0  0  0  0  0  0  0  0  0  0  0  0
  151.2803  144.4356  157.9421 O   0  0  0  0  0  0  0  0  0  0  0  0
  152.1167  143.0355  159.7071 C   0  0  0  0  0  0  0  0  0  0  0  0
  151.9404  143.9717  160.7528 C   0  0  0  0  0  0  0  0  0  0  0  0
  152.5099  143.7460  162.0210 C   0  0  0  0  0  0  0  0  0  0  0  0
  153.2625  142.5812  162.2592 C   0  0  0  0  0  0  0  0  0  0  0  0
  153.4451  141.6421  161.2274 C   0  0  0  0  0  0  0  0  0  0  0  0
  152.8764  141.8660  159.9584 C   0  0  0  0  0  0  0  0  0  0  0  0
  149.4268  140.6661  154.7322 C   0  0  2  0  0  0  0  0  0  0  0  0
  148.2392  140.5341  155.4969 O   0  0  0  0  0  0  0  0  0  0  0  0
  149.9507  139.3292  154.2167 C   0  0  2  0  0  0  0  0  0  0  0  0
  148.9213  138.4181  153.8703 O   0  0  0  0  0  0  0  0  0  0  0  0
  150.7279  136.3729  155.7263 C   0  0  0  0  0  0  0  0  0  0  0  0
  151.4431  136.2351  154.7336 O   0  0  0  0  0  0  0  0  0  0  0  0
  150.2456  135.3224  156.4491 N   0  5  0  0  0  0  0  0  0  0  0  0
  149.4252  135.4819  157.5274 C   0  0  0  0  0  0  0  0  0  0  0  0
  148.9992  134.5240  158.1721 O   0  0  0  0  0  0  0  0  0  0  0  0
  147.9336  138.1058  159.2877 H   0  0  0  0  0  0  0  0  0  0  0  0
  148.5489  136.6164  160.0072 H   0  0  0  0  0  0  0  0  0  0  0  0
  147.1552  136.5656  158.9180 H   0  0  0  0  0  0  0  0  0  0  0  0
  149.2563  138.8845  157.4830 H   0  0  0  0  0  0  0  0  0  0  0  0
  151.8919  138.5946  154.9732 H   0  0  0  0  0  0  0  0  0  0  0  0
  151.3745  141.5300  154.9569 H   0  0  0  0  0  0  0  0  0  0  0  0
  150.2238  143.1905  156.2151 H   0  0  0  0  0  0  0  0  0  0  0  0
  149.2407  142.0107  157.0794 H   0  0  0  0  0  0  0  0  0  0  0  0
  151.3666  144.8733  160.5937 H   0  0  0  0  0  0  0  0  0  0  0  0
  152.3687  144.4678  162.8119 H   0  0  0  0  0  0  0  0  0  0  0  0
  153.6990  142.4083  163.2320 H   0  0  0  0  0  0  0  0  0  0  0  0
  154.0224  140.7475  161.4089 H   0  0  0  0  0  0  0  0  0  0  0  0
  153.0351  141.1245  159.1890 H   0  0  0  0  0  0  0  0  0  0  0  0
  149.2267  141.3602  153.9154 H   0  0  0  0  0  0  0  0  0  0  0  0
  148.0328  141.3718  155.8811 H   0  0  0  0  0  0  0  0  0  0  0  0
  150.5650  139.5049  153.3328 H   0  0  0  0  0  0  0  0  0  0  0  0
  149.2822  137.7726  153.2811 H   0  0  0  0  0  0  0  0  0  0  0  0
  1  2  1  0  0  0  0
  1 27  1  0  0  0  0
  1 28  1  0  0  0  0
  1 29  1  0  0  0  0
  2 25  1  0  0  0  0
  2  3  2  0  0  0  0
  3  4  1  0  0  0  0
  3 30  1  0  0  0  0
  4  5  1  0  0  0  0
  4 22  1  0  0  0  0
  5 20  1  0  0  0  0
  5  6  1  0  0  0  0
  5 31  1  0  0  0  0
  6  7  1  0  0  0  0
  7  8  1  0  0  0  0
  7 18  1  0  0  0  0
  7 32  1  0  0  0  0
  8  9  1  0  0  0  0
  8 33  1  0  0  0  0
  8 34  1  0  0  0  0
  9 10  1  0  0  0  0
 10 11  2  0  0  0  0
 10 12  1  0  0  0  0
 12 17  1  0  0  0  0
 12 13  2  0  0  0  0
 13 14  1  0  0  0  0
 13 35  1  0  0  0  0
 14 15  2  0  0  0  0
 14 36  1  0  0  0  0
 15 16  1  0  0  0  0
 15 37  1  0  0  0  0
 16 17  2  0  0  0  0
 16 38  1  0  0  0  0
 17 39  1  0  0  0  0
 18 19  1  0  0  0  0
 18 20  1  0  0  0  0
 18 40  1  0  0  0  0
 19 41  1  0  0  0  0
 20 21  1  0  0  0  0
 20 42  1  0  0  0  0
 21 43  1  0  0  0  0
 22 23  2  0  0  0  0
 22 24  1  0  0  0  0
 24 25  1  0  0  0  0
 25 26  2  0  0  0  0
M  CHG  1  24  -1
M  END
> <s_m_source_file>
AV-unprocessed.smi

> <i_m_source_file_index>
101

> <i_lp_mmshare_version>
43012

> <i_f3d_flags>
0

> <s_epik_input>
Tz1jMVtuSF1jKD1PKW4oW2NIXWMxW0NIM10pW0NAQEhdMk9bQ0BIXShbQ0BASF0oW09IXSlbQ0BIXTJbT0hdKVtDSDJdT0MoPU8pYzNbY0hdW2NIXVtjSF1bY0hdW2NIXTM=

> <s_epik_cmdline>
J2VwaWtfcHl0aG9uJywgJy1waCcsICc3LjAnLCAnLXRuJywgJzgnLCAnLW1hJywgJzIwMCcsICctbWV0YWxfYmluZGluZycsICctaW1hZScsICc8aW5maWxlLm1hZT4nLCAnLW9tYWUnLCAnPG91dGZpbGUubWFlPic=

> <r_lp_tautomer_probability>
0.999537

> <r_epik_Ionization_Penalty>
3.21006

> <r_epik_Ionization_Penalty_Charging>
5.75142e-08

> <r_epik_Ionization_Penalty_Neutral>
3.21006

> <r_epik_State_Penalty>
3.20925

> <r_epik_Charging_Adjusted_Penalty>
3.20925

> <i_epik_Tot_Q>
-1

> <i_epik_Tot_abs_Q>
1

> <r_epik_Metal_State_Penalty>
0.119957

> <b_epik_Metal_Only>
1

> <s_epik_Chemistry_Notes>
This compound has an ester and may undergo hydrolysis at high or low pH. This compound contains an acetal/aminal-like group ( X-CH(R)-Y where X, Y are N, S, or O) that may be acid/base labile, releasing an aldehyde.

> <s_lp_Force_Field>
OPLS_2005

> <r_lp_Energy>
51.0672

> <b_lp_Chiralities_Consistent>
1

> <s_lp_Variant>
AV-unprocessed.smi:101-31

> <Gold.Version>
5.8.1

> <Gold.Id.Protein>
6NUR|6NUR_protein|mol2

> <Gold.PLP.Fitness>
50.9151

> <Gold.PLP.PLP>
-45.9576

> <Gold.PLP.part.hbond>
-3.4538

> <Gold.PLP.part.metal>
0.0000

> <Gold.PLP.part.buried>
-4.5107

> <Gold.PLP.part.nonpolar>
-38.0399

> <Gold.PLP.part.repulsive>
0.3845

> <Gold.PLP.ligand.clash>
0.0000

> <Gold.PLP.ligand.torsion>
1.7729

> <Gold.PLP.Chemscore.Hbond>
2.8268

> <Gold.PLP.Chemscore.CHOScore>
0.0000

> <Gold.PLP.Chemscore.Metal>
0.0000

> <Gold.Chemscore.Hbonds>
donor molecule, donor type, donor heavy atom, donor atom, acceptor molecule, acceptor atom, score
      L1  H    21    43       P1  7948  0.84
      P1  H  6896  6907       L1    26  0.86
      P1  H 10752 10764       L1    23  1.00

> <Gold.PLP.Chemscore.Internal.Correction>
0.0229

> <Gold.Rescore>
     Score         DG    S(hbond)    S(metal)    S(lipo)     H(rot)  DE(clash)    DE(int)     intcor
     15.71     -18.50       2.75        0.00     104.11       3.27       0.94       1.84       ----

> <Gold.Chemscore.Fitness>
15.7111

> <Gold.Chemscore.DG>
-18.4970

> <Gold.Chemscore.ZeroCoef>
-5.4800

> <Gold.Chemscore.Hbond>
2.7531

> <Gold.Chemscore.Metal>
0.0000

> <Gold.Chemscore.Lipo>
104.1149

> <Gold.Chemscore.Internal_Hbond>
0.0000

> <Gold.Chemscore.DEClash>
0.9418

> <Gold.Chemscore.DEInternal>
1.8440

> <Gold.Chemscore.Rot>
3.2656

> <Gold.Chemscore.Internal.Correction>
   9.000000E+99

> <Gold.Chemscore.Hbonds>
donor molecule, donor type, donor heavy atom, donor atom, acceptor molecule, acceptor atom, score
      L1  H    21    43       P1  7948  0.76
      P1  H  6896  6907       L1    26  0.25
      P1  H 10752 10764       L1    23  1.00

> <Gold.Chemscore.Hbond.Weighted>
-9.1954

> <Gold.Chemscore.Metal.Weighted>
-0.0000

> <Gold.Chemscore.Lipo.Weighted>
-12.1814

> <Gold.Chemscore.Internal_Hbond.Weighted>
0.0000

> <Gold.Chemscore.DEClash.Weighted>
0.9418

> <Gold.Chemscore.DEInternal.Weighted>
1.8440

> <Gold.Chemscore.Rot.Weighted>
8.3598

> <Gold.Chemscore.Internal.Correction.Weighted>
   9.000000E+99

> <Gold.Protein.RotatedTorsions>
[ 6907 6896 6895 6894 ] final -102.56 input  -60.11 | X-H torsion
[ 7974 7965 7964 7962 ] final -159.88 input  175.53 | X-H torsion
[ 8008 7997 7996 7995 ] final  -86.05 input   59.86 | X-H torsion
[ 10167 10162 10161 10158 ] final -155.04 input  -65.29 | X-H torsion
[ 10718 10713 10712 10709 ] final   33.83 input   66.30 | X-H torsion
[ 10763 10752 10751 10750 ] final  -72.31 input  -60.55 | X-H torsion
[ 11005 11000 10999 10996 ] final   58.72 input  -57.11 | X-H torsion

> <Gold.Protein.ActiveResidues>
 VAL166  LYS551  ARG553  GLY616  TRP617  ASP618  TYR619  PRO620  LYS621  CYS622 
 ASP623  PHE694  ASN695  SER759  ASP760  ASP761  ALA762  ILE779  LEU786  VAL792 
 PHE793  MET794  SER795  GLU796  ALA797  LYS798  CYS799  TRP800  GLU811  SER814 

> <Gold.Protein.RotatedAtoms>
  150.7201  134.0563  159.3815 H   0  0  0  0  0  0  0  0  0  0  0  0  # atno 6907 bound_to 6896
  151.8541  135.0545  160.0471 H   0  0  0  0  0  0  0  0  0  0  0  0  # atno 6908 bound_to 6896
  152.2767  133.5397  159.5509 H   0  0  0  0  0  0  0  0  0  0  0  0  # atno 6909 bound_to 6896
  144.7448  140.3622  143.6094 H   0  0  0  0  0  0  0  0  0  0  0  0  # atno 7974 bound_to 7965
  154.6475  140.0583  156.9918 H   0  0  0  0  0  0  0  0  0  0  0  0  # atno 8008 bound_to 7997
  155.1421  140.3266  155.4431 H   0  0  0  0  0  0  0  0  0  0  0  0  # atno 8009 bound_to 7997
  156.2560  140.1962  156.6537 H   0  0  0  0  0  0  0  0  0  0  0  0  # atno 8010 bound_to 7997
  139.6963  143.9336  152.2409 H   0  0  0  0  0  0  0  0  0  0  0  0  # atno 10167 bound_to 10162
  157.3028  130.7359  149.6677 H   0  0  0  0  0  0  0  0  0  0  0  0  # atno 10718 bound_to 10713
  154.4439  135.5934  153.6147 H   0  0  0  0  0  0  0  0  0  0  0  0  # atno 10763 bound_to 10752
  152.9808  135.6005  154.3688 H   0  0  0  0  0  0  0  0  0  0  0  0  # atno 10764 bound_to 10752
  154.3541  135.2841  155.2335 H   0  0  0  0  0  0  0  0  0  0  0  0  # atno 10765 bound_to 10752
  140.0356  134.5947  155.9448 H   0  0  0  0  0  0  0  0  0  0  0  0  # atno 11005 bound_to 11000
  145.7165  139.1698  143.2509 LP  0  0  0  0  0  0  0  0  0  0  0  0  # atno 17320 bound_to 7965
  146.1308  140.7187  142.9413 LP  0  0  0  0  0  0  0  0  0  0  0  0  # atno 17321 bound_to 7965
  139.9166  144.6824  150.8505 LP  0  0  0  0  0  0  0  0  0  0  0  0  # atno 17342 bound_to 10162
  140.7697  143.3404  151.2219 LP  0  0  0  0  0  0  0  0  0  0  0  0  # atno 17343 bound_to 10162
  155.9672  130.4275  150.4745 LP  0  0  0  0  0  0  0  0  0  0  0  0  # atno 17370 bound_to 10713
  157.2729  131.0591  151.2248 LP  0  0  0  0  0  0  0  0  0  0  0  0  # atno 17371 bound_to 10713
  141.1855  133.6555  156.5203 LP  0  0  0  0  0  0  0  0  0  0  0  0  # atno 17394 bound_to 11000
  140.4152  134.7236  157.4859 LP  0  0  0  0  0  0  0  0  0  0  0  0  # atno 17395 bound_to 11000

$$$$
