AV-unprocessed.smi:1072|AV-procd|sdf|4687|dock5
  -GOLD-   22720 3203D 1   1.00000     0.00000
 Structure written by MMmdl.
 45 46  0  0  0  0  0  0  0  0  2 V2000
  154.6827  140.7032  161.1583 C   0  0  0  0  0  0  0  0  0  0  0  0
  153.6266  141.1745  160.1816 C   0  0  0  0  0  0  0  0  0  0  0  0
  153.4246  142.4286  160.0365 N   0  0  0  0  0  0  0  0  0  0  0  0
  152.4471  142.8712  159.1292 C   0  0  0  0  0  0  0  0  0  0  0  0
  152.2729  144.3762  159.0221 C   0  0  0  0  0  0  0  0  0  0  0  0
  151.7105  141.9863  158.3979 C   0  0  0  0  0  0  0  0  0  0  0  0
  150.6368  142.4191  157.3995 C   0  0  0  0  0  0  0  0  0  0  0  0
  149.2701  141.7478  157.5545 C   0  0  0  0  0  0  0  0  0  0  0  0
  149.1140  140.8382  158.3686 O   0  0  0  0  0  0  0  0  0  0  0  0
  148.2956  142.2144  156.7543 N   0  0  0  0  0  0  0  0  0  0  0  0
  146.8968  141.7725  156.6572 C   0  0  1  0  0  0  0  0  0  0  0  0
  146.1747  142.0252  157.9984 C   0  0  0  0  0  0  0  0  0  0  0  0
  146.1496  142.4849  155.4990 C   0  0  0  0  0  0  0  0  0  0  0  0
  146.7399  142.1546  154.1164 C   0  0  0  0  0  0  0  0  0  0  0  0
  146.7468  140.6375  153.8557 C   0  0  1  0  0  0  0  0  0  0  0  0
  147.3462  140.3060  152.4817 C   0  0  0  0  0  0  0  0  0  0  0  0
  147.4872  139.9017  154.9877 C   0  0  0  0  0  0  0  0  0  0  0  0
  146.9049  140.2514  156.3712 C   0  0  0  0  0  0  0  0  0  0  0  0
  151.9768  140.5496  158.5918 C   0  0  0  0  0  0  0  0  0  0  0  0
  151.3502  139.7090  157.9479 O   0  0  0  0  0  0  0  0  0  0  0  0
  152.9338  140.2005  159.4983 N   0  5  0  0  0  0  0  0  0  0  0  0
  155.3130  141.5314  161.4848 H   0  0  0  0  0  0  0  0  0  0  0  0
  155.3227  139.9517  160.6946 H   0  0  0  0  0  0  0  0  0  0  0  0
  154.2118  140.2617  162.0369 H   0  0  0  0  0  0  0  0  0  0  0  0
  151.2721  144.6687  159.3398 H   0  0  0  0  0  0  0  0  0  0  0  0
  152.4239  144.7090  157.9951 H   0  0  0  0  0  0  0  0  0  0  0  0
  152.9913  144.9021  159.6518 H   0  0  0  0  0  0  0  0  0  0  0  0
  150.4901  143.4990  157.4291 H   0  0  0  0  0  0  0  0  0  0  0  0
  151.0106  142.2205  156.3946 H   0  0  0  0  0  0  0  0  0  0  0  0
  148.5531  142.9671  156.1327 H   0  0  0  0  0  0  0  0  0  0  0  0
  145.1636  141.6173  157.9851 H   0  0  0  0  0  0  0  0  0  0  0  0
  146.0848  143.0883  158.2221 H   0  0  0  0  0  0  0  0  0  0  0  0
  146.7053  141.5574  158.8286 H   0  0  0  0  0  0  0  0  0  0  0  0
  145.1017  142.1823  155.5097 H   0  0  0  0  0  0  0  0  0  0  0  0
  146.1395  143.5652  155.6433 H   0  0  0  0  0  0  0  0  0  0  0  0
  146.1582  142.6606  153.3451 H   0  0  0  0  0  0  0  0  0  0  0  0
  147.7531  142.5515  154.0424 H   0  0  0  0  0  0  0  0  0  0  0  0
  145.7116  140.2931  153.8546 H   0  0  0  0  0  0  0  0  0  0  0  0
  148.3862  140.6268  152.4148 H   0  0  0  0  0  0  0  0  0  0  0  0
  146.7936  140.8009  151.6827 H   0  0  0  0  0  0  0  0  0  0  0  0
  147.3152  139.2335  152.2878 H   0  0  0  0  0  0  0  0  0  0  0  0
  147.4244  138.8242  154.8311 H   0  0  0  0  0  0  0  0  0  0  0  0
  148.5488  140.1505  154.9586 H   0  0  0  0  0  0  0  0  0  0  0  0
  147.4665  139.7260  157.1451 H   0  0  0  0  0  0  0  0  0  0  0  0
  145.8864  139.8642  156.4269 H   0  0  0  0  0  0  0  0  0  0  0  0
  1  2  1  0  0  0  0
  1 22  1  0  0  0  0
  1 23  1  0  0  0  0
  1 24  1  0  0  0  0
  2 21  1  0  0  0  0
  2  3  2  0  0  0  0
  3  4  1  0  0  0  0
  4  5  1  0  0  0  0
  4  6  2  0  0  0  0
  5 25  1  0  0  0  0
  5 26  1  0  0  0  0
  5 27  1  0  0  0  0
  6  7  1  0  0  0  0
  6 19  1  0  0  0  0
  7  8  1  0  0  0  0
  7 28  1  0  0  0  0
  7 29  1  0  0  0  0
  8  9  2  0  0  0  0
  8 10  1  0  0  0  0
 10 11  1  0  0  0  0
 10 30  1  0  0  0  0
 11 18  1  0  0  0  0
 11 12  1  0  0  0  0
 11 13  1  0  0  0  0
 12 31  1  0  0  0  0
 12 32  1  0  0  0  0
 12 33  1  0  0  0  0
 13 14  1  0  0  0  0
 13 34  1  0  0  0  0
 13 35  1  0  0  0  0
 14 15  1  0  0  0  0
 14 36  1  0  0  0  0
 14 37  1  0  0  0  0
 15 16  1  0  0  0  0
 15 17  1  0  0  0  0
 15 38  1  0  0  0  0
 16 39  1  0  0  0  0
 16 40  1  0  0  0  0
 16 41  1  0  0  0  0
 17 18  1  0  0  0  0
 17 42  1  0  0  0  0
 17 43  1  0  0  0  0
 18 44  1  0  0  0  0
 18 45  1  0  0  0  0
 19 20  2  0  0  0  0
 19 21  1  0  0  0  0
M  CHG  1  21  -1
M  END
> <s_m_source_file>
AV-unprocessed.smi

> <i_m_source_file_index>
1072

> <i_lp_mmshare_version>
43012

> <i_f3d_flags>
0

> <s_epik_input>
W0NIM11jMW5jKFtDSDNdKWMoYyg9TylbbkhdMSlbQ0gyXUMoPU8pW05IXVtDQEBdMihbQ0gzXSlbQ0gyXVtDSDJdW0NAQEhdKFtDSDNdKVtDSDJdW0NIMl0y

> <s_epik_cmdline>
J2VwaWtfcHl0aG9uJywgJy1waCcsICc3LjAnLCAnLXRuJywgJzgnLCAnLW1hJywgJzIwMCcsICctbWV0YWxfYmluZGluZycsICctaW1hZScsICc8aW5maWxlLm1hZT4nLCAnLW9tYWUnLCAnPG91dGZpbGUubWFlPic=

> <r_lp_tautomer_probability>
0.839158

> <r_epik_Ionization_Penalty>
6.73882

> <r_epik_Ionization_Penalty_Charging>
8.02239e-08

> <r_epik_Ionization_Penalty_Neutral>
6.73882

> <r_epik_State_Penalty>
4.55873

> <r_epik_Charging_Adjusted_Penalty>
4.55873

> <i_epik_Tot_Q>
-1

> <i_epik_Tot_abs_Q>
1

> <r_epik_Metal_State_Penalty>
0.872514

> <b_epik_Metal_Only>
1

> <s_lp_Force_Field>
OPLS_2005

> <r_lp_Energy>
14.8033

> <b_lp_Chiralities_Consistent>
1

> <s_lp_Variant>
AV-unprocessed.smi:1072-5

> <Gold.Version>
5.8.1

> <Gold.Id.Protein>
6NUR|6NUR_protein|mol2

> <Gold.PLP.Fitness>
37.7521

> <Gold.PLP.PLP>
-35.2453

> <Gold.PLP.part.hbond>
-1.4524

> <Gold.PLP.part.metal>
0.0000

> <Gold.PLP.part.buried>
-2.3162

> <Gold.PLP.part.nonpolar>
-32.3946

> <Gold.PLP.part.repulsive>
0.0216

> <Gold.PLP.ligand.clash>
0.0000

> <Gold.PLP.ligand.torsion>
0.1409

> <Gold.PLP.Chemscore.Hbond>
0.9280

> <Gold.PLP.Chemscore.CHOScore>
0.0000

> <Gold.PLP.Chemscore.Metal>
0.0000

> <Gold.Chemscore.Hbonds>
donor molecule, donor type, donor heavy atom, donor atom, acceptor molecule, acceptor atom, score
      L1  H    10    30       P1  8028  1.00

> <Gold.PLP.Chemscore.Internal.Correction>
0.0047

> <Gold.Rescore>
     Score         DG    S(hbond)    S(metal)    S(lipo)     H(rot)  DE(clash)    DE(int)     intcor
     12.21     -14.75       0.83        0.00      86.98       1.43       1.46       1.09       ----

> <Gold.Chemscore.Fitness>
12.2099

> <Gold.Chemscore.DG>
-14.7526

> <Gold.Chemscore.ZeroCoef>
-5.4800

> <Gold.Chemscore.Hbond>
0.8283

> <Gold.Chemscore.Metal>
0.0000

> <Gold.Chemscore.Lipo>
86.9804

> <Gold.Chemscore.Internal_Hbond>
0.0000

> <Gold.Chemscore.DEClash>
1.4573

> <Gold.Chemscore.DEInternal>
1.0854

> <Gold.Chemscore.Rot>
1.4339

> <Gold.Chemscore.Internal.Correction>
   9.000000E+99

> <Gold.Chemscore.Hbonds>
donor molecule, donor type, donor heavy atom, donor atom, acceptor molecule, acceptor atom, score
      L1  H    10    30       P1  8028  0.95

> <Gold.Chemscore.Hbond.Weighted>
-2.7666

> <Gold.Chemscore.Metal.Weighted>
-0.0000

> <Gold.Chemscore.Lipo.Weighted>
-10.1767

> <Gold.Chemscore.Internal_Hbond.Weighted>
0.0000

> <Gold.Chemscore.DEClash.Weighted>
1.4573

> <Gold.Chemscore.DEInternal.Weighted>
1.0854

> <Gold.Chemscore.Rot.Weighted>
3.6708

> <Gold.Chemscore.Internal.Correction.Weighted>
   9.000000E+99

> <Gold.Protein.RotatedTorsions>
[ 6907 6896 6895 6894 ] final -152.87 input  -60.11 | X-H torsion
[ 7974 7965 7964 7962 ] final   86.40 input  175.53 | X-H torsion
[ 8008 7997 7996 7995 ] final  -50.84 input   59.86 | X-H torsion
[ 10167 10162 10161 10158 ] final -116.81 input  -65.29 | X-H torsion
[ 10718 10713 10712 10709 ] final   25.01 input   66.30 | X-H torsion
[ 10763 10752 10751 10750 ] final  119.88 input  -60.55 | X-H torsion
[ 11005 11000 10999 10996 ] final  178.77 input  -57.11 | X-H torsion

> <Gold.Protein.ActiveResidues>
 VAL166  LYS551  ARG553  GLY616  TRP617  ASP618  TYR619  PRO620  LYS621  CYS622 
 ASP623  PHE694  ASN695  SER759  ASP760  ASP761  ALA762  ILE779  LEU786  VAL792 
 PHE793  MET794  SER795  GLU796  ALA797  LYS798  CYS799  TRP800  GLU811  SER814 

> <Gold.Protein.RotatedAtoms>
  151.2341  133.4434  159.2604 H   0  0  0  0  0  0  0  0  0  0  0  0  # atno 6907 bound_to 6896
  151.0767  134.9832  159.8346 H   0  0  0  0  0  0  0  0  0  0  0  0  # atno 6908 bound_to 6896
  152.5419  134.2283  159.8867 H   0  0  0  0  0  0  0  0  0  0  0  0  # atno 6909 bound_to 6896
  145.5728  139.2315  143.2397 H   0  0  0  0  0  0  0  0  0  0  0  0  # atno 7974 bound_to 7965
  154.4070  140.1262  156.4731 H   0  0  0  0  0  0  0  0  0  0  0  0  # atno 8008 bound_to 7997
  155.7160  140.3493  155.4975 H   0  0  0  0  0  0  0  0  0  0  0  0  # atno 8009 bound_to 7997
  155.9258  140.1060  157.1161 H   0  0  0  0  0  0  0  0  0  0  0  0  # atno 8010 bound_to 7997
  140.0752  143.4840  152.1957 H   0  0  0  0  0  0  0  0  0  0  0  0  # atno 10167 bound_to 10162
  157.1876  130.6831  149.6137 H   0  0  0  0  0  0  0  0  0  0  0  0  # atno 10718 bound_to 10713
  153.5899  135.3468  155.2907 H   0  0  0  0  0  0  0  0  0  0  0  0  # atno 10763 bound_to 10752
  154.8654  135.4202  154.2528 H   0  0  0  0  0  0  0  0  0  0  0  0  # atno 10764 bound_to 10752
  153.3333  135.7045  153.7000 H   0  0  0  0  0  0  0  0  0  0  0  0  # atno 10765 bound_to 10752
  140.3988  134.6796  157.4550 H   0  0  0  0  0  0  0  0  0  0  0  0  # atno 11005 bound_to 11000
  146.1772  140.6554  142.9206 LP  0  0  0  0  0  0  0  0  0  0  0  0  # atno 17320 bound_to 7965
  144.7430  140.4993  143.6856 LP  0  0  0  0  0  0  0  0  0  0  0  0  # atno 17321 bound_to 7965
  139.5812  144.7511  151.3635 LP  0  0  0  0  0  0  0  0  0  0  0  0  # atno 17342 bound_to 10162
  140.7106  143.7401  150.7560 LP  0  0  0  0  0  0  0  0  0  0  0  0  # atno 17343 bound_to 10162
  155.9716  130.4625  150.6149 LP  0  0  0  0  0  0  0  0  0  0  0  0  # atno 17370 bound_to 10713
  157.3892  131.0793  151.1409 LP  0  0  0  0  0  0  0  0  0  0  0  0  # atno 17371 bound_to 10713
  140.0352  134.6348  155.9053 LP  0  0  0  0  0  0  0  0  0  0  0  0  # atno 17394 bound_to 11000
  141.1864  133.6557  156.5239 LP  0  0  0  0  0  0  0  0  0  0  0  0  # atno 17395 bound_to 11000

$$$$
