AV-unprocessed.smi:3276|AV-procd|sdf|12535|dock3
  -GOLD-   2272018453D 1   1.00000     0.00000
 Structure written by MMmdl.
 39 40  0  0  0  0  0  0  0  0  1 V2000
  146.1717  133.4129  151.4106 C   0  0  0  0  0  0  0  0  0  0  0  0
  145.2084  134.4997  151.8378 C   0  0  0  0  0  0  0  0  0  0  0  0
  143.9231  134.1958  152.3341 C   0  0  0  0  0  0  0  0  0  0  0  0
  143.0630  135.1661  152.7116 N   0  0  0  0  0  0  0  0  0  0  0  0
  143.4923  136.4438  152.5903 C   0  0  0  0  0  0  0  0  0  0  0  0
  142.5103  137.5218  153.0128 C   0  0  0  0  0  0  0  0  0  0  0  0
  144.7823  136.7562  152.0904 C   0  0  0  0  0  0  0  0  0  0  0  0
  145.1928  138.0942  151.9794 N   0  0  0  0  0  0  0  0  0  0  0  0
  146.4628  138.5384  152.5421 C   0  0  0  0  0  0  0  0  0  0  0  0
  146.3312  138.9707  154.0096 C   0  0  0  0  0  0  0  0  0  0  0  0
  147.6225  139.2613  154.5162 O   0  0  0  0  0  0  0  0  0  0  0  0
  148.1324  140.5010  154.0531 C   0  0  0  0  0  0  0  0  0  0  0  0
  149.4787  140.7903  154.7313 C   0  0  1  0  0  0  0  0  0  0  0  0
  149.4376  140.8470  156.2613 C   0  0  0  0  0  0  0  0  0  0  0  0
  150.8382  140.4057  156.6215 C   0  0  0  0  0  0  0  0  0  0  0  0
  151.1019  139.3382  155.5648 C   0  0  0  0  0  0  0  0  0  0  0  0
  150.4449  139.7991  154.3888 O   0  0  0  0  0  0  0  0  0  0  0  0
  145.6392  135.7746  151.7162 N   0  0  0  0  0  0  0  0  0  0  0  0
  145.8086  132.4282  151.7059 H   0  0  0  0  0  0  0  0  0  0  0  0
  147.1487  133.5664  151.8699 H   0  0  0  0  0  0  0  0  0  0  0  0
  146.2945  133.4218  150.3273 H   0  0  0  0  0  0  0  0  0  0  0  0
  143.5822  133.1752  152.4289 H   0  0  0  0  0  0  0  0  0  0  0  0
  142.2906  138.1833  152.1742 H   0  0  0  0  0  0  0  0  0  0  0  0
  142.9283  138.1188  153.8238 H   0  0  0  0  0  0  0  0  0  0  0  0
  141.5695  137.0924  153.3597 H   0  0  0  0  0  0  0  0  0  0  0  0
  144.7879  138.6569  151.2452 H   0  0  0  0  0  0  0  0  0  0  0  0
  147.1787  137.7200  152.4635 H   0  0  0  0  0  0  0  0  0  0  0  0
  146.8674  139.3544  151.9424 H   0  0  0  0  0  0  0  0  0  0  0  0
  145.7072  139.8632  154.0736 H   0  0  0  0  0  0  0  0  0  0  0  0
  145.8481  138.1936  154.6039 H   0  0  0  0  0  0  0  0  0  0  0  0
  148.2551  140.4768  152.9692 H   0  0  0  0  0  0  0  0  0  0  0  0
  147.4282  141.3012  154.2856 H   0  0  0  0  0  0  0  0  0  0  0  0
  149.8659  141.7397  154.3589 H   0  0  0  0  0  0  0  0  0  0  0  0
  149.1887  141.8374  156.6434 H   0  0  0  0  0  0  0  0  0  0  0  0
  148.7155  140.1365  156.6658 H   0  0  0  0  0  0  0  0  0  0  0  0
  151.5371  141.2350  156.5033 H   0  0  0  0  0  0  0  0  0  0  0  0
  150.9208  140.0271  157.6407 H   0  0  0  0  0  0  0  0  0  0  0  0
  152.1651  139.1713  155.3905 H   0  0  0  0  0  0  0  0  0  0  0  0
  150.6532  138.3903  155.8646 H   0  0  0  0  0  0  0  0  0  0  0  0
  1  2  1  0  0  0  0
  1 19  1  0  0  0  0
  1 20  1  0  0  0  0
  1 21  1  0  0  0  0
  2 18  1  0  0  0  0
  2  3  2  0  0  0  0
  3  4  1  0  0  0  0
  3 22  1  0  0  0  0
  4  5  2  0  0  0  0
  5  6  1  0  0  0  0
  5  7  1  0  0  0  0
  6 23  1  0  0  0  0
  6 24  1  0  0  0  0
  6 25  1  0  0  0  0
  7  8  1  0  0  0  0
  7 18  2  0  0  0  0
  8  9  1  0  0  0  0
  8 26  1  0  0  0  0
  9 10  1  0  0  0  0
  9 27  1  0  0  0  0
  9 28  1  0  0  0  0
 10 11  1  0  0  0  0
 10 29  1  0  0  0  0
 10 30  1  0  0  0  0
 11 12  1  0  0  0  0
 12 13  1  0  0  0  0
 12 31  1  0  0  0  0
 12 32  1  0  0  0  0
 13 17  1  0  0  0  0
 13 14  1  0  0  0  0
 13 33  1  0  0  0  0
 14 15  1  0  0  0  0
 14 34  1  0  0  0  0
 14 35  1  0  0  0  0
 15 16  1  0  0  0  0
 15 36  1  0  0  0  0
 15 37  1  0  0  0  0
 16 17  1  0  0  0  0
 16 38  1  0  0  0  0
 16 39  1  0  0  0  0
M  END
> <s_m_source_file>
AV-unprocessed.smi

> <i_m_source_file_index>
3276

> <i_lp_mmshare_version>
43012

> <i_f3d_flags>
0

> <s_epik_input>
W0NIM11jMVtjSF1uYyhbQ0gzXSljKG4xKVtOSF1bQ0gyXVtDSDJdT1tDSDJdW0NAQEhdMltDSDJdW0NIMl1bQ0gyXU8y

> <s_epik_cmdline>
J2VwaWtfcHl0aG9uJywgJy1waCcsICc3LjAnLCAnLXRuJywgJzgnLCAnLW1hJywgJzIwMCcsICctbWV0YWxfYmluZGluZycsICctaW1hZScsICc8aW5maWxlLm1hZT4nLCAnLW9tYWUnLCAnPG91dGZpbGUubWFlPic=

> <r_lp_tautomer_probability>
1

> <r_epik_Ionization_Penalty>
0.000506

> <r_epik_Ionization_Penalty_Charging>
0

> <r_epik_Ionization_Penalty_Neutral>
0.000506

> <r_epik_State_Penalty>
-0

> <r_epik_Charging_Adjusted_Penalty>
0

> <i_epik_Tot_Q>
0

> <i_epik_Tot_abs_Q>
0

> <r_epik_Metal_State_Penalty>
-0

> <b_epik_Metal_Only>
0

> <s_lp_Force_Field>
OPLS_2005

> <r_lp_Energy>
26.2022

> <b_lp_Chiralities_Consistent>
1

> <s_lp_Variant>
AV-unprocessed.smi:3276-2

> <Gold.Version>
5.8.1

> <Gold.Id.Protein>
6NUR|6NUR_protein|mol2

> <Gold.PLP.Fitness>
37.1064

> <Gold.PLP.PLP>
-29.4823

> <Gold.PLP.part.hbond>
-3.0000

> <Gold.PLP.part.metal>
0.0000

> <Gold.PLP.part.buried>
-3.6386

> <Gold.PLP.part.nonpolar>
-24.9131

> <Gold.PLP.part.repulsive>
0.5430

> <Gold.PLP.ligand.clash>
0.0000

> <Gold.PLP.ligand.torsion>
0.7111

> <Gold.PLP.Chemscore.Hbond>
2.0000

> <Gold.PLP.Chemscore.CHOScore>
0.9963

> <Gold.PLP.Chemscore.Metal>
0.0000

> <Gold.Chemscore.Hbonds>
donor molecule, donor type, donor heavy atom, donor atom, acceptor molecule, acceptor atom, score
      L1  H     8    26       P1 10171  0.90
      P1  H  7989  7998       L1    17  0.95
      L1  C     3    22       P1 10957  0.13

> <Gold.PLP.Chemscore.Internal.Correction>
0.0573

> <Gold.Rescore>
     Score         DG    S(hbond)    S(metal)    S(lipo)     H(rot)  DE(clash)    DE(int)     intcor
     13.47     -14.37       1.78        0.00      62.04       1.68       0.04       0.85       ----

> <Gold.Chemscore.Fitness>
13.4714

> <Gold.Chemscore.DG>
-14.3686

> <Gold.Chemscore.ZeroCoef>
-5.4800

> <Gold.Chemscore.Hbond>
1.7772

> <Gold.Chemscore.Metal>
0.0000

> <Gold.Chemscore.Lipo>
62.0377

> <Gold.Chemscore.Internal_Hbond>
0.0000

> <Gold.Chemscore.DEClash>
0.0431

> <Gold.Chemscore.DEInternal>
0.8541

> <Gold.Chemscore.Rot>
1.6820

> <Gold.Chemscore.Internal.Correction>
   9.000000E+99

> <Gold.Chemscore.Hbonds>
donor molecule, donor type, donor heavy atom, donor atom, acceptor molecule, acceptor atom, score
      L1  H     8    26       P1 10171  0.88
      P1  H  7989  7998       L1    17  0.14

> <Gold.Chemscore.Hbond.Weighted>
-5.9360

> <Gold.Chemscore.Metal.Weighted>
-0.0000

> <Gold.Chemscore.Lipo.Weighted>
-7.2584

> <Gold.Chemscore.Internal_Hbond.Weighted>
0.0000

> <Gold.Chemscore.DEClash.Weighted>
0.0431

> <Gold.Chemscore.DEInternal.Weighted>
0.8541

> <Gold.Chemscore.Rot.Weighted>
4.3058

> <Gold.Chemscore.Internal.Correction.Weighted>
   9.000000E+99

> <Gold.Protein.RotatedTorsions>
[ 6907 6896 6895 6894 ] final   22.28 input  -60.11 | X-H torsion
[ 7974 7965 7964 7962 ] final -107.76 input  175.53 | X-H torsion
[ 8008 7997 7996 7995 ] final  -29.19 input   59.86 | X-H torsion
[ 10167 10162 10161 10158 ] final   45.07 input  -65.29 | X-H torsion
[ 10718 10713 10712 10709 ] final -120.96 input   66.30 | X-H torsion
[ 10763 10752 10751 10750 ] final   33.29 input  -60.55 | X-H torsion
[ 11005 11000 10999 10996 ] final   -2.77 input  -57.11 | X-H torsion

> <Gold.Protein.ActiveResidues>
 VAL166  LYS551  ARG553  GLY616  TRP617  ASP618  TYR619  PRO620  LYS621  CYS622 
 ASP623  PHE694  ASN695  SER759  ASP760  ASP761  ALA762  ILE779  LEU786  VAL792 
 PHE793  MET794  SER795  GLU796  ALA797  LYS798  CYS799  TRP800  GLU811  SER814 

> <Gold.Protein.RotatedAtoms>
  151.9248  135.0282  160.0524 H   0  0  0  0  0  0  0  0  0  0  0  0  # atno 6907 bound_to 6896
  152.2169  133.4949  159.5149 H   0  0  0  0  0  0  0  0  0  0  0  0  # atno 6908 bound_to 6896
  150.6990  134.1311  159.4112 H   0  0  0  0  0  0  0  0  0  0  0  0  # atno 6909 bound_to 6896
  145.2013  140.9057  143.3368 H   0  0  0  0  0  0  0  0  0  0  0  0  # atno 7974 bound_to 7965
  154.4300  140.1825  156.1209 H   0  0  0  0  0  0  0  0  0  0  0  0  # atno 8008 bound_to 7997
  156.0143  140.3347  155.6948 H   0  0  0  0  0  0  0  0  0  0  0  0  # atno 8009 bound_to 7997
  155.6066  140.0646  157.2709 H   0  0  0  0  0  0  0  0  0  0  0  0  # atno 8010 bound_to 7997
  140.3279  144.2625  150.6172 H   0  0  0  0  0  0  0  0  0  0  0  0  # atno 10167 bound_to 10162
  156.1299  130.6388  150.9605 H   0  0  0  0  0  0  0  0  0  0  0  0  # atno 10718 bound_to 10713
  153.0219  135.6391  154.1489 H   0  0  0  0  0  0  0  0  0  0  0  0  # atno 10763 bound_to 10752
  154.1222  135.2846  155.3207 H   0  0  0  0  0  0  0  0  0  0  0  0  # atno 10764 bound_to 10752
  154.6255  135.5510  153.7684 H   0  0  0  0  0  0  0  0  0  0  0  0  # atno 10765 bound_to 10752
  140.6620  133.9311  155.8442 H   0  0  0  0  0  0  0  0  0  0  0  0  # atno 11005 bound_to 11000
  144.9945  139.3657  143.6198 LP  0  0  0  0  0  0  0  0  0  0  0  0  # atno 17320 bound_to 7965
  146.3417  139.9142  142.8776 LP  0  0  0  0  0  0  0  0  0  0  0  0  # atno 17321 bound_to 7965
  140.5424  143.2221  151.8063 LP  0  0  0  0  0  0  0  0  0  0  0  0  # atno 17342 bound_to 10162
  139.4862  144.4583  151.9572 LP  0  0  0  0  0  0  0  0  0  0  0  0  # atno 17343 bound_to 10162
  157.6478  131.0901  150.8116 LP  0  0  0  0  0  0  0  0  0  0  0  0  # atno 17370 bound_to 10713
  156.8202  130.4981  149.5344 LP  0  0  0  0  0  0  0  0  0  0  0  0  # atno 17371 bound_to 10713
  141.0458  134.0557  157.3846 LP  0  0  0  0  0  0  0  0  0  0  0  0  # atno 17394 bound_to 11000
  139.9010  135.0164  156.7266 LP  0  0  0  0  0  0  0  0  0  0  0  0  # atno 17395 bound_to 11000

$$$$
