AV-unprocessed.smi:217|AV-procd|sdf|1661|dock4
  -GOLD-   2262020 53D 1   1.00000     0.00000
 Structure written by MMmdl.
 57 61  0  0  0  0  0  0  0  0  1 V2000
  146.5095  131.9103  150.7760 O   0  0  0  0  0  0  0  0  0  0  0  0
  146.4805  133.2973  150.5088 C   0  0  0  0  0  0  0  0  0  0  0  0
  145.6698  134.0546  151.5735 C   0  0  0  0  0  0  0  0  0  0  0  0
  144.2027  133.5791  151.5335 C   0  0  0  0  0  0  0  0  0  0  0  0
  143.6547  133.6891  150.2353 O   0  0  0  0  0  0  0  0  0  0  0  0
  146.3070  134.1049  152.9804 C   0  0  0  0  0  0  0  0  0  0  0  0
  145.8907  135.5720  153.1090 C   0  0  0  0  0  0  0  0  0  0  0  0
  146.6870  136.5076  153.8481 N   0  0  0  0  0  0  0  0  0  0  0  0
  147.5224  136.2242  154.9049 C   0  0  0  0  0  0  0  0  0  0  0  0
  148.1856  137.2434  155.3792 N   0  0  0  0  0  0  0  0  0  0  0  0
  147.8025  138.3060  154.5690 C   0  0  0  0  0  0  0  0  0  0  0  0
  148.1501  139.6860  154.5115 C   0  0  0  0  0  0  0  0  0  0  0  0
  149.0156  140.2645  155.3839 N   0  0  0  0  0  0  0  0  0  0  0  0
  148.7169  140.0176  156.7936 C   0  0  0  0  0  0  0  0  0  0  0  0
  149.9233  140.3648  157.6812 C   0  0  0  0  0  0  0  0  0  0  0  0
  150.4010  141.8117  157.4442 C   0  0  0  0  0  0  0  0  0  0  0  0
  151.6230  142.1560  158.3195 C   0  0  1  0  0  0  0  0  0  0  0  0
  152.0489  143.6244  158.2785 C   0  0  0  0  0  0  0  0  0  0  0  0
  152.7788  143.8220  159.5973 C   0  0  0  0  0  0  0  0  0  0  0  0
  152.3425  142.6251  160.4468 C   0  0  0  0  0  0  0  0  0  0  0  0
  151.3203  141.9851  159.6955 O   0  0  0  0  0  0  0  0  0  0  0  0
  150.6946  141.9948  155.9412 C   0  0  0  0  0  0  0  0  0  0  0  0
  149.4764  141.6207  155.0816 C   0  0  0  0  0  0  0  0  0  0  0  0
  147.5788  140.4319  153.5274 N   0  0  0  0  0  0  0  0  0  0  0  0
  146.7248  139.8744  152.6645 C   0  0  0  0  0  0  0  0  0  0  0  0
  146.3071  138.6092  152.6045 N   0  0  0  0  0  0  0  0  0  0  0  0
  146.8759  137.8534  153.5868 C   0  0  0  0  0  0  0  0  0  0  0  0
  145.8622  135.5874  151.5788 C   0  0  0  0  0  0  0  0  0  0  0  0
  147.3993  131.6050  150.6839 H   0  0  0  0  0  0  0  0  0  0  0  0
  147.5035  133.6680  150.4425 H   0  0  0  0  0  0  0  0  0  0  0  0
  146.0425  133.4354  149.5197 H   0  0  0  0  0  0  0  0  0  0  0  0
  144.1187  132.5362  151.8390 H   0  0  0  0  0  0  0  0  0  0  0  0
  143.5800  134.1453  152.2265 H   0  0  0  0  0  0  0  0  0  0  0  0
  142.7196  133.8017  150.3134 H   0  0  0  0  0  0  0  0  0  0  0  0
  145.8531  133.4433  153.7190 H   0  0  0  0  0  0  0  0  0  0  0  0
  147.3917  133.9815  152.9638 H   0  0  0  0  0  0  0  0  0  0  0  0
  144.8810  135.6511  153.5154 H   0  0  0  0  0  0  0  0  0  0  0  0
  147.6236  135.2315  155.3192 H   0  0  0  0  0  0  0  0  0  0  0  0
  147.8584  140.6261  157.0806 H   0  0  0  0  0  0  0  0  0  0  0  0
  148.4332  138.9800  156.9661 H   0  0  0  0  0  0  0  0  0  0  0  0
  149.6534  140.2221  158.7277 H   0  0  0  0  0  0  0  0  0  0  0  0
  150.7369  139.6682  157.4746 H   0  0  0  0  0  0  0  0  0  0  0  0
  149.5870  142.4850  157.7170 H   0  0  0  0  0  0  0  0  0  0  0  0
  152.4695  141.5157  158.0629 H   0  0  0  0  0  0  0  0  0  0  0  0
  152.6695  143.8612  157.4139 H   0  0  0  0  0  0  0  0  0  0  0  0
  151.1703  144.2705  158.2489 H   0  0  0  0  0  0  0  0  0  0  0  0
  153.8604  143.8169  159.4573 H   0  0  0  0  0  0  0  0  0  0  0  0
  152.5041  144.7709  160.0590 H   0  0  0  0  0  0  0  0  0  0  0  0
  153.1729  141.9319  160.5877 H   0  0  0  0  0  0  0  0  0  0  0  0
  151.9759  142.9213  161.4299 H   0  0  0  0  0  0  0  0  0  0  0  0
  150.9778  143.0259  155.7288 H   0  0  0  0  0  0  0  0  0  0  0  0
  151.5453  141.3752  155.6539 H   0  0  0  0  0  0  0  0  0  0  0  0
  149.7437  141.6986  154.0269 H   0  0  0  0  0  0  0  0  0  0  0  0
  148.6642  142.3264  155.2624 H   0  0  0  0  0  0  0  0  0  0  0  0
  146.3169  140.5371  151.9158 H   0  0  0  0  0  0  0  0  0  0  0  0
  146.8155  135.8965  151.1455 H   0  0  0  0  0  0  0  0  0  0  0  0
  145.0364  136.1541  151.1476 H   0  0  0  0  0  0  0  0  0  0  0  0
  1  2  1  0  0  0  0
  1 29  1  0  0  0  0
  2  3  1  0  0  0  0
  2 30  1  0  0  0  0
  2 31  1  0  0  0  0
  3 28  1  0  0  0  0
  3  4  1  0  0  0  0
  3  6  1  0  0  0  0
  4  5  1  0  0  0  0
  4 32  1  0  0  0  0
  4 33  1  0  0  0  0
  5 34  1  0  0  0  0
  6  7  1  0  0  0  0
  6 35  1  0  0  0  0
  6 36  1  0  0  0  0
  7  8  1  0  0  0  0
  7 28  1  0  0  0  0
  7 37  1  0  0  0  0
  8 27  1  0  0  0  0
  8  9  1  0  0  0  0
  9 10  2  0  0  0  0
  9 38  1  0  0  0  0
 10 11  1  0  0  0  0
 11 27  2  0  0  0  0
 11 12  1  0  0  0  0
 12 13  1  0  0  0  0
 12 24  2  0  0  0  0
 13 23  1  0  0  0  0
 13 14  1  0  0  0  0
 14 15  1  0  0  0  0
 14 39  1  0  0  0  0
 14 40  1  0  0  0  0
 15 16  1  0  0  0  0
 15 41  1  0  0  0  0
 15 42  1  0  0  0  0
 16 17  1  0  0  0  0
 16 22  1  0  0  0  0
 16 43  1  0  0  0  0
 17 21  1  0  0  0  0
 17 18  1  0  0  0  0
 17 44  1  0  0  0  0
 18 19  1  0  0  0  0
 18 45  1  0  0  0  0
 18 46  1  0  0  0  0
 19 20  1  0  0  0  0
 19 47  1  0  0  0  0
 19 48  1  0  0  0  0
 20 21  1  0  0  0  0
 20 49  1  0  0  0  0
 20 50  1  0  0  0  0
 22 23  1  0  0  0  0
 22 51  1  0  0  0  0
 22 52  1  0  0  0  0
 23 53  1  0  0  0  0
 23 54  1  0  0  0  0
 24 25  1  0  0  0  0
 25 26  2  0  0  0  0
 25 55  1  0  0  0  0
 26 27  1  0  0  0  0
 28 56  1  0  0  0  0
 28 57  1  0  0  0  0
M  END
> <s_m_source_file>
AV-unprocessed.smi

> <i_m_source_file_index>
217

> <i_lp_mmshare_version>
43012

> <i_f3d_flags>
0

> <s_epik_input>
W09IXVtDSDJdQzEoW0NIMl1bT0hdKVtDSDJdW0NIXShbQ0gyXTEpbihbY0hdbjIpYyhjMjMpbltjSF1uYzNONFtDSDJdW0NIMl1bQ0hdKFtDSDJdW0NIMl00KVtDQEBIXTVbQ0gyXVtDSDJdW0NIMl1PNQ==

> <s_epik_cmdline>
J2VwaWtfcHl0aG9uJywgJy1waCcsICc3LjAnLCAnLXRuJywgJzgnLCAnLW1hJywgJzIwMCcsICctbWV0YWxfYmluZGluZycsICctaW1hZScsICc8aW5maWxlLm1hZT4nLCAnLW9tYWUnLCAnPG91dGZpbGUubWFlPic=

> <r_lp_tautomer_probability>
1

> <r_epik_Ionization_Penalty>
0.0037022

> <r_epik_Ionization_Penalty_Charging>
0

> <r_epik_Ionization_Penalty_Neutral>
0.0037022

> <r_epik_State_Penalty>
0.00257654

> <r_epik_Charging_Adjusted_Penalty>
0.00257654

> <i_epik_Tot_Q>
0

> <i_epik_Tot_abs_Q>
0

> <r_epik_Metal_State_Penalty>
-0

> <b_epik_Metal_Only>
0

> <s_lp_Force_Field>
OPLS_2005

> <r_lp_Energy>
55.0996

> <b_lp_Chiralities_Consistent>
1

> <s_lp_Variant>
AV-unprocessed.smi:217-2

> <Gold.Version>
5.8.1

> <Gold.Id.Protein>
6NUR|6NUR_protein|mol2

> <Gold.PLP.Fitness>
45.7958

> <Gold.PLP.PLP>
-40.1176

> <Gold.PLP.part.hbond>
-3.0000

> <Gold.PLP.part.metal>
0.0000

> <Gold.PLP.part.buried>
-3.0547

> <Gold.PLP.part.nonpolar>
-34.2707

> <Gold.PLP.part.repulsive>
0.7106

> <Gold.PLP.ligand.clash>
0.0000

> <Gold.PLP.ligand.torsion>
0.9451

> <Gold.PLP.Chemscore.Hbond>
2.0000

> <Gold.PLP.Chemscore.CHOScore>
0.2135

> <Gold.PLP.Chemscore.Metal>
0.0000

> <Gold.Chemscore.Hbonds>
donor molecule, donor type, donor heavy atom, donor atom, acceptor molecule, acceptor atom, score
      L1  H     1    29       P1 10747  1.00
      L1  H     5    34       P1 10186  0.99
      L1  C    25    55       P1 10175  0.25

> <Gold.PLP.Chemscore.Internal.Correction>
0.9279

> <Gold.Rescore>
     Score         DG    S(hbond)    S(metal)    S(lipo)     H(rot)  DE(clash)    DE(int)     intcor
     14.33     -15.71       1.99        0.00     102.50       3.28       0.43       0.95       ----

> <Gold.Chemscore.Fitness>
14.3328

> <Gold.Chemscore.DG>
-15.7149

> <Gold.Chemscore.ZeroCoef>
-5.4800

> <Gold.Chemscore.Hbond>
1.9915

> <Gold.Chemscore.Metal>
0.0000

> <Gold.Chemscore.Lipo>
102.4987

> <Gold.Chemscore.Internal_Hbond>
0.0000

> <Gold.Chemscore.DEClash>
0.4282

> <Gold.Chemscore.DEInternal>
0.9539

> <Gold.Chemscore.Rot>
3.2848

> <Gold.Chemscore.Internal.Correction>
   9.000000E+99

> <Gold.Chemscore.Hbonds>
donor molecule, donor type, donor heavy atom, donor atom, acceptor molecule, acceptor atom, score
      L1  H     1    29       P1 10747  1.00
      L1  H     5    34       P1 10186  0.91

> <Gold.Chemscore.Hbond.Weighted>
-6.6518

> <Gold.Chemscore.Metal.Weighted>
-0.0000

> <Gold.Chemscore.Lipo.Weighted>
-11.9924

> <Gold.Chemscore.Internal_Hbond.Weighted>
0.0000

> <Gold.Chemscore.DEClash.Weighted>
0.4282

> <Gold.Chemscore.DEInternal.Weighted>
0.9539

> <Gold.Chemscore.Rot.Weighted>
8.4092

> <Gold.Chemscore.Internal.Correction.Weighted>
   9.000000E+99

> <Gold.Protein.RotatedTorsions>
[ 6907 6896 6895 6894 ] final  -78.50 input  -60.11 | X-H torsion
[ 7974 7965 7964 7962 ] final -120.17 input  175.53 | X-H torsion
[ 8008 7997 7996 7995 ] final  -60.18 input   59.86 | X-H torsion
[ 10167 10162 10161 10158 ] final -172.42 input  -65.29 | X-H torsion
[ 10718 10713 10712 10709 ] final   26.10 input   66.30 | X-H torsion
[ 10763 10752 10751 10750 ] final  124.28 input  -60.55 | X-H torsion
[ 11005 11000 10999 10996 ] final  106.90 input  -57.11 | X-H torsion

> <Gold.Protein.ActiveResidues>
 VAL166  LYS551  ARG553  GLY616  TRP617  ASP618  TYR619  PRO620  LYS621  CYS622 
 ASP623  PHE694  ASN695  SER759  ASP760  ASP761  ALA762  ILE779  LEU786  VAL792 
 PHE793  MET794  SER795  GLU796  ALA797  LYS798  CYS799  TRP800  GLU811  SER814 

> <Gold.Protein.RotatedAtoms>
  150.6971  134.4263  159.5227 H   0  0  0  0  0  0  0  0  0  0  0  0  # atno 6907 bound_to 6896
  152.1997  134.8596  160.0518 H   0  0  0  0  0  0  0  0  0  0  0  0  # atno 6908 bound_to 6896
  151.9520  133.3634  159.4040 H   0  0  0  0  0  0  0  0  0  0  0  0  # atno 6909 bound_to 6896
  145.0543  140.8242  143.4190 H   0  0  0  0  0  0  0  0  0  0  0  0  # atno 7974 bound_to 7965
  154.4386  140.1045  156.6233 H   0  0  0  0  0  0  0  0  0  0  0  0  # atno 8008 bound_to 7997
  155.5684  140.3489  155.4490 H   0  0  0  0  0  0  0  0  0  0  0  0  # atno 8009 bound_to 7997
  156.0408  140.1281  157.0147 H   0  0  0  0  0  0  0  0  0  0  0  0  # atno 8010 bound_to 7997
  139.5745  144.1563  152.1432 H   0  0  0  0  0  0  0  0  0  0  0  0  # atno 10167 bound_to 10162
  157.2023  130.6896  149.6194 H   0  0  0  0  0  0  0  0  0  0  0  0  # atno 10718 bound_to 10713
  153.6589  135.3350  155.3121 H   0  0  0  0  0  0  0  0  0  0  0  0  # atno 10763 bound_to 10752
  154.8519  135.4359  154.1825 H   0  0  0  0  0  0  0  0  0  0  0  0  # atno 10764 bound_to 10752
  153.2787  135.7007  153.7483 H   0  0  0  0  0  0  0  0  0  0  0  0  # atno 10765 bound_to 10752
  139.8820  134.9384  156.5737 H   0  0  0  0  0  0  0  0  0  0  0  0  # atno 11005 bound_to 11000
  145.1488  139.2527  143.5452 LP  0  0  0  0  0  0  0  0  0  0  0  0  # atno 17320 bound_to 7965
  146.3520  140.1185  142.8601 LP  0  0  0  0  0  0  0  0  0  0  0  0  # atno 17321 bound_to 7965
  140.1103  144.5463  150.6929 LP  0  0  0  0  0  0  0  0  0  0  0  0  # atno 17342 bound_to 10162
  140.7029  143.2447  151.4812 LP  0  0  0  0  0  0  0  0  0  0  0  0  # atno 17343 bound_to 10162
  155.9699  130.4578  150.5977 LP  0  0  0  0  0  0  0  0  0  0  0  0  # atno 17370 bound_to 10713
  157.3754  131.0772  151.1522 LP  0  0  0  0  0  0  0  0  0  0  0  0  # atno 17371 bound_to 10713
  140.8079  133.8452  155.8784 LP  0  0  0  0  0  0  0  0  0  0  0  0  # atno 17394 bound_to 11000
  140.9533  134.1751  157.4711 LP  0  0  0  0  0  0  0  0  0  0  0  0  # atno 17395 bound_to 11000

$$$$
