AV-unprocessed.smi:157|AV-procd|sdf|1312|dock8
  -GOLD-   2262019 03D 1   1.00000     0.00000
 Structure written by MMmdl.
 36 38  0  0  0  0  0  0  0  0  2 V2000
  155.2029  138.6602  153.7354 O   0  0  0  0  0  0  0  0  0  0  0  0
  154.1263  137.8569  154.1698 C   0  0  0  0  0  0  0  0  0  0  0  0
  152.8655  138.7169  154.3670 C   0  0  2  0  0  0  0  0  0  0  0  0
  152.8179  139.2632  155.6829 O   0  0  0  0  0  0  0  0  0  0  0  0
  151.4938  139.3701  156.1171 C   0  0  1  0  0  0  0  0  0  0  0  0
  151.2221  140.7976  156.4649 N   0  0  0  0  0  0  0  0  0  0  0  0
  150.2956  141.5960  155.8941 C   0  0  0  0  0  0  0  0  0  0  0  0
  150.2533  142.8216  156.3882 N   0  3  0  0  0  0  0  0  0  0  0  0
  151.2176  142.8796  157.3722 C   0  0  0  0  0  0  0  0  0  0  0  0
  151.7997  141.6099  157.4137 C   0  0  0  0  0  0  0  0  0  0  0  0
  152.8198  141.1146  158.2406 N   0  0  0  0  0  0  0  0  0  0  0  0
  153.2056  141.7139  159.3199 C   0  0  0  0  0  0  0  0  0  0  0  0
  152.8060  142.9375  159.8308 N   0  0  0  0  0  0  0  0  0  0  0  0
  152.6899  144.1370  159.0208 C   0  0  0  0  0  0  0  0  0  0  0  0
  151.4464  144.1548  158.1222 C   0  0  2  0  0  0  0  0  0  0  0  0
  150.3309  144.5340  158.9018 O   0  0  0  0  0  0  0  0  0  0  0  0
  150.5890  138.9226  154.9660 C   0  0  0  0  0  0  0  0  0  0  0  0
  151.5115  138.0168  154.1778 C   0  0  2  0  0  0  0  0  0  0  0  0
  151.5000  136.7055  154.7096 O   0  0  0  0  0  0  0  0  0  0  0  0
  152.9073  139.5689  153.6859 H   0  0  0  0  0  0  0  0  0  0  0  0
  151.3533  138.8006  157.0365 H   0  0  0  0  0  0  0  0  0  0  0  0
  151.5822  144.9493  157.3877 H   0  0  0  0  0  0  0  0  0  0  0  0
  151.2274  137.9647  153.1262 H   0  0  0  0  0  0  0  0  0  0  0  0
  155.9995  138.3294  154.1220 H   0  0  0  0  0  0  0  0  0  0  0  0
  153.9553  137.0505  153.4565 H   0  0  0  0  0  0  0  0  0  0  0  0
  154.4079  137.3895  155.1137 H   0  0  0  0  0  0  0  0  0  0  0  0
  149.6498  141.2584  155.1032 H   0  0  0  0  0  0  0  0  0  0  0  0
  153.9556  141.2339  159.9502 H   0  0  0  0  0  0  0  0  0  0  0  0
  153.0366  143.1595  160.7890 H   0  0  0  0  0  0  0  0  0  0  0  0
  152.7158  145.0174  159.6641 H   0  0  0  0  0  0  0  0  0  0  0  0
  153.5806  144.1945  158.3931 H   0  0  0  0  0  0  0  0  0  0  0  0
  149.6746  144.9059  158.3330 H   0  0  0  0  0  0  0  0  0  0  0  0
  149.6828  138.4396  155.3340 H   0  0  0  0  0  0  0  0  0  0  0  0
  150.3074  139.7845  154.3587 H   0  0  0  0  0  0  0  0  0  0  0  0
  151.4617  136.7652  155.6523 H   0  0  0  0  0  0  0  0  0  0  0  0
  149.6368  143.5679  156.0927 H   0  0  0  0  0  0  0  0  0  0  0  0
  1  2  1  0  0  0  0
  1 24  1  0  0  0  0
  2  3  1  0  0  0  0
  2 25  1  0  0  0  0
  2 26  1  0  0  0  0
  3 20  1  0  0  0  0
  3 18  1  0  0  0  0
  3  4  1  0  0  0  0
  4  5  1  0  0  0  0
  5 21  1  0  0  0  0
  5  6  1  0  0  0  0
  5 17  1  0  0  0  0
  6 10  1  0  0  0  0
  6  7  1  0  0  0  0
  7  8  2  0  0  0  0
  7 27  1  0  0  0  0
  8  9  1  0  0  0  0
  8 36  1  0  0  0  0
  9 15  1  0  0  0  0
  9 10  2  0  0  0  0
 10 11  1  0  0  0  0
 11 12  2  0  0  0  0
 12 13  1  0  0  0  0
 12 28  1  0  0  0  0
 13 14  1  0  0  0  0
 13 29  1  0  0  0  0
 14 15  1  0  0  0  0
 14 30  1  0  0  0  0
 14 31  1  0  0  0  0
 15 22  1  0  0  0  0
 15 16  1  0  0  0  0
 16 32  1  0  0  0  0
 17 18  1  0  0  0  0
 17 33  1  0  0  0  0
 17 34  1  0  0  0  0
 18 23  1  0  0  0  0
 18 19  1  0  0  0  0
 19 35  1  0  0  0  0
M  CHG  1   8   1
M  END
> <s_m_source_file>
AV-unprocessed.smi

> <i_m_source_file_index>
157

> <i_lp_mmshare_version>
43012

> <i_f3d_flags>
0

> <s_epik_input>
W09IXVtDSDJdW0NASF0xT1tDQEhdKFtDSDJdW0NAQEhdMVtPSF0pbihbY0hdbjIpYyhjMjMpTj1bQ0hdW05IXVtDSDJdW0NASF0zW09IXQ==

> <s_epik_cmdline>
J2VwaWtfcHl0aG9uJywgJy1waCcsICc3LjAnLCAnLXRuJywgJzgnLCAnLW1hJywgJzIwMCcsICctbWV0YWxfYmluZGluZycsICctaW1hZScsICc8aW5maWxlLm1hZT4nLCAnLW9tYWUnLCAnPG91dGZpbGUubWFlPic=

> <r_epik_Ionization_Penalty>
1.68594

> <r_epik_Ionization_Penalty_Charging>
0

> <r_epik_Ionization_Penalty_Neutral>
1.68594

> <r_epik_State_Penalty>
1.79006

> <r_epik_Charging_Adjusted_Penalty>
1.79006

> <i_epik_Tot_Q>
1

> <i_epik_Tot_abs_Q>
1

> <r_epik_Metal_State_Penalty>
5.85324

> <b_epik_Metal_Only>
0

> <s_epik_Chemistry_Notes>
This compound has an imine and may undergo hydrolysis. This compound contains an acetal/aminal-like group ( X-CH(R)-Y where X, Y are N, S, or O) that may be acid/base labile, releasing an aldehyde.

> <s_lp_Force_Field>
OPLS_2005

> <r_lp_Energy>
55.0153

> <b_lp_Chiralities_Consistent>
1

> <s_lp_Variant>
AV-unprocessed.smi:157-22

> <Gold.Version>
5.8.1

> <Gold.Id.Protein>
6NUR|6NUR_protein|mol2

> <Gold.PLP.Fitness>
50.9536

> <Gold.PLP.PLP>
-36.9835

> <Gold.PLP.part.hbond>
-5.0411

> <Gold.PLP.part.metal>
0.0000

> <Gold.PLP.part.buried>
-2.8577

> <Gold.PLP.part.nonpolar>
-29.8472

> <Gold.PLP.part.repulsive>
0.2054

> <Gold.PLP.ligand.clash>
0.0000

> <Gold.PLP.ligand.torsion>
0.3388

> <Gold.PLP.Chemscore.Hbond>
4.8805

> <Gold.PLP.Chemscore.CHOScore>
0.0000

> <Gold.PLP.Chemscore.Metal>
0.0000

> <Gold.Chemscore.Hbonds>
donor molecule, donor type, donor heavy atom, donor atom, acceptor molecule, acceptor atom, score
      L1  H     8    36       P1  8028  1.56
      L1  H    16    32       P1  8029  0.31
      P1  H  7997  8009       L1     4  0.53
      P1  H  7997  8010       L1     1  0.03
      P1  H 10752 10764       L1    19  0.90

> <Gold.PLP.Chemscore.Internal.Correction>
0.0063

> <Gold.Rescore>
     Score         DG    S(hbond)    S(metal)    S(lipo)     H(rot)  DE(clash)    DE(int)     intcor
     12.00     -13.83       2.89        0.00      69.06       3.67       1.56       0.27       ----

> <Gold.Chemscore.Fitness>
11.9968

> <Gold.Chemscore.DG>
-13.8285

> <Gold.Chemscore.ZeroCoef>
-5.4800

> <Gold.Chemscore.Hbond>
2.8902

> <Gold.Chemscore.Metal>
0.0000

> <Gold.Chemscore.Lipo>
69.0615

> <Gold.Chemscore.Internal_Hbond>
0.0000

> <Gold.Chemscore.DEClash>
1.5596

> <Gold.Chemscore.DEInternal>
0.2720

> <Gold.Chemscore.Rot>
3.6659

> <Gold.Chemscore.Internal.Correction>
   9.000000E+99

> <Gold.Chemscore.Hbonds>
donor molecule, donor type, donor heavy atom, donor atom, acceptor molecule, acceptor atom, score
      L1  H     8    36       P1  8028  0.77
      L1  H    16    32       P1  8029  0.11
      P1  H  7997  8009       L1     4  0.51
      P1  H 10752 10764       L1    19  0.18

> <Gold.Chemscore.Hbond.Weighted>
-9.6531

> <Gold.Chemscore.Metal.Weighted>
-0.0000

> <Gold.Chemscore.Lipo.Weighted>
-8.0802

> <Gold.Chemscore.Internal_Hbond.Weighted>
0.0000

> <Gold.Chemscore.DEClash.Weighted>
1.5596

> <Gold.Chemscore.DEInternal.Weighted>
0.2720

> <Gold.Chemscore.Rot.Weighted>
9.3848

> <Gold.Chemscore.Internal.Correction.Weighted>
   9.000000E+99

> <Gold.Protein.RotatedTorsions>
[ 6907 6896 6895 6894 ] final  133.27 input  -60.11 | X-H torsion
[ 7974 7965 7964 7962 ] final -138.50 input  175.53 | X-H torsion
[ 8008 7997 7996 7995 ] final  171.56 input   59.86 | X-H torsion
[ 10167 10162 10161 10158 ] final   35.78 input  -65.29 | X-H torsion
[ 10718 10713 10712 10709 ] final   18.40 input   66.30 | X-H torsion
[ 10763 10752 10751 10750 ] final  -59.52 input  -60.55 | X-H torsion
[ 11005 11000 10999 10996 ] final  -31.63 input  -57.11 | X-H torsion

> <Gold.Protein.ActiveResidues>
 VAL166  LYS551  ARG553  GLY616  TRP617  ASP618  TYR619  PRO620  LYS621  CYS622 
 ASP623  PHE694  ASN695  SER759  ASP760  ASP761  ALA762  ILE779  LEU786  VAL792 
 PHE793  MET794  SER795  GLU796  ALA797  LYS798  CYS799  TRP800  GLU811  SER814 

> <Gold.Protein.RotatedAtoms>
  152.3237  133.5882  159.5761 H   0  0  0  0  0  0  0  0  0  0  0  0  # atno 6907 bound_to 6896
  150.7385  133.9972  159.3635 H   0  0  0  0  0  0  0  0  0  0  0  0  # atno 6908 bound_to 6896
  151.7854  135.0751  160.0431 H   0  0  0  0  0  0  0  0  0  0  0  0  # atno 6909 bound_to 6896
  144.8753  140.6428  143.5241 H   0  0  0  0  0  0  0  0  0  0  0  0  # atno 7974 bound_to 7965
  156.1259  140.1508  156.9137 H   0  0  0  0  0  0  0  0  0  0  0  0  # atno 8008 bound_to 7997
  154.4871  140.0862  156.7552 H   0  0  0  0  0  0  0  0  0  0  0  0  # atno 8009 bound_to 7997
  155.4344  140.3428  155.4285 H   0  0  0  0  0  0  0  0  0  0  0  0  # atno 8010 bound_to 7997
  140.4189  144.1487  150.6146 H   0  0  0  0  0  0  0  0  0  0  0  0  # atno 10167 bound_to 10162
  157.0958  130.6447  149.5860 H   0  0  0  0  0  0  0  0  0  0  0  0  # atno 10718 bound_to 10713
  154.2551  135.6319  153.5254 H   0  0  0  0  0  0  0  0  0  0  0  0  # atno 10763 bound_to 10752
  152.9905  135.5574  154.5766 H   0  0  0  0  0  0  0  0  0  0  0  0  # atno 10764 bound_to 10752
  154.5302  135.2888  155.1162 H   0  0  0  0  0  0  0  0  0  0  0  0  # atno 10765 bound_to 10752
  140.9484  133.7236  156.1182 H   0  0  0  0  0  0  0  0  0  0  0  0  # atno 11005 bound_to 11000
  145.4054  139.1590  143.4155 LP  0  0  0  0  0  0  0  0  0  0  0  0  # atno 17320 bound_to 7965
  146.2958  140.4154  142.8722 LP  0  0  0  0  0  0  0  0  0  0  0  0  # atno 17321 bound_to 7965
  140.4555  143.2469  151.9290 LP  0  0  0  0  0  0  0  0  0  0  0  0  # atno 17342 bound_to 10162
  139.4782  144.5519  151.8372 LP  0  0  0  0  0  0  0  0  0  0  0  0  # atno 17343 bound_to 10162
  155.9886  130.4930  150.7178 LP  0  0  0  0  0  0  0  0  0  0  0  0  # atno 17370 bound_to 10713
  157.4683  131.0890  151.0671 LP  0  0  0  0  0  0  0  0  0  0  0  0  # atno 17371 bound_to 10713
  140.7637  134.3911  157.5521 LP  0  0  0  0  0  0  0  0  0  0  0  0  # atno 17394 bound_to 11000
  139.8840  134.8977  156.2730 LP  0  0  0  0  0  0  0  0  0  0  0  0  # atno 17395 bound_to 11000

$$$$
