AV-unprocessed.smi:3069|AV-procd|sdf|11710|dock2
  -GOLD-   2272017113D 1   1.00000     0.00000
 Structure written by MMmdl.
 39 40  0  0  0  0  0  0  0  0  1 V2000
  151.7409  136.9856  155.1522 N   0  0  0  0  0  0  0  0  0  0  0  0
  151.1088  137.9523  155.2223 C   0  0  0  0  0  0  0  0  0  0  0  0
  150.3104  139.1685  155.3103 C   0  0  0  0  0  0  0  0  0  0  0  0
  150.0770  139.8287  154.1527 N   0  0  0  0  0  0  0  0  0  0  0  0
  149.3171  140.9426  154.2194 C   0  0  0  0  0  0  0  0  0  0  0  0
  148.7847  141.4015  155.4400 C   0  0  0  0  0  0  0  0  0  0  0  0
  149.0114  140.7494  156.6001 N   0  0  0  0  0  0  0  0  0  0  0  0
  149.7755  139.6304  156.5456 C   0  0  0  0  0  0  0  0  0  0  0  0
  150.0118  138.9410  157.7474 N   0  0  0  0  0  0  0  0  0  0  0  0
  151.3941  138.6919  158.1421 C   0  0  0  0  0  0  0  0  0  0  0  0
  152.2484  139.9674  158.0823 C   0  0  0  0  0  0  0  0  0  0  0  0
  151.3887  141.0843  158.2603 O   0  0  0  0  0  0  0  0  0  0  0  0
  152.0370  142.3493  158.3066 C   0  0  0  0  0  0  0  0  0  0  0  0
  153.0549  142.2758  159.4608 C   0  0  0  0  0  0  0  0  0  0  0  0
  152.4549  142.3996  160.8716 C   0  0  0  0  0  0  0  0  0  0  0  0
  152.3561  143.8564  161.3531 C   0  0  0  0  0  0  0  0  0  0  0  0
  151.2811  144.6954  160.6469 C   0  0  0  0  0  0  0  0  0  0  0  0
  151.4224  144.7659  159.1160 C   0  0  0  0  0  0  0  0  0  0  0  0
  150.9761  143.4713  158.4165 C   0  0  0  0  0  0  0  0  0  0  0  0
  149.1317  141.4691  153.2948 H   0  0  0  0  0  0  0  0  0  0  0  0
  148.1766  142.2927  155.4862 H   0  0  0  0  0  0  0  0  0  0  0  0
  149.3950  139.1811  158.5107 H   0  0  0  0  0  0  0  0  0  0  0  0
  151.3899  138.3028  159.1604 H   0  0  0  0  0  0  0  0  0  0  0  0
  151.8288  137.9117  157.5167 H   0  0  0  0  0  0  0  0  0  0  0  0
  153.0006  139.9568  158.8716 H   0  0  0  0  0  0  0  0  0  0  0  0
  152.7820  140.0133  157.1332 H   0  0  0  0  0  0  0  0  0  0  0  0
  152.6090  142.4852  157.3870 H   0  0  0  0  0  0  0  0  0  0  0  0
  153.5856  141.3259  159.3848 H   0  0  0  0  0  0  0  0  0  0  0  0
  153.8223  143.0386  159.3237 H   0  0  0  0  0  0  0  0  0  0  0  0
  151.4877  141.8992  160.9311 H   0  0  0  0  0  0  0  0  0  0  0  0
  153.1082  141.8672  161.5637 H   0  0  0  0  0  0  0  0  0  0  0  0
  152.1399  143.8555  162.4219 H   0  0  0  0  0  0  0  0  0  0  0  0
  153.3266  144.3432  161.2499 H   0  0  0  0  0  0  0  0  0  0  0  0
  150.2911  144.3206  160.9100 H   0  0  0  0  0  0  0  0  0  0  0  0
  151.3268  145.7086  161.0471 H   0  0  0  0  0  0  0  0  0  0  0  0
  150.7772  145.5722  158.7656 H   0  0  0  0  0  0  0  0  0  0  0  0
  152.4340  145.0471  158.8215 H   0  0  0  0  0  0  0  0  0  0  0  0
  150.6415  143.7233  157.4100 H   0  0  0  0  0  0  0  0  0  0  0  0
  150.0899  143.0891  158.9235 H   0  0  0  0  0  0  0  0  0  0  0  0
  1  2  3  0  0  0  0
  2  3  1  0  0  0  0
  3  8  1  0  0  0  0
  3  4  2  0  0  0  0
  4  5  1  0  0  0  0
  5  6  2  0  0  0  0
  5 20  1  0  0  0  0
  6  7  1  0  0  0  0
  6 21  1  0  0  0  0
  7  8  2  0  0  0  0
  8  9  1  0  0  0  0
  9 10  1  0  0  0  0
  9 22  1  0  0  0  0
 10 11  1  0  0  0  0
 10 23  1  0  0  0  0
 10 24  1  0  0  0  0
 11 12  1  0  0  0  0
 11 25  1  0  0  0  0
 11 26  1  0  0  0  0
 12 13  1  0  0  0  0
 13 19  1  0  0  0  0
 13 14  1  0  0  0  0
 13 27  1  0  0  0  0
 14 15  1  0  0  0  0
 14 28  1  0  0  0  0
 14 29  1  0  0  0  0
 15 16  1  0  0  0  0
 15 30  1  0  0  0  0
 15 31  1  0  0  0  0
 16 17  1  0  0  0  0
 16 32  1  0  0  0  0
 16 33  1  0  0  0  0
 17 18  1  0  0  0  0
 17 34  1  0  0  0  0
 17 35  1  0  0  0  0
 18 19  1  0  0  0  0
 18 36  1  0  0  0  0
 18 37  1  0  0  0  0
 19 38  1  0  0  0  0
 19 39  1  0  0  0  0
M  END
> <s_m_source_file>
AV-unprocessed.smi

> <i_m_source_file_index>
3069

> <i_lp_mmshare_version>
43012

> <i_f3d_flags>
0

> <s_epik_input>
TiNDYzFuW2NIXVtjSF1uYzFbTkhdW0NIMl1bQ0gyXU9bQ0hdMltDSDJdW0NIMl1bQ0gyXVtDSDJdW0NIMl1bQ0gyXTI=

> <s_epik_cmdline>
J2VwaWtfcHl0aG9uJywgJy1waCcsICc3LjAnLCAnLXRuJywgJzgnLCAnLW1hJywgJzIwMCcsICctbWV0YWxfYmluZGluZycsICctaW1hZScsICc8aW5maWxlLm1hZT4nLCAnLW9tYWUnLCAnPG91dGZpbGUubWFlPic=

> <r_lp_tautomer_probability>
1

> <r_epik_Ionization_Penalty>
5.57718e-05

> <r_epik_Ionization_Penalty_Charging>
0

> <r_epik_Ionization_Penalty_Neutral>
5.57718e-05

> <r_epik_State_Penalty>
-0

> <r_epik_Charging_Adjusted_Penalty>
0

> <i_epik_Tot_Q>
0

> <i_epik_Tot_abs_Q>
0

> <r_epik_Metal_State_Penalty>
-0

> <b_epik_Metal_Only>
0

> <s_lp_Force_Field>
OPLS_2005

> <r_lp_Energy>
28.0763

> <b_lp_Chiralities_Consistent>
1

> <s_lp_Variant>
AV-unprocessed.smi:3069-1

> <Gold.Version>
5.8.1

> <Gold.Id.Protein>
6NUR|6NUR_protein|mol2

> <Gold.PLP.Fitness>
44.7626

> <Gold.PLP.PLP>
-36.1511

> <Gold.PLP.part.hbond>
-2.0000

> <Gold.PLP.part.metal>
0.0000

> <Gold.PLP.part.buried>
-4.2113

> <Gold.PLP.part.nonpolar>
-30.5507

> <Gold.PLP.part.repulsive>
1.2525

> <Gold.PLP.ligand.clash>
0.0000

> <Gold.PLP.ligand.torsion>
0.2749

> <Gold.PLP.Chemscore.Hbond>
1.6896

> <Gold.PLP.Chemscore.CHOScore>
1.3455

> <Gold.PLP.Chemscore.Metal>
0.0000

> <Gold.Chemscore.Hbonds>
donor molecule, donor type, donor heavy atom, donor atom, acceptor molecule, acceptor atom, score
      P1  H  7989  7998       L1     4  0.55
      P1  H 10752 10763       L1     1  0.88
      L1  C     5    20       P1  7957  0.57
      L1  C     6    21       P1  8028  1.00

> <Gold.PLP.Chemscore.Internal.Correction>
0.0559

> <Gold.Rescore>
     Score         DG    S(hbond)    S(metal)    S(lipo)     H(rot)  DE(clash)    DE(int)     intcor
     12.62     -16.74       1.12        0.00     108.69       2.04       0.18       3.94       ----

> <Gold.Chemscore.Fitness>
12.6204

> <Gold.Chemscore.DG>
-16.7363

> <Gold.Chemscore.ZeroCoef>
-5.4800

> <Gold.Chemscore.Hbond>
1.1230

> <Gold.Chemscore.Metal>
0.0000

> <Gold.Chemscore.Lipo>
108.6948

> <Gold.Chemscore.Internal_Hbond>
0.0000

> <Gold.Chemscore.DEClash>
0.1754

> <Gold.Chemscore.DEInternal>
3.9406

> <Gold.Chemscore.Rot>
2.0359

> <Gold.Chemscore.Internal.Correction>
   9.000000E+99

> <Gold.Chemscore.Hbonds>
donor molecule, donor type, donor heavy atom, donor atom, acceptor molecule, acceptor atom, score
      P1  H  7989  7998       L1     4  0.03
      P1  H 10752 10763       L1     1  0.84

> <Gold.Chemscore.Hbond.Weighted>
-3.7509

> <Gold.Chemscore.Metal.Weighted>
-0.0000

> <Gold.Chemscore.Lipo.Weighted>
-12.7173

> <Gold.Chemscore.Internal_Hbond.Weighted>
0.0000

> <Gold.Chemscore.DEClash.Weighted>
0.1754

> <Gold.Chemscore.DEInternal.Weighted>
3.9406

> <Gold.Chemscore.Rot.Weighted>
5.2119

> <Gold.Chemscore.Internal.Correction.Weighted>
   9.000000E+99

> <Gold.Protein.RotatedTorsions>
[ 6907 6896 6895 6894 ] final   24.78 input  -60.11 | X-H torsion
[ 7974 7965 7964 7962 ] final -178.45 input  175.53 | X-H torsion
[ 8008 7997 7996 7995 ] final  -17.45 input   59.86 | X-H torsion
[ 10167 10162 10161 10158 ] final  -53.11 input  -65.29 | X-H torsion
[ 10718 10713 10712 10709 ] final   56.76 input   66.30 | X-H torsion
[ 10763 10752 10751 10750 ] final   40.93 input  -60.55 | X-H torsion
[ 11005 11000 10999 10996 ] final  131.58 input  -57.11 | X-H torsion

> <Gold.Protein.ActiveResidues>
 VAL166  LYS551  ARG553  GLY616  TRP617  ASP618  TYR619  PRO620  LYS621  CYS622 
 ASP623  PHE694  ASN695  SER759  ASP760  ASP761  ALA762  ILE779  LEU786  VAL792 
 PHE793  MET794  SER795  GLU796  ALA797  LYS798  CYS799  TRP800  GLU811  SER814 

> <Gold.Protein.RotatedAtoms>
  151.9627  135.0116  160.0548 H   0  0  0  0  0  0  0  0  0  0  0  0  # atno 6907 bound_to 6896
  152.1854  133.4731  159.4988 H   0  0  0  0  0  0  0  0  0  0  0  0  # atno 6908 bound_to 6896
  150.6925  134.1697  159.4250 H   0  0  0  0  0  0  0  0  0  0  0  0  # atno 6909 bound_to 6896
  144.7131  140.0867  143.6423 H   0  0  0  0  0  0  0  0  0  0  0  0  # atno 7974 bound_to 7965
  154.4977  140.2142  155.9412 H   0  0  0  0  0  0  0  0  0  0  0  0  # atno 8008 bound_to 7997
  156.1392  140.3183  155.8437 H   0  0  0  0  0  0  0  0  0  0  0  0  # atno 8009 bound_to 7997
  155.4151  140.0493  157.3020 H   0  0  0  0  0  0  0  0  0  0  0  0  # atno 8010 bound_to 7997
  140.6502  143.2561  151.4745 H   0  0  0  0  0  0  0  0  0  0  0  0  # atno 10167 bound_to 10162
  157.5458  130.8730  149.8889 H   0  0  0  0  0  0  0  0  0  0  0  0  # atno 10718 bound_to 10713
  152.9922  135.6177  154.2706 H   0  0  0  0  0  0  0  0  0  0  0  0  # atno 10763 bound_to 10752
  154.2439  135.2787  155.2845 H   0  0  0  0  0  0  0  0  0  0  0  0  # atno 10764 bound_to 10752
  154.5346  135.5778  153.6845 H   0  0  0  0  0  0  0  0  0  0  0  0  # atno 10765 bound_to 10752
  139.9739  134.9569  156.9459 H   0  0  0  0  0  0  0  0  0  0  0  0  # atno 11005 bound_to 11000
  145.9656  139.2832  143.1130 LP  0  0  0  0  0  0  0  0  0  0  0  0  # atno 17320 bound_to 7965
  145.9173  140.9139  143.0423 LP  0  0  0  0  0  0  0  0  0  0  0  0  # atno 17321 bound_to 7965
  139.5716  144.1915  152.1844 LP  0  0  0  0  0  0  0  0  0  0  0  0  # atno 17342 bound_to 10162
  140.1213  144.5371  150.6861 LP  0  0  0  0  0  0  0  0  0  0  0  0  # atno 17343 bound_to 10162
  156.0534  130.3713  150.1147 LP  0  0  0  0  0  0  0  0  0  0  0  0  # atno 17370 bound_to 10713
  156.9323  130.9718  151.3531 LP  0  0  0  0  0  0  0  0  0  0  0  0  # atno 17371 bound_to 10713
  140.5236  134.0883  155.7298 LP  0  0  0  0  0  0  0  0  0  0  0  0  # atno 17394 bound_to 11000
  141.1417  133.9127  157.2310 LP  0  0  0  0  0  0  0  0  0  0  0  0  # atno 17395 bound_to 11000

$$$$
