AV-unprocessed.smi:1726|AV-procd|sdf|6960|dock2
  -GOLD-   22720 8173D 1   1.00000     0.00000
 Structure written by MMmdl.
 43 44  0  0  0  0  0  0  0  0  2 V2000
  141.3891  135.3526  153.5153 C   0  0  0  0  0  0  0  0  0  0  0  0
  141.8980  134.0415  152.8993 C   0  0  0  0  0  0  0  0  0  0  0  0
  143.0008  134.2566  151.9281 N   0  3  2  0  0  0  0  0  0  0  0  0
  143.5301  132.9754  151.3922 C   0  0  0  0  0  0  0  0  0  0  0  0
  144.5768  133.2197  150.2930 C   0  0  0  0  0  0  0  0  0  0  0  0
  145.7171  134.1087  150.8049 C   0  0  0  0  0  0  0  0  0  0  0  0
  145.1476  135.4170  151.3745 C   0  0  2  0  0  0  0  0  0  0  0  0
  146.2294  136.2373  151.9125 N   0  0  0  0  0  0  0  0  0  0  0  0
  146.0637  137.3642  152.6204 C   0  0  0  0  0  0  0  0  0  0  0  0
  144.9569  137.8231  152.9025 O   0  0  0  0  0  0  0  0  0  0  0  0
  147.2503  137.8860  152.9822 N   0  0  0  0  0  0  0  0  0  0  0  0
  147.5211  139.0591  153.7071 C   0  0  0  0  0  0  0  0  0  0  0  0
  146.5971  139.9985  154.0391 C   0  0  0  0  0  0  0  0  0  0  0  0
  146.9474  141.1956  154.7856 C   0  0  0  0  0  0  0  0  0  0  0  0
  145.9170  142.2677  155.1055 C   0  0  0  0  0  0  0  0  0  0  0  0
  146.1936  142.8731  156.2613 F   0  0  0  0  0  0  0  0  0  0  0  0
  145.8741  143.1942  154.1478 F   0  0  0  0  0  0  0  0  0  0  0  0
  144.7077  141.7174  155.2047 F   0  0  0  0  0  0  0  0  0  0  0  0
  148.2459  141.3439  155.1067 C   0  0  0  0  0  0  0  0  0  0  0  0
  149.2020  140.3834  154.7694 N   0  0  0  0  0  0  0  0  0  0  0  0
  148.9309  139.2479  154.0876 C   0  0  0  0  0  0  0  0  0  0  0  0
  149.8311  138.4518  153.8234 O   0  0  0  0  0  0  0  0  0  0  0  0
  144.0912  135.1174  152.4598 C   0  0  0  0  0  0  0  0  0  0  0  0
  150.1539  140.5636  155.0549 H   0  0  0  0  0  0  0  0  0  0  0  0
  140.5153  135.1670  154.1403 H   0  0  0  0  0  0  0  0  0  0  0  0
  141.0956  136.0635  152.7424 H   0  0  0  0  0  0  0  0  0  0  0  0
  142.1391  135.8293  154.1458 H   0  0  0  0  0  0  0  0  0  0  0  0
  142.2143  133.3464  153.6786 H   0  0  0  0  0  0  0  0  0  0  0  0
  141.0577  133.5695  152.3883 H   0  0  0  0  0  0  0  0  0  0  0  0
  143.9657  132.3921  152.2051 H   0  0  0  0  0  0  0  0  0  0  0  0
  142.7133  132.3821  150.9790 H   0  0  0  0  0  0  0  0  0  0  0  0
  144.9764  132.2680  149.9415 H   0  0  0  0  0  0  0  0  0  0  0  0
  144.1012  133.6921  149.4324 H   0  0  0  0  0  0  0  0  0  0  0  0
  146.2783  133.5770  151.5748 H   0  0  0  0  0  0  0  0  0  0  0  0
  146.4171  134.3190  149.9953 H   0  0  0  0  0  0  0  0  0  0  0  0
  144.6701  135.9623  150.5576 H   0  0  0  0  0  0  0  0  0  0  0  0
  147.1728  135.9267  151.7285 H   0  0  0  0  0  0  0  0  0  0  0  0
  148.0704  137.3514  152.7342 H   0  0  0  0  0  0  0  0  0  0  0  0
  145.5663  139.8912  153.7441 H   0  0  0  0  0  0  0  0  0  0  0  0
  148.6481  142.1963  155.6343 H   0  0  0  0  0  0  0  0  0  0  0  0
  143.6755  136.0563  152.8239 H   0  0  0  0  0  0  0  0  0  0  0  0
  144.5566  134.6265  153.3165 H   0  0  0  0  0  0  0  0  0  0  0  0
  142.5975  134.7455  151.1417 H   0  0  0  0  0  0  0  0  0  0  0  0
  1  2  1  0  0  0  0
  1 25  1  0  0  0  0
  1 26  1  0  0  0  0
  1 27  1  0  0  0  0
  2  3  1  0  0  0  0
  2 28  1  0  0  0  0
  2 29  1  0  0  0  0
  3 23  1  0  0  0  0
  3  4  1  0  0  0  0
  3 43  1  0  0  0  0
  4  5  1  0  0  0  0
  4 30  1  0  0  0  0
  4 31  1  0  0  0  0
  5  6  1  0  0  0  0
  5 32  1  0  0  0  0
  5 33  1  0  0  0  0
  6  7  1  0  0  0  0
  6 34  1  0  0  0  0
  6 35  1  0  0  0  0
  7  8  1  0  0  0  0
  7 23  1  0  0  0  0
  7 36  1  0  0  0  0
  8  9  1  0  0  0  0
  8 37  1  0  0  0  0
  9 10  2  0  0  0  0
  9 11  1  0  0  0  0
 11 12  1  0  0  0  0
 11 38  1  0  0  0  0
 12 21  1  0  0  0  0
 12 13  2  0  0  0  0
 13 14  1  0  0  0  0
 13 39  1  0  0  0  0
 14 15  1  0  0  0  0
 14 19  2  0  0  0  0
 15 16  1  0  0  0  0
 15 17  1  0  0  0  0
 15 18  1  0  0  0  0
 19 20  1  0  0  0  0
 19 40  1  0  0  0  0
 20 24  1  0  0  0  0
 20 21  1  0  0  0  0
 21 22  2  0  0  0  0
 23 41  1  0  0  0  0
 23 42  1  0  0  0  0
M  CHG  1   3   1
M  END
> <s_m_source_file>
AV-unprocessed.smi

> <i_m_source_file_index>
1726

> <i_lp_mmshare_version>
43012

> <i_f3d_flags>
0

> <s_epik_input>
W0NIM11bQ0gyXU4xW0NIMl1bQ0gyXVtDSDJdW0NASF0oW0NIMl0xKVtOSF1DKD1PKVtOSF1jMltjSF1jKEMoRikoRilGKVtjSF1bbkhdYzI9Tw==

> <s_epik_cmdline>
J2VwaWtfcHl0aG9uJywgJy1waCcsICc3LjAnLCAnLXRuJywgJzgnLCAnLW1hJywgJzIwMCcsICctbWV0YWxfYmluZGluZycsICctaW1hZScsICc8aW5maWxlLm1hZT4nLCAnLW9tYWUnLCAnPG91dGZpbGUubWFlPic=

> <r_lp_tautomer_probability>
1

> <r_epik_Ionization_Penalty>
0.00745721

> <r_epik_Ionization_Penalty_Charging>
0.00743804

> <r_epik_Ionization_Penalty_Neutral>
1.91703e-05

> <r_epik_State_Penalty>
-0

> <r_epik_Charging_Adjusted_Penalty>
0.00743804

> <i_epik_Tot_Q>
1

> <i_epik_Tot_abs_Q>
1

> <r_epik_Metal_State_Penalty>
0.37929

> <b_epik_Metal_Only>
0

> <s_lp_Force_Field>
OPLS_2005

> <r_lp_Energy>
26.6941

> <b_lp_Chiralities_Consistent>
1

> <s_lp_Variant>
AV-unprocessed.smi:1726-4

> <Gold.Version>
5.8.1

> <Gold.Id.Protein>
6NUR|6NUR_protein|mol2

> <Gold.PLP.Fitness>
43.2791

> <Gold.PLP.PLP>
-35.6959

> <Gold.PLP.part.hbond>
-2.8342

> <Gold.PLP.part.metal>
0.0000

> <Gold.PLP.part.buried>
-4.7233

> <Gold.PLP.part.nonpolar>
-31.2922

> <Gold.PLP.part.repulsive>
2.3573

> <Gold.PLP.ligand.clash>
0.0000

> <Gold.PLP.ligand.torsion>
1.2167

> <Gold.PLP.Chemscore.Hbond>
2.3130

> <Gold.PLP.Chemscore.CHOScore>
1.0000

> <Gold.PLP.Chemscore.Metal>
0.0000

> <Gold.Chemscore.Hbonds>
donor molecule, donor type, donor heavy atom, donor atom, acceptor molecule, acceptor atom, score
      L1  H     3    43       P1 10186  0.31
      L1  H     8    37       P1  7948  0.99
      L1  H    11    38       P1  7948  1.00
      L1  C    19    40       P1  8028  1.00

> <Gold.PLP.Chemscore.Internal.Correction>
0.0774

> <Gold.Rescore>
     Score         DG    S(hbond)    S(metal)    S(lipo)     H(rot)  DE(clash)    DE(int)     intcor
     12.18     -15.79       1.82        0.00      64.37       1.29       0.24       3.37       ----

> <Gold.Chemscore.Fitness>
12.1809

> <Gold.Chemscore.DG>
-15.7863

> <Gold.Chemscore.ZeroCoef>
-5.4800

> <Gold.Chemscore.Hbond>
1.8184

> <Gold.Chemscore.Metal>
0.0000

> <Gold.Chemscore.Lipo>
64.3675

> <Gold.Chemscore.Internal_Hbond>
0.0000

> <Gold.Chemscore.DEClash>
0.2357

> <Gold.Chemscore.DEInternal>
3.3697

> <Gold.Chemscore.Rot>
1.2884

> <Gold.Chemscore.Internal.Correction>
   9.000000E+99

> <Gold.Chemscore.Hbonds>
donor molecule, donor type, donor heavy atom, donor atom, acceptor molecule, acceptor atom, score
      L1  H     3    43       P1 10186  0.01
      L1  H     8    37       P1  7948  0.94
      L1  H    11    38       P1  7948  0.98

> <Gold.Chemscore.Hbond.Weighted>
-6.0736

> <Gold.Chemscore.Metal.Weighted>
-0.0000

> <Gold.Chemscore.Lipo.Weighted>
-7.5310

> <Gold.Chemscore.Internal_Hbond.Weighted>
0.0000

> <Gold.Chemscore.DEClash.Weighted>
0.2357

> <Gold.Chemscore.DEInternal.Weighted>
3.3697

> <Gold.Chemscore.Rot.Weighted>
3.2983

> <Gold.Chemscore.Internal.Correction.Weighted>
   9.000000E+99

> <Gold.Protein.RotatedTorsions>
[ 6907 6896 6895 6894 ] final -111.68 input  -60.11 | X-H torsion
[ 7974 7965 7964 7962 ] final  -56.86 input  175.53 | X-H torsion
[ 8008 7997 7996 7995 ] final -115.19 input   59.86 | X-H torsion
[ 10167 10162 10161 10158 ] final    6.89 input  -65.29 | X-H torsion
[ 10718 10713 10712 10709 ] final   47.34 input   66.30 | X-H torsion
[ 10763 10752 10751 10750 ] final -104.33 input  -60.55 | X-H torsion
[ 11005 11000 10999 10996 ] final -169.95 input  -57.11 | X-H torsion

> <Gold.Protein.ActiveResidues>
 VAL166  LYS551  ARG553  GLY616  TRP617  ASP618  TYR619  PRO620  LYS621  CYS622 
 ASP623  PHE694  ASN695  SER759  ASP760  ASP761  ALA762  ILE779  LEU786  VAL792 
 PHE793  MET794  SER795  GLU796  ALA797  LYS798  CYS799  TRP800  GLU811  SER814 

> <Gold.Protein.RotatedAtoms>
  150.7706  133.9200  159.3394 H   0  0  0  0  0  0  0  0  0  0  0  0  # atno 6907 bound_to 6896
  151.7087  135.0915  160.0273 H   0  0  0  0  0  0  0  0  0  0  0  0  # atno 6908 bound_to 6896
  152.3722  133.6396  159.6132 H   0  0  0  0  0  0  0  0  0  0  0  0  # atno 6909 bound_to 6896
  145.8577  140.8307  142.9953 H   0  0  0  0  0  0  0  0  0  0  0  0  # atno 7974 bound_to 7965
  155.0482  140.0392  157.2534 H   0  0  0  0  0  0  0  0  0  0  0  0  # atno 8008 bound_to 7997
  154.7160  140.2702  155.6561 H   0  0  0  0  0  0  0  0  0  0  0  0  # atno 8009 bound_to 7997
  156.2803  140.2712  156.1816 H   0  0  0  0  0  0  0  0  0  0  0  0  # atno 8010 bound_to 7997
  140.6402  143.7791  150.7417 H   0  0  0  0  0  0  0  0  0  0  0  0  # atno 10167 bound_to 10162
  157.4574  130.8175  149.7851 H   0  0  0  0  0  0  0  0  0  0  0  0  # atno 10718 bound_to 10713
  154.7870  135.4790  153.9968 H   0  0  0  0  0  0  0  0  0  0  0  0  # atno 10763 bound_to 10752
  153.1575  135.6802  153.8798 H   0  0  0  0  0  0  0  0  0  0  0  0  # atno 10764 bound_to 10752
  153.8422  135.3178  155.3405 H   0  0  0  0  0  0  0  0  0  0  0  0  # atno 10765 bound_to 10752
  140.5250  134.5672  157.5059 H   0  0  0  0  0  0  0  0  0  0  0  0  # atno 11005 bound_to 11000
  144.6727  140.1049  143.7458 LP  0  0  0  0  0  0  0  0  0  0  0  0  # atno 17320 bound_to 7965
  145.9284  139.2590  143.1340 LP  0  0  0  0  0  0  0  0  0  0  0  0  # atno 17321 bound_to 7965
  140.1421  143.4432  152.2187 LP  0  0  0  0  0  0  0  0  0  0  0  0  # atno 17342 bound_to 10162
  139.5612  144.7406  151.4151 LP  0  0  0  0  0  0  0  0  0  0  0  0  # atno 17343 bound_to 10162
  156.0013  130.3878  150.2594 LP  0  0  0  0  0  0  0  0  0  0  0  0  # atno 17370 bound_to 10713
  157.0770  131.0132  151.3170 LP  0  0  0  0  0  0  0  0  0  0  0  0  # atno 17371 bound_to 10713
  139.9585  134.7493  156.0289 LP  0  0  0  0  0  0  0  0  0  0  0  0  # atno 17394 bound_to 11000
  141.1313  133.6586  156.3472 LP  0  0  0  0  0  0  0  0  0  0  0  0  # atno 17395 bound_to 11000

$$$$
