AV-unprocessed.smi:101|AV-procd|sdf|925|dock6
  -GOLD-   2262017433D 1   1.00000     0.00000
 Structure written by MMmdl.
 44 46  0  0  0  0  0  0  0  0  1 V2000
  145.4199  136.2347  152.5098 C   0  0  0  0  0  0  0  0  0  0  0  0
  145.9453  135.9771  153.9125 C   0  0  0  0  0  0  0  0  0  0  0  0
  147.1336  136.4711  154.3452 C   0  0  0  0  0  0  0  0  0  0  0  0
  147.6388  136.2560  155.6221 N   0  0  0  0  0  0  0  0  0  0  0  0
  148.9674  136.8295  156.0822 C   0  0  2  0  0  0  0  0  0  0  0  0
  149.0578  138.1689  155.6915 O   0  0  0  0  0  0  0  0  0  0  0  0
  149.9972  138.3004  154.6298 C   0  0  1  0  0  0  0  0  0  0  0  0
  150.5031  139.7449  154.5700 C   0  0  0  0  0  0  0  0  0  0  0  0
  150.6078  140.2316  155.8975 O   0  0  0  0  0  0  0  0  0  0  0  0
  151.7622  140.1099  156.5781 C   0  0  0  0  0  0  0  0  0  0  0  0
  152.6366  139.2875  156.2984 O   0  0  0  0  0  0  0  0  0  0  0  0
  151.8682  141.0758  157.7099 C   0  0  0  0  0  0  0  0  0  0  0  0
  151.1114  142.2702  157.6756 C   0  0  0  0  0  0  0  0  0  0  0  0
  151.1944  143.2020  158.7287 C   0  0  0  0  0  0  0  0  0  0  0  0
  152.0340  142.9503  159.8292 C   0  0  0  0  0  0  0  0  0  0  0  0
  152.7912  141.7652  159.8757 C   0  0  0  0  0  0  0  0  0  0  0  0
  152.7103  140.8325  158.8235 C   0  0  0  0  0  0  0  0  0  0  0  0
  151.0534  137.2736  155.0255 C   0  0  2  0  0  0  0  0  0  0  0  0
  151.9471  136.9524  153.9753 O   0  0  0  0  0  0  0  0  0  0  0  0
  150.1942  136.0972  155.4819 C   0  0  2  0  0  0  0  0  0  0  0  0
  149.8653  135.2315  154.4047 O   0  0  0  0  0  0  0  0  0  0  0  0
  146.8942  135.4828  156.5359 C   0  0  0  0  0  0  0  0  0  0  0  0
  147.2856  135.2441  157.6777 O   0  0  0  0  0  0  0  0  0  0  0  0
  145.6744  134.9761  156.0925 N   0  0  0  0  0  0  0  0  0  0  0  0
  145.1288  135.1677  154.8211 C   0  0  0  0  0  0  0  0  0  0  0  0
  144.0395  134.6672  154.5461 O   0  0  0  0  0  0  0  0  0  0  0  0
  145.1389  134.4224  156.7451 H   0  0  0  0  0  0  0  0  0  0  0  0
  146.1078  136.8468  151.9253 H   0  0  0  0  0  0  0  0  0  0  0  0
  144.4630  136.7562  152.5518 H   0  0  0  0  0  0  0  0  0  0  0  0
  145.2753  135.2942  151.9774 H   0  0  0  0  0  0  0  0  0  0  0  0
  147.7038  137.0625  153.6457 H   0  0  0  0  0  0  0  0  0  0  0  0
  148.9399  136.8093  157.1734 H   0  0  0  0  0  0  0  0  0  0  0  0
  149.5385  138.0118  153.6822 H   0  0  0  0  0  0  0  0  0  0  0  0
  151.4645  139.7951  154.0567 H   0  0  0  0  0  0  0  0  0  0  0  0
  149.7981  140.3682  154.0188 H   0  0  0  0  0  0  0  0  0  0  0  0
  150.4603  142.4856  156.8408 H   0  0  0  0  0  0  0  0  0  0  0  0
  150.6129  144.1116  158.6906 H   0  0  0  0  0  0  0  0  0  0  0  0
  152.0978  143.6652  160.6362 H   0  0  0  0  0  0  0  0  0  0  0  0
  153.4364  141.5704  160.7198 H   0  0  0  0  0  0  0  0  0  0  0  0
  153.3055  139.9335  158.8915 H   0  0  0  0  0  0  0  0  0  0  0  0
  151.6266  137.6510  155.8738 H   0  0  0  0  0  0  0  0  0  0  0  0
  151.4552  136.8764  153.1723 H   0  0  0  0  0  0  0  0  0  0  0  0
  150.6909  135.5132  156.2573 H   0  0  0  0  0  0  0  0  0  0  0  0
  149.6544  135.7607  153.6506 H   0  0  0  0  0  0  0  0  0  0  0  0
  1  2  1  0  0  0  0
  1 28  1  0  0  0  0
  1 29  1  0  0  0  0
  1 30  1  0  0  0  0
  2 25  1  0  0  0  0
  2  3  2  0  0  0  0
  3  4  1  0  0  0  0
  3 31  1  0  0  0  0
  4  5  1  0  0  0  0
  4 22  1  0  0  0  0
  5 20  1  0  0  0  0
  5  6  1  0  0  0  0
  5 32  1  0  0  0  0
  6  7  1  0  0  0  0
  7  8  1  0  0  0  0
  7 18  1  0  0  0  0
  7 33  1  0  0  0  0
  8  9  1  0  0  0  0
  8 34  1  0  0  0  0
  8 35  1  0  0  0  0
  9 10  1  0  0  0  0
 10 11  2  0  0  0  0
 10 12  1  0  0  0  0
 12 17  1  0  0  0  0
 12 13  2  0  0  0  0
 13 14  1  0  0  0  0
 13 36  1  0  0  0  0
 14 15  2  0  0  0  0
 14 37  1  0  0  0  0
 15 16  1  0  0  0  0
 15 38  1  0  0  0  0
 16 17  2  0  0  0  0
 16 39  1  0  0  0  0
 17 40  1  0  0  0  0
 18 19  1  0  0  0  0
 18 20  1  0  0  0  0
 18 41  1  0  0  0  0
 19 42  1  0  0  0  0
 20 21  1  0  0  0  0
 20 43  1  0  0  0  0
 21 44  1  0  0  0  0
 22 23  2  0  0  0  0
 22 24  1  0  0  0  0
 24 27  1  0  0  0  0
 24 25  1  0  0  0  0
 25 26  2  0  0  0  0
M  END
> <s_m_source_file>
AV-unprocessed.smi

> <i_m_source_file_index>
101

> <i_lp_mmshare_version>
43012

> <i_f3d_flags>
0

> <s_epik_input>
Tz1jMVtuSF1jKD1PKW4oW2NIXWMxW0NIM10pW0NAQEhdMk9bQ0BIXShbQ0BASF0oW09IXSlbQ0BIXTJbT0hdKVtDSDJdT0MoPU8pYzNbY0hdW2NIXVtjSF1bY0hdW2NIXTM=

> <s_epik_cmdline>
J2VwaWtfcHl0aG9uJywgJy1waCcsICc3LjAnLCAnLXRuJywgJzgnLCAnLW1hJywgJzIwMCcsICctbWV0YWxfYmluZGluZycsICctaW1hZScsICc8aW5maWxlLm1hZT4nLCAnLW9tYWUnLCAnPG91dGZpbGUubWFlPic=

> <r_lp_tautomer_probability>
0.999537

> <r_epik_Ionization_Penalty>
0.00263537

> <r_epik_Ionization_Penalty_Charging>
0.00263428

> <r_epik_Ionization_Penalty_Neutral>
1.09111e-06

> <r_epik_State_Penalty>
0.00183335

> <r_epik_Charging_Adjusted_Penalty>
0.00446763

> <i_epik_Tot_Q>
0

> <i_epik_Tot_abs_Q>
0

> <r_epik_Metal_State_Penalty>
1.00528

> <b_epik_Metal_Only>
0

> <s_epik_Chemistry_Notes>
This compound has an ester and may undergo hydrolysis at high or low pH. This compound contains an acetal/aminal-like group ( X-CH(R)-Y where X, Y are N, S, or O) that may be acid/base labile, releasing an aldehyde.

> <s_lp_Force_Field>
OPLS_2005

> <r_lp_Energy>
40.9352

> <b_lp_Chiralities_Consistent>
1

> <s_lp_Variant>
AV-unprocessed.smi:101-13

> <Gold.Version>
5.8.1

> <Gold.Id.Protein>
6NUR|6NUR_protein|mol2

> <Gold.PLP.Fitness>
44.7424

> <Gold.PLP.PLP>
-32.2817

> <Gold.PLP.part.hbond>
-4.0000

> <Gold.PLP.part.metal>
0.0000

> <Gold.PLP.part.buried>
-3.3036

> <Gold.PLP.part.nonpolar>
-25.2040

> <Gold.PLP.part.repulsive>
0.1469

> <Gold.PLP.ligand.clash>
0.0000

> <Gold.PLP.ligand.torsion>
1.2921

> <Gold.PLP.Chemscore.Hbond>
4.0000

> <Gold.PLP.Chemscore.CHOScore>
0.9683

> <Gold.PLP.Chemscore.Metal>
0.0000

> <Gold.Chemscore.Hbonds>
donor molecule, donor type, donor heavy atom, donor atom, acceptor molecule, acceptor atom, score
      L1  H    19    42       P1  7949  0.98
      L1  H    21    44       P1  7948  0.90
      P1  H  7997  8010       L1    11  1.00
      P1  H 10752 10765       L1    19  1.00
      L1  C     3    31       P1  7948  0.92

> <Gold.PLP.Chemscore.Internal.Correction>
0.1402

> <Gold.Rescore>
     Score         DG    S(hbond)    S(metal)    S(lipo)     H(rot)  DE(clash)    DE(int)     intcor
     14.00     -16.39       2.97        0.00      81.15       3.32       0.91       1.48       ----

> <Gold.Chemscore.Fitness>
13.9984

> <Gold.Chemscore.DG>
-16.3917

> <Gold.Chemscore.ZeroCoef>
-5.4800

> <Gold.Chemscore.Hbond>
2.9669

> <Gold.Chemscore.Metal>
0.0000

> <Gold.Chemscore.Lipo>
81.1486

> <Gold.Chemscore.Internal_Hbond>
0.0000

> <Gold.Chemscore.DEClash>
0.9142

> <Gold.Chemscore.DEInternal>
1.4792

> <Gold.Chemscore.Rot>
3.3172

> <Gold.Chemscore.Internal.Correction>
   9.000000E+99

> <Gold.Chemscore.Hbonds>
donor molecule, donor type, donor heavy atom, donor atom, acceptor molecule, acceptor atom, score
      L1  H    19    42       P1  7949  0.79
      L1  H    21    44       P1  7948  0.18
      P1  H  7997  8010       L1    11  0.74
      P1  H 10752 10765       L1    19  0.53

> <Gold.Chemscore.Hbond.Weighted>
-9.9094

> <Gold.Chemscore.Metal.Weighted>
-0.0000

> <Gold.Chemscore.Lipo.Weighted>
-9.4944

> <Gold.Chemscore.Internal_Hbond.Weighted>
0.0000

> <Gold.Chemscore.DEClash.Weighted>
0.9142

> <Gold.Chemscore.DEInternal.Weighted>
1.4792

> <Gold.Chemscore.Rot.Weighted>
8.4920

> <Gold.Chemscore.Internal.Correction.Weighted>
   9.000000E+99

> <Gold.Protein.RotatedTorsions>
[ 6907 6896 6895 6894 ] final -124.93 input  -60.11 | X-H torsion
[ 7974 7965 7964 7962 ] final    0.90 input  175.53 | X-H torsion
[ 8008 7997 7996 7995 ] final   70.50 input   59.86 | X-H torsion
[ 10167 10162 10161 10158 ] final  -30.28 input  -65.29 | X-H torsion
[ 10718 10713 10712 10709 ] final -125.90 input   66.30 | X-H torsion
[ 10763 10752 10751 10750 ] final  140.47 input  -60.55 | X-H torsion
[ 11005 11000 10999 10996 ] final   74.42 input  -57.11 | X-H torsion

> <Gold.Protein.ActiveResidues>
 VAL166  LYS551  ARG553  GLY616  TRP617  ASP618  TYR619  PRO620  LYS621  CYS622 
 ASP623  PHE694  ASN695  SER759  ASP760  ASP761  ALA762  ILE779  LEU786  VAL792 
 PHE793  MET794  SER795  GLU796  ALA797  LYS798  CYS799  TRP800  GLU811  SER814 

> <Gold.Protein.RotatedAtoms>
  150.8817  133.7363  159.2929 H   0  0  0  0  0  0  0  0  0  0  0  0  # atno 6907 bound_to 6896
  151.4942  135.1057  159.9821 H   0  0  0  0  0  0  0  0  0  0  0  0  # atno 6908 bound_to 6896
  152.4764  133.8102  159.7055 H   0  0  0  0  0  0  0  0  0  0  0  0  # atno 6909 bound_to 6896
  146.2437  140.1068  142.8345 H   0  0  0  0  0  0  0  0  0  0  0  0  # atno 7974 bound_to 7965
  155.7397  140.3490  155.5098 H   0  0  0  0  0  0  0  0  0  0  0  0  # atno 8008 bound_to 7997
  155.9105  140.1049  157.1304 H   0  0  0  0  0  0  0  0  0  0  0  0  # atno 8009 bound_to 7997
  154.4055  140.1268  156.4538 H   0  0  0  0  0  0  0  0  0  0  0  0  # atno 8010 bound_to 7997
  140.7251  143.3861  151.1513 H   0  0  0  0  0  0  0  0  0  0  0  0  # atno 10167 bound_to 10162
  156.1716  130.6672  151.0188 H   0  0  0  0  0  0  0  0  0  0  0  0  # atno 10718 bound_to 10713
  153.9231  135.2998  155.3447 H   0  0  0  0  0  0  0  0  0  0  0  0  # atno 10763 bound_to 10752
  154.7565  135.4955  153.9387 H   0  0  0  0  0  0  0  0  0  0  0  0  # atno 10764 bound_to 10752
  153.1131  135.6764  153.9569 H   0  0  0  0  0  0  0  0  0  0  0  0  # atno 10765 bound_to 10752
  139.9392  134.7431  156.1145 H   0  0  0  0  0  0  0  0  0  0  0  0  # atno 11005 bound_to 11000
  145.0521  140.9025  143.4989 LP  0  0  0  0  0  0  0  0  0  0  0  0  # atno 17320 bound_to 7965
  145.1168  139.2720  143.5609 LP  0  0  0  0  0  0  0  0  0  0  0  0  # atno 17321 bound_to 7965
  139.7458  143.8854  152.3063 LP  0  0  0  0  0  0  0  0  0  0  0  0  # atno 17342 bound_to 10162
  139.8690  144.7078  150.9009 LP  0  0  0  0  0  0  0  0  0  0  0  0  # atno 17343 bound_to 10162
  157.6807  131.0839  150.7377 LP  0  0  0  0  0  0  0  0  0  0  0  0  # atno 17370 bound_to 10713
  156.7436  130.4747  149.5472 LP  0  0  0  0  0  0  0  0  0  0  0  0  # atno 17371 bound_to 10713
  141.1019  133.6674  156.2775 LP  0  0  0  0  0  0  0  0  0  0  0  0  # atno 17394 bound_to 11000
  140.5996  134.5568  157.5515 LP  0  0  0  0  0  0  0  0  0  0  0  0  # atno 17395 bound_to 11000

$$$$
