AV-unprocessed.smi:437|AV-procd|sdf|2560|dock9
  -GOLD-   2262022533D 1   1.00000     0.00000
 Structure written by MMmdl.
 48 49  0  0  0  0  0  0  0  0  1 V2000
  145.4170  133.3582  162.6038 C   0  0  0  0  0  0  0  0  0  0  0  0
  144.5276  133.8963  161.5155 C   0  0  0  0  0  0  0  0  0  0  0  0
  144.5856  133.3005  160.3700 N   0  0  0  0  0  0  0  0  0  0  0  0
  143.8128  133.7160  159.3029 N   0  0  0  0  0  0  0  0  0  0  0  0
  144.0198  132.9346  158.0741 C   0  0  0  0  0  0  0  0  0  0  0  0
  144.9823  133.6042  157.0801 C   0  0  0  0  0  0  0  0  0  0  0  0
  145.7675  134.4753  157.4637 O   0  0  0  0  0  0  0  0  0  0  0  0
  144.8889  133.1543  155.8123 N   0  0  0  0  0  0  0  0  0  0  0  0
  145.6024  133.5577  154.7434 C   0  0  0  0  0  0  0  0  0  0  0  0
  146.5871  134.2991  154.7731 O   0  0  0  0  0  0  0  0  0  0  0  0
  145.1044  133.0398  153.6110 N   0  0  0  0  0  0  0  0  0  0  0  0
  145.6346  133.2681  152.2657 C   0  0  1  0  0  0  0  0  0  0  0  0
  146.1778  131.9580  151.6532 C   0  0  0  0  0  0  0  0  0  0  0  0
  145.0525  130.9667  151.3126 C   0  0  0  0  0  0  0  0  0  0  0  0
  144.0057  131.6112  150.3920 C   0  0  0  0  0  0  0  0  0  0  0  0
  143.4441  132.9051  151.0026 C   0  0  0  0  0  0  0  0  0  0  0  0
  144.5664  133.9078  151.3442 C   0  0  1  0  0  0  0  0  0  0  0  0
  143.9985  135.2211  151.9098 C   0  0  0  0  0  0  0  0  0  0  0  0
  142.9248  134.7509  159.3435 C   0  0  0  0  0  0  0  0  0  0  0  0
  142.2448  135.0783  158.3697 O   0  0  0  0  0  0  0  0  0  0  0  0
  142.8680  135.4246  160.6428 C   0  0  0  0  0  0  0  0  0  0  0  0
  141.9606  136.5232  160.7245 C   0  0  0  0  0  0  0  0  0  0  0  0
  141.2365  137.4229  160.8050 N   0  0  0  0  0  0  0  0  0  0  0  0
  143.6278  135.0310  161.6954 C   0  0  0  0  0  0  0  0  0  0  0  0
  143.6058  135.6946  163.0654 C   0  0  0  0  0  0  0  0  0  0  0  0
  144.8253  133.0181  163.4538 H   0  0  0  0  0  0  0  0  0  0  0  0
  146.1063  134.1260  162.9559 H   0  0  0  0  0  0  0  0  0  0  0  0
  146.0145  132.5121  162.2605 H   0  0  0  0  0  0  0  0  0  0  0  0
  144.4200  131.9493  158.3205 H   0  0  0  0  0  0  0  0  0  0  0  0
  143.0640  132.7463  157.5815 H   0  0  0  0  0  0  0  0  0  0  0  0
  144.2076  132.4284  155.6471 H   0  0  0  0  0  0  0  0  0  0  0  0
  144.2973  132.4375  153.6789 H   0  0  0  0  0  0  0  0  0  0  0  0
  146.4640  133.9731  152.3480 H   0  0  0  0  0  0  0  0  0  0  0  0
  146.7292  132.1941  150.7423 H   0  0  0  0  0  0  0  0  0  0  0  0
  146.8979  131.4891  152.3247 H   0  0  0  0  0  0  0  0  0  0  0  0
  145.4713  130.0810  150.8342 H   0  0  0  0  0  0  0  0  0  0  0  0
  144.5730  130.6224  152.2296 H   0  0  0  0  0  0  0  0  0  0  0  0
  144.4576  131.8307  149.4238 H   0  0  0  0  0  0  0  0  0  0  0  0
  143.1949  130.9074  150.2017 H   0  0  0  0  0  0  0  0  0  0  0  0
  142.7411  133.3589  150.3034 H   0  0  0  0  0  0  0  0  0  0  0  0
  142.8715  132.6658  151.8995 H   0  0  0  0  0  0  0  0  0  0  0  0
  145.0653  134.1616  150.4076 H   0  0  0  0  0  0  0  0  0  0  0  0
  143.4321  135.0565  152.8267 H   0  0  0  0  0  0  0  0  0  0  0  0
  143.3301  135.6974  151.1923 H   0  0  0  0  0  0  0  0  0  0  0  0
  144.7974  135.9285  152.1338 H   0  0  0  0  0  0  0  0  0  0  0  0
  142.8983  136.5216  163.1131 H   0  0  0  0  0  0  0  0  0  0  0  0
  144.5908  136.0912  163.3133 H   0  0  0  0  0  0  0  0  0  0  0  0
  143.3208  134.9759  163.8342 H   0  0  0  0  0  0  0  0  0  0  0  0
  1  2  1  0  0  0  0
  1 26  1  0  0  0  0
  1 27  1  0  0  0  0
  1 28  1  0  0  0  0
  2 24  1  0  0  0  0
  2  3  2  0  0  0  0
  3  4  1  0  0  0  0
  4  5  1  0  0  0  0
  4 19  1  0  0  0  0
  5  6  1  0  0  0  0
  5 29  1  0  0  0  0
  5 30  1  0  0  0  0
  6  7  2  0  0  0  0
  6  8  1  0  0  0  0
  8  9  1  0  0  0  0
  8 31  1  0  0  0  0
  9 10  2  0  0  0  0
  9 11  1  0  0  0  0
 11 12  1  0  0  0  0
 11 32  1  0  0  0  0
 12 17  1  0  0  0  0
 12 13  1  0  0  0  0
 12 33  1  0  0  0  0
 13 14  1  0  0  0  0
 13 34  1  0  0  0  0
 13 35  1  0  0  0  0
 14 15  1  0  0  0  0
 14 36  1  0  0  0  0
 14 37  1  0  0  0  0
 15 16  1  0  0  0  0
 15 38  1  0  0  0  0
 15 39  1  0  0  0  0
 16 17  1  0  0  0  0
 16 40  1  0  0  0  0
 16 41  1  0  0  0  0
 17 18  1  0  0  0  0
 17 42  1  0  0  0  0
 18 43  1  0  0  0  0
 18 44  1  0  0  0  0
 18 45  1  0  0  0  0
 19 20  2  0  0  0  0
 19 21  1  0  0  0  0
 21 22  1  0  0  0  0
 21 24  2  0  0  0  0
 22 23  3  0  0  0  0
 24 25  1  0  0  0  0
 25 46  1  0  0  0  0
 25 47  1  0  0  0  0
 25 48  1  0  0  0  0
M  END
> <s_m_source_file>
AV-unprocessed.smi

> <i_m_source_file_index>
437

> <i_lp_mmshare_version>
43012

> <i_f3d_flags>
0

> <s_epik_input>
TiNDYyhjMVtDSDNdKWMoPU8pbihuYzFbQ0gzXSlbQ0gyXUMoPU8pW05IXUMoPU8pW05IXVtDQEBIXTJbQ0gyXVtDSDJdW0NIMl1bQ0gyXVtDQEhdMltDSDNd

> <s_epik_cmdline>
J2VwaWtfcHl0aG9uJywgJy1waCcsICc3LjAnLCAnLXRuJywgJzgnLCAnLW1hJywgJzIwMCcsICctbWV0YWxfYmluZGluZycsICctaW1hZScsICc8aW5maWxlLm1hZT4nLCAnLW9tYWUnLCAnPG91dGZpbGUubWFlPic=

> <r_lp_tautomer_probability>
1

> <r_epik_Ionization_Penalty>
3.27035e-05

> <r_epik_Ionization_Penalty_Charging>
1.6965e-11

> <r_epik_Ionization_Penalty_Neutral>
3.27035e-05

> <r_epik_State_Penalty>
-0

> <r_epik_Charging_Adjusted_Penalty>
1.6965e-11

> <i_epik_Tot_Q>
0

> <i_epik_Tot_abs_Q>
0

> <r_epik_Metal_State_Penalty>
-0

> <b_epik_Metal_Only>
0

> <s_lp_Force_Field>
OPLS_2005

> <r_lp_Energy>
26.066

> <b_lp_Chiralities_Consistent>
1

> <s_lp_Variant>
AV-unprocessed.smi:437-2

> <Gold.Version>
5.8.1

> <Gold.Id.Protein>
6NUR|6NUR_protein|mol2

> <Gold.PLP.Fitness>
36.9722

> <Gold.PLP.PLP>
-29.5484

> <Gold.PLP.part.hbond>
-3.0000

> <Gold.PLP.part.metal>
0.0000

> <Gold.PLP.part.buried>
-4.3995

> <Gold.PLP.part.nonpolar>
-23.1656

> <Gold.PLP.part.repulsive>
0.0690

> <Gold.PLP.ligand.clash>
0.0000

> <Gold.PLP.ligand.torsion>
0.6175

> <Gold.PLP.Chemscore.Hbond>
2.8775

> <Gold.PLP.Chemscore.CHOScore>
0.0000

> <Gold.PLP.Chemscore.Metal>
0.0000

> <Gold.Chemscore.Hbonds>
donor molecule, donor type, donor heavy atom, donor atom, acceptor molecule, acceptor atom, score
      L1  H     8    31       P1 10957  1.00
      L1  H    11    32       P1 10957  0.90
      P1  H 11000 11005       L1    20  1.00

> <Gold.PLP.Chemscore.Internal.Correction>
0.0262

> <Gold.Rescore>
     Score         DG    S(hbond)    S(metal)    S(lipo)     H(rot)  DE(clash)    DE(int)     intcor
     17.80     -19.82       2.81        0.00      76.52       1.57       0.00       2.02       ----

> <Gold.Chemscore.Fitness>
17.8018

> <Gold.Chemscore.DG>
-19.8178

> <Gold.Chemscore.ZeroCoef>
-5.4800

> <Gold.Chemscore.Hbond>
2.8123

> <Gold.Chemscore.Metal>
0.0000

> <Gold.Chemscore.Lipo>
76.5178

> <Gold.Chemscore.Internal_Hbond>
0.0000

> <Gold.Chemscore.DEClash>
0.0000

> <Gold.Chemscore.DEInternal>
2.0160

> <Gold.Chemscore.Rot>
1.5656

> <Gold.Chemscore.Internal.Correction>
   9.000000E+99

> <Gold.Chemscore.Hbonds>
donor molecule, donor type, donor heavy atom, donor atom, acceptor molecule, acceptor atom, score
      L1  H     8    31       P1 10957  0.96
      L1  H    11    32       P1 10957  0.25
      P1  H 11000 11005       L1    20  0.94

> <Gold.Chemscore.Hbond.Weighted>
-9.3930

> <Gold.Chemscore.Metal.Weighted>
-0.0000

> <Gold.Chemscore.Lipo.Weighted>
-8.9526

> <Gold.Chemscore.Internal_Hbond.Weighted>
0.0000

> <Gold.Chemscore.DEClash.Weighted>
0.0000

> <Gold.Chemscore.DEInternal.Weighted>
2.0160

> <Gold.Chemscore.Rot.Weighted>
4.0079

> <Gold.Chemscore.Internal.Correction.Weighted>
   9.000000E+99

> <Gold.Protein.RotatedTorsions>
[ 6907 6896 6895 6894 ] final  -16.36 input  -60.11 | X-H torsion
[ 7974 7965 7964 7962 ] final -147.95 input  175.53 | X-H torsion
[ 8008 7997 7996 7995 ] final   73.63 input   59.86 | X-H torsion
[ 10167 10162 10161 10158 ] final -177.08 input  -65.29 | X-H torsion
[ 10718 10713 10712 10709 ] final -172.96 input   66.30 | X-H torsion
[ 10763 10752 10751 10750 ] final  -38.42 input  -60.55 | X-H torsion
[ 11005 11000 10999 10996 ] final -146.30 input  -57.11 | X-H torsion

> <Gold.Protein.ActiveResidues>
 VAL166  LYS551  ARG553  GLY616  TRP617  ASP618  TYR619  PRO620  LYS621  CYS622 
 ASP623  PHE694  ASN695  SER759  ASP760  ASP761  ALA762  ILE779  LEU786  VAL792 
 PHE793  MET794  SER795  GLU796  ALA797  LYS798  CYS799  TRP800  GLU811  SER814 

> <Gold.Protein.RotatedAtoms>
  151.3099  135.0791  159.9268 H   0  0  0  0  0  0  0  0  0  0  0  0  # atno 6907 bound_to 6896
  152.5280  133.9747  159.7789 H   0  0  0  0  0  0  0  0  0  0  0  0  # atno 6908 bound_to 6896
  151.0048  133.5969  159.2720 H   0  0  0  0  0  0  0  0  0  0  0  0  # atno 6909 bound_to 6896
  144.8060  140.5260  143.5674 H   0  0  0  0  0  0  0  0  0  0  0  0  # atno 7974 bound_to 7965
  155.7865  140.3480  155.5326 H   0  0  0  0  0  0  0  0  0  0  0  0  # atno 8008 bound_to 7997
  155.8676  140.0981  157.1592 H   0  0  0  0  0  0  0  0  0  0  0  0  # atno 8009 bound_to 7997
  154.4015  140.1346  156.4026 H   0  0  0  0  0  0  0  0  0  0  0  0  # atno 8010 bound_to 7997
  139.5498  144.2140  152.1056 H   0  0  0  0  0  0  0  0  0  0  0  0  # atno 10167 bound_to 10162
  156.7633  130.9422  151.3118 H   0  0  0  0  0  0  0  0  0  0  0  0  # atno 10718 bound_to 10713
  153.9125  135.6791  153.4750 H   0  0  0  0  0  0  0  0  0  0  0  0  # atno 10763 bound_to 10752
  153.1071  135.4800  154.8967 H   0  0  0  0  0  0  0  0  0  0  0  0  # atno 10764 bound_to 10752
  154.7520  135.3187  154.8496 H   0  0  0  0  0  0  0  0  0  0  0  0  # atno 10765 bound_to 10752
  140.7834  134.3052  157.5038 H   0  0  0  0  0  0  0  0  0  0  0  0  # atno 11005 bound_to 11000
  145.5437  139.1475  143.3433 LP  0  0  0  0  0  0  0  0  0  0  0  0  # atno 17320 bound_to 7965
  146.2352  140.5576  142.8958 LP  0  0  0  0  0  0  0  0  0  0  0  0  # atno 17321 bound_to 7965
  140.1633  144.5005  150.6620 LP  0  0  0  0  0  0  0  0  0  0  0  0  # atno 17342 bound_to 10162
  140.6757  143.2304  151.5513 LP  0  0  0  0  0  0  0  0  0  0  0  0  # atno 17343 bound_to 10162
  157.6724  130.9063  150.0072 LP  0  0  0  0  0  0  0  0  0  0  0  0  # atno 17370 bound_to 10713
  156.1325  130.3643  149.9710 LP  0  0  0  0  0  0  0  0  0  0  0  0  # atno 17371 bound_to 10713
  139.8740  134.9332  156.3574 LP  0  0  0  0  0  0  0  0  0  0  0  0  # atno 17394 bound_to 11000
  140.9460  133.7482  156.0209 LP  0  0  0  0  0  0  0  0  0  0  0  0  # atno 17395 bound_to 11000

$$$$
