AV-unprocessed.smi:1328|AV-procd|sdf|5480|dock8
  -GOLD-   22720 5 53D 1   1.00000     0.00000
 Structure written by MMmdl.
 38 39  0  0  0  0  0  0  0  0  1 V2000
  150.2379  131.0015  155.9686 C   0  0  0  0  0  0  0  0  0  0  0  0
  149.8640  132.4233  156.2757 C   0  0  0  0  0  0  0  0  0  0  0  0
  149.9884  132.8771  157.5115 N   0  0  0  0  0  0  0  0  0  0  0  0
  149.5723  134.2112  157.4733 O   0  0  0  0  0  0  0  0  0  0  0  0
  149.2081  134.5121  156.2009 C   0  0  0  0  0  0  0  0  0  0  0  0
  148.7346  135.9052  155.9546 C   0  0  0  0  0  0  0  0  0  0  0  0
  149.3635  133.4206  155.3900 C   0  0  0  0  0  0  0  0  0  0  0  0
  149.0856  133.2924  153.9140 C   0  0  0  0  0  0  0  0  0  0  0  0
  147.5803  133.1537  153.6909 C   0  0  0  0  0  0  0  0  0  0  0  0
  146.9714  132.1921  154.1594 O   0  0  0  0  0  0  0  0  0  0  0  0
  147.0009  134.1153  152.9569 N   0  0  0  0  0  0  0  0  0  0  0  0
  145.6089  134.1346  152.5215 C   0  0  1  0  0  0  0  0  0  0  0  0
  145.2895  135.4852  151.8589 C   0  0  0  0  0  0  0  0  0  0  0  0
  145.3760  132.9441  151.5724 C   0  0  2  0  0  0  0  0  0  0  0  0
  146.3187  132.8831  150.3712 C   0  0  0  0  0  0  0  0  0  0  0  0
  145.5364  132.0693  149.3528 C   0  0  0  0  0  0  0  0  0  0  0  0
  144.0889  132.1418  149.8485 C   0  0  0  0  0  0  0  0  0  0  0  0
  144.1090  133.0509  150.9405 O   0  0  0  0  0  0  0  0  0  0  0  0
  150.6753  130.9160  154.9739 H   0  0  0  0  0  0  0  0  0  0  0  0
  149.3627  130.3525  156.0037 H   0  0  0  0  0  0  0  0  0  0  0  0
  150.9681  130.6159  156.6809 H   0  0  0  0  0  0  0  0  0  0  0  0
  149.0870  136.2730  154.9912 H   0  0  0  0  0  0  0  0  0  0  0  0
  149.1000  136.5847  156.7246 H   0  0  0  0  0  0  0  0  0  0  0  0
  147.6454  135.9471  155.9544 H   0  0  0  0  0  0  0  0  0  0  0  0
  149.4496  134.1609  153.3637 H   0  0  0  0  0  0  0  0  0  0  0  0
  149.5941  132.4279  153.4853 H   0  0  0  0  0  0  0  0  0  0  0  0
  147.5879  134.8642  152.6194 H   0  0  0  0  0  0  0  0  0  0  0  0
  144.9619  134.0098  153.3919 H   0  0  0  0  0  0  0  0  0  0  0  0
  144.2432  135.5420  151.5588 H   0  0  0  0  0  0  0  0  0  0  0  0
  145.9003  135.6453  150.9699 H   0  0  0  0  0  0  0  0  0  0  0  0
  145.4742  136.3138  152.5433 H   0  0  0  0  0  0  0  0  0  0  0  0
  145.4148  132.0018  152.1230 H   0  0  0  0  0  0  0  0  0  0  0  0
  146.4951  133.8857  149.9791 H   0  0  0  0  0  0  0  0  0  0  0  0
  147.2853  132.4405  150.6132 H   0  0  0  0  0  0  0  0  0  0  0  0
  145.6467  132.4814  148.3492 H   0  0  0  0  0  0  0  0  0  0  0  0
  145.8782  131.0338  149.3306 H   0  0  0  0  0  0  0  0  0  0  0  0
  143.3986  132.4808  149.0756 H   0  0  0  0  0  0  0  0  0  0  0  0
  143.7535  131.1650  150.1997 H   0  0  0  0  0  0  0  0  0  0  0  0
  1  2  1  0  0  0  0
  1 19  1  0  0  0  0
  1 20  1  0  0  0  0
  1 21  1  0  0  0  0
  2  7  1  0  0  0  0
  2  3  2  0  0  0  0
  3  4  1  0  0  0  0
  4  5  1  0  0  0  0
  5  6  1  0  0  0  0
  5  7  2  0  0  0  0
  6 22  1  0  0  0  0
  6 23  1  0  0  0  0
  6 24  1  0  0  0  0
  7  8  1  0  0  0  0
  8  9  1  0  0  0  0
  8 25  1  0  0  0  0
  8 26  1  0  0  0  0
  9 10  2  0  0  0  0
  9 11  1  0  0  0  0
 11 12  1  0  0  0  0
 11 27  1  0  0  0  0
 12 13  1  0  0  0  0
 12 14  1  0  0  0  0
 12 28  1  0  0  0  0
 13 29  1  0  0  0  0
 13 30  1  0  0  0  0
 13 31  1  0  0  0  0
 14 18  1  0  0  0  0
 14 15  1  0  0  0  0
 14 32  1  0  0  0  0
 15 16  1  0  0  0  0
 15 33  1  0  0  0  0
 15 34  1  0  0  0  0
 16 17  1  0  0  0  0
 16 35  1  0  0  0  0
 16 36  1  0  0  0  0
 17 18  1  0  0  0  0
 17 37  1  0  0  0  0
 17 38  1  0  0  0  0
M  END
> <s_m_source_file>
AV-unprocessed.smi

> <i_m_source_file_index>
1328

> <i_lp_mmshare_version>
43012

> <i_f3d_flags>
0

> <s_epik_input>
W0NIM11jMW5vYyhbQ0gzXSljMVtDSDJdQyg9TylbTkhdW0NASF0oW0NIM10pW0NAQEhdMltDSDJdW0NIMl1bQ0gyXU8y

> <s_epik_cmdline>
J2VwaWtfcHl0aG9uJywgJy1waCcsICc3LjAnLCAnLXRuJywgJzgnLCAnLW1hJywgJzIwMCcsICctbWV0YWxfYmluZGluZycsICctaW1hZScsICc8aW5maWxlLm1hZT4nLCAnLW9tYWUnLCAnPG91dGZpbGUubWFlPic=

> <r_lp_tautomer_probability>
1

> <r_epik_Ionization_Penalty>
2.66156e-08

> <r_epik_Ionization_Penalty_Charging>
0

> <r_epik_Ionization_Penalty_Neutral>
2.66156e-08

> <r_epik_State_Penalty>
-0

> <r_epik_Charging_Adjusted_Penalty>
0

> <i_epik_Tot_Q>
0

> <i_epik_Tot_abs_Q>
0

> <r_epik_Metal_State_Penalty>
-0

> <b_epik_Metal_Only>
0

> <s_lp_Force_Field>
OPLS_2005

> <r_lp_Energy>
11.7374

> <b_lp_Chiralities_Consistent>
1

> <s_lp_Variant>
AV-unprocessed.smi:1328-2

> <Gold.Version>
5.8.1

> <Gold.Id.Protein>
6NUR|6NUR_protein|mol2

> <Gold.PLP.Fitness>
36.7868

> <Gold.PLP.PLP>
-31.8855

> <Gold.PLP.part.hbond>
-2.6312

> <Gold.PLP.part.metal>
0.0000

> <Gold.PLP.part.buried>
-4.7644

> <Gold.PLP.part.nonpolar>
-25.1000

> <Gold.PLP.part.repulsive>
0.1918

> <Gold.PLP.ligand.clash>
0.0000

> <Gold.PLP.ligand.torsion>
0.3401

> <Gold.PLP.Chemscore.Hbond>
1.8480

> <Gold.PLP.Chemscore.CHOScore>
0.0000

> <Gold.PLP.Chemscore.Metal>
0.0000

> <Gold.Chemscore.Hbonds>
donor molecule, donor type, donor heavy atom, donor atom, acceptor molecule, acceptor atom, score
      L1  H    11    27       P1  7948  0.96
      P1  H  6896  6908       L1     3  0.12

> <Gold.PLP.Chemscore.Internal.Correction>
0.0375

> <Gold.Rescore>
     Score         DG    S(hbond)    S(metal)    S(lipo)     H(rot)  DE(clash)    DE(int)     intcor
     15.04     -15.55       1.54        0.00      75.22       1.52       0.00       0.51       ----

> <Gold.Chemscore.Fitness>
15.0385

> <Gold.Chemscore.DG>
-15.5478

> <Gold.Chemscore.ZeroCoef>
-5.4800

> <Gold.Chemscore.Hbond>
1.5412

> <Gold.Chemscore.Metal>
0.0000

> <Gold.Chemscore.Lipo>
75.2227

> <Gold.Chemscore.Internal_Hbond>
0.0000

> <Gold.Chemscore.DEClash>
0.0009

> <Gold.Chemscore.DEInternal>
0.5084

> <Gold.Chemscore.Rot>
1.5159

> <Gold.Chemscore.Internal.Correction>
   9.000000E+99

> <Gold.Chemscore.Hbonds>
donor molecule, donor type, donor heavy atom, donor atom, acceptor molecule, acceptor atom, score
      L1  H    11    27       P1  7948  0.88

> <Gold.Chemscore.Hbond.Weighted>
-5.1475

> <Gold.Chemscore.Metal.Weighted>
-0.0000

> <Gold.Chemscore.Lipo.Weighted>
-8.8011

> <Gold.Chemscore.Internal_Hbond.Weighted>
0.0000

> <Gold.Chemscore.DEClash.Weighted>
0.0009

> <Gold.Chemscore.DEInternal.Weighted>
0.5084

> <Gold.Chemscore.Rot.Weighted>
3.8807

> <Gold.Chemscore.Internal.Correction.Weighted>
   9.000000E+99

> <Gold.Protein.RotatedTorsions>
[ 6907 6896 6895 6894 ] final   97.12 input  -60.11 | X-H torsion
[ 7974 7965 7964 7962 ] final  -48.32 input  175.53 | X-H torsion
[ 8008 7997 7996 7995 ] final  152.45 input   59.86 | X-H torsion
[ 10167 10162 10161 10158 ] final  171.33 input  -65.29 | X-H torsion
[ 10718 10713 10712 10709 ] final  -34.49 input   66.30 | X-H torsion
[ 10763 10752 10751 10750 ] final  -87.67 input  -60.55 | X-H torsion
[ 11005 11000 10999 10996 ] final  -12.95 input  -57.11 | X-H torsion

> <Gold.Protein.ActiveResidues>
 VAL166  LYS551  ARG553  GLY616  TRP617  ASP618  TYR619  PRO620  LYS621  CYS622 
 ASP623  PHE694  ASN695  SER759  ASP760  ASP761  ALA762  ILE779  LEU786  VAL792 
 PHE793  MET794  SER795  GLU796  ALA797  LYS798  CYS799  TRP800  GLU811  SER814 

> <Gold.Protein.RotatedAtoms>
  152.5427  134.0782  159.8223 H   0  0  0  0  0  0  0  0  0  0  0  0  # atno 6907 bound_to 6896
  151.0887  133.5325  159.2623 H   0  0  0  0  0  0  0  0  0  0  0  0  # atno 6908 bound_to 6896
  151.2124  135.0495  159.8971 H   0  0  0  0  0  0  0  0  0  0  0  0  # atno 6909 bound_to 6896
  145.9524  140.7559  142.9498 H   0  0  0  0  0  0  0  0  0  0  0  0  # atno 7974 bound_to 7965
  156.2628  140.2020  156.6336 H   0  0  0  0  0  0  0  0  0  0  0  0  # atno 8008 bound_to 7997
  154.6664  140.0555  157.0143 H   0  0  0  0  0  0  0  0  0  0  0  0  # atno 8009 bound_to 7997
  155.1201  140.3224  155.4502 H   0  0  0  0  0  0  0  0  0  0  0  0  # atno 8010 bound_to 7997
  139.5043  144.3497  151.9935 H   0  0  0  0  0  0  0  0  0  0  0  0  # atno 10167 bound_to 10162
  156.3499  130.4307  149.7713 H   0  0  0  0  0  0  0  0  0  0  0  0  # atno 10718 bound_to 10713
  154.6361  135.5405  153.7736 H   0  0  0  0  0  0  0  0  0  0  0  0  # atno 10763 bound_to 10752
  153.0309  135.6448  154.1229 H   0  0  0  0  0  0  0  0  0  0  0  0  # atno 10764 bound_to 10752
  154.1156  135.2924  155.3200 H   0  0  0  0  0  0  0  0  0  0  0  0  # atno 10765 bound_to 10752
  140.7710  133.8438  155.9207 H   0  0  0  0  0  0  0  0  0  0  0  0  # atno 11005 bound_to 11000
  144.6798  140.2457  143.7338 LP  0  0  0  0  0  0  0  0  0  0  0  0  # atno 17320 bound_to 7965
  145.8153  139.2020  143.1969 LP  0  0  0  0  0  0  0  0  0  0  0  0  # atno 17321 bound_to 7965
  140.2934  144.3728  150.6081 LP  0  0  0  0  0  0  0  0  0  0  0  0  # atno 17342 bound_to 10162
  140.5929  143.2167  151.7219 LP  0  0  0  0  0  0  0  0  0  0  0  0  # atno 17343 bound_to 10162
  156.4918  130.8088  151.3097 LP  0  0  0  0  0  0  0  0  0  0  0  0  # atno 17370 bound_to 10713
  157.7459  130.9973  150.2811 LP  0  0  0  0  0  0  0  0  0  0  0  0  # atno 17371 bound_to 10713
  140.9573  134.1701  157.4681 LP  0  0  0  0  0  0  0  0  0  0  0  0  # atno 17394 bound_to 11000
  139.8756  134.9932  156.5632 LP  0  0  0  0  0  0  0  0  0  0  0  0  # atno 17395 bound_to 11000

$$$$
