AV-unprocessed.smi:109|AV-procd|sdf|1047|dock8
  -GOLD-   2262018 93D 1   1.00000     0.00000
 Structure written by MMmdl.
 58 61  0  0  0  0  0  0  0  0  1 V2000
  154.7313  141.3657  161.8371 O   0  0  0  0  0  0  0  0  0  0  0  0
  154.8022  140.8547  160.5234 C   0  0  0  0  0  0  0  0  0  0  0  0
  153.5009  140.1088  160.1819 C   0  0  0  0  0  0  0  0  0  0  0  0
  152.4520  140.9739  159.4411 C   0  0  2  0  0  0  0  0  0  0  0  0
  152.4580  140.6326  158.0171 N   0  0  0  0  0  0  0  0  0  0  0  0
  151.4424  139.9534  157.4384 C   0  0  0  0  0  0  0  0  0  0  0  0
  151.2493  138.6283  157.6677 N   0  0  0  0  0  0  0  0  0  0  0  0
  150.2350  137.9872  157.0792 C   0  0  0  0  0  0  0  0  0  0  0  0
  149.3133  138.4720  156.2434 N   0  0  0  0  0  0  0  0  0  0  0  0
  149.5065  139.8021  156.0081 C   0  0  0  0  0  0  0  0  0  0  0  0
  150.5392  140.6077  156.5623 C   0  0  0  0  0  0  0  0  0  0  0  0
  150.4161  141.9121  156.1021 N   0  0  0  0  0  0  0  0  0  0  0  0
  149.3659  141.8751  155.3265 C   0  0  0  0  0  0  0  0  0  0  0  0
  148.7571  140.6429  155.2142 N   0  0  0  0  0  0  0  0  0  0  0  0
  147.5425  140.2549  154.4258 C   0  0  2  0  0  0  0  0  0  0  0  0
  146.5766  139.8261  155.3379 O   0  0  0  0  0  0  0  0  0  0  0  0
  146.2713  138.4473  155.1457 C   0  0  2  0  0  0  0  0  0  0  0  0
  146.0482  137.7695  156.5078 C   0  0  0  0  0  0  0  0  0  0  0  0
  144.9307  138.3282  157.1641 O   0  0  0  0  0  0  0  0  0  0  0  0
  147.4349  137.8824  154.3223 C   0  0  1  0  0  0  0  0  0  0  0  0
  146.9997  136.8212  153.4961 O   0  0  0  0  0  0  0  0  0  0  0  0
  147.8365  139.0783  153.4753 C   0  0  2  0  0  0  0  0  0  0  0  0
  149.1903  138.9792  153.0698 O   0  0  0  0  0  0  0  0  0  0  0  0
  152.6801  142.5046  159.6032 C   0  0  0  0  0  0  0  0  0  0  0  0
  152.3170  143.0293  161.0151 C   0  0  0  0  0  0  0  0  0  0  0  0
  152.5118  144.5490  161.1451 C   0  0  0  0  0  0  0  0  0  0  0  0
  151.7104  145.3111  160.0829 C   0  0  0  0  0  0  0  0  0  0  0  0
  152.0802  144.8238  158.6773 C   0  0  0  0  0  0  0  0  0  0  0  0
  151.8776  143.3065  158.5454 C   0  0  0  0  0  0  0  0  0  0  0  0
  147.2335  141.1687  153.9174 H   0  0  0  0  0  0  0  0  0  0  0  0
  145.3514  138.4208  154.5583 H   0  0  0  0  0  0  0  0  0  0  0  0
  148.2533  137.5642  154.9702 H   0  0  0  0  0  0  0  0  0  0  0  0
  147.1838  139.1791  152.6067 H   0  0  0  0  0  0  0  0  0  0  0  0
  154.8796  140.6563  162.4434 H   0  0  0  0  0  0  0  0  0  0  0  0
  154.9750  141.6848  159.8384 H   0  0  0  0  0  0  0  0  0  0  0  0
  155.6593  140.1849  160.4500 H   0  0  0  0  0  0  0  0  0  0  0  0
  153.7815  139.2570  159.5647 H   0  0  0  0  0  0  0  0  0  0  0  0
  153.0614  139.6981  161.0921 H   0  0  0  0  0  0  0  0  0  0  0  0
  151.4787  140.7599  159.8824 H   0  0  0  0  0  0  0  0  0  0  0  0
  153.1885  141.0708  157.4746 H   0  0  0  0  0  0  0  0  0  0  0  0
  150.1490  136.9364  157.3131 H   0  0  0  0  0  0  0  0  0  0  0  0
  149.0061  142.7550  154.8157 H   0  0  0  0  0  0  0  0  0  0  0  0
  145.9082  136.6943  156.3988 H   0  0  0  0  0  0  0  0  0  0  0  0
  146.9207  137.9172  157.1446 H   0  0  0  0  0  0  0  0  0  0  0  0
  144.6792  137.7548  157.8719 H   0  0  0  0  0  0  0  0  0  0  0  0
  147.7592  136.4234  153.0980 H   0  0  0  0  0  0  0  0  0  0  0  0
  149.3471  138.0990  152.7629 H   0  0  0  0  0  0  0  0  0  0  0  0
  153.7405  142.7051  159.4404 H   0  0  0  0  0  0  0  0  0  0  0  0
  151.2830  142.7725  161.2485 H   0  0  0  0  0  0  0  0  0  0  0  0
  152.9349  142.5566  161.7768 H   0  0  0  0  0  0  0  0  0  0  0  0
  152.2125  144.8772  162.1410 H   0  0  0  0  0  0  0  0  0  0  0  0
  153.5711  144.7902  161.0463 H   0  0  0  0  0  0  0  0  0  0  0  0
  150.6428  145.1675  160.2535 H   0  0  0  0  0  0  0  0  0  0  0  0
  151.8981  146.3818  160.1690 H   0  0  0  0  0  0  0  0  0  0  0  0
  151.4766  145.3448  157.9336 H   0  0  0  0  0  0  0  0  0  0  0  0
  153.1198  145.0747  158.4627 H   0  0  0  0  0  0  0  0  0  0  0  0
  152.1651  143.0132  157.5357 H   0  0  0  0  0  0  0  0  0  0  0  0
  150.8160  143.0738  158.6386 H   0  0  0  0  0  0  0  0  0  0  0  0
  1  2  1  0  0  0  0
  1 34  1  0  0  0  0
  2  3  1  0  0  0  0
  2 35  1  0  0  0  0
  2 36  1  0  0  0  0
  3  4  1  0  0  0  0
  3 37  1  0  0  0  0
  3 38  1  0  0  0  0
  4  5  1  0  0  0  0
  4 24  1  0  0  0  0
  4 39  1  0  0  0  0
  5  6  1  0  0  0  0
  5 40  1  0  0  0  0
  6 11  1  0  0  0  0
  6  7  2  0  0  0  0
  7  8  1  0  0  0  0
  8  9  2  0  0  0  0
  8 41  1  0  0  0  0
  9 10  1  0  0  0  0
 10 14  1  0  0  0  0
 10 11  2  0  0  0  0
 11 12  1  0  0  0  0
 12 13  2  0  0  0  0
 13 14  1  0  0  0  0
 13 42  1  0  0  0  0
 14 15  1  0  0  0  0
 15 30  1  0  0  0  0
 15 22  1  0  0  0  0
 15 16  1  0  0  0  0
 16 17  1  0  0  0  0
 17 31  1  0  0  0  0
 17 18  1  0  0  0  0
 17 20  1  0  0  0  0
 18 19  1  0  0  0  0
 18 43  1  0  0  0  0
 18 44  1  0  0  0  0
 19 45  1  0  0  0  0
 20 32  1  0  0  0  0
 20 21  1  0  0  0  0
 20 22  1  0  0  0  0
 21 46  1  0  0  0  0
 22 33  1  0  0  0  0
 22 23  1  0  0  0  0
 23 47  1  0  0  0  0
 24 29  1  0  0  0  0
 24 25  1  0  0  0  0
 24 48  1  0  0  0  0
 25 26  1  0  0  0  0
 25 49  1  0  0  0  0
 25 50  1  0  0  0  0
 26 27  1  0  0  0  0
 26 51  1  0  0  0  0
 26 52  1  0  0  0  0
 27 28  1  0  0  0  0
 27 53  1  0  0  0  0
 27 54  1  0  0  0  0
 28 29  1  0  0  0  0
 28 55  1  0  0  0  0
 28 56  1  0  0  0  0
 29 57  1  0  0  0  0
 29 58  1  0  0  0  0
M  END
> <s_m_source_file>
AV-unprocessed.smi

> <i_m_source_file_index>
109

> <i_lp_mmshare_version>
43012

> <i_f3d_flags>
0

> <s_epik_input>
W0NIMl0xW0NIMl1bQ0gyXVtDSDJdW0NIMl1bQ0hdMVtDQEhdKFtDSDJdW0NIMl1bT0hdKVtOSF1jKG5bY0hdbjIpYyhjMjMpbltjSF1uM1tDQEBIXTRPW0NASF0oW0NIMl1bT0hdKVtDQEBIXShbT0hdKVtDQEhdNFtPSF0=

> <s_epik_cmdline>
J2VwaWtfcHl0aG9uJywgJy1waCcsICc3LjAnLCAnLXRuJywgJzgnLCAnLW1hJywgJzIwMCcsICctbWV0YWxfYmluZGluZycsICctaW1hZScsICc8aW5maWxlLm1hZT4nLCAnLW9tYWUnLCAnPG91dGZpbGUubWFlPic=

> <r_lp_tautomer_probability>
1

> <r_epik_Ionization_Penalty>
0.000793976

> <r_epik_Ionization_Penalty_Charging>
0

> <r_epik_Ionization_Penalty_Neutral>
0.000793976

> <r_epik_State_Penalty>
-0

> <r_epik_Charging_Adjusted_Penalty>
0

> <i_epik_Tot_Q>
0

> <i_epik_Tot_abs_Q>
0

> <r_epik_Metal_State_Penalty>
-0

> <b_epik_Metal_Only>
0

> <s_epik_Chemistry_Notes>
This compound contains an acetal/aminal-like group ( X-CH(R)-Y where X, Y are N, S, or O) that may be acid/base labile, releasing an aldehyde.

> <s_lp_Force_Field>
OPLS_2005

> <r_lp_Energy>
53.0649

> <b_lp_Chiralities_Consistent>
1

> <s_lp_Variant>
AV-unprocessed.smi:109-17

> <Gold.Version>
5.8.1

> <Gold.Id.Protein>
6NUR|6NUR_protein|mol2

> <Gold.PLP.Fitness>
47.7902

> <Gold.PLP.PLP>
-42.6710

> <Gold.PLP.part.hbond>
-3.3026

> <Gold.PLP.part.metal>
0.0000

> <Gold.PLP.part.buried>
-4.3112

> <Gold.PLP.part.nonpolar>
-34.8280

> <Gold.PLP.part.repulsive>
0.2324

> <Gold.PLP.ligand.clash>
0.0000

> <Gold.PLP.ligand.torsion>
1.8627

> <Gold.PLP.Chemscore.Hbond>
2.0000

> <Gold.PLP.Chemscore.CHOScore>
0.8952

> <Gold.PLP.Chemscore.Metal>
0.0000

> <Gold.Chemscore.Hbonds>
donor molecule, donor type, donor heavy atom, donor atom, acceptor molecule, acceptor atom, score
      L1  H    21    46       P1  7948  1.00
      L1  H    23    47       P1  7948  0.89
      L1  C    13    42       P1  8028  0.93

> <Gold.PLP.Chemscore.Internal.Correction>
0.1591

> <Gold.Rescore>
     Score         DG    S(hbond)    S(metal)    S(lipo)     H(rot)  DE(clash)    DE(int)     intcor
      7.23     -10.94       1.99        0.00     109.35       5.47       0.33       3.38       ----

> <Gold.Chemscore.Fitness>
7.2287

> <Gold.Chemscore.DG>
-10.9401

> <Gold.Chemscore.ZeroCoef>
-5.4800

> <Gold.Chemscore.Hbond>
1.9939

> <Gold.Chemscore.Metal>
0.0000

> <Gold.Chemscore.Lipo>
109.3512

> <Gold.Chemscore.Internal_Hbond>
0.0000

> <Gold.Chemscore.DEClash>
0.3328

> <Gold.Chemscore.DEInternal>
3.3786

> <Gold.Chemscore.Rot>
5.4662

> <Gold.Chemscore.Internal.Correction>
   9.000000E+99

> <Gold.Chemscore.Hbonds>
donor molecule, donor type, donor heavy atom, donor atom, acceptor molecule, acceptor atom, score
      L1  H    21    46       P1  7948  0.98
      L1  H    23    47       P1  7948  0.79

> <Gold.Chemscore.Hbond.Weighted>
-6.6596

> <Gold.Chemscore.Metal.Weighted>
-0.0000

> <Gold.Chemscore.Lipo.Weighted>
-12.7941

> <Gold.Chemscore.Internal_Hbond.Weighted>
0.0000

> <Gold.Chemscore.DEClash.Weighted>
0.3328

> <Gold.Chemscore.DEInternal.Weighted>
3.3786

> <Gold.Chemscore.Rot.Weighted>
13.9935

> <Gold.Chemscore.Internal.Correction.Weighted>
   9.000000E+99

> <Gold.Protein.RotatedTorsions>
[ 6907 6896 6895 6894 ] final   98.95 input  -60.11 | X-H torsion
[ 7974 7965 7964 7962 ] final  -12.94 input  175.53 | X-H torsion
[ 8008 7997 7996 7995 ] final -102.56 input   59.86 | X-H torsion
[ 10167 10162 10161 10158 ] final -146.87 input  -65.29 | X-H torsion
[ 10718 10713 10712 10709 ] final  -74.29 input   66.30 | X-H torsion
[ 10763 10752 10751 10750 ] final  -94.74 input  -60.55 | X-H torsion
[ 11005 11000 10999 10996 ] final  -49.56 input  -57.11 | X-H torsion

> <Gold.Protein.ActiveResidues>
 VAL166  LYS551  ARG553  GLY616  TRP617  ASP618  TYR619  PRO620  LYS621  CYS622 
 ASP623  PHE694  ASN695  SER759  ASP760  ASP761  ALA762  ILE779  LEU786  VAL792 
 PHE793  MET794  SER795  GLU796  ALA797  LYS798  CYS799  TRP800  GLU811  SER814 

> <Gold.Protein.RotatedAtoms>
  152.5400  134.0502  159.8106 H   0  0  0  0  0  0  0  0  0  0  0  0  # atno 6907 bound_to 6896
  151.0645  133.5509  159.2639 H   0  0  0  0  0  0  0  0  0  0  0  0  # atno 6908 bound_to 6896
  151.2395  135.0592  159.9073 H   0  0  0  0  0  0  0  0  0  0  0  0  # atno 6909 bound_to 6896
  146.2133  140.3131  142.8384 H   0  0  0  0  0  0  0  0  0  0  0  0  # atno 7974 bound_to 7965
  154.8583  140.0428  157.1649 H   0  0  0  0  0  0  0  0  0  0  0  0  # atno 8008 bound_to 7997
  154.8867  140.2980  155.5373 H   0  0  0  0  0  0  0  0  0  0  0  0  # atno 8009 bound_to 7997
  156.2998  140.2401  156.3877 H   0  0  0  0  0  0  0  0  0  0  0  0  # atno 8010 bound_to 7997
  139.7674  143.8288  152.2618 H   0  0  0  0  0  0  0  0  0  0  0  0  # atno 10167 bound_to 10162
  156.0248  130.4413  150.2870 H   0  0  0  0  0  0  0  0  0  0  0  0  # atno 10718 bound_to 10713
  154.7083  135.5146  153.8628 H   0  0  0  0  0  0  0  0  0  0  0  0  # atno 10763 bound_to 10752
  153.0759  135.6616  154.0155 H   0  0  0  0  0  0  0  0  0  0  0  0  # atno 10764 bound_to 10752
  154.0002  135.3011  155.3383 H   0  0  0  0  0  0  0  0  0  0  0  0  # atno 10765 bound_to 10752
  141.0766  133.6664  156.3603 H   0  0  0  0  0  0  0  0  0  0  0  0  # atno 11005 bound_to 11000
  144.8974  140.7600  143.5888 LP  0  0  0  0  0  0  0  0  0  0  0  0  # atno 17320 bound_to 7965
  145.3055  139.1836  143.4666 LP  0  0  0  0  0  0  0  0  0  0  0  0  # atno 17321 bound_to 7965
  139.8312  144.7253  150.9448 LP  0  0  0  0  0  0  0  0  0  0  0  0  # atno 17342 bound_to 10162
  140.7812  143.4068  151.1057 LP  0  0  0  0  0  0  0  0  0  0  0  0  # atno 17343 bound_to 10162
  157.0974  131.0186  151.3098 LP  0  0  0  0  0  0  0  0  0  0  0  0  # atno 17370 bound_to 10713
  157.4807  130.7763  149.7411 LP  0  0  0  0  0  0  0  0  0  0  0  0  # atno 17371 bound_to 10713
  140.5560  134.5981  157.5421 LP  0  0  0  0  0  0  0  0  0  0  0  0  # atno 17394 bound_to 11000
  139.9578  134.7504  156.0302 LP  0  0  0  0  0  0  0  0  0  0  0  0  # atno 17395 bound_to 11000

$$$$
