AV-unprocessed.smi:51|AV-procd|sdf|506|dock4
  -GOLD-   2262016373D 1   1.00000     0.00000
 Structure written by MMmdl.
 26 27  0  0  0  0  0  0  0  0  3 V2000
  152.7804  139.3563  155.8501 O   0  0  0  0  0  0  0  0  0  0  0  0
  151.6524  139.8630  156.0312 C   0  0  0  0  0  0  0  0  0  0  0  0
  150.9672  140.4384  155.1569 O   0  5  0  0  0  0  0  0  0  0  0  0
  151.0610  139.7403  157.4442 C   0  0  1  0  0  0  0  0  0  0  0  0
  150.9496  138.2771  157.9100 C   0  0  0  0  0  0  0  0  0  0  0  0
  152.2143  138.0584  158.7447 C   0  0  2  0  0  0  0  0  0  0  0  0
  152.0642  137.0265  159.6968 O   0  0  0  0  0  0  0  0  0  0  0  0
  152.4457  139.4235  159.3960 C   0  0  0  0  0  0  0  0  0  0  0  0
  151.9214  140.3836  158.4344 N   0  0  0  0  0  0  0  0  0  0  0  0
  151.9462  141.7741  158.6645 C   0  0  0  0  0  0  0  0  0  0  0  0
  152.5484  142.3384  159.8097 C   0  0  0  0  0  0  0  0  0  0  0  0
  152.5039  143.7380  159.9402 C   0  0  0  0  0  0  0  0  0  0  0  0
  151.9069  144.4965  158.9901 N   0  3  0  0  0  0  0  0  0  0  0  0
  151.3566  143.9018  157.9222 C   0  0  0  0  0  0  0  0  0  0  0  0
  151.3656  142.5761  157.7423 N   0  0  0  0  0  0  0  0  0  0  0  0
  150.0691  140.1941  157.4549 H   0  0  0  0  0  0  0  0  0  0  0  0
  150.0632  138.1703  158.5372 H   0  0  0  0  0  0  0  0  0  0  0  0
  150.8582  137.5601  157.0923 H   0  0  0  0  0  0  0  0  0  0  0  0
  153.0504  137.8194  158.0856 H   0  0  0  0  0  0  0  0  0  0  0  0
  152.7110  137.1478  160.3749 H   0  0  0  0  0  0  0  0  0  0  0  0
  151.8874  139.5169  160.3290 H   0  0  0  0  0  0  0  0  0  0  0  0
  153.5030  139.5888  159.6071 H   0  0  0  0  0  0  0  0  0  0  0  0
  153.0226  141.7379  160.5714 H   0  0  0  0  0  0  0  0  0  0  0  0
  152.9271  144.2759  160.7758 H   0  0  0  0  0  0  0  0  0  0  0  0
  150.8927  144.5471  157.1910 H   0  0  0  0  0  0  0  0  0  0  0  0
  151.8800  145.5108  159.0955 H   0  0  0  0  0  0  0  0  0  0  0  0
  1  2  2  0  0  0  0
  2  3  1  0  0  0  0
  2  4  1  0  0  0  0
  4  9  1  0  0  0  0
  4  5  1  0  0  0  0
  4 16  1  0  0  0  0
  5  6  1  0  0  0  0
  5 17  1  0  0  0  0
  5 18  1  0  0  0  0
  6  7  1  0  0  0  0
  6  8  1  0  0  0  0
  6 19  1  0  0  0  0
  7 20  1  0  0  0  0
  8  9  1  0  0  0  0
  8 21  1  0  0  0  0
  8 22  1  0  0  0  0
  9 10  1  0  0  0  0
 10 15  1  0  0  0  0
 10 11  2  0  0  0  0
 11 12  1  0  0  0  0
 11 23  1  0  0  0  0
 12 13  2  0  0  0  0
 12 24  1  0  0  0  0
 13 14  1  0  0  0  0
 13 26  1  0  0  0  0
 14 15  2  0  0  0  0
 14 25  1  0  0  0  0
M  CHG  1   3  -1
M  CHG  1  13   1
M  END
> <s_m_source_file>
AV-unprocessed.smi

> <i_m_source_file_index>
51

> <i_lp_mmshare_version>
43012

> <i_f3d_flags>
0

> <s_epik_input>
Tz1DKFtPSF0pW0NAQEhdMVtDSDJdW0NAQEhdKFtPSF0pW0NIMl1OMWMyW2NIXVtjSF1uW2NIXW4y

> <s_epik_cmdline>
J2VwaWtfcHl0aG9uJywgJy1waCcsICc3LjAnLCAnLXRuJywgJzgnLCAnLW1hJywgJzIwMCcsICctbWV0YWxfYmluZGluZycsICctaW1hZScsICc8aW5maWxlLm1hZT4nLCAnLW9tYWUnLCAnPG91dGZpbGUubWFlPic=

> <r_lp_tautomer_probability>
0.999336

> <r_epik_Ionization_Penalty>
0.688427

> <r_epik_Ionization_Penalty_Charging>
0.688427

> <r_epik_Ionization_Penalty_Neutral>
1.98379e-07

> <r_epik_State_Penalty>
0.709817

> <r_epik_Charging_Adjusted_Penalty>
1.39824

> <i_epik_Tot_Q>
0

> <i_epik_Tot_abs_Q>
2

> <r_epik_Metal_State_Penalty>
0.873261

> <b_epik_Metal_Only>
0

> <s_lp_Force_Field>
OPLS_2005

> <r_lp_Energy>
13.9279

> <b_lp_Chiralities_Consistent>
1

> <s_lp_Variant>
AV-unprocessed.smi:51-8

> <Gold.Version>
5.8.1

> <Gold.Id.Protein>
6NUR|6NUR_protein|mol2

> <Gold.PLP.Fitness>
43.8875

> <Gold.PLP.PLP>
-28.9167

> <Gold.PLP.part.hbond>
-3.0000

> <Gold.PLP.part.metal>
0.0000

> <Gold.PLP.part.buried>
-5.6659

> <Gold.PLP.part.nonpolar>
-20.9569

> <Gold.PLP.part.repulsive>
0.1645

> <Gold.PLP.ligand.clash>
0.0000

> <Gold.PLP.ligand.torsion>
0.0567

> <Gold.PLP.Chemscore.Hbond>
4.0000

> <Gold.PLP.Chemscore.CHOScore>
1.0000

> <Gold.PLP.Chemscore.Metal>
0.0000

> <Gold.Chemscore.Hbonds>
donor molecule, donor type, donor heavy atom, donor atom, acceptor molecule, acceptor atom, score
      P1  H  6896  6909       L1     7  0.90
      P1  H  7989  7998       L1     3  1.00
      P1  H  7997  8008       L1     1  2.00
      L1  C    14    25       P1  8028  1.00

> <Gold.PLP.Chemscore.Internal.Correction>
0.0842

> <Gold.Rescore>
     Score         DG    S(hbond)    S(metal)    S(lipo)     H(rot)  DE(clash)    DE(int)     intcor
     15.63     -15.68       2.87        0.00      42.58       1.70       0.00       0.05       ----

> <Gold.Chemscore.Fitness>
15.6298

> <Gold.Chemscore.DG>
-15.6818

> <Gold.Chemscore.ZeroCoef>
-5.4800

> <Gold.Chemscore.Hbond>
2.8674

> <Gold.Chemscore.Metal>
0.0000

> <Gold.Chemscore.Lipo>
42.5784

> <Gold.Chemscore.Internal_Hbond>
0.0000

> <Gold.Chemscore.DEClash>
0.0000

> <Gold.Chemscore.DEInternal>
0.0520

> <Gold.Chemscore.Rot>
1.7020

> <Gold.Chemscore.Internal.Correction>
   9.000000E+99

> <Gold.Chemscore.Hbonds>
donor molecule, donor type, donor heavy atom, donor atom, acceptor molecule, acceptor atom, score
      P1  H  6896  6909       L1     7  0.18
      P1  H  7989  7998       L1     3  0.95
      P1  H  7997  8008       L1     1  1.00

> <Gold.Chemscore.Hbond.Weighted>
-9.5773

> <Gold.Chemscore.Metal.Weighted>
-0.0000

> <Gold.Chemscore.Lipo.Weighted>
-4.9817

> <Gold.Chemscore.Internal_Hbond.Weighted>
0.0000

> <Gold.Chemscore.DEClash.Weighted>
0.0000

> <Gold.Chemscore.DEInternal.Weighted>
0.0520

> <Gold.Chemscore.Rot.Weighted>
4.3571

> <Gold.Chemscore.Internal.Correction.Weighted>
   9.000000E+99

> <Gold.Protein.RotatedTorsions>
[ 6907 6896 6895 6894 ] final  125.49 input  -60.11 | X-H torsion
[ 7974 7965 7964 7962 ] final  161.94 input  175.53 | X-H torsion
[ 8008 7997 7996 7995 ] final  -35.52 input   59.86 | X-H torsion
[ 10167 10162 10161 10158 ] final  -87.29 input  -65.29 | X-H torsion
[ 10718 10713 10712 10709 ] final  102.10 input   66.30 | X-H torsion
[ 10763 10752 10751 10750 ] final  -53.90 input  -60.55 | X-H torsion
[ 11005 11000 10999 10996 ] final  151.77 input  -57.11 | X-H torsion

> <Gold.Protein.ActiveResidues>
 VAL166  LYS551  ARG553  GLY616  TRP617  ASP618  TYR619  PRO620  LYS621  CYS622 
 ASP623  PHE694  ASN695  SER759  ASP760  ASP761  ALA762  ILE779  LEU786  VAL792 
 PHE793  MET794  SER795  GLU796  ALA797  LYS798  CYS799  TRP800  GLU811  SER814 

> <Gold.Protein.RotatedAtoms>
  152.3987  133.6785  159.6297 H   0  0  0  0  0  0  0  0  0  0  0  0  # atno 6907 bound_to 6896
  150.7882  133.8829  159.3300 H   0  0  0  0  0  0  0  0  0  0  0  0  # atno 6908 bound_to 6896
  151.6600  135.0992  160.0229 H   0  0  0  0  0  0  0  0  0  0  0  0  # atno 6909 bound_to 6896
  144.7661  139.7970  143.6315 H   0  0  0  0  0  0  0  0  0  0  0  0  # atno 7974 bound_to 7965
  154.4094  140.1655  156.2224 H   0  0  0  0  0  0  0  0  0  0  0  0  # atno 8008 bound_to 7997
  155.9352  140.3412  155.6258 H   0  0  0  0  0  0  0  0  0  0  0  0  # atno 8009 bound_to 7997
  155.7057  140.0750  157.2382 H   0  0  0  0  0  0  0  0  0  0  0  0  # atno 8010 bound_to 7997
  140.3859  143.2727  151.9326 H   0  0  0  0  0  0  0  0  0  0  0  0  # atno 10167 bound_to 10162
  157.6811  131.0744  150.5353 H   0  0  0  0  0  0  0  0  0  0  0  0  # atno 10718 bound_to 10713
  154.1662  135.6466  153.4998 H   0  0  0  0  0  0  0  0  0  0  0  0  # atno 10763 bound_to 10752
  153.0097  135.5372  154.6659 H   0  0  0  0  0  0  0  0  0  0  0  0  # atno 10764 bound_to 10752
  154.5986  135.2941  155.0531 H   0  0  0  0  0  0  0  0  0  0  0  0  # atno 10765 bound_to 10752
  140.1248  134.8840  157.2122 H   0  0  0  0  0  0  0  0  0  0  0  0  # atno 11005 bound_to 11000
  146.1769  139.4943  142.9892 LP  0  0  0  0  0  0  0  0  0  0  0  0  # atno 17320 bound_to 7965
  145.6467  141.0272  143.1782 LP  0  0  0  0  0  0  0  0  0  0  0  0  # atno 17321 bound_to 7965
  139.4792  144.5774  151.7988 LP  0  0  0  0  0  0  0  0  0  0  0  0  # atno 17342 bound_to 10162
  140.4890  144.1338  150.5946 LP  0  0  0  0  0  0  0  0  0  0  0  0  # atno 17343 bound_to 10162
  156.5662  130.4268  149.6040 LP  0  0  0  0  0  0  0  0  0  0  0  0  # atno 17370 bound_to 10713
  156.2779  130.7054  151.1870 LP  0  0  0  0  0  0  0  0  0  0  0  0  # atno 17371 bound_to 10713
  140.2918  134.3232  155.7313 LP  0  0  0  0  0  0  0  0  0  0  0  0  # atno 17394 bound_to 11000
  141.2159  133.7539  156.9514 LP  0  0  0  0  0  0  0  0  0  0  0  0  # atno 17395 bound_to 11000

$$$$
