AV-unprocessed.smi:1021|AV-procd|sdf|4454|dock4
  -GOLD-   22720 2423D 1   1.00000     0.00000
 Structure written by MMmdl.
 42 44  0  0  0  0  0  0  0  0  1 V2000
  152.1630  137.4497  153.8209 O   0  0  0  0  0  0  0  0  0  0  0  0
  151.3057  137.6560  154.9241 C   0  0  0  0  0  0  0  0  0  0  0  0
  151.5845  139.0175  155.5756 C   0  0  0  0  0  0  0  0  0  0  0  0
  151.1784  139.0823  157.0561 C   0  0  0  0  0  0  0  0  0  0  0  0
  151.4594  140.4218  157.6739 C   0  0  0  0  0  0  0  0  0  0  0  0
  151.9748  140.5019  158.9016 N   0  0  0  0  0  0  0  0  0  0  0  0
  152.0692  141.8620  159.1095 C   0  0  0  0  0  0  0  0  0  0  0  0
  152.5365  142.5885  160.2281 C   0  0  0  0  0  0  0  0  0  0  0  0
  152.5284  143.9984  160.2175 C   0  0  0  0  0  0  0  0  0  0  0  0
  152.0518  144.6998  159.0916 C   0  0  0  0  0  0  0  0  0  0  0  0
  151.5843  143.9943  157.9662 C   0  0  0  0  0  0  0  0  0  0  0  0
  151.5994  142.5859  157.9786 C   0  0  0  0  0  0  0  0  0  0  0  0
  151.2262  141.6121  157.0543 N   0  0  0  0  0  0  0  0  0  0  0  0
  150.6761  141.8857  155.7286 C   0  0  0  0  0  0  0  0  0  0  0  0
  149.1441  142.0690  155.7357 C   0  0  2  0  0  0  0  0  0  0  0  0
  148.6853  141.8811  157.0592 O   0  0  0  0  0  0  0  0  0  0  0  0
  148.4351  141.1555  154.7466 C   0  0  0  0  0  0  0  0  0  0  0  0
  148.7019  139.7694  154.7549 C   0  0  0  0  0  0  0  0  0  0  0  0
  148.0527  138.9158  153.8418 C   0  0  0  0  0  0  0  0  0  0  0  0
  147.1328  139.4432  152.9150 C   0  0  0  0  0  0  0  0  0  0  0  0
  146.5072  138.6220  152.0389 F   0  0  0  0  0  0  0  0  0  0  0  0
  146.8609  140.8247  152.9031 C   0  0  0  0  0  0  0  0  0  0  0  0
  147.5082  141.6786  153.8175 C   0  0  0  0  0  0  0  0  0  0  0  0
  152.1927  138.2447  153.3107 H   0  0  0  0  0  0  0  0  0  0  0  0
  150.2673  137.5851  154.5996 H   0  0  0  0  0  0  0  0  0  0  0  0
  151.4749  136.8555  155.6449 H   0  0  0  0  0  0  0  0  0  0  0  0
  152.6495  139.2372  155.4919 H   0  0  0  0  0  0  0  0  0  0  0  0
  151.0749  139.7978  155.0152 H   0  0  0  0  0  0  0  0  0  0  0  0
  150.1355  138.8042  157.1822 H   0  0  0  0  0  0  0  0  0  0  0  0
  151.7400  138.3307  157.6122 H   0  0  0  0  0  0  0  0  0  0  0  0
  152.8987  142.0591  161.0970 H   0  0  0  0  0  0  0  0  0  0  0  0
  152.8863  144.5439  161.0784 H   0  0  0  0  0  0  0  0  0  0  0  0
  152.0451  145.7799  159.0925 H   0  0  0  0  0  0  0  0  0  0  0  0
  151.2169  144.5317  157.1048 H   0  0  0  0  0  0  0  0  0  0  0  0
  151.1557  142.7467  155.2698 H   0  0  0  0  0  0  0  0  0  0  0  0
  150.9360  141.0343  155.0980 H   0  0  0  0  0  0  0  0  0  0  0  0
  148.8998  143.1005  155.4816 H   0  0  0  0  0  0  0  0  0  0  0  0
  149.2602  142.3510  157.6441 H   0  0  0  0  0  0  0  0  0  0  0  0
  149.4031  139.3554  155.4648 H   0  0  0  0  0  0  0  0  0  0  0  0
  148.2597  137.8560  153.8539 H   0  0  0  0  0  0  0  0  0  0  0  0
  146.1516  141.2297  152.1966 H   0  0  0  0  0  0  0  0  0  0  0  0
  147.2867  142.7357  153.8051 H   0  0  0  0  0  0  0  0  0  0  0  0
  1  2  1  0  0  0  0
  1 24  1  0  0  0  0
  2  3  1  0  0  0  0
  2 25  1  0  0  0  0
  2 26  1  0  0  0  0
  3  4  1  0  0  0  0
  3 27  1  0  0  0  0
  3 28  1  0  0  0  0
  4  5  1  0  0  0  0
  4 29  1  0  0  0  0
  4 30  1  0  0  0  0
  5 13  1  0  0  0  0
  5  6  2  0  0  0  0
  6  7  1  0  0  0  0
  7 12  2  0  0  0  0
  7  8  1  0  0  0  0
  8  9  2  0  0  0  0
  8 31  1  0  0  0  0
  9 10  1  0  0  0  0
  9 32  1  0  0  0  0
 10 11  2  0  0  0  0
 10 33  1  0  0  0  0
 11 12  1  0  0  0  0
 11 34  1  0  0  0  0
 12 13  1  0  0  0  0
 13 14  1  0  0  0  0
 14 15  1  0  0  0  0
 14 35  1  0  0  0  0
 14 36  1  0  0  0  0
 15 16  1  0  0  0  0
 15 17  1  0  0  0  0
 15 37  1  0  0  0  0
 16 38  1  0  0  0  0
 17 23  1  0  0  0  0
 17 18  2  0  0  0  0
 18 19  1  0  0  0  0
 18 39  1  0  0  0  0
 19 20  2  0  0  0  0
 19 40  1  0  0  0  0
 20 21  1  0  0  0  0
 20 22  1  0  0  0  0
 22 23  2  0  0  0  0
 22 41  1  0  0  0  0
 23 42  1  0  0  0  0
M  END
> <s_m_source_file>
AV-unprocessed.smi

> <i_m_source_file_index>
1021

> <i_lp_mmshare_version>
43012

> <i_f3d_flags>
0

> <s_epik_input>
W09IXVtDSDJdW0NIMl1bQ0gyXWMobjEpbihjKGMxMilbY0hdW2NIXVtjSF1bY0hdMilbQ0gyXVtDQEhdKFtPSF0pYzNbY0hdW2NIXWMoRilbY0hdW2NIXTM=

> <s_epik_cmdline>
J2VwaWtfcHl0aG9uJywgJy1waCcsICc3LjAnLCAnLXRuJywgJzgnLCAnLW1hJywgJzIwMCcsICctbWV0YWxfYmluZGluZycsICctaW1hZScsICc8aW5maWxlLm1hZT4nLCAnLW9tYWUnLCAnPG91dGZpbGUubWFlPic=

> <r_epik_Ionization_Penalty>
0.182562

> <r_epik_Ionization_Penalty_Charging>
0

> <r_epik_Ionization_Penalty_Neutral>
0.182562

> <r_epik_State_Penalty>
0.172086

> <r_epik_Charging_Adjusted_Penalty>
0.172086

> <i_epik_Tot_Q>
0

> <i_epik_Tot_abs_Q>
0

> <r_epik_Metal_State_Penalty>
0.000199649

> <b_epik_Metal_Only>
0

> <s_lp_Force_Field>
OPLS_2005

> <r_lp_Energy>
12.4475

> <b_lp_Chiralities_Consistent>
1

> <s_lp_Variant>
AV-unprocessed.smi:1021-1

> <Gold.Version>
5.8.1

> <Gold.Id.Protein>
6NUR|6NUR_protein|mol2

> <Gold.PLP.Fitness>
49.0578

> <Gold.PLP.PLP>
-49.5048

> <Gold.PLP.part.hbond>
-2.5932

> <Gold.PLP.part.metal>
0.0000

> <Gold.PLP.part.buried>
-0.1202

> <Gold.PLP.part.nonpolar>
-46.0287

> <Gold.PLP.part.repulsive>
0.0000

> <Gold.PLP.ligand.clash>
0.0000

> <Gold.PLP.ligand.torsion>
1.6766

> <Gold.PLP.Chemscore.Hbond>
0.9280

> <Gold.PLP.Chemscore.CHOScore>
0.0000

> <Gold.PLP.Chemscore.Metal>
0.0000

> <Gold.Chemscore.Hbonds>
donor molecule, donor type, donor heavy atom, donor atom, acceptor molecule, acceptor atom, score
      P1  H 10752 10764       L1     1  0.93

> <Gold.PLP.Chemscore.Internal.Correction>
0.1221

> <Gold.Rescore>
     Score         DG    S(hbond)    S(metal)    S(lipo)     H(rot)  DE(clash)    DE(int)     intcor
     13.85     -16.92       0.91        0.00     138.89       3.07       1.60       1.47       ----

> <Gold.Chemscore.Fitness>
13.8480

> <Gold.Chemscore.DG>
-16.9163

> <Gold.Chemscore.ZeroCoef>
-5.4800

> <Gold.Chemscore.Hbond>
0.9149

> <Gold.Chemscore.Metal>
0.0000

> <Gold.Chemscore.Lipo>
138.8930

> <Gold.Chemscore.Internal_Hbond>
0.0000

> <Gold.Chemscore.DEClash>
1.6019

> <Gold.Chemscore.DEInternal>
1.4664

> <Gold.Chemscore.Rot>
3.0741

> <Gold.Chemscore.Internal.Correction>
   9.000000E+99

> <Gold.Chemscore.Hbonds>
donor molecule, donor type, donor heavy atom, donor atom, acceptor molecule, acceptor atom, score
      P1  H 10752 10764       L1     1  0.62

> <Gold.Chemscore.Hbond.Weighted>
-3.0557

> <Gold.Chemscore.Metal.Weighted>
-0.0000

> <Gold.Chemscore.Lipo.Weighted>
-16.2505

> <Gold.Chemscore.Internal_Hbond.Weighted>
0.0000

> <Gold.Chemscore.DEClash.Weighted>
1.6019

> <Gold.Chemscore.DEInternal.Weighted>
1.4664

> <Gold.Chemscore.Rot.Weighted>
7.8698

> <Gold.Chemscore.Internal.Correction.Weighted>
   9.000000E+99

> <Gold.Protein.RotatedTorsions>
[ 6907 6896 6895 6894 ] final  -14.79 input  -60.11 | X-H torsion
[ 7974 7965 7964 7962 ] final -132.94 input  175.53 | X-H torsion
[ 8008 7997 7996 7995 ] final  -89.97 input   59.86 | X-H torsion
[ 10167 10162 10161 10158 ] final -126.18 input  -65.29 | X-H torsion
[ 10718 10713 10712 10709 ] final  109.90 input   66.30 | X-H torsion
[ 10763 10752 10751 10750 ] final  -93.90 input  -60.55 | X-H torsion
[ 11005 11000 10999 10996 ] final  -29.37 input  -57.11 | X-H torsion

> <Gold.Protein.ActiveResidues>
 VAL166  LYS551  ARG553  GLY616  TRP617  ASP618  TYR619  PRO620  LYS621  CYS622 
 ASP623  PHE694  ASN695  SER759  ASP760  ASP761  ALA762  ILE779  LEU786  VAL792 
 PHE793  MET794  SER795  GLU796  ALA797  LYS798  CYS799  TRP800  GLU811  SER814 

> <Gold.Protein.RotatedAtoms>
  151.3339  135.0848  159.9347 H   0  0  0  0  0  0  0  0  0  0  0  0  # atno 6907 bound_to 6896
  152.5228  133.9515  159.7684 H   0  0  0  0  0  0  0  0  0  0  0  0  # atno 6908 bound_to 6896
  150.9859  133.6145  159.2745 H   0  0  0  0  0  0  0  0  0  0  0  0  # atno 6909 bound_to 6896
  144.9239  140.7047  143.4948 H   0  0  0  0  0  0  0  0  0  0  0  0  # atno 7974 bound_to 7965
  154.6929  140.0535  157.0382 H   0  0  0  0  0  0  0  0  0  0  0  0  # atno 8008 bound_to 7997
  155.0791  140.3207  155.4588 H   0  0  0  0  0  0  0  0  0  0  0  0  # atno 8009 bound_to 7997
  156.2734  140.2068  156.5919 H   0  0  0  0  0  0  0  0  0  0  0  0  # atno 8010 bound_to 7997
  139.9742  143.5812  152.2402 H   0  0  0  0  0  0  0  0  0  0  0  0  # atno 10167 bound_to 10162
  157.6520  131.0922  150.6522 H   0  0  0  0  0  0  0  0  0  0  0  0  # atno 10718 bound_to 10713
  154.7003  135.5177  153.8517 H   0  0  0  0  0  0  0  0  0  0  0  0  # atno 10763 bound_to 10752
  153.0699  135.6597  154.0280 H   0  0  0  0  0  0  0  0  0  0  0  0  # atno 10764 bound_to 10752
  154.0140  135.2999  155.3368 H   0  0  0  0  0  0  0  0  0  0  0  0  # atno 10765 bound_to 10752
  140.9290  133.7350  156.0909 H   0  0  0  0  0  0  0  0  0  0  0  0  # atno 11005 bound_to 11000
  145.3251  139.1776  143.4567 LP  0  0  0  0  0  0  0  0  0  0  0  0  # atno 17320 bound_to 7965
  146.3217  140.3274  142.8638 LP  0  0  0  0  0  0  0  0  0  0  0  0  # atno 17321 bound_to 7965
  139.6458  144.7658  151.2247 LP  0  0  0  0  0  0  0  0  0  0  0  0  # atno 17342 bound_to 10162
  140.7511  143.6242  150.8484 LP  0  0  0  0  0  0  0  0  0  0  0  0  # atno 17343 bound_to 10162
  156.6833  130.4573  149.5621 LP  0  0  0  0  0  0  0  0  0  0  0  0  # atno 17370 bound_to 10713
  156.1914  130.6562  151.1065 LP  0  0  0  0  0  0  0  0  0  0  0  0  # atno 17371 bound_to 10713
  140.7888  134.3641  157.5470 LP  0  0  0  0  0  0  0  0  0  0  0  0  # atno 17394 bound_to 11000
  139.8792  134.9127  156.3067 LP  0  0  0  0  0  0  0  0  0  0  0  0  # atno 17395 bound_to 11000

$$$$
