AV-unprocessed.smi:3234|AV-procd|sdf|12349|dock7
  -GOLD-   2272018213D 1   1.00000     0.00000
 Structure written by MMmdl.
 37 39  0  0  0  0  0  0  0  0  2 V2000
  144.2892  136.2178  151.6877 O   0  0  0  0  0  0  0  0  0  0  0  0
  145.4945  136.0213  151.8374 C   0  0  0  0  0  0  0  0  0  0  0  0
  146.1711  134.9325  151.4310 N   0  0  0  0  0  0  0  0  0  0  0  0
  145.6963  133.7647  150.7713 C   0  0  0  0  0  0  0  0  0  0  0  0
  144.3022  133.6445  150.5941 C   0  0  0  0  0  0  0  0  0  0  0  0
  143.7941  132.5070  149.9359 C   0  0  0  0  0  0  0  0  0  0  0  0
  144.5757  131.5172  149.4567 N   0  0  0  0  0  0  0  0  0  0  0  0
  145.9102  131.6359  149.6193 C   0  0  0  0  0  0  0  0  0  0  0  0
  146.5209  132.7318  150.2618 C   0  0  0  0  0  0  0  0  0  0  0  0
  146.3108  136.9024  152.4333 N   0  0  0  0  0  0  0  0  0  0  0  0
  145.8887  138.1771  153.0054 C   0  0  1  0  0  0  0  0  0  0  0  0
  146.1147  138.2718  154.5143 C   0  0  0  0  0  0  0  0  0  0  0  0
  146.3305  139.7719  154.7799 C   0  0  0  0  0  0  0  0  0  0  0  0
  146.4366  140.4324  153.4576 N   0  3  1  0  0  0  0  0  0  0  0  0
  147.4085  141.5448  153.4069 C   0  0  0  0  0  0  0  0  0  0  0  0
  148.5529  141.3915  154.3799 C   0  0  0  0  0  0  0  0  0  0  0  0
  147.4399  142.3758  154.6672 C   0  0  0  0  0  0  0  0  0  0  0  0
  146.6894  139.3661  152.4736 C   0  0  0  0  0  0  0  0  0  0  0  0
  147.1668  134.9497  151.5957 H   0  0  0  0  0  0  0  0  0  0  0  0
  143.6280  134.4071  150.9558 H   0  0  0  0  0  0  0  0  0  0  0  0
  142.7304  132.3906  149.7895 H   0  0  0  0  0  0  0  0  0  0  0  0
  146.5127  130.8331  149.2209 H   0  0  0  0  0  0  0  0  0  0  0  0
  147.5961  132.7528  150.3373 H   0  0  0  0  0  0  0  0  0  0  0  0
  147.2893  136.6664  152.5133 H   0  0  0  0  0  0  0  0  0  0  0  0
  144.8281  138.3356  152.7989 H   0  0  0  0  0  0  0  0  0  0  0  0
  145.2798  137.8625  155.0840 H   0  0  0  0  0  0  0  0  0  0  0  0
  147.0120  137.7209  154.8010 H   0  0  0  0  0  0  0  0  0  0  0  0
  145.4975  140.2056  155.3335 H   0  0  0  0  0  0  0  0  0  0  0  0
  147.2351  139.9218  155.3714 H   0  0  0  0  0  0  0  0  0  0  0  0
  147.5690  142.0068  152.4343 H   0  0  0  0  0  0  0  0  0  0  0  0
  148.5961  140.4893  154.9874 H   0  0  0  0  0  0  0  0  0  0  0  0
  149.5177  141.8021  154.0889 H   0  0  0  0  0  0  0  0  0  0  0  0
  147.6722  143.4341  154.5658 H   0  0  0  0  0  0  0  0  0  0  0  0
  146.7431  142.1276  155.4660 H   0  0  0  0  0  0  0  0  0  0  0  0
  147.7551  139.1299  152.4481 H   0  0  0  0  0  0  0  0  0  0  0  0
  146.3825  139.6691  151.4719 H   0  0  0  0  0  0  0  0  0  0  0  0
  145.5228  140.8079  153.2470 H   0  0  0  0  0  0  0  0  0  0  0  0
  1  2  2  0  0  0  0
  2  3  1  0  0  0  0
  2 10  1  0  0  0  0
  3  4  1  0  0  0  0
  3 19  1  0  0  0  0
  4  9  1  0  0  0  0
  4  5  2  0  0  0  0
  5  6  1  0  0  0  0
  5 20  1  0  0  0  0
  6  7  2  0  0  0  0
  6 21  1  0  0  0  0
  7  8  1  0  0  0  0
  8  9  2  0  0  0  0
  8 22  1  0  0  0  0
  9 23  1  0  0  0  0
 10 11  1  0  0  0  0
 10 24  1  0  0  0  0
 11 18  1  0  0  0  0
 11 12  1  0  0  0  0
 11 25  1  0  0  0  0
 12 13  1  0  0  0  0
 12 26  1  0  0  0  0
 12 27  1  0  0  0  0
 13 14  1  0  0  0  0
 13 28  1  0  0  0  0
 13 29  1  0  0  0  0
 14 15  1  0  0  0  0
 14 18  1  0  0  0  0
 14 37  1  0  0  0  0
 15 17  1  0  0  0  0
 15 16  1  0  0  0  0
 15 30  1  0  0  0  0
 16 17  1  0  0  0  0
 16 31  1  0  0  0  0
 16 32  1  0  0  0  0
 17 33  1  0  0  0  0
 17 34  1  0  0  0  0
 18 35  1  0  0  0  0
 18 36  1  0  0  0  0
M  CHG  1  14   1
M  END
> <s_m_source_file>
AV-unprocessed.smi

> <i_m_source_file_index>
3234

> <i_lp_mmshare_version>
43012

> <i_f3d_flags>
0

> <s_epik_input>
W2NIXTFbY0hdbltjSF1bY0hdYzFbTkhdQyg9TylbTkhdW0NAQEhdMltDSDJdW0NIMl1OKFtDSDJdMilbQ0hdM1tDSDJdW0NIMl0z

> <s_epik_cmdline>
J2VwaWtfcHl0aG9uJywgJy1waCcsICc3LjAnLCAnLXRuJywgJzgnLCAnLW1hJywgJzIwMCcsICctbWV0YWxfYmluZGluZycsICctaW1hZScsICc8aW5maWxlLm1hZT4nLCAnLW9tYWUnLCAnPG91dGZpbGUubWFlPic=

> <r_epik_Ionization_Penalty>
0.0934328

> <r_epik_Ionization_Penalty_Charging>
0.000606352

> <r_epik_Ionization_Penalty_Neutral>
0.0928265

> <r_epik_State_Penalty>
0.0830811

> <r_epik_Charging_Adjusted_Penalty>
0.0836875

> <i_epik_Tot_Q>
1

> <i_epik_Tot_abs_Q>
1

> <r_epik_Metal_State_Penalty>
0.0724491

> <b_epik_Metal_Only>
0

> <s_lp_Force_Field>
OPLS_2005

> <r_lp_Energy>
41.3186

> <b_lp_Chiralities_Consistent>
1

> <s_lp_Variant>
AV-unprocessed.smi:3234-2

> <Gold.Version>
5.8.1

> <Gold.Id.Protein>
6NUR|6NUR_protein|mol2

> <Gold.PLP.Fitness>
45.3235

> <Gold.PLP.PLP>
-29.5623

> <Gold.PLP.part.hbond>
-3.9205

> <Gold.PLP.part.metal>
0.0000

> <Gold.PLP.part.buried>
0.7226

> <Gold.PLP.part.nonpolar>
-27.8424

> <Gold.PLP.part.repulsive>
0.9340

> <Gold.PLP.ligand.clash>
0.0000

> <Gold.PLP.ligand.torsion>
0.6696

> <Gold.PLP.Chemscore.Hbond>
3.9214

> <Gold.PLP.Chemscore.CHOScore>
1.3577

> <Gold.PLP.Chemscore.Metal>
0.0000

> <Gold.Chemscore.Hbonds>
donor molecule, donor type, donor heavy atom, donor atom, acceptor molecule, acceptor atom, score
      L1  H     3    19       P1  7948  0.62
      L1  H    10    24       P1  7948  1.00
      L1  H    14    37       P1 10175  1.92
      P1  H 10785 10796       L1     7  0.36
      L1  C     6    21       P1 10186  0.59
      L1  C     6    21       P1 10952  0.33
      L1  C     8    22       P1 10747  0.46

> <Gold.PLP.Chemscore.Internal.Correction>
1.2632

> <Gold.Rescore>
     Score         DG    S(hbond)    S(metal)    S(lipo)     H(rot)  DE(clash)    DE(int)     intcor
     16.56     -19.98       2.29        0.00      85.04       1.21       1.34       2.09       ----

> <Gold.Chemscore.Fitness>
16.5595

> <Gold.Chemscore.DG>
-19.9840

> <Gold.Chemscore.ZeroCoef>
-5.4800

> <Gold.Chemscore.Hbond>
2.2917

> <Gold.Chemscore.Metal>
0.0000

> <Gold.Chemscore.Lipo>
85.0366

> <Gold.Chemscore.Internal_Hbond>
0.0000

> <Gold.Chemscore.DEClash>
1.3392

> <Gold.Chemscore.DEInternal>
2.0853

> <Gold.Chemscore.Rot>
1.2108

> <Gold.Chemscore.Internal.Correction>
   9.000000E+99

> <Gold.Chemscore.Hbonds>
donor molecule, donor type, donor heavy atom, donor atom, acceptor molecule, acceptor atom, score
      L1  H     3    19       P1  7948  0.49
      L1  H    10    24       P1  7948  0.98
      L1  H    14    37       P1 10175  0.61
      P1  H 10785 10796       L1     7  0.15

> <Gold.Chemscore.Hbond.Weighted>
-7.6543

> <Gold.Chemscore.Metal.Weighted>
-0.0000

> <Gold.Chemscore.Lipo.Weighted>
-9.9493

> <Gold.Chemscore.Internal_Hbond.Weighted>
0.0000

> <Gold.Chemscore.DEClash.Weighted>
1.3392

> <Gold.Chemscore.DEInternal.Weighted>
2.0853

> <Gold.Chemscore.Rot.Weighted>
3.0996

> <Gold.Chemscore.Internal.Correction.Weighted>
   9.000000E+99

> <Gold.Protein.RotatedTorsions>
[ 6907 6896 6895 6894 ] final    6.25 input  -60.11 | X-H torsion
[ 7974 7965 7964 7962 ] final   -1.27 input  175.53 | X-H torsion
[ 8008 7997 7996 7995 ] final  -41.97 input   59.86 | X-H torsion
[ 10167 10162 10161 10158 ] final  -24.18 input  -65.29 | X-H torsion
[ 10718 10713 10712 10709 ] final   21.00 input   66.30 | X-H torsion
[ 10763 10752 10751 10750 ] final  116.06 input  -60.55 | X-H torsion
[ 11005 11000 10999 10996 ] final -109.07 input  -57.11 | X-H torsion

> <Gold.Protein.ActiveResidues>
 VAL166  LYS551  ARG553  GLY616  TRP617  ASP618  TYR619  PRO620  LYS621  CYS622 
 ASP623  PHE694  ASN695  SER759  ASP760  ASP761  ALA762  ILE779  LEU786  VAL792 
 PHE793  MET794  SER795  GLU796  ALA797  LYS798  CYS799  TRP800  GLU811  SER814 

> <Gold.Protein.RotatedAtoms>
  151.6707  135.0976  160.0197 H   0  0  0  0  0  0  0  0  0  0  0  0  # atno 6907 bound_to 6896
  152.3893  133.6652  159.6233 H   0  0  0  0  0  0  0  0  0  0  0  0  # atno 6908 bound_to 6896
  150.7812  133.8898  159.3351 H   0  0  0  0  0  0  0  0  0  0  0  0  # atno 6909 bound_to 6896
  146.2419  140.1396  142.8336 H   0  0  0  0  0  0  0  0  0  0  0  0  # atno 7974 bound_to 7965
  154.4001  140.1485  156.3279 H   0  0  0  0  0  0  0  0  0  0  0  0  # atno 8008 bound_to 7997
  155.8470  140.3459  155.5647 H   0  0  0  0  0  0  0  0  0  0  0  0  # atno 8009 bound_to 7997
  155.8025  140.0872  157.1940 H   0  0  0  0  0  0  0  0  0  0  0  0  # atno 8010 bound_to 7997
  140.7288  143.4377  151.0705 H   0  0  0  0  0  0  0  0  0  0  0  0  # atno 10167 bound_to 10162
  157.1323  130.6596  149.5955 H   0  0  0  0  0  0  0  0  0  0  0  0  # atno 10718 bound_to 10713
  153.5316  135.3577  155.2678 H   0  0  0  0  0  0  0  0  0  0  0  0  # atno 10763 bound_to 10752
  154.8726  135.4069  154.3145 H   0  0  0  0  0  0  0  0  0  0  0  0  # atno 10764 bound_to 10752
  153.3835  135.7069  153.6615 H   0  0  0  0  0  0  0  0  0  0  0  0  # atno 10765 bound_to 10752
  141.0867  133.9126  157.2169 H   0  0  0  0  0  0  0  0  0  0  0  0  # atno 11005 bound_to 11000
  145.0258  140.8831  143.5139 LP  0  0  0  0  0  0  0  0  0  0  0  0  # atno 17320 bound_to 7965
  145.1451  139.2548  143.5470 LP  0  0  0  0  0  0  0  0  0  0  0  0  # atno 17321 bound_to 7965
  139.8040  143.8043  152.3165 LP  0  0  0  0  0  0  0  0  0  0  0  0  # atno 17342 bound_to 10162
  139.8070  144.7351  150.9748 LP  0  0  0  0  0  0  0  0  0  0  0  0  # atno 17343 bound_to 10162
  155.9805  130.4806  150.6777 LP  0  0  0  0  0  0  0  0  0  0  0  0  # atno 17370 bound_to 10713
  157.4381  131.0858  151.0971 LP  0  0  0  0  0  0  0  0  0  0  0  0  # atno 17371 bound_to 10713
  139.9687  135.0134  156.9454 LP  0  0  0  0  0  0  0  0  0  0  0  0  # atno 17394 bound_to 11000
  140.5346  134.0780  155.7325 LP  0  0  0  0  0  0  0  0  0  0  0  0  # atno 17395 bound_to 11000

$$$$
