AV-unprocessed.smi:2821|AV-procd|sdf|10856|dock2
  -GOLD-   2272015303D 1   1.00000     0.00000
 Structure written by MMmdl.
 36 37  0  0  0  0  0  0  0  0  1 V2000
  146.3864  142.5549  154.1176 C   0  0  0  0  0  0  0  0  0  0  0  0
  146.8112  141.0910  154.2542 C   0  0  0  0  0  0  0  0  0  0  0  0
  147.3274  140.8845  155.5653 O   0  0  0  0  0  0  0  0  0  0  0  0
  148.6957  140.8068  155.7244 C   0  0  0  0  0  0  0  0  0  0  0  0
  149.5193  140.6359  154.5912 C   0  0  0  0  0  0  0  0  0  0  0  0
  150.8641  140.5516  154.6910 N   0  0  0  0  0  0  0  0  0  0  0  0
  151.3860  140.6412  155.9343 C   0  0  0  0  0  0  0  0  0  0  0  0
  150.5750  140.8166  157.0774 C   0  0  0  0  0  0  0  0  0  0  0  0
  151.1771  140.9037  158.3412 N   0  0  0  0  0  0  0  0  0  0  0  0
  152.1900  141.9122  158.6414 C   0  0  2  0  0  0  0  0  0  0  0  0
  152.9941  141.5112  159.8909 C   0  0  0  0  0  0  0  0  0  0  0  0
  151.5284  143.2913  158.8241 C   0  0  2  0  0  0  0  0  0  0  0  0
  152.5133  144.4578  158.9306 C   0  0  0  0  0  0  0  0  0  0  0  0
  151.7494  145.5066  159.7246 C   0  0  0  0  0  0  0  0  0  0  0  0
  150.5631  144.7381  160.3119 C   0  0  0  0  0  0  0  0  0  0  0  0
  150.8570  143.3696  160.0721 O   0  0  0  0  0  0  0  0  0  0  0  0
  149.2269  140.8963  156.9697 N   0  0  0  0  0  0  0  0  0  0  0  0
  145.9902  142.7541  153.1216 H   0  0  0  0  0  0  0  0  0  0  0  0
  147.2308  143.2246  154.2819 H   0  0  0  0  0  0  0  0  0  0  0  0
  145.6118  142.8066  154.8423 H   0  0  0  0  0  0  0  0  0  0  0  0
  145.9518  140.4425  154.0755 H   0  0  0  0  0  0  0  0  0  0  0  0
  147.5708  140.8596  153.5055 H   0  0  0  0  0  0  0  0  0  0  0  0
  149.0964  140.5659  153.5999 H   0  0  0  0  0  0  0  0  0  0  0  0
  152.4613  140.5747  156.0149 H   0  0  0  0  0  0  0  0  0  0  0  0
  151.0554  140.1429  158.9939 H   0  0  0  0  0  0  0  0  0  0  0  0
  152.8769  141.9857  157.7973 H   0  0  0  0  0  0  0  0  0  0  0  0
  153.7727  142.2422  160.1098 H   0  0  0  0  0  0  0  0  0  0  0  0
  153.4863  140.5474  159.7589 H   0  0  0  0  0  0  0  0  0  0  0  0
  152.3517  141.4384  160.7691 H   0  0  0  0  0  0  0  0  0  0  0  0
  150.8085  143.4810  158.0251 H   0  0  0  0  0  0  0  0  0  0  0  0
  153.3987  144.1531  159.4904 H   0  0  0  0  0  0  0  0  0  0  0  0
  152.8423  144.8209  157.9567 H   0  0  0  0  0  0  0  0  0  0  0  0
  152.3784  145.9343  160.5060 H   0  0  0  0  0  0  0  0  0  0  0  0
  151.4036  146.3211  159.0875 H   0  0  0  0  0  0  0  0  0  0  0  0
  150.4230  144.9300  161.3759 H   0  0  0  0  0  0  0  0  0  0  0  0
  149.6402  145.0020  159.7935 H   0  0  0  0  0  0  0  0  0  0  0  0
  1  2  1  0  0  0  0
  1 18  1  0  0  0  0
  1 19  1  0  0  0  0
  1 20  1  0  0  0  0
  2  3  1  0  0  0  0
  2 21  1  0  0  0  0
  2 22  1  0  0  0  0
  3  4  1  0  0  0  0
  4 17  1  0  0  0  0
  4  5  2  0  0  0  0
  5  6  1  0  0  0  0
  5 23  1  0  0  0  0
  6  7  2  0  0  0  0
  7  8  1  0  0  0  0
  7 24  1  0  0  0  0
  8  9  1  0  0  0  0
  8 17  2  0  0  0  0
  9 10  1  0  0  0  0
  9 25  1  0  0  0  0
 10 11  1  0  0  0  0
 10 12  1  0  0  0  0
 10 26  1  0  0  0  0
 11 27  1  0  0  0  0
 11 28  1  0  0  0  0
 11 29  1  0  0  0  0
 12 16  1  0  0  0  0
 12 13  1  0  0  0  0
 12 30  1  0  0  0  0
 13 14  1  0  0  0  0
 13 31  1  0  0  0  0
 13 32  1  0  0  0  0
 14 15  1  0  0  0  0
 14 33  1  0  0  0  0
 14 34  1  0  0  0  0
 15 16  1  0  0  0  0
 15 35  1  0  0  0  0
 15 36  1  0  0  0  0
M  END
> <s_m_source_file>
AV-unprocessed.smi

> <i_m_source_file_index>
2821

> <i_lp_mmshare_version>
43012

> <i_f3d_flags>
0

> <s_epik_input>
W0NIM11bQ0gyXU9jMVtjSF1uW2NIXWMobjEpW05IXVtDQEhdKFtDSDNdKVtDQEBIXTJbQ0gyXVtDSDJdW0NIMl1PMg==

> <s_epik_cmdline>
J2VwaWtfcHl0aG9uJywgJy1waCcsICc3LjAnLCAnLXRuJywgJzgnLCAnLW1hJywgJzIwMCcsICctbWV0YWxfYmluZGluZycsICctaW1hZScsICc8aW5maWxlLm1hZT4nLCAnLW9tYWUnLCAnPG91dGZpbGUubWFlPic=

> <r_lp_tautomer_probability>
1

> <r_epik_Ionization_Penalty>
4.69533e-05

> <r_epik_Ionization_Penalty_Charging>
0

> <r_epik_Ionization_Penalty_Neutral>
4.69533e-05

> <r_epik_State_Penalty>
-0

> <r_epik_Charging_Adjusted_Penalty>
0

> <i_epik_Tot_Q>
0

> <i_epik_Tot_abs_Q>
0

> <r_epik_Metal_State_Penalty>
-0

> <b_epik_Metal_Only>
0

> <s_lp_Force_Field>
OPLS_2005

> <r_lp_Energy>
27.5992

> <b_lp_Chiralities_Consistent>
1

> <s_lp_Variant>
AV-unprocessed.smi:2821-1

> <Gold.Version>
5.8.1

> <Gold.Id.Protein>
6NUR|6NUR_protein|mol2

> <Gold.PLP.Fitness>
40.5755

> <Gold.PLP.PLP>
-37.1262

> <Gold.PLP.part.hbond>
-1.3453

> <Gold.PLP.part.metal>
0.0000

> <Gold.PLP.part.buried>
-4.3553

> <Gold.PLP.part.nonpolar>
-31.2162

> <Gold.PLP.part.repulsive>
0.4140

> <Gold.PLP.ligand.clash>
0.0000

> <Gold.PLP.ligand.torsion>
1.3336

> <Gold.PLP.Chemscore.Hbond>
1.0000

> <Gold.PLP.Chemscore.CHOScore>
1.0000

> <Gold.PLP.Chemscore.Metal>
0.0000

> <Gold.Chemscore.Hbonds>
donor molecule, donor type, donor heavy atom, donor atom, acceptor molecule, acceptor atom, score
      P1  H  7989  7998       L1     6  0.80
      L1  C     5    23       P1  7957  0.96

> <Gold.PLP.Chemscore.Internal.Correction>
0.1165

> <Gold.Rescore>
     Score         DG    S(hbond)    S(metal)    S(lipo)     H(rot)  DE(clash)    DE(int)     intcor
     14.56     -15.52       0.89        0.00      94.25       1.55       0.01       0.96       ----

> <Gold.Chemscore.Fitness>
14.5614

> <Gold.Chemscore.DG>
-15.5248

> <Gold.Chemscore.ZeroCoef>
-5.4800

> <Gold.Chemscore.Hbond>
0.8950

> <Gold.Chemscore.Metal>
0.0000

> <Gold.Chemscore.Lipo>
94.2491

> <Gold.Chemscore.Internal_Hbond>
0.0000

> <Gold.Chemscore.DEClash>
0.0079

> <Gold.Chemscore.DEInternal>
0.9556

> <Gold.Chemscore.Rot>
1.5514

> <Gold.Chemscore.Internal.Correction>
   9.000000E+99

> <Gold.Chemscore.Hbonds>
donor molecule, donor type, donor heavy atom, donor atom, acceptor molecule, acceptor atom, score
      P1  H  7989  7998       L1     6  0.71

> <Gold.Chemscore.Hbond.Weighted>
-2.9892

> <Gold.Chemscore.Metal.Weighted>
-0.0000

> <Gold.Chemscore.Lipo.Weighted>
-11.0271

> <Gold.Chemscore.Internal_Hbond.Weighted>
0.0000

> <Gold.Chemscore.DEClash.Weighted>
0.0079

> <Gold.Chemscore.DEInternal.Weighted>
0.9556

> <Gold.Chemscore.Rot.Weighted>
3.9715

> <Gold.Chemscore.Internal.Correction.Weighted>
   9.000000E+99

> <Gold.Protein.RotatedTorsions>
[ 6907 6896 6895 6894 ] final  122.29 input  -60.11 | X-H torsion
[ 7974 7965 7964 7962 ] final -137.81 input  175.53 | X-H torsion
[ 8008 7997 7996 7995 ] final  -62.02 input   59.86 | X-H torsion
[ 10167 10162 10161 10158 ] final   72.27 input  -65.29 | X-H torsion
[ 10718 10713 10712 10709 ] final   21.37 input   66.30 | X-H torsion
[ 10763 10752 10751 10750 ] final  -41.01 input  -60.55 | X-H torsion
[ 11005 11000 10999 10996 ] final -149.55 input  -57.11 | X-H torsion

> <Gold.Protein.ActiveResidues>
 VAL166  LYS551  ARG553  GLY616  TRP617  ASP618  TYR619  PRO620  LYS621  CYS622 
 ASP623  PHE694  ASN695  SER759  ASP760  ASP761  ALA762  ILE779  LEU786  VAL792 
 PHE793  MET794  SER795  GLU796  ALA797  LYS798  CYS799  TRP800  GLU811  SER814 

> <Gold.Protein.RotatedAtoms>
  152.4255  133.7187  159.6520 H   0  0  0  0  0  0  0  0  0  0  0  0  # atno 6907 bound_to 6896
  150.8131  133.8375  159.3179 H   0  0  0  0  0  0  0  0  0  0  0  0  # atno 6908 bound_to 6896
  151.6079  135.1044  160.0126 H   0  0  0  0  0  0  0  0  0  0  0  0  # atno 6909 bound_to 6896
  144.8810  140.6508  143.5206 H   0  0  0  0  0  0  0  0  0  0  0  0  # atno 7974 bound_to 7965
  154.4478  140.1005  156.6522 H   0  0  0  0  0  0  0  0  0  0  0  0  # atno 8008 bound_to 7997
  155.5385  140.3483  155.4423 H   0  0  0  0  0  0  0  0  0  0  0  0  # atno 8009 bound_to 7997
  156.0614  140.1327  156.9926 H   0  0  0  0  0  0  0  0  0  0  0  0  # atno 8010 bound_to 7997
  140.0371  144.5419  150.7462 H   0  0  0  0  0  0  0  0  0  0  0  0  # atno 10167 bound_to 10162
  157.1375  130.6618  149.5970 H   0  0  0  0  0  0  0  0  0  0  0  0  # atno 10718 bound_to 10713
  153.9554  135.6746  153.4744 H   0  0  0  0  0  0  0  0  0  0  0  0  # atno 10763 bound_to 10752
  153.0864  135.4897  154.8602 H   0  0  0  0  0  0  0  0  0  0  0  0  # atno 10764 bound_to 10752
  154.7302  135.3136  154.8863 H   0  0  0  0  0  0  0  0  0  0  0  0  # atno 10765 bound_to 10752
  140.7496  134.3422  157.5129 H   0  0  0  0  0  0  0  0  0  0  0  0  # atno 11005 bound_to 11000
  145.3954  139.1608  143.4206 LP  0  0  0  0  0  0  0  0  0  0  0  0  # atno 17320 bound_to 7965
  146.2994  140.4046  142.8709 LP  0  0  0  0  0  0  0  0  0  0  0  0  # atno 17321 bound_to 7965
  140.7277  143.2654  151.4064 LP  0  0  0  0  0  0  0  0  0  0  0  0  # atno 17342 bound_to 10162
  139.6038  144.1240  152.2227 LP  0  0  0  0  0  0  0  0  0  0  0  0  # atno 17343 bound_to 10162
  155.9795  130.4789  150.6720 LP  0  0  0  0  0  0  0  0  0  0  0  0  # atno 17370 bound_to 10713
  157.4337  131.0852  151.1013 LP  0  0  0  0  0  0  0  0  0  0  0  0  # atno 17371 bound_to 10713
  139.8790  134.9133  156.3081 LP  0  0  0  0  0  0  0  0  0  0  0  0  # atno 17394 bound_to 11000
  140.9763  133.7295  156.0607 LP  0  0  0  0  0  0  0  0  0  0  0  0  # atno 17395 bound_to 11000

$$$$
