AV-unprocessed.smi:1644|AV-procd|sdf|6588|dock2
  -GOLD-   22720 7283D 1   1.00000     0.00000
 Structure written by MMmdl.
 50 52  0  0  0  0  0  0  0  0  2 V2000
  148.5742  131.5818  153.6482 C   0  0  0  0  0  0  0  0  0  0  0  0
  148.6131  133.0977  153.8695 C   0  0  0  0  0  0  0  0  0  0  0  0
  149.0451  133.4732  155.2960 C   0  0  0  0  0  0  0  0  0  0  0  0
  148.9544  134.9856  155.5790 C   0  0  2  0  0  0  0  0  0  0  0  0
  149.5596  135.7884  154.5347 N   0  0  0  0  0  0  0  0  0  0  0  0
  150.5632  136.5507  154.9869 C   0  0  0  0  0  0  0  0  0  0  0  0
  151.2402  137.3132  154.2990 O   0  0  0  0  0  0  0  0  0  0  0  0
  150.7022  136.3293  156.3068 N   0  0  0  0  0  0  0  0  0  0  0  0
  151.7167  136.9681  157.1512 C   0  0  0  0  0  0  0  0  0  0  0  0
  151.6459  138.5068  157.0699 C   0  0  2  0  0  0  0  0  0  0  0  0
  152.6867  139.0486  157.8599 O   0  0  0  0  0  0  0  0  0  0  0  0
  150.2984  139.0417  157.5939 C   0  0  0  0  0  0  0  0  0  0  0  0
  150.0513  140.4386  157.2085 N   0  0  0  0  0  0  0  0  0  0  0  0
  149.3101  140.9354  156.1815 C   0  0  0  0  0  0  0  0  0  0  0  0
  149.3890  142.2935  156.2368 N   0  3  0  0  0  0  0  0  0  0  0  0
  150.1948  142.6697  157.3135 C   0  0  0  0  0  0  0  0  0  0  0  0
  150.5726  143.9264  157.7710 C   0  0  0  0  0  0  0  0  0  0  0  0
  151.4158  143.9741  158.9042 C   0  0  0  0  0  0  0  0  0  0  0  0
  151.8514  145.3322  159.4275 C   0  0  0  0  0  0  0  0  0  0  0  0
  151.8501  142.7828  159.5413 C   0  0  0  0  0  0  0  0  0  0  0  0
  152.7582  142.8448  160.7578 C   0  0  0  0  0  0  0  0  0  0  0  0
  151.4531  141.5142  159.0613 C   0  0  0  0  0  0  0  0  0  0  0  0
  150.6230  141.4846  157.9429 C   0  0  0  0  0  0  0  0  0  0  0  0
  149.8225  135.4196  156.7452 C   0  0  0  0  0  0  0  0  0  0  0  0
  149.7133  134.9781  157.8890 O   0  0  0  0  0  0  0  0  0  0  0  0
  148.2577  131.3457  152.6320 H   0  0  0  0  0  0  0  0  0  0  0  0
  147.8759  131.1015  154.3341 H   0  0  0  0  0  0  0  0  0  0  0  0
  149.5571  131.1359  153.8026 H   0  0  0  0  0  0  0  0  0  0  0  0
  149.2935  133.5449  153.1442 H   0  0  0  0  0  0  0  0  0  0  0  0
  147.6265  133.5152  153.6657 H   0  0  0  0  0  0  0  0  0  0  0  0
  148.4132  132.9390  156.0071 H   0  0  0  0  0  0  0  0  0  0  0  0
  150.0634  133.1215  155.4710 H   0  0  0  0  0  0  0  0  0  0  0  0
  147.9231  135.2996  155.7452 H   0  0  0  0  0  0  0  0  0  0  0  0
  149.2499  135.7629  153.5740 H   0  0  0  0  0  0  0  0  0  0  0  0
  151.5451  136.6487  158.1808 H   0  0  0  0  0  0  0  0  0  0  0  0
  152.7190  136.6101  156.9072 H   0  0  0  0  0  0  0  0  0  0  0  0
  151.7781  138.8384  156.0389 H   0  0  0  0  0  0  0  0  0  0  0  0
  152.5385  138.8052  158.7611 H   0  0  0  0  0  0  0  0  0  0  0  0
  149.4806  138.4511  157.1788 H   0  0  0  0  0  0  0  0  0  0  0  0
  150.2243  138.9447  158.6773 H   0  0  0  0  0  0  0  0  0  0  0  0
  148.7598  140.3567  155.4535 H   0  0  0  0  0  0  0  0  0  0  0  0
  150.2388  144.8287  157.2797 H   0  0  0  0  0  0  0  0  0  0  0  0
  151.4998  145.4796  160.4489 H   0  0  0  0  0  0  0  0  0  0  0  0
  151.4509  146.1426  158.8173 H   0  0  0  0  0  0  0  0  0  0  0  0
  152.9386  145.4159  159.4190 H   0  0  0  0  0  0  0  0  0  0  0  0
  152.9752  141.8488  161.1449 H   0  0  0  0  0  0  0  0  0  0  0  0
  152.2887  143.4164  161.5587 H   0  0  0  0  0  0  0  0  0  0  0  0
  153.7069  143.3177  160.5035 H   0  0  0  0  0  0  0  0  0  0  0  0
  151.7911  140.6081  159.5418 H   0  0  0  0  0  0  0  0  0  0  0  0
  148.9281  142.9152  155.5847 H   0  0  0  0  0  0  0  0  0  0  0  0
  1  2  1  0  0  0  0
  1 26  1  0  0  0  0
  1 27  1  0  0  0  0
  1 28  1  0  0  0  0
  2  3  1  0  0  0  0
  2 29  1  0  0  0  0
  2 30  1  0  0  0  0
  3  4  1  0  0  0  0
  3 31  1  0  0  0  0
  3 32  1  0  0  0  0
  4 24  1  0  0  0  0
  4  5  1  0  0  0  0
  4 33  1  0  0  0  0
  5  6  1  0  0  0  0
  5 34  1  0  0  0  0
  6  7  2  0  0  0  0
  6  8  1  0  0  0  0
  8  9  1  0  0  0  0
  8 24  1  0  0  0  0
  9 10  1  0  0  0  0
  9 35  1  0  0  0  0
  9 36  1  0  0  0  0
 10 11  1  0  0  0  0
 10 12  1  0  0  0  0
 10 37  1  0  0  0  0
 11 38  1  0  0  0  0
 12 13  1  0  0  0  0
 12 39  1  0  0  0  0
 12 40  1  0  0  0  0
 13 23  1  0  0  0  0
 13 14  1  0  0  0  0
 14 15  2  0  0  0  0
 14 41  1  0  0  0  0
 15 16  1  0  0  0  0
 15 50  1  0  0  0  0
 16 23  2  0  0  0  0
 16 17  1  0  0  0  0
 17 18  2  0  0  0  0
 17 42  1  0  0  0  0
 18 19  1  0  0  0  0
 18 20  1  0  0  0  0
 19 43  1  0  0  0  0
 19 44  1  0  0  0  0
 19 45  1  0  0  0  0
 20 21  1  0  0  0  0
 20 22  2  0  0  0  0
 21 46  1  0  0  0  0
 21 47  1  0  0  0  0
 21 48  1  0  0  0  0
 22 23  1  0  0  0  0
 22 49  1  0  0  0  0
 24 25  2  0  0  0  0
M  CHG  1  15   1
M  END
> <s_m_source_file>
AV-unprocessed.smi

> <i_m_source_file_index>
1644

> <i_lp_mmshare_version>
43012

> <i_f3d_flags>
0

> <s_epik_input>
W0NIM11bQ0gyXVtDSDJdW0NAQEhdMVtOSF1DKD1PKU4oQzE9TylbQ0gyXVtDQEhdKFtPSF0pW0NIMl1uKFtjSF1uMiljKGMyMylbY0hdYyhbQ0gzXSljKFtjSF0zKVtDSDNd

> <s_epik_cmdline>
J2VwaWtfcHl0aG9uJywgJy1waCcsICc3LjAnLCAnLXRuJywgJzgnLCAnLW1hJywgJzIwMCcsICctbWV0YWxfYmluZGluZycsICctaW1hZScsICc8aW5maWxlLm1hZT4nLCAnLW9tYWUnLCAnPG91dGZpbGUubWFlPic=

> <r_lp_tautomer_probability>
1

> <r_epik_Ionization_Penalty>
1.06742

> <r_epik_Ionization_Penalty_Charging>
1.06736

> <r_epik_Ionization_Penalty_Neutral>
5.56132e-05

> <r_epik_State_Penalty>
1.12163

> <r_epik_Charging_Adjusted_Penalty>
2.18899

> <i_epik_Tot_Q>
1

> <i_epik_Tot_abs_Q>
1

> <r_epik_Metal_State_Penalty>
1.26636

> <b_epik_Metal_Only>
0

> <s_lp_Force_Field>
OPLS_2005

> <r_lp_Energy>
29.1926

> <b_lp_Chiralities_Consistent>
1

> <s_lp_Variant>
AV-unprocessed.smi:1644-5

> <Gold.Version>
5.8.1

> <Gold.Id.Protein>
6NUR|6NUR_protein|mol2

> <Gold.PLP.Fitness>
54.6459

> <Gold.PLP.PLP>
-42.1142

> <Gold.PLP.part.hbond>
-4.0000

> <Gold.PLP.part.metal>
0.0000

> <Gold.PLP.part.buried>
-7.4152

> <Gold.PLP.part.nonpolar>
-32.9543

> <Gold.PLP.part.repulsive>
0.2933

> <Gold.PLP.ligand.clash>
0.0000

> <Gold.PLP.ligand.torsion>
0.6050

> <Gold.PLP.Chemscore.Hbond>
4.5280

> <Gold.PLP.Chemscore.CHOScore>
0.0000

> <Gold.PLP.Chemscore.Metal>
0.0000

> <Gold.Chemscore.Hbonds>
donor molecule, donor type, donor heavy atom, donor atom, acceptor molecule, acceptor atom, score
      L1  H     5    34       P1  7948  1.00
      L1  H    15    50       P1  8028  1.09
      P1  H  6896  6908       L1    25  0.86
      P1  H 10752 10765       L1     7  0.06

> <Gold.PLP.Chemscore.Internal.Correction>
0.1576

> <Gold.Rescore>
     Score         DG    S(hbond)    S(metal)    S(lipo)     H(rot)  DE(clash)    DE(int)     intcor
     18.88     -19.58       2.78        0.00     102.42       2.80       0.07       0.63       ----

> <Gold.Chemscore.Fitness>
18.8844

> <Gold.Chemscore.DG>
-19.5758

> <Gold.Chemscore.ZeroCoef>
-5.4800

> <Gold.Chemscore.Hbond>
2.7755

> <Gold.Chemscore.Metal>
0.0000

> <Gold.Chemscore.Lipo>
102.4240

> <Gold.Chemscore.Internal_Hbond>
0.0000

> <Gold.Chemscore.DEClash>
0.0650

> <Gold.Chemscore.DEInternal>
0.6263

> <Gold.Chemscore.Rot>
2.7961

> <Gold.Chemscore.Internal.Correction>
   9.000000E+99

> <Gold.Chemscore.Hbonds>
donor molecule, donor type, donor heavy atom, donor atom, acceptor molecule, acceptor atom, score
      L1  H     5    34       P1  7948  0.65
      L1  H    15    50       P1  8028  0.56
      P1  H  6896  6908       L1    25  0.84
      P1  H 10752 10765       L1     7  0.01

> <Gold.Chemscore.Hbond.Weighted>
-9.2703

> <Gold.Chemscore.Metal.Weighted>
-0.0000

> <Gold.Chemscore.Lipo.Weighted>
-11.9836

> <Gold.Chemscore.Internal_Hbond.Weighted>
0.0000

> <Gold.Chemscore.DEClash.Weighted>
0.0650

> <Gold.Chemscore.DEInternal.Weighted>
0.6263

> <Gold.Chemscore.Rot.Weighted>
7.1580

> <Gold.Chemscore.Internal.Correction.Weighted>
   9.000000E+99

> <Gold.Protein.RotatedTorsions>
[ 6907 6896 6895 6894 ] final  135.54 input  -60.11 | X-H torsion
[ 7974 7965 7964 7962 ] final  -12.38 input  175.53 | X-H torsion
[ 8008 7997 7996 7995 ] final   82.63 input   59.86 | X-H torsion
[ 10167 10162 10161 10158 ] final   -5.16 input  -65.29 | X-H torsion
[ 10718 10713 10712 10709 ] final  164.96 input   66.30 | X-H torsion
[ 10763 10752 10751 10750 ] final  150.23 input  -60.55 | X-H torsion
[ 11005 11000 10999 10996 ] final -179.83 input  -57.11 | X-H torsion

> <Gold.Protein.ActiveResidues>
 VAL166  LYS551  ARG553  GLY616  TRP617  ASP618  TYR619  PRO620  LYS621  CYS622 
 ASP623  PHE694  ASN695  SER759  ASP760  ASP761  ALA762  ILE779  LEU786  VAL792 
 PHE793  MET794  SER795  GLU796  ALA797  LYS798  CYS799  TRP800  GLU811  SER814 

> <Gold.Protein.RotatedAtoms>
  152.2993  133.5639  159.5607 H   0  0  0  0  0  0  0  0  0  0  0  0  # atno 6907 bound_to 6896
  150.7270  134.0315  159.3744 H   0  0  0  0  0  0  0  0  0  0  0  0  # atno 6908 bound_to 6896
  151.8216  135.0650  160.0476 H   0  0  0  0  0  0  0  0  0  0  0  0  # atno 6909 bound_to 6896
  146.2154  140.3049  142.8378 H   0  0  0  0  0  0  0  0  0  0  0  0  # atno 7974 bound_to 7965
  155.9131  140.3426  155.6114 H   0  0  0  0  0  0  0  0  0  0  0  0  # atno 8008 bound_to 7997
  155.7363  140.0802  157.2285 H   0  0  0  0  0  0  0  0  0  0  0  0  # atno 8009 bound_to 7997
  154.4058  140.1579  156.2553 H   0  0  0  0  0  0  0  0  0  0  0  0  # atno 8010 bound_to 7997
  140.6953  143.6340  150.8497 H   0  0  0  0  0  0  0  0  0  0  0  0  # atno 10167 bound_to 10162
  157.0869  131.0407  151.2553 H   0  0  0  0  0  0  0  0  0  0  0  0  # atno 10718 bound_to 10713
  154.0841  135.2857  155.3284 H   0  0  0  0  0  0  0  0  0  0  0  0  # atno 10763 bound_to 10752
  154.6664  135.5315  153.8086 H   0  0  0  0  0  0  0  0  0  0  0  0  # atno 10764 bound_to 10752
  153.0438  135.6547  154.1014 H   0  0  0  0  0  0  0  0  0  0  0  0  # atno 10765 bound_to 10752
  140.4143  134.6663  157.4630 H   0  0  0  0  0  0  0  0  0  0  0  0  # atno 11005 bound_to 11000
  144.9030  140.7666  143.5855 LP  0  0  0  0  0  0  0  0  0  0  0  0  # atno 17320 bound_to 7965
  145.2976  139.1862  143.4707 LP  0  0  0  0  0  0  0  0  0  0  0  0  # atno 17321 bound_to 7965
  140.0057  143.5696  152.2858 LP  0  0  0  0  0  0  0  0  0  0  0  0  # atno 17342 bound_to 10162
  139.6402  144.7654  151.2355 LP  0  0  0  0  0  0  0  0  0  0  0  0  # atno 17343 bound_to 10162
  157.4754  130.7733  149.7363 LP  0  0  0  0  0  0  0  0  0  0  0  0  # atno 17370 bound_to 10713
  155.9908  130.3942  150.3011 LP  0  0  0  0  0  0  0  0  0  0  0  0  # atno 17371 bound_to 10713
  140.0245  134.6497  155.9192 LP  0  0  0  0  0  0  0  0  0  0  0  0  # atno 17394 bound_to 11000
  141.1809  133.6546  156.5016 LP  0  0  0  0  0  0  0  0  0  0  0  0  # atno 17395 bound_to 11000

$$$$
