AV-unprocessed.smi:2027|AV-procd|sdf|8209|dock1
  -GOLD-   2272010473D 1   1.00000     0.00000
 Structure written by MMmdl.
 49 51  0  0  0  0  0  0  0  0  1 V2000
  151.4844  144.4961  160.8570 C   0  0  0  0  0  0  0  0  0  0  0  0
  152.2638  143.1966  160.9544 C   0  0  0  0  0  0  0  0  0  0  0  0
  152.4415  142.4134  159.7916 C   0  0  0  0  0  0  0  0  0  0  0  0
  153.1648  141.2017  159.8378 C   0  0  0  0  0  0  0  0  0  0  0  0
  153.4592  140.2920  158.8366 N   0  0  0  0  0  0  0  0  0  0  0  0
  154.1650  139.3814  159.5010 C   0  0  0  0  0  0  0  0  0  0  0  0
  154.3640  139.5943  160.8160 N   0  0  0  0  0  0  0  0  0  0  0  0
  155.1045  138.7530  161.7405 C   0  0  0  0  0  0  0  0  0  0  0  0
  156.1255  139.5592  162.5645 C   0  0  2  0  0  0  0  0  0  0  0  0
  157.4085  139.4171  161.9846 O   0  0  0  0  0  0  0  0  0  0  0  0
  156.1916  139.0869  164.0323 C   0  0  0  0  0  0  0  0  0  0  0  0
  156.2214  140.1364  165.0644 N   0  0  0  0  0  0  0  0  0  0  0  0
  156.1336  139.5217  166.3843 C   0  0  0  0  0  0  0  0  0  0  0  0
  155.1462  141.1300  164.9308 C   0  0  0  0  0  0  0  0  0  0  0  0
  155.2393  142.3055  165.8659 C   0  0  0  0  0  0  0  0  0  0  0  0
  155.2817  143.6856  165.5182 C   0  0  0  0  0  0  0  0  0  0  0  0
  155.3843  144.4792  166.5709 N   0  0  0  0  0  0  0  0  0  0  0  0
  155.4071  143.6383  167.6245 N   0  0  0  0  0  0  0  0  0  0  0  0
  155.5402  144.1763  168.9608 C   0  0  0  0  0  0  0  0  0  0  0  0
  155.2969  142.3215  167.2321 C   0  0  0  0  0  0  0  0  0  0  0  0
  153.7101  140.7912  161.0892 C   0  0  0  0  0  0  0  0  0  0  0  0
  153.5342  141.5585  162.2543 C   0  0  0  0  0  0  0  0  0  0  0  0
  152.8089  142.7664  162.1909 C   0  0  0  0  0  0  0  0  0  0  0  0
  152.6305  143.5891  163.4545 C   0  0  0  0  0  0  0  0  0  0  0  0
  151.2095  144.7192  159.8257 H   0  0  0  0  0  0  0  0  0  0  0  0
  152.0796  145.3294  161.2314 H   0  0  0  0  0  0  0  0  0  0  0  0
  150.5672  144.4337  161.4429 H   0  0  0  0  0  0  0  0  0  0  0  0
  152.0248  142.7393  158.8499 H   0  0  0  0  0  0  0  0  0  0  0  0
  154.5662  138.5116  159.0013 H   0  0  0  0  0  0  0  0  0  0  0  0
  154.3865  138.2674  162.4025 H   0  0  0  0  0  0  0  0  0  0  0  0
  155.6014  137.9603  161.1791 H   0  0  0  0  0  0  0  0  0  0  0  0
  155.8378  140.6019  162.4956 H   0  0  0  0  0  0  0  0  0  0  0  0
  158.0059  139.1084  162.6484 H   0  0  0  0  0  0  0  0  0  0  0  0
  155.3565  138.4144  164.2348 H   0  0  0  0  0  0  0  0  0  0  0  0
  157.0843  138.4654  164.1214 H   0  0  0  0  0  0  0  0  0  0  0  0
  156.2015  140.2743  167.1708 H   0  0  0  0  0  0  0  0  0  0  0  0
  156.9507  138.8166  166.5409 H   0  0  0  0  0  0  0  0  0  0  0  0
  155.1921  138.9844  166.5077 H   0  0  0  0  0  0  0  0  0  0  0  0
  155.0973  141.4697  163.8950 H   0  0  0  0  0  0  0  0  0  0  0  0
  154.1901  140.6353  165.1072 H   0  0  0  0  0  0  0  0  0  0  0  0
  155.2542  144.1311  164.5346 H   0  0  0  0  0  0  0  0  0  0  0  0
  155.5976  143.3648  169.6867 H   0  0  0  0  0  0  0  0  0  0  0  0
  154.6788  144.8027  169.1941 H   0  0  0  0  0  0  0  0  0  0  0  0
  156.4495  144.7753  169.0277 H   0  0  0  0  0  0  0  0  0  0  0  0
  155.2952  141.5107  167.9457 H   0  0  0  0  0  0  0  0  0  0  0  0
  153.9590  141.2232  163.1887 H   0  0  0  0  0  0  0  0  0  0  0  0
  152.9827  143.0480  164.3330 H   0  0  0  0  0  0  0  0  0  0  0  0
  151.5796  143.8302  163.6155 H   0  0  0  0  0  0  0  0  0  0  0  0
  153.1946  144.5192  163.3831 H   0  0  0  0  0  0  0  0  0  0  0  0
  1  2  1  0  0  0  0
  1 25  1  0  0  0  0
  1 26  1  0  0  0  0
  1 27  1  0  0  0  0
  2 23  1  0  0  0  0
  2  3  2  0  0  0  0
  3  4  1  0  0  0  0
  3 28  1  0  0  0  0
  4 21  2  0  0  0  0
  4  5  1  0  0  0  0
  5  6  2  0  0  0  0
  6  7  1  0  0  0  0
  6 29  1  0  0  0  0
  7  8  1  0  0  0  0
  7 21  1  0  0  0  0
  8  9  1  0  0  0  0
  8 30  1  0  0  0  0
  8 31  1  0  0  0  0
  9 10  1  0  0  0  0
  9 11  1  0  0  0  0
  9 32  1  0  0  0  0
 10 33  1  0  0  0  0
 11 12  1  0  0  0  0
 11 34  1  0  0  0  0
 11 35  1  0  0  0  0
 12 13  1  0  0  0  0
 12 14  1  0  0  0  0
 13 36  1  0  0  0  0
 13 37  1  0  0  0  0
 13 38  1  0  0  0  0
 14 15  1  0  0  0  0
 14 39  1  0  0  0  0
 14 40  1  0  0  0  0
 15 20  2  0  0  0  0
 15 16  1  0  0  0  0
 16 17  2  0  0  0  0
 16 41  1  0  0  0  0
 17 18  1  0  0  0  0
 18 19  1  0  0  0  0
 18 20  1  0  0  0  0
 19 42  1  0  0  0  0
 19 43  1  0  0  0  0
 19 44  1  0  0  0  0
 20 45  1  0  0  0  0
 21 22  1  0  0  0  0
 22 23  2  0  0  0  0
 22 46  1  0  0  0  0
 23 24  1  0  0  0  0
 24 47  1  0  0  0  0
 24 48  1  0  0  0  0
 24 49  1  0  0  0  0
M  END
> <s_m_source_file>
AV-unprocessed.smi

> <i_m_source_file_index>
2027

> <i_lp_mmshare_version>
43012

> <i_f3d_flags>
0

> <s_epik_input>
W0NIM11jKFtjSF0xKWMoW0NIM10pW2NIXWMoYzEyKW4oW2NIXW4yKVtDSDJdW0NASF0oW09IXSlbQ0gyXU4oW0NIM10pW0NIMl1jM1tjSF1ubihbQ0gzXSlbY0hdMw==

> <s_epik_cmdline>
J2VwaWtfcHl0aG9uJywgJy1waCcsICc3LjAnLCAnLXRuJywgJzgnLCAnLW1hJywgJzIwMCcsICctbWV0YWxfYmluZGluZycsICctaW1hZScsICc8aW5maWxlLm1hZT4nLCAnLW9tYWUnLCAnPG91dGZpbGUubWFlPic=

> <r_lp_tautomer_probability>
1

> <r_epik_Ionization_Penalty>
0.374241

> <r_epik_Ionization_Penalty_Charging>
0

> <r_epik_Ionization_Penalty_Neutral>
0.374241

> <r_epik_State_Penalty>
0.350767

> <r_epik_Charging_Adjusted_Penalty>
0.350767

> <i_epik_Tot_Q>
0

> <i_epik_Tot_abs_Q>
0

> <r_epik_Metal_State_Penalty>
0.343203

> <b_epik_Metal_Only>
0

> <s_lp_Force_Field>
OPLS_2005

> <r_lp_Energy>
16.8083

> <b_lp_Chiralities_Consistent>
1

> <s_lp_Variant>
AV-unprocessed.smi:2027-1

> <Gold.Version>
5.8.1

> <Gold.Id.Protein>
6NUR|6NUR_protein|mol2

> <Gold.PLP.Fitness>
54.6810

> <Gold.PLP.PLP>
-54.4254

> <Gold.PLP.part.hbond>
-2.0000

> <Gold.PLP.part.metal>
0.0000

> <Gold.PLP.part.buried>
-4.3312

> <Gold.PLP.part.nonpolar>
-47.8664

> <Gold.PLP.part.repulsive>
0.0841

> <Gold.PLP.ligand.clash>
0.0000

> <Gold.PLP.ligand.torsion>
1.3252

> <Gold.PLP.Chemscore.Hbond>
0.9440

> <Gold.PLP.Chemscore.CHOScore>
0.0000

> <Gold.PLP.Chemscore.Metal>
0.0000

> <Gold.Chemscore.Hbonds>
donor molecule, donor type, donor heavy atom, donor atom, acceptor molecule, acceptor atom, score
      P1  H  7997  8008       L1     5  0.27

> <Gold.PLP.Chemscore.Internal.Correction>
0.0739

> <Gold.Rescore>
     Score         DG    S(hbond)    S(metal)    S(lipo)     H(rot)  DE(clash)    DE(int)     intcor
     16.11     -18.46       0.95        0.00     136.86       2.42       0.14       2.21       ----

> <Gold.Chemscore.Fitness>
16.1064

> <Gold.Chemscore.DG>
-18.4553

> <Gold.Chemscore.ZeroCoef>
-5.4800

> <Gold.Chemscore.Hbond>
0.9452

> <Gold.Chemscore.Metal>
0.0000

> <Gold.Chemscore.Lipo>
136.8649

> <Gold.Chemscore.Internal_Hbond>
0.0000

> <Gold.Chemscore.DEClash>
0.1419

> <Gold.Chemscore.DEInternal>
2.2070

> <Gold.Chemscore.Rot>
2.4198

> <Gold.Chemscore.Internal.Correction>
   9.000000E+99

> <Gold.Chemscore.Hbonds>
donor molecule, donor type, donor heavy atom, donor atom, acceptor molecule, acceptor atom, score
      P1  H  7997  8008       L1     5  0.01

> <Gold.Chemscore.Hbond.Weighted>
-3.1569

> <Gold.Chemscore.Metal.Weighted>
-0.0000

> <Gold.Chemscore.Lipo.Weighted>
-16.0132

> <Gold.Chemscore.Internal_Hbond.Weighted>
0.0000

> <Gold.Chemscore.DEClash.Weighted>
0.1419

> <Gold.Chemscore.DEInternal.Weighted>
2.2070

> <Gold.Chemscore.Rot.Weighted>
6.1948

> <Gold.Chemscore.Internal.Correction.Weighted>
   9.000000E+99

> <Gold.Protein.RotatedTorsions>
[ 6907 6896 6895 6894 ] final   28.16 input  -60.11 | X-H torsion
[ 7974 7965 7964 7962 ] final  -61.85 input  175.53 | X-H torsion
[ 8008 7997 7996 7995 ] final -101.40 input   59.86 | X-H torsion
[ 10167 10162 10161 10158 ] final    1.02 input  -65.29 | X-H torsion
[ 10718 10713 10712 10709 ] final  -65.79 input   66.30 | X-H torsion
[ 10763 10752 10751 10750 ] final  169.57 input  -60.55 | X-H torsion
[ 11005 11000 10999 10996 ] final    7.98 input  -57.11 | X-H torsion

> <Gold.Protein.ActiveResidues>
 VAL166  LYS551  ARG553  GLY616  TRP617  ASP618  TYR619  PRO620  LYS621  CYS622 
 ASP623  PHE694  ASN695  SER759  ASP760  ASP761  ALA762  ILE779  LEU786  VAL792 
 PHE793  MET794  SER795  GLU796  ALA797  LYS798  CYS799  TRP800  GLU811  SER814 

> <Gold.Protein.RotatedAtoms>
  152.0129  134.9866  160.0568 H   0  0  0  0  0  0  0  0  0  0  0  0  # atno 6907 bound_to 6896
  152.1412  133.4460  159.4776 H   0  0  0  0  0  0  0  0  0  0  0  0  # atno 6908 bound_to 6896
  150.6865  134.2222  159.4444 H   0  0  0  0  0  0  0  0  0  0  0  0  # atno 6909 bound_to 6896
  145.7984  140.8669  143.0244 H   0  0  0  0  0  0  0  0  0  0  0  0  # atno 7974 bound_to 7965
  154.8421  140.0434  157.1548 H   0  0  0  0  0  0  0  0  0  0  0  0  # atno 8008 bound_to 7997
  154.9036  140.3003  155.5284 H   0  0  0  0  0  0  0  0  0  0  0  0  # atno 8009 bound_to 7997
  156.2993  140.2371  156.4066 H   0  0  0  0  0  0  0  0  0  0  0  0  # atno 8010 bound_to 7997
  140.6702  143.7069  150.7907 H   0  0  0  0  0  0  0  0  0  0  0  0  # atno 10167 bound_to 10162
  156.0649  130.4252  150.1615 H   0  0  0  0  0  0  0  0  0  0  0  0  # atno 10718 bound_to 10713
  154.3851  135.2753  155.2188 H   0  0  0  0  0  0  0  0  0  0  0  0  # atno 10763 bound_to 10752
  154.4279  135.5984  153.6053 H   0  0  0  0  0  0  0  0  0  0  0  0  # atno 10764 bound_to 10752
  152.9833  135.5988  154.4098 H   0  0  0  0  0  0  0  0  0  0  0  0  # atno 10765 bound_to 10752
  140.5422  134.0364  155.7908 H   0  0  0  0  0  0  0  0  0  0  0  0  # atno 11005 bound_to 11000
  144.6772  140.0224  143.7483 LP  0  0  0  0  0  0  0  0  0  0  0  0  # atno 17320 bound_to 7965
  145.9903  139.3010  143.0988 LP  0  0  0  0  0  0  0  0  0  0  0  0  # atno 17321 bound_to 7965
  140.0753  143.5021  152.2558 LP  0  0  0  0  0  0  0  0  0  0  0  0  # atno 17342 bound_to 10162
  139.5967  144.7569  151.3269 LP  0  0  0  0  0  0  0  0  0  0  0  0  # atno 17343 bound_to 10162
  156.9677  130.9825  151.3465 LP  0  0  0  0  0  0  0  0  0  0  0  0  # atno 17370 bound_to 10713
  157.5684  130.8293  149.8358 LP  0  0  0  0  0  0  0  0  0  0  0  0  # atno 17371 bound_to 10713
  141.1221  133.9445  157.2709 LP  0  0  0  0  0  0  0  0  0  0  0  0  # atno 17394 bound_to 11000
  139.9498  135.0177  156.8961 LP  0  0  0  0  0  0  0  0  0  0  0  0  # atno 17395 bound_to 11000

$$$$
