AV-unprocessed.smi:657|AV-procd|sdf|3222|dock9
  -GOLD-   22720 0163D 1   1.00000     0.00000
 Structure written by MMmdl.
 47 48  0  0  0  0  0  0  0  0  2 V2000
  149.4735  142.2004  158.1216 C   0  0  0  0  0  0  0  0  0  0  0  0
  149.1638  141.5614  156.7520 C   0  0  0  0  0  0  0  0  0  0  0  0
  150.4629  141.5552  155.9183 C   0  0  0  0  0  0  0  0  0  0  0  0
  148.0313  142.2402  156.0324 N   0  3  2  0  0  0  0  0  0  0  0  0
  146.7899  142.4080  156.8504 C   0  0  0  0  0  0  0  0  0  0  0  0
  145.7318  143.2621  156.1324 C   0  0  0  0  0  0  0  0  0  0  0  0
  145.3897  142.6954  154.7540 C   0  0  0  0  0  0  0  0  0  0  0  0
  146.6760  142.5593  153.9314 C   0  0  0  0  0  0  0  0  0  0  0  0
  147.7582  141.7190  154.6473 C   0  0  2  0  0  0  0  0  0  0  0  0
  147.4464  140.2075  154.5735 C   0  0  0  0  0  0  0  0  0  0  0  0
  147.2616  139.5478  155.5955 O   0  0  0  0  0  0  0  0  0  0  0  0
  147.3822  139.6760  153.3427 N   0  0  0  0  0  0  0  0  0  0  0  0
  147.0932  138.2783  153.0286 C   0  0  0  0  0  0  0  0  0  0  0  0
  146.2199  138.0830  151.7701 C   0  0  0  0  0  0  0  0  0  0  0  0
  145.4929  136.7633  151.7369 C   0  0  0  0  0  0  0  0  0  0  0  0
  144.4935  136.2813  152.6303 C   0  0  0  0  0  0  0  0  0  0  0  0
  144.0479  135.0793  152.3033 N   0  0  0  0  0  0  0  0  0  0  0  0
  144.7524  134.7474  151.2023 N   0  0  0  0  0  0  0  0  0  0  0  0
  144.5229  133.4694  150.5634 C   0  0  0  0  0  0  0  0  0  0  0  0
  145.6352  135.7415  150.8411 C   0  0  0  0  0  0  0  0  0  0  0  0
  150.3726  141.7664  158.5607 H   0  0  0  0  0  0  0  0  0  0  0  0
  148.6781  142.0309  158.8469 H   0  0  0  0  0  0  0  0  0  0  0  0
  149.6374  143.2750  158.0339 H   0  0  0  0  0  0  0  0  0  0  0  0
  148.8800  140.5264  156.9440 H   0  0  0  0  0  0  0  0  0  0  0  0
  151.3031  141.1753  156.4992 H   0  0  0  0  0  0  0  0  0  0  0  0
  150.7262  142.5591  155.5838 H   0  0  0  0  0  0  0  0  0  0  0  0
  150.3901  140.9122  155.0420 H   0  0  0  0  0  0  0  0  0  0  0  0
  146.3779  141.4375  157.1253 H   0  0  0  0  0  0  0  0  0  0  0  0
  147.0108  142.9210  157.7842 H   0  0  0  0  0  0  0  0  0  0  0  0
  144.8295  143.3246  156.7417 H   0  0  0  0  0  0  0  0  0  0  0  0
  146.1008  144.2830  156.0246 H   0  0  0  0  0  0  0  0  0  0  0  0
  144.8921  141.7307  154.8558 H   0  0  0  0  0  0  0  0  0  0  0  0
  144.6861  143.3529  154.2430 H   0  0  0  0  0  0  0  0  0  0  0  0
  146.4453  142.1309  152.9547 H   0  0  0  0  0  0  0  0  0  0  0  0
  147.0744  143.5548  153.7307 H   0  0  0  0  0  0  0  0  0  0  0  0
  148.6604  141.8857  154.0593 H   0  0  0  0  0  0  0  0  0  0  0  0
  147.5417  140.2887  152.5559 H   0  0  0  0  0  0  0  0  0  0  0  0
  148.0236  137.7160  152.9374 H   0  0  0  0  0  0  0  0  0  0  0  0
  146.5700  137.8652  153.8915 H   0  0  0  0  0  0  0  0  0  0  0  0
  145.5054  138.9045  151.7081 H   0  0  0  0  0  0  0  0  0  0  0  0
  146.8506  138.1913  150.8874 H   0  0  0  0  0  0  0  0  0  0  0  0
  144.0745  136.7721  153.4963 H   0  0  0  0  0  0  0  0  0  0  0  0
  144.9377  133.4774  149.5552 H   0  0  0  0  0  0  0  0  0  0  0  0
  143.4528  133.2678  150.5027 H   0  0  0  0  0  0  0  0  0  0  0  0
  145.0039  132.6794  151.1409 H   0  0  0  0  0  0  0  0  0  0  0  0
  146.2805  135.6444  149.9803 H   0  0  0  0  0  0  0  0  0  0  0  0
  148.3565  143.1846  155.8830 H   0  0  0  0  0  0  0  0  0  0  0  0
  1  2  1  0  0  0  0
  1 21  1  0  0  0  0
  1 22  1  0  0  0  0
  1 23  1  0  0  0  0
  2  3  1  0  0  0  0
  2  4  1  0  0  0  0
  2 24  1  0  0  0  0
  3 25  1  0  0  0  0
  3 26  1  0  0  0  0
  3 27  1  0  0  0  0
  4  9  1  0  0  0  0
  4  5  1  0  0  0  0
  4 47  1  0  0  0  0
  5  6  1  0  0  0  0
  5 28  1  0  0  0  0
  5 29  1  0  0  0  0
  6  7  1  0  0  0  0
  6 30  1  0  0  0  0
  6 31  1  0  0  0  0
  7  8  1  0  0  0  0
  7 32  1  0  0  0  0
  7 33  1  0  0  0  0
  8  9  1  0  0  0  0
  8 34  1  0  0  0  0
  8 35  1  0  0  0  0
  9 10  1  0  0  0  0
  9 36  1  0  0  0  0
 10 11  2  0  0  0  0
 10 12  1  0  0  0  0
 12 13  1  0  0  0  0
 12 37  1  0  0  0  0
 13 14  1  0  0  0  0
 13 38  1  0  0  0  0
 13 39  1  0  0  0  0
 14 15  1  0  0  0  0
 14 40  1  0  0  0  0
 14 41  1  0  0  0  0
 15 20  2  0  0  0  0
 15 16  1  0  0  0  0
 16 17  2  0  0  0  0
 16 42  1  0  0  0  0
 17 18  1  0  0  0  0
 18 19  1  0  0  0  0
 18 20  1  0  0  0  0
 19 43  1  0  0  0  0
 19 44  1  0  0  0  0
 19 45  1  0  0  0  0
 20 46  1  0  0  0  0
M  CHG  1   4   1
M  END
> <s_m_source_file>
AV-unprocessed.smi

> <i_m_source_file_index>
657

> <i_lp_mmshare_version>
43012

> <i_f3d_flags>
0

> <s_epik_input>
W0NIM11bQ0hdKFtDSDNdKU4xW0NIMl1bQ0gyXVtDSDJdW0NIMl1bQ0BIXTFDKD1PKVtOSF1bQ0gyXVtDSDJdYzJbY0hdbm4oW0NIM10pW2NIXTI=

> <s_epik_cmdline>
J2VwaWtfcHl0aG9uJywgJy1waCcsICc3LjAnLCAnLXRuJywgJzgnLCAnLW1hJywgJzIwMCcsICctbWV0YWxfYmluZGluZycsICctaW1hZScsICc8aW5maWxlLm1hZT4nLCAnLW9tYWUnLCAnPG91dGZpbGUubWFlPic=

> <r_lp_tautomer_probability>
1

> <r_epik_Ionization_Penalty>
0.0244317

> <r_epik_Ionization_Penalty_Charging>
0.0240236

> <r_epik_Ionization_Penalty_Neutral>
0.00040815

> <r_epik_State_Penalty>
0.0194773

> <r_epik_Charging_Adjusted_Penalty>
0.0435009

> <i_epik_Tot_Q>
1

> <i_epik_Tot_abs_Q>
1

> <r_epik_Metal_State_Penalty>
0.0361957

> <b_epik_Metal_Only>
0

> <s_lp_Force_Field>
OPLS_2005

> <r_lp_Energy>
17.7945

> <b_lp_Chiralities_Consistent>
1

> <s_lp_Variant>
AV-unprocessed.smi:657-3

> <Gold.Version>
5.8.1

> <Gold.Id.Protein>
6NUR|6NUR_protein|mol2

> <Gold.PLP.Fitness>
41.8219

> <Gold.PLP.PLP>
-33.4649

> <Gold.PLP.part.hbond>
-1.7008

> <Gold.PLP.part.metal>
0.0000

> <Gold.PLP.part.buried>
-2.4975

> <Gold.PLP.part.nonpolar>
-30.4531

> <Gold.PLP.part.repulsive>
0.1877

> <Gold.PLP.ligand.clash>
0.0000

> <Gold.PLP.ligand.torsion>
0.4112

> <Gold.PLP.Chemscore.Hbond>
2.0000

> <Gold.PLP.Chemscore.CHOScore>
1.0000

> <Gold.PLP.Chemscore.Metal>
0.0000

> <Gold.Chemscore.Hbonds>
donor molecule, donor type, donor heavy atom, donor atom, acceptor molecule, acceptor atom, score
      L1  H     4    47       P1  8028  2.00
      L1  C    20    46       P1  7921  1.00

> <Gold.PLP.Chemscore.Internal.Correction>
0.1794

> <Gold.Rescore>
     Score         DG    S(hbond)    S(metal)    S(lipo)     H(rot)  DE(clash)    DE(int)     intcor
     11.88     -14.61       1.13        0.00      81.29       1.63       1.31       1.43       ----

> <Gold.Chemscore.Fitness>
11.8764

> <Gold.Chemscore.DG>
-14.6103

> <Gold.Chemscore.ZeroCoef>
-5.4800

> <Gold.Chemscore.Hbond>
1.1337

> <Gold.Chemscore.Metal>
0.0000

> <Gold.Chemscore.Lipo>
81.2900

> <Gold.Chemscore.Internal_Hbond>
0.0000

> <Gold.Chemscore.DEClash>
1.3051

> <Gold.Chemscore.DEInternal>
1.4288

> <Gold.Chemscore.Rot>
1.6279

> <Gold.Chemscore.Internal.Correction>
   9.000000E+99

> <Gold.Chemscore.Hbonds>
donor molecule, donor type, donor heavy atom, donor atom, acceptor molecule, acceptor atom, score
      L1  H     4    47       P1  8028  0.90
      L1  H    12    37       P1  7957  0.01

> <Gold.Chemscore.Hbond.Weighted>
-3.7867

> <Gold.Chemscore.Metal.Weighted>
-0.0000

> <Gold.Chemscore.Lipo.Weighted>
-9.5109

> <Gold.Chemscore.Internal_Hbond.Weighted>
0.0000

> <Gold.Chemscore.DEClash.Weighted>
1.3051

> <Gold.Chemscore.DEInternal.Weighted>
1.4288

> <Gold.Chemscore.Rot.Weighted>
4.1673

> <Gold.Chemscore.Internal.Correction.Weighted>
   9.000000E+99

> <Gold.Protein.RotatedTorsions>
[ 6907 6896 6895 6894 ] final    0.00 input  -60.11 | X-H torsion
[ 7974 7965 7964 7962 ] final -156.73 input  175.53 | X-H torsion
[ 8008 7997 7996 7995 ] final  141.80 input   59.86 | X-H torsion
[ 10167 10162 10161 10158 ] final   16.67 input  -65.29 | X-H torsion
[ 10718 10713 10712 10709 ] final   65.25 input   66.30 | X-H torsion
[ 10763 10752 10751 10750 ] final   88.03 input  -60.55 | X-H torsion
[ 11005 11000 10999 10996 ] final  -92.16 input  -57.11 | X-H torsion

> <Gold.Protein.ActiveResidues>
 VAL166  LYS551  ARG553  GLY616  TRP617  ASP618  TYR619  PRO620  LYS621  CYS622 
 ASP623  PHE694  ASN695  SER759  ASP760  ASP761  ALA762  ILE779  LEU786  VAL792 
 PHE793  MET794  SER795  GLU796  ALA797  LYS798  CYS799  TRP800  GLU811  SER814 

> <Gold.Protein.RotatedAtoms>
  151.5694  135.1063  159.9991 H   0  0  0  0  0  0  0  0  0  0  0  0  # atno 6907 bound_to 6896
  152.4408  133.7441  159.6668 H   0  0  0  0  0  0  0  0  0  0  0  0  # atno 6908 bound_to 6896
  150.8314  133.8017  159.3121 H   0  0  0  0  0  0  0  0  0  0  0  0  # atno 6909 bound_to 6896
  144.7580  140.4069  143.5998 H   0  0  0  0  0  0  0  0  0  0  0  0  # atno 7974 bound_to 7965
  156.2960  140.2305  156.4624 H   0  0  0  0  0  0  0  0  0  0  0  0  # atno 8008 bound_to 7997
  154.8006  140.0448  157.1291 H   0  0  0  0  0  0  0  0  0  0  0  0  # atno 8009 bound_to 7997
  154.9538  140.3045  155.5066 H   0  0  0  0  0  0  0  0  0  0  0  0  # atno 8010 bound_to 7997
  140.5781  143.9034  150.6766 H   0  0  0  0  0  0  0  0  0  0  0  0  # atno 10167 bound_to 10162
  157.6093  130.9204  149.9952 H   0  0  0  0  0  0  0  0  0  0  0  0  # atno 10718 bound_to 10713
  153.1727  135.4522  154.9924 H   0  0  0  0  0  0  0  0  0  0  0  0  # atno 10763 bound_to 10752
  154.7977  135.3244  154.7629 H   0  0  0  0  0  0  0  0  0  0  0  0  # atno 10764 bound_to 10752
  153.8103  135.6955  153.4896 H   0  0  0  0  0  0  0  0  0  0  0  0  # atno 10765 bound_to 10752
  141.1528  133.7802  156.9981 H   0  0  0  0  0  0  0  0  0  0  0  0  # atno 11005 bound_to 11000
  145.6714  139.1600  143.2752 LP  0  0  0  0  0  0  0  0  0  0  0  0  # atno 17320 bound_to 7965
  146.1612  140.6785  142.9277 LP  0  0  0  0  0  0  0  0  0  0  0  0  # atno 17321 bound_to 7965
  140.2526  143.3582  152.1392 LP  0  0  0  0  0  0  0  0  0  0  0  0  # atno 17342 bound_to 10162
  139.5154  144.6962  151.5624 LP  0  0  0  0  0  0  0  0  0  0  0  0  # atno 17343 bound_to 10162
  156.1190  130.3646  149.9919 LP  0  0  0  0  0  0  0  0  0  0  0  0  # atno 17370 bound_to 10713
  156.8003  130.9288  151.3646 LP  0  0  0  0  0  0  0  0  0  0  0  0  # atno 17371 bound_to 10713
  140.0958  134.9565  157.1847 LP  0  0  0  0  0  0  0  0  0  0  0  0  # atno 17394 bound_to 11000
  140.3384  134.2731  155.7216 LP  0  0  0  0  0  0  0  0  0  0  0  0  # atno 17395 bound_to 11000

$$$$
