AV-unprocessed.smi:937|AV-procd|sdf|4211|dock8
  -GOLD-   22720 2123D 1   1.00000     0.00000
 Structure written by MMmdl.
 45 46  0  0  0  0  0  0  0  0  1 V2000
  154.3996  133.5254  163.4173 C   0  0  0  0  0  0  0  0  0  0  0  0
  154.8183  134.9792  163.4819 C   0  0  0  0  0  0  0  0  0  0  0  0
  153.8885  135.9854  163.8185 C   0  0  0  0  0  0  0  0  0  0  0  0
  154.3322  137.3209  163.8604 C   0  0  0  0  0  0  0  0  0  0  0  0
  155.6826  137.5991  163.5650 C   0  0  0  0  0  0  0  0  0  0  0  0
  156.2060  139.0215  163.5994 C   0  0  0  0  0  0  0  0  0  0  0  0
  156.9297  139.4031  162.3014 C   0  0  0  0  0  0  0  0  0  0  0  0
  155.9933  139.4503  161.1878 N   0  0  0  0  0  0  0  0  0  0  0  0
  154.8309  140.1221  161.2013 C   0  0  0  0  0  0  0  0  0  0  0  0
  154.4350  140.7675  162.1701 O   0  0  0  0  0  0  0  0  0  0  0  0
  154.1162  140.0399  160.0642 N   0  0  0  0  0  0  0  0  0  0  0  0
  152.8206  140.6487  159.7554 C   0  0  2  0  0  0  0  0  0  0  0  0
  152.3315  140.2105  158.3599 C   0  0  0  0  0  0  0  0  0  0  0  0
  151.0166  140.9086  157.9852 C   0  0  0  0  0  0  0  0  0  0  0  0
  151.1564  142.4367  158.0597 C   0  0  0  0  0  0  0  0  0  0  0  0
  151.6316  142.8968  159.4541 C   0  0  2  0  0  0  0  0  0  0  0  0
  151.7606  144.4317  159.5426 C   0  0  0  0  0  0  0  0  0  0  0  0
  150.6329  145.0263  159.1515 F   0  0  0  0  0  0  0  0  0  0  0  0
  152.0269  144.7964  160.7968 F   0  0  0  0  0  0  0  0  0  0  0  0
  152.7601  144.8513  158.7667 F   0  0  0  0  0  0  0  0  0  0  0  0
  152.9492  142.1830  159.8275 C   0  0  0  0  0  0  0  0  0  0  0  0
  156.5309  136.5195  163.2402 C   0  0  0  0  0  0  0  0  0  0  0  0
  156.1141  135.2356  163.1969 N   0  0  0  0  0  0  0  0  0  0  0  0
  153.3821  133.3911  163.7851 H   0  0  0  0  0  0  0  0  0  0  0  0
  155.0637  132.9095  164.0243 H   0  0  0  0  0  0  0  0  0  0  0  0
  154.4409  133.1664  162.3888 H   0  0  0  0  0  0  0  0  0  0  0  0
  152.8596  135.7428  164.0400 H   0  0  0  0  0  0  0  0  0  0  0  0
  153.6478  138.1166  164.1161 H   0  0  0  0  0  0  0  0  0  0  0  0
  155.3762  139.7062  163.7814 H   0  0  0  0  0  0  0  0  0  0  0  0
  156.8824  139.1231  164.4493 H   0  0  0  0  0  0  0  0  0  0  0  0
  157.4113  140.3761  162.4146 H   0  0  0  0  0  0  0  0  0  0  0  0
  157.7139  138.6775  162.0792 H   0  0  0  0  0  0  0  0  0  0  0  0
  156.2448  138.9440  160.3513 H   0  0  0  0  0  0  0  0  0  0  0  0
  154.5189  139.4787  159.3274 H   0  0  0  0  0  0  0  0  0  0  0  0
  152.0881  140.3423  160.5044 H   0  0  0  0  0  0  0  0  0  0  0  0
  153.0905  140.4451  157.6121 H   0  0  0  0  0  0  0  0  0  0  0  0
  152.1901  139.1298  158.3259 H   0  0  0  0  0  0  0  0  0  0  0  0
  150.7128  140.6122  156.9809 H   0  0  0  0  0  0  0  0  0  0  0  0
  150.2235  140.5797  158.6577 H   0  0  0  0  0  0  0  0  0  0  0  0
  151.8616  142.7733  157.2989 H   0  0  0  0  0  0  0  0  0  0  0  0
  150.1992  142.8988  157.8172 H   0  0  0  0  0  0  0  0  0  0  0  0
  150.8740  142.5928  160.1783 H   0  0  0  0  0  0  0  0  0  0  0  0
  153.2538  142.4739  160.8335 H   0  0  0  0  0  0  0  0  0  0  0  0
  153.7445  142.5161  159.1588 H   0  0  0  0  0  0  0  0  0  0  0  0
  157.5725  136.6878  163.0091 H   0  0  0  0  0  0  0  0  0  0  0  0
  1  2  1  0  0  0  0
  1 24  1  0  0  0  0
  1 25  1  0  0  0  0
  1 26  1  0  0  0  0
  2 23  1  0  0  0  0
  2  3  2  0  0  0  0
  3  4  1  0  0  0  0
  3 27  1  0  0  0  0
  4  5  2  0  0  0  0
  4 28  1  0  0  0  0
  5  6  1  0  0  0  0
  5 22  1  0  0  0  0
  6  7  1  0  0  0  0
  6 29  1  0  0  0  0
  6 30  1  0  0  0  0
  7  8  1  0  0  0  0
  7 31  1  0  0  0  0
  7 32  1  0  0  0  0
  8  9  1  0  0  0  0
  8 33  1  0  0  0  0
  9 10  2  0  0  0  0
  9 11  1  0  0  0  0
 11 12  1  0  0  0  0
 11 34  1  0  0  0  0
 12 21  1  0  0  0  0
 12 13  1  0  0  0  0
 12 35  1  0  0  0  0
 13 14  1  0  0  0  0
 13 36  1  0  0  0  0
 13 37  1  0  0  0  0
 14 15  1  0  0  0  0
 14 38  1  0  0  0  0
 14 39  1  0  0  0  0
 15 16  1  0  0  0  0
 15 40  1  0  0  0  0
 15 41  1  0  0  0  0
 16 17  1  0  0  0  0
 16 21  1  0  0  0  0
 16 42  1  0  0  0  0
 17 18  1  0  0  0  0
 17 19  1  0  0  0  0
 17 20  1  0  0  0  0
 21 43  1  0  0  0  0
 21 44  1  0  0  0  0
 22 23  2  0  0  0  0
 22 45  1  0  0  0  0
M  END
> <s_m_source_file>
AV-unprocessed.smi

> <i_m_source_file_index>
937

> <i_lp_mmshare_version>
43012

> <i_f3d_flags>
0

> <s_epik_input>
W0NIM11jMVtjSF1bY0hdYyhbY0hdbjEpW0NIMl1bQ0gyXVtOSF1DKD1PKVtOSF1bQ0BASF0yW0NIMl1bQ0gyXVtDSDJdW0NAQEhdKEMoRikoRilGKVtDSDJdMg==

> <s_epik_cmdline>
J2VwaWtfcHl0aG9uJywgJy1waCcsICc3LjAnLCAnLXRuJywgJzgnLCAnLW1hJywgJzIwMCcsICctbWV0YWxfYmluZGluZycsICctaW1hZScsICc8aW5maWxlLm1hZT4nLCAnLW9tYWUnLCAnPG91dGZpbGUubWFlPic=

> <r_epik_Ionization_Penalty>
0.0563445

> <r_epik_Ionization_Penalty_Charging>
0

> <r_epik_Ionization_Penalty_Neutral>
0.0563445

> <r_epik_State_Penalty>
0.0485409

> <r_epik_Charging_Adjusted_Penalty>
0.0485409

> <i_epik_Tot_Q>
0

> <i_epik_Tot_abs_Q>
0

> <r_epik_Metal_State_Penalty>
0.0443056

> <b_epik_Metal_Only>
0

> <s_lp_Force_Field>
OPLS_2005

> <r_lp_Energy>
18.9934

> <b_lp_Chiralities_Consistent>
1

> <s_lp_Variant>
AV-unprocessed.smi:937-3

> <Gold.Version>
5.8.1

> <Gold.Id.Protein>
6NUR|6NUR_protein|mol2

> <Gold.PLP.Fitness>
47.3259

> <Gold.PLP.PLP>
-47.6176

> <Gold.PLP.part.hbond>
-1.0000

> <Gold.PLP.part.metal>
0.0000

> <Gold.PLP.part.buried>
-6.5302

> <Gold.PLP.part.nonpolar>
-39.9220

> <Gold.PLP.part.repulsive>
0.0977

> <Gold.PLP.ligand.clash>
0.0000

> <Gold.PLP.ligand.torsion>
0.1660

> <Gold.PLP.Chemscore.Hbond>
0.0000

> <Gold.PLP.Chemscore.CHOScore>
0.0000

> <Gold.PLP.Chemscore.Metal>
0.0000

> <Gold.PLP.Chemscore.Internal.Correction>
0.0402

> <Gold.Rescore>
     Score         DG    S(hbond)    S(metal)    S(lipo)     H(rot)  DE(clash)    DE(int)     intcor
     11.79     -13.81       0.00        0.00     105.91       1.58       0.44       1.58       ----

> <Gold.Chemscore.Fitness>
11.7879

> <Gold.Chemscore.DG>
-13.8135

> <Gold.Chemscore.ZeroCoef>
-5.4800

> <Gold.Chemscore.Hbond>
0.0000

> <Gold.Chemscore.Metal>
0.0000

> <Gold.Chemscore.Lipo>
105.9053

> <Gold.Chemscore.Internal_Hbond>
0.0000

> <Gold.Chemscore.DEClash>
0.4418

> <Gold.Chemscore.DEInternal>
1.5838

> <Gold.Chemscore.Rot>
1.5849

> <Gold.Chemscore.Internal.Correction>
   9.000000E+99

> <Gold.Chemscore.Hbond.Weighted>
-0.0000

> <Gold.Chemscore.Metal.Weighted>
-0.0000

> <Gold.Chemscore.Lipo.Weighted>
-12.3909

> <Gold.Chemscore.Internal_Hbond.Weighted>
0.0000

> <Gold.Chemscore.DEClash.Weighted>
0.4418

> <Gold.Chemscore.DEInternal.Weighted>
1.5838

> <Gold.Chemscore.Rot.Weighted>
4.0574

> <Gold.Chemscore.Internal.Correction.Weighted>
   9.000000E+99

> <Gold.Protein.RotatedTorsions>
[ 6907 6896 6895 6894 ] final   87.86 input  -60.11 | X-H torsion
[ 7974 7965 7964 7962 ] final  155.47 input  175.53 | X-H torsion
[ 8008 7997 7996 7995 ] final -171.18 input   59.86 | X-H torsion
[ 10167 10162 10161 10158 ] final -172.67 input  -65.29 | X-H torsion
[ 10718 10713 10712 10709 ] final  118.99 input   66.30 | X-H torsion
[ 10763 10752 10751 10750 ] final   43.92 input  -60.55 | X-H torsion
[ 11005 11000 10999 10996 ] final   -8.85 input  -57.11 | X-H torsion

> <Gold.Protein.ActiveResidues>
 VAL166  LYS551  ARG553  GLY616  TRP617  ASP618  TYR619  PRO620  LYS621  CYS622 
 ASP623  PHE694  ASN695  SER759  ASP760  ASP761  ALA762  ILE779  LEU786  VAL792 
 PHE793  MET794  SER795  GLU796  ALA797  LYS798  CYS799  TRP800  GLU811  SER814 

> <Gold.Protein.RotatedAtoms>
  152.5417  134.2211  159.8787 H   0  0  0  0  0  0  0  0  0  0  0  0  # atno 6907 bound_to 6896
  151.2188  133.4507  159.2607 H   0  0  0  0  0  0  0  0  0  0  0  0  # atno 6908 bound_to 6896
  151.0825  134.9880  159.8419 H   0  0  0  0  0  0  0  0  0  0  0  0  # atno 6909 bound_to 6896
  144.8022  139.7073  143.6177 H   0  0  0  0  0  0  0  0  0  0  0  0  # atno 7974 bound_to 7965
  155.9281  140.1086  157.1154 H   0  0  0  0  0  0  0  0  0  0  0  0  # atno 8008 bound_to 7997
  154.4066  140.1243  156.4833 H   0  0  0  0  0  0  0  0  0  0  0  0  # atno 8009 bound_to 7997
  155.7113  140.3471  155.4977 H   0  0  0  0  0  0  0  0  0  0  0  0  # atno 8010 bound_to 7997
  139.5732  144.1594  152.1413 H   0  0  0  0  0  0  0  0  0  0  0  0  # atno 10167 bound_to 10162
  157.5992  131.1053  150.7834 H   0  0  0  0  0  0  0  0  0  0  0  0  # atno 10718 bound_to 10713
  152.9851  135.6086  154.3190 H   0  0  0  0  0  0  0  0  0  0  0  0  # atno 10763 bound_to 10752
  154.2901  135.2775  155.2660 H   0  0  0  0  0  0  0  0  0  0  0  0  # atno 10764 bound_to 10752
  154.4959  135.5879  153.6551 H   0  0  0  0  0  0  0  0  0  0  0  0  # atno 10765 bound_to 10752
  140.7279  133.8773  155.8870 H   0  0  0  0  0  0  0  0  0  0  0  0  # atno 11005 bound_to 11000
  146.2306  139.5807  142.9557 LP  0  0  0  0  0  0  0  0  0  0  0  0  # atno 17320 bound_to 7965
  145.5524  141.0412  143.2271 LP  0  0  0  0  0  0  0  0  0  0  0  0  # atno 17321 bound_to 7965
  140.1131  144.5439  150.6912 LP  0  0  0  0  0  0  0  0  0  0  0  0  # atno 17342 bound_to 10162
  140.7015  143.2438  151.4849 LP  0  0  0  0  0  0  0  0  0  0  0  0  # atno 17343 bound_to 10162
  156.8237  130.4992  149.5340 LP  0  0  0  0  0  0  0  0  0  0  0  0  # atno 17370 bound_to 10713
  156.1062  130.6006  150.9974 LP  0  0  0  0  0  0  0  0  0  0  0  0  # atno 17371 bound_to 10713
  140.9946  134.1232  157.4375 LP  0  0  0  0  0  0  0  0  0  0  0  0  # atno 17394 bound_to 11000
  139.8833  135.0051  156.6289 LP  0  0  0  0  0  0  0  0  0  0  0  0  # atno 17395 bound_to 11000

$$$$
