AV-unprocessed.smi:703|AV-procd|sdf|3430|dock2
  -GOLD-   22720 0413D 1   1.00000     0.00000
 Structure written by MMmdl.
 38 39  0  0  0  0  0  0  0  0  2 V2000
  145.4642  135.9838  151.3119 C   0  0  0  0  0  0  0  0  0  0  0  0
  145.8941  136.1191  152.7788 C   0  0  0  0  0  0  0  0  0  0  0  0
  146.8661  137.2193  152.9784 N   0  3  1  0  0  0  0  0  0  0  0  0
  146.4253  138.5427  152.4986 C   0  0  0  0  0  0  0  0  0  0  0  0
  147.3885  139.5362  153.1521 C   0  0  1  0  0  0  0  0  0  0  0  0
  146.8052  140.9463  153.3138 C   0  0  0  0  0  0  0  0  0  0  0  0
  147.7833  138.8659  154.4814 C   0  0  2  0  0  0  0  0  0  0  0  0
  149.2386  138.8955  154.6568 N   0  0  0  0  0  0  0  0  0  0  0  0
  149.9878  140.4023  155.0311 S   0  0  0  0  0  0  0  0  0  0  0  0
  151.4380  140.1684  155.1068 O   0  0  0  0  0  0  0  0  0  0  0  0
  149.4530  141.4014  154.0937 O   0  0  0  0  0  0  0  0  0  0  0  0
  149.3562  140.7579  156.7253 C   0  0  0  0  0  0  0  0  0  0  0  0
  150.1252  141.9032  157.3200 C   0  0  0  0  0  0  0  0  0  0  0  0
  151.1727  142.6657  156.7328 C   0  0  0  0  0  0  0  0  0  0  0  0
  151.4967  143.5652  157.7071 C   0  0  0  0  0  0  0  0  0  0  0  0
  150.7163  143.3818  158.8019 O   0  0  0  0  0  0  0  0  0  0  0  0
  149.8428  142.3192  158.5444 N   0  0  0  0  0  0  0  0  0  0  0  0
  147.2738  137.4183  154.3837 C   0  0  0  0  0  0  0  0  0  0  0  0
  144.8042  135.1258  151.1823 H   0  0  0  0  0  0  0  0  0  0  0  0
  146.3258  135.8394  150.6593 H   0  0  0  0  0  0  0  0  0  0  0  0
  144.9239  136.8655  150.9667 H   0  0  0  0  0  0  0  0  0  0  0  0
  145.0229  136.2660  153.4187 H   0  0  0  0  0  0  0  0  0  0  0  0
  146.3602  135.1844  153.0935 H   0  0  0  0  0  0  0  0  0  0  0  0
  146.4432  138.6097  151.4106 H   0  0  0  0  0  0  0  0  0  0  0  0
  145.4031  138.7287  152.8332 H   0  0  0  0  0  0  0  0  0  0  0  0
  148.2681  139.6027  152.5089 H   0  0  0  0  0  0  0  0  0  0  0  0
  145.9116  140.9393  153.9389 H   0  0  0  0  0  0  0  0  0  0  0  0
  146.5328  141.3706  152.3471 H   0  0  0  0  0  0  0  0  0  0  0  0
  147.5303  141.6157  153.7775 H   0  0  0  0  0  0  0  0  0  0  0  0
  147.3006  139.3590  155.3270 H   0  0  0  0  0  0  0  0  0  0  0  0
  149.5553  138.1600  155.2883 H   0  0  0  0  0  0  0  0  0  0  0  0
  148.2942  140.9924  156.6581 H   0  0  0  0  0  0  0  0  0  0  0  0
  149.4614  139.8543  157.3266 H   0  0  0  0  0  0  0  0  0  0  0  0
  151.6180  142.5654  155.7541 H   0  0  0  0  0  0  0  0  0  0  0  0
  152.2237  144.3613  157.7706 H   0  0  0  0  0  0  0  0  0  0  0  0
  146.4052  137.2996  155.0340 H   0  0  0  0  0  0  0  0  0  0  0  0
  148.0133  136.6760  154.6874 H   0  0  0  0  0  0  0  0  0  0  0  0
  147.7059  136.9874  152.4673 H   0  0  0  0  0  0  0  0  0  0  0  0
  1  2  1  0  0  0  0
  1 19  1  0  0  0  0
  1 20  1  0  0  0  0
  1 21  1  0  0  0  0
  2  3  1  0  0  0  0
  2 22  1  0  0  0  0
  2 23  1  0  0  0  0
  3 18  1  0  0  0  0
  3  4  1  0  0  0  0
  3 38  1  0  0  0  0
  4  5  1  0  0  0  0
  4 24  1  0  0  0  0
  4 25  1  0  0  0  0
  5  6  1  0  0  0  0
  5  7  1  0  0  0  0
  5 26  1  0  0  0  0
  6 27  1  0  0  0  0
  6 28  1  0  0  0  0
  6 29  1  0  0  0  0
  7  8  1  0  0  0  0
  7 18  1  0  0  0  0
  7 30  1  0  0  0  0
  8  9  1  0  0  0  0
  8 31  1  0  0  0  0
  9 10  2  0  0  0  0
  9 11  2  0  0  0  0
  9 12  1  0  0  0  0
 12 13  1  0  0  0  0
 12 32  1  0  0  0  0
 12 33  1  0  0  0  0
 13 17  2  0  0  0  0
 13 14  1  0  0  0  0
 14 15  2  0  0  0  0
 14 34  1  0  0  0  0
 15 16  1  0  0  0  0
 15 35  1  0  0  0  0
 16 17  1  0  0  0  0
 18 36  1  0  0  0  0
 18 37  1  0  0  0  0
M  CHG  1   3   1
M  END
> <s_m_source_file>
AV-unprocessed.smi

> <i_m_source_file_index>
703

> <i_lp_mmshare_version>
43012

> <i_f3d_flags>
0

> <s_epik_input>
W0NIM11bQ0gyXU4xW0NIMl1bQ0BASF0oW0NIM10pW0NASF0oW0NIMl0xKVtOSF1TKD1PKSg9TylbQ0gyXWMyW2NIXVtjSF1vbjI=

> <s_epik_cmdline>
J2VwaWtfcHl0aG9uJywgJy1waCcsICc3LjAnLCAnLXRuJywgJzgnLCAnLW1hJywgJzIwMCcsICctbWV0YWxfYmluZGluZycsICctaW1hZScsICc8aW5maWxlLm1hZT4nLCAnLW9tYWUnLCAnPG91dGZpbGUubWFlPic=

> <r_epik_Ionization_Penalty>
0.00324529

> <r_epik_Ionization_Penalty_Charging>
0.0019384

> <r_epik_Ionization_Penalty_Neutral>
0.00130689

> <r_epik_State_Penalty>
0.00218682

> <r_epik_Charging_Adjusted_Penalty>
0.00412522

> <i_epik_Tot_Q>
1

> <i_epik_Tot_abs_Q>
1

> <r_epik_Metal_State_Penalty>
0.310831

> <b_epik_Metal_Only>
0

> <s_lp_Force_Field>
OPLS_2005

> <r_lp_Energy>
19.0456

> <b_lp_Chiralities_Consistent>
1

> <s_lp_Variant>
AV-unprocessed.smi:703-5

> <Gold.Version>
5.8.1

> <Gold.Id.Protein>
6NUR|6NUR_protein|mol2

> <Gold.PLP.Fitness>
36.0580

> <Gold.PLP.PLP>
-27.0337

> <Gold.PLP.part.hbond>
-4.0000

> <Gold.PLP.part.metal>
0.0000

> <Gold.PLP.part.buried>
-1.2739

> <Gold.PLP.part.nonpolar>
-21.2881

> <Gold.PLP.part.repulsive>
0.4555

> <Gold.PLP.ligand.clash>
0.0000

> <Gold.PLP.ligand.torsion>
0.3539

> <Gold.PLP.Chemscore.Hbond>
3.1906

> <Gold.PLP.Chemscore.CHOScore>
0.0000

> <Gold.PLP.Chemscore.Metal>
0.0000

> <Gold.Chemscore.Hbonds>
donor molecule, donor type, donor heavy atom, donor atom, acceptor molecule, acceptor atom, score
      L1  H     3    38       P1  7948  2.00
      P1  H  7989  7998       L1    10  0.55
      P1  H  8011  8017       L1    11  0.65

> <Gold.PLP.Chemscore.Internal.Correction>
0.1602

> <Gold.Rescore>
     Score         DG    S(hbond)    S(metal)    S(lipo)     H(rot)  DE(clash)    DE(int)     intcor
     10.69     -14.49       1.76        0.00      69.08       1.94       0.82       2.99       ----

> <Gold.Chemscore.Fitness>
10.6862

> <Gold.Chemscore.DG>
-14.4876

> <Gold.Chemscore.ZeroCoef>
-5.4800

> <Gold.Chemscore.Hbond>
1.7639

> <Gold.Chemscore.Metal>
0.0000

> <Gold.Chemscore.Lipo>
69.0828

> <Gold.Chemscore.Internal_Hbond>
0.0000

> <Gold.Chemscore.DEClash>
0.8160

> <Gold.Chemscore.DEInternal>
2.9854

> <Gold.Chemscore.Rot>
1.9400

> <Gold.Chemscore.Internal.Correction>
   9.000000E+99

> <Gold.Chemscore.Hbonds>
donor molecule, donor type, donor heavy atom, donor atom, acceptor molecule, acceptor atom, score
      L1  H     3    38       P1  7948  0.97
      P1  H  7989  7998       L1    10  0.03
      P1  H  8011  8017       L1    11  0.62

> <Gold.Chemscore.Hbond.Weighted>
-5.8914

> <Gold.Chemscore.Metal.Weighted>
-0.0000

> <Gold.Chemscore.Lipo.Weighted>
-8.0827

> <Gold.Chemscore.Internal_Hbond.Weighted>
0.0000

> <Gold.Chemscore.DEClash.Weighted>
0.8160

> <Gold.Chemscore.DEInternal.Weighted>
2.9854

> <Gold.Chemscore.Rot.Weighted>
4.9665

> <Gold.Chemscore.Internal.Correction.Weighted>
   9.000000E+99

> <Gold.Protein.RotatedTorsions>
[ 6907 6896 6895 6894 ] final -118.39 input  -60.11 | X-H torsion
[ 7974 7965 7964 7962 ] final   24.64 input  175.53 | X-H torsion
[ 8008 7997 7996 7995 ] final  -83.27 input   59.86 | X-H torsion
[ 10167 10162 10161 10158 ] final   77.94 input  -65.29 | X-H torsion
[ 10718 10713 10712 10709 ] final -125.32 input   66.30 | X-H torsion
[ 10763 10752 10751 10750 ] final  -83.81 input  -60.55 | X-H torsion
[ 11005 11000 10999 10996 ] final   -6.64 input  -57.11 | X-H torsion

> <Gold.Protein.ActiveResidues>
 VAL166  LYS551  ARG553  GLY616  TRP617  ASP618  TYR619  PRO620  LYS621  CYS622 
 ASP623  PHE694  ASN695  SER759  ASP760  ASP761  ALA762  ILE779  LEU786  VAL792 
 PHE793  MET794  SER795  GLU796  ALA797  LYS798  CYS799  TRP800  GLU811  SER814 

> <Gold.Protein.RotatedAtoms>
  150.8216  133.8243  159.3136 H   0  0  0  0  0  0  0  0  0  0  0  0  # atno 6907 bound_to 6896
  151.6000  135.1046  160.0067 H   0  0  0  0  0  0  0  0  0  0  0  0  # atno 6908 bound_to 6896
  152.4304  133.7227  159.6599 H   0  0  0  0  0  0  0  0  0  0  0  0  # atno 6909 bound_to 6896
  146.1928  139.7577  142.8819 H   0  0  0  0  0  0  0  0  0  0  0  0  # atno 7974 bound_to 7965
  154.6173  140.0621  156.9570 H   0  0  0  0  0  0  0  0  0  0  0  0  # atno 8008 bound_to 7997
  155.1875  140.3304  155.4346 H   0  0  0  0  0  0  0  0  0  0  0  0  # atno 8009 bound_to 7997
  156.2411  140.1887  156.6967 H   0  0  0  0  0  0  0  0  0  0  0  0  # atno 8010 bound_to 7997
  139.9762  144.5859  150.7941 H   0  0  0  0  0  0  0  0  0  0  0  0  # atno 10167 bound_to 10162
  156.1665  130.6638  151.0121 H   0  0  0  0  0  0  0  0  0  0  0  0  # atno 10718 bound_to 10713
  154.5922  135.5543  153.7289 H   0  0  0  0  0  0  0  0  0  0  0  0  # atno 10763 bound_to 10752
  153.0121  135.6346  154.1833 H   0  0  0  0  0  0  0  0  0  0  0  0  # atno 10764 bound_to 10752
  154.1774  135.2889  155.3042 H   0  0  0  0  0  0  0  0  0  0  0  0  # atno 10765 bound_to 10752
  140.7041  133.8964  155.8704 H   0  0  0  0  0  0  0  0  0  0  0  0  # atno 11005 bound_to 11000
  145.3740  141.0347  143.3215 LP  0  0  0  0  0  0  0  0  0  0  0  0  # atno 17320 bound_to 7965
  144.8520  139.5308  143.6852 LP  0  0  0  0  0  0  0  0  0  0  0  0  # atno 17321 bound_to 7965
  140.7505  143.2956  151.3214 LP  0  0  0  0  0  0  0  0  0  0  0  0  # atno 17342 bound_to 10162
  139.6444  144.0480  152.2579 LP  0  0  0  0  0  0  0  0  0  0  0  0  # atno 17343 bound_to 10162
  157.6771  131.0847  150.7465 LP  0  0  0  0  0  0  0  0  0  0  0  0  # atno 17370 bound_to 10713
  156.7526  130.4773  149.5453 LP  0  0  0  0  0  0  0  0  0  0  0  0  # atno 17371 bound_to 10713
  141.0139  134.0983  157.4193 LP  0  0  0  0  0  0  0  0  0  0  0  0  # atno 17394 bound_to 11000
  139.8889  135.0101  156.6646 LP  0  0  0  0  0  0  0  0  0  0  0  0  # atno 17395 bound_to 11000

$$$$
