AV-unprocessed.smi:1681|AV-procd|sdf|6741|dock4
  -GOLD-   22720 7493D 1   1.00000     0.00000
 Structure written by MMmdl.
 40 41  0  0  0  0  0  0  0  0  1 V2000
  151.2501  132.7623  155.7796 C   0  0  0  0  0  0  0  0  0  0  0  0
  151.3982  134.2845  155.8383 C   0  0  0  0  0  0  0  0  0  0  0  0
  152.2508  134.7535  156.5927 O   0  0  0  0  0  0  0  0  0  0  0  0
  150.5986  135.0589  155.0659 N   0  0  0  0  0  0  0  0  0  0  0  0
  150.5716  136.5273  155.0768 C   0  0  0  0  0  0  0  0  0  0  0  0
  149.2569  136.9916  155.7285 C   0  0  0  0  0  0  0  0  0  0  0  0
  148.0392  136.3923  154.9988 C   0  0  0  0  0  0  0  0  0  0  0  0
  148.1651  134.8588  154.8380 C   0  0  1  0  0  0  0  0  0  0  0  0
  147.0148  134.2926  153.9945 C   0  0  0  0  0  0  0  0  0  0  0  0
  146.2544  133.4552  154.4805 O   0  0  0  0  0  0  0  0  0  0  0  0
  146.9157  134.7695  152.7414 N   0  0  0  0  0  0  0  0  0  0  0  0
  145.9589  134.4164  151.7578 C   0  0  0  0  0  0  0  0  0  0  0  0
  145.1407  135.2561  150.9501 C   0  0  0  0  0  0  0  0  0  0  0  0
  144.3673  134.5379  150.1496 N   0  0  0  0  0  0  0  0  0  0  0  0
  144.6738  133.2456  150.4272 N   0  0  0  0  0  0  0  0  0  0  0  0
  143.9937  132.1760  149.7187 C   0  0  0  0  0  0  0  0  0  0  0  0
  143.4189  132.6687  148.3894 C   0  0  0  0  0  0  0  0  0  0  0  0
  142.1744  132.2910  148.0849 N   0  0  0  0  0  0  0  0  0  0  0  0
  144.0898  133.3831  147.6477 O   0  0  0  0  0  0  0  0  0  0  0  0
  145.6453  133.1389  151.4032 C   0  0  0  0  0  0  0  0  0  0  0  0
  149.5358  134.5035  154.2180 C   0  0  0  0  0  0  0  0  0  0  0  0
  151.4180  132.3951  154.7666 H   0  0  0  0  0  0  0  0  0  0  0  0
  150.2562  132.4578  156.1086 H   0  0  0  0  0  0  0  0  0  0  0  0
  151.9783  132.2800  156.4326 H   0  0  0  0  0  0  0  0  0  0  0  0
  151.4196  136.9777  155.5907 H   0  0  0  0  0  0  0  0  0  0  0  0
  150.6273  136.8929  154.0503 H   0  0  0  0  0  0  0  0  0  0  0  0
  149.2425  136.6876  156.7761 H   0  0  0  0  0  0  0  0  0  0  0  0
  149.1974  138.0802  155.7211 H   0  0  0  0  0  0  0  0  0  0  0  0
  147.1256  136.6431  155.5391 H   0  0  0  0  0  0  0  0  0  0  0  0
  147.9548  136.8629  154.0180 H   0  0  0  0  0  0  0  0  0  0  0  0
  148.1182  134.4085  155.8315 H   0  0  0  0  0  0  0  0  0  0  0  0
  147.6027  135.4550  152.4623 H   0  0  0  0  0  0  0  0  0  0  0  0
  145.0750  136.3330  150.9115 H   0  0  0  0  0  0  0  0  0  0  0  0
  144.6856  131.3500  149.5447 H   0  0  0  0  0  0  0  0  0  0  0  0
  143.1918  131.7941  150.3520 H   0  0  0  0  0  0  0  0  0  0  0  0
  141.7525  132.5987  147.2203 H   0  0  0  0  0  0  0  0  0  0  0  0
  141.6573  131.7044  148.7239 H   0  0  0  0  0  0  0  0  0  0  0  0
  146.0142  132.1858  151.7527 H   0  0  0  0  0  0  0  0  0  0  0  0
  149.6260  134.9246  153.2151 H   0  0  0  0  0  0  0  0  0  0  0  0
  149.6251  133.4231  154.0916 H   0  0  0  0  0  0  0  0  0  0  0  0
  1  2  1  0  0  0  0
  1 22  1  0  0  0  0
  1 23  1  0  0  0  0
  1 24  1  0  0  0  0
  2  3  2  0  0  0  0
  2  4  1  0  0  0  0
  4 21  1  0  0  0  0
  4  5  1  0  0  0  0
  5  6  1  0  0  0  0
  5 25  1  0  0  0  0
  5 26  1  0  0  0  0
  6  7  1  0  0  0  0
  6 27  1  0  0  0  0
  6 28  1  0  0  0  0
  7  8  1  0  0  0  0
  7 29  1  0  0  0  0
  7 30  1  0  0  0  0
  8  9  1  0  0  0  0
  8 21  1  0  0  0  0
  8 31  1  0  0  0  0
  9 10  2  0  0  0  0
  9 11  1  0  0  0  0
 11 12  1  0  0  0  0
 11 32  1  0  0  0  0
 12 20  2  0  0  0  0
 12 13  1  0  0  0  0
 13 14  2  0  0  0  0
 13 33  1  0  0  0  0
 14 15  1  0  0  0  0
 15 16  1  0  0  0  0
 15 20  1  0  0  0  0
 16 17  1  0  0  0  0
 16 34  1  0  0  0  0
 16 35  1  0  0  0  0
 17 18  1  0  0  0  0
 17 19  2  0  0  0  0
 18 36  1  0  0  0  0
 18 37  1  0  0  0  0
 20 38  1  0  0  0  0
 21 39  1  0  0  0  0
 21 40  1  0  0  0  0
M  END
> <s_m_source_file>
AV-unprocessed.smi

> <i_m_source_file_index>
1681

> <i_lp_mmshare_version>
43012

> <i_f3d_flags>
0

> <s_epik_input>
W0NIM11DKD1PKU4xW0NIMl1bQ0gyXVtDSDJdW0NASF0oW0NIMl0xKUMoPU8pW05IXWMyW2NIXW5uKFtjSF0yKVtDSDJdQyg9TylbTkgyXQ==

> <s_epik_cmdline>
J2VwaWtfcHl0aG9uJywgJy1waCcsICc3LjAnLCAnLXRuJywgJzgnLCAnLW1hJywgJzIwMCcsICctbWV0YWxfYmluZGluZycsICctaW1hZScsICc8aW5maWxlLm1hZT4nLCAnLW9tYWUnLCAnPG91dGZpbGUubWFlPic=

> <r_lp_tautomer_probability>
1

> <r_epik_Ionization_Penalty>
6.05275e-06

> <r_epik_Ionization_Penalty_Charging>
0

> <r_epik_Ionization_Penalty_Neutral>
6.05275e-06

> <r_epik_State_Penalty>
-0

> <r_epik_Charging_Adjusted_Penalty>
0

> <i_epik_Tot_Q>
0

> <i_epik_Tot_abs_Q>
0

> <r_epik_Metal_State_Penalty>
-0

> <b_epik_Metal_Only>
0

> <s_lp_Force_Field>
OPLS_2005

> <r_lp_Energy>
29.0931

> <b_lp_Chiralities_Consistent>
1

> <s_lp_Variant>
AV-unprocessed.smi:1681-1

> <Gold.Version>
5.8.1

> <Gold.Id.Protein>
6NUR|6NUR_protein|mol2

> <Gold.PLP.Fitness>
44.6459

> <Gold.PLP.PLP>
-31.9832

> <Gold.PLP.part.hbond>
-6.4227

> <Gold.PLP.part.metal>
0.0000

> <Gold.PLP.part.buried>
-4.1578

> <Gold.PLP.part.nonpolar>
-25.3293

> <Gold.PLP.part.repulsive>
5.1846

> <Gold.PLP.ligand.clash>
0.0000

> <Gold.PLP.ligand.torsion>
0.9661

> <Gold.PLP.Chemscore.Hbond>
4.2363

> <Gold.PLP.Chemscore.CHOScore>
0.6201

> <Gold.PLP.Chemscore.Metal>
0.0000

> <Gold.Chemscore.Hbonds>
donor molecule, donor type, donor heavy atom, donor atom, acceptor molecule, acceptor atom, score
      L1  H    11    32       P1  7948  1.00
      L1  H    18    36       P1 10195  1.00
      L1  H    18    37       P1 10952  1.00
      P1  H  7918  7932       L1    19  0.67
      P1  H 10752 10764       L1     3  0.78
      L1  C    13    33       P1 10171  0.39

> <Gold.PLP.Chemscore.Internal.Correction>
0.0257

> <Gold.Rescore>
     Score         DG    S(hbond)    S(metal)    S(lipo)     H(rot)  DE(clash)    DE(int)     intcor
     13.47     -18.02       3.63        0.00      46.40       1.96       1.85       2.70       ----

> <Gold.Chemscore.Fitness>
13.4688

> <Gold.Chemscore.DG>
-18.0244

> <Gold.Chemscore.ZeroCoef>
-5.4800

> <Gold.Chemscore.Hbond>
3.6339

> <Gold.Chemscore.Metal>
0.0000

> <Gold.Chemscore.Lipo>
46.4047

> <Gold.Chemscore.Internal_Hbond>
0.0000

> <Gold.Chemscore.DEClash>
1.8523

> <Gold.Chemscore.DEInternal>
2.7034

> <Gold.Chemscore.Rot>
1.9617

> <Gold.Chemscore.Internal.Correction>
   9.000000E+99

> <Gold.Chemscore.Hbonds>
donor molecule, donor type, donor heavy atom, donor atom, acceptor molecule, acceptor atom, score
      L1  H    11    32       P1  7948  1.00
      L1  H    18    36       P1 10195  0.93
      L1  H    18    37       P1 10952  1.00
      P1  H  7918  7932       L1    19  0.68
      P1  H 10752 10764       L1     3  0.13

> <Gold.Chemscore.Hbond.Weighted>
-12.1371

> <Gold.Chemscore.Metal.Weighted>
-0.0000

> <Gold.Chemscore.Lipo.Weighted>
-5.4294

> <Gold.Chemscore.Internal_Hbond.Weighted>
0.0000

> <Gold.Chemscore.DEClash.Weighted>
1.8523

> <Gold.Chemscore.DEInternal.Weighted>
2.7034

> <Gold.Chemscore.Rot.Weighted>
5.0220

> <Gold.Chemscore.Internal.Correction.Weighted>
   9.000000E+99

> <Gold.Protein.RotatedTorsions>
[ 6907 6896 6895 6894 ] final   86.75 input  -60.11 | X-H torsion
[ 7974 7965 7964 7962 ] final  162.96 input  175.53 | X-H torsion
[ 8008 7997 7996 7995 ] final  109.81 input   59.86 | X-H torsion
[ 10167 10162 10161 10158 ] final   94.31 input  -65.29 | X-H torsion
[ 10718 10713 10712 10709 ] final   -4.71 input   66.30 | X-H torsion
[ 10763 10752 10751 10750 ] final   -9.38 input  -60.55 | X-H torsion
[ 11005 11000 10999 10996 ] final   36.50 input  -57.11 | X-H torsion

> <Gold.Protein.ActiveResidues>
 VAL166  LYS551  ARG553  GLY616  TRP617  ASP618  TYR619  PRO620  LYS621  CYS622 
 ASP623  PHE694  ASN695  SER759  ASP760  ASP761  ALA762  ILE779  LEU786  VAL792 
 PHE793  MET794  SER795  GLU796  ALA797  LYS798  CYS799  TRP800  GLU811  SER814 

> <Gold.Protein.RotatedAtoms>
  152.5400  134.2383  159.8851 H   0  0  0  0  0  0  0  0  0  0  0  0  # atno 6907 bound_to 6896
  151.2352  133.4422  159.2613 H   0  0  0  0  0  0  0  0  0  0  0  0  # atno 6908 bound_to 6896
  151.0678  134.9792  159.8349 H   0  0  0  0  0  0  0  0  0  0  0  0  # atno 6909 bound_to 6896
  144.7612  139.8114  143.6332 H   0  0  0  0  0  0  0  0  0  0  0  0  # atno 7974 bound_to 7965
  156.2007  140.3050  155.9521 H   0  0  0  0  0  0  0  0  0  0  0  0  # atno 8008 bound_to 7997
  155.2960  140.0444  157.3043 H   0  0  0  0  0  0  0  0  0  0  0  0  # atno 8009 bound_to 7997
  154.5567  140.2308  155.8408 H   0  0  0  0  0  0  0  0  0  0  0  0  # atno 8010 bound_to 7997
  139.8096  144.6779  150.9657 H   0  0  0  0  0  0  0  0  0  0  0  0  # atno 10167 bound_to 10162
  156.7573  130.5258  149.5792 H   0  0  0  0  0  0  0  0  0  0  0  0  # atno 10718 bound_to 10713
  153.4540  135.7015  153.6091 H   0  0  0  0  0  0  0  0  0  0  0  0  # atno 10763 bound_to 10752
  153.4414  135.3779  155.2230 H   0  0  0  0  0  0  0  0  0  0  0  0  # atno 10764 bound_to 10752
  154.8728  135.3975  154.3956 H   0  0  0  0  0  0  0  0  0  0  0  0  # atno 10765 bound_to 10752
  140.2319  134.3517  155.7960 H   0  0  0  0  0  0  0  0  0  0  0  0  # atno 11005 bound_to 11000
  146.1676  139.4814  142.9948 LP  0  0  0  0  0  0  0  0  0  0  0  0  # atno 17320 bound_to 7965
  145.6614  141.0239  143.1707 LP  0  0  0  0  0  0  0  0  0  0  0  0  # atno 17321 bound_to 7965
  140.7818  143.4198  151.0859 LP  0  0  0  0  0  0  0  0  0  0  0  0  # atno 17342 bound_to 10162
  139.7866  143.8279  152.3146 LP  0  0  0  0  0  0  0  0  0  0  0  0  # atno 17343 bound_to 10162
  156.1362  130.6213  151.0404 LP  0  0  0  0  0  0  0  0  0  0  0  0  # atno 17370 bound_to 10713
  157.6750  131.0852  150.7516 LP  0  0  0  0  0  0  0  0  0  0  0  0  # atno 17371 bound_to 10713
  141.2217  133.7250  156.8746 LP  0  0  0  0  0  0  0  0  0  0  0  0  # atno 17394 bound_to 11000
  140.1741  134.9079  157.2870 LP  0  0  0  0  0  0  0  0  0  0  0  0  # atno 17395 bound_to 11000

$$$$
