AV-unprocessed.smi:1334|AV-procd|sdf|5492|dock2
  -GOLD-   22720 5 73D 1   1.00000     0.00000
 Structure written by MMmdl.
 38 39  0  0  0  0  0  0  0  0  1 V2000
  147.9506  140.7448  153.2508 C   0  0  0  0  0  0  0  0  0  0  0  0
  148.2764  141.7491  154.3745 C   0  0  2  0  0  0  0  0  0  0  0  0
  149.5611  141.3783  155.1287 C   0  0  0  0  0  0  0  0  0  0  0  0
  150.1822  140.3565  154.8338 O   0  0  0  0  0  0  0  0  0  0  0  0
  149.9345  142.2118  156.1133 N   0  0  0  0  0  0  0  0  0  0  0  0
  151.0670  142.0103  157.0138 C   0  0  0  0  0  0  0  0  0  0  0  0
  151.5555  143.3371  157.6266 C   0  0  0  0  0  0  0  0  0  0  0  0
  152.1741  143.2038  159.0122 C   0  0  0  0  0  0  0  0  0  0  0  0
  153.1479  142.3086  159.2707 C   0  0  0  0  0  0  0  0  0  0  0  0
  153.7711  142.0913  160.6383 C   0  0  0  0  0  0  0  0  0  0  0  0
  152.9687  142.7623  161.7654 C   0  0  0  0  0  0  0  0  0  0  0  0
  152.4925  144.1606  161.3550 C   0  0  0  0  0  0  0  0  0  0  0  0
  151.6016  144.1039  160.1018 C   0  0  0  0  0  0  0  0  0  0  0  0
  147.1745  141.9059  155.3167 N   0  0  0  0  0  0  0  0  0  0  0  0
  145.8624  141.7452  155.1340 C   0  0  0  0  0  0  0  0  0  0  0  0
  145.1314  142.0133  156.2069 N   0  0  0  0  0  0  0  0  0  0  0  0
  146.1227  142.3770  157.0729 C   0  0  0  0  0  0  0  0  0  0  0  0
  147.3634  142.3412  156.5879 N   0  0  0  0  0  0  0  0  0  0  0  0
  148.7657  140.6873  152.5286 H   0  0  0  0  0  0  0  0  0  0  0  0
  147.0550  141.0479  152.7078 H   0  0  0  0  0  0  0  0  0  0  0  0
  147.7794  139.7380  153.6339 H   0  0  0  0  0  0  0  0  0  0  0  0
  148.4318  142.7208  153.9023 H   0  0  0  0  0  0  0  0  0  0  0  0
  149.3658  143.0293  156.2795 H   0  0  0  0  0  0  0  0  0  0  0  0
  150.8209  141.3091  157.8123 H   0  0  0  0  0  0  0  0  0  0  0  0
  151.8770  141.5467  156.4504 H   0  0  0  0  0  0  0  0  0  0  0  0
  152.2819  143.8051  156.9617 H   0  0  0  0  0  0  0  0  0  0  0  0
  150.7123  144.0270  157.6833 H   0  0  0  0  0  0  0  0  0  0  0  0
  153.5346  141.6905  158.4736 H   0  0  0  0  0  0  0  0  0  0  0  0
  153.8518  141.0213  160.8299 H   0  0  0  0  0  0  0  0  0  0  0  0
  154.7873  142.4828  160.6130 H   0  0  0  0  0  0  0  0  0  0  0  0
  152.1006  142.1482  162.0087 H   0  0  0  0  0  0  0  0  0  0  0  0
  153.5728  142.8160  162.6716 H   0  0  0  0  0  0  0  0  0  0  0  0
  151.9516  144.6333  162.1752 H   0  0  0  0  0  0  0  0  0  0  0  0
  153.3598  144.7908  161.1543 H   0  0  0  0  0  0  0  0  0  0  0  0
  151.4628  145.1158  159.7227 H   0  0  0  0  0  0  0  0  0  0  0  0
  150.6114  143.7290  160.3627 H   0  0  0  0  0  0  0  0  0  0  0  0
  145.4322  141.4286  154.1951 H   0  0  0  0  0  0  0  0  0  0  0  0
  145.9230  142.6853  158.0884 H   0  0  0  0  0  0  0  0  0  0  0  0
  1  2  1  0  0  0  0
  1 19  1  0  0  0  0
  1 20  1  0  0  0  0
  1 21  1  0  0  0  0
  2  3  1  0  0  0  0
  2 14  1  0  0  0  0
  2 22  1  0  0  0  0
  3  4  2  0  0  0  0
  3  5  1  0  0  0  0
  5  6  1  0  0  0  0
  5 23  1  0  0  0  0
  6  7  1  0  0  0  0
  6 24  1  0  0  0  0
  6 25  1  0  0  0  0
  7  8  1  0  0  0  0
  7 26  1  0  0  0  0
  7 27  1  0  0  0  0
  8 13  1  0  0  0  0
  8  9  2  0  0  0  0
  9 10  1  0  0  0  0
  9 28  1  0  0  0  0
 10 11  1  0  0  0  0
 10 29  1  0  0  0  0
 10 30  1  0  0  0  0
 11 12  1  0  0  0  0
 11 31  1  0  0  0  0
 11 32  1  0  0  0  0
 12 13  1  0  0  0  0
 12 33  1  0  0  0  0
 12 34  1  0  0  0  0
 13 35  1  0  0  0  0
 13 36  1  0  0  0  0
 14 18  1  0  0  0  0
 14 15  1  0  0  0  0
 15 16  2  0  0  0  0
 15 37  1  0  0  0  0
 16 17  1  0  0  0  0
 17 18  2  0  0  0  0
 17 38  1  0  0  0  0
M  END
> <s_m_source_file>
AV-unprocessed.smi

> <i_m_source_file_index>
1334

> <i_lp_mmshare_version>
43012

> <i_f3d_flags>
0

> <s_epik_input>
bjFbY0hdbltjSF1uMVtDQEhdKFtDSDNdKUMoPU8pW05IXVtDSDJdW0NIMl1DMj1bQ0hdW0NIMl1bQ0gyXVtDSDJdW0NIMl0y

> <s_epik_cmdline>
J2VwaWtfcHl0aG9uJywgJy1waCcsICc3LjAnLCAnLXRuJywgJzgnLCAnLW1hJywgJzIwMCcsICctbWV0YWxfYmluZGluZycsICctaW1hZScsICc8aW5maWxlLm1hZT4nLCAnLW9tYWUnLCAnPG91dGZpbGUubWFlPic=

> <r_lp_tautomer_probability>
1

> <r_epik_Ionization_Penalty>
1.26383e-05

> <r_epik_Ionization_Penalty_Charging>
0

> <r_epik_Ionization_Penalty_Neutral>
1.26383e-05

> <r_epik_State_Penalty>
-0

> <r_epik_Charging_Adjusted_Penalty>
0

> <i_epik_Tot_Q>
0

> <i_epik_Tot_abs_Q>
0

> <r_epik_Metal_State_Penalty>
-0

> <b_epik_Metal_Only>
0

> <s_lp_Force_Field>
OPLS_2005

> <r_lp_Energy>
12.0281

> <b_lp_Chiralities_Consistent>
1

> <s_lp_Variant>
AV-unprocessed.smi:1334-1

> <Gold.Version>
5.8.1

> <Gold.Id.Protein>
6NUR|6NUR_protein|mol2

> <Gold.PLP.Fitness>
47.9576

> <Gold.PLP.PLP>
-41.4911

> <Gold.PLP.part.hbond>
-2.0000

> <Gold.PLP.part.metal>
0.0000

> <Gold.PLP.part.buried>
-2.3383

> <Gold.PLP.part.nonpolar>
-38.3516

> <Gold.PLP.part.repulsive>
1.2325

> <Gold.PLP.ligand.clash>
0.0000

> <Gold.PLP.ligand.torsion>
1.1478

> <Gold.PLP.Chemscore.Hbond>
1.8800

> <Gold.PLP.Chemscore.CHOScore>
1.0000

> <Gold.PLP.Chemscore.Metal>
0.0000

> <Gold.Chemscore.Hbonds>
donor molecule, donor type, donor heavy atom, donor atom, acceptor molecule, acceptor atom, score
      L1  H     5    23       P1  8028  0.91
      P1  H  7989  7998       L1     4  0.99
      L1  C    15    37       P1 10175  0.79

> <Gold.PLP.Chemscore.Internal.Correction>
0.1221

> <Gold.Rescore>
     Score         DG    S(hbond)    S(metal)    S(lipo)     H(rot)  DE(clash)    DE(int)     intcor
     12.96     -17.23       1.62        0.00     106.62       2.40       1.65       2.62       ----

> <Gold.Chemscore.Fitness>
12.9626

> <Gold.Chemscore.DG>
-17.2282

> <Gold.Chemscore.ZeroCoef>
-5.4800

> <Gold.Chemscore.Hbond>
1.6229

> <Gold.Chemscore.Metal>
0.0000

> <Gold.Chemscore.Lipo>
106.6219

> <Gold.Chemscore.Internal_Hbond>
0.0000

> <Gold.Chemscore.DEClash>
1.6497

> <Gold.Chemscore.DEInternal>
2.6160

> <Gold.Chemscore.Rot>
2.4011

> <Gold.Chemscore.Internal.Correction>
   9.000000E+99

> <Gold.Chemscore.Hbonds>
donor molecule, donor type, donor heavy atom, donor atom, acceptor molecule, acceptor atom, score
      L1  H     5    23       P1  8028  0.90
      P1  H  7989  7998       L1     4  0.53

> <Gold.Chemscore.Hbond.Weighted>
-5.4203

> <Gold.Chemscore.Metal.Weighted>
-0.0000

> <Gold.Chemscore.Lipo.Weighted>
-12.4748

> <Gold.Chemscore.Internal_Hbond.Weighted>
0.0000

> <Gold.Chemscore.DEClash.Weighted>
1.6497

> <Gold.Chemscore.DEInternal.Weighted>
2.6160

> <Gold.Chemscore.Rot.Weighted>
6.1469

> <Gold.Chemscore.Internal.Correction.Weighted>
   9.000000E+99

> <Gold.Protein.RotatedTorsions>
[ 6907 6896 6895 6894 ] final   59.70 input  -60.11 | X-H torsion
[ 7974 7965 7964 7962 ] final   22.88 input  175.53 | X-H torsion
[ 8008 7997 7996 7995 ] final   44.19 input   59.86 | X-H torsion
[ 10167 10162 10161 10158 ] final  -60.22 input  -65.29 | X-H torsion
[ 10718 10713 10712 10709 ] final -146.84 input   66.30 | X-H torsion
[ 10763 10752 10751 10750 ] final -169.48 input  -60.55 | X-H torsion
[ 11005 11000 10999 10996 ] final    0.58 input  -57.11 | X-H torsion

> <Gold.Protein.ActiveResidues>
 VAL166  LYS551  ARG553  GLY616  TRP617  ASP618  TYR619  PRO620  LYS621  CYS622 
 ASP623  PHE694  ASN695  SER759  ASP760  ASP761  ALA762  ILE779  LEU786  VAL792 
 PHE793  MET794  SER795  GLU796  ALA797  LYS798  CYS799  TRP800  GLU811  SER814 

> <Gold.Protein.RotatedAtoms>
  152.3938  134.6398  160.0096 H   0  0  0  0  0  0  0  0  0  0  0  0  # atno 6907 bound_to 6896
  151.6624  133.3311  159.3185 H   0  0  0  0  0  0  0  0  0  0  0  0  # atno 6908 bound_to 6896
  150.7849  134.6870  159.6520 H   0  0  0  0  0  0  0  0  0  0  0  0  # atno 6909 bound_to 6896
  146.2009  139.7823  142.8762 H   0  0  0  0  0  0  0  0  0  0  0  0  # atno 7974 bound_to 7965
  155.3151  140.3393  155.4242 H   0  0  0  0  0  0  0  0  0  0  0  0  # atno 8008 bound_to 7997
  156.1936  140.1707  156.8080 H   0  0  0  0  0  0  0  0  0  0  0  0  # atno 8009 bound_to 7997
  154.5472  140.0713  156.8592 H   0  0  0  0  0  0  0  0  0  0  0  0  # atno 8010 bound_to 7997
  140.6085  143.2380  151.5765 H   0  0  0  0  0  0  0  0  0  0  0  0  # atno 10167 bound_to 10162
  156.3999  130.7929  151.2138 H   0  0  0  0  0  0  0  0  0  0  0  0  # atno 10718 bound_to 10713
  154.6519  135.2912  154.9976 H   0  0  0  0  0  0  0  0  0  0  0  0  # atno 10763 bound_to 10752
  154.1066  135.6569  153.4881 H   0  0  0  0  0  0  0  0  0  0  0  0  # atno 10764 bound_to 10752
  153.0381  135.5255  154.7430 H   0  0  0  0  0  0  0  0  0  0  0  0  # atno 10765 bound_to 10752
  140.6250  133.9627  155.8244 H   0  0  0  0  0  0  0  0  0  0  0  0  # atno 11005 bound_to 11000
  145.3486  141.0303  143.3351 LP  0  0  0  0  0  0  0  0  0  0  0  0  # atno 17320 bound_to 7965
  144.8682  139.5077  143.6780 LP  0  0  0  0  0  0  0  0  0  0  0  0  # atno 17321 bound_to 7965
  139.5343  144.2826  152.1217 LP  0  0  0  0  0  0  0  0  0  0  0  0  # atno 17342 bound_to 10162
  140.2021  144.4648  150.6426 LP  0  0  0  0  0  0  0  0  0  0  0  0  # atno 17343 bound_to 10162
  157.7503  131.0290  150.4073 LP  0  0  0  0  0  0  0  0  0  0  0  0  # atno 17370 bound_to 10713
  156.4350  130.3980  149.6735 LP  0  0  0  0  0  0  0  0  0  0  0  0  # atno 17371 bound_to 10713
  141.0716  134.0197  157.3518 LP  0  0  0  0  0  0  0  0  0  0  0  0  # atno 17394 bound_to 11000
  139.9138  135.0194  156.7800 LP  0  0  0  0  0  0  0  0  0  0  0  0  # atno 17395 bound_to 11000

$$$$
