AV-unprocessed.smi:1967|AV-procd|sdf|7954|dock5
  -GOLD-   2272010123D 1   1.00000     0.00000
 Structure written by MMmdl.
 37 38  0  0  0  0  0  0  0  0  1 V2000
  153.2062  139.1248  155.3574 O   0  0  0  0  0  0  0  0  0  0  0  0
  152.2820  138.3047  156.1554 S   0  0  0  0  0  0  0  0  0  0  0  0
  152.5155  136.8640  156.3398 O   0  0  0  0  0  0  0  0  0  0  0  0
  152.1203  139.0179  157.7144 N   0  0  0  0  0  0  0  0  0  0  0  0
  151.7400  140.4270  157.8004 C   0  0  0  0  0  0  0  0  0  0  0  0
  152.1950  141.0373  159.1356 C   0  0  0  0  0  0  0  0  0  0  0  0
  151.9354  142.5311  159.2292 C   0  0  0  0  0  0  0  0  0  0  0  0
  152.2380  143.2437  160.4096 C   0  0  0  0  0  0  0  0  0  0  0  0
  151.9859  144.6290  160.4406 C   0  0  0  0  0  0  0  0  0  0  0  0
  151.4434  145.2452  159.2964 C   0  0  0  0  0  0  0  0  0  0  0  0
  151.1772  144.4456  158.1670 C   0  0  0  0  0  0  0  0  0  0  0  0
  151.4165  143.1170  158.1265 N   0  0  0  0  0  0  0  0  0  0  0  0
  150.6721  138.5449  155.5605 N   0  0  0  0  0  0  0  0  0  0  0  0
  150.4752  139.6103  154.5534 C   0  0  0  0  0  0  0  0  0  0  0  0
  148.9872  139.9519  154.3704 C   0  0  0  0  0  0  0  0  0  0  0  0
  148.1696  138.7024  154.0344 C   0  0  0  0  0  0  0  0  0  0  0  0
  148.3803  137.6556  155.1313 C   0  0  0  0  0  0  0  0  0  0  0  0
  149.8723  137.3286  155.3111 C   0  0  0  0  0  0  0  0  0  0  0  0
  152.9061  138.7858  158.3215 H   0  0  0  0  0  0  0  0  0  0  0  0
  152.1747  140.9700  156.9604 H   0  0  0  0  0  0  0  0  0  0  0  0
  150.6565  140.5052  157.7071 H   0  0  0  0  0  0  0  0  0  0  0  0
  151.6751  140.5415  159.9565 H   0  0  0  0  0  0  0  0  0  0  0  0
  153.2569  140.8420  159.2910 H   0  0  0  0  0  0  0  0  0  0  0  0
  152.6567  142.7424  161.2701 H   0  0  0  0  0  0  0  0  0  0  0  0
  152.2054  145.2083  161.3254 H   0  0  0  0  0  0  0  0  0  0  0  0
  151.2358  146.3049  159.2837 H   0  0  0  0  0  0  0  0  0  0  0  0
  150.7609  144.8850  157.2727 H   0  0  0  0  0  0  0  0  0  0  0  0
  151.0164  140.5085  154.8487 H   0  0  0  0  0  0  0  0  0  0  0  0
  150.9057  139.2831  153.6061 H   0  0  0  0  0  0  0  0  0  0  0  0
  148.6018  140.4092  155.2828 H   0  0  0  0  0  0  0  0  0  0  0  0
  148.8724  140.6945  153.5803 H   0  0  0  0  0  0  0  0  0  0  0  0
  147.1121  138.9535  153.9480 H   0  0  0  0  0  0  0  0  0  0  0  0
  148.4797  138.3009  153.0687 H   0  0  0  0  0  0  0  0  0  0  0  0
  147.9716  138.0239  156.0734 H   0  0  0  0  0  0  0  0  0  0  0  0
  147.8282  136.7470  154.8895 H   0  0  0  0  0  0  0  0  0  0  0  0
  150.2609  136.8256  154.4246 H   0  0  0  0  0  0  0  0  0  0  0  0
  149.9899  136.6354  156.1440 H   0  0  0  0  0  0  0  0  0  0  0  0
  1  2  2  0  0  0  0
  2  3  2  0  0  0  0
  2  4  1  0  0  0  0
  2 13  1  0  0  0  0
  4  5  1  0  0  0  0
  4 19  1  0  0  0  0
  5  6  1  0  0  0  0
  5 20  1  0  0  0  0
  5 21  1  0  0  0  0
  6  7  1  0  0  0  0
  6 22  1  0  0  0  0
  6 23  1  0  0  0  0
  7 12  1  0  0  0  0
  7  8  2  0  0  0  0
  8  9  1  0  0  0  0
  8 24  1  0  0  0  0
  9 10  2  0  0  0  0
  9 25  1  0  0  0  0
 10 11  1  0  0  0  0
 10 26  1  0  0  0  0
 11 12  2  0  0  0  0
 11 27  1  0  0  0  0
 13 18  1  0  0  0  0
 13 14  1  0  0  0  0
 14 15  1  0  0  0  0
 14 28  1  0  0  0  0
 14 29  1  0  0  0  0
 15 16  1  0  0  0  0
 15 30  1  0  0  0  0
 15 31  1  0  0  0  0
 16 17  1  0  0  0  0
 16 32  1  0  0  0  0
 16 33  1  0  0  0  0
 17 18  1  0  0  0  0
 17 34  1  0  0  0  0
 17 35  1  0  0  0  0
 18 36  1  0  0  0  0
 18 37  1  0  0  0  0
M  END
> <s_m_source_file>
AV-unprocessed.smi

> <i_m_source_file_index>
1967

> <i_lp_mmshare_version>
43012

> <i_f3d_flags>
0

> <s_epik_input>
W0NIMl0xW0NIMl1bQ0gyXVtDSDJdW0NIMl1OMVMoPU8pKD1PKVtOSF1bQ0gyXVtDSDJdYzJbY0hdW2NIXVtjSF1bY0hdbjI=

> <s_epik_cmdline>
J2VwaWtfcHl0aG9uJywgJy1waCcsICc3LjAnLCAnLXRuJywgJzgnLCAnLW1hJywgJzIwMCcsICctbWV0YWxfYmluZGluZycsICctaW1hZScsICc8aW5maWxlLm1hZT4nLCAnLW9tYWUnLCAnPG91dGZpbGUubWFlPic=

> <r_epik_Ionization_Penalty>
0.0252758

> <r_epik_Ionization_Penalty_Charging>
0

> <r_epik_Ionization_Penalty_Neutral>
0.0252758

> <r_epik_State_Penalty>
0.0138562

> <r_epik_Charging_Adjusted_Penalty>
0.0138562

> <i_epik_Tot_Q>
0

> <i_epik_Tot_abs_Q>
0

> <r_epik_Metal_State_Penalty>
0.204365

> <b_epik_Metal_Only>
0

> <s_lp_Force_Field>
OPLS_2005

> <r_lp_Energy>
9.86341

> <b_lp_Chiralities_Consistent>
1

> <s_lp_Variant>
AV-unprocessed.smi:1967-1

> <Gold.Version>
5.8.1

> <Gold.Id.Protein>
6NUR|6NUR_protein|mol2

> <Gold.PLP.Fitness>
43.2474

> <Gold.PLP.PLP>
-34.5983

> <Gold.PLP.part.hbond>
-2.0000

> <Gold.PLP.part.metal>
0.0000

> <Gold.PLP.part.buried>
-4.4404

> <Gold.PLP.part.nonpolar>
-28.8657

> <Gold.PLP.part.repulsive>
0.0934

> <Gold.PLP.ligand.clash>
0.0000

> <Gold.PLP.ligand.torsion>
0.5431

> <Gold.PLP.Chemscore.Hbond>
1.9920

> <Gold.PLP.Chemscore.CHOScore>
1.0000

> <Gold.PLP.Chemscore.Metal>
0.0000

> <Gold.Chemscore.Hbonds>
donor molecule, donor type, donor heavy atom, donor atom, acceptor molecule, acceptor atom, score
      P1  H  7997  8009       L1     1  1.00
      P1  H 10752 10765       L1     3  0.98
      L1  C    11    27       P1  8028  1.00

> <Gold.PLP.Chemscore.Internal.Correction>
0.7593

> <Gold.Rescore>
     Score         DG    S(hbond)    S(metal)    S(lipo)     H(rot)  DE(clash)    DE(int)     intcor
     18.34     -18.85       1.94        0.00      95.74       1.69       0.01       0.50       ----

> <Gold.Chemscore.Fitness>
18.3381

> <Gold.Chemscore.DG>
-18.8525

> <Gold.Chemscore.ZeroCoef>
-5.4800

> <Gold.Chemscore.Hbond>
1.9447

> <Gold.Chemscore.Metal>
0.0000

> <Gold.Chemscore.Lipo>
95.7377

> <Gold.Chemscore.Internal_Hbond>
0.0000

> <Gold.Chemscore.DEClash>
0.0127

> <Gold.Chemscore.DEInternal>
0.5018

> <Gold.Chemscore.Rot>
1.6891

> <Gold.Chemscore.Internal.Correction>
   9.000000E+99

> <Gold.Chemscore.Hbonds>
donor molecule, donor type, donor heavy atom, donor atom, acceptor molecule, acceptor atom, score
      P1  H  7997  8009       L1     1  0.99
      P1  H 10752 10765       L1     3  0.91

> <Gold.Chemscore.Hbond.Weighted>
-6.4953

> <Gold.Chemscore.Metal.Weighted>
-0.0000

> <Gold.Chemscore.Lipo.Weighted>
-11.2013

> <Gold.Chemscore.Internal_Hbond.Weighted>
0.0000

> <Gold.Chemscore.DEClash.Weighted>
0.0127

> <Gold.Chemscore.DEInternal.Weighted>
0.5018

> <Gold.Chemscore.Rot.Weighted>
4.3241

> <Gold.Chemscore.Internal.Correction.Weighted>
   9.000000E+99

> <Gold.Protein.RotatedTorsions>
[ 6907 6896 6895 6894 ] final  -71.36 input  -60.11 | X-H torsion
[ 7974 7965 7964 7962 ] final  -12.50 input  175.53 | X-H torsion
[ 8008 7997 7996 7995 ] final -134.17 input   59.86 | X-H torsion
[ 10167 10162 10161 10158 ] final   -5.03 input  -65.29 | X-H torsion
[ 10718 10713 10712 10709 ] final   81.94 input   66.30 | X-H torsion
[ 10763 10752 10751 10750 ] final -138.44 input  -60.55 | X-H torsion
[ 11005 11000 10999 10996 ] final  -10.54 input  -57.11 | X-H torsion

> <Gold.Protein.ActiveResidues>
 VAL166  LYS551  ARG553  GLY616  TRP617  ASP618  TYR619  PRO620  LYS621  CYS622 
 ASP623  PHE694  ASN695  SER759  ASP760  ASP761  ALA762  ILE779  LEU786  VAL792 
 PHE793  MET794  SER795  GLU796  ALA797  LYS798  CYS799  TRP800  GLU811  SER814 

> <Gold.Protein.RotatedAtoms>
  150.7216  134.5319  159.5704 H   0  0  0  0  0  0  0  0  0  0  0  0  # atno 6907 bound_to 6896
  152.2850  134.7783  160.0398 H   0  0  0  0  0  0  0  0  0  0  0  0  # atno 6908 bound_to 6896
  151.8416  133.3389  159.3682 H   0  0  0  0  0  0  0  0  0  0  0  0  # atno 6909 bound_to 6896
  146.2149  140.3066  142.8379 H   0  0  0  0  0  0  0  0  0  0  0  0  # atno 7974 bound_to 7965
  155.3576  140.0481  157.3046 H   0  0  0  0  0  0  0  0  0  0  0  0  # atno 8008 bound_to 7997
  154.5195  140.2220  155.8967 H   0  0  0  0  0  0  0  0  0  0  0  0  # atno 8009 bound_to 7997
  156.1673  140.3103  155.8917 H   0  0  0  0  0  0  0  0  0  0  0  0  # atno 8010 bound_to 7997
  140.6949  143.6355  150.8484 H   0  0  0  0  0  0  0  0  0  0  0  0  # atno 10167 bound_to 10162
  157.6845  131.0026  150.2301 H   0  0  0  0  0  0  0  0  0  0  0  0  # atno 10718 bound_to 10713
  154.8637  135.3612  154.5385 H   0  0  0  0  0  0  0  0  0  0  0  0  # atno 10763 bound_to 10752
  153.6008  135.7012  153.5390 H   0  0  0  0  0  0  0  0  0  0  0  0  # atno 10764 bound_to 10752
  153.3293  135.4129  155.1443 H   0  0  0  0  0  0  0  0  0  0  0  0  # atno 10765 bound_to 10752
  140.7458  133.8633  155.9004 H   0  0  0  0  0  0  0  0  0  0  0  0  # atno 11005 bound_to 11000
  144.9018  140.7652  143.5862 LP  0  0  0  0  0  0  0  0  0  0  0  0  # atno 17320 bound_to 7965
  145.2993  139.1856  143.4698 LP  0  0  0  0  0  0  0  0  0  0  0  0  # atno 17321 bound_to 7965
  140.0071  143.5681  152.2853 LP  0  0  0  0  0  0  0  0  0  0  0  0  # atno 17342 bound_to 10162
  139.6392  144.7653  151.2374 LP  0  0  0  0  0  0  0  0  0  0  0  0  # atno 17343 bound_to 10162
  156.2935  130.3749  149.7818 LP  0  0  0  0  0  0  0  0  0  0  0  0  # atno 17370 bound_to 10713
  156.5470  130.8325  151.3287 LP  0  0  0  0  0  0  0  0  0  0  0  0  # atno 17371 bound_to 10713
  140.9796  134.1423  157.4506 LP  0  0  0  0  0  0  0  0  0  0  0  0  # atno 17394 bound_to 11000
  139.8797  135.0006  156.6019 LP  0  0  0  0  0  0  0  0  0  0  0  0  # atno 17395 bound_to 11000

$$$$
