AV-unprocessed.smi:2425|AV-procd|sdf|9575|dock3
  -GOLD-   2272013203D 1   1.00000     0.00000
 Structure written by MMmdl.
 35 36  0  0  0  0  0  0  0  0  3 V2000
  152.9307  142.3266  162.0441 C   0  0  0  0  0  0  0  0  0  0  0  0
  152.6123  141.7742  160.6468 C   0  0  0  0  0  0  0  0  0  0  0  0
  152.0276  142.8179  159.6832 C   0  0  0  0  0  0  0  0  0  0  0  0
  151.3362  142.1609  158.5633 N   0  0  0  0  0  0  0  0  0  0  0  0
  151.7719  141.1124  157.8464 C   0  0  0  0  0  0  0  0  0  0  0  0
  152.8535  140.5565  158.0369 O   0  0  0  0  0  0  0  0  0  0  0  0
  150.8816  140.7746  156.8981 N   0  0  0  0  0  0  0  0  0  0  0  0
  150.9746  139.7480  155.9146 C   0  0  0  0  0  0  0  0  0  0  0  0
  151.8285  138.6291  156.0753 C   0  0  0  0  0  0  0  0  0  0  0  0
  151.8327  137.6251  155.0890 C   0  0  0  0  0  0  0  0  0  0  0  0
  151.0503  137.6613  153.9928 N   0  0  0  0  0  0  0  0  0  0  0  0
  150.2248  138.7179  153.8456 C   0  0  0  0  0  0  0  0  0  0  0  0
  150.1395  139.7894  154.7640 C   0  0  0  0  0  0  0  0  0  0  0  0
  149.1979  140.8931  154.4958 N   0  3  0  0  0  0  0  0  0  0  0  0
  148.7188  141.5040  155.4457 O   0  0  0  0  0  0  0  0  0  0  0  0
  148.9591  141.1614  153.3231 O   0  5  0  0  0  0  0  0  0  0  0  0
  151.1065  143.9094  160.2658 C   0  0  0  0  0  0  0  0  0  0  0  0
  151.7371  144.9282  159.3132 C   0  0  0  0  0  0  0  0  0  0  0  0
  152.9275  143.9744  159.1890 C   0  0  0  0  0  0  0  0  0  0  0  0
  153.3752  141.5540  162.6715 H   0  0  0  0  0  0  0  0  0  0  0  0
  152.0325  142.6821  162.5491 H   0  0  0  0  0  0  0  0  0  0  0  0
  153.6366  143.1556  161.9899 H   0  0  0  0  0  0  0  0  0  0  0  0
  153.5308  141.3652  160.2246 H   0  0  0  0  0  0  0  0  0  0  0  0
  151.9395  140.9222  160.7449 H   0  0  0  0  0  0  0  0  0  0  0  0
  150.4363  142.5459  158.3165 H   0  0  0  0  0  0  0  0  0  0  0  0
  150.0833  141.3865  156.8083 H   0  0  0  0  0  0  0  0  0  0  0  0
  152.4632  138.5114  156.9400 H   0  0  0  0  0  0  0  0  0  0  0  0
  152.4745  136.7626  155.1908 H   0  0  0  0  0  0  0  0  0  0  0  0
  149.6141  138.7083  152.9548 H   0  0  0  0  0  0  0  0  0  0  0  0
  150.0377  143.7486  160.1189 H   0  0  0  0  0  0  0  0  0  0  0  0
  151.3289  144.1311  161.3111 H   0  0  0  0  0  0  0  0  0  0  0  0
  151.1822  145.0383  158.3802 H   0  0  0  0  0  0  0  0  0  0  0  0
  151.9703  145.8930  159.7646 H   0  0  0  0  0  0  0  0  0  0  0  0
  153.7226  144.2166  159.8959 H   0  0  0  0  0  0  0  0  0  0  0  0
  153.3240  143.8798  158.1777 H   0  0  0  0  0  0  0  0  0  0  0  0
  1  2  1  0  0  0  0
  1 20  1  0  0  0  0
  1 21  1  0  0  0  0
  1 22  1  0  0  0  0
  2  3  1  0  0  0  0
  2 23  1  0  0  0  0
  2 24  1  0  0  0  0
  3 19  1  0  0  0  0
  3  4  1  0  0  0  0
  3 17  1  0  0  0  0
  4  5  1  0  0  0  0
  4 25  1  0  0  0  0
  5  6  2  0  0  0  0
  5  7  1  0  0  0  0
  7  8  1  0  0  0  0
  7 26  1  0  0  0  0
  8 13  1  0  0  0  0
  8  9  2  0  0  0  0
  9 10  1  0  0  0  0
  9 27  1  0  0  0  0
 10 11  2  0  0  0  0
 10 28  1  0  0  0  0
 11 12  1  0  0  0  0
 12 13  2  0  0  0  0
 12 29  1  0  0  0  0
 13 14  1  0  0  0  0
 14 15  2  0  0  0  0
 14 16  1  0  0  0  0
 17 18  1  0  0  0  0
 17 30  1  0  0  0  0
 17 31  1  0  0  0  0
 18 19  1  0  0  0  0
 18 32  1  0  0  0  0
 18 33  1  0  0  0  0
 19 34  1  0  0  0  0
 19 35  1  0  0  0  0
M  CHG  1  14   1
M  CHG  1  16  -1
M  END
> <s_m_source_file>
AV-unprocessed.smi

> <i_m_source_file_index>
2425

> <i_lp_mmshare_version>
43012

> <i_f3d_flags>
0

> <s_epik_input>
W0NIMl0xW0NIMl1bQ0gyXUMxKFtDSDJdW0NIM10pW05IXUMoPU8pW05IXWMyW2NIXVtjSF1uW2NIXWMyW04rXSg9TylbTy1d

> <s_epik_cmdline>
J2VwaWtfcHl0aG9uJywgJy1waCcsICc3LjAnLCAnLXRuJywgJzgnLCAnLW1hJywgJzIwMCcsICctbWV0YWxfYmluZGluZycsICctaW1hZScsICc8aW5maWxlLm1hZT4nLCAnLW9tYWUnLCAnPG91dGZpbGUubWFlPic=

> <r_lp_tautomer_probability>
1

> <r_epik_Ionization_Penalty>
0.00016416

> <r_epik_Ionization_Penalty_Charging>
0

> <r_epik_Ionization_Penalty_Neutral>
0.00016416

> <r_epik_State_Penalty>
-0

> <r_epik_Charging_Adjusted_Penalty>
0

> <i_epik_Tot_Q>
0

> <i_epik_Tot_abs_Q>
2

> <r_epik_Metal_State_Penalty>
-0

> <b_epik_Metal_Only>
0

> <s_lp_Force_Field>
OPLS_2005

> <r_lp_Energy>
29.2252

> <b_lp_Chiralities_Consistent>
1

> <s_lp_Variant>
AV-unprocessed.smi:2425-1

> <Gold.Version>
5.8.1

> <Gold.Id.Protein>
6NUR|6NUR_protein|mol2

> <Gold.PLP.Fitness>
44.5268

> <Gold.PLP.PLP>
-36.7261

> <Gold.PLP.part.hbond>
-2.6041

> <Gold.PLP.part.metal>
0.0000

> <Gold.PLP.part.buried>
-4.4529

> <Gold.PLP.part.nonpolar>
-34.4157

> <Gold.PLP.part.repulsive>
4.2689

> <Gold.PLP.ligand.clash>
0.0000

> <Gold.PLP.ligand.torsion>
1.0041

> <Gold.PLP.Chemscore.Hbond>
1.7210

> <Gold.PLP.Chemscore.CHOScore>
1.4131

> <Gold.PLP.Chemscore.Metal>
0.0000

> <Gold.Chemscore.Hbonds>
donor molecule, donor type, donor heavy atom, donor atom, acceptor molecule, acceptor atom, score
      P1  H  7997  8010       L1     6  0.74
      P1  H  8011  8017       L1    16  1.00
      L1  C    12    29       P1  7948  0.36
      L1  C    12    29       P1  7957  1.00

> <Gold.PLP.Chemscore.Internal.Correction>
0.4066

> <Gold.Rescore>
     Score         DG    S(hbond)    S(metal)    S(lipo)     H(rot)  DE(clash)    DE(int)     intcor
     10.11     -17.47       0.89        0.00     103.83       1.23       1.40       5.96       ----

> <Gold.Chemscore.Fitness>
10.1079

> <Gold.Chemscore.DG>
-17.4670

> <Gold.Chemscore.ZeroCoef>
-5.4800

> <Gold.Chemscore.Hbond>
0.8931

> <Gold.Chemscore.Metal>
0.0000

> <Gold.Chemscore.Lipo>
103.8298

> <Gold.Chemscore.Internal_Hbond>
0.0000

> <Gold.Chemscore.DEClash>
1.3992

> <Gold.Chemscore.DEInternal>
5.9598

> <Gold.Chemscore.Rot>
1.2282

> <Gold.Chemscore.Internal.Correction>
   9.000000E+99

> <Gold.Chemscore.Hbonds>
donor molecule, donor type, donor heavy atom, donor atom, acceptor molecule, acceptor atom, score
      P1  H  7997  8010       L1     6  0.70
      P1  H  8011  8017       L1    16  0.96

> <Gold.Chemscore.Hbond.Weighted>
-2.9830

> <Gold.Chemscore.Metal.Weighted>
-0.0000

> <Gold.Chemscore.Lipo.Weighted>
-12.1481

> <Gold.Chemscore.Internal_Hbond.Weighted>
0.0000

> <Gold.Chemscore.DEClash.Weighted>
1.3992

> <Gold.Chemscore.DEInternal.Weighted>
5.9598

> <Gold.Chemscore.Rot.Weighted>
3.1441

> <Gold.Chemscore.Internal.Correction.Weighted>
   9.000000E+99

> <Gold.Protein.RotatedTorsions>
[ 6907 6896 6895 6894 ] final  125.71 input  -60.11 | X-H torsion
[ 7974 7965 7964 7962 ] final  -75.03 input  175.53 | X-H torsion
[ 8008 7997 7996 7995 ] final   48.03 input   59.86 | X-H torsion
[ 10167 10162 10161 10158 ] final  -41.52 input  -65.29 | X-H torsion
[ 10718 10713 10712 10709 ] final  -14.64 input   66.30 | X-H torsion
[ 10763 10752 10751 10750 ] final  -56.80 input  -60.55 | X-H torsion
[ 11005 11000 10999 10996 ] final   84.71 input  -57.11 | X-H torsion

> <Gold.Protein.ActiveResidues>
 VAL166  LYS551  ARG553  GLY616  TRP617  ASP618  TYR619  PRO620  LYS621  CYS622 
 ASP623  PHE694  ASN695  SER759  ASP760  ASP761  ALA762  ILE779  LEU786  VAL792 
 PHE793  MET794  SER795  GLU796  ALA797  LYS798  CYS799  TRP800  GLU811  SER814 

> <Gold.Protein.RotatedAtoms>
  152.3968  133.6758  159.6282 H   0  0  0  0  0  0  0  0  0  0  0  0  # atno 6907 bound_to 6896
  150.7865  133.8861  159.3308 H   0  0  0  0  0  0  0  0  0  0  0  0  # atno 6908 bound_to 6896
  151.6635  135.0987  160.0235 H   0  0  0  0  0  0  0  0  0  0  0  0  # atno 6909 bound_to 6896
  145.6314  140.9337  143.1085 H   0  0  0  0  0  0  0  0  0  0  0  0  # atno 7974 bound_to 7965
  155.3788  140.3427  155.4246 H   0  0  0  0  0  0  0  0  0  0  0  0  # atno 8008 bound_to 7997
  156.1622  140.1604  156.8627 H   0  0  0  0  0  0  0  0  0  0  0  0  # atno 8009 bound_to 7997
  154.5150  140.0780  156.8046 H   0  0  0  0  0  0  0  0  0  0  0  0  # atno 8010 bound_to 7997
  140.7000  143.3090  151.3077 H   0  0  0  0  0  0  0  0  0  0  0  0  # atno 10167 bound_to 10162
  156.6131  130.4855  149.6193 H   0  0  0  0  0  0  0  0  0  0  0  0  # atno 10718 bound_to 10713
  154.2123  135.6392  153.5119 H   0  0  0  0  0  0  0  0  0  0  0  0  # atno 10763 bound_to 10752
  152.9987  135.5477  154.6202 H   0  0  0  0  0  0  0  0  0  0  0  0  # atno 10764 bound_to 10752
  154.5641  135.2911  155.0864 H   0  0  0  0  0  0  0  0  0  0  0  0  # atno 10765 bound_to 10752
  139.8992  134.8236  156.2483 H   0  0  0  0  0  0  0  0  0  0  0  0  # atno 11005 bound_to 11000
  144.7192  139.8088  143.7388 LP  0  0  0  0  0  0  0  0  0  0  0  0  # atno 17320 bound_to 7965
  146.1354  139.4398  143.0142 LP  0  0  0  0  0  0  0  0  0  0  0  0  # atno 17321 bound_to 7965
  139.6506  144.0369  152.2623 LP  0  0  0  0  0  0  0  0  0  0  0  0  # atno 17342 bound_to 10162
  139.9904  144.6365  150.7819 LP  0  0  0  0  0  0  0  0  0  0  0  0  # atno 17343 bound_to 10162
  156.2373  130.6830  151.1522 LP  0  0  0  0  0  0  0  0  0  0  0  0  # atno 17370 bound_to 10713
  157.7248  131.0657  150.5978 LP  0  0  0  0  0  0  0  0  0  0  0  0  # atno 17371 bound_to 10713
  141.0240  133.7025  156.1317 LP  0  0  0  0  0  0  0  0  0  0  0  0  # atno 17394 bound_to 11000
  140.7192  134.4377  157.5576 LP  0  0  0  0  0  0  0  0  0  0  0  0  # atno 17395 bound_to 11000

$$$$
