AV-unprocessed.smi:2001|AV-procd|sdf|8104|dock1
  -GOLD-   2272010333D 1   1.00000     0.00000
 Structure written by MMmdl.
 50 51  0  0  0  0  0  0  0  0  1 V2000
  150.4451  135.7294  155.7132 C   0  0  0  0  0  0  0  0  0  0  0  0
  151.7314  136.2380  156.0199 O   0  0  0  0  0  0  0  0  0  0  0  0
  151.7980  137.6492  155.9057 C   0  0  0  0  0  0  0  0  0  0  0  0
  151.3946  138.0512  154.4793 C   0  0  0  0  0  0  0  0  0  0  0  0
  150.1711  138.8597  154.4726 N   0  0  0  0  0  0  0  0  0  0  0  0
  149.0547  138.1918  153.9975 N   0  0  0  0  0  0  0  0  0  0  0  0
  147.9109  138.7944  153.9430 C   0  0  0  0  0  0  0  0  0  0  0  0
  146.6846  138.1100  153.4474 C   0  0  0  0  0  0  0  0  0  0  0  0
  145.5938  138.6815  153.4049 O   0  0  0  0  0  0  0  0  0  0  0  0
  146.8532  136.8332  153.0575 N   0  0  0  0  0  0  0  0  0  0  0  0
  145.7947  135.9588  152.5672 C   0  0  0  0  0  0  0  0  0  0  0  0
  146.0408  134.4911  152.9655 C   0  0  0  0  0  0  0  0  0  0  0  0
  145.6289  133.5090  151.9646 N   0  0  0  0  0  0  0  0  0  0  0  0
  144.1839  133.4972  151.7474 C   0  0  0  0  0  0  0  0  0  0  0  0
  143.7464  132.4438  150.7089 C   0  0  1  0  0  0  0  0  0  0  0  0
  144.0850  132.8394  149.2614 C   0  0  0  0  0  0  0  0  0  0  0  0
  144.2787  131.1616  151.0461 O   0  0  0  0  0  0  0  0  0  0  0  0
  145.6877  131.1269  151.2665 C   0  0  2  0  0  0  0  0  0  0  0  0
  146.0704  129.7044  151.6878 C   0  0  0  0  0  0  0  0  0  0  0  0
  146.0623  132.1683  152.3362 C   0  0  0  0  0  0  0  0  0  0  0  0
  147.7769  140.1765  154.3718 C   0  0  0  0  0  0  0  0  0  0  0  0
  148.8762  140.8167  154.8266 C   0  0  0  0  0  0  0  0  0  0  0  0
  150.1815  140.1589  154.8982 C   0  0  0  0  0  0  0  0  0  0  0  0
  151.1980  140.7228  155.3023 O   0  0  0  0  0  0  0  0  0  0  0  0
  150.4459  134.6443  155.8153 H   0  0  0  0  0  0  0  0  0  0  0  0
  150.1599  135.9702  154.6883 H   0  0  0  0  0  0  0  0  0  0  0  0
  149.6905  136.1307  156.3909 H   0  0  0  0  0  0  0  0  0  0  0  0
  151.1314  138.1122  156.6351 H   0  0  0  0  0  0  0  0  0  0  0  0
  152.8114  137.9927  156.1199 H   0  0  0  0  0  0  0  0  0  0  0  0
  152.2108  138.6084  154.0158 H   0  0  0  0  0  0  0  0  0  0  0  0
  151.2653  137.1602  153.8620 H   0  0  0  0  0  0  0  0  0  0  0  0
  147.7802  136.4376  153.1218 H   0  0  0  0  0  0  0  0  0  0  0  0
  144.8564  136.3207  152.9860 H   0  0  0  0  0  0  0  0  0  0  0  0
  145.7099  136.0512  151.4832 H   0  0  0  0  0  0  0  0  0  0  0  0
  147.1090  134.3688  153.1496 H   0  0  0  0  0  0  0  0  0  0  0  0
  145.5486  134.2804  153.9162 H   0  0  0  0  0  0  0  0  0  0  0  0
  143.6788  133.2904  152.6921 H   0  0  0  0  0  0  0  0  0  0  0  0
  143.8367  134.4769  151.4217 H   0  0  0  0  0  0  0  0  0  0  0  0
  142.6617  132.3484  150.7658 H   0  0  0  0  0  0  0  0  0  0  0  0
  143.5789  133.7645  148.9845 H   0  0  0  0  0  0  0  0  0  0  0  0
  143.7657  132.0666  148.5622 H   0  0  0  0  0  0  0  0  0  0  0  0
  145.1535  132.9985  149.1185 H   0  0  0  0  0  0  0  0  0  0  0  0
  146.2060  131.3587  150.3355 H   0  0  0  0  0  0  0  0  0  0  0  0
  147.1440  129.6218  151.8586 H   0  0  0  0  0  0  0  0  0  0  0  0
  145.8007  128.9835  150.9157 H   0  0  0  0  0  0  0  0  0  0  0  0
  145.5611  129.4145  152.6072 H   0  0  0  0  0  0  0  0  0  0  0  0
  147.1432  132.1577  152.4814 H   0  0  0  0  0  0  0  0  0  0  0  0
  145.6168  131.8885  153.2922 H   0  0  0  0  0  0  0  0  0  0  0  0
  146.8258  140.6873  154.3297 H   0  0  0  0  0  0  0  0  0  0  0  0
  148.7915  141.8447  155.1475 H   0  0  0  0  0  0  0  0  0  0  0  0
  1  2  1  0  0  0  0
  1 25  1  0  0  0  0
  1 26  1  0  0  0  0
  1 27  1  0  0  0  0
  2  3  1  0  0  0  0
  3  4  1  0  0  0  0
  3 28  1  0  0  0  0
  3 29  1  0  0  0  0
  4  5  1  0  0  0  0
  4 30  1  0  0  0  0
  4 31  1  0  0  0  0
  5 23  1  0  0  0  0
  5  6  1  0  0  0  0
  6  7  2  0  0  0  0
  7  8  1  0  0  0  0
  7 21  1  0  0  0  0
  8  9  2  0  0  0  0
  8 10  1  0  0  0  0
 10 11  1  0  0  0  0
 10 32  1  0  0  0  0
 11 12  1  0  0  0  0
 11 33  1  0  0  0  0
 11 34  1  0  0  0  0
 12 13  1  0  0  0  0
 12 35  1  0  0  0  0
 12 36  1  0  0  0  0
 13 20  1  0  0  0  0
 13 14  1  0  0  0  0
 14 15  1  0  0  0  0
 14 37  1  0  0  0  0
 14 38  1  0  0  0  0
 15 16  1  0  0  0  0
 15 17  1  0  0  0  0
 15 39  1  0  0  0  0
 16 40  1  0  0  0  0
 16 41  1  0  0  0  0
 16 42  1  0  0  0  0
 17 18  1  0  0  0  0
 18 19  1  0  0  0  0
 18 20  1  0  0  0  0
 18 43  1  0  0  0  0
 19 44  1  0  0  0  0
 19 45  1  0  0  0  0
 19 46  1  0  0  0  0
 20 47  1  0  0  0  0
 20 48  1  0  0  0  0
 21 22  2  0  0  0  0
 21 49  1  0  0  0  0
 22 23  1  0  0  0  0
 22 50  1  0  0  0  0
 23 24  2  0  0  0  0
M  END
> <s_m_source_file>
AV-unprocessed.smi

> <i_m_source_file_index>
2001

> <i_lp_mmshare_version>
43012

> <i_f3d_flags>
0

> <s_epik_input>
W0NIM11PW0NIMl1bQ0gyXW4xbmMoW2NIXVtjSF1jMT1PKUMoPU8pW05IXVtDSDJdW0NIMl1OMltDSDJdW0NAQEhdKFtDSDNdKU9bQ0BASF0oW0NIM10pW0NIMl0y

> <s_epik_cmdline>
J2VwaWtfcHl0aG9uJywgJy1waCcsICc3LjAnLCAnLXRuJywgJzgnLCAnLW1hJywgJzIwMCcsICctbWV0YWxfYmluZGluZycsICctaW1hZScsICc8aW5maWxlLm1hZT4nLCAnLW9tYWUnLCAnPG91dGZpbGUubWFlPic=

> <r_lp_tautomer_probability>
1

> <r_epik_Ionization_Penalty>
0.206669

> <r_epik_Ionization_Penalty_Charging>
5.55992e-09

> <r_epik_Ionization_Penalty_Neutral>
0.206669

> <r_epik_State_Penalty>
0.196651

> <r_epik_Charging_Adjusted_Penalty>
0.196651

> <i_epik_Tot_Q>
0

> <i_epik_Tot_abs_Q>
0

> <r_epik_Metal_State_Penalty>
0.198372

> <b_epik_Metal_Only>
0

> <s_lp_Force_Field>
OPLS_2005

> <r_lp_Energy>
41.2012

> <b_lp_Chiralities_Consistent>
1

> <s_lp_Variant>
AV-unprocessed.smi:2001-3

> <Gold.Version>
5.8.1

> <Gold.Id.Protein>
6NUR|6NUR_protein|mol2

> <Gold.PLP.Fitness>
39.6654

> <Gold.PLP.PLP>
-35.4672

> <Gold.PLP.part.hbond>
-2.8292

> <Gold.PLP.part.metal>
0.0000

> <Gold.PLP.part.buried>
-4.1851

> <Gold.PLP.part.nonpolar>
-31.4181

> <Gold.PLP.part.repulsive>
4.3247

> <Gold.PLP.ligand.clash>
0.0000

> <Gold.PLP.ligand.torsion>
0.9693

> <Gold.PLP.Chemscore.Hbond>
1.8640

> <Gold.PLP.Chemscore.CHOScore>
0.0000

> <Gold.PLP.Chemscore.Metal>
0.0000

> <Gold.Chemscore.Hbonds>
donor molecule, donor type, donor heavy atom, donor atom, acceptor molecule, acceptor atom, score
      L1  H    10    32       P1  7948  0.56
      P1  H  7989  7998       L1    24  0.24
      P1  H 10752 10764       L1     2  1.00

> <Gold.PLP.Chemscore.Internal.Correction>
0.5447

> <Gold.Rescore>
     Score         DG    S(hbond)    S(metal)    S(lipo)     H(rot)  DE(clash)    DE(int)     intcor
     12.92     -15.21       1.29        0.00      90.08       2.00       1.30       0.99       ----

> <Gold.Chemscore.Fitness>
12.9229

> <Gold.Chemscore.DG>
-15.2135

> <Gold.Chemscore.ZeroCoef>
-5.4800

> <Gold.Chemscore.Hbond>
1.2931

> <Gold.Chemscore.Metal>
0.0000

> <Gold.Chemscore.Lipo>
90.0828

> <Gold.Chemscore.Internal_Hbond>
0.0000

> <Gold.Chemscore.DEClash>
1.2976

> <Gold.Chemscore.DEInternal>
0.9929

> <Gold.Chemscore.Rot>
2.0020

> <Gold.Chemscore.Internal.Correction>
   9.000000E+99

> <Gold.Chemscore.Hbonds>
donor molecule, donor type, donor heavy atom, donor atom, acceptor molecule, acceptor atom, score
      L1  H    10    32       P1  7948  0.56
      P1  H 10752 10764       L1     2  0.54

> <Gold.Chemscore.Hbond.Weighted>
-4.3190

> <Gold.Chemscore.Metal.Weighted>
-0.0000

> <Gold.Chemscore.Lipo.Weighted>
-10.5397

> <Gold.Chemscore.Internal_Hbond.Weighted>
0.0000

> <Gold.Chemscore.DEClash.Weighted>
1.2976

> <Gold.Chemscore.DEInternal.Weighted>
0.9929

> <Gold.Chemscore.Rot.Weighted>
5.1252

> <Gold.Chemscore.Internal.Correction.Weighted>
   9.000000E+99

> <Gold.Protein.RotatedTorsions>
[ 6907 6896 6895 6894 ] final   48.35 input  -60.11 | X-H torsion
[ 7974 7965 7964 7962 ] final   80.72 input  175.53 | X-H torsion
[ 8008 7997 7996 7995 ] final -170.60 input   59.86 | X-H torsion
[ 10167 10162 10161 10158 ] final -122.79 input  -65.29 | X-H torsion
[ 10718 10713 10712 10709 ] final   59.58 input   66.30 | X-H torsion
[ 10763 10752 10751 10750 ] final  -39.22 input  -60.55 | X-H torsion
[ 11005 11000 10999 10996 ] final -112.62 input  -57.11 | X-H torsion

> <Gold.Protein.ActiveResidues>
 VAL166  LYS551  ARG553  GLY616  TRP617  ASP618  TYR619  PRO620  LYS621  CYS622 
 ASP623  PHE694  ASN695  SER759  ASP760  ASP761  ALA762  ILE779  LEU786  VAL792 
 PHE793  MET794  SER795  GLU796  ALA797  LYS798  CYS799  TRP800  GLU811  SER814 

> <Gold.Protein.RotatedAtoms>
  152.2785  134.7855  160.0400 H   0  0  0  0  0  0  0  0  0  0  0  0  # atno 6907 bound_to 6896
  151.8443  133.3423  159.3661 H   0  0  0  0  0  0  0  0  0  0  0  0  # atno 6908 bound_to 6896
  150.7180  134.5289  159.5735 H   0  0  0  0  0  0  0  0  0  0  0  0  # atno 6909 bound_to 6896
  145.6475  139.2440  143.1995 H   0  0  0  0  0  0  0  0  0  0  0  0  # atno 7974 bound_to 7965
  155.9205  140.1073  157.1210 H   0  0  0  0  0  0  0  0  0  0  0  0  # atno 8008 bound_to 7997
  154.4053  140.1257  156.4738 H   0  0  0  0  0  0  0  0  0  0  0  0  # atno 8009 bound_to 7997
  155.7202  140.3470  155.5015 H   0  0  0  0  0  0  0  0  0  0  0  0  # atno 8010 bound_to 7997
  140.0105  143.5447  152.2265 H   0  0  0  0  0  0  0  0  0  0  0  0  # atno 10167 bound_to 10162
  157.5686  130.8890  149.9229 H   0  0  0  0  0  0  0  0  0  0  0  0  # atno 10718 bound_to 10713
  153.9257  135.6777  153.4746 H   0  0  0  0  0  0  0  0  0  0  0  0  # atno 10763 bound_to 10752
  153.1005  135.4830  154.8855 H   0  0  0  0  0  0  0  0  0  0  0  0  # atno 10764 bound_to 10752
  154.7454  135.3171  154.8610 H   0  0  0  0  0  0  0  0  0  0  0  0  # atno 10765 bound_to 10752
  141.0664  133.9452  157.2570 H   0  0  0  0  0  0  0  0  0  0  0  0  # atno 11005 bound_to 11000
  146.1230  140.7284  142.9448 LP  0  0  0  0  0  0  0  0  0  0  0  0  # atno 17320 bound_to 7965
  144.7134  140.4124  143.7063 LP  0  0  0  0  0  0  0  0  0  0  0  0  # atno 17321 bound_to 7965
  139.6208  144.7628  151.2744 LP  0  0  0  0  0  0  0  0  0  0  0  0  # atno 17342 bound_to 10162
  140.7383  143.6652  150.8130 LP  0  0  0  0  0  0  0  0  0  0  0  0  # atno 17343 bound_to 10162
  156.0733  130.3682  150.0730 LP  0  0  0  0  0  0  0  0  0  0  0  0  # atno 17370 bound_to 10713
  156.8886  130.9581  151.3591 LP  0  0  0  0  0  0  0  0  0  0  0  0  # atno 17371 bound_to 10713
  139.9480  135.0180  156.8911 LP  0  0  0  0  0  0  0  0  0  0  0  0  # atno 17394 bound_to 11000
  140.5765  134.0393  155.7448 LP  0  0  0  0  0  0  0  0  0  0  0  0  # atno 17395 bound_to 11000

$$$$
