AV-unprocessed.smi:1005|AV-procd|sdf|4384|dock10
  -GOLD-   22720 2313D 1   1.00000     0.00000
 Structure written by MMmdl.
 58 60  0  0  0  0  0  0  0  0  4 V2000
  153.1040  142.6032  161.3648 C   0  0  0  0  0  0  0  0  0  0  0  0
  152.4231  142.3022  160.0403 C   0  0  0  0  0  0  0  0  0  0  0  0
  152.4697  140.9805  159.5428 C   0  0  0  0  0  0  0  0  0  0  0  0
  151.8415  140.7377  158.3270 C   0  0  0  0  0  0  0  0  0  0  0  0
  151.7149  139.5633  157.5826 N   0  3  0  0  0  0  0  0  0  0  0  0
  151.0095  139.8185  156.4464 C   0  0  0  0  0  0  0  0  0  0  0  0
  150.6870  141.1409  156.4506 N   0  0  0  0  0  0  0  0  0  0  0  0
  149.9321  141.9254  155.4615 C   0  0  0  0  0  0  0  0  0  0  0  0
  149.0851  141.0483  154.5177 C   0  0  2  0  0  0  0  0  0  0  0  0
  149.8347  140.7347  153.3598 O   0  0  0  0  0  0  0  0  0  0  0  0
  147.7883  141.7631  154.0863 C   0  0  0  0  0  0  0  0  0  0  0  0
  147.0927  142.4306  155.2170 N   0  3  2  0  0  0  0  0  0  0  0  0
  146.9676  141.5520  156.4034 C   0  0  0  0  0  0  0  0  0  0  0  0
  146.3097  142.3130  157.5654 C   0  0  0  0  0  0  0  0  0  0  0  0
  145.0436  142.8110  157.1500 O   0  0  0  0  0  0  0  0  0  0  0  0
  145.1500  143.7317  156.0685 C   0  0  2  0  0  0  0  0  0  0  0  0
  143.7375  144.2591  155.7529 C   0  0  0  0  0  0  0  0  0  0  0  0
  143.7559  145.4966  154.9310 N   0  3  0  0  0  0  0  0  0  0  0  0
  144.0875  145.2533  153.5079 C   0  0  0  0  0  0  0  0  0  0  0  0
  142.5060  146.2765  155.0690 C   0  0  0  0  0  0  0  0  0  0  0  0
  145.7705  143.0023  154.8592 C   0  0  0  0  0  0  0  0  0  0  0  0
  151.1812  141.7541  157.6092 C   0  0  0  0  0  0  0  0  0  0  0  0
  151.1235  143.0613  158.0873 C   0  0  0  0  0  0  0  0  0  0  0  0
  151.7568  143.3288  159.3222 C   0  0  0  0  0  0  0  0  0  0  0  0
  151.7115  144.7464  159.8668 C   0  0  0  0  0  0  0  0  0  0  0  0
  153.6076  141.7225  161.7642 H   0  0  0  0  0  0  0  0  0  0  0  0
  152.3734  142.9337  162.1033 H   0  0  0  0  0  0  0  0  0  0  0  0
  153.8526  143.3865  161.2428 H   0  0  0  0  0  0  0  0  0  0  0  0
  152.9738  140.1935  160.0845 H   0  0  0  0  0  0  0  0  0  0  0  0
  150.7528  139.1000  155.6810 H   0  0  0  0  0  0  0  0  0  0  0  0
  149.2821  142.6003  156.0201 H   0  0  0  0  0  0  0  0  0  0  0  0
  150.6212  142.5607  154.9044 H   0  0  0  0  0  0  0  0  0  0  0  0
  148.8525  140.1171  155.0332 H   0  0  0  0  0  0  0  0  0  0  0  0
  149.2944  140.2140  152.7844 H   0  0  0  0  0  0  0  0  0  0  0  0
  147.9957  142.4968  153.3058 H   0  0  0  0  0  0  0  0  0  0  0  0
  147.1215  141.0238  153.6390 H   0  0  0  0  0  0  0  0  0  0  0  0
  146.3744  140.6725  156.1474 H   0  0  0  0  0  0  0  0  0  0  0  0
  147.9522  141.1971  156.7103 H   0  0  0  0  0  0  0  0  0  0  0  0
  146.1663  141.6481  158.4173 H   0  0  0  0  0  0  0  0  0  0  0  0
  146.9448  143.1331  157.9047 H   0  0  0  0  0  0  0  0  0  0  0  0
  145.8035  144.5569  156.3533 H   0  0  0  0  0  0  0  0  0  0  0  0
  143.1466  143.4966  155.2429 H   0  0  0  0  0  0  0  0  0  0  0  0
  143.2291  144.4570  156.6981 H   0  0  0  0  0  0  0  0  0  0  0  0
  143.3434  144.6088  153.0381 H   0  0  0  0  0  0  0  0  0  0  0  0
  145.0641  144.7843  153.3967 H   0  0  0  0  0  0  0  0  0  0  0  0
  144.1172  146.1932  152.9557 H   0  0  0  0  0  0  0  0  0  0  0  0
  141.6498  145.7128  154.6960 H   0  0  0  0  0  0  0  0  0  0  0  0
  142.5699  147.2109  154.5104 H   0  0  0  0  0  0  0  0  0  0  0  0
  142.3205  146.5316  156.1130 H   0  0  0  0  0  0  0  0  0  0  0  0
  145.8728  143.7043  154.0327 H   0  0  0  0  0  0  0  0  0  0  0  0
  145.1088  142.2037  154.5196 H   0  0  0  0  0  0  0  0  0  0  0  0
  150.6211  143.8464  157.5416 H   0  0  0  0  0  0  0  0  0  0  0  0
  151.1105  145.3993  159.2333 H   0  0  0  0  0  0  0  0  0  0  0  0
  152.7160  145.1664  159.9213 H   0  0  0  0  0  0  0  0  0  0  0  0
  151.2746  144.7609  160.8656 H   0  0  0  0  0  0  0  0  0  0  0  0
  144.4882  146.0817  155.3081 H   0  0  0  0  0  0  0  0  0  0  0  0
  147.6860  143.1994  155.4968 H   0  0  0  0  0  0  0  0  0  0  0  0
  152.0798  138.6524  157.8308 H   0  0  0  0  0  0  0  0  0  0  0  0
  1  2  1  0  0  0  0
  1 26  1  0  0  0  0
  1 27  1  0  0  0  0
  1 28  1  0  0  0  0
  2 24  1  0  0  0  0
  2  3  2  0  0  0  0
  3  4  1  0  0  0  0
  3 29  1  0  0  0  0
  4 22  2  0  0  0  0
  4  5  1  0  0  0  0
  5  6  2  0  0  0  0
  5 58  1  0  0  0  0
  6  7  1  0  0  0  0
  6 30  1  0  0  0  0
  7  8  1  0  0  0  0
  7 22  1  0  0  0  0
  8  9  1  0  0  0  0
  8 31  1  0  0  0  0
  8 32  1  0  0  0  0
  9 10  1  0  0  0  0
  9 11  1  0  0  0  0
  9 33  1  0  0  0  0
 10 34  1  0  0  0  0
 11 12  1  0  0  0  0
 11 35  1  0  0  0  0
 11 36  1  0  0  0  0
 12 21  1  0  0  0  0
 12 13  1  0  0  0  0
 12 57  1  0  0  0  0
 13 14  1  0  0  0  0
 13 37  1  0  0  0  0
 13 38  1  0  0  0  0
 14 15  1  0  0  0  0
 14 39  1  0  0  0  0
 14 40  1  0  0  0  0
 15 16  1  0  0  0  0
 16 17  1  0  0  0  0
 16 21  1  0  0  0  0
 16 41  1  0  0  0  0
 17 18  1  0  0  0  0
 17 42  1  0  0  0  0
 17 43  1  0  0  0  0
 18 19  1  0  0  0  0
 18 20  1  0  0  0  0
 18 56  1  0  0  0  0
 19 44  1  0  0  0  0
 19 45  1  0  0  0  0
 19 46  1  0  0  0  0
 20 47  1  0  0  0  0
 20 48  1  0  0  0  0
 20 49  1  0  0  0  0
 21 50  1  0  0  0  0
 21 51  1  0  0  0  0
 22 23  1  0  0  0  0
 23 24  2  0  0  0  0
 23 52  1  0  0  0  0
 24 25  1  0  0  0  0
 25 53  1  0  0  0  0
 25 54  1  0  0  0  0
 25 55  1  0  0  0  0
M  CHG  1   5   1
M  CHG  1  12   1
M  CHG  1  18   1
M  END
> <s_m_source_file>
AV-unprocessed.smi

> <i_m_source_file_index>
1005

> <i_lp_mmshare_version>
43012

> <i_f3d_flags>
0

> <s_epik_input>
W0NIM11jKFtjSF0xKWMoW0NIM10pW2NIXWMoYzEyKW4oW2NIXW4yKVtDSDJdW0NASF0oW09IXSlbQ0gyXU4zW0NIMl1bQ0gyXU9bQ0BIXShbQ0gyXTMpW0NIMl1OKFtDSDNdKVtDSDNd

> <s_epik_cmdline>
J2VwaWtfcHl0aG9uJywgJy1waCcsICc3LjAnLCAnLXRuJywgJzgnLCAnLW1hJywgJzIwMCcsICctbWV0YWxfYmluZGluZycsICctaW1hZScsICc8aW5maWxlLm1hZT4nLCAnLW9tYWUnLCAnPG91dGZpbGUubWFlPic=

> <r_epik_Ionization_Penalty>
2.30802

> <r_epik_Ionization_Penalty_Charging>
2.30798

> <r_epik_Ionization_Penalty_Neutral>
3.4851e-05

> <r_epik_State_Penalty>
2.52618

> <r_epik_Charging_Adjusted_Penalty>
4.83416

> <i_epik_Tot_Q>
3

> <i_epik_Tot_abs_Q>
3

> <r_epik_Metal_State_Penalty>
6.53149

> <b_epik_Metal_Only>
0

> <s_lp_Force_Field>
OPLS_2005

> <r_lp_Energy>
42.4593

> <b_lp_Chiralities_Consistent>
1

> <s_lp_Variant>
AV-unprocessed.smi:1005-23

> <Gold.Version>
5.8.1

> <Gold.Id.Protein>
6NUR|6NUR_protein|mol2

> <Gold.PLP.Fitness>
60.6745

> <Gold.PLP.PLP>
-51.6948

> <Gold.PLP.part.hbond>
-2.7891

> <Gold.PLP.part.metal>
0.0000

> <Gold.PLP.part.buried>
-5.1225

> <Gold.PLP.part.nonpolar>
-43.2397

> <Gold.PLP.part.repulsive>
0.2564

> <Gold.PLP.ligand.clash>
0.0000

> <Gold.PLP.ligand.torsion>
1.1381

> <Gold.PLP.Chemscore.Hbond>
3.7040

> <Gold.PLP.Chemscore.CHOScore>
0.0000

> <Gold.PLP.Chemscore.Metal>
0.0000

> <Gold.Chemscore.Hbonds>
donor molecule, donor type, donor heavy atom, donor atom, acceptor molecule, acceptor atom, score
      L1  H    10    34       P1  7957  0.45
      L1  H    12    57       P1  8028  2.00
      P1  H  7989  7998       L1    10  0.32
      P1  H  8011  8017       L1    10  0.90

> <Gold.PLP.Chemscore.Internal.Correction>
0.1438

> <Gold.Rescore>
     Score         DG    S(hbond)    S(metal)    S(lipo)     H(rot)  DE(clash)    DE(int)     intcor
     20.13     -21.37       1.98        0.00     135.39       2.56       0.09       1.16       ----

> <Gold.Chemscore.Fitness>
20.1274

> <Gold.Chemscore.DG>
-21.3750

> <Gold.Chemscore.ZeroCoef>
-5.4800

> <Gold.Chemscore.Hbond>
1.9758

> <Gold.Chemscore.Metal>
0.0000

> <Gold.Chemscore.Lipo>
135.3899

> <Gold.Chemscore.Internal_Hbond>
0.0000

> <Gold.Chemscore.DEClash>
0.0879

> <Gold.Chemscore.DEInternal>
1.1596

> <Gold.Chemscore.Rot>
2.5566

> <Gold.Chemscore.Internal.Correction>
   9.000000E+99

> <Gold.Chemscore.Hbonds>
donor molecule, donor type, donor heavy atom, donor atom, acceptor molecule, acceptor atom, score
      L1  H    10    34       P1  7957  0.46
      L1  H    12    57       P1  8028  0.35
      P1  H  7989  7998       L1    10  0.31
      P1  H  8011  8017       L1    10  0.08

> <Gold.Chemscore.Hbond.Weighted>
-6.5993

> <Gold.Chemscore.Metal.Weighted>
-0.0000

> <Gold.Chemscore.Lipo.Weighted>
-15.8406

> <Gold.Chemscore.Internal_Hbond.Weighted>
0.0000

> <Gold.Chemscore.DEClash.Weighted>
0.0879

> <Gold.Chemscore.DEInternal.Weighted>
1.1596

> <Gold.Chemscore.Rot.Weighted>
6.5450

> <Gold.Chemscore.Internal.Correction.Weighted>
   9.000000E+99

> <Gold.Protein.RotatedTorsions>
[ 6907 6896 6895 6894 ] final  -23.73 input  -60.11 | X-H torsion
[ 7974 7965 7964 7962 ] final -139.40 input  175.53 | X-H torsion
[ 8008 7997 7996 7995 ] final -168.71 input   59.86 | X-H torsion
[ 10167 10162 10161 10158 ] final  171.24 input  -65.29 | X-H torsion
[ 10718 10713 10712 10709 ] final  113.84 input   66.30 | X-H torsion
[ 10763 10752 10751 10750 ] final -122.72 input  -60.55 | X-H torsion
[ 11005 11000 10999 10996 ] final -152.67 input  -57.11 | X-H torsion

> <Gold.Protein.ActiveResidues>
 VAL166  LYS551  ARG553  GLY616  TRP617  ASP618  TYR619  PRO620  LYS621  CYS622 
 ASP623  PHE694  ASN695  SER759  ASP760  ASP761  ALA762  ILE779  LEU786  VAL792 
 PHE793  MET794  SER795  GLU796  ALA797  LYS798  CYS799  TRP800  GLU811  SER814 

> <Gold.Protein.RotatedAtoms>
  151.1997  135.0437  159.8866 H   0  0  0  0  0  0  0  0  0  0  0  0  # atno 6907 bound_to 6896
  152.5433  134.0863  159.8268 H   0  0  0  0  0  0  0  0  0  0  0  0  # atno 6908 bound_to 6896
  151.1002  133.5201  159.2642 H   0  0  0  0  0  0  0  0  0  0  0  0  # atno 6909 bound_to 6896
  144.8680  140.6322  143.5285 H   0  0  0  0  0  0  0  0  0  0  0  0  # atno 7974 bound_to 7965
  155.8951  140.1031  157.1391 H   0  0  0  0  0  0  0  0  0  0  0  0  # atno 8008 bound_to 7997
  154.4019  140.1303  156.4429 H   0  0  0  0  0  0  0  0  0  0  0  0  # atno 8009 bound_to 7997
  155.7488  140.3465  155.5143 H   0  0  0  0  0  0  0  0  0  0  0  0  # atno 8010 bound_to 7997
  139.5041  144.3507  151.9925 H   0  0  0  0  0  0  0  0  0  0  0  0  # atno 10167 bound_to 10162
  157.6315  131.0990  150.7100 H   0  0  0  0  0  0  0  0  0  0  0  0  # atno 10718 bound_to 10713
  154.8695  135.4123  154.2828 H   0  0  0  0  0  0  0  0  0  0  0  0  # atno 10763 bound_to 10752
  153.3717  135.7008  153.6638 H   0  0  0  0  0  0  0  0  0  0  0  0  # atno 10764 bound_to 10752
  153.5497  135.3631  155.2726 H   0  0  0  0  0  0  0  0  0  0  0  0  # atno 10765 bound_to 10752
  140.7164  134.3776  157.5190 H   0  0  0  0  0  0  0  0  0  0  0  0  # atno 11005 bound_to 11000
  145.4185  139.1568  143.4087 LP  0  0  0  0  0  0  0  0  0  0  0  0  # atno 17320 bound_to 7965
  146.2909  140.4294  142.8740 LP  0  0  0  0  0  0  0  0  0  0  0  0  # atno 17321 bound_to 7965
  140.2944  144.3717  150.6079 LP  0  0  0  0  0  0  0  0  0  0  0  0  # atno 17342 bound_to 10162
  140.5922  143.2168  151.7232 LP  0  0  0  0  0  0  0  0  0  0  0  0  # atno 17343 bound_to 10162
  156.7438  130.4747  149.5471 LP  0  0  0  0  0  0  0  0  0  0  0  0  # atno 17370 bound_to 10713
  156.1522  130.6318  151.0611 LP  0  0  0  0  0  0  0  0  0  0  0  0  # atno 17371 bound_to 10713
  139.8859  134.8925  156.2617 LP  0  0  0  0  0  0  0  0  0  0  0  0  # atno 17394 bound_to 11000
  141.0041  133.7134  156.1006 LP  0  0  0  0  0  0  0  0  0  0  0  0  # atno 17395 bound_to 11000

$$$$
