AV-unprocessed.smi:2137|AV-procd|sdf|8709|dock8
  -GOLD-   2272011473D 1   1.00000     0.00000
 Structure written by MMmdl.
 50 51  0  0  0  0  0  0  0  0  2 V2000
  153.6470  142.2952  162.8287 C   0  0  0  0  0  0  0  0  0  0  0  0
  152.5317  142.6699  161.8426 C   0  0  1  0  0  0  0  0  0  0  0  0
  152.3511  144.1945  161.7513 C   0  0  0  0  0  0  0  0  0  0  0  0
  151.2503  144.5396  160.7407 C   0  0  0  0  0  0  0  0  0  0  0  0
  151.5410  143.9034  159.3721 C   0  0  0  0  0  0  0  0  0  0  0  0
  151.7065  142.4314  159.4898 N   0  3  1  0  0  0  0  0  0  0  0  0
  151.8545  141.7746  158.1662 C   0  0  0  0  0  0  0  0  0  0  0  0
  150.5066  141.5940  157.4466 C   0  0  0  0  0  0  0  0  0  0  0  0
  150.6126  141.8539  155.9382 C   0  0  0  0  0  0  0  0  0  0  0  0
  149.4067  141.4006  155.2569 N   0  0  0  0  0  0  0  0  0  0  0  0
  149.3430  140.3484  154.4286 C   0  0  0  0  0  0  0  0  0  0  0  0
  150.3211  139.6619  154.1311 O   0  0  0  0  0  0  0  0  0  0  0  0
  147.9643  140.0412  153.8298 C   0  0  0  0  0  0  0  0  0  0  0  0
  146.9233  140.9578  154.3118 N   0  0  0  0  0  0  0  0  0  0  0  0
  146.8786  142.2565  153.8384 C   0  0  0  0  0  0  0  0  0  0  0  0
  145.9532  143.1599  154.2290 C   0  0  0  0  0  0  0  0  0  0  0  0
  144.9206  142.8041  155.1944 C   0  0  0  0  0  0  0  0  0  0  0  0
  144.0728  143.6020  155.5967 O   0  0  0  0  0  0  0  0  0  0  0  0
  144.9773  141.4648  155.6483 N   0  0  0  0  0  0  0  0  0  0  0  0
  143.9964  141.0329  156.6227 C   0  0  0  0  0  0  0  0  0  0  0  0
  145.9589  140.5295  155.2496 C   0  0  0  0  0  0  0  0  0  0  0  0
  145.9894  139.3809  155.6988 O   0  0  0  0  0  0  0  0  0  0  0  0
  152.7943  142.0794  160.4426 C   0  0  0  0  0  0  0  0  0  0  0  0
  154.6099  142.6968  162.5107 H   0  0  0  0  0  0  0  0  0  0  0  0
  153.7496  141.2129  162.9143 H   0  0  0  0  0  0  0  0  0  0  0  0
  153.4366  142.6847  163.8252 H   0  0  0  0  0  0  0  0  0  0  0  0
  151.6023  142.2409  162.2205 H   0  0  0  0  0  0  0  0  0  0  0  0
  152.0990  144.6059  162.7295 H   0  0  0  0  0  0  0  0  0  0  0  0
  153.2877  144.6643  161.4473 H   0  0  0  0  0  0  0  0  0  0  0  0
  150.2869  144.1879  161.1127 H   0  0  0  0  0  0  0  0  0  0  0  0
  151.1656  145.6219  160.6384 H   0  0  0  0  0  0  0  0  0  0  0  0
  150.7177  144.1304  158.6933 H   0  0  0  0  0  0  0  0  0  0  0  0
  152.4415  144.3394  158.9364 H   0  0  0  0  0  0  0  0  0  0  0  0
  152.4925  142.3889  157.5290 H   0  0  0  0  0  0  0  0  0  0  0  0
  152.3665  140.8180  158.2815 H   0  0  0  0  0  0  0  0  0  0  0  0
  150.1260  140.5843  157.5998 H   0  0  0  0  0  0  0  0  0  0  0  0
  149.7704  142.2719  157.8810 H   0  0  0  0  0  0  0  0  0  0  0  0
  150.7475  142.9185  155.7428 H   0  0  0  0  0  0  0  0  0  0  0  0
  151.4911  141.3408  155.5427 H   0  0  0  0  0  0  0  0  0  0  0  0
  148.5559  141.9140  155.4368 H   0  0  0  0  0  0  0  0  0  0  0  0
  148.0120  140.0697  152.7396 H   0  0  0  0  0  0  0  0  0  0  0  0
  147.7051  139.0130  154.0857 H   0  0  0  0  0  0  0  0  0  0  0  0
  147.6213  142.5684  153.1186 H   0  0  0  0  0  0  0  0  0  0  0  0
  145.9781  144.1604  153.8225 H   0  0  0  0  0  0  0  0  0  0  0  0
  143.7546  139.9833  156.4483 H   0  0  0  0  0  0  0  0  0  0  0  0
  143.0788  141.6112  156.5076 H   0  0  0  0  0  0  0  0  0  0  0  0
  144.4410  141.1829  157.6075 H   0  0  0  0  0  0  0  0  0  0  0  0
  153.7481  142.4401  160.0537 H   0  0  0  0  0  0  0  0  0  0  0  0
  152.8809  140.9968  160.5279 H   0  0  0  0  0  0  0  0  0  0  0  0
  150.8442  142.0851  159.8855 H   0  0  0  0  0  0  0  0  0  0  0  0
  1  2  1  0  0  0  0
  1 24  1  0  0  0  0
  1 25  1  0  0  0  0
  1 26  1  0  0  0  0
  2 23  1  0  0  0  0
  2  3  1  0  0  0  0
  2 27  1  0  0  0  0
  3  4  1  0  0  0  0
  3 28  1  0  0  0  0
  3 29  1  0  0  0  0
  4  5  1  0  0  0  0
  4 30  1  0  0  0  0
  4 31  1  0  0  0  0
  5  6  1  0  0  0  0
  5 32  1  0  0  0  0
  5 33  1  0  0  0  0
  6  7  1  0  0  0  0
  6 23  1  0  0  0  0
  6 50  1  0  0  0  0
  7  8  1  0  0  0  0
  7 34  1  0  0  0  0
  7 35  1  0  0  0  0
  8  9  1  0  0  0  0
  8 36  1  0  0  0  0
  8 37  1  0  0  0  0
  9 10  1  0  0  0  0
  9 38  1  0  0  0  0
  9 39  1  0  0  0  0
 10 11  1  0  0  0  0
 10 40  1  0  0  0  0
 11 12  2  0  0  0  0
 11 13  1  0  0  0  0
 13 14  1  0  0  0  0
 13 41  1  0  0  0  0
 13 42  1  0  0  0  0
 14 21  1  0  0  0  0
 14 15  1  0  0  0  0
 15 16  2  0  0  0  0
 15 43  1  0  0  0  0
 16 17  1  0  0  0  0
 16 44  1  0  0  0  0
 17 18  2  0  0  0  0
 17 19  1  0  0  0  0
 19 20  1  0  0  0  0
 19 21  1  0  0  0  0
 20 45  1  0  0  0  0
 20 46  1  0  0  0  0
 20 47  1  0  0  0  0
 21 22  2  0  0  0  0
 23 48  1  0  0  0  0
 23 49  1  0  0  0  0
M  CHG  1   6   1
M  END
> <s_m_source_file>
AV-unprocessed.smi

> <i_m_source_file_index>
2137

> <i_lp_mmshare_version>
43012

> <i_f3d_flags>
0

> <s_epik_input>
W0NIM11bQ0BASF0xW0NIMl1bQ0gyXVtDSDJdTihbQ0gyXTEpW0NIMl1bQ0gyXVtDSDJdW05IXUMoPU8pW0NIMl1uMltjSF1bY0hdYyg9TyluKFtDSDNdKWMyPU8=

> <s_epik_cmdline>
J2VwaWtfcHl0aG9uJywgJy1waCcsICc3LjAnLCAnLXRuJywgJzgnLCAnLW1hJywgJzIwMCcsICctbWV0YWxfYmluZGluZycsICctaW1hZScsICc8aW5maWxlLm1hZT4nLCAnLW9tYWUnLCAnPG91dGZpbGUubWFlPic=

> <r_lp_tautomer_probability>
1

> <r_epik_Ionization_Penalty>
0.000384839

> <r_epik_Ionization_Penalty_Charging>
0.000384812

> <r_epik_Ionization_Penalty_Neutral>
2.6907e-08

> <r_epik_State_Penalty>
0.000235226

> <r_epik_Charging_Adjusted_Penalty>
0.000620038

> <i_epik_Tot_Q>
1

> <i_epik_Tot_abs_Q>
1

> <r_epik_Metal_State_Penalty>
-0

> <b_epik_Metal_Only>
0

> <s_lp_Force_Field>
OPLS_2005

> <r_lp_Energy>
25.3587

> <b_lp_Chiralities_Consistent>
1

> <s_lp_Variant>
AV-unprocessed.smi:2137-4

> <Gold.Version>
5.8.1

> <Gold.Id.Protein>
6NUR|6NUR_protein|mol2

> <Gold.PLP.Fitness>
48.6829

> <Gold.PLP.PLP>
-47.1073

> <Gold.PLP.part.hbond>
-1.0000

> <Gold.PLP.part.metal>
0.0000

> <Gold.PLP.part.buried>
-7.2092

> <Gold.PLP.part.nonpolar>
-38.1374

> <Gold.PLP.part.repulsive>
1.0267

> <Gold.PLP.ligand.clash>
0.0000

> <Gold.PLP.ligand.torsion>
0.7593

> <Gold.PLP.Chemscore.Hbond>
1.0000

> <Gold.PLP.Chemscore.CHOScore>
0.0000

> <Gold.PLP.Chemscore.Metal>
0.0000

> <Gold.Chemscore.Hbonds>
donor molecule, donor type, donor heavy atom, donor atom, acceptor molecule, acceptor atom, score
      P1  H  7989  7998       L1    12  1.00

> <Gold.PLP.Chemscore.Internal.Correction>
0.0943

> <Gold.Rescore>
     Score         DG    S(hbond)    S(metal)    S(lipo)     H(rot)  DE(clash)    DE(int)     intcor
     13.84     -15.05       0.74        0.00     110.60       2.27       0.28       0.93       ----

> <Gold.Chemscore.Fitness>
13.8439

> <Gold.Chemscore.DG>
-15.0535

> <Gold.Chemscore.ZeroCoef>
-5.4800

> <Gold.Chemscore.Hbond>
0.7356

> <Gold.Chemscore.Metal>
0.0000

> <Gold.Chemscore.Lipo>
110.5966

> <Gold.Chemscore.Internal_Hbond>
0.0000

> <Gold.Chemscore.DEClash>
0.2801

> <Gold.Chemscore.DEInternal>
0.9294

> <Gold.Chemscore.Rot>
2.2748

> <Gold.Chemscore.Internal.Correction>
   9.000000E+99

> <Gold.Chemscore.Hbonds>
donor molecule, donor type, donor heavy atom, donor atom, acceptor molecule, acceptor atom, score
      P1  H  7989  7998       L1    12  0.55

> <Gold.Chemscore.Hbond.Weighted>
-2.4570

> <Gold.Chemscore.Metal.Weighted>
-0.0000

> <Gold.Chemscore.Lipo.Weighted>
-12.9398

> <Gold.Chemscore.Internal_Hbond.Weighted>
0.0000

> <Gold.Chemscore.DEClash.Weighted>
0.2801

> <Gold.Chemscore.DEInternal.Weighted>
0.9294

> <Gold.Chemscore.Rot.Weighted>
5.8234

> <Gold.Chemscore.Internal.Correction.Weighted>
   9.000000E+99

> <Gold.Protein.RotatedTorsions>
[ 6907 6896 6895 6894 ] final  -55.30 input  -60.11 | X-H torsion
[ 7974 7965 7964 7962 ] final  -78.51 input  175.53 | X-H torsion
[ 8008 7997 7996 7995 ] final  -76.26 input   59.86 | X-H torsion
[ 10167 10162 10161 10158 ] final  -38.94 input  -65.29 | X-H torsion
[ 10718 10713 10712 10709 ] final  -12.04 input   66.30 | X-H torsion
[ 10763 10752 10751 10750 ] final  123.05 input  -60.55 | X-H torsion
[ 11005 11000 10999 10996 ] final    5.60 input  -57.11 | X-H torsion

> <Gold.Protein.ActiveResidues>
 VAL166  LYS551  ARG553  GLY616  TRP617  ASP618  TYR619  PRO620  LYS621  CYS622 
 ASP623  PHE694  ASN695  SER759  ASP760  ASP761  ALA762  ILE779  LEU786  VAL792 
 PHE793  MET794  SER795  GLU796  ALA797  LYS798  CYS799  TRP800  GLU811  SER814 

> <Gold.Protein.RotatedAtoms>
  150.8263  134.7496  159.6815 H   0  0  0  0  0  0  0  0  0  0  0  0  # atno 6907 bound_to 6896
  152.4374  134.5657  159.9916 H   0  0  0  0  0  0  0  0  0  0  0  0  # atno 6908 bound_to 6896
  151.5828  133.3338  159.3048 H   0  0  0  0  0  0  0  0  0  0  0  0  # atno 6909 bound_to 6896
  145.5855  140.9440  143.1320 H   0  0  0  0  0  0  0  0  0  0  0  0  # atno 7974 bound_to 7965
  154.5490  140.0730  156.8636 H   0  0  0  0  0  0  0  0  0  0  0  0  # atno 8008 bound_to 7997
  155.3031  140.3385  155.4228 H   0  0  0  0  0  0  0  0  0  0  0  0  # atno 8009 bound_to 7997
  156.1944  140.1698  156.8014 H   0  0  0  0  0  0  0  0  0  0  0  0  # atno 8010 bound_to 7997
  140.7078  143.3245  151.2712 H   0  0  0  0  0  0  0  0  0  0  0  0  # atno 10167 bound_to 10162
  156.6503  130.4953  149.6064 H   0  0  0  0  0  0  0  0  0  0  0  0  # atno 10718 bound_to 10713
  153.6394  135.3382  155.3067 H   0  0  0  0  0  0  0  0  0  0  0  0  # atno 10763 bound_to 10752
  154.8563  135.4315  154.2020 H   0  0  0  0  0  0  0  0  0  0  0  0  # atno 10764 bound_to 10752
  153.2936  135.7019  153.7344 H   0  0  0  0  0  0  0  0  0  0  0  0  # atno 10765 bound_to 10752
  140.5688  134.0122  155.8000 H   0  0  0  0  0  0  0  0  0  0  0  0  # atno 11005 bound_to 11000
  144.7374  139.7545  143.7324 LP  0  0  0  0  0  0  0  0  0  0  0  0  # atno 17320 bound_to 7965
  146.1685  139.4826  142.9943 LP  0  0  0  0  0  0  0  0  0  0  0  0  # atno 17321 bound_to 7965
  139.6709  144.0021  152.2752 LP  0  0  0  0  0  0  0  0  0  0  0  0  # atno 17342 bound_to 10162
  139.9620  144.6551  150.8071 LP  0  0  0  0  0  0  0  0  0  0  0  0  # atno 17343 bound_to 10162
  156.2090  130.6667  151.1249 LP  0  0  0  0  0  0  0  0  0  0  0  0  # atno 17370 bound_to 10713
  157.7143  131.0718  150.6386 LP  0  0  0  0  0  0  0  0  0  0  0  0  # atno 17371 bound_to 10713
  141.1069  133.9679  157.2981 LP  0  0  0  0  0  0  0  0  0  0  0  0  # atno 17394 bound_to 11000
  139.9372  135.0195  156.8592 LP  0  0  0  0  0  0  0  0  0  0  0  0  # atno 17395 bound_to 11000

$$$$
