AV-unprocessed.smi:261|AV-procd|sdf|1993|dock9
  -GOLD-   2262021183D 1   1.00000     0.00000
 Structure written by MMmdl.
 51 54  0  0  0  0  0  0  0  0  1 V2000
  152.7055  143.7341  159.2969 C   0  0  0  0  0  0  0  0  0  0  0  0
  152.1717  143.5402  157.9974 O   0  0  0  0  0  0  0  0  0  0  0  0
  151.0377  142.6855  157.9715 C   0  0  1  0  0  0  0  0  0  0  0  0
  150.5221  142.4005  156.5585 C   0  0  0  0  0  0  0  0  0  0  0  0
  149.7770  141.0604  156.6919 C   0  0  2  0  0  0  0  0  0  0  0  0
  148.2787  141.2757  156.9945 C   0  0  0  0  0  0  0  0  0  0  0  0
  147.7751  142.5122  156.9168 N   0  0  0  0  0  0  0  0  0  0  0  0
  147.5777  140.3169  157.3101 O   0  0  0  0  0  0  0  0  0  0  0  0
  150.5061  140.3779  157.7647 N   0  0  0  0  0  0  0  0  0  0  0  0
  150.5855  139.0257  157.9161 C   0  0  0  0  0  0  0  0  0  0  0  0
  150.5811  138.5299  159.1825 N   0  0  0  0  0  0  0  0  0  0  0  0
  150.6545  137.2155  159.4052 C   0  0  0  0  0  0  0  0  0  0  0  0
  150.7351  136.2244  158.5182 N   0  0  0  0  0  0  0  0  0  0  0  0
  150.7355  136.7056  157.2431 C   0  0  0  0  0  0  0  0  0  0  0  0
  150.6636  138.0751  156.8515 C   0  0  0  0  0  0  0  0  0  0  0  0
  150.6846  138.1544  155.4622 N   0  0  0  0  0  0  0  0  0  0  0  0
  150.7684  136.9163  155.0609 C   0  0  0  0  0  0  0  0  0  0  0  0
  150.8059  135.9810  156.0673 N   0  0  0  0  0  0  0  0  0  0  0  0
  150.8991  134.5394  155.9182 C   0  0  0  0  0  0  0  0  0  0  0  0
  149.6300  133.9321  155.2879 C   0  0  2  0  0  0  0  0  0  0  0  0
  148.6599  133.7363  156.2996 O   0  0  0  0  0  0  0  0  0  0  0  0
  149.9065  132.5859  154.5922 C   0  0  1  0  0  0  0  0  0  0  0  0
  150.4741  131.5044  155.5162 C   0  0  0  0  0  0  0  0  0  0  0  0
  150.0118  130.2365  154.8370 C   0  0  0  0  0  0  0  0  0  0  0  0
  148.6179  130.6377  154.3694 C   0  0  0  0  0  0  0  0  0  0  0  0
  148.6938  132.0311  154.0826 O   0  0  0  0  0  0  0  0  0  0  0  0
  151.4032  141.2877  158.4707 C   0  0  0  0  0  0  0  0  0  0  0  0
  150.2330  143.0866  158.5909 H   0  0  0  0  0  0  0  0  0  0  0  0
  149.8707  140.5213  155.7493 H   0  0  0  0  0  0  0  0  0  0  0  0
  153.5851  144.3750  159.2364 H   0  0  0  0  0  0  0  0  0  0  0  0
  153.0111  142.7869  159.7431 H   0  0  0  0  0  0  0  0  0  0  0  0
  151.9865  144.2177  159.9588 H   0  0  0  0  0  0  0  0  0  0  0  0
  149.9048  143.2089  156.1644 H   0  0  0  0  0  0  0  0  0  0  0  0
  151.3662  142.2778  155.8781 H   0  0  0  0  0  0  0  0  0  0  0  0
  146.7967  142.6692  157.1109 H   0  0  0  0  0  0  0  0  0  0  0  0
  148.3756  143.2834  156.6634 H   0  0  0  0  0  0  0  0  0  0  0  0
  150.6475  136.9157  160.4428 H   0  0  0  0  0  0  0  0  0  0  0  0
  150.8085  136.6513  154.0144 H   0  0  0  0  0  0  0  0  0  0  0  0
  151.7715  134.3219  155.3009 H   0  0  0  0  0  0  0  0  0  0  0  0
  151.0921  134.0965  156.8965 H   0  0  0  0  0  0  0  0  0  0  0  0
  149.2195  134.6328  154.5595 H   0  0  0  0  0  0  0  0  0  0  0  0
  148.4964  132.8095  156.3829 H   0  0  0  0  0  0  0  0  0  0  0  0
  150.5828  132.7267  153.7471 H   0  0  0  0  0  0  0  0  0  0  0  0
  151.5580  131.5614  155.6219 H   0  0  0  0  0  0  0  0  0  0  0  0
  150.0305  131.5739  156.5106 H   0  0  0  0  0  0  0  0  0  0  0  0
  150.6494  130.0140  153.9801 H   0  0  0  0  0  0  0  0  0  0  0  0
  150.0075  129.3698  155.4984 H   0  0  0  0  0  0  0  0  0  0  0  0
  148.2880  130.0676  153.5008 H   0  0  0  0  0  0  0  0  0  0  0  0
  147.8913  130.4891  155.1694 H   0  0  0  0  0  0  0  0  0  0  0  0
  152.4345  141.0446  158.2090 H   0  0  0  0  0  0  0  0  0  0  0  0
  151.2959  141.2118  159.5537 H   0  0  0  0  0  0  0  0  0  0  0  0
  1  2  1  0  0  0  0
  1 30  1  0  0  0  0
  1 31  1  0  0  0  0
  1 32  1  0  0  0  0
  2  3  1  0  0  0  0
  3 28  1  0  0  0  0
  3 27  1  0  0  0  0
  3  4  1  0  0  0  0
  4  5  1  0  0  0  0
  4 33  1  0  0  0  0
  4 34  1  0  0  0  0
  5 29  1  0  0  0  0
  5  6  1  0  0  0  0
  5  9  1  0  0  0  0
  6  7  1  0  0  0  0
  6  8  2  0  0  0  0
  7 35  1  0  0  0  0
  7 36  1  0  0  0  0
  9 10  1  0  0  0  0
  9 27  1  0  0  0  0
 10 15  1  0  0  0  0
 10 11  2  0  0  0  0
 11 12  1  0  0  0  0
 12 13  2  0  0  0  0
 12 37  1  0  0  0  0
 13 14  1  0  0  0  0
 14 18  1  0  0  0  0
 14 15  2  0  0  0  0
 15 16  1  0  0  0  0
 16 17  2  0  0  0  0
 17 18  1  0  0  0  0
 17 38  1  0  0  0  0
 18 19  1  0  0  0  0
 19 20  1  0  0  0  0
 19 39  1  0  0  0  0
 19 40  1  0  0  0  0
 20 21  1  0  0  0  0
 20 22  1  0  0  0  0
 20 41  1  0  0  0  0
 21 42  1  0  0  0  0
 22 26  1  0  0  0  0
 22 23  1  0  0  0  0
 22 43  1  0  0  0  0
 23 24  1  0  0  0  0
 23 44  1  0  0  0  0
 23 45  1  0  0  0  0
 24 25  1  0  0  0  0
 24 46  1  0  0  0  0
 24 47  1  0  0  0  0
 25 26  1  0  0  0  0
 25 48  1  0  0  0  0
 25 49  1  0  0  0  0
 27 50  1  0  0  0  0
 27 51  1  0  0  0  0
M  END
> <s_m_source_file>
AV-unprocessed.smi

> <i_m_source_file_index>
261

> <i_lp_mmshare_version>
43012

> <i_f3d_flags>
0

> <s_epik_input>
W0NIM11PW0NASF0xW0NIMl1bQ0BASF0oQyg9TylbTkgyXSlOKFtDSDJdMSljKG5bY0hdbjIpYyhjMjMpbltjSF1uM1tDSDJdW0NASF0oW09IXSlbQ0BASF00W0NIMl1bQ0gyXVtDSDJdTzQ=

> <s_epik_cmdline>
J2VwaWtfcHl0aG9uJywgJy1waCcsICc3LjAnLCAnLXRuJywgJzgnLCAnLW1hJywgJzIwMCcsICctbWV0YWxfYmluZGluZycsICctaW1hZScsICc8aW5maWxlLm1hZT4nLCAnLW9tYWUnLCAnPG91dGZpbGUubWFlPic=

> <r_lp_tautomer_probability>
1

> <r_epik_Ionization_Penalty>
0.000713824

> <r_epik_Ionization_Penalty_Charging>
0

> <r_epik_Ionization_Penalty_Neutral>
0.000713824

> <r_epik_State_Penalty>
0.000402132

> <r_epik_Charging_Adjusted_Penalty>
0.000402132

> <i_epik_Tot_Q>
0

> <i_epik_Tot_abs_Q>
0

> <r_epik_Metal_State_Penalty>
-0

> <b_epik_Metal_Only>
0

> <s_lp_Force_Field>
OPLS_2005

> <r_lp_Energy>
43.0256

> <b_lp_Chiralities_Consistent>
1

> <s_lp_Variant>
AV-unprocessed.smi:261-11

> <Gold.Version>
5.8.1

> <Gold.Id.Protein>
6NUR|6NUR_protein|mol2

> <Gold.PLP.Fitness>
41.6222

> <Gold.PLP.PLP>
-35.9030

> <Gold.PLP.part.hbond>
-2.5871

> <Gold.PLP.part.metal>
0.0000

> <Gold.PLP.part.buried>
-4.4471

> <Gold.PLP.part.nonpolar>
-29.1264

> <Gold.PLP.part.repulsive>
0.2451

> <Gold.PLP.ligand.clash>
0.0000

> <Gold.PLP.ligand.torsion>
1.1593

> <Gold.PLP.Chemscore.Hbond>
1.5928

> <Gold.PLP.Chemscore.CHOScore>
1.0483

> <Gold.PLP.Chemscore.Metal>
0.0000

> <Gold.Chemscore.Hbonds>
donor molecule, donor type, donor heavy atom, donor atom, acceptor molecule, acceptor atom, score
      L1  H     7    36       P1  8028  1.00
      P1  H  6896  6907       L1    13  0.48
      L1  C    17    38       P1  7948  0.11
      L1  C    17    38       P1  7949  0.63

> <Gold.PLP.Chemscore.Internal.Correction>
0.1146

> <Gold.Rescore>
     Score         DG    S(hbond)    S(metal)    S(lipo)     H(rot)  DE(clash)    DE(int)     intcor
      9.62     -11.56       1.73        0.00      72.20       3.18       0.11       1.83       ----

> <Gold.Chemscore.Fitness>
9.6247

> <Gold.Chemscore.DG>
-11.5628

> <Gold.Chemscore.ZeroCoef>
-5.4800

> <Gold.Chemscore.Hbond>
1.7317

> <Gold.Chemscore.Metal>
0.0000

> <Gold.Chemscore.Lipo>
72.2011

> <Gold.Chemscore.Internal_Hbond>
0.0000

> <Gold.Chemscore.DEClash>
0.1059

> <Gold.Chemscore.DEInternal>
1.8322

> <Gold.Chemscore.Rot>
3.1831

> <Gold.Chemscore.Internal.Correction>
   9.000000E+99

> <Gold.Chemscore.Hbonds>
donor molecule, donor type, donor heavy atom, donor atom, acceptor molecule, acceptor atom, score
      L1  H     7    36       P1  8028  0.39
      P1  H  6896  6907       L1    13  0.29

> <Gold.Chemscore.Hbond.Weighted>
-5.7839

> <Gold.Chemscore.Metal.Weighted>
-0.0000

> <Gold.Chemscore.Lipo.Weighted>
-8.4475

> <Gold.Chemscore.Internal_Hbond.Weighted>
0.0000

> <Gold.Chemscore.DEClash.Weighted>
0.1059

> <Gold.Chemscore.DEInternal.Weighted>
1.8322

> <Gold.Chemscore.Rot.Weighted>
8.1486

> <Gold.Chemscore.Internal.Correction.Weighted>
   9.000000E+99

> <Gold.Protein.RotatedTorsions>
[ 6907 6896 6895 6894 ] final  -72.17 input  -60.11 | X-H torsion
[ 7974 7965 7964 7962 ] final   82.83 input  175.53 | X-H torsion
[ 8008 7997 7996 7995 ] final  111.30 input   59.86 | X-H torsion
[ 10167 10162 10161 10158 ] final  -20.52 input  -65.29 | X-H torsion
[ 10718 10713 10712 10709 ] final   87.84 input   66.30 | X-H torsion
[ 10763 10752 10751 10750 ] final  171.08 input  -60.55 | X-H torsion
[ 11005 11000 10999 10996 ] final  -43.90 input  -57.11 | X-H torsion

> <Gold.Protein.ActiveResidues>
 VAL166  LYS551  ARG553  GLY616  TRP617  ASP618  TYR619  PRO620  LYS621  CYS622 
 ASP623  PHE694  ASN695  SER759  ASP760  ASP761  ALA762  ILE779  LEU786  VAL792 
 PHE793  MET794  SER795  GLU796  ALA797  LYS798  CYS799  TRP800  GLU811  SER814 

> <Gold.Protein.RotatedAtoms>
  150.7181  134.5202  159.5649 H   0  0  0  0  0  0  0  0  0  0  0  0  # atno 6907 bound_to 6896
  152.2759  134.7879  160.0414 H   0  0  0  0  0  0  0  0  0  0  0  0  # atno 6908 bound_to 6896
  151.8542  133.3410  159.3720 H   0  0  0  0  0  0  0  0  0  0  0  0  # atno 6909 bound_to 6896
  145.6199  139.2384  143.2144 H   0  0  0  0  0  0  0  0  0  0  0  0  # atno 7974 bound_to 7965
  156.2114  140.3022  155.9741 H   0  0  0  0  0  0  0  0  0  0  0  0  # atno 8008 bound_to 7997
  155.2714  140.0434  157.3024 H   0  0  0  0  0  0  0  0  0  0  0  0  # atno 8009 bound_to 7997
  154.5705  140.2347  155.8207 H   0  0  0  0  0  0  0  0  0  0  0  0  # atno 8010 bound_to 7997
  140.7276  143.4714  151.0241 H   0  0  0  0  0  0  0  0  0  0  0  0  # atno 10167 bound_to 10162
  157.6944  131.0271  150.3184 H   0  0  0  0  0  0  0  0  0  0  0  0  # atno 10718 bound_to 10713
  154.4068  135.2755  155.2062 H   0  0  0  0  0  0  0  0  0  0  0  0  # atno 10763 bound_to 10752
  154.4064  135.6032  153.5930 H   0  0  0  0  0  0  0  0  0  0  0  0  # atno 10764 bound_to 10752
  152.9831  135.5939  154.4344 H   0  0  0  0  0  0  0  0  0  0  0  0  # atno 10765 bound_to 10752
  141.0415  133.6778  156.2797 H   0  0  0  0  0  0  0  0  0  0  0  0  # atno 11005 bound_to 11000
  146.1439  140.7019  142.9354 LP  0  0  0  0  0  0  0  0  0  0  0  0  # atno 17320 bound_to 7965
  144.7235  140.4451  143.6990 LP  0  0  0  0  0  0  0  0  0  0  0  0  # atno 17321 bound_to 7965
  139.8406  143.7568  152.3180 LP  0  0  0  0  0  0  0  0  0  0  0  0  # atno 17342 bound_to 10162
  139.7716  144.7474  151.0216 LP  0  0  0  0  0  0  0  0  0  0  0  0  # atno 17343 bound_to 10162
  156.3675  130.3857  149.7202 LP  0  0  0  0  0  0  0  0  0  0  0  0  # atno 17370 bound_to 10713
  156.4627  130.7959  151.2979 LP  0  0  0  0  0  0  0  0  0  0  0  0  # atno 17371 bound_to 10713
  140.6226  134.5346  157.5549 LP  0  0  0  0  0  0  0  0  0  0  0  0  # atno 17394 bound_to 11000
  139.9279  134.8020  156.1015 LP  0  0  0  0  0  0  0  0  0  0  0  0  # atno 17395 bound_to 11000

$$$$
