AV-unprocessed.smi:3282|AV-procd|sdf|12566|dock1
  -GOLD-   2272018483D 1   1.00000     0.00000
 Structure written by MMmdl.
 33 34  0  0  0  0  0  0  0  0  2 V2000
  151.9193  145.8114  160.2519 C   0  0  0  0  0  0  0  0  0  0  0  0
  151.8132  144.6126  159.2955 C   0  0  0  0  0  0  0  0  0  0  0  0
  152.2680  143.2807  159.9164 C   0  0  0  0  0  0  0  0  0  0  0  0
  152.7560  143.2659  161.0476 O   0  0  0  0  0  0  0  0  0  0  0  0
  152.1136  142.1546  159.1896 N   0  0  0  0  0  0  0  0  0  0  0  0
  152.4851  140.8258  159.6680 C   0  0  0  0  0  0  0  0  0  0  0  0
  151.9209  139.8376  158.6469 C   0  0  0  0  0  0  0  0  0  0  0  0
  151.7874  140.6446  157.3580 C   0  0  1  0  0  0  0  0  0  0  0  0
  150.6871  140.1606  156.5296 N   0  0  0  0  0  0  0  0  0  0  0  0
  150.7861  139.7672  155.2516 C   0  0  0  0  0  0  0  0  0  0  0  0
  151.8830  139.7812  154.6879 O   0  0  0  0  0  0  0  0  0  0  0  0
  149.6087  139.3894  154.7050 N   0  5  0  0  0  0  0  0  0  0  0  0
  148.6433  140.3006  154.5040 C   0  0  0  0  0  0  0  0  0  0  0  0
  148.7891  141.6264  154.5305 N   0  0  0  0  0  0  0  0  0  0  0  0
  147.5345  142.1509  154.2605 C   0  0  0  0  0  0  0  0  0  0  0  0
  146.6733  141.1043  154.0732 C   0  0  0  0  0  0  0  0  0  0  0  0
  147.3616  139.9321  154.2212 O   0  0  0  0  0  0  0  0  0  0  0  0
  151.5606  142.0848  157.8392 C   0  0  0  0  0  0  0  0  0  0  0  0
  151.5795  146.7241  159.7623 H   0  0  0  0  0  0  0  0  0  0  0  0
  152.9482  145.9754  160.5746 H   0  0  0  0  0  0  0  0  0  0  0  0
  151.3044  145.6665  161.1411 H   0  0  0  0  0  0  0  0  0  0  0  0
  150.7789  144.5150  158.9641 H   0  0  0  0  0  0  0  0  0  0  0  0
  152.4148  144.8094  158.4076 H   0  0  0  0  0  0  0  0  0  0  0  0
  153.5731  140.7555  159.7067 H   0  0  0  0  0  0  0  0  0  0  0  0
  152.0969  140.6269  160.6681 H   0  0  0  0  0  0  0  0  0  0  0  0
  152.5477  138.9534  158.5268 H   0  0  0  0  0  0  0  0  0  0  0  0
  150.9388  139.5018  158.9838 H   0  0  0  0  0  0  0  0  0  0  0  0
  152.7292  140.5874  156.8088 H   0  0  0  0  0  0  0  0  0  0  0  0
  149.7724  140.1306  156.9553 H   0  0  0  0  0  0  0  0  0  0  0  0
  147.3560  143.2153  154.2222 H   0  0  0  0  0  0  0  0  0  0  0  0
  145.6211  141.0263  153.8444 H   0  0  0  0  0  0  0  0  0  0  0  0
  150.4959  142.3202  157.8861 H   0  0  0  0  0  0  0  0  0  0  0  0
  152.0346  142.7969  157.1624 H   0  0  0  0  0  0  0  0  0  0  0  0
  1  2  1  0  0  0  0
  1 19  1  0  0  0  0
  1 20  1  0  0  0  0
  1 21  1  0  0  0  0
  2  3  1  0  0  0  0
  2 22  1  0  0  0  0
  2 23  1  0  0  0  0
  3  4  2  0  0  0  0
  3  5  1  0  0  0  0
  5 18  1  0  0  0  0
  5  6  1  0  0  0  0
  6  7  1  0  0  0  0
  6 24  1  0  0  0  0
  6 25  1  0  0  0  0
  7  8  1  0  0  0  0
  7 26  1  0  0  0  0
  7 27  1  0  0  0  0
  8  9  1  0  0  0  0
  8 18  1  0  0  0  0
  8 28  1  0  0  0  0
  9 10  1  0  0  0  0
  9 29  1  0  0  0  0
 10 11  2  0  0  0  0
 10 12  1  0  0  0  0
 12 13  1  0  0  0  0
 13 17  1  0  0  0  0
 13 14  2  0  0  0  0
 14 15  1  0  0  0  0
 15 16  2  0  0  0  0
 15 30  1  0  0  0  0
 16 17  1  0  0  0  0
 16 31  1  0  0  0  0
 18 32  1  0  0  0  0
 18 33  1  0  0  0  0
M  CHG  1  12  -1
M  END
> <s_m_source_file>
AV-unprocessed.smi

> <i_m_source_file_index>
3282

> <i_lp_mmshare_version>
43012

> <i_f3d_flags>
0

> <s_epik_input>
W0NIM11bQ0gyXUMoPU8pTjFbQ0gyXVtDSDJdW0NASF0oW0NIMl0xKVtOSF1DKD1PKVtOSF1jMm5bY0hdW2NIXW8y

> <s_epik_cmdline>
J2VwaWtfcHl0aG9uJywgJy1waCcsICc3LjAnLCAnLXRuJywgJzgnLCAnLW1hJywgJzIwMCcsICctbWV0YWxfYmluZGluZycsICctaW1hZScsICc8aW5maWxlLm1hZT4nLCAnLW9tYWUnLCAnPG91dGZpbGUubWFlPic=

> <r_lp_tautomer_probability>
0.785861

> <r_epik_Ionization_Penalty>
9.30511

> <r_epik_Ionization_Penalty_Charging>
6.7516

> <r_epik_Ionization_Penalty_Neutral>
2.55351

> <r_epik_State_Penalty>
6.77285

> <r_epik_Charging_Adjusted_Penalty>
13.5244

> <i_epik_Tot_Q>
-1

> <i_epik_Tot_abs_Q>
1

> <r_epik_Metal_State_Penalty>
2.67327

> <b_epik_Metal_Only>
1

> <s_lp_Force_Field>
OPLS_2005

> <r_lp_Energy>
19.1505

> <b_lp_Chiralities_Consistent>
1

> <s_lp_Variant>
AV-unprocessed.smi:3282-7

> <Gold.Version>
5.8.1

> <Gold.Id.Protein>
6NUR|6NUR_protein|mol2

> <Gold.PLP.Fitness>
42.8395

> <Gold.PLP.PLP>
-36.1980

> <Gold.PLP.part.hbond>
-1.7826

> <Gold.PLP.part.metal>
0.0000

> <Gold.PLP.part.buried>
-5.6359

> <Gold.PLP.part.nonpolar>
-30.3802

> <Gold.PLP.part.repulsive>
0.6206

> <Gold.PLP.ligand.clash>
0.0000

> <Gold.PLP.ligand.torsion>
0.7194

> <Gold.PLP.Chemscore.Hbond>
0.9116

> <Gold.PLP.Chemscore.CHOScore>
1.7724

> <Gold.PLP.Chemscore.Metal>
0.0000

> <Gold.Chemscore.Hbonds>
donor molecule, donor type, donor heavy atom, donor atom, acceptor molecule, acceptor atom, score
      P1  H  7989  7998       L1    11  0.96
      L1  C    15    30       P1  8028  0.77
      L1  C    16    31       P1 10175  1.00

> <Gold.PLP.Chemscore.Internal.Correction>
0.0280

> <Gold.Rescore>
     Score         DG    S(hbond)    S(metal)    S(lipo)     H(rot)  DE(clash)    DE(int)     intcor
     11.78     -12.69       0.94        0.00      63.34       1.31       0.04       0.86       ----

> <Gold.Chemscore.Fitness>
11.7843

> <Gold.Chemscore.DG>
-12.6920

> <Gold.Chemscore.ZeroCoef>
-5.4800

> <Gold.Chemscore.Hbond>
0.9432

> <Gold.Chemscore.Metal>
0.0000

> <Gold.Chemscore.Lipo>
63.3386

> <Gold.Chemscore.Internal_Hbond>
0.0000

> <Gold.Chemscore.DEClash>
0.0438

> <Gold.Chemscore.DEInternal>
0.8638

> <Gold.Chemscore.Rot>
1.3082

> <Gold.Chemscore.Internal.Correction>
   9.000000E+99

> <Gold.Chemscore.Hbonds>
donor molecule, donor type, donor heavy atom, donor atom, acceptor molecule, acceptor atom, score
      P1  H  7989  7998       L1    11  0.36

> <Gold.Chemscore.Hbond.Weighted>
-3.1502

> <Gold.Chemscore.Metal.Weighted>
-0.0000

> <Gold.Chemscore.Lipo.Weighted>
-7.4106

> <Gold.Chemscore.Internal_Hbond.Weighted>
0.0000

> <Gold.Chemscore.DEClash.Weighted>
0.0438

> <Gold.Chemscore.DEInternal.Weighted>
0.8638

> <Gold.Chemscore.Rot.Weighted>
3.3489

> <Gold.Chemscore.Internal.Correction.Weighted>
   9.000000E+99

> <Gold.Protein.RotatedTorsions>
[ 6907 6896 6895 6894 ] final  148.54 input  -60.11 | X-H torsion
[ 7974 7965 7964 7962 ] final   17.91 input  175.53 | X-H torsion
[ 8008 7997 7996 7995 ] final -168.35 input   59.86 | X-H torsion
[ 10167 10162 10161 10158 ] final  167.65 input  -65.29 | X-H torsion
[ 10718 10713 10712 10709 ] final   81.98 input   66.30 | X-H torsion
[ 10763 10752 10751 10750 ] final  169.42 input  -60.55 | X-H torsion
[ 11005 11000 10999 10996 ] final -125.97 input  -57.11 | X-H torsion

> <Gold.Protein.ActiveResidues>
 VAL166  LYS551  ARG553  GLY616  TRP617  ASP618  TYR619  PRO620  LYS621  CYS622 
 ASP623  PHE694  ASN695  SER759  ASP760  ASP761  ALA762  ILE779  LEU786  VAL792 
 PHE793  MET794  SER795  GLU796  ALA797  LYS798  CYS799  TRP800  GLU811  SER814 

> <Gold.Protein.RotatedAtoms>
  152.1401  133.4458  159.4762 H   0  0  0  0  0  0  0  0  0  0  0  0  # atno 6907 bound_to 6896
  150.6885  134.2316  159.4446 H   0  0  0  0  0  0  0  0  0  0  0  0  # atno 6908 bound_to 6896
  152.0206  134.9824  160.0621 H   0  0  0  0  0  0  0  0  0  0  0  0  # atno 6909 bound_to 6896
  146.2203  139.8534  142.8618 H   0  0  0  0  0  0  0  0  0  0  0  0  # atno 7974 bound_to 7965
  155.8902  140.1023  157.1424 H   0  0  0  0  0  0  0  0  0  0  0  0  # atno 8008 bound_to 7997
  154.4014  140.1312  156.4370 H   0  0  0  0  0  0  0  0  0  0  0  0  # atno 8009 bound_to 7997
  155.7542  140.3464  155.5168 H   0  0  0  0  0  0  0  0  0  0  0  0  # atno 8010 bound_to 7997
  139.4950  144.3899  151.9529 H   0  0  0  0  0  0  0  0  0  0  0  0  # atno 10167 bound_to 10162
  157.6846  131.0028  150.2307 H   0  0  0  0  0  0  0  0  0  0  0  0  # atno 10718 bound_to 10713
  154.3829  135.2753  155.2200 H   0  0  0  0  0  0  0  0  0  0  0  0  # atno 10763 bound_to 10752
  154.4299  135.5980  153.6066 H   0  0  0  0  0  0  0  0  0  0  0  0  # atno 10764 bound_to 10752
  152.9834  135.5993  154.4074 H   0  0  0  0  0  0  0  0  0  0  0  0  # atno 10765 bound_to 10752
  140.9719  134.0794  157.3860 H   0  0  0  0  0  0  0  0  0  0  0  0  # atno 11005 bound_to 11000
  145.2778  141.0129  143.3734 LP  0  0  0  0  0  0  0  0  0  0  0  0  # atno 17320 bound_to 7965
  144.9173  139.4454  143.6558 LP  0  0  0  0  0  0  0  0  0  0  0  0  # atno 17321 bound_to 7965
  140.3336  144.3287  150.5982 LP  0  0  0  0  0  0  0  0  0  0  0  0  # atno 17342 bound_to 10162
  140.5625  143.2190  151.7741 LP  0  0  0  0  0  0  0  0  0  0  0  0  # atno 17343 bound_to 10162
  156.2940  130.3749  149.7814 LP  0  0  0  0  0  0  0  0  0  0  0  0  # atno 17370 bound_to 10713
  156.5464  130.8323  151.3286 LP  0  0  0  0  0  0  0  0  0  0  0  0  # atno 17371 bound_to 10713
  139.8915  135.0119  156.6797 LP  0  0  0  0  0  0  0  0  0  0  0  0  # atno 17394 bound_to 11000
  140.7316  133.9054  155.8215 LP  0  0  0  0  0  0  0  0  0  0  0  0  # atno 17395 bound_to 11000

$$$$
