AV-unprocessed.smi:283|AV-procd|sdf|2156|dock2
  -GOLD-   2262021503D 1   1.00000     0.00000
 Structure written by MMmdl.
 48 51  0  0  0  0  0  0  0  0  1 V2000
  155.4000  140.6335  160.2784 C   0  0  0  0  0  0  0  0  0  0  0  0
  153.9933  141.0976  159.8595 C   0  0  1  0  0  0  0  0  0  0  0  0
  153.0875  139.9613  159.6933 N   0  0  0  0  0  0  0  0  0  0  0  0
  152.8791  139.3857  158.4884 C   0  0  0  0  0  0  0  0  0  0  0  0
  153.6975  138.4083  158.0187 N   0  0  0  0  0  0  0  0  0  0  0  0
  153.4664  137.8598  156.8224 C   0  0  0  0  0  0  0  0  0  0  0  0
  152.4979  138.1424  155.9482 N   0  0  0  0  0  0  0  0  0  0  0  0
  151.6795  139.1317  156.4104 C   0  0  0  0  0  0  0  0  0  0  0  0
  151.7987  139.7929  157.6640 C   0  0  0  0  0  0  0  0  0  0  0  0
  150.7795  140.7252  157.8019 N   0  0  0  0  0  0  0  0  0  0  0  0
  150.0970  140.6123  156.6944 C   0  0  0  0  0  0  0  0  0  0  0  0
  150.5891  139.6991  155.7841 N   0  0  0  0  0  0  0  0  0  0  0  0
  150.0427  139.3147  154.4409 C   0  0  1  0  0  0  0  0  0  0  0  0
  149.5788  137.9975  154.5239 O   0  0  0  0  0  0  0  0  0  0  0  0
  148.1543  137.9539  154.5816 C   0  0  1  0  0  0  0  0  0  0  0  0
  147.6724  137.9815  156.0454 C   0  0  0  0  0  0  0  0  0  0  0  0
  148.2867  136.9482  156.7855 O   0  0  0  0  0  0  0  0  0  0  0  0
  147.7338  139.1807  153.7685 C   0  0  2  0  0  0  0  0  0  0  0  0
  147.6615  138.8109  152.4017 O   0  0  0  0  0  0  0  0  0  0  0  0
  148.8367  140.1972  154.0599 C   0  0  2  0  0  0  0  0  0  0  0  0
  149.0868  141.0399  152.9508 O   0  0  0  0  0  0  0  0  0  0  0  0
  153.4649  142.1254  160.8586 C   0  0  0  0  0  0  0  0  0  0  0  0
  153.6811  141.9382  162.2444 C   0  0  0  0  0  0  0  0  0  0  0  0
  153.2080  142.8784  163.1790 C   0  0  0  0  0  0  0  0  0  0  0  0
  152.5170  144.0209  162.7383 C   0  0  0  0  0  0  0  0  0  0  0  0
  152.3064  144.2243  161.3622 C   0  0  0  0  0  0  0  0  0  0  0  0
  152.7793  143.2876  160.4213 C   0  0  0  0  0  0  0  0  0  0  0  0
  152.5074  143.6029  158.7427 Cl  0  0  0  0  0  0  0  0  0  0  0  0
  150.8955  139.3906  153.7653 H   0  0  0  0  0  0  0  0  0  0  0  0
  147.8122  137.0257  154.1206 H   0  0  0  0  0  0  0  0  0  0  0  0
  146.7531  139.5564  154.0619 H   0  0  0  0  0  0  0  0  0  0  0  0
  148.5425  140.8059  154.9163 H   0  0  0  0  0  0  0  0  0  0  0  0
  156.0821  141.4805  160.3569 H   0  0  0  0  0  0  0  0  0  0  0  0
  155.8307  139.9383  159.5585 H   0  0  0  0  0  0  0  0  0  0  0  0
  155.3795  140.1343  161.2476 H   0  0  0  0  0  0  0  0  0  0  0  0
  154.0633  141.5883  158.8896 H   0  0  0  0  0  0  0  0  0  0  0  0
  152.6620  139.6176  160.5421 H   0  0  0  0  0  0  0  0  0  0  0  0
  154.1574  137.0863  156.5214 H   0  0  0  0  0  0  0  0  0  0  0  0
  149.2118  141.2045  156.5142 H   0  0  0  0  0  0  0  0  0  0  0  0
  147.9403  138.9312  156.5085 H   0  0  0  0  0  0  0  0  0  0  0  0
  146.5891  137.8800  156.1157 H   0  0  0  0  0  0  0  0  0  0  0  0
  148.5131  136.2474  156.1931 H   0  0  0  0  0  0  0  0  0  0  0  0
  148.3319  139.2814  151.9300 H   0  0  0  0  0  0  0  0  0  0  0  0
  148.8180  140.5857  152.1668 H   0  0  0  0  0  0  0  0  0  0  0  0
  154.2174  141.0719  162.6030 H   0  0  0  0  0  0  0  0  0  0  0  0
  153.3778  142.7235  164.2344 H   0  0  0  0  0  0  0  0  0  0  0  0
  152.1529  144.7432  163.4539 H   0  0  0  0  0  0  0  0  0  0  0  0
  151.7808  145.1064  161.0267 H   0  0  0  0  0  0  0  0  0  0  0  0
  1  2  1  0  0  0  0
  1 33  1  0  0  0  0
  1 34  1  0  0  0  0
  1 35  1  0  0  0  0
  2  3  1  0  0  0  0
  2 22  1  0  0  0  0
  2 36  1  0  0  0  0
  3  4  1  0  0  0  0
  3 37  1  0  0  0  0
  4  9  1  0  0  0  0
  4  5  2  0  0  0  0
  5  6  1  0  0  0  0
  6  7  2  0  0  0  0
  6 38  1  0  0  0  0
  7  8  1  0  0  0  0
  8 12  1  0  0  0  0
  8  9  2  0  0  0  0
  9 10  1  0  0  0  0
 10 11  2  0  0  0  0
 11 12  1  0  0  0  0
 11 39  1  0  0  0  0
 12 13  1  0  0  0  0
 13 29  1  0  0  0  0
 13 20  1  0  0  0  0
 13 14  1  0  0  0  0
 14 15  1  0  0  0  0
 15 30  1  0  0  0  0
 15 16  1  0  0  0  0
 15 18  1  0  0  0  0
 16 17  1  0  0  0  0
 16 40  1  0  0  0  0
 16 41  1  0  0  0  0
 17 42  1  0  0  0  0
 18 31  1  0  0  0  0
 18 19  1  0  0  0  0
 18 20  1  0  0  0  0
 19 43  1  0  0  0  0
 20 32  1  0  0  0  0
 20 21  1  0  0  0  0
 21 44  1  0  0  0  0
 22 27  1  0  0  0  0
 22 23  2  0  0  0  0
 23 24  1  0  0  0  0
 23 45  1  0  0  0  0
 24 25  2  0  0  0  0
 24 46  1  0  0  0  0
 25 26  1  0  0  0  0
 25 47  1  0  0  0  0
 26 27  2  0  0  0  0
 26 48  1  0  0  0  0
 27 28  1  0  0  0  0
M  END
> <s_m_source_file>
AV-unprocessed.smi

> <i_m_source_file_index>
283

> <i_lp_mmshare_version>
43012

> <i_f3d_flags>
0

> <s_epik_input>
Q2xjMVtjSF1bY0hdW2NIXVtjSF1jMVtDQEhdKFtDSDNdKVtOSF1jKG5bY0hdbjIpYyhjMjMpbltjSF1uM1tDQEBIXTRPW0NASF0oW0NIMl1bT0hdKVtDQEBIXShbT0hdKVtDQEhdNFtPSF0=

> <s_epik_cmdline>
J2VwaWtfcHl0aG9uJywgJy1waCcsICc3LjAnLCAnLXRuJywgJzgnLCAnLW1hJywgJzIwMCcsICctbWV0YWxfYmluZGluZycsICctaW1hZScsICc8aW5maWxlLm1hZT4nLCAnLW9tYWUnLCAnPG91dGZpbGUubWFlPic=

> <r_lp_tautomer_probability>
1

> <r_epik_Ionization_Penalty>
0.000266407

> <r_epik_Ionization_Penalty_Charging>
0

> <r_epik_Ionization_Penalty_Neutral>
0.000266407

> <r_epik_State_Penalty>
-0

> <r_epik_Charging_Adjusted_Penalty>
0

> <i_epik_Tot_Q>
0

> <i_epik_Tot_abs_Q>
0

> <r_epik_Metal_State_Penalty>
-0

> <b_epik_Metal_Only>
0

> <s_epik_Chemistry_Notes>
This compound contains an acetal/aminal-like group ( X-CH(R)-Y where X, Y are N, S, or O) that may be acid/base labile, releasing an aldehyde.

> <s_lp_Force_Field>
OPLS_2005

> <r_lp_Energy>
46.4468

> <b_lp_Chiralities_Consistent>
1

> <s_lp_Variant>
AV-unprocessed.smi:283-32

> <Gold.Version>
5.8.1

> <Gold.Id.Protein>
6NUR|6NUR_protein|mol2

> <Gold.PLP.Fitness>
54.8784

> <Gold.PLP.PLP>
-49.6201

> <Gold.PLP.part.hbond>
-4.1201

> <Gold.PLP.part.metal>
0.0000

> <Gold.PLP.part.buried>
0.0641

> <Gold.PLP.part.nonpolar>
-45.3386

> <Gold.PLP.part.repulsive>
0.3159

> <Gold.PLP.ligand.clash>
0.0000

> <Gold.PLP.ligand.torsion>
1.7505

> <Gold.PLP.Chemscore.Hbond>
2.8536

> <Gold.PLP.Chemscore.CHOScore>
0.0000

> <Gold.PLP.Chemscore.Metal>
0.0000

> <Gold.Chemscore.Hbonds>
donor molecule, donor type, donor heavy atom, donor atom, acceptor molecule, acceptor atom, score
      L1  H    19    43       P1  7957  1.00
      L1  H    21    44       P1  7957  0.37
      P1  H  7997  8010       L1     5  0.13
      P1  H  8011  8017       L1    21  1.00

> <Gold.PLP.Chemscore.Internal.Correction>
0.1984

> <Gold.Rescore>
     Score         DG    S(hbond)    S(metal)    S(lipo)     H(rot)  DE(clash)    DE(int)     intcor
     13.16     -16.65       2.06        0.00     126.27       4.10       1.55       1.94       ----

> <Gold.Chemscore.Fitness>
13.1603

> <Gold.Chemscore.DG>
-16.6518

> <Gold.Chemscore.ZeroCoef>
-5.4800

> <Gold.Chemscore.Hbond>
2.0616

> <Gold.Chemscore.Metal>
0.0000

> <Gold.Chemscore.Lipo>
126.2748

> <Gold.Chemscore.Internal_Hbond>
0.0000

> <Gold.Chemscore.DEClash>
1.5492

> <Gold.Chemscore.DEInternal>
1.9423

> <Gold.Chemscore.Rot>
4.0968

> <Gold.Chemscore.Internal.Correction>
   9.000000E+99

> <Gold.Chemscore.Hbonds>
donor molecule, donor type, donor heavy atom, donor atom, acceptor molecule, acceptor atom, score
      L1  H    19    43       P1  7957  0.99
      L1  H    21    44       P1  7957  0.38
      P1  H  8011  8017       L1    21  0.30

> <Gold.Chemscore.Hbond.Weighted>
-6.8856

> <Gold.Chemscore.Metal.Weighted>
-0.0000

> <Gold.Chemscore.Lipo.Weighted>
-14.7742

> <Gold.Chemscore.Internal_Hbond.Weighted>
0.0000

> <Gold.Chemscore.DEClash.Weighted>
1.5492

> <Gold.Chemscore.DEInternal.Weighted>
1.9423

> <Gold.Chemscore.Rot.Weighted>
10.4879

> <Gold.Chemscore.Internal.Correction.Weighted>
   9.000000E+99

> <Gold.Protein.RotatedTorsions>
[ 6907 6896 6895 6894 ] final   25.96 input  -60.11 | X-H torsion
[ 7974 7965 7964 7962 ] final    5.37 input  175.53 | X-H torsion
[ 8008 7997 7996 7995 ] final   16.71 input   59.86 | X-H torsion
[ 10167 10162 10161 10158 ] final -134.09 input  -65.29 | X-H torsion
[ 10718 10713 10712 10709 ] final  112.42 input   66.30 | X-H torsion
[ 10763 10752 10751 10750 ] final -121.18 input  -60.55 | X-H torsion
[ 11005 11000 10999 10996 ] final -120.17 input  -57.11 | X-H torsion

> <Gold.Protein.ActiveResidues>
 VAL166  LYS551  ARG553  GLY616  TRP617  ASP618  TYR619  PRO620  LYS621  CYS622 
 ASP623  PHE694  ASN695  SER759  ASP760  ASP761  ALA762  ILE779  LEU786  VAL792 
 PHE793  MET794  SER795  GLU796  ALA797  LYS798  CYS799  TRP800  GLU811  SER814 

> <Gold.Protein.RotatedAtoms>
  151.9804  135.0031  160.0556 H   0  0  0  0  0  0  0  0  0  0  0  0  # atno 6907 bound_to 6896
  152.1701  133.4633  159.4913 H   0  0  0  0  0  0  0  0  0  0  0  0  # atno 6908 bound_to 6896
  150.6900  134.1881  159.4317 H   0  0  0  0  0  0  0  0  0  0  0  0  # atno 6909 bound_to 6896
  146.2441  140.0394  142.8383 H   0  0  0  0  0  0  0  0  0  0  0  0  # atno 7974 bound_to 7965
  154.8808  140.2972  155.5426 H   0  0  0  0  0  0  0  0  0  0  0  0  # atno 8008 bound_to 7997
  156.3022  140.2442  156.3744 H   0  0  0  0  0  0  0  0  0  0  0  0  # atno 8009 bound_to 7997
  154.8719  140.0401  157.1718 H   0  0  0  0  0  0  0  0  0  0  0  0  # atno 8010 bound_to 7997
  139.8916  143.6716  152.2611 H   0  0  0  0  0  0  0  0  0  0  0  0  # atno 10167 bound_to 10162
  157.6393  131.0967  150.6893 H   0  0  0  0  0  0  0  0  0  0  0  0  # atno 10718 bound_to 10713
  154.8662  135.4177  154.2579 H   0  0  0  0  0  0  0  0  0  0  0  0  # atno 10763 bound_to 10752
  153.3512  135.6999  153.6792 H   0  0  0  0  0  0  0  0  0  0  0  0  # atno 10764 bound_to 10752
  153.5731  135.3587  155.2818 H   0  0  0  0  0  0  0  0  0  0  0  0  # atno 10765 bound_to 10752
  141.0163  134.0191  157.3345 H   0  0  0  0  0  0  0  0  0  0  0  0  # atno 11005 bound_to 11000
  145.1083  140.9389  143.4671 LP  0  0  0  0  0  0  0  0  0  0  0  0  # atno 17320 bound_to 7965
  145.0602  139.3112  143.5884 LP  0  0  0  0  0  0  0  0  0  0  0  0  # atno 17321 bound_to 7965
  139.7105  144.7621  151.1121 LP  0  0  0  0  0  0  0  0  0  0  0  0  # atno 17342 bound_to 10162
  140.7725  143.5337  150.9393 LP  0  0  0  0  0  0  0  0  0  0  0  0  # atno 17343 bound_to 10162
  156.7219  130.4683  149.5521 LP  0  0  0  0  0  0  0  0  0  0  0  0  # atno 17370 bound_to 10713
  156.1660  130.6405  151.0778 LP  0  0  0  0  0  0  0  0  0  0  0  0  # atno 17371 bound_to 10713
  139.9119  135.0191  156.7726 LP  0  0  0  0  0  0  0  0  0  0  0  0  # atno 17394 bound_to 11000
  140.6649  133.9611  155.7825 LP  0  0  0  0  0  0  0  0  0  0  0  0  # atno 17395 bound_to 11000

$$$$
