AV-unprocessed.smi:3290|AV-procd|sdf|12613|dock8
  -GOLD-   2272018543D 1   1.00000     0.00000
 Structure written by MMmdl.
 43 44  0  0  0  0  0  0  0  0  2 V2000
  143.4160  134.4177  152.6191 C   0  0  0  0  0  0  0  0  0  0  0  0
  144.0803  134.4556  151.2276 C   0  0  2  0  0  0  0  0  0  0  0  0
  144.2285  133.0399  150.6308 C   0  0  0  0  0  0  0  0  0  0  0  0
  145.3316  132.2247  151.3263 C   0  0  0  0  0  0  0  0  0  0  0  0
  146.6733  132.9708  151.3017 C   0  0  0  0  0  0  0  0  0  0  0  0
  146.5455  134.3814  151.8994 C   0  0  0  0  0  0  0  0  0  0  0  0
  145.4420  135.2006  151.1919 C   0  0  2  0  0  0  0  0  0  0  0  0
  145.3455  136.6425  151.7299 C   0  0  0  0  0  0  0  0  0  0  0  0
  146.4705  137.4750  151.2595 N   0  3  0  0  0  0  0  0  0  0  0  0
  146.6174  138.7548  151.9819 C   0  0  0  0  0  0  0  0  0  0  0  0
  146.8215  138.5308  153.4905 C   0  0  2  0  0  0  0  0  0  0  0  0
  145.6481  138.9298  154.1721 O   0  0  0  0  0  0  0  0  0  0  0  0
  148.0451  139.2767  153.9988 C   0  0  0  0  0  0  0  0  0  0  0  0
  149.2227  138.5760  154.3343 C   0  0  0  0  0  0  0  0  0  0  0  0
  150.3334  139.3085  154.7992 C   0  0  0  0  0  0  0  0  0  0  0  0
  150.3305  140.6514  154.9378 N   0  0  0  0  0  0  0  0  0  0  0  0
  149.2020  141.3177  154.6137 C   0  0  0  0  0  0  0  0  0  0  0  0
  148.0370  140.6813  154.1409 C   0  0  0  0  0  0  0  0  0  0  0  0
  144.0495  133.9411  153.3666 H   0  0  0  0  0  0  0  0  0  0  0  0
  142.4782  133.8622  152.5851 H   0  0  0  0  0  0  0  0  0  0  0  0
  143.1772  135.4191  152.9766 H   0  0  0  0  0  0  0  0  0  0  0  0
  143.3940  135.0000  150.5773 H   0  0  0  0  0  0  0  0  0  0  0  0
  143.2800  132.5043  150.6858 H   0  0  0  0  0  0  0  0  0  0  0  0
  144.4649  133.1211  149.5688 H   0  0  0  0  0  0  0  0  0  0  0  0
  145.0459  132.0141  152.3573 H   0  0  0  0  0  0  0  0  0  0  0  0
  145.4385  131.2563  150.8368 H   0  0  0  0  0  0  0  0  0  0  0  0
  147.4248  132.4013  151.8493 H   0  0  0  0  0  0  0  0  0  0  0  0
  147.0301  133.0425  150.2736 H   0  0  0  0  0  0  0  0  0  0  0  0
  146.3376  134.3106  152.9674 H   0  0  0  0  0  0  0  0  0  0  0  0
  147.5067  134.8886  151.8129 H   0  0  0  0  0  0  0  0  0  0  0  0
  145.7217  135.2749  150.1395 H   0  0  0  0  0  0  0  0  0  0  0  0
  144.4150  137.1016  151.3929 H   0  0  0  0  0  0  0  0  0  0  0  0
  145.3290  136.6449  152.8205 H   0  0  0  0  0  0  0  0  0  0  0  0
  147.3267  136.9501  151.3707 H   0  0  0  0  0  0  0  0  0  0  0  0
  147.4756  139.2876  151.5702 H   0  0  0  0  0  0  0  0  0  0  0  0
  145.7389  139.3776  151.8040 H   0  0  0  0  0  0  0  0  0  0  0  0
  146.9623  137.4656  153.6806 H   0  0  0  0  0  0  0  0  0  0  0  0
  145.1012  139.4119  153.5700 H   0  0  0  0  0  0  0  0  0  0  0  0
  149.2797  137.5014  154.2413 H   0  0  0  0  0  0  0  0  0  0  0  0
  151.2488  138.8014  155.0662 H   0  0  0  0  0  0  0  0  0  0  0  0
  149.2282  142.3906  154.7340 H   0  0  0  0  0  0  0  0  0  0  0  0
  147.1603  141.2625  153.8947 H   0  0  0  0  0  0  0  0  0  0  0  0
  146.3386  137.6722  150.2779 H   0  0  0  0  0  0  0  0  0  0  0  0
  1  2  1  0  0  0  0
  1 19  1  0  0  0  0
  1 20  1  0  0  0  0
  1 21  1  0  0  0  0
  2  7  1  0  0  0  0
  2  3  1  0  0  0  0
  2 22  1  0  0  0  0
  3  4  1  0  0  0  0
  3 23  1  0  0  0  0
  3 24  1  0  0  0  0
  4  5  1  0  0  0  0
  4 25  1  0  0  0  0
  4 26  1  0  0  0  0
  5  6  1  0  0  0  0
  5 27  1  0  0  0  0
  5 28  1  0  0  0  0
  6  7  1  0  0  0  0
  6 29  1  0  0  0  0
  6 30  1  0  0  0  0
  7  8  1  0  0  0  0
  7 31  1  0  0  0  0
  8  9  1  0  0  0  0
  8 32  1  0  0  0  0
  8 33  1  0  0  0  0
  9 10  1  0  0  0  0
  9 34  1  0  0  0  0
  9 43  1  0  0  0  0
 10 11  1  0  0  0  0
 10 35  1  0  0  0  0
 10 36  1  0  0  0  0
 11 12  1  0  0  0  0
 11 13  1  0  0  0  0
 11 37  1  0  0  0  0
 12 38  1  0  0  0  0
 13 18  1  0  0  0  0
 13 14  2  0  0  0  0
 14 15  1  0  0  0  0
 14 39  1  0  0  0  0
 15 16  2  0  0  0  0
 15 40  1  0  0  0  0
 16 17  1  0  0  0  0
 17 18  2  0  0  0  0
 17 41  1  0  0  0  0
 18 42  1  0  0  0  0
M  CHG  1   9   1
M  END
> <s_m_source_file>
AV-unprocessed.smi

> <i_m_source_file_index>
3290

> <i_lp_mmshare_version>
43012

> <i_f3d_flags>
0

> <s_epik_input>
W0NIM11bQ0BASF0xW0NIMl1bQ0gyXVtDSDJdW0NIMl1bQ0BIXTFbQ0gyXVtOSF1bQ0gyXVtDQEhdKFtPSF0pYzJbY0hdW2NIXW5bY0hdW2NIXTI=

> <s_epik_cmdline>
J2VwaWtfcHl0aG9uJywgJy1waCcsICc3LjAnLCAnLXRuJywgJzgnLCAnLW1hJywgJzIwMCcsICctbWV0YWxfYmluZGluZycsICctaW1hZScsICc8aW5maWxlLm1hZT4nLCAnLW9tYWUnLCAnPG91dGZpbGUubWFlPic=

> <r_lp_tautomer_probability>
1

> <r_epik_Ionization_Penalty>
0.00420552

> <r_epik_Ionization_Penalty_Charging>
0.00207255

> <r_epik_Ionization_Penalty_Neutral>
0.00213297

> <r_epik_State_Penalty>
-0

> <r_epik_Charging_Adjusted_Penalty>
0.00207255

> <i_epik_Tot_Q>
1

> <i_epik_Tot_abs_Q>
1

> <r_epik_Metal_State_Penalty>
-0

> <b_epik_Metal_Only>
0

> <s_lp_Force_Field>
OPLS_2005

> <r_lp_Energy>
18.6683

> <b_lp_Chiralities_Consistent>
1

> <s_lp_Variant>
AV-unprocessed.smi:3290-3

> <Gold.Version>
5.8.1

> <Gold.Id.Protein>
6NUR|6NUR_protein|mol2

> <Gold.PLP.Fitness>
50.6807

> <Gold.PLP.PLP>
-39.2708

> <Gold.PLP.part.hbond>
-3.6869

> <Gold.PLP.part.metal>
0.0000

> <Gold.PLP.part.buried>
-0.5331

> <Gold.PLP.part.nonpolar>
-34.9472

> <Gold.PLP.part.repulsive>
0.6029

> <Gold.PLP.ligand.clash>
0.0000

> <Gold.PLP.ligand.torsion>
1.1576

> <Gold.PLP.Chemscore.Hbond>
3.5936

> <Gold.PLP.Chemscore.CHOScore>
0.9652

> <Gold.PLP.Chemscore.Metal>
0.0000

> <Gold.Chemscore.Hbonds>
donor molecule, donor type, donor heavy atom, donor atom, acceptor molecule, acceptor atom, score
      L1  H     9    34       P1  7948  2.00
      L1  H    12    38       P1 10175  0.86
      P1  H  7989  7998       L1    16  0.58
      L1  C    17    41       P1  8028  1.00

> <Gold.PLP.Chemscore.Internal.Correction>
0.0488

> <Gold.Rescore>
     Score         DG    S(hbond)    S(metal)    S(lipo)     H(rot)  DE(clash)    DE(int)     intcor
     16.37     -17.59       1.99        0.00      91.55       2.05       0.14       1.09       ----

> <Gold.Chemscore.Fitness>
16.3679

> <Gold.Chemscore.DG>
-17.5924

> <Gold.Chemscore.ZeroCoef>
-5.4800

> <Gold.Chemscore.Hbond>
1.9907

> <Gold.Chemscore.Metal>
0.0000

> <Gold.Chemscore.Lipo>
91.5465

> <Gold.Chemscore.Internal_Hbond>
0.0000

> <Gold.Chemscore.DEClash>
0.1356

> <Gold.Chemscore.DEInternal>
1.0890

> <Gold.Chemscore.Rot>
2.0498

> <Gold.Chemscore.Internal.Correction>
   9.000000E+99

> <Gold.Chemscore.Hbonds>
donor molecule, donor type, donor heavy atom, donor atom, acceptor molecule, acceptor atom, score
      L1  H     9    34       P1  7948  1.00
      L1  H    12    38       P1 10175  0.84
      P1  H  7989  7998       L1    16  0.03

> <Gold.Chemscore.Hbond.Weighted>
-6.6490

> <Gold.Chemscore.Metal.Weighted>
-0.0000

> <Gold.Chemscore.Lipo.Weighted>
-10.7109

> <Gold.Chemscore.Internal_Hbond.Weighted>
0.0000

> <Gold.Chemscore.DEClash.Weighted>
0.1356

> <Gold.Chemscore.DEInternal.Weighted>
1.0890

> <Gold.Chemscore.Rot.Weighted>
5.2475

> <Gold.Chemscore.Internal.Correction.Weighted>
   9.000000E+99

> <Gold.Protein.RotatedTorsions>
[ 6907 6896 6895 6894 ] final   16.11 input  -60.11 | X-H torsion
[ 7974 7965 7964 7962 ] final   55.51 input  175.53 | X-H torsion
[ 8008 7997 7996 7995 ] final -111.88 input   59.86 | X-H torsion
[ 10167 10162 10161 10158 ] final -147.12 input  -65.29 | X-H torsion
[ 10718 10713 10712 10709 ] final    5.54 input   66.30 | X-H torsion
[ 10763 10752 10751 10750 ] final  -80.03 input  -60.55 | X-H torsion
[ 11005 11000 10999 10996 ] final -176.08 input  -57.11 | X-H torsion

> <Gold.Protein.ActiveResidues>
 VAL166  LYS551  ARG553  GLY616  TRP617  ASP618  TYR619  PRO620  LYS621  CYS622 
 ASP623  PHE694  ASN695  SER759  ASP760  ASP761  ALA762  ILE779  LEU786  VAL792 
 PHE793  MET794  SER795  GLU796  ALA797  LYS798  CYS799  TRP800  GLU811  SER814 

> <Gold.Protein.RotatedAtoms>
  151.8287  135.0628  160.0433 H   0  0  0  0  0  0  0  0  0  0  0  0  # atno 6907 bound_to 6896
  152.2896  133.5544  159.5558 H   0  0  0  0  0  0  0  0  0  0  0  0  # atno 6908 bound_to 6896
  150.7224  134.0363  159.3792 H   0  0  0  0  0  0  0  0  0  0  0  0  # atno 6909 bound_to 6896
  145.9497  139.3961  143.0314 H   0  0  0  0  0  0  0  0  0  0  0  0  # atno 7974 bound_to 7965
  154.9967  140.0394  157.2342 H   0  0  0  0  0  0  0  0  0  0  0  0  # atno 8008 bound_to 7997
  154.7580  140.2779  155.6214 H   0  0  0  0  0  0  0  0  0  0  0  0  # atno 8009 bound_to 7997
  156.2898  140.2634  156.2351 H   0  0  0  0  0  0  0  0  0  0  0  0  # atno 8010 bound_to 7997
  139.7651  143.8320  152.2614 H   0  0  0  0  0  0  0  0  0  0  0  0  # atno 10167 bound_to 10162
  156.9089  130.5749  149.5647 H   0  0  0  0  0  0  0  0  0  0  0  0  # atno 10718 bound_to 10713
  154.5461  135.5675  153.6881 H   0  0  0  0  0  0  0  0  0  0  0  0  # atno 10763 bound_to 10752
  152.9976  135.6239  154.2437 H   0  0  0  0  0  0  0  0  0  0  0  0  # atno 10764 bound_to 10752
  154.2370  135.2864  155.2848 H   0  0  0  0  0  0  0  0  0  0  0  0  # atno 10765 bound_to 10752
  140.4561  134.6298  157.4822 H   0  0  0  0  0  0  0  0  0  0  0  0  # atno 11005 bound_to 11000
  145.8188  140.9689  143.0910 LP  0  0  0  0  0  0  0  0  0  0  0  0  # atno 17320 bound_to 7965
  144.6793  140.0015  143.7484 LP  0  0  0  0  0  0  0  0  0  0  0  0  # atno 17321 bound_to 7965
  139.8338  144.7242  150.9417 LP  0  0  0  0  0  0  0  0  0  0  0  0  # atno 17342 bound_to 10162
  140.7810  143.4046  151.1093 LP  0  0  0  0  0  0  0  0  0  0  0  0  # atno 17343 bound_to 10162
  156.0546  130.5609  150.9063 LP  0  0  0  0  0  0  0  0  0  0  0  0  # atno 17370 bound_to 10713
  157.5980  131.0942  150.9008 LP  0  0  0  0  0  0  0  0  0  0  0  0  # atno 17371 bound_to 10713
  139.9975  134.6887  155.9584 LP  0  0  0  0  0  0  0  0  0  0  0  0  # atno 17394 bound_to 11000
  141.1642  133.6537  156.4423 LP  0  0  0  0  0  0  0  0  0  0  0  0  # atno 17395 bound_to 11000

$$$$
