AV-unprocessed.smi:34|AV-procd|sdf|228|dock10
  -GOLD-   2262015553D 1   1.00000     0.00000
 Structure written by MMmdl.
 55 59  0  0  0  0  0  0  0  0  1 V2000
  152.1515  131.7331  158.0280 O   0  0  0  0  0  0  0  0  0  0  0  0
  152.7284  130.9266  157.2978 C   0  0  0  0  0  0  0  0  0  0  0  0
  152.5786  130.9471  155.8539 N   0  0  0  0  0  0  0  0  0  0  0  0
  151.9195  131.8524  155.0936 C   0  0  0  0  0  0  0  0  0  0  0  0
  151.3806  131.5387  153.8861 N   0  0  0  0  0  0  0  0  0  0  0  0
  150.7325  132.4680  153.1784 C   0  0  0  0  0  0  0  0  0  0  0  0
  150.5099  133.7461  153.4898 N   0  0  0  0  0  0  0  0  0  0  0  0
  151.0502  134.0722  154.6982 C   0  0  0  0  0  0  0  0  0  0  0  0
  151.7669  133.1871  155.5513 C   0  0  0  0  0  0  0  0  0  0  0  0
  152.1704  133.8603  156.6966 N   0  0  0  0  0  0  0  0  0  0  0  0
  151.7140  135.0718  156.5264 C   0  0  0  0  0  0  0  0  0  0  0  0
  151.0238  135.2869  155.3542 N   0  0  0  0  0  0  0  0  0  0  0  0
  150.3846  136.5625  154.9085 C   0  0  1  0  0  0  0  0  0  0  0  0
  149.5189  137.0063  155.9102 O   0  0  0  0  0  0  0  0  0  0  0  0
  149.6261  138.4244  156.0805 C   0  0  1  0  0  0  0  0  0  0  0  0
  150.1950  138.7372  157.4712 C   0  0  0  0  0  0  0  0  0  0  0  0
  150.3093  140.1427  157.6239 O   0  0  0  0  0  0  0  0  0  0  0  0
  151.2216  140.6619  158.4691 C   0  0  0  0  0  0  0  0  0  0  0  0
  152.0683  139.9879  159.0596 O   0  0  0  0  0  0  0  0  0  0  0  0
  151.0967  142.1401  158.6196 C   0  0  0  0  0  0  0  0  0  0  0  0
  151.7397  142.7824  159.7035 C   0  0  0  0  0  0  0  0  0  0  0  0
  151.6390  144.1769  159.8727 C   0  0  0  0  0  0  0  0  0  0  0  0
  150.8951  144.9465  158.9598 C   0  0  0  0  0  0  0  0  0  0  0  0
  150.2507  144.3196  157.8772 C   0  0  0  0  0  0  0  0  0  0  0  0
  150.3496  142.9249  157.7067 C   0  0  0  0  0  0  0  0  0  0  0  0
  150.5580  138.8899  154.9580 C   0  0  2  0  0  0  0  0  0  0  0  0
  149.8043  139.1601  153.8881 F   0  0  0  0  0  0  0  0  0  0  0  0
  151.4217  137.6642  154.7115 C   0  0  2  0  0  0  0  0  0  0  0  0
  151.9764  137.7028  153.4119 O   0  0  0  0  0  0  0  0  0  0  0  0
  153.5644  129.8120  157.8577 C   0  0  0  0  0  0  0  0  0  0  0  0
  154.2066  128.9030  156.9869 C   0  0  0  0  0  0  0  0  0  0  0  0
  154.9745  127.8414  157.5042 C   0  0  0  0  0  0  0  0  0  0  0  0
  155.1017  127.6758  158.8961 C   0  0  0  0  0  0  0  0  0  0  0  0
  154.4573  128.5703  159.7710 C   0  0  0  0  0  0  0  0  0  0  0  0
  153.6883  129.6317  159.2552 C   0  0  0  0  0  0  0  0  0  0  0  0
  153.0585  130.2153  155.3506 H   0  0  0  0  0  0  0  0  0  0  0  0
  150.3357  132.1419  152.2281 H   0  0  0  0  0  0  0  0  0  0  0  0
  151.8635  135.8482  157.2624 H   0  0  0  0  0  0  0  0  0  0  0  0
  149.8213  136.3177  154.0064 H   0  0  0  0  0  0  0  0  0  0  0  0
  148.6425  138.8857  155.9814 H   0  0  0  0  0  0  0  0  0  0  0  0
  149.5660  138.2994  158.2455 H   0  0  0  0  0  0  0  0  0  0  0  0
  151.1855  138.2943  157.5790 H   0  0  0  0  0  0  0  0  0  0  0  0
  152.3162  142.2125  160.4178 H   0  0  0  0  0  0  0  0  0  0  0  0
  152.1332  144.6561  160.7048 H   0  0  0  0  0  0  0  0  0  0  0  0
  150.8180  146.0158  159.0899 H   0  0  0  0  0  0  0  0  0  0  0  0
  149.6789  144.9093  157.1760 H   0  0  0  0  0  0  0  0  0  0  0  0
  149.8430  142.4758  156.8651 H   0  0  0  0  0  0  0  0  0  0  0  0
  151.1277  139.7886  155.1968 H   0  0  0  0  0  0  0  0  0  0  0  0
  152.2028  137.5840  155.4688 H   0  0  0  0  0  0  0  0  0  0  0  0
  151.3997  137.2356  152.8268 H   0  0  0  0  0  0  0  0  0  0  0  0
  154.1173  129.0146  155.9158 H   0  0  0  0  0  0  0  0  0  0  0  0
  155.4649  127.1524  156.8323 H   0  0  0  0  0  0  0  0  0  0  0  0
  155.6896  126.8610  159.2925 H   0  0  0  0  0  0  0  0  0  0  0  0
  154.5491  128.4407  160.8393 H   0  0  0  0  0  0  0  0  0  0  0  0
  153.1936  130.2993  159.9457 H   0  0  0  0  0  0  0  0  0  0  0  0
  1  2  2  0  0  0  0
  2  3  1  0  0  0  0
  2 30  1  0  0  0  0
  3  4  1  0  0  0  0
  3 36  1  0  0  0  0
  4  9  1  0  0  0  0
  4  5  2  0  0  0  0
  5  6  1  0  0  0  0
  6  7  2  0  0  0  0
  6 37  1  0  0  0  0
  7  8  1  0  0  0  0
  8 12  1  0  0  0  0
  8  9  2  0  0  0  0
  9 10  1  0  0  0  0
 10 11  2  0  0  0  0
 11 12  1  0  0  0  0
 11 38  1  0  0  0  0
 12 13  1  0  0  0  0
 13 28  1  0  0  0  0
 13 14  1  0  0  0  0
 13 39  1  0  0  0  0
 14 15  1  0  0  0  0
 15 16  1  0  0  0  0
 15 26  1  0  0  0  0
 15 40  1  0  0  0  0
 16 17  1  0  0  0  0
 16 41  1  0  0  0  0
 16 42  1  0  0  0  0
 17 18  1  0  0  0  0
 18 19  2  0  0  0  0
 18 20  1  0  0  0  0
 20 25  1  0  0  0  0
 20 21  2  0  0  0  0
 21 22  1  0  0  0  0
 21 43  1  0  0  0  0
 22 23  2  0  0  0  0
 22 44  1  0  0  0  0
 23 24  1  0  0  0  0
 23 45  1  0  0  0  0
 24 25  2  0  0  0  0
 24 46  1  0  0  0  0
 25 47  1  0  0  0  0
 26 27  1  0  0  0  0
 26 28  1  0  0  0  0
 26 48  1  0  0  0  0
 28 29  1  0  0  0  0
 28 49  1  0  0  0  0
 29 50  1  0  0  0  0
 30 35  1  0  0  0  0
 30 31  2  0  0  0  0
 31 32  1  0  0  0  0
 31 51  1  0  0  0  0
 32 33  2  0  0  0  0
 32 52  1  0  0  0  0
 33 34  1  0  0  0  0
 33 53  1  0  0  0  0
 34 35  2  0  0  0  0
 34 54  1  0  0  0  0
 35 55  1  0  0  0  0
M  END
> <s_m_source_file>
AV-unprocessed.smi

> <i_m_source_file_index>
34

> <i_lp_mmshare_version>
43012

> <i_f3d_flags>
0

> <s_epik_input>
W2NIXTFbY0hdW2NIXVtjSF1bY0hdYzFDKD1PKVtOSF1jKG5bY0hdbjIpYyhjMjMpbltjSF1uM1tDQEBIXTRPW0NASF0oW0NAQEhdKEYpW0NASF00W09IXSlbQ0gyXU9DKD1PKWM1W2NIXVtjSF1bY0hdW2NIXVtjSF01

> <s_epik_cmdline>
J2VwaWtfcHl0aG9uJywgJy1waCcsICc3LjAnLCAnLXRuJywgJzgnLCAnLW1hJywgJzIwMCcsICctbWV0YWxfYmluZGluZycsICctaW1hZScsICc8aW5maWxlLm1hZT4nLCAnLW9tYWUnLCAnPG91dGZpbGUubWFlPic=

> <r_lp_tautomer_probability>
1

> <r_epik_Ionization_Penalty>
0.00257489

> <r_epik_Ionization_Penalty_Charging>
0

> <r_epik_Ionization_Penalty_Neutral>
0.00257489

> <r_epik_State_Penalty>
0.00519398

> <r_epik_Charging_Adjusted_Penalty>
0.00519398

> <i_epik_Tot_Q>
0

> <i_epik_Tot_abs_Q>
0

> <r_epik_Metal_State_Penalty>
0.335891

> <b_epik_Metal_Only>
0

> <s_epik_Chemistry_Notes>
This compound has an ester and may undergo hydrolysis at high or low pH. This compound contains an acetal/aminal-like group ( X-CH(R)-Y where X, Y are N, S, or O) that may be acid/base labile, releasing an aldehyde.

> <s_lp_Force_Field>
OPLS_2005

> <r_lp_Energy>
45.4832

> <b_lp_Chiralities_Consistent>
1

> <s_lp_Variant>
AV-unprocessed.smi:34-14

> <Gold.Version>
5.8.1

> <Gold.Id.Protein>
6NUR|6NUR_protein|mol2

> <Gold.PLP.Fitness>
57.2941

> <Gold.PLP.PLP>
-47.9027

> <Gold.PLP.part.hbond>
-4.0000

> <Gold.PLP.part.metal>
0.0000

> <Gold.PLP.part.buried>
-3.6785

> <Gold.PLP.part.nonpolar>
-39.4089

> <Gold.PLP.part.repulsive>
0.4209

> <Gold.PLP.ligand.clash>
0.0000

> <Gold.PLP.ligand.torsion>
0.5093

> <Gold.PLP.Chemscore.Hbond>
2.7753

> <Gold.PLP.Chemscore.CHOScore>
0.6588

> <Gold.PLP.Chemscore.Metal>
0.0000

> <Gold.Chemscore.Hbonds>
donor molecule, donor type, donor heavy atom, donor atom, acceptor molecule, acceptor atom, score
      L1  H    29    50       P1  7949  0.98
      P1  H  6896  6907       L1     1  0.65
      P1  H 10752 10763       L1    29  0.03
      L1  C     6    37       P1 10747  0.14

> <Gold.PLP.Chemscore.Internal.Correction>
0.1079

> <Gold.Rescore>
     Score         DG    S(hbond)    S(metal)    S(lipo)     H(rot)  DE(clash)    DE(int)     intcor
     10.97     -16.36       1.79        0.00     101.55       2.72       0.81       4.59       ----

> <Gold.Chemscore.Fitness>
10.9661

> <Gold.Chemscore.DG>
-16.3623

> <Gold.Chemscore.ZeroCoef>
-5.4800

> <Gold.Chemscore.Hbond>
1.7868

> <Gold.Chemscore.Metal>
0.0000

> <Gold.Chemscore.Lipo>
101.5500

> <Gold.Chemscore.Internal_Hbond>
0.0000

> <Gold.Chemscore.DEClash>
0.8108

> <Gold.Chemscore.DEInternal>
4.5854

> <Gold.Chemscore.Rot>
2.7215

> <Gold.Chemscore.Internal.Correction>
   9.000000E+99

> <Gold.Chemscore.Hbonds>
donor molecule, donor type, donor heavy atom, donor atom, acceptor molecule, acceptor atom, score
      L1  H    29    50       P1  7949  0.77
      P1  H  6896  6907       L1     1  0.63

> <Gold.Chemscore.Hbond.Weighted>
-5.9680

> <Gold.Chemscore.Metal.Weighted>
-0.0000

> <Gold.Chemscore.Lipo.Weighted>
-11.8813

> <Gold.Chemscore.Internal_Hbond.Weighted>
0.0000

> <Gold.Chemscore.DEClash.Weighted>
0.8108

> <Gold.Chemscore.DEInternal.Weighted>
4.5854

> <Gold.Chemscore.Rot.Weighted>
6.9670

> <Gold.Chemscore.Internal.Correction.Weighted>
   9.000000E+99

> <Gold.Protein.RotatedTorsions>
[ 6907 6896 6895 6894 ] final -160.34 input  -60.11 | X-H torsion
[ 7974 7965 7964 7962 ] final  -31.53 input  175.53 | X-H torsion
[ 8008 7997 7996 7995 ] final   77.93 input   59.86 | X-H torsion
[ 10167 10162 10161 10158 ] final  -95.35 input  -65.29 | X-H torsion
[ 10718 10713 10712 10709 ] final   17.88 input   66.30 | X-H torsion
[ 10763 10752 10751 10750 ] final   25.91 input  -60.55 | X-H torsion
[ 11005 11000 10999 10996 ] final  -20.44 input  -57.11 | X-H torsion

> <Gold.Protein.ActiveResidues>
 VAL166  LYS551  ARG553  GLY616  TRP617  ASP618  TYR619  PRO620  LYS621  CYS622 
 ASP623  PHE694  ASN695  SER759  ASP760  ASP761  ALA762  ILE779  LEU786  VAL792 
 PHE793  MET794  SER795  GLU796  ALA797  LYS798  CYS799  TRP800  GLU811  SER814 

> <Gold.Protein.RotatedAtoms>
  151.3476  133.3938  159.2676 H   0  0  0  0  0  0  0  0  0  0  0  0  # atno 6907 bound_to 6896
  150.9827  134.9180  159.7864 H   0  0  0  0  0  0  0  0  0  0  0  0  # atno 6908 bound_to 6896
  152.5222  134.3440  159.9280 H   0  0  0  0  0  0  0  0  0  0  0  0  # atno 6909 bound_to 6896
  146.1060  140.5679  142.8799 H   0  0  0  0  0  0  0  0  0  0  0  0  # atno 7974 bound_to 7965
  155.8486  140.3459  155.5678 H   0  0  0  0  0  0  0  0  0  0  0  0  # atno 8008 bound_to 7997
  155.8062  140.0892  157.1949 H   0  0  0  0  0  0  0  0  0  0  0  0  # atno 8009 bound_to 7997
  154.4007  140.1456  156.3320 H   0  0  0  0  0  0  0  0  0  0  0  0  # atno 8010 bound_to 7997
  140.3050  143.3139  152.0208 H   0  0  0  0  0  0  0  0  0  0  0  0  # atno 10167 bound_to 10162
  157.0884  130.6417  149.5843 H   0  0  0  0  0  0  0  0  0  0  0  0  # atno 10718 bound_to 10713
  153.0659  135.6572  154.0356 H   0  0  0  0  0  0  0  0  0  0  0  0  # atno 10763 bound_to 10752
  154.0013  135.2937  155.3404 H   0  0  0  0  0  0  0  0  0  0  0  0  # atno 10764 bound_to 10752
  154.7016  135.5242  153.8604 H   0  0  0  0  0  0  0  0  0  0  0  0  # atno 10765 bound_to 10752
  140.8464  133.7888  155.9917 H   0  0  0  0  0  0  0  0  0  0  0  0  # atno 11005 bound_to 11000
  144.7471  140.5096  143.6828 LP  0  0  0  0  0  0  0  0  0  0  0  0  # atno 17320 bound_to 7965
  145.5760  139.1486  143.3262 LP  0  0  0  0  0  0  0  0  0  0  0  0  # atno 17321 bound_to 7965
  139.4906  144.6427  151.6843 LP  0  0  0  0  0  0  0  0  0  0  0  0  # atno 17342 bound_to 10162
  140.5618  144.0256  150.6173 LP  0  0  0  0  0  0  0  0  0  0  0  0  # atno 17343 bound_to 10162
  155.9905  130.4956  150.7258 LP  0  0  0  0  0  0  0  0  0  0  0  0  # atno 17370 bound_to 10713
  157.4742  131.0896  151.0609 LP  0  0  0  0  0  0  0  0  0  0  0  0  # atno 17371 bound_to 10713
  140.8838  134.2578  157.5130 LP  0  0  0  0  0  0  0  0  0  0  0  0  # atno 17394 bound_to 11000
  139.8703  134.9628  156.4442 LP  0  0  0  0  0  0  0  0  0  0  0  0  # atno 17395 bound_to 11000

$$$$
