AV-unprocessed.smi:21|AV-procd|sdf|128|dock2
  -GOLD-   2262015313D 1   1.00000     0.00000
 Structure written by MMmdl.
 62 65  0  0  0  0  0  0  0  0  2 V2000
  152.6942  142.9430  161.5788 C   0  0  0  0  0  0  0  0  0  0  0  0
  152.5642  144.0466  160.6965 O   0  0  0  0  0  0  0  0  0  0  0  0
  151.5528  143.8732  159.7155 C   0  0  2  0  0  0  0  0  0  0  0  0
  151.6182  142.5198  159.0171 C   0  0  0  0  0  0  0  0  0  0  0  0
  150.9035  142.7591  157.6778 C   0  0  2  0  0  0  0  0  0  0  0  0
  151.3303  141.7835  156.5487 C   0  0  0  0  0  0  0  0  0  0  0  0
  150.4602  140.6122  156.4251 N   0  0  0  0  0  0  0  0  0  0  0  0
  149.3835  140.4679  157.4012 C   0  0  0  0  0  0  0  0  0  0  0  0
  150.9725  139.4817  155.8659 C   0  0  0  0  0  0  0  0  0  0  0  0
  152.0550  139.5841  155.0482 N   0  0  0  0  0  0  0  0  0  0  0  0
  152.5511  138.5058  154.4361 C   0  0  0  0  0  0  0  0  0  0  0  0
  152.1223  137.2451  154.4942 N   0  0  0  0  0  0  0  0  0  0  0  0
  151.0487  137.1267  155.3252 C   0  0  0  0  0  0  0  0  0  0  0  0
  150.4234  138.1787  156.0545 C   0  0  0  0  0  0  0  0  0  0  0  0
  149.3781  137.6616  156.8123 N   0  0  0  0  0  0  0  0  0  0  0  0
  149.3715  136.3878  156.5313 C   0  0  0  0  0  0  0  0  0  0  0  0
  150.3215  135.9871  155.6204 N   0  0  0  0  0  0  0  0  0  0  0  0
  150.5261  134.6415  155.1160 C   0  0  0  0  0  0  0  0  0  0  0  0
  151.0674  133.6280  156.1640 C   0  0  1  0  0  0  0  0  0  0  0  0
  150.1148  133.6070  157.3846 C   0  0  0  0  0  0  0  0  0  0  0  0
  150.5618  132.7040  158.3752 O   0  0  0  0  0  0  0  0  0  0  0  0
  151.2849  132.1966  155.5838 C   0  0  2  0  0  0  0  0  0  0  0  0
  150.0609  131.2925  155.6211 C   0  0  0  0  0  0  0  0  0  0  0  0
  150.6683  129.9086  155.4448 C   0  0  0  0  0  0  0  0  0  0  0  0
  151.8844  129.9572  156.1731 O   0  0  0  0  0  0  0  0  0  0  0  0
  152.2943  131.3110  156.3364 C   0  0  0  0  0  0  0  0  0  0  0  0
  151.0921  144.2119  157.3831 N   0  3  2  0  0  0  0  0  0  0  0  0
  151.7150  144.5826  156.0904 C   0  0  0  0  0  0  0  0  0  0  0  0
  151.7631  144.8327  158.5481 C   0  0  0  0  0  0  0  0  0  0  0  0
  150.5608  144.0342  160.1421 H   0  0  0  0  0  0  0  0  0  0  0  0
  149.8320  142.6427  157.8453 H   0  0  0  0  0  0  0  0  0  0  0  0
  153.4564  143.1633  162.3260 H   0  0  0  0  0  0  0  0  0  0  0  0
  153.0009  142.0402  161.0496 H   0  0  0  0  0  0  0  0  0  0  0  0
  151.7587  142.7424  162.1022 H   0  0  0  0  0  0  0  0  0  0  0  0
  152.6615  142.2515  158.8428 H   0  0  0  0  0  0  0  0  0  0  0  0
  151.1591  141.7237  159.6035 H   0  0  0  0  0  0  0  0  0  0  0  0
  151.2866  142.2985  155.5890 H   0  0  0  0  0  0  0  0  0  0  0  0
  152.3703  141.4931  156.6737 H   0  0  0  0  0  0  0  0  0  0  0  0
  148.5919  139.8249  157.0140 H   0  0  0  0  0  0  0  0  0  0  0  0
  148.9398  141.4371  157.6301 H   0  0  0  0  0  0  0  0  0  0  0  0
  149.7561  140.0381  158.3317 H   0  0  0  0  0  0  0  0  0  0  0  0
  153.4087  138.6793  153.8028 H   0  0  0  0  0  0  0  0  0  0  0  0
  148.6557  135.7059  156.9673 H   0  0  0  0  0  0  0  0  0  0  0  0
  149.5681  134.3064  154.7175 H   0  0  0  0  0  0  0  0  0  0  0  0
  151.2071  134.6916  154.2655 H   0  0  0  0  0  0  0  0  0  0  0  0
  152.0330  133.9850  156.5241 H   0  0  0  0  0  0  0  0  0  0  0  0
  150.0203  134.6023  157.8197 H   0  0  0  0  0  0  0  0  0  0  0  0
  149.1134  133.2825  157.1054 H   0  0  0  0  0  0  0  0  0  0  0  0
  150.9748  131.9686  157.9486 H   0  0  0  0  0  0  0  0  0  0  0  0
  151.6047  132.2795  154.5436 H   0  0  0  0  0  0  0  0  0  0  0  0
  149.5636  131.3601  156.5899 H   0  0  0  0  0  0  0  0  0  0  0  0
  149.3322  131.5192  154.8425 H   0  0  0  0  0  0  0  0  0  0  0  0
  150.0165  129.1123  155.8045 H   0  0  0  0  0  0  0  0  0  0  0  0
  150.8919  129.7200  154.3940 H   0  0  0  0  0  0  0  0  0  0  0  0
  153.3097  131.4298  155.9624 H   0  0  0  0  0  0  0  0  0  0  0  0
  152.2980  131.5332  157.4039 H   0  0  0  0  0  0  0  0  0  0  0  0
  152.7233  144.1764  156.0000 H   0  0  0  0  0  0  0  0  0  0  0  0
  151.7838  145.6678  156.0082 H   0  0  0  0  0  0  0  0  0  0  0  0
  151.1161  144.2348  155.2489 H   0  0  0  0  0  0  0  0  0  0  0  0
  151.3758  145.8314  158.7517 H   0  0  0  0  0  0  0  0  0  0  0  0
  152.8320  144.9251  158.3458 H   0  0  0  0  0  0  0  0  0  0  0  0
  150.1591  144.5986  157.3623 H   0  0  0  0  0  0  0  0  0  0  0  0
  1  2  1  0  0  0  0
  1 32  1  0  0  0  0
  1 33  1  0  0  0  0
  1 34  1  0  0  0  0
  2  3  1  0  0  0  0
  3 30  1  0  0  0  0
  3 29  1  0  0  0  0
  3  4  1  0  0  0  0
  4  5  1  0  0  0  0
  4 35  1  0  0  0  0
  4 36  1  0  0  0  0
  5 31  1  0  0  0  0
  5  6  1  0  0  0  0
  5 27  1  0  0  0  0
  6  7  1  0  0  0  0
  6 37  1  0  0  0  0
  6 38  1  0  0  0  0
  7  8  1  0  0  0  0
  7  9  1  0  0  0  0
  8 39  1  0  0  0  0
  8 40  1  0  0  0  0
  8 41  1  0  0  0  0
  9 14  1  0  0  0  0
  9 10  2  0  0  0  0
 10 11  1  0  0  0  0
 11 12  2  0  0  0  0
 11 42  1  0  0  0  0
 12 13  1  0  0  0  0
 13 17  1  0  0  0  0
 13 14  2  0  0  0  0
 14 15  1  0  0  0  0
 15 16  2  0  0  0  0
 16 17  1  0  0  0  0
 16 43  1  0  0  0  0
 17 18  1  0  0  0  0
 18 19  1  0  0  0  0
 18 44  1  0  0  0  0
 18 45  1  0  0  0  0
 19 20  1  0  0  0  0
 19 22  1  0  0  0  0
 19 46  1  0  0  0  0
 20 21  1  0  0  0  0
 20 47  1  0  0  0  0
 20 48  1  0  0  0  0
 21 49  1  0  0  0  0
 22 26  1  0  0  0  0
 22 23  1  0  0  0  0
 22 50  1  0  0  0  0
 23 24  1  0  0  0  0
 23 51  1  0  0  0  0
 23 52  1  0  0  0  0
 24 25  1  0  0  0  0
 24 53  1  0  0  0  0
 24 54  1  0  0  0  0
 25 26  1  0  0  0  0
 26 55  1  0  0  0  0
 26 56  1  0  0  0  0
 27 28  1  0  0  0  0
 27 29  1  0  0  0  0
 27 62  1  0  0  0  0
 28 57  1  0  0  0  0
 28 58  1  0  0  0  0
 28 59  1  0  0  0  0
 29 60  1  0  0  0  0
 29 61  1  0  0  0  0
M  CHG  1  27   1
M  END
> <s_m_source_file>
AV-unprocessed.smi

> <i_m_source_file_index>
21

> <i_lp_mmshare_version>
43012

> <i_f3d_flags>
0

> <s_epik_input>
W0NIM11PW0NASF0xW0NIMl1bQ0BIXShOKFtDSDNdKVtDSDJdMSlbQ0gyXU4oW0NIM10pYyhuW2NIXW4yKWMoYzIzKW5bY0hdbjNbQ0gyXVtDQEhdKFtDSDJdW09IXSlbQ0BASF00W0NIMl1bQ0gyXU9bQ0gyXTQ=

> <s_epik_cmdline>
J2VwaWtfcHl0aG9uJywgJy1waCcsICc3LjAnLCAnLXRuJywgJzgnLCAnLW1hJywgJzIwMCcsICctbWV0YWxfYmluZGluZycsICctaW1hZScsICc8aW5maWxlLm1hZT4nLCAnLW9tYWUnLCAnPG91dGZpbGUubWFlPic=

> <r_lp_tautomer_probability>
1

> <r_epik_Ionization_Penalty>
0.0157465

> <r_epik_Ionization_Penalty_Charging>
0.015354

> <r_epik_Ionization_Penalty_Neutral>
0.000392529

> <r_epik_State_Penalty>
0.0120612

> <r_epik_Charging_Adjusted_Penalty>
0.0274152

> <i_epik_Tot_Q>
1

> <i_epik_Tot_abs_Q>
1

> <r_epik_Metal_State_Penalty>
0.0121253

> <b_epik_Metal_Only>
0

> <s_lp_Force_Field>
OPLS_2005

> <r_lp_Energy>
60.6524

> <b_lp_Chiralities_Consistent>
1

> <s_lp_Variant>
AV-unprocessed.smi:21-8

> <Gold.Version>
5.8.1

> <Gold.Id.Protein>
6NUR|6NUR_protein|mol2

> <Gold.PLP.Fitness>
53.4179

> <Gold.PLP.PLP>
-44.8255

> <Gold.PLP.part.hbond>
-4.0000

> <Gold.PLP.part.metal>
0.0000

> <Gold.PLP.part.buried>
-9.2644

> <Gold.PLP.part.nonpolar>
-31.8741

> <Gold.PLP.part.repulsive>
0.3039

> <Gold.PLP.ligand.clash>
0.0000

> <Gold.PLP.ligand.torsion>
1.4909

> <Gold.PLP.Chemscore.Hbond>
3.6154

> <Gold.PLP.Chemscore.CHOScore>
0.0000

> <Gold.PLP.Chemscore.Metal>
0.0000

> <Gold.Chemscore.Hbonds>
donor molecule, donor type, donor heavy atom, donor atom, acceptor molecule, acceptor atom, score
      L1  H    27    62       P1  8028  0.92
      P1  H  6896  6909       L1    21  0.31
      P1  H  7989  7998       L1    10  0.87
      P1  H 10752 10764       L1    12  0.85

> <Gold.PLP.Chemscore.Internal.Correction>
0.7281

> <Gold.Rescore>
     Score         DG    S(hbond)    S(metal)    S(lipo)     H(rot)  DE(clash)    DE(int)     intcor
     10.64     -15.33       1.38        0.00     111.95       3.08       0.91       3.78       ----

> <Gold.Chemscore.Fitness>
10.6359

> <Gold.Chemscore.DG>
-15.3256

> <Gold.Chemscore.ZeroCoef>
-5.4800

> <Gold.Chemscore.Hbond>
1.3837

> <Gold.Chemscore.Metal>
0.0000

> <Gold.Chemscore.Lipo>
111.9506

> <Gold.Chemscore.Internal_Hbond>
0.0000

> <Gold.Chemscore.DEClash>
0.9054

> <Gold.Chemscore.DEInternal>
3.7842

> <Gold.Chemscore.Rot>
3.0758

> <Gold.Chemscore.Internal.Correction>
   9.000000E+99

> <Gold.Chemscore.Hbonds>
donor molecule, donor type, donor heavy atom, donor atom, acceptor molecule, acceptor atom, score
      L1  H    27    62       P1  8028  0.13
      P1  H  6896  6909       L1    21  0.11
      P1  H  7989  7998       L1    10  0.25
      P1  H 10752 10764       L1    12  0.72

> <Gold.Chemscore.Hbond.Weighted>
-4.6215

> <Gold.Chemscore.Metal.Weighted>
-0.0000

> <Gold.Chemscore.Lipo.Weighted>
-13.0982

> <Gold.Chemscore.Internal_Hbond.Weighted>
0.0000

> <Gold.Chemscore.DEClash.Weighted>
0.9054

> <Gold.Chemscore.DEInternal.Weighted>
3.7842

> <Gold.Chemscore.Rot.Weighted>
7.8741

> <Gold.Chemscore.Internal.Correction.Weighted>
   9.000000E+99

> <Gold.Protein.RotatedTorsions>
[ 6907 6896 6895 6894 ] final  -23.95 input  -60.11 | X-H torsion
[ 7974 7965 7964 7962 ] final   35.78 input  175.53 | X-H torsion
[ 8008 7997 7996 7995 ] final -148.20 input   59.86 | X-H torsion
[ 10167 10162 10161 10158 ] final  -45.83 input  -65.29 | X-H torsion
[ 10718 10713 10712 10709 ] final  152.15 input   66.30 | X-H torsion
[ 10763 10752 10751 10750 ] final  -81.80 input  -60.55 | X-H torsion
[ 11005 11000 10999 10996 ] final   -0.37 input  -57.11 | X-H torsion

> <Gold.Protein.ActiveResidues>
 VAL166  LYS551  ARG553  GLY616  TRP617  ASP618  TYR619  PRO620  LYS621  CYS622 
 ASP623  PHE694  ASN695  SER759  ASP760  ASP761  ALA762  ILE779  LEU786  VAL792 
 PHE793  MET794  SER795  GLU796  ALA797  LYS798  CYS799  TRP800  GLU811  SER814 

> <Gold.Protein.RotatedAtoms>
  151.1965  135.0424  159.8854 H   0  0  0  0  0  0  0  0  0  0  0  0  # atno 6907 bound_to 6896
  152.5436  134.0897  159.8282 H   0  0  0  0  0  0  0  0  0  0  0  0  # atno 6908 bound_to 6896
  151.1033  133.5180  159.2641 H   0  0  0  0  0  0  0  0  0  0  0  0  # atno 6909 bound_to 6896
  146.1259  139.6100  142.9259 H   0  0  0  0  0  0  0  0  0  0  0  0  # atno 7974 bound_to 7965
  155.5877  140.0649  157.2767 H   0  0  0  0  0  0  0  0  0  0  0  0  # atno 8008 bound_to 7997
  154.4314  140.1841  156.1089 H   0  0  0  0  0  0  0  0  0  0  0  0  # atno 8009 bound_to 7997
  156.0256  140.3312  155.7089 H   0  0  0  0  0  0  0  0  0  0  0  0  # atno 8010 bound_to 7997
  140.6842  143.2860  151.3695 H   0  0  0  0  0  0  0  0  0  0  0  0  # atno 10167 bound_to 10162
  157.2616  131.0799  151.1662 H   0  0  0  0  0  0  0  0  0  0  0  0  # atno 10718 bound_to 10713
  154.5680  135.5613  153.7068 H   0  0  0  0  0  0  0  0  0  0  0  0  # atno 10763 bound_to 10752
  153.0039  135.6290  154.2153 H   0  0  0  0  0  0  0  0  0  0  0  0  # atno 10764 bound_to 10752
  154.2093  135.2874  155.2944 H   0  0  0  0  0  0  0  0  0  0  0  0  # atno 10765 bound_to 10752
  140.6356  133.9536  155.8298 H   0  0  0  0  0  0  0  0  0  0  0  0  # atno 11005 bound_to 11000
  145.5367  141.0423  143.2353 LP  0  0  0  0  0  0  0  0  0  0  0  0  # atno 17320 bound_to 7965
  144.7642  139.6885  143.7222 LP  0  0  0  0  0  0  0  0  0  0  0  0  # atno 17321 bound_to 7965
  139.6188  144.0949  152.2371 LP  0  0  0  0  0  0  0  0  0  0  0  0  # atno 17342 bound_to 10162
  140.0387  144.6024  150.7429 LP  0  0  0  0  0  0  0  0  0  0  0  0  # atno 17343 bound_to 10162
  157.3170  130.6918  149.6247 LP  0  0  0  0  0  0  0  0  0  0  0  0  # atno 17370 bound_to 10713
  155.9664  130.4347  150.5059 LP  0  0  0  0  0  0  0  0  0  0  0  0  # atno 17371 bound_to 10713
  141.0644  134.0298  157.3614 LP  0  0  0  0  0  0  0  0  0  0  0  0  # atno 17394 bound_to 11000
  139.9099  135.0188  156.7649 LP  0  0  0  0  0  0  0  0  0  0  0  0  # atno 17395 bound_to 11000

$$$$
