AV-unprocessed.smi:2296|AV-procd|sdf|9221|dock3
  -GOLD-   2272012443D 1   1.00000     0.00000
 Structure written by MMmdl.
 24 24  0  0  0  0  0  0  0  0  2 V2000
  145.3674  136.4085  149.8277 N   0  3  0  0  0  0  0  0  0  0  0  0
  146.0012  136.2527  151.1514 C   0  0  1  0  0  0  0  0  0  0  0  0
  146.1950  137.6275  151.8137 C   0  0  0  0  0  0  0  0  0  0  0  0
  147.2710  138.3135  151.2088 O   0  0  0  0  0  0  0  0  0  0  0  0
  145.1688  135.3118  152.0441 C   0  0  0  0  0  0  0  0  0  0  0  0
  144.9447  133.9435  151.4241 C   0  0  0  0  0  0  0  0  0  0  0  0
  143.6436  133.4162  151.2878 C   0  0  0  0  0  0  0  0  0  0  0  0
  143.4926  132.1434  150.7009 C   0  0  0  0  0  0  0  0  0  0  0  0
  144.5315  131.4033  150.2587 N   0  0  0  0  0  0  0  0  0  0  0  0
  145.7746  131.9129  150.3942 C   0  0  0  0  0  0  0  0  0  0  0  0
  146.0347  133.1742  150.9672 C   0  0  0  0  0  0  0  0  0  0  0  0
  145.9945  136.0745  149.1101 H   0  0  0  0  0  0  0  0  0  0  0  0
  145.1571  137.3833  149.6668 H   0  0  0  0  0  0  0  0  0  0  0  0
  146.9829  135.8014  150.9982 H   0  0  0  0  0  0  0  0  0  0  0  0
  145.2894  138.2316  151.7452 H   0  0  0  0  0  0  0  0  0  0  0  0
  146.4244  137.5101  152.8734 H   0  0  0  0  0  0  0  0  0  0  0  0
  148.0650  137.8217  151.3572 H   0  0  0  0  0  0  0  0  0  0  0  0
  145.6734  135.1681  153.0006 H   0  0  0  0  0  0  0  0  0  0  0  0
  144.2055  135.7681  152.2769 H   0  0  0  0  0  0  0  0  0  0  0  0
  142.7783  133.9680  151.6251 H   0  0  0  0  0  0  0  0  0  0  0  0
  142.5106  131.7103  150.5813 H   0  0  0  0  0  0  0  0  0  0  0  0
  146.5863  131.2983  150.0339 H   0  0  0  0  0  0  0  0  0  0  0  0
  147.0483  133.5383  151.0521 H   0  0  0  0  0  0  0  0  0  0  0  0
  144.5129  135.8702  149.8048 H   0  0  0  0  0  0  0  0  0  0  0  0
  1  2  1  0  0  0  0
  1 12  1  0  0  0  0
  1 13  1  0  0  0  0
  1 24  1  0  0  0  0
  2  3  1  0  0  0  0
  2  5  1  0  0  0  0
  2 14  1  0  0  0  0
  3  4  1  0  0  0  0
  3 15  1  0  0  0  0
  3 16  1  0  0  0  0
  4 17  1  0  0  0  0
  5  6  1  0  0  0  0
  5 18  1  0  0  0  0
  5 19  1  0  0  0  0
  6 11  1  0  0  0  0
  6  7  2  0  0  0  0
  7  8  1  0  0  0  0
  7 20  1  0  0  0  0
  8  9  2  0  0  0  0
  8 21  1  0  0  0  0
  9 10  1  0  0  0  0
 10 11  2  0  0  0  0
 10 22  1  0  0  0  0
 11 23  1  0  0  0  0
M  CHG  1   1   1
M  END
> <s_m_source_file>
AV-unprocessed.smi

> <i_m_source_file_index>
2296

> <i_lp_mmshare_version>
43012

> <i_f3d_flags>
0

> <s_epik_input>
W09IXVtDSDJdW0NAQEhdKFtOSDJdKVtDSDJdYzFbY0hdW2NIXW5bY0hdW2NIXTE=

> <s_epik_cmdline>
J2VwaWtfcHl0aG9uJywgJy1waCcsICc3LjAnLCAnLXRuJywgJzgnLCAnLW1hJywgJzIwMCcsICctbWV0YWxfYmluZGluZycsICctaW1hZScsICc8aW5maWxlLm1hZT4nLCAnLW9tYWUnLCAnPG91dGZpbGUubWFlPic=

> <r_epik_Ionization_Penalty>
0.0199414

> <r_epik_Ionization_Penalty_Charging>
0.0188044

> <r_epik_Ionization_Penalty_Neutral>
0.00113699

> <r_epik_State_Penalty>
0.00788343

> <r_epik_Charging_Adjusted_Penalty>
0.0266878

> <i_epik_Tot_Q>
1

> <i_epik_Tot_abs_Q>
1

> <r_epik_Metal_State_Penalty>
-0

> <b_epik_Metal_Only>
0

> <s_lp_Force_Field>
OPLS_2005

> <r_lp_Energy>
8.03463

> <b_lp_Chiralities_Consistent>
1

> <s_lp_Variant>
AV-unprocessed.smi:2296-2

> <Gold.Version>
5.8.1

> <Gold.Id.Protein>
6NUR|6NUR_protein|mol2

> <Gold.PLP.Fitness>
40.3727

> <Gold.PLP.PLP>
-25.5335

> <Gold.PLP.part.hbond>
-5.8662

> <Gold.PLP.part.metal>
0.0000

> <Gold.PLP.part.buried>
-1.8245

> <Gold.PLP.part.nonpolar>
-19.1255

> <Gold.PLP.part.repulsive>
0.2633

> <Gold.PLP.ligand.clash>
0.0000

> <Gold.PLP.ligand.torsion>
0.1801

> <Gold.PLP.Chemscore.Hbond>
3.0611

> <Gold.PLP.Chemscore.CHOScore>
2.0000

> <Gold.PLP.Chemscore.Metal>
0.0000

> <Gold.Chemscore.Hbonds>
donor molecule, donor type, donor heavy atom, donor atom, acceptor molecule, acceptor atom, score
      L1  H     1    12       P1  7921  0.88
      L1  H     1    13       P1 10171  0.86
      L1  H     4    17       P1  7948  1.00
      P1  H 10785 10796       L1     9  0.05
      L1  C     8    21       P1 10952  1.00
      L1  C    10    22       P1 10747  1.00

> <Gold.PLP.Chemscore.Internal.Correction>
0.0160

> <Gold.Rescore>
     Score         DG    S(hbond)    S(metal)    S(lipo)     H(rot)  DE(clash)    DE(int)     intcor
     15.77     -16.25       2.81        0.00      58.70       2.14       0.26       0.23       ----

> <Gold.Chemscore.Fitness>
15.7654

> <Gold.Chemscore.DG>
-16.2519

> <Gold.Chemscore.ZeroCoef>
-5.4800

> <Gold.Chemscore.Hbond>
2.8093

> <Gold.Chemscore.Metal>
0.0000

> <Gold.Chemscore.Lipo>
58.7050

> <Gold.Chemscore.Internal_Hbond>
0.0000

> <Gold.Chemscore.DEClash>
0.2591

> <Gold.Chemscore.DEInternal>
0.2274

> <Gold.Chemscore.Rot>
2.1405

> <Gold.Chemscore.Internal.Correction>
   9.000000E+99

> <Gold.Chemscore.Hbonds>
donor molecule, donor type, donor heavy atom, donor atom, acceptor molecule, acceptor atom, score
      L1  H     1    12       P1  7921  0.86
      L1  H     1    13       P1 10171  0.85
      L1  H     4    17       P1  7948  0.96
      P1  H 10785 10796       L1     9  0.01

> <Gold.Chemscore.Hbond.Weighted>
-9.3832

> <Gold.Chemscore.Metal.Weighted>
-0.0000

> <Gold.Chemscore.Lipo.Weighted>
-6.8685

> <Gold.Chemscore.Internal_Hbond.Weighted>
0.0000

> <Gold.Chemscore.DEClash.Weighted>
0.2591

> <Gold.Chemscore.DEInternal.Weighted>
0.2274

> <Gold.Chemscore.Rot.Weighted>
5.4797

> <Gold.Chemscore.Internal.Correction.Weighted>
   9.000000E+99

> <Gold.Protein.RotatedTorsions>
[ 6907 6896 6895 6894 ] final  103.56 input  -60.11 | X-H torsion
[ 7974 7965 7964 7962 ] final -119.37 input  175.53 | X-H torsion
[ 8008 7997 7996 7995 ] final  -86.40 input   59.86 | X-H torsion
[ 10167 10162 10161 10158 ] final  109.03 input  -65.29 | X-H torsion
[ 10718 10713 10712 10709 ] final  143.07 input   66.30 | X-H torsion
[ 10763 10752 10751 10750 ] final -121.65 input  -60.55 | X-H torsion
[ 11005 11000 10999 10996 ] final  -89.70 input  -57.11 | X-H torsion

> <Gold.Protein.ActiveResidues>
 VAL166  LYS551  ARG553  GLY616  TRP617  ASP618  TYR619  PRO620  LYS621  CYS622 
 ASP623  PHE694  ASN695  SER759  ASP760  ASP761  ALA762  ILE779  LEU786  VAL792 
 PHE793  MET794  SER795  GLU796  ALA797  LYS798  CYS799  TRP800  GLU811  SER814 

> <Gold.Protein.RotatedAtoms>
  152.5292  133.9808  159.7805 H   0  0  0  0  0  0  0  0  0  0  0  0  # atno 6907 bound_to 6896
  151.0062  133.6001  159.2695 H   0  0  0  0  0  0  0  0  0  0  0  0  # atno 6908 bound_to 6896
  151.3092  135.0796  159.9319 H   0  0  0  0  0  0  0  0  0  0  0  0  # atno 6909 bound_to 6896
  145.0632  140.8306  143.4139 H   0  0  0  0  0  0  0  0  0  0  0  0  # atno 7974 bound_to 7965
  154.6514  140.0579  156.9960 H   0  0  0  0  0  0  0  0  0  0  0  0  # atno 8008 bound_to 7997
  155.1365  140.3261  155.4443 H   0  0  0  0  0  0  0  0  0  0  0  0  # atno 8009 bound_to 7997
  156.2578  140.1971  156.6482 H   0  0  0  0  0  0  0  0  0  0  0  0  # atno 8010 bound_to 7997
  139.6799  144.7119  151.1534 H   0  0  0  0  0  0  0  0  0  0  0  0  # atno 10167 bound_to 10162
  157.3733  131.0982  151.0808 H   0  0  0  0  0  0  0  0  0  0  0  0  # atno 10718 bound_to 10713
  154.8673  135.4160  154.2655 H   0  0  0  0  0  0  0  0  0  0  0  0  # atno 10763 bound_to 10752
  153.3575  135.7002  153.6744 H   0  0  0  0  0  0  0  0  0  0  0  0  # atno 10764 bound_to 10752
  153.5659  135.3601  155.2790 H   0  0  0  0  0  0  0  0  0  0  0  0  # atno 10765 bound_to 10752
  141.1580  133.7646  156.9632 H   0  0  0  0  0  0  0  0  0  0  0  0  # atno 11005 bound_to 11000
  145.1382  139.2588  143.5504 LP  0  0  0  0  0  0  0  0  0  0  0  0  # atno 17320 bound_to 7965
  146.3525  140.1052  142.8606 LP  0  0  0  0  0  0  0  0  0  0  0  0  # atno 17321 bound_to 7965
  140.7648  143.5715  150.8991 LP  0  0  0  0  0  0  0  0  0  0  0  0  # atno 17342 bound_to 10162
  139.9386  143.6408  152.3059 LP  0  0  0  0  0  0  0  0  0  0  0  0  # atno 17343 bound_to 10162
  157.1904  130.6349  149.5702 LP  0  0  0  0  0  0  0  0  0  0  0  0  # atno 17370 bound_to 10713
  155.9760  130.4724  150.6497 LP  0  0  0  0  0  0  0  0  0  0  0  0  # atno 17371 bound_to 10713
  140.1179  134.9435  157.2161 LP  0  0  0  0  0  0  0  0  0  0  0  0  # atno 17394 bound_to 11000
  140.3109  134.3024  155.7267 LP  0  0  0  0  0  0  0  0  0  0  0  0  # atno 17395 bound_to 11000

$$$$
