AV-unprocessed.smi:1033|AV-procd|sdf|4503|dock4
  -GOLD-   22720 2503D 1   1.00000     0.00000
 Structure written by MMmdl.
 57 59  0  0  0  0  0  0  0  0  3 V2000
  152.4023  144.1691  161.2370 C   0  0  0  0  0  0  0  0  0  0  0  0
  152.1077  143.2089  160.0970 C   0  0  0  0  0  0  0  0  0  0  0  0
  151.2907  143.6551  159.0334 C   0  0  0  0  0  0  0  0  0  0  0  0
  151.0402  142.7544  158.0051 C   0  0  0  0  0  0  0  0  0  0  0  0
  150.2866  142.8847  156.8363 N   0  3  0  0  0  0  0  0  0  0  0  0
  150.3376  141.7209  156.1306 C   0  0  0  0  0  0  0  0  0  0  0  0
  151.1120  140.8499  156.8329 N   0  0  0  0  0  0  0  0  0  0  0  0
  151.4882  139.4637  156.5276 C   0  0  0  0  0  0  0  0  0  0  0  0
  150.6593  138.8567  155.3789 C   0  0  1  0  0  0  0  0  0  0  0  0
  151.0023  139.5063  154.1706 O   0  0  0  0  0  0  0  0  0  0  0  0
  150.9365  137.3487  155.2221 C   0  0  0  0  0  0  0  0  0  0  0  0
  150.2981  136.4815  156.2204 N   0  0  0  0  0  0  0  0  0  0  0  0
  148.8401  136.4696  156.1044 C   0  0  0  0  0  0  0  0  0  0  0  0
  148.3337  135.7110  154.8606 C   0  0  0  0  0  0  0  0  0  0  0  0
  148.8373  134.3134  154.8637 N   0  3  0  0  0  0  0  0  0  0  0  0
  148.3196  133.5233  153.7173 C   0  0  0  0  0  0  0  0  0  0  0  0
  148.2522  132.0126  154.0165 C   0  0  2  0  0  0  0  0  0  0  0  0
  149.6330  131.4275  154.3391 C   0  0  0  0  0  0  0  0  0  0  0  0
  147.7409  131.3357  152.8859 O   0  0  0  0  0  0  0  0  0  0  0  0
  150.3200  134.2897  154.9850 C   0  0  0  0  0  0  0  0  0  0  0  0
  150.7703  135.0936  156.2222 C   0  0  0  0  0  0  0  0  0  0  0  0
  151.5718  141.4504  158.0090 C   0  0  0  0  0  0  0  0  0  0  0  0
  152.3776  140.9936  159.0489 C   0  0  0  0  0  0  0  0  0  0  0  0
  152.6431  141.8945  160.1049 C   0  0  0  0  0  0  0  0  0  0  0  0
  153.5182  141.4247  161.2546 C   0  0  0  0  0  0  0  0  0  0  0  0
  151.9308  145.1388  161.0746 H   0  0  0  0  0  0  0  0  0  0  0  0
  153.4760  144.3332  161.3320 H   0  0  0  0  0  0  0  0  0  0  0  0
  152.0274  143.7701  162.1799 H   0  0  0  0  0  0  0  0  0  0  0  0
  150.8787  144.6536  159.0209 H   0  0  0  0  0  0  0  0  0  0  0  0
  149.8494  141.5228  155.1871 H   0  0  0  0  0  0  0  0  0  0  0  0
  152.5488  139.4619  156.2720 H   0  0  0  0  0  0  0  0  0  0  0  0
  151.3883  138.8718  157.4382 H   0  0  0  0  0  0  0  0  0  0  0  0
  149.6048  139.0395  155.5788 H   0  0  0  0  0  0  0  0  0  0  0  0
  150.5867  139.0475  153.4561 H   0  0  0  0  0  0  0  0  0  0  0  0
  150.6083  137.0502  154.2253 H   0  0  0  0  0  0  0  0  0  0  0  0
  152.0139  137.1876  155.2294 H   0  0  0  0  0  0  0  0  0  0  0  0
  148.4166  136.0061  156.9966 H   0  0  0  0  0  0  0  0  0  0  0  0
  148.4605  137.4922  156.0949 H   0  0  0  0  0  0  0  0  0  0  0  0
  147.2431  135.7049  154.8653 H   0  0  0  0  0  0  0  0  0  0  0  0
  148.6404  136.2161  153.9435 H   0  0  0  0  0  0  0  0  0  0  0  0
  147.3186  133.8698  153.4550 H   0  0  0  0  0  0  0  0  0  0  0  0
  148.9440  133.7126  152.8427 H   0  0  0  0  0  0  0  0  0  0  0  0
  147.5927  131.8150  154.8608 H   0  0  0  0  0  0  0  0  0  0  0  0
  150.0644  131.9055  155.2191 H   0  0  0  0  0  0  0  0  0  0  0  0
  150.3293  131.5663  153.5112 H   0  0  0  0  0  0  0  0  0  0  0  0
  149.5688  130.3584  154.5450 H   0  0  0  0  0  0  0  0  0  0  0  0
  148.3755  131.3877  152.1868 H   0  0  0  0  0  0  0  0  0  0  0  0
  150.6717  133.2643  155.0893 H   0  0  0  0  0  0  0  0  0  0  0  0
  150.7781  134.6836  154.0772 H   0  0  0  0  0  0  0  0  0  0  0  0
  151.8541  135.0530  156.3166 H   0  0  0  0  0  0  0  0  0  0  0  0
  150.3882  134.5958  157.1146 H   0  0  0  0  0  0  0  0  0  0  0  0
  152.7849  139.9936  159.0536 H   0  0  0  0  0  0  0  0  0  0  0  0
  153.8349  140.3902  161.1180 H   0  0  0  0  0  0  0  0  0  0  0  0
  152.9759  141.4846  162.1986 H   0  0  0  0  0  0  0  0  0  0  0  0
  154.4145  142.0406  161.3297 H   0  0  0  0  0  0  0  0  0  0  0  0
  148.4658  133.8831  155.6989 H   0  0  0  0  0  0  0  0  0  0  0  0
  149.7736  143.7048  156.5394 H   0  0  0  0  0  0  0  0  0  0  0  0
  1  2  1  0  0  0  0
  1 26  1  0  0  0  0
  1 27  1  0  0  0  0
  1 28  1  0  0  0  0
  2 24  1  0  0  0  0
  2  3  2  0  0  0  0
  3  4  1  0  0  0  0
  3 29  1  0  0  0  0
  4 22  2  0  0  0  0
  4  5  1  0  0  0  0
  5  6  2  0  0  0  0
  5 57  1  0  0  0  0
  6  7  1  0  0  0  0
  6 30  1  0  0  0  0
  7  8  1  0  0  0  0
  7 22  1  0  0  0  0
  8  9  1  0  0  0  0
  8 31  1  0  0  0  0
  8 32  1  0  0  0  0
  9 10  1  0  0  0  0
  9 11  1  0  0  0  0
  9 33  1  0  0  0  0
 10 34  1  0  0  0  0
 11 12  1  0  0  0  0
 11 35  1  0  0  0  0
 11 36  1  0  0  0  0
 12 21  1  0  0  0  0
 12 13  1  0  0  0  0
 13 14  1  0  0  0  0
 13 37  1  0  0  0  0
 13 38  1  0  0  0  0
 14 15  1  0  0  0  0
 14 39  1  0  0  0  0
 14 40  1  0  0  0  0
 15 16  1  0  0  0  0
 15 20  1  0  0  0  0
 15 56  1  0  0  0  0
 16 17  1  0  0  0  0
 16 41  1  0  0  0  0
 16 42  1  0  0  0  0
 17 18  1  0  0  0  0
 17 19  1  0  0  0  0
 17 43  1  0  0  0  0
 18 44  1  0  0  0  0
 18 45  1  0  0  0  0
 18 46  1  0  0  0  0
 19 47  1  0  0  0  0
 20 21  1  0  0  0  0
 20 48  1  0  0  0  0
 20 49  1  0  0  0  0
 21 50  1  0  0  0  0
 21 51  1  0  0  0  0
 22 23  1  0  0  0  0
 23 24  2  0  0  0  0
 23 52  1  0  0  0  0
 24 25  1  0  0  0  0
 25 53  1  0  0  0  0
 25 54  1  0  0  0  0
 25 55  1  0  0  0  0
M  CHG  1   5   1
M  CHG  1  15   1
M  END
> <s_m_source_file>
AV-unprocessed.smi

> <i_m_source_file_index>
1033

> <i_lp_mmshare_version>
43012

> <i_f3d_flags>
0

> <s_epik_input>
W0NIM11jKFtjSF0xKWMoW0NIM10pW2NIXWMoYzEyKW4oW2NIXW4yKVtDSDJdW0NASF0oW09IXSlbQ0gyXU4zW0NIMl1bQ0gyXU4oW0NIMl1bQ0gyXTMpW0NIMl1bQ0BIXShbQ0gzXSlbT0hd

> <s_epik_cmdline>
J2VwaWtfcHl0aG9uJywgJy1waCcsICc3LjAnLCAnLXRuJywgJzgnLCAnLW1hJywgJzIwMCcsICctbWV0YWxfYmluZGluZycsICctaW1hZScsICc8aW5maWxlLm1hZT4nLCAnLW9tYWUnLCAnPG91dGZpbGUubWFlPic=

> <r_epik_Ionization_Penalty>
1.28617

> <r_epik_Ionization_Penalty_Charging>
1.23646

> <r_epik_Ionization_Penalty_Neutral>
0.0497112

> <r_epik_State_Penalty>
1.79157

> <r_epik_Charging_Adjusted_Penalty>
3.02803

> <i_epik_Tot_Q>
2

> <i_epik_Tot_abs_Q>
2

> <r_epik_Metal_State_Penalty>
5.81739

> <b_epik_Metal_Only>
0

> <s_lp_Force_Field>
OPLS_2005

> <r_lp_Energy>
41.025

> <b_lp_Chiralities_Consistent>
1

> <s_lp_Variant>
AV-unprocessed.smi:1033-14

> <Gold.Version>
5.8.1

> <Gold.Id.Protein>
6NUR|6NUR_protein|mol2

> <Gold.PLP.Fitness>
56.6346

> <Gold.PLP.PLP>
-45.6474

> <Gold.PLP.part.hbond>
-3.0000

> <Gold.PLP.part.metal>
0.0000

> <Gold.PLP.part.buried>
-5.1328

> <Gold.PLP.part.nonpolar>
-36.8778

> <Gold.PLP.part.repulsive>
0.0561

> <Gold.PLP.ligand.clash>
0.0000

> <Gold.PLP.ligand.torsion>
0.6034

> <Gold.PLP.Chemscore.Hbond>
3.9920

> <Gold.PLP.Chemscore.CHOScore>
0.0000

> <Gold.PLP.Chemscore.Metal>
0.0000

> <Gold.Chemscore.Hbonds>
donor molecule, donor type, donor heavy atom, donor atom, acceptor molecule, acceptor atom, score
      L1  H     5    57       P1  8028  2.00
      L1  H    19    47       P1 10747  0.93
      P1  H  7989  7998       L1    10  1.00

> <Gold.PLP.Chemscore.Internal.Correction>
0.2180

> <Gold.Rescore>
     Score         DG    S(hbond)    S(metal)    S(lipo)     H(rot)  DE(clash)    DE(int)     intcor
     18.56     -21.78       2.88        0.00     126.02       3.15       1.47       1.75       ----

> <Gold.Chemscore.Fitness>
18.5620

> <Gold.Chemscore.DG>
-21.7766

> <Gold.Chemscore.ZeroCoef>
-5.4800

> <Gold.Chemscore.Hbond>
2.8779

> <Gold.Chemscore.Metal>
0.0000

> <Gold.Chemscore.Lipo>
126.0187

> <Gold.Chemscore.Internal_Hbond>
0.0000

> <Gold.Chemscore.DEClash>
1.4692

> <Gold.Chemscore.DEInternal>
1.7454

> <Gold.Chemscore.Rot>
3.1483

> <Gold.Chemscore.Internal.Correction>
   9.000000E+99

> <Gold.Chemscore.Hbonds>
donor molecule, donor type, donor heavy atom, donor atom, acceptor molecule, acceptor atom, score
      L1  H     5    57       P1  8028  0.98
      L1  H    19    47       P1 10747  0.83
      P1  H  7989  7998       L1    10  0.45

> <Gold.Chemscore.Hbond.Weighted>
-9.6121

> <Gold.Chemscore.Metal.Weighted>
-0.0000

> <Gold.Chemscore.Lipo.Weighted>
-14.7442

> <Gold.Chemscore.Internal_Hbond.Weighted>
0.0000

> <Gold.Chemscore.DEClash.Weighted>
1.4692

> <Gold.Chemscore.DEInternal.Weighted>
1.7454

> <Gold.Chemscore.Rot.Weighted>
8.0597

> <Gold.Chemscore.Internal.Correction.Weighted>
   9.000000E+99

> <Gold.Protein.RotatedTorsions>
[ 6907 6896 6895 6894 ] final  166.85 input  -60.11 | X-H torsion
[ 7974 7965 7964 7962 ] final   72.95 input  175.53 | X-H torsion
[ 8008 7997 7996 7995 ] final  -27.11 input   59.86 | X-H torsion
[ 10167 10162 10161 10158 ] final -177.50 input  -65.29 | X-H torsion
[ 10718 10713 10712 10709 ] final  105.94 input   66.30 | X-H torsion
[ 10763 10752 10751 10750 ] final -111.31 input  -60.55 | X-H torsion
[ 11005 11000 10999 10996 ] final   97.82 input  -57.11 | X-H torsion

> <Gold.Protein.ActiveResidues>
 VAL166  LYS551  ARG553  GLY616  TRP617  ASP618  TYR619  PRO620  LYS621  CYS622 
 ASP623  PHE694  ASN695  SER759  ASP760  ASP761  ALA762  ILE779  LEU786  VAL792 
 PHE793  MET794  SER795  GLU796  ALA797  LYS798  CYS799  TRP800  GLU811  SER814 

> <Gold.Protein.RotatedAtoms>
  151.8725  133.3478  159.3739 H   0  0  0  0  0  0  0  0  0  0  0  0  # atno 6907 bound_to 6896
  150.7149  134.5099  159.5611 H   0  0  0  0  0  0  0  0  0  0  0  0  # atno 6908 bound_to 6896
  152.2634  134.8010  160.0477 H   0  0  0  0  0  0  0  0  0  0  0  0  # atno 6909 bound_to 6896
  145.7469  139.2744  143.1454 H   0  0  0  0  0  0  0  0  0  0  0  0  # atno 7974 bound_to 7965
  154.4392  140.1881  156.0881 H   0  0  0  0  0  0  0  0  0  0  0  0  # atno 8008 bound_to 7997
  156.0387  140.3322  155.7193 H   0  0  0  0  0  0  0  0  0  0  0  0  # atno 8009 bound_to 7997
  155.5732  140.0614  157.2792 H   0  0  0  0  0  0  0  0  0  0  0  0  # atno 8010 bound_to 7997
  139.5477  144.2191  152.1019 H   0  0  0  0  0  0  0  0  0  0  0  0  # atno 10167 bound_to 10162
  157.6687  131.0839  150.5932 H   0  0  0  0  0  0  0  0  0  0  0  0  # atno 10718 bound_to 10713
  154.8294  135.4532  154.1020 H   0  0  0  0  0  0  0  0  0  0  0  0  # atno 10763 bound_to 10752
  153.2306  135.6905  153.7900 H   0  0  0  0  0  0  0  0  0  0  0  0  # atno 10764 bound_to 10752
  153.7284  135.3331  155.3257 H   0  0  0  0  0  0  0  0  0  0  0  0  # atno 10765 bound_to 10752
  139.8774  134.9019  156.4364 H   0  0  0  0  0  0  0  0  0  0  0  0  # atno 11005 bound_to 11000
  146.0394  140.8180  142.9836 LP  0  0  0  0  0  0  0  0  0  0  0  0  # atno 17320 bound_to 7965
  144.6858  140.2887  143.7281 LP  0  0  0  0  0  0  0  0  0  0  0  0  # atno 17321 bound_to 7965
  140.1681  144.4962  150.6595 LP  0  0  0  0  0  0  0  0  0  0  0  0  # atno 17342 bound_to 10162
  140.6731  143.2293  151.5576 LP  0  0  0  0  0  0  0  0  0  0  0  0  # atno 17343 bound_to 10162
  156.6232  130.4411  149.5814 LP  0  0  0  0  0  0  0  0  0  0  0  0  # atno 17370 bound_to 10713
  156.2339  130.6811  151.1490 LP  0  0  0  0  0  0  0  0  0  0  0  0  # atno 17371 bound_to 10713
  140.9030  133.7766  155.9702 LP  0  0  0  0  0  0  0  0  0  0  0  0  # atno 17394 bound_to 11000
  140.8630  134.2818  157.5226 LP  0  0  0  0  0  0  0  0  0  0  0  0  # atno 17395 bound_to 11000

$$$$
