AV-unprocessed.smi:1484|AV-procd|sdf|5996|dock3
  -GOLD-   22720 6 93D 1   1.00000     0.00000
 Structure written by MMmdl.
 37 38  0  0  0  0  0  0  0  0  2 V2000
  150.8411  142.7199  158.0235 C   0  0  0  0  0  0  0  0  0  0  0  0
  150.6465  141.3279  157.4064 C   0  0  1  0  0  0  0  0  0  0  0  0
  150.9689  141.3296  155.8995 C   0  0  0  0  0  0  0  0  0  0  0  0
  150.7864  139.9356  155.2782 C   0  0  0  0  0  0  0  0  0  0  0  0
  151.6273  138.8790  156.0171 C   0  0  0  0  0  0  0  0  0  0  0  0
  151.3257  138.8557  157.5278 C   0  0  2  0  0  0  0  0  0  0  0  0
  149.9773  138.3459  157.7502 N   0  0  0  0  0  0  0  0  0  0  0  0
  149.5938  137.4641  158.6874 C   0  0  0  0  0  0  0  0  0  0  0  0
  150.3795  136.9415  159.4776 O   0  0  0  0  0  0  0  0  0  0  0  0
  148.0968  137.1127  158.7611 C   0  0  0  0  0  0  0  0  0  0  0  0
  147.7162  136.3234  159.9452 N   0  0  0  0  0  0  0  0  0  0  0  0
  147.4156  137.1336  161.1232 N   0  5  0  0  0  0  0  0  0  0  0  0
  146.9319  136.5262  162.2389 C   0  0  0  0  0  0  0  0  0  0  0  0
  146.6098  137.1469  163.2492 O   0  0  0  0  0  0  0  0  0  0  0  0
  146.7992  135.0789  162.2262 C   0  0  0  0  0  0  0  0  0  0  0  0
  147.1208  134.3523  161.1378 C   0  0  0  0  0  0  0  0  0  0  0  0
  147.6022  134.9650  159.9055 C   0  0  0  0  0  0  0  0  0  0  0  0
  147.8647  134.3100  158.8969 O   0  0  0  0  0  0  0  0  0  0  0  0
  151.4915  140.2636  158.1391 C   0  0  0  0  0  0  0  0  0  0  0  0
  151.8767  143.0503  157.9395 H   0  0  0  0  0  0  0  0  0  0  0  0
  150.5757  142.7197  159.0810 H   0  0  0  0  0  0  0  0  0  0  0  0
  150.2129  143.4603  157.5273 H   0  0  0  0  0  0  0  0  0  0  0  0
  149.5932  141.0675  157.5237 H   0  0  0  0  0  0  0  0  0  0  0  0
  150.3286  142.0451  155.3826 H   0  0  0  0  0  0  0  0  0  0  0  0
  151.9953  141.6639  155.7427 H   0  0  0  0  0  0  0  0  0  0  0  0
  149.7316  139.6578  155.3074 H   0  0  0  0  0  0  0  0  0  0  0  0
  151.0659  139.9606  154.2247 H   0  0  0  0  0  0  0  0  0  0  0  0
  151.4536  137.8935  155.5827 H   0  0  0  0  0  0  0  0  0  0  0  0
  152.6855  139.0952  155.8659 H   0  0  0  0  0  0  0  0  0  0  0  0
  152.0333  138.1762  158.0061 H   0  0  0  0  0  0  0  0  0  0  0  0
  149.2503  138.7267  157.1607 H   0  0  0  0  0  0  0  0  0  0  0  0
  147.5170  138.0361  158.7149 H   0  0  0  0  0  0  0  0  0  0  0  0
  147.8352  136.5640  157.8547 H   0  0  0  0  0  0  0  0  0  0  0  0
  146.4400  134.5744  163.1111 H   0  0  0  0  0  0  0  0  0  0  0  0
  147.0098  133.2788  161.1745 H   0  0  0  0  0  0  0  0  0  0  0  0
  152.5439  140.5466  158.0938 H   0  0  0  0  0  0  0  0  0  0  0  0
  151.2316  140.2442  159.1983 H   0  0  0  0  0  0  0  0  0  0  0  0
  1  2  1  0  0  0  0
  1 20  1  0  0  0  0
  1 21  1  0  0  0  0
  1 22  1  0  0  0  0
  2 19  1  0  0  0  0
  2  3  1  0  0  0  0
  2 23  1  0  0  0  0
  3  4  1  0  0  0  0
  3 24  1  0  0  0  0
  3 25  1  0  0  0  0
  4  5  1  0  0  0  0
  4 26  1  0  0  0  0
  4 27  1  0  0  0  0
  5  6  1  0  0  0  0
  5 28  1  0  0  0  0
  5 29  1  0  0  0  0
  6  7  1  0  0  0  0
  6 19  1  0  0  0  0
  6 30  1  0  0  0  0
  7  8  1  0  0  0  0
  7 31  1  0  0  0  0
  8  9  2  0  0  0  0
  8 10  1  0  0  0  0
 10 32  1  0  0  0  0
 10 33  1  0  0  0  0
 10 11  1  0  0  0  0
 11 12  1  0  0  0  0
 11 17  1  0  0  0  0
 12 13  1  0  0  0  0
 13 14  2  0  0  0  0
 13 15  1  0  0  0  0
 15 34  1  0  0  0  0
 15 16  2  0  0  0  0
 16 35  1  0  0  0  0
 16 17  1  0  0  0  0
 17 18  2  0  0  0  0
 19 36  1  0  0  0  0
 19 37  1  0  0  0  0
M  CHG  1  12  -1
M  END
> <s_m_source_file>
AV-unprocessed.smi

> <i_m_source_file_index>
1484

> <i_lp_mmshare_version>
43012

> <i_f3d_flags>
0

> <s_epik_input>
W0NIM11bQ0BASF0xW0NIMl1bQ0gyXVtDSDJdW0NASF0oW0NIMl0xKVtOSF1DKD1PKVtDSDJdbjJbbkhdYyg9TylbY0hdW2NIXWMyPU8=

> <s_epik_cmdline>
J2VwaWtfcHl0aG9uJywgJy1waCcsICc3LjAnLCAnLXRuJywgJzgnLCAnLW1hJywgJzIwMCcsICctbWV0YWxfYmluZGluZycsICctaW1hZScsICc8aW5maWxlLm1hZT4nLCAnLW9tYWUnLCAnPG91dGZpbGUubWFlPic=

> <r_lp_tautomer_probability>
1

> <r_epik_Ionization_Penalty>
0.101352

> <r_epik_Ionization_Penalty_Charging>
0.101352

> <r_epik_Ionization_Penalty_Neutral>
1.90469e-08

> <r_epik_State_Penalty>
0.0358555

> <r_epik_Charging_Adjusted_Penalty>
0.137208

> <i_epik_Tot_Q>
-1

> <i_epik_Tot_abs_Q>
1

> <r_epik_Metal_State_Penalty>
0.0358555

> <b_epik_Metal_Only>
0

> <s_lp_Force_Field>
OPLS_2005

> <r_lp_Energy>
21.3013

> <b_lp_Chiralities_Consistent>
1

> <s_lp_Variant>
AV-unprocessed.smi:1484-4

> <Gold.Version>
5.8.1

> <Gold.Id.Protein>
6NUR|6NUR_protein|mol2

> <Gold.PLP.Fitness>
46.4042

> <Gold.PLP.PLP>
-34.4295

> <Gold.PLP.part.hbond>
-3.1367

> <Gold.PLP.part.metal>
0.0000

> <Gold.PLP.part.buried>
-1.8062

> <Gold.PLP.part.nonpolar>
-28.7151

> <Gold.PLP.part.repulsive>
0.1068

> <Gold.PLP.ligand.clash>
0.0000

> <Gold.PLP.ligand.torsion>
0.6782

> <Gold.PLP.Chemscore.Hbond>
4.4400

> <Gold.PLP.Chemscore.CHOScore>
0.0000

> <Gold.PLP.Chemscore.Metal>
0.0000

> <Gold.Chemscore.Hbonds>
donor molecule, donor type, donor heavy atom, donor atom, acceptor molecule, acceptor atom, score
      P1  H  6896  6909       L1     9  0.99
      P1  H  6931  6943       L1    12  1.43
      P1  H  6934  6947       L1    12  2.00

> <Gold.PLP.Chemscore.Internal.Correction>
0.0111

> <Gold.Rescore>
     Score         DG    S(hbond)    S(metal)    S(lipo)     H(rot)  DE(clash)    DE(int)     intcor
     14.39     -16.25       2.27        0.00      63.33       1.65       1.29       0.56       ----

> <Gold.Chemscore.Fitness>
14.3939

> <Gold.Chemscore.DG>
-16.2469

> <Gold.Chemscore.ZeroCoef>
-5.4800

> <Gold.Chemscore.Hbond>
2.2735

> <Gold.Chemscore.Metal>
0.0000

> <Gold.Chemscore.Lipo>
63.3312

> <Gold.Chemscore.Internal_Hbond>
0.0000

> <Gold.Chemscore.DEClash>
1.2917

> <Gold.Chemscore.DEInternal>
0.5613

> <Gold.Chemscore.Rot>
1.6549

> <Gold.Chemscore.Internal.Correction>
   9.000000E+99

> <Gold.Chemscore.Hbonds>
donor molecule, donor type, donor heavy atom, donor atom, acceptor molecule, acceptor atom, score
      P1  H  6896  6909       L1     9  0.92
      P1  H  6931  6943       L1    12  0.22
      P1  H  6934  6947       L1    12  0.90

> <Gold.Chemscore.Hbond.Weighted>
-7.5936

> <Gold.Chemscore.Metal.Weighted>
-0.0000

> <Gold.Chemscore.Lipo.Weighted>
-7.4097

> <Gold.Chemscore.Internal_Hbond.Weighted>
0.0000

> <Gold.Chemscore.DEClash.Weighted>
1.2917

> <Gold.Chemscore.DEInternal.Weighted>
0.5613

> <Gold.Chemscore.Rot.Weighted>
4.2364

> <Gold.Chemscore.Internal.Correction.Weighted>
   9.000000E+99

> <Gold.Protein.RotatedTorsions>
[ 6907 6896 6895 6894 ] final   89.43 input  -60.11 | X-H torsion
[ 7974 7965 7964 7962 ] final -153.39 input  175.53 | X-H torsion
[ 8008 7997 7996 7995 ] final   54.39 input   59.86 | X-H torsion
[ 10167 10162 10161 10158 ] final   65.58 input  -65.29 | X-H torsion
[ 10718 10713 10712 10709 ] final -132.39 input   66.30 | X-H torsion
[ 10763 10752 10751 10750 ] final   86.68 input  -60.55 | X-H torsion
[ 11005 11000 10999 10996 ] final  -75.45 input  -57.11 | X-H torsion

> <Gold.Protein.ActiveResidues>
 VAL166  LYS551  ARG553  GLY616  TRP617  ASP618  TYR619  PRO620  LYS621  CYS622 
 ASP623  PHE694  ASN695  SER759  ASP760  ASP761  ALA762  ILE779  LEU786  VAL792 
 PHE793  MET794  SER795  GLU796  ALA797  LYS798  CYS799  TRP800  GLU811  SER814 

> <Gold.Protein.RotatedAtoms>
  152.5436  134.1967  159.8695 H   0  0  0  0  0  0  0  0  0  0  0  0  # atno 6907 bound_to 6896
  151.1959  133.4632  159.2603 H   0  0  0  0  0  0  0  0  0  0  0  0  # atno 6908 bound_to 6896
  151.1037  134.9999  159.8516 H   0  0  0  0  0  0  0  0  0  0  0  0  # atno 6909 bound_to 6896
  144.7743  140.4532  143.5884 H   0  0  0  0  0  0  0  0  0  0  0  0  # atno 7974 bound_to 7965
  155.4839  140.3469  155.4344 H   0  0  0  0  0  0  0  0  0  0  0  0  # atno 8008 bound_to 7997
  156.1021  140.1438  156.9482 H   0  0  0  0  0  0  0  0  0  0  0  0  # atno 8009 bound_to 7997
  154.4700  140.0904  156.7099 H   0  0  0  0  0  0  0  0  0  0  0  0  # atno 8010 bound_to 7997
  140.1097  144.4829  150.6985 H   0  0  0  0  0  0  0  0  0  0  0  0  # atno 10167 bound_to 10162
  156.2341  130.7055  151.0889 H   0  0  0  0  0  0  0  0  0  0  0  0  # atno 10718 bound_to 10713
  153.1594  135.4571  154.9751 H   0  0  0  0  0  0  0  0  0  0  0  0  # atno 10763 bound_to 10752
  154.7886  135.3212  154.7831 H   0  0  0  0  0  0  0  0  0  0  0  0  # atno 10764 bound_to 10752
  153.8323  135.6937  153.4867 H   0  0  0  0  0  0  0  0  0  0  0  0  # atno 10765 bound_to 10752
  141.1645  133.6947  156.7519 H   0  0  0  0  0  0  0  0  0  0  0  0  # atno 11005 bound_to 11000
  145.6231  139.1526  143.3011 LP  0  0  0  0  0  0  0  0  0  0  0  0  # atno 17320 bound_to 7965
  146.1912  140.6340  142.9145 LP  0  0  0  0  0  0  0  0  0  0  0  0  # atno 17321 bound_to 7965
  140.6932  143.2388  151.5073 LP  0  0  0  0  0  0  0  0  0  0  0  0  # atno 17342 bound_to 10162
  139.5626  144.2120  152.1715 LP  0  0  0  0  0  0  0  0  0  0  0  0  # atno 17343 bound_to 10162
  157.7146  131.0716  150.6374 LP  0  0  0  0  0  0  0  0  0  0  0  0  # atno 17370 bound_to 10713
  156.6444  130.4467  149.5741 LP  0  0  0  0  0  0  0  0  0  0  0  0  # atno 17371 bound_to 10713
  140.2598  134.8476  157.3747 LP  0  0  0  0  0  0  0  0  0  0  0  0  # atno 17394 bound_to 11000
  140.1622  134.4714  155.7887 LP  0  0  0  0  0  0  0  0  0  0  0  0  # atno 17395 bound_to 11000

$$$$
