AV-unprocessed.smi:1229|AV-procd|sdf|5150|dock8
  -GOLD-   22720 4223D 1   1.00000     0.00000
 Structure written by MMmdl.
 46 47  0  0  0  0  0  0  0  0  2 V2000
  147.7306  133.0035  152.3506 C   0  0  0  0  0  0  0  0  0  0  0  0
  146.3711  132.9162  151.6762 C   0  0  0  0  0  0  0  0  0  0  0  0
  145.7620  131.6538  151.5124 C   0  0  0  0  0  0  0  0  0  0  0  0
  144.5052  131.5745  150.8889 C   0  0  0  0  0  0  0  0  0  0  0  0
  143.9073  132.7687  150.4514 C   0  0  0  0  0  0  0  0  0  0  0  0
  144.4824  133.9793  150.6031 N   0  0  0  0  0  0  0  0  0  0  0  0
  145.6953  134.0735  151.2043 C   0  0  0  0  0  0  0  0  0  0  0  0
  146.3622  135.3164  151.3975 N   0  0  0  0  0  0  0  0  0  0  0  0
  145.8243  136.5294  151.6157 C   0  0  0  0  0  0  0  0  0  0  0  0
  144.6201  136.7747  151.6947 O   0  0  0  0  0  0  0  0  0  0  0  0
  146.7746  137.4689  151.7338 N   0  0  0  0  0  0  0  0  0  0  0  0
  146.5230  138.8864  151.9766 C   0  0  0  0  0  0  0  0  0  0  0  0
  147.3946  139.4400  153.1230 C   0  0  2  0  0  0  0  0  0  0  0  0
  148.4334  138.5133  153.3723 O   0  0  0  0  0  0  0  0  0  0  0  0
  146.5860  139.5969  154.4267 C   0  0  0  0  0  0  0  0  0  0  0  0
  145.7680  140.8369  154.4403 N   0  3  0  0  0  0  0  0  0  0  0  0
  146.5358  142.0270  153.9903 C   0  0  0  0  0  0  0  0  0  0  0  0
  145.6262  143.2619  153.8704 C   0  0  0  0  0  0  0  0  0  0  0  0
  144.9029  143.5456  155.1933 C   0  0  0  0  0  0  0  0  0  0  0  0
  144.1488  142.2928  155.6577 C   0  0  0  0  0  0  0  0  0  0  0  0
  145.0940  141.0829  155.7438 C   0  0  0  0  0  0  0  0  0  0  0  0
  148.0830  132.0201  152.6628 H   0  0  0  0  0  0  0  0  0  0  0  0
  147.6782  133.6369  153.2367 H   0  0  0  0  0  0  0  0  0  0  0  0
  148.4692  133.4227  151.6668 H   0  0  0  0  0  0  0  0  0  0  0  0
  146.2493  130.7545  151.8599 H   0  0  0  0  0  0  0  0  0  0  0  0
  144.0127  130.6233  150.7493 H   0  0  0  0  0  0  0  0  0  0  0  0
  142.9421  132.7527  149.9671 H   0  0  0  0  0  0  0  0  0  0  0  0
  147.3697  135.2740  151.3612 H   0  0  0  0  0  0  0  0  0  0  0  0
  147.7401  137.1837  151.6582 H   0  0  0  0  0  0  0  0  0  0  0  0
  146.7289  139.4306  151.0530 H   0  0  0  0  0  0  0  0  0  0  0  0
  145.4624  139.0375  152.1826 H   0  0  0  0  0  0  0  0  0  0  0  0
  147.8308  140.3949  152.8325 H   0  0  0  0  0  0  0  0  0  0  0  0
  148.5523  137.9812  152.5995 H   0  0  0  0  0  0  0  0  0  0  0  0
  145.9300  138.7385  154.5795 H   0  0  0  0  0  0  0  0  0  0  0  0
  147.2819  139.5976  155.2675 H   0  0  0  0  0  0  0  0  0  0  0  0
  147.3503  142.2230  154.6895 H   0  0  0  0  0  0  0  0  0  0  0  0
  146.9912  141.8268  153.0195 H   0  0  0  0  0  0  0  0  0  0  0  0
  146.2140  144.1309  153.5732 H   0  0  0  0  0  0  0  0  0  0  0  0
  144.8926  143.0995  153.0795 H   0  0  0  0  0  0  0  0  0  0  0  0
  145.6261  143.8442  155.9533 H   0  0  0  0  0  0  0  0  0  0  0  0
  144.2115  144.3803  155.0745 H   0  0  0  0  0  0  0  0  0  0  0  0
  143.6865  142.4749  156.6283 H   0  0  0  0  0  0  0  0  0  0  0  0
  143.3359  142.0739  154.9639 H   0  0  0  0  0  0  0  0  0  0  0  0
  144.5204  140.2091  156.0501 H   0  0  0  0  0  0  0  0  0  0  0  0
  145.8457  141.2509  156.5170 H   0  0  0  0  0  0  0  0  0  0  0  0
  145.0413  140.6974  153.7525 H   0  0  0  0  0  0  0  0  0  0  0  0
  1  2  1  0  0  0  0
  1 22  1  0  0  0  0
  1 23  1  0  0  0  0
  1 24  1  0  0  0  0
  2  7  1  0  0  0  0
  2  3  2  0  0  0  0
  3  4  1  0  0  0  0
  3 25  1  0  0  0  0
  4  5  2  0  0  0  0
  4 26  1  0  0  0  0
  5  6  1  0  0  0  0
  5 27  1  0  0  0  0
  6  7  2  0  0  0  0
  7  8  1  0  0  0  0
  8  9  1  0  0  0  0
  8 28  1  0  0  0  0
  9 10  2  0  0  0  0
  9 11  1  0  0  0  0
 11 12  1  0  0  0  0
 11 29  1  0  0  0  0
 12 13  1  0  0  0  0
 12 30  1  0  0  0  0
 12 31  1  0  0  0  0
 13 14  1  0  0  0  0
 13 15  1  0  0  0  0
 13 32  1  0  0  0  0
 14 33  1  0  0  0  0
 15 16  1  0  0  0  0
 15 34  1  0  0  0  0
 15 35  1  0  0  0  0
 16 21  1  0  0  0  0
 16 17  1  0  0  0  0
 16 46  1  0  0  0  0
 17 18  1  0  0  0  0
 17 36  1  0  0  0  0
 17 37  1  0  0  0  0
 18 19  1  0  0  0  0
 18 38  1  0  0  0  0
 18 39  1  0  0  0  0
 19 20  1  0  0  0  0
 19 40  1  0  0  0  0
 19 41  1  0  0  0  0
 20 21  1  0  0  0  0
 20 42  1  0  0  0  0
 20 43  1  0  0  0  0
 21 44  1  0  0  0  0
 21 45  1  0  0  0  0
M  CHG  1  16   1
M  END
> <s_m_source_file>
AV-unprocessed.smi

> <i_m_source_file_index>
1229

> <i_lp_mmshare_version>
43012

> <i_f3d_flags>
0

> <s_epik_input>
W0NIM11jMVtjSF1bY0hdW2NIXW5jMVtOSF1DKD1PKVtOSF1bQ0gyXVtDQEhdKFtPSF0pW0NIMl1OMltDSDJdW0NIMl1bQ0gyXVtDSDJdW0NIMl0y

> <s_epik_cmdline>
J2VwaWtfcHl0aG9uJywgJy1waCcsICc3LjAnLCAnLXRuJywgJzgnLCAnLW1hJywgJzIwMCcsICctbWV0YWxfYmluZGluZycsICctaW1hZScsICc8aW5maWxlLm1hZT4nLCAnLW9tYWUnLCAnPG91dGZpbGUubWFlPic=

> <r_epik_Ionization_Penalty>
0.00511007

> <r_epik_Ionization_Penalty_Charging>
0.00506051

> <r_epik_Ionization_Penalty_Neutral>
4.95577e-05

> <r_epik_State_Penalty>
0.00368188

> <r_epik_Charging_Adjusted_Penalty>
0.0087424

> <i_epik_Tot_Q>
1

> <i_epik_Tot_abs_Q>
1

> <r_epik_Metal_State_Penalty>
-0

> <b_epik_Metal_Only>
0

> <s_lp_Force_Field>
OPLS_2005

> <r_lp_Energy>
20.9384

> <b_lp_Chiralities_Consistent>
1

> <s_lp_Variant>
AV-unprocessed.smi:1229-1

> <Gold.Version>
5.8.1

> <Gold.Id.Protein>
6NUR|6NUR_protein|mol2

> <Gold.PLP.Fitness>
54.4709

> <Gold.PLP.PLP>
-39.1209

> <Gold.PLP.part.hbond>
-4.9279

> <Gold.PLP.part.metal>
0.0000

> <Gold.PLP.part.buried>
-5.8838

> <Gold.PLP.part.nonpolar>
-32.5105

> <Gold.PLP.part.repulsive>
2.8413

> <Gold.PLP.ligand.clash>
0.0000

> <Gold.PLP.ligand.torsion>
1.1274

> <Gold.PLP.Chemscore.Hbond>
4.8720

> <Gold.PLP.Chemscore.CHOScore>
0.9760

> <Gold.PLP.Chemscore.Metal>
0.0000

> <Gold.Chemscore.Hbonds>
donor molecule, donor type, donor heavy atom, donor atom, acceptor molecule, acceptor atom, score
      L1  H     8    28       P1  7948  0.88
      L1  H    11    29       P1  7948  0.98
      L1  H    14    33       P1  7948  0.98
      L1  H    16    46       P1 10175  2.00
      L1  C     5    27       P1 10186  0.86

> <Gold.PLP.Chemscore.Internal.Correction>
0.0609

> <Gold.Rescore>
     Score         DG    S(hbond)    S(metal)    S(lipo)     H(rot)  DE(clash)    DE(int)     intcor
     18.33     -20.40       3.69        0.00      72.63       2.31       0.02       2.05       ----

> <Gold.Chemscore.Fitness>
18.3328

> <Gold.Chemscore.DG>
-20.4006

> <Gold.Chemscore.ZeroCoef>
-5.4800

> <Gold.Chemscore.Hbond>
3.6930

> <Gold.Chemscore.Metal>
0.0000

> <Gold.Chemscore.Lipo>
72.6350

> <Gold.Chemscore.Internal_Hbond>
0.0000

> <Gold.Chemscore.DEClash>
0.0177

> <Gold.Chemscore.DEInternal>
2.0501

> <Gold.Chemscore.Rot>
2.3095

> <Gold.Chemscore.Internal.Correction>
   9.000000E+99

> <Gold.Chemscore.Hbonds>
donor molecule, donor type, donor heavy atom, donor atom, acceptor molecule, acceptor atom, score
      L1  H     8    28       P1  7948  0.68
      L1  H    11    29       P1  7948  0.91
      L1  H    14    33       P1  7948  0.93
      L1  H    16    46       P1 10175  0.97

> <Gold.Chemscore.Hbond.Weighted>
-12.3347

> <Gold.Chemscore.Metal.Weighted>
-0.0000

> <Gold.Chemscore.Lipo.Weighted>
-8.4983

> <Gold.Chemscore.Internal_Hbond.Weighted>
0.0000

> <Gold.Chemscore.DEClash.Weighted>
0.0177

> <Gold.Chemscore.DEInternal.Weighted>
2.0501

> <Gold.Chemscore.Rot.Weighted>
5.9124

> <Gold.Chemscore.Internal.Correction.Weighted>
   9.000000E+99

> <Gold.Protein.RotatedTorsions>
[ 6907 6896 6895 6894 ] final -150.94 input  -60.11 | X-H torsion
[ 7974 7965 7964 7962 ] final  -33.25 input  175.53 | X-H torsion
[ 8008 7997 7996 7995 ] final  161.11 input   59.86 | X-H torsion
[ 10167 10162 10161 10158 ] final   79.96 input  -65.29 | X-H torsion
[ 10718 10713 10712 10709 ] final -165.78 input   66.30 | X-H torsion
[ 10763 10752 10751 10750 ] final -132.80 input  -60.55 | X-H torsion
[ 11005 11000 10999 10996 ] final   92.83 input  -57.11 | X-H torsion

> <Gold.Protein.ActiveResidues>
 VAL166  LYS551  ARG553  GLY616  TRP617  ASP618  TYR619  PRO620  LYS621  CYS622 
 ASP623  PHE694  ASN695  SER759  ASP760  ASP761  ALA762  ILE779  LEU786  VAL792 
 PHE793  MET794  SER795  GLU796  ALA797  LYS798  CYS799  TRP800  GLU811  SER814 

> <Gold.Protein.RotatedAtoms>
  151.2059  133.4584  159.2596 H   0  0  0  0  0  0  0  0  0  0  0  0  # atno 6907 bound_to 6896
  151.1024  134.9980  159.8465 H   0  0  0  0  0  0  0  0  0  0  0  0  # atno 6908 bound_to 6896
  152.5444  134.1985  159.8755 H   0  0  0  0  0  0  0  0  0  0  0  0  # atno 6909 bound_to 6896
  146.0926  140.5893  142.8857 H   0  0  0  0  0  0  0  0  0  0  0  0  # atno 7974 bound_to 7965
  156.2126  140.1786  156.7662 H   0  0  0  0  0  0  0  0  0  0  0  0  # atno 8008 bound_to 7997
  154.5744  140.0677  156.9042 H   0  0  0  0  0  0  0  0  0  0  0  0  # atno 8009 bound_to 7997
  155.2615  140.3336  155.4275 H   0  0  0  0  0  0  0  0  0  0  0  0  # atno 8010 bound_to 7997
  139.9548  144.6001  150.8127 H   0  0  0  0  0  0  0  0  0  0  0  0  # atno 10167 bound_to 10162
  156.6583  130.9035  151.3025 H   0  0  0  0  0  0  0  0  0  0  0  0  # atno 10718 bound_to 10713
  154.8739  135.3786  154.4468 H   0  0  0  0  0  0  0  0  0  0  0  0  # atno 10763 bound_to 10752
  153.5148  135.7029  153.5767 H   0  0  0  0  0  0  0  0  0  0  0  0  # atno 10764 bound_to 10752
  153.4041  135.3941  155.1973 H   0  0  0  0  0  0  0  0  0  0  0  0  # atno 10765 bound_to 10752
  139.8818  134.8755  156.3630 H   0  0  0  0  0  0  0  0  0  0  0  0  # atno 11005 bound_to 11000
  144.7371  140.4839  143.6896 LP  0  0  0  0  0  0  0  0  0  0  0  0  # atno 17320 bound_to 7965
  145.6010  139.1504  143.3129 LP  0  0  0  0  0  0  0  0  0  0  0  0  # atno 17321 bound_to 7965
  140.7572  143.3081  151.2913 LP  0  0  0  0  0  0  0  0  0  0  0  0  # atno 17342 bound_to 10162
  139.6600  144.0206  152.2686 LP  0  0  0  0  0  0  0  0  0  0  0  0  # atno 17343 bound_to 10162
  157.7118  130.9449  150.1116 LP  0  0  0  0  0  0  0  0  0  0  0  0  # atno 17370 bound_to 10713
  156.2030  130.3661  149.8764 LP  0  0  0  0  0  0  0  0  0  0  0  0  # atno 17371 bound_to 10713
  140.9516  133.7447  156.0280 LP  0  0  0  0  0  0  0  0  0  0  0  0  # atno 17394 bound_to 11000
  140.8098  134.3412  157.5415 LP  0  0  0  0  0  0  0  0  0  0  0  0  # atno 17395 bound_to 11000

$$$$
