AV-unprocessed.smi:3245|AV-procd|sdf|12405|dock4
  -GOLD-   2272018283D 1   1.00000     0.00000
 Structure written by MMmdl.
 35 36  0  0  0  0  0  0  0  0  1 V2000
  151.9097  141.1726  157.7199 C   0  0  0  0  0  0  0  0  0  0  0  0
  150.9228  142.1284  158.4210 C   0  0  1  0  0  0  0  0  0  0  0  0
  151.6333  143.2933  159.1416 C   0  0  0  0  0  0  0  0  0  0  0  0
  152.4247  142.8596  160.2791 N   0  0  0  0  0  0  0  0  0  0  0  0
  153.4883  141.9819  160.2985 C   0  0  0  0  0  0  0  0  0  0  0  0
  153.9160  141.8902  161.5921 C   0  0  0  0  0  0  0  0  0  0  0  0
  153.0440  142.7648  162.2989 C   0  0  0  0  0  0  0  0  0  0  0  0
  152.1554  143.3470  161.5099 N   0  0  0  0  0  0  0  0  0  0  0  0
  150.0056  142.7113  157.4494 N   0  0  0  0  0  0  0  0  0  0  0  0
  149.2277  141.6989  156.7480 C   0  0  0  0  0  0  0  0  0  0  0  0
  149.6833  141.6020  155.2809 C   0  0  0  0  0  0  0  0  0  0  0  0
  148.9252  140.5915  154.5337 N   0  0  0  0  0  0  0  0  0  0  0  0
  147.6112  140.6633  154.2816 C   0  0  0  0  0  0  0  0  0  0  0  0
  146.8271  141.5463  154.6286 O   0  0  0  0  0  0  0  0  0  0  0  0
  147.2119  139.4516  153.4680 C   0  0  0  0  0  0  0  0  0  0  0  0
  148.5005  138.8013  153.3677 N   0  0  0  0  0  0  0  0  0  0  0  0
  149.4681  139.4860  153.9910 C   0  0  0  0  0  0  0  0  0  0  0  0
  150.6500  139.1495  154.0466 O   0  0  0  0  0  0  0  0  0  0  0  0
  152.6056  140.7299  158.4325 H   0  0  0  0  0  0  0  0  0  0  0  0
  152.4981  141.6961  156.9657 H   0  0  0  0  0  0  0  0  0  0  0  0
  151.4003  140.3449  157.2281 H   0  0  0  0  0  0  0  0  0  0  0  0
  150.3469  141.5727  159.1628 H   0  0  0  0  0  0  0  0  0  0  0  0
  152.2915  143.8211  158.4496 H   0  0  0  0  0  0  0  0  0  0  0  0
  150.9037  144.0235  159.4953 H   0  0  0  0  0  0  0  0  0  0  0  0
  153.8463  141.4986  159.4013 H   0  0  0  0  0  0  0  0  0  0  0  0
  154.7286  141.2907  161.9747 H   0  0  0  0  0  0  0  0  0  0  0  0
  153.0313  142.9933  163.3544 H   0  0  0  0  0  0  0  0  0  0  0  0
  149.3687  143.3353  157.9242 H   0  0  0  0  0  0  0  0  0  0  0  0
  149.3142  140.7271  157.2330 H   0  0  0  0  0  0  0  0  0  0  0  0
  148.1748  141.9809  156.7816 H   0  0  0  0  0  0  0  0  0  0  0  0
  149.5430  142.5707  154.7991 H   0  0  0  0  0  0  0  0  0  0  0  0
  150.7558  141.4059  155.2280 H   0  0  0  0  0  0  0  0  0  0  0  0
  146.4875  138.8310  153.9963 H   0  0  0  0  0  0  0  0  0  0  0  0
  146.8257  139.7340  152.4881 H   0  0  0  0  0  0  0  0  0  0  0  0
  148.6411  137.9312  152.8749 H   0  0  0  0  0  0  0  0  0  0  0  0
  1  2  1  0  0  0  0
  1 19  1  0  0  0  0
  1 20  1  0  0  0  0
  1 21  1  0  0  0  0
  2  3  1  0  0  0  0
  2  9  1  0  0  0  0
  2 22  1  0  0  0  0
  3  4  1  0  0  0  0
  3 23  1  0  0  0  0
  3 24  1  0  0  0  0
  4  8  1  0  0  0  0
  4  5  1  0  0  0  0
  5  6  2  0  0  0  0
  5 25  1  0  0  0  0
  6  7  1  0  0  0  0
  6 26  1  0  0  0  0
  7  8  2  0  0  0  0
  7 27  1  0  0  0  0
  9 10  1  0  0  0  0
  9 28  1  0  0  0  0
 10 11  1  0  0  0  0
 10 29  1  0  0  0  0
 10 30  1  0  0  0  0
 11 12  1  0  0  0  0
 11 31  1  0  0  0  0
 11 32  1  0  0  0  0
 12 17  1  0  0  0  0
 12 13  1  0  0  0  0
 13 14  2  0  0  0  0
 13 15  1  0  0  0  0
 15 16  1  0  0  0  0
 15 33  1  0  0  0  0
 15 34  1  0  0  0  0
 16 17  1  0  0  0  0
 16 35  1  0  0  0  0
 17 18  2  0  0  0  0
M  END
> <s_m_source_file>
AV-unprocessed.smi

> <i_m_source_file_index>
3245

> <i_lp_mmshare_version>
43012

> <i_f3d_flags>
0

> <s_epik_input>
bjFbY0hdW2NIXVtjSF1uMVtDSDJdW0NAQEhdKFtDSDNdKVtOSF1bQ0gyXVtDSDJdTjJDKD1PKVtDSDJdW05IXUMyPU8=

> <s_epik_cmdline>
J2VwaWtfcHl0aG9uJywgJy1waCcsICc3LjAnLCAnLXRuJywgJzgnLCAnLW1hJywgJzIwMCcsICctbWV0YWxfYmluZGluZycsICctaW1hZScsICc8aW5maWxlLm1hZT4nLCAnLW9tYWUnLCAnPG91dGZpbGUubWFlPic=

> <r_lp_tautomer_probability>
1

> <r_epik_Ionization_Penalty>
2.14948

> <r_epik_Ionization_Penalty_Charging>
0

> <r_epik_Ionization_Penalty_Neutral>
2.14948

> <r_epik_State_Penalty>
2.28912

> <r_epik_Charging_Adjusted_Penalty>
2.28912

> <i_epik_Tot_Q>
0

> <i_epik_Tot_abs_Q>
0

> <r_epik_Metal_State_Penalty>
2.36471

> <b_epik_Metal_Only>
0

> <s_lp_Force_Field>
OPLS_2005

> <r_lp_Energy>
25.1449

> <b_lp_Chiralities_Consistent>
1

> <s_lp_Variant>
AV-unprocessed.smi:3245-4

> <Gold.Version>
5.8.1

> <Gold.Id.Protein>
6NUR|6NUR_protein|mol2

> <Gold.PLP.Fitness>
44.9505

> <Gold.PLP.PLP>
-39.6507

> <Gold.PLP.part.hbond>
-4.0000

> <Gold.PLP.part.metal>
0.0000

> <Gold.PLP.part.buried>
-2.1330

> <Gold.PLP.part.nonpolar>
-33.8022

> <Gold.PLP.part.repulsive>
0.5462

> <Gold.PLP.ligand.clash>
0.0000

> <Gold.PLP.ligand.torsion>
0.4012

> <Gold.PLP.Chemscore.Hbond>
2.0000

> <Gold.PLP.Chemscore.CHOScore>
0.0000

> <Gold.PLP.Chemscore.Metal>
0.0000

> <Gold.Chemscore.Hbonds>
donor molecule, donor type, donor heavy atom, donor atom, acceptor molecule, acceptor atom, score
      L1  H    16    35       P1  7948  1.00
      P1  H  7989  7998       L1    18  0.96

> <Gold.PLP.Chemscore.Internal.Correction>
0.1023

> <Gold.Rescore>
     Score         DG    S(hbond)    S(metal)    S(lipo)     H(rot)  DE(clash)    DE(int)     intcor
     10.91     -11.35       0.99        0.00      80.12       2.66       0.10       0.34       ----

> <Gold.Chemscore.Fitness>
10.9138

> <Gold.Chemscore.DG>
-11.3518

> <Gold.Chemscore.ZeroCoef>
-5.4800

> <Gold.Chemscore.Hbond>
0.9907

> <Gold.Chemscore.Metal>
0.0000

> <Gold.Chemscore.Lipo>
80.1243

> <Gold.Chemscore.Internal_Hbond>
0.0000

> <Gold.Chemscore.DEClash>
0.1013

> <Gold.Chemscore.DEInternal>
0.3366

> <Gold.Chemscore.Rot>
2.6609

> <Gold.Chemscore.Internal.Correction>
   9.000000E+99

> <Gold.Chemscore.Hbonds>
donor molecule, donor type, donor heavy atom, donor atom, acceptor molecule, acceptor atom, score
      L1  H    16    35       P1  7948  0.97
      P1  H  7989  7998       L1    18  0.36

> <Gold.Chemscore.Hbond.Weighted>
-3.3091

> <Gold.Chemscore.Metal.Weighted>
-0.0000

> <Gold.Chemscore.Lipo.Weighted>
-9.3745

> <Gold.Chemscore.Internal_Hbond.Weighted>
0.0000

> <Gold.Chemscore.DEClash.Weighted>
0.1013

> <Gold.Chemscore.DEInternal.Weighted>
0.3366

> <Gold.Chemscore.Rot.Weighted>
6.8118

> <Gold.Chemscore.Internal.Correction.Weighted>
   9.000000E+99

> <Gold.Protein.RotatedTorsions>
[ 6907 6896 6895 6894 ] final   23.03 input  -60.11 | X-H torsion
[ 7974 7965 7964 7962 ] final  145.91 input  175.53 | X-H torsion
[ 8008 7997 7996 7995 ] final  110.13 input   59.86 | X-H torsion
[ 10167 10162 10161 10158 ] final -163.29 input  -65.29 | X-H torsion
[ 10718 10713 10712 10709 ] final  -16.79 input   66.30 | X-H torsion
[ 10763 10752 10751 10750 ] final   45.29 input  -60.55 | X-H torsion
[ 11005 11000 10999 10996 ] final  172.82 input  -57.11 | X-H torsion

> <Gold.Protein.ActiveResidues>
 VAL166  LYS551  ARG553  GLY616  TRP617  ASP618  TYR619  PRO620  LYS621  CYS622 
 ASP623  PHE694  ASN695  SER759  ASP760  ASP761  ALA762  ILE779  LEU786  VAL792 
 PHE793  MET794  SER795  GLU796  ALA797  LYS798  CYS799  TRP800  GLU811  SER814 

> <Gold.Protein.RotatedAtoms>
  151.9362  135.0234  160.0532 H   0  0  0  0  0  0  0  0  0  0  0  0  # atno 6907 bound_to 6896
  152.2076  133.4882  159.5101 H   0  0  0  0  0  0  0  0  0  0  0  0  # atno 6908 bound_to 6896
  150.6968  134.1426  159.4153 H   0  0  0  0  0  0  0  0  0  0  0  0  # atno 6909 bound_to 6896
  144.8713  139.5841  143.5885 H   0  0  0  0  0  0  0  0  0  0  0  0  # atno 7974 bound_to 7965
  156.2030  140.3044  155.9568 H   0  0  0  0  0  0  0  0  0  0  0  0  # atno 8008 bound_to 7997
  155.2907  140.0442  157.3040 H   0  0  0  0  0  0  0  0  0  0  0  0  # atno 8009 bound_to 7997
  154.5596  140.2316  155.8364 H   0  0  0  0  0  0  0  0  0  0  0  0  # atno 8010 bound_to 7997
  139.6331  144.0401  152.2032 H   0  0  0  0  0  0  0  0  0  0  0  0  # atno 10167 bound_to 10162
  156.5826  130.4778  149.6314 H   0  0  0  0  0  0  0  0  0  0  0  0  # atno 10718 bound_to 10713
  152.9827  135.6044  154.3412 H   0  0  0  0  0  0  0  0  0  0  0  0  # atno 10763 bound_to 10752
  154.3108  135.2771  155.2568 H   0  0  0  0  0  0  0  0  0  0  0  0  # atno 10764 bound_to 10752
  154.4778  135.5925  153.6424 H   0  0  0  0  0  0  0  0  0  0  0  0  # atno 10765 bound_to 10752
  140.3339  134.7334  157.4154 H   0  0  0  0  0  0  0  0  0  0  0  0  # atno 11005 bound_to 11000
  146.2932  139.7201  142.9145 LP  0  0  0  0  0  0  0  0  0  0  0  0  # atno 17320 bound_to 7965
  145.4124  141.0398  143.3009 LP  0  0  0  0  0  0  0  0  0  0  0  0  # atno 17321 bound_to 7965
  140.0071  144.6251  150.7679 LP  0  0  0  0  0  0  0  0  0  0  0  0  # atno 17342 bound_to 10162
  140.7450  143.2870  151.3437 LP  0  0  0  0  0  0  0  0  0  0  0  0  # atno 17343 bound_to 10162
  156.2618  130.6967  151.1738 LP  0  0  0  0  0  0  0  0  0  0  0  0  # atno 17370 bound_to 10713
  157.7323  131.0601  150.5636 LP  0  0  0  0  0  0  0  0  0  0  0  0  # atno 17371 bound_to 10713
  140.0838  134.5695  155.8513 LP  0  0  0  0  0  0  0  0  0  0  0  0  # atno 17394 bound_to 11000
  141.2056  133.6648  156.6192 LP  0  0  0  0  0  0  0  0  0  0  0  0  # atno 17395 bound_to 11000

$$$$
