AV-unprocessed.smi:3036|AV-procd|sdf|11584|dock2
  -GOLD-   2272016553D 1   1.00000     0.00000
 Structure written by MMmdl.
 41 42  0  0  0  0  0  0  0  0  1 V2000
  149.1820  139.8208  154.4621 C   0  0  0  0  0  0  0  0  0  0  0  0
  148.6254  141.2155  154.7986 C   0  0  2  0  0  0  0  0  0  0  0  0
  147.6639  141.7049  153.6966 C   0  0  0  0  0  0  0  0  0  0  0  0
  146.6554  142.6240  154.1957 N   0  0  0  0  0  0  0  0  0  0  0  0
  145.8502  143.4839  153.4784 C   0  0  0  0  0  0  0  0  0  0  0  0
  145.0547  144.1386  154.3746 C   0  0  0  0  0  0  0  0  0  0  0  0
  145.4478  143.6001  155.6316 C   0  0  0  0  0  0  0  0  0  0  0  0
  146.4031  142.6912  155.5211 N   0  0  0  0  0  0  0  0  0  0  0  0
  149.7220  142.1697  154.9262 N   0  0  0  0  0  0  0  0  0  0  0  0
  150.6815  141.7619  155.9462 C   0  0  0  0  0  0  0  0  0  0  0  0
  150.0422  141.7603  157.3504 C   0  0  0  0  0  0  0  0  0  0  0  0
  151.0376  141.8469  158.5253 C   0  0  0  0  0  0  0  0  0  0  0  0
  151.1687  140.8759  159.2727 O   0  0  0  0  0  0  0  0  0  0  0  0
  151.7382  142.9922  158.7092 N   0  0  0  0  0  0  0  0  0  0  0  0
  152.7019  143.1748  159.7991 C   0  0  0  0  0  0  0  0  0  0  0  0
  152.1687  144.2654  160.7452 C   0  0  0  0  0  0  0  0  0  0  0  0
  151.9661  145.4728  160.0154 O   0  0  0  0  0  0  0  0  0  0  0  0
  151.0514  145.3229  158.9327 C   0  0  0  0  0  0  0  0  0  0  0  0
  151.5637  144.2428  157.9622 C   0  0  0  0  0  0  0  0  0  0  0  0
  148.3718  139.1073  154.3101 H   0  0  0  0  0  0  0  0  0  0  0  0
  149.8092  139.4252  155.2605 H   0  0  0  0  0  0  0  0  0  0  0  0
  149.7790  139.8411  153.5493 H   0  0  0  0  0  0  0  0  0  0  0  0
  148.0743  141.1648  155.7389 H   0  0  0  0  0  0  0  0  0  0  0  0
  148.2165  142.1918  152.8916 H   0  0  0  0  0  0  0  0  0  0  0  0
  147.1466  140.8560  153.2468 H   0  0  0  0  0  0  0  0  0  0  0  0
  145.9106  143.5584  152.4025 H   0  0  0  0  0  0  0  0  0  0  0  0
  144.3046  144.8864  154.1644 H   0  0  0  0  0  0  0  0  0  0  0  0
  145.0689  143.8394  156.6144 H   0  0  0  0  0  0  0  0  0  0  0  0
  149.3458  143.0715  155.1818 H   0  0  0  0  0  0  0  0  0  0  0  0
  151.0435  140.7603  155.7107 H   0  0  0  0  0  0  0  0  0  0  0  0
  151.5501  142.4200  155.9426 H   0  0  0  0  0  0  0  0  0  0  0  0
  149.3430  142.5952  157.4107 H   0  0  0  0  0  0  0  0  0  0  0  0
  149.4583  140.8468  157.4684 H   0  0  0  0  0  0  0  0  0  0  0  0
  152.8896  142.2591  160.3611 H   0  0  0  0  0  0  0  0  0  0  0  0
  153.6648  143.4749  159.3832 H   0  0  0  0  0  0  0  0  0  0  0  0
  151.2351  143.9511  161.2145 H   0  0  0  0  0  0  0  0  0  0  0  0
  152.8828  144.4529  161.5472 H   0  0  0  0  0  0  0  0  0  0  0  0
  150.0618  145.0650  159.3136 H   0  0  0  0  0  0  0  0  0  0  0  0
  150.9562  146.2789  158.4177 H   0  0  0  0  0  0  0  0  0  0  0  0
  152.5231  144.5439  157.5389 H   0  0  0  0  0  0  0  0  0  0  0  0
  150.8782  144.1644  157.1207 H   0  0  0  0  0  0  0  0  0  0  0  0
  1  2  1  0  0  0  0
  1 20  1  0  0  0  0
  1 21  1  0  0  0  0
  1 22  1  0  0  0  0
  2  3  1  0  0  0  0
  2  9  1  0  0  0  0
  2 23  1  0  0  0  0
  3  4  1  0  0  0  0
  3 24  1  0  0  0  0
  3 25  1  0  0  0  0
  4  8  1  0  0  0  0
  4  5  1  0  0  0  0
  5  6  2  0  0  0  0
  5 26  1  0  0  0  0
  6  7  1  0  0  0  0
  6 27  1  0  0  0  0
  7  8  2  0  0  0  0
  7 28  1  0  0  0  0
  9 10  1  0  0  0  0
  9 29  1  0  0  0  0
 10 11  1  0  0  0  0
 10 30  1  0  0  0  0
 10 31  1  0  0  0  0
 11 12  1  0  0  0  0
 11 32  1  0  0  0  0
 11 33  1  0  0  0  0
 12 13  2  0  0  0  0
 12 14  1  0  0  0  0
 14 19  1  0  0  0  0
 14 15  1  0  0  0  0
 15 16  1  0  0  0  0
 15 34  1  0  0  0  0
 15 35  1  0  0  0  0
 16 17  1  0  0  0  0
 16 36  1  0  0  0  0
 16 37  1  0  0  0  0
 17 18  1  0  0  0  0
 18 19  1  0  0  0  0
 18 38  1  0  0  0  0
 18 39  1  0  0  0  0
 19 40  1  0  0  0  0
 19 41  1  0  0  0  0
M  END
> <s_m_source_file>
AV-unprocessed.smi

> <i_m_source_file_index>
3036

> <i_lp_mmshare_version>
43012

> <i_f3d_flags>
0

> <s_epik_input>
bjFbY0hdW2NIXVtjSF1uMVtDSDJdW0NAQEhdKFtDSDNdKVtOSF1bQ0gyXVtDSDJdQyg9TylOMltDSDJdW0NIMl1PW0NIMl1bQ0gyXTI=

> <s_epik_cmdline>
J2VwaWtfcHl0aG9uJywgJy1waCcsICc3LjAnLCAnLXRuJywgJzgnLCAnLW1hJywgJzIwMCcsICctbWV0YWxfYmluZGluZycsICctaW1hZScsICc8aW5maWxlLm1hZT4nLCAnLW9tYWUnLCAnPG91dGZpbGUubWFlPic=

> <r_lp_tautomer_probability>
1

> <r_epik_Ionization_Penalty>
2.55703

> <r_epik_Ionization_Penalty_Charging>
0

> <r_epik_Ionization_Penalty_Neutral>
2.55703

> <r_epik_State_Penalty>
2.726

> <r_epik_Charging_Adjusted_Penalty>
2.726

> <i_epik_Tot_Q>
0

> <i_epik_Tot_abs_Q>
0

> <r_epik_Metal_State_Penalty>
2.72597

> <b_epik_Metal_Only>
0

> <s_lp_Force_Field>
OPLS_2005

> <r_lp_Energy>
22.7119

> <b_lp_Chiralities_Consistent>
1

> <s_lp_Variant>
AV-unprocessed.smi:3036-3

> <Gold.Version>
5.8.1

> <Gold.Id.Protein>
6NUR|6NUR_protein|mol2

> <Gold.PLP.Fitness>
47.7957

> <Gold.PLP.PLP>
-46.1243

> <Gold.PLP.part.hbond>
-2.4890

> <Gold.PLP.part.metal>
0.0000

> <Gold.PLP.part.buried>
-5.7246

> <Gold.PLP.part.nonpolar>
-36.7818

> <Gold.PLP.part.repulsive>
0.3114

> <Gold.PLP.ligand.clash>
0.0000

> <Gold.PLP.ligand.torsion>
0.7284

> <Gold.PLP.Chemscore.Hbond>
1.0000

> <Gold.PLP.Chemscore.CHOScore>
0.0000

> <Gold.PLP.Chemscore.Metal>
0.0000

> <Gold.Chemscore.Hbonds>
donor molecule, donor type, donor heavy atom, donor atom, acceptor molecule, acceptor atom, score
      L1  H     9    29       P1  8028  1.00

> <Gold.PLP.Chemscore.Internal.Correction>
0.1283

> <Gold.Rescore>
     Score         DG    S(hbond)    S(metal)    S(lipo)     H(rot)  DE(clash)    DE(int)     intcor
     14.36     -15.00       1.00        0.00      96.39       1.99       0.09       0.56       ----

> <Gold.Chemscore.Fitness>
14.3557

> <Gold.Chemscore.DG>
-15.0034

> <Gold.Chemscore.ZeroCoef>
-5.4800

> <Gold.Chemscore.Hbond>
1.0002

> <Gold.Chemscore.Metal>
0.0000

> <Gold.Chemscore.Lipo>
96.3860

> <Gold.Chemscore.Internal_Hbond>
0.0000

> <Gold.Chemscore.DEClash>
0.0860

> <Gold.Chemscore.DEInternal>
0.5617

> <Gold.Chemscore.Rot>
1.9900

> <Gold.Chemscore.Internal.Correction>
   9.000000E+99

> <Gold.Chemscore.Hbonds>
donor molecule, donor type, donor heavy atom, donor atom, acceptor molecule, acceptor atom, score
      L1  H     9    29       P1  8028  1.00

> <Gold.Chemscore.Hbond.Weighted>
-3.3406

> <Gold.Chemscore.Metal.Weighted>
-0.0000

> <Gold.Chemscore.Lipo.Weighted>
-11.2772

> <Gold.Chemscore.Internal_Hbond.Weighted>
0.0000

> <Gold.Chemscore.DEClash.Weighted>
0.0860

> <Gold.Chemscore.DEInternal.Weighted>
0.5617

> <Gold.Chemscore.Rot.Weighted>
5.0944

> <Gold.Chemscore.Internal.Correction.Weighted>
   9.000000E+99

> <Gold.Protein.RotatedTorsions>
[ 6907 6896 6895 6894 ] final  174.17 input  -60.11 | X-H torsion
[ 7974 7965 7964 7962 ] final -122.94 input  175.53 | X-H torsion
[ 8008 7997 7996 7995 ] final  -32.02 input   59.86 | X-H torsion
[ 10167 10162 10161 10158 ] final  161.58 input  -65.29 | X-H torsion
[ 10718 10713 10712 10709 ] final   73.89 input   66.30 | X-H torsion
[ 10763 10752 10751 10750 ] final  129.94 input  -60.55 | X-H torsion
[ 11005 11000 10999 10996 ] final  -89.32 input  -57.11 | X-H torsion

> <Gold.Protein.ActiveResidues>
 VAL166  LYS551  ARG553  GLY616  TRP617  ASP618  TYR619  PRO620  LYS621  CYS622 
 ASP623  PHE694  ASN695  SER759  ASP760  ASP761  ALA762  ILE779  LEU786  VAL792 
 PHE793  MET794  SER795  GLU796  ALA797  LYS798  CYS799  TRP800  GLU811  SER814 

> <Gold.Protein.RotatedAtoms>
  151.7565  133.3331  159.3405 H   0  0  0  0  0  0  0  0  0  0  0  0  # atno 6907 bound_to 6896
  150.7514  134.6144  159.6112 H   0  0  0  0  0  0  0  0  0  0  0  0  # atno 6908 bound_to 6896
  152.3434  134.7106  160.0309 H   0  0  0  0  0  0  0  0  0  0  0  0  # atno 6909 bound_to 6896
  145.0241  140.8013  143.4363 H   0  0  0  0  0  0  0  0  0  0  0  0  # atno 7974 bound_to 7965
  154.4194  140.1749  156.1659 H   0  0  0  0  0  0  0  0  0  0  0  0  # atno 8008 bound_to 7997
  155.9800  140.3378  155.6630 H   0  0  0  0  0  0  0  0  0  0  0  0  # atno 8009 bound_to 7997
  155.6513  140.0690  157.2576 H   0  0  0  0  0  0  0  0  0  0  0  0  # atno 8010 bound_to 7997
  139.4851  144.4522  151.8814 H   0  0  0  0  0  0  0  0  0  0  0  0  # atno 10167 bound_to 10162
  157.6568  130.9651  150.1133 H   0  0  0  0  0  0  0  0  0  0  0  0  # atno 10718 bound_to 10713
  153.7499  135.3211  155.3319 H   0  0  0  0  0  0  0  0  0  0  0  0  # atno 10763 bound_to 10752
  154.8266  135.4565  154.0942 H   0  0  0  0  0  0  0  0  0  0  0  0  # atno 10764 bound_to 10752
  153.2141  135.6939  153.8160 H   0  0  0  0  0  0  0  0  0  0  0  0  # atno 10765 bound_to 10752
  141.1587  133.7623  156.9578 H   0  0  0  0  0  0  0  0  0  0  0  0  # atno 11005 bound_to 11000
  145.1857  139.2328  143.5269 LP  0  0  0  0  0  0  0  0  0  0  0  0  # atno 17320 bound_to 7965
  146.3489  140.1641  142.8590 LP  0  0  0  0  0  0  0  0  0  0  0  0  # atno 17321 bound_to 7965
  140.3980  144.2530  150.5895 LP  0  0  0  0  0  0  0  0  0  0  0  0  # atno 17342 bound_to 10162
  140.5084  143.2297  151.8573 LP  0  0  0  0  0  0  0  0  0  0  0  0  # atno 17343 bound_to 10162
  156.2024  130.3661  149.8772 LP  0  0  0  0  0  0  0  0  0  0  0  0  # atno 17370 bound_to 10713
  156.6672  130.8806  151.3556 LP  0  0  0  0  0  0  0  0  0  0  0  0  # atno 17371 bound_to 10713
  140.1213  134.9415  157.2208 LP  0  0  0  0  0  0  0  0  0  0  0  0  # atno 17394 bound_to 11000
  140.3068  134.3069  155.7276 LP  0  0  0  0  0  0  0  0  0  0  0  0  # atno 17395 bound_to 11000

$$$$
