AV-unprocessed.smi:3238|AV-procd|sdf|12376|dock10
  -GOLD-   2272018233D 1   1.00000     0.00000
 Structure written by MMmdl.
 37 39  0  0  0  0  0  0  0  0  1 V2000
  146.7648  138.6427  152.3154 C   0  0  0  0  0  0  0  0  0  0  0  0
  147.5045  139.7833  152.8338 N   0  0  0  0  0  0  0  0  0  0  0  0
  147.5335  140.1409  154.1258 C   0  0  0  0  0  0  0  0  0  0  0  0
  146.9320  139.5215  155.0052 O   0  0  0  0  0  0  0  0  0  0  0  0
  148.3773  141.3792  154.4577 C   0  0  0  0  0  0  0  0  0  0  0  0
  149.6226  141.0395  155.2174 C   0  0  0  0  0  0  0  0  0  0  0  0
  150.5867  140.3079  154.6700 N   0  0  0  0  0  0  0  0  0  0  0  0
  151.5514  140.2312  155.6846 O   0  0  0  0  0  0  0  0  0  0  0  0
  151.0459  140.9298  156.7295 C   0  0  0  0  0  0  0  0  0  0  0  0
  151.8637  141.0699  157.9714 C   0  0  0  0  0  0  0  0  0  0  0  0
  151.3732  142.1974  158.9024 C   0  0  1  0  0  0  0  0  0  0  0  0
  152.3281  142.4460  160.0926 C   0  0  0  0  0  0  0  0  0  0  0  0
  152.6353  143.9510  159.9888 C   0  0  2  0  0  0  0  0  0  0  0  0
  151.3766  144.7596  160.3522 C   0  0  0  0  0  0  0  0  0  0  0  0
  150.4644  144.5306  159.1322 C   0  0  0  0  0  0  0  0  0  0  0  0
  151.3107  143.5978  158.2448 C   0  0  1  0  0  0  0  0  0  0  0  0
  152.7142  144.1476  158.4806 C   0  0  0  0  0  0  0  0  0  0  0  0
  149.8546  141.4715  156.4887 N   0  0  0  0  0  0  0  0  0  0  0  0
  146.8813  138.5850  151.2333 H   0  0  0  0  0  0  0  0  0  0  0  0
  145.7011  138.7345  152.5389 H   0  0  0  0  0  0  0  0  0  0  0  0
  147.1328  137.7119  152.7486 H   0  0  0  0  0  0  0  0  0  0  0  0
  148.0276  140.3353  152.1695 H   0  0  0  0  0  0  0  0  0  0  0  0
  148.6407  141.8893  153.5302 H   0  0  0  0  0  0  0  0  0  0  0  0
  147.7822  142.0791  155.0461 H   0  0  0  0  0  0  0  0  0  0  0  0
  151.8312  140.1181  158.5028 H   0  0  0  0  0  0  0  0  0  0  0  0
  152.9052  141.2260  157.6888 H   0  0  0  0  0  0  0  0  0  0  0  0
  150.3876  141.9183  159.2786 H   0  0  0  0  0  0  0  0  0  0  0  0
  151.8759  142.1816  161.0492 H   0  0  0  0  0  0  0  0  0  0  0  0
  153.2472  141.8665  159.9927 H   0  0  0  0  0  0  0  0  0  0  0  0
  153.5255  144.2543  160.5404 H   0  0  0  0  0  0  0  0  0  0  0  0
  150.9220  144.4191  161.2833 H   0  0  0  0  0  0  0  0  0  0  0  0
  151.6118  145.8191  160.4616 H   0  0  0  0  0  0  0  0  0  0  0  0
  149.5040  144.0915  159.4047 H   0  0  0  0  0  0  0  0  0  0  0  0
  150.2651  145.4739  158.6219 H   0  0  0  0  0  0  0  0  0  0  0  0
  150.9874  143.5950  157.2041 H   0  0  0  0  0  0  0  0  0  0  0  0
  152.8254  145.1926  158.1859 H   0  0  0  0  0  0  0  0  0  0  0  0
  153.5015  143.5589  158.0073 H   0  0  0  0  0  0  0  0  0  0  0  0
  1  2  1  0  0  0  0
  1 19  1  0  0  0  0
  1 20  1  0  0  0  0
  1 21  1  0  0  0  0
  2  3  1  0  0  0  0
  2 22  1  0  0  0  0
  3  4  2  0  0  0  0
  3  5  1  0  0  0  0
  5  6  1  0  0  0  0
  5 23  1  0  0  0  0
  5 24  1  0  0  0  0
  6 18  1  0  0  0  0
  6  7  2  0  0  0  0
  7  8  1  0  0  0  0
  8  9  1  0  0  0  0
  9 10  1  0  0  0  0
  9 18  2  0  0  0  0
 10 11  1  0  0  0  0
 10 25  1  0  0  0  0
 10 26  1  0  0  0  0
 11 16  1  0  0  0  0
 11 12  1  0  0  0  0
 11 27  1  0  0  0  0
 12 13  1  0  0  0  0
 12 28  1  0  0  0  0
 12 29  1  0  0  0  0
 13 17  1  0  0  0  0
 13 14  1  0  0  0  0
 13 30  1  0  0  0  0
 14 15  1  0  0  0  0
 14 31  1  0  0  0  0
 14 32  1  0  0  0  0
 15 16  1  0  0  0  0
 15 33  1  0  0  0  0
 15 34  1  0  0  0  0
 16 17  1  0  0  0  0
 16 35  1  0  0  0  0
 17 36  1  0  0  0  0
 17 37  1  0  0  0  0
M  END
> <s_m_source_file>
AV-unprocessed.smi

> <i_m_source_file_index>
3238

> <i_lp_mmshare_version>
43012

> <i_f3d_flags>
0

> <s_epik_input>
W0NIM11bTkhdQyg9TylbQ0gyXWMxbm9jKG4xKVtDSDJdW0NASF0oW0NIMl1bQ0BIXTIzKVtDQEhdKFtDSDJdMylbQ0gyXVtDSDJdMg==

> <s_epik_cmdline>
J2VwaWtfcHl0aG9uJywgJy1waCcsICc3LjAnLCAnLXRuJywgJzgnLCAnLW1hJywgJzIwMCcsICctbWV0YWxfYmluZGluZycsICctaW1hZScsICc8aW5maWxlLm1hZT4nLCAnLW9tYWUnLCAnPG91dGZpbGUubWFlPic=

> <r_lp_tautomer_probability>
1

> <r_epik_Ionization_Penalty>
1.02915e-07

> <r_epik_Ionization_Penalty_Charging>
0

> <r_epik_Ionization_Penalty_Neutral>
1.02915e-07

> <r_epik_State_Penalty>
-0

> <r_epik_Charging_Adjusted_Penalty>
0

> <i_epik_Tot_Q>
0

> <i_epik_Tot_abs_Q>
0

> <r_epik_Metal_State_Penalty>
-0

> <b_epik_Metal_Only>
0

> <s_lp_Force_Field>
OPLS_2005

> <r_lp_Energy>
47.9986

> <b_lp_Chiralities_Consistent>
1

> <s_lp_Variant>
AV-unprocessed.smi:3238-2

> <Gold.Version>
5.8.1

> <Gold.Id.Protein>
6NUR|6NUR_protein|mol2

> <Gold.PLP.Fitness>
47.1104

> <Gold.PLP.PLP>
-42.4532

> <Gold.PLP.part.hbond>
-2.5373

> <Gold.PLP.part.metal>
0.0000

> <Gold.PLP.part.buried>
-6.4798

> <Gold.PLP.part.nonpolar>
-34.7404

> <Gold.PLP.part.repulsive>
0.3158

> <Gold.PLP.ligand.clash>
0.0000

> <Gold.PLP.ligand.torsion>
0.3255

> <Gold.PLP.Chemscore.Hbond>
1.7660

> <Gold.PLP.Chemscore.CHOScore>
0.0000

> <Gold.PLP.Chemscore.Metal>
0.0000

> <Gold.Chemscore.Hbonds>
donor molecule, donor type, donor heavy atom, donor atom, acceptor molecule, acceptor atom, score
      L1  H     2    22       P1  7957  0.70
      P1  H  7989  7998       L1     7  0.80

> <Gold.PLP.Chemscore.Internal.Correction>
0.0103

> <Gold.Rescore>
     Score         DG    S(hbond)    S(metal)    S(lipo)     H(rot)  DE(clash)    DE(int)     intcor
     17.26     -17.83       1.48        0.00     103.87       1.85       0.26       0.31       ----

> <Gold.Chemscore.Fitness>
17.2643

> <Gold.Chemscore.DG>
-17.8339

> <Gold.Chemscore.ZeroCoef>
-5.4800

> <Gold.Chemscore.Hbond>
1.4777

> <Gold.Chemscore.Metal>
0.0000

> <Gold.Chemscore.Lipo>
103.8672

> <Gold.Chemscore.Internal_Hbond>
0.0000

> <Gold.Chemscore.DEClash>
0.2632

> <Gold.Chemscore.DEInternal>
0.3063

> <Gold.Chemscore.Rot>
1.8492

> <Gold.Chemscore.Internal.Correction>
   9.000000E+99

> <Gold.Chemscore.Hbonds>
donor molecule, donor type, donor heavy atom, donor atom, acceptor molecule, acceptor atom, score
      L1  H     2    22       P1  7957  0.70
      P1  H  7989  7998       L1     7  0.12

> <Gold.Chemscore.Hbond.Weighted>
-4.9354

> <Gold.Chemscore.Metal.Weighted>
-0.0000

> <Gold.Chemscore.Lipo.Weighted>
-12.1525

> <Gold.Chemscore.Internal_Hbond.Weighted>
0.0000

> <Gold.Chemscore.DEClash.Weighted>
0.2632

> <Gold.Chemscore.DEInternal.Weighted>
0.3063

> <Gold.Chemscore.Rot.Weighted>
4.7340

> <Gold.Chemscore.Internal.Correction.Weighted>
   9.000000E+99

> <Gold.Protein.RotatedTorsions>
[ 6907 6896 6895 6894 ] final  168.01 input  -60.11 | X-H torsion
[ 7974 7965 7964 7962 ] final   51.28 input  175.53 | X-H torsion
[ 8008 7997 7996 7995 ] final   35.33 input   59.86 | X-H torsion
[ 10167 10162 10161 10158 ] final   57.57 input  -65.29 | X-H torsion
[ 10718 10713 10712 10709 ] final -148.18 input   66.30 | X-H torsion
[ 10763 10752 10751 10750 ] final -103.44 input  -60.55 | X-H torsion
[ 11005 11000 10999 10996 ] final -135.28 input  -57.11 | X-H torsion

> <Gold.Protein.ActiveResidues>
 VAL166  LYS551  ARG553  GLY616  TRP617  ASP618  TYR619  PRO620  LYS621  CYS622 
 ASP623  PHE694  ASN695  SER759  ASP760  ASP761  ALA762  ILE779  LEU786  VAL792 
 PHE793  MET794  SER795  GLU796  ALA797  LYS798  CYS799  TRP800  GLU811  SER814 

> <Gold.Protein.RotatedAtoms>
  151.8544  133.3445  159.3683 H   0  0  0  0  0  0  0  0  0  0  0  0  # atno 6907 bound_to 6896
  150.7197  134.5267  159.5690 H   0  0  0  0  0  0  0  0  0  0  0  0  # atno 6908 bound_to 6896
  152.2768  134.7873  160.0455 H   0  0  0  0  0  0  0  0  0  0  0  0  # atno 6909 bound_to 6896
  145.9929  139.4358  143.0062 H   0  0  0  0  0  0  0  0  0  0  0  0  # atno 7974 bound_to 7965
  155.1693  140.3290  155.4396 H   0  0  0  0  0  0  0  0  0  0  0  0  # atno 8008 bound_to 7997
  156.2515  140.1946  156.6748 H   0  0  0  0  0  0  0  0  0  0  0  0  # atno 8009 bound_to 7997
  154.6349  140.0578  156.9762 H   0  0  0  0  0  0  0  0  0  0  0  0  # atno 8010 bound_to 7997
  140.1966  144.4031  150.6547 H   0  0  0  0  0  0  0  0  0  0  0  0  # atno 10167 bound_to 10162
  156.4170  130.8009  151.2230 H   0  0  0  0  0  0  0  0  0  0  0  0  # atno 10718 bound_to 10713
  154.7807  135.4823  153.9839 H   0  0  0  0  0  0  0  0  0  0  0  0  # atno 10763 bound_to 10752
  153.1490  135.6787  153.8918 H   0  0  0  0  0  0  0  0  0  0  0  0  # atno 10764 bound_to 10752
  153.8568  135.3160  155.3414 H   0  0  0  0  0  0  0  0  0  0  0  0  # atno 10765 bound_to 10752
  140.8913  134.1808  157.4526 H   0  0  0  0  0  0  0  0  0  0  0  0  # atno 11005 bound_to 11000
  145.7603  140.9938  143.1204 LP  0  0  0  0  0  0  0  0  0  0  0  0  # atno 17320 bound_to 7965
  144.6894  139.9322  143.7472 LP  0  0  0  0  0  0  0  0  0  0  0  0  # atno 17321 bound_to 7965
  140.6419  143.2205  151.6271 LP  0  0  0  0  0  0  0  0  0  0  0  0  # atno 17342 bound_to 10162
  139.5234  144.3134  152.0973 LP  0  0  0  0  0  0  0  0  0  0  0  0  # atno 17343 bound_to 10162
  157.7508  131.0240  150.3858 LP  0  0  0  0  0  0  0  0  0  0  0  0  # atno 17370 bound_to 10713
  156.4167  130.3945  149.6853 LP  0  0  0  0  0  0  0  0  0  0  0  0  # atno 17371 bound_to 10713
  139.8730  134.9859  156.5304 LP  0  0  0  0  0  0  0  0  0  0  0  0  # atno 17394 bound_to 11000
  140.8343  133.8254  155.9014 LP  0  0  0  0  0  0  0  0  0  0  0  0  # atno 17395 bound_to 11000

$$$$
