AV-unprocessed.smi:1560|AV-procd|sdf|6279|dock1
  -GOLD-   22720 6473D 1   1.00000     0.00000
 Structure written by MMmdl.
 46 47  0  0  0  0  0  0  0  0  2 V2000
  146.9853  130.1258  153.5404 C   0  0  0  0  0  0  0  0  0  0  0  0
  146.4606  131.1497  152.5169 C   0  0  0  0  0  0  0  0  0  0  0  0
  146.6524  132.6509  152.9028 C   0  0  1  0  0  0  0  0  0  0  0  0
  145.9069  132.8547  154.2495 C   0  0  0  0  0  0  0  0  0  0  0  0
  148.1741  132.9165  153.1429 C   0  0  0  0  0  0  0  0  0  0  0  0
  148.4711  134.2555  153.6518 N   0  0  0  0  0  0  0  0  0  0  0  0
  148.4297  134.6345  154.9384 C   0  0  0  0  0  0  0  0  0  0  0  0
  148.0941  133.8841  155.8558 O   0  0  0  0  0  0  0  0  0  0  0  0
  148.7902  136.0987  155.2212 C   0  0  0  0  0  0  0  0  0  0  0  0
  148.6731  136.4493  156.6458 N   0  0  0  0  0  0  0  0  0  0  0  0
  147.7046  137.4016  157.0100 C   0  0  0  0  0  0  0  0  0  0  0  0
  147.5279  137.7812  158.2900 C   0  0  0  0  0  0  0  0  0  0  0  0
  148.3735  137.1772  159.3125 C   0  0  0  0  0  0  0  0  0  0  0  0
  148.2302  137.5158  160.4858 O   0  0  0  0  0  0  0  0  0  0  0  0
  149.2949  136.2535  158.9095 N   0  5  0  0  0  0  0  0  0  0  0  0
  149.4623  135.8758  157.6042 C   0  0  0  0  0  0  0  0  0  0  0  0
  150.2996  135.0395  157.2625 O   0  0  0  0  0  0  0  0  0  0  0  0
  146.0890  133.5459  151.8520 N   0  0  0  0  0  0  0  0  0  0  0  0
  145.9028  134.9447  152.2582 C   0  0  0  0  0  0  0  0  0  0  0  0
  145.4615  135.8319  151.0821 C   0  0  0  0  0  0  0  0  0  0  0  0
  144.2651  135.3134  150.5135 O   0  0  0  0  0  0  0  0  0  0  0  0
  144.4172  133.9757  150.0548 C   0  0  0  0  0  0  0  0  0  0  0  0
  144.8499  133.0731  151.2229 C   0  0  0  0  0  0  0  0  0  0  0  0
  146.8048  129.1102  153.1885 H   0  0  0  0  0  0  0  0  0  0  0  0
  146.4908  130.2262  154.5064 H   0  0  0  0  0  0  0  0  0  0  0  0
  148.0583  130.2263  153.7004 H   0  0  0  0  0  0  0  0  0  0  0  0
  146.9604  130.9426  151.5705 H   0  0  0  0  0  0  0  0  0  0  0  0
  145.4090  130.9419  152.3183 H   0  0  0  0  0  0  0  0  0  0  0  0
  146.1281  132.0618  154.9647 H   0  0  0  0  0  0  0  0  0  0  0  0
  144.8252  132.8702  154.1126 H   0  0  0  0  0  0  0  0  0  0  0  0
  146.1868  133.7906  154.7333 H   0  0  0  0  0  0  0  0  0  0  0  0
  148.6001  132.1679  153.8112 H   0  0  0  0  0  0  0  0  0  0  0  0
  148.7286  132.8249  152.2098 H   0  0  0  0  0  0  0  0  0  0  0  0
  148.7516  134.9454  152.9701 H   0  0  0  0  0  0  0  0  0  0  0  0
  149.8010  136.3102  154.8672 H   0  0  0  0  0  0  0  0  0  0  0  0
  148.1372  136.7295  154.6167 H   0  0  0  0  0  0  0  0  0  0  0  0
  147.1166  137.7955  156.1940 H   0  0  0  0  0  0  0  0  0  0  0  0
  146.7776  138.5121  158.5539 H   0  0  0  0  0  0  0  0  0  0  0  0
  145.1517  135.0139  153.0448 H   0  0  0  0  0  0  0  0  0  0  0  0
  146.8230  135.3613  152.6632 H   0  0  0  0  0  0  0  0  0  0  0  0
  145.2803  136.8510  151.4241 H   0  0  0  0  0  0  0  0  0  0  0  0
  146.2434  135.8825  150.3226 H   0  0  0  0  0  0  0  0  0  0  0  0
  143.4695  133.6313  149.6405 H   0  0  0  0  0  0  0  0  0  0  0  0
  145.1510  133.9406  149.2481 H   0  0  0  0  0  0  0  0  0  0  0  0
  144.9703  132.0636  150.8335 H   0  0  0  0  0  0  0  0  0  0  0  0
  144.0423  133.0373  151.9537 H   0  0  0  0  0  0  0  0  0  0  0  0
  1  2  1  0  0  0  0
  1 24  1  0  0  0  0
  1 25  1  0  0  0  0
  1 26  1  0  0  0  0
  2  3  1  0  0  0  0
  2 27  1  0  0  0  0
  2 28  1  0  0  0  0
  3  4  1  0  0  0  0
  3  5  1  0  0  0  0
  3 18  1  0  0  0  0
  4 29  1  0  0  0  0
  4 30  1  0  0  0  0
  4 31  1  0  0  0  0
  5  6  1  0  0  0  0
  5 32  1  0  0  0  0
  5 33  1  0  0  0  0
  6  7  1  0  0  0  0
  6 34  1  0  0  0  0
  7  8  2  0  0  0  0
  7  9  1  0  0  0  0
  9 10  1  0  0  0  0
  9 35  1  0  0  0  0
  9 36  1  0  0  0  0
 10 16  1  0  0  0  0
 10 11  1  0  0  0  0
 11 12  2  0  0  0  0
 11 37  1  0  0  0  0
 12 13  1  0  0  0  0
 12 38  1  0  0  0  0
 13 14  2  0  0  0  0
 13 15  1  0  0  0  0
 15 16  1  0  0  0  0
 16 17  2  0  0  0  0
 18 23  1  0  0  0  0
 18 19  1  0  0  0  0
 19 20  1  0  0  0  0
 19 39  1  0  0  0  0
 19 40  1  0  0  0  0
 20 21  1  0  0  0  0
 20 41  1  0  0  0  0
 20 42  1  0  0  0  0
 21 22  1  0  0  0  0
 22 23  1  0  0  0  0
 22 43  1  0  0  0  0
 22 44  1  0  0  0  0
 23 45  1  0  0  0  0
 23 46  1  0  0  0  0
M  CHG  1  15  -1
M  END
> <s_m_source_file>
AV-unprocessed.smi

> <i_m_source_file_index>
1560

> <i_lp_mmshare_version>
43012

> <i_f3d_flags>
0

> <s_epik_input>
W0NIMl0xW0NIMl1PW0NIMl1bQ0gyXU4xW0NAQF0oW0NIM10pKFtDSDJdW0NIM10pW0NIMl1bTkhdQyg9TylbQ0gyXW4yW2NIXVtjSF1jKD1PKVtuSF1jMj1P

> <s_epik_cmdline>
J2VwaWtfcHl0aG9uJywgJy1waCcsICc3LjAnLCAnLXRuJywgJzgnLCAnLW1hJywgJzIwMCcsICctbWV0YWxfYmluZGluZycsICctaW1hZScsICc8aW5maWxlLm1hZT4nLCAnLW9tYWUnLCAnPG91dGZpbGUubWFlPic=

> <r_lp_tautomer_probability>
0.999537

> <r_epik_Ionization_Penalty>
3.35108

> <r_epik_Ionization_Penalty_Charging>
2.65778e-08

> <r_epik_Ionization_Penalty_Neutral>
3.35108

> <r_epik_State_Penalty>
3.36199

> <r_epik_Charging_Adjusted_Penalty>
3.36199

> <i_epik_Tot_Q>
-1

> <i_epik_Tot_abs_Q>
1

> <r_epik_Metal_State_Penalty>
0.748914

> <b_epik_Metal_Only>
1

> <s_lp_Force_Field>
OPLS_2005

> <r_lp_Energy>
51.7621

> <b_lp_Chiralities_Consistent>
1

> <s_lp_Variant>
AV-unprocessed.smi:1560-5

> <Gold.Version>
5.8.1

> <Gold.Id.Protein>
6NUR|6NUR_protein|mol2

> <Gold.PLP.Fitness>
39.3997

> <Gold.PLP.PLP>
-28.0383

> <Gold.PLP.part.hbond>
-4.9302

> <Gold.PLP.part.metal>
0.0000

> <Gold.PLP.part.buried>
-2.9280

> <Gold.PLP.part.nonpolar>
-19.9819

> <Gold.PLP.part.repulsive>
0.3970

> <Gold.PLP.ligand.clash>
0.0000

> <Gold.PLP.ligand.torsion>
0.6669

> <Gold.PLP.Chemscore.Hbond>
4.1736

> <Gold.PLP.Chemscore.CHOScore>
0.0000

> <Gold.PLP.Chemscore.Metal>
0.0000

> <Gold.Chemscore.Hbonds>
donor molecule, donor type, donor heavy atom, donor atom, acceptor molecule, acceptor atom, score
      L1  H     6    34       P1  7948  1.00
      P1  H  6896  6909       L1    15  0.80
      P1  H  6931  6943       L1    14  0.59
      P1  H  6934  6947       L1    14  0.56

> <Gold.PLP.Chemscore.Internal.Correction>
0.1745

> <Gold.Rescore>
     Score         DG    S(hbond)    S(metal)    S(lipo)     H(rot)  DE(clash)    DE(int)     intcor
     12.09     -14.38       2.59        0.00      55.13       2.42       0.70       1.59       ----

> <Gold.Chemscore.Fitness>
12.0918

> <Gold.Chemscore.DG>
-14.3776

> <Gold.Chemscore.ZeroCoef>
-5.4800

> <Gold.Chemscore.Hbond>
2.5872

> <Gold.Chemscore.Metal>
0.0000

> <Gold.Chemscore.Lipo>
55.1337

> <Gold.Chemscore.Internal_Hbond>
0.0000

> <Gold.Chemscore.DEClash>
0.6965

> <Gold.Chemscore.DEInternal>
1.5893

> <Gold.Chemscore.Rot>
2.4197

> <Gold.Chemscore.Internal.Correction>
   9.000000E+99

> <Gold.Chemscore.Hbonds>
donor molecule, donor type, donor heavy atom, donor atom, acceptor molecule, acceptor atom, score
      L1  H     6    34       P1  7948  0.30
      P1  H  6896  6909       L1    15  0.05
      P1  H  6931  6943       L1    14  0.60
      P1  H  6934  6947       L1    14  0.55

> <Gold.Chemscore.Hbond.Weighted>
-8.6413

> <Gold.Chemscore.Metal.Weighted>
-0.0000

> <Gold.Chemscore.Lipo.Weighted>
-6.4506

> <Gold.Chemscore.Internal_Hbond.Weighted>
0.0000

> <Gold.Chemscore.DEClash.Weighted>
0.6965

> <Gold.Chemscore.DEInternal.Weighted>
1.5893

> <Gold.Chemscore.Rot.Weighted>
6.1943

> <Gold.Chemscore.Internal.Correction.Weighted>
   9.000000E+99

> <Gold.Protein.RotatedTorsions>
[ 6907 6896 6895 6894 ] final   69.45 input  -60.11 | X-H torsion
[ 7974 7965 7964 7962 ] final   24.66 input  175.53 | X-H torsion
[ 8008 7997 7996 7995 ] final   -6.75 input   59.86 | X-H torsion
[ 10167 10162 10161 10158 ] final  -54.01 input  -65.29 | X-H torsion
[ 10718 10713 10712 10709 ] final   26.10 input   66.30 | X-H torsion
[ 10763 10752 10751 10750 ] final -155.45 input  -60.55 | X-H torsion
[ 11005 11000 10999 10996 ] final -117.09 input  -57.11 | X-H torsion

> <Gold.Protein.ActiveResidues>
 VAL166  LYS551  ARG553  GLY616  TRP617  ASP618  TYR619  PRO620  LYS621  CYS622 
 ASP623  PHE694  ASN695  SER759  ASP760  ASP761  ALA762  ILE779  LEU786  VAL792 
 PHE793  MET794  SER795  GLU796  ALA797  LYS798  CYS799  TRP800  GLU811  SER814 

> <Gold.Protein.RotatedAtoms>
  152.4687  134.5014  159.9725 H   0  0  0  0  0  0  0  0  0  0  0  0  # atno 6907 bound_to 6896
  151.5046  133.3491  159.2882 H   0  0  0  0  0  0  0  0  0  0  0  0  # atno 6908 bound_to 6896
  150.8684  134.8081  159.7198 H   0  0  0  0  0  0  0  0  0  0  0  0  # atno 6909 bound_to 6896
  146.1926  139.7573  142.8820 H   0  0  0  0  0  0  0  0  0  0  0  0  # atno 7974 bound_to 7965
  154.5906  140.2424  155.7926 H   0  0  0  0  0  0  0  0  0  0  0  0  # atno 8008 bound_to 7997
  156.2244  140.2987  155.9985 H   0  0  0  0  0  0  0  0  0  0  0  0  # atno 8009 bound_to 7997
  155.2381  140.0406  157.2962 H   0  0  0  0  0  0  0  0  0  0  0  0  # atno 8010 bound_to 7997
  140.6454  143.2532  151.4874 H   0  0  0  0  0  0  0  0  0  0  0  0  # atno 10167 bound_to 10162
  157.2023  130.6895  149.6193 H   0  0  0  0  0  0  0  0  0  0  0  0  # atno 10718 bound_to 10713
  154.7786  135.3167  154.8038 H   0  0  0  0  0  0  0  0  0  0  0  0  # atno 10763 bound_to 10752
  153.8755  135.6840  153.4775 H   0  0  0  0  0  0  0  0  0  0  0  0  # atno 10764 bound_to 10752
  153.1416  135.4736  154.9441 H   0  0  0  0  0  0  0  0  0  0  0  0  # atno 10765 bound_to 10752
  141.0378  133.9882  157.3043 H   0  0  0  0  0  0  0  0  0  0  0  0  # atno 11005 bound_to 11000
  145.3743  141.0348  143.3213 LP  0  0  0  0  0  0  0  0  0  0  0  0  # atno 17320 bound_to 7965
  144.8517  139.5311  143.6853 LP  0  0  0  0  0  0  0  0  0  0  0  0  # atno 17321 bound_to 7965
  139.5664  144.2031  152.1772 LP  0  0  0  0  0  0  0  0  0  0  0  0  # atno 17342 bound_to 10162
  140.1315  144.5284  150.6800 LP  0  0  0  0  0  0  0  0  0  0  0  0  # atno 17343 bound_to 10162
  155.9699  130.4578  150.5978 LP  0  0  0  0  0  0  0  0  0  0  0  0  # atno 17370 bound_to 10713
  157.3755  131.0772  151.1522 LP  0  0  0  0  0  0  0  0  0  0  0  0  # atno 17371 bound_to 10713
  139.9253  135.0201  156.8213 LP  0  0  0  0  0  0  0  0  0  0  0  0  # atno 17394 bound_to 11000
  140.6290  133.9924  155.7653 LP  0  0  0  0  0  0  0  0  0  0  0  0  # atno 17395 bound_to 11000

$$$$
