AV-unprocessed.smi:697|AV-procd|sdf|3393|dock7
  -GOLD-   22720 0373D 1   1.00000     0.00000
 Structure written by MMmdl.
 43 44  0  0  0  0  0  0  0  0  2 V2000
  156.8473  135.1791  165.3116 C   0  0  0  0  0  0  0  0  0  0  0  0
  157.3112  135.7769  164.1079 O   0  0  0  0  0  0  0  0  0  0  0  0
  157.3110  137.2049  164.0693 C   0  0  1  0  0  0  0  0  0  0  0  0
  158.1402  137.7609  165.2377 C   0  0  0  0  0  0  0  0  0  0  0  0
  157.5967  137.7513  162.6581 C   0  0  0  0  0  0  0  0  0  0  0  0
  156.4649  138.7443  162.9105 C   0  0  1  0  0  0  0  0  0  0  0  0
  155.6786  139.0174  161.7128 N   0  0  0  0  0  0  0  0  0  0  0  0
  154.8904  140.0885  161.5524 C   0  0  0  0  0  0  0  0  0  0  0  0
  154.7601  140.9613  162.4104 O   0  0  0  0  0  0  0  0  0  0  0  0
  154.2965  140.0667  160.3456 N   0  0  0  0  0  0  0  0  0  0  0  0
  153.3847  140.9743  159.7794 C   0  0  0  0  0  0  0  0  0  0  0  0
  153.0190  142.1623  160.3364 C   0  0  0  0  0  0  0  0  0  0  0  0
  152.0587  143.0579  159.7041 C   0  0  0  0  0  0  0  0  0  0  0  0
  151.7026  144.4312  160.2451 C   0  0  0  0  0  0  0  0  0  0  0  0
  150.3819  144.5740  160.3583 F   0  0  0  0  0  0  0  0  0  0  0  0
  152.2429  144.5978  161.4513 F   0  0  0  0  0  0  0  0  0  0  0  0
  152.1628  145.3944  159.4467 F   0  0  0  0  0  0  0  0  0  0  0  0
  151.5930  142.5627  158.5018 C   0  0  0  0  0  0  0  0  0  0  0  0
  151.8809  141.3899  157.8959 N   0  5  0  0  0  0  0  0  0  0  0  0
  152.7780  140.5586  158.4976 C   0  0  0  0  0  0  0  0  0  0  0  0
  153.0884  139.4764  157.9979 O   0  0  0  0  0  0  0  0  0  0  0  0
  155.8422  137.7057  163.8786 C   0  0  0  0  0  0  0  0  0  0  0  0
  154.8523  136.6923  163.2685 C   0  0  0  0  0  0  0  0  0  0  0  0
  155.1415  138.2818  165.1130 C   0  0  0  0  0  0  0  0  0  0  0  0
  156.9792  134.0993  165.2466 H   0  0  0  0  0  0  0  0  0  0  0  0
  155.7865  135.3651  165.4761 H   0  0  0  0  0  0  0  0  0  0  0  0
  157.4045  135.5266  166.1816 H   0  0  0  0  0  0  0  0  0  0  0  0
  158.0512  138.8438  165.3203 H   0  0  0  0  0  0  0  0  0  0  0  0
  159.2027  137.5506  165.1190 H   0  0  0  0  0  0  0  0  0  0  0  0
  157.8210  137.3339  166.1886 H   0  0  0  0  0  0  0  0  0  0  0  0
  158.5782  138.2096  162.5338 H   0  0  0  0  0  0  0  0  0  0  0  0
  157.3850  137.0381  161.8592 H   0  0  0  0  0  0  0  0  0  0  0  0
  156.8215  139.6433  163.4184 H   0  0  0  0  0  0  0  0  0  0  0  0
  155.7364  138.3471  160.9601 H   0  0  0  0  0  0  0  0  0  0  0  0
  154.5576  139.3085  159.7321 H   0  0  0  0  0  0  0  0  0  0  0  0
  153.4195  142.4763  161.2859 H   0  0  0  0  0  0  0  0  0  0  0  0
  150.8844  143.2083  157.9403 H   0  0  0  0  0  0  0  0  0  0  0  0
  153.9109  137.1668  162.9889 H   0  0  0  0  0  0  0  0  0  0  0  0
  154.6126  135.8958  163.9738 H   0  0  0  0  0  0  0  0  0  0  0  0
  155.2469  136.2148  162.3717 H   0  0  0  0  0  0  0  0  0  0  0  0
  154.1596  138.6853  164.8638 H   0  0  0  0  0  0  0  0  0  0  0  0
  155.7079  139.0978  165.5609 H   0  0  0  0  0  0  0  0  0  0  0  0
  154.9999  137.5220  165.8823 H   0  0  0  0  0  0  0  0  0  0  0  0
  1  2  1  0  0  0  0
  1 25  1  0  0  0  0
  1 26  1  0  0  0  0
  1 27  1  0  0  0  0
  2  3  1  0  0  0  0
  3 22  1  0  0  0  0
  3  4  1  0  0  0  0
  3  5  1  0  0  0  0
  4 28  1  0  0  0  0
  4 29  1  0  0  0  0
  4 30  1  0  0  0  0
  5  6  1  0  0  0  0
  5 31  1  0  0  0  0
  5 32  1  0  0  0  0
  6  7  1  0  0  0  0
  6 22  1  0  0  0  0
  6 33  1  0  0  0  0
  7  8  1  0  0  0  0
  7 34  1  0  0  0  0
  8  9  2  0  0  0  0
  8 10  1  0  0  0  0
 10 11  1  0  0  0  0
 10 35  1  0  0  0  0
 11 20  1  0  0  0  0
 11 12  2  0  0  0  0
 12 13  1  0  0  0  0
 12 36  1  0  0  0  0
 13 14  1  0  0  0  0
 13 18  2  0  0  0  0
 14 15  1  0  0  0  0
 14 16  1  0  0  0  0
 14 17  1  0  0  0  0
 18 19  1  0  0  0  0
 18 37  1  0  0  0  0
 19 20  1  0  0  0  0
 20 21  2  0  0  0  0
 22 23  1  0  0  0  0
 22 24  1  0  0  0  0
 23 38  1  0  0  0  0
 23 39  1  0  0  0  0
 23 40  1  0  0  0  0
 24 41  1  0  0  0  0
 24 42  1  0  0  0  0
 24 43  1  0  0  0  0
M  CHG  1  19  -1
M  END
> <s_m_source_file>
AV-unprocessed.smi

> <i_m_source_file_index>
697

> <i_lp_mmshare_version>
43012

> <i_f3d_flags>
0

> <s_epik_input>
W0NIM11PW0NAQF0xKFtDSDNdKVtDSDJdW0NASF0oQzEoW0NIM10pW0NIM10pW05IXUMoPU8pW05IXWMyW2NIXWMoQyhGKShGKUYpW2NIXVtuSF1jMj1P

> <s_epik_cmdline>
J2VwaWtfcHl0aG9uJywgJy1waCcsICc3LjAnLCAnLXRuJywgJzgnLCAnLW1hJywgJzIwMCcsICctbWV0YWxfYmluZGluZycsICctaW1hZScsICc8aW5maWxlLm1hZT4nLCAnLW9tYWUnLCAnPG91dGZpbGUubWFlPic=

> <r_lp_tautomer_probability>
1

> <r_epik_Ionization_Penalty>
3.20094

> <r_epik_Ionization_Penalty_Charging>
0.180017

> <r_epik_Ionization_Penalty_Neutral>
3.02092

> <r_epik_State_Penalty>
3.01726

> <r_epik_Charging_Adjusted_Penalty>
3.19727

> <i_epik_Tot_Q>
-1

> <i_epik_Tot_abs_Q>
1

> <r_epik_Metal_State_Penalty>
0.455096

> <b_epik_Metal_Only>
1

> <s_lp_Force_Field>
OPLS_2005

> <r_lp_Energy>
36.1164

> <b_lp_Chiralities_Consistent>
1

> <s_lp_Variant>
AV-unprocessed.smi:697-5

> <Gold.Version>
5.8.1

> <Gold.Id.Protein>
6NUR|6NUR_protein|mol2

> <Gold.PLP.Fitness>
39.8690

> <Gold.PLP.PLP>
-37.4330

> <Gold.PLP.part.hbond>
-2.0000

> <Gold.PLP.part.metal>
0.0000

> <Gold.PLP.part.buried>
-4.7374

> <Gold.PLP.part.nonpolar>
-30.4139

> <Gold.PLP.part.repulsive>
0.0663

> <Gold.PLP.ligand.clash>
0.0000

> <Gold.PLP.ligand.torsion>
0.4969

> <Gold.PLP.Chemscore.Hbond>
1.0000

> <Gold.PLP.Chemscore.CHOScore>
0.0000

> <Gold.PLP.Chemscore.Metal>
0.0000

> <Gold.Chemscore.Hbonds>
donor molecule, donor type, donor heavy atom, donor atom, acceptor molecule, acceptor atom, score
      P1  H  7997  8008       L1    21  0.95

> <Gold.PLP.Chemscore.Internal.Correction>
0.4298

> <Gold.Rescore>
     Score         DG    S(hbond)    S(metal)    S(lipo)     H(rot)  DE(clash)    DE(int)     intcor
     12.91     -15.29       0.88        0.00      86.97       1.30       0.82       1.56       ----

> <Gold.Chemscore.Fitness>
12.9113

> <Gold.Chemscore.DG>
-15.2863

> <Gold.Chemscore.ZeroCoef>
-5.4800

> <Gold.Chemscore.Hbond>
0.8838

> <Gold.Chemscore.Metal>
0.0000

> <Gold.Chemscore.Lipo>
86.9679

> <Gold.Chemscore.Internal_Hbond>
0.0000

> <Gold.Chemscore.DEClash>
0.8183

> <Gold.Chemscore.DEInternal>
1.5567

> <Gold.Chemscore.Rot>
1.2973

> <Gold.Chemscore.Internal.Correction>
   9.000000E+99

> <Gold.Chemscore.Hbonds>
donor molecule, donor type, donor heavy atom, donor atom, acceptor molecule, acceptor atom, score
      P1  H  7997  8008       L1    21  0.22

> <Gold.Chemscore.Hbond.Weighted>
-2.9520

> <Gold.Chemscore.Metal.Weighted>
-0.0000

> <Gold.Chemscore.Lipo.Weighted>
-10.1752

> <Gold.Chemscore.Internal_Hbond.Weighted>
0.0000

> <Gold.Chemscore.DEClash.Weighted>
0.8183

> <Gold.Chemscore.DEInternal.Weighted>
1.5567

> <Gold.Chemscore.Rot.Weighted>
3.3210

> <Gold.Chemscore.Internal.Correction.Weighted>
   9.000000E+99

> <Gold.Protein.RotatedTorsions>
[ 6907 6896 6895 6894 ] final   42.20 input  -60.11 | X-H torsion
[ 7974 7965 7964 7962 ] final  -95.36 input  175.53 | X-H torsion
[ 8008 7997 7996 7995 ] final  -83.62 input   59.86 | X-H torsion
[ 10167 10162 10161 10158 ] final   42.78 input  -65.29 | X-H torsion
[ 10718 10713 10712 10709 ] final  -57.63 input   66.30 | X-H torsion
[ 10763 10752 10751 10750 ] final  167.59 input  -60.55 | X-H torsion
[ 11005 11000 10999 10996 ] final  -65.28 input  -57.11 | X-H torsion

> <Gold.Protein.ActiveResidues>
 VAL166  LYS551  ARG553  GLY616  TRP617  ASP618  TYR619  PRO620  LYS621  CYS622 
 ASP623  PHE694  ASN695  SER759  ASP760  ASP761  ALA762  ILE779  LEU786  VAL792 
 PHE793  MET794  SER795  GLU796  ALA797  LYS798  CYS799  TRP800  GLU811  SER814 

> <Gold.Protein.RotatedAtoms>
  152.2049  134.8555  160.0503 H   0  0  0  0  0  0  0  0  0  0  0  0  # atno 6907 bound_to 6896
  151.9394  133.3628  159.3968 H   0  0  0  0  0  0  0  0  0  0  0  0  # atno 6908 bound_to 6896
  150.6963  134.4379  159.5322 H   0  0  0  0  0  0  0  0  0  0  0  0  # atno 6909 bound_to 6896
  145.3611  140.9492  143.2500 H   0  0  0  0  0  0  0  0  0  0  0  0  # atno 7974 bound_to 7965
  154.6211  140.0616  156.9616 H   0  0  0  0  0  0  0  0  0  0  0  0  # atno 8008 bound_to 7997
  155.1817  140.3299  155.4355 H   0  0  0  0  0  0  0  0  0  0  0  0  # atno 8009 bound_to 7997
  156.2432  140.1896  156.6912 H   0  0  0  0  0  0  0  0  0  0  0  0  # atno 8010 bound_to 7997
  140.3510  144.2350  150.6146 H   0  0  0  0  0  0  0  0  0  0  0  0  # atno 10167 bound_to 10162
  156.1196  130.4167  150.0467 H   0  0  0  0  0  0  0  0  0  0  0  0  # atno 10718 bound_to 10713
  154.3560  135.2753  155.2346 H   0  0  0  0  0  0  0  0  0  0  0  0  # atno 10763 bound_to 10752
  154.4554  135.5920  153.6223 H   0  0  0  0  0  0  0  0  0  0  0  0  # atno 10764 bound_to 10752
  152.9846  135.6052  154.3776 H   0  0  0  0  0  0  0  0  0  0  0  0  # atno 10765 bound_to 10752
  141.1450  133.6679  156.5962 H   0  0  0  0  0  0  0  0  0  0  0  0  # atno 11005 bound_to 11000
  144.8646  139.5127  143.6796 LP  0  0  0  0  0  0  0  0  0  0  0  0  # atno 17320 bound_to 7965
  146.2927  139.7186  142.9149 LP  0  0  0  0  0  0  0  0  0  0  0  0  # atno 17321 bound_to 7965
  140.5219  143.2264  151.8376 LP  0  0  0  0  0  0  0  0  0  0  0  0  # atno 17342 bound_to 10162
  139.4826  144.4827  151.9287 LP  0  0  0  0  0  0  0  0  0  0  0  0  # atno 17343 bound_to 10162
  156.8409  130.9425  151.3632 LP  0  0  0  0  0  0  0  0  0  0  0  0  # atno 17370 bound_to 10713
  157.6379  130.8782  149.9393 LP  0  0  0  0  0  0  0  0  0  0  0  0  # atno 17371 bound_to 10713
  140.3724  134.7594  157.4607 LP  0  0  0  0  0  0  0  0  0  0  0  0  # atno 17394 bound_to 11000
  140.0700  134.5875  155.8652 LP  0  0  0  0  0  0  0  0  0  0  0  0  # atno 17395 bound_to 11000

$$$$
