AV-unprocessed.smi:1475|AV-procd|sdf|5976|dock2
  -GOLD-   22720 6 63D 1   1.00000     0.00000
 Structure written by MMmdl.
 50 51  0  0  0  0  0  0  0  0  2 V2000
  151.8049  139.2417  155.4491 C   0  0  0  0  0  0  0  0  0  0  0  0
  150.6646  140.2129  155.5290 C   0  0  0  0  0  0  0  0  0  0  0  0
  150.1282  140.8473  156.6840 C   0  0  0  0  0  0  0  0  0  0  0  0
  149.1127  141.6239  156.2022 C   0  0  0  0  0  0  0  0  0  0  0  0
  148.1707  142.5307  156.9234 C   0  0  0  0  0  0  0  0  0  0  0  0
  149.0786  141.4350  154.8318 N   0  0  0  0  0  0  0  0  0  0  0  0
  148.1961  142.0351  153.8439 C   0  0  0  0  0  0  0  0  0  0  0  0
  147.0940  141.0595  153.4293 C   0  0  0  0  0  0  0  0  0  0  0  0
  146.0626  140.9743  154.0956 O   0  0  0  0  0  0  0  0  0  0  0  0
  147.3209  140.3326  152.3239 N   0  0  0  0  0  0  0  0  0  0  0  0
  146.3819  139.3841  151.7371 C   0  0  0  0  0  0  0  0  0  0  0  0
  146.0908  138.2039  152.6859 C   0  0  0  0  0  0  0  0  0  0  0  0
  144.9457  137.3729  152.2343 N   0  3  1  0  0  0  0  0  0  0  0  0
  145.3635  135.9861  151.9016 C   0  0  0  0  0  0  0  0  0  0  0  0
  144.2008  135.1740  151.2989 C   0  0  1  0  0  0  0  0  0  0  0  0
  144.6364  133.7440  150.9486 C   0  0  0  0  0  0  0  0  0  0  0  0
  142.9984  135.1749  152.2573 C   0  0  0  0  0  0  0  0  0  0  0  0
  142.5924  136.6136  152.6165 C   0  0  1  0  0  0  0  0  0  0  0  0
  141.4051  136.6349  153.5896 C   0  0  0  0  0  0  0  0  0  0  0  0
  143.8010  137.3823  153.1845 C   0  0  0  0  0  0  0  0  0  0  0  0
  150.0325  140.5694  154.4227 N   0  0  0  0  0  0  0  0  0  0  0  0
  152.1986  139.0154  156.4401 H   0  0  0  0  0  0  0  0  0  0  0  0
  152.6230  139.6449  154.8518 H   0  0  0  0  0  0  0  0  0  0  0  0
  151.4899  138.3016  154.9953 H   0  0  0  0  0  0  0  0  0  0  0  0
  150.4420  140.7473  157.7126 H   0  0  0  0  0  0  0  0  0  0  0  0
  148.3935  142.5532  157.9902 H   0  0  0  0  0  0  0  0  0  0  0  0
  147.1404  142.1956  156.8036 H   0  0  0  0  0  0  0  0  0  0  0  0
  148.2438  143.5503  156.5453 H   0  0  0  0  0  0  0  0  0  0  0  0
  147.7607  142.9479  154.2539 H   0  0  0  0  0  0  0  0  0  0  0  0
  148.7802  142.3296  152.9713 H   0  0  0  0  0  0  0  0  0  0  0  0
  148.1944  140.4758  151.8364 H   0  0  0  0  0  0  0  0  0  0  0  0
  145.4711  139.9195  151.4681 H   0  0  0  0  0  0  0  0  0  0  0  0
  146.8125  139.0149  150.8059 H   0  0  0  0  0  0  0  0  0  0  0  0
  146.9875  137.5843  152.7335 H   0  0  0  0  0  0  0  0  0  0  0  0
  145.9038  138.5512  153.7029 H   0  0  0  0  0  0  0  0  0  0  0  0
  146.1857  136.0168  151.1852 H   0  0  0  0  0  0  0  0  0  0  0  0
  145.7447  135.4965  152.7995 H   0  0  0  0  0  0  0  0  0  0  0  0
  143.8947  135.6600  150.3710 H   0  0  0  0  0  0  0  0  0  0  0  0
  144.9500  133.1951  151.8371 H   0  0  0  0  0  0  0  0  0  0  0  0
  145.4716  133.7476  150.2477 H   0  0  0  0  0  0  0  0  0  0  0  0
  143.8212  133.1876  150.4850 H   0  0  0  0  0  0  0  0  0  0  0  0
  142.1568  134.6542  151.7988 H   0  0  0  0  0  0  0  0  0  0  0  0
  143.2479  134.6232  153.1651 H   0  0  0  0  0  0  0  0  0  0  0  0
  142.2742  137.1146  151.7009 H   0  0  0  0  0  0  0  0  0  0  0  0
  141.6542  136.1457  154.5317 H   0  0  0  0  0  0  0  0  0  0  0  0
  140.5416  136.1210  153.1663 H   0  0  0  0  0  0  0  0  0  0  0  0
  141.1004  137.6571  153.8158 H   0  0  0  0  0  0  0  0  0  0  0  0
  144.1144  136.9473  154.1351 H   0  0  0  0  0  0  0  0  0  0  0  0
  143.4943  138.4059  153.3947 H   0  0  0  0  0  0  0  0  0  0  0  0
  144.6171  137.7826  151.3716 H   0  0  0  0  0  0  0  0  0  0  0  0
  1  2  1  0  0  0  0
  1 22  1  0  0  0  0
  1 23  1  0  0  0  0
  1 24  1  0  0  0  0
  2 21  2  0  0  0  0
  2  3  1  0  0  0  0
  3  4  2  0  0  0  0
  3 25  1  0  0  0  0
  4  5  1  0  0  0  0
  4  6  1  0  0  0  0
  5 26  1  0  0  0  0
  5 27  1  0  0  0  0
  5 28  1  0  0  0  0
  6  7  1  0  0  0  0
  6 21  1  0  0  0  0
  7  8  1  0  0  0  0
  7 29  1  0  0  0  0
  7 30  1  0  0  0  0
  8  9  2  0  0  0  0
  8 10  1  0  0  0  0
 10 11  1  0  0  0  0
 10 31  1  0  0  0  0
 11 12  1  0  0  0  0
 11 32  1  0  0  0  0
 11 33  1  0  0  0  0
 12 13  1  0  0  0  0
 12 34  1  0  0  0  0
 12 35  1  0  0  0  0
 13 20  1  0  0  0  0
 13 14  1  0  0  0  0
 13 50  1  0  0  0  0
 14 15  1  0  0  0  0
 14 36  1  0  0  0  0
 14 37  1  0  0  0  0
 15 16  1  0  0  0  0
 15 17  1  0  0  0  0
 15 38  1  0  0  0  0
 16 39  1  0  0  0  0
 16 40  1  0  0  0  0
 16 41  1  0  0  0  0
 17 18  1  0  0  0  0
 17 42  1  0  0  0  0
 17 43  1  0  0  0  0
 18 19  1  0  0  0  0
 18 20  1  0  0  0  0
 18 44  1  0  0  0  0
 19 45  1  0  0  0  0
 19 46  1  0  0  0  0
 19 47  1  0  0  0  0
 20 48  1  0  0  0  0
 20 49  1  0  0  0  0
M  CHG  1  13   1
M  END
> <s_m_source_file>
AV-unprocessed.smi

> <i_m_source_file_index>
1475

> <i_lp_mmshare_version>
43012

> <i_f3d_flags>
0

> <s_epik_input>
W0NIM11jMVtjSF1jKFtDSDNdKW4objEpW0NIMl1DKD1PKVtOSF1bQ0gyXVtDSDJdTjJbQ0gyXVtDQEBIXShbQ0gzXSlbQ0gyXVtDQEBIXShbQ0gzXSlbQ0gyXTI=

> <s_epik_cmdline>
J2VwaWtfcHl0aG9uJywgJy1waCcsICc3LjAnLCAnLXRuJywgJzgnLCAnLW1hJywgJzIwMCcsICctbWV0YWxfYmluZGluZycsICctaW1hZScsICc8aW5maWxlLm1hZT4nLCAnLW9tYWUnLCAnPG91dGZpbGUubWFlPic=

> <r_lp_tautomer_probability>
1

> <r_epik_Ionization_Penalty>
0.00206431

> <r_epik_Ionization_Penalty_Charging>
0.00187095

> <r_epik_Ionization_Penalty_Neutral>
0.000193364

> <r_epik_State_Penalty>
-0

> <r_epik_Charging_Adjusted_Penalty>
0.00187095

> <i_epik_Tot_Q>
1

> <i_epik_Tot_abs_Q>
1

> <r_epik_Metal_State_Penalty>
-0

> <b_epik_Metal_Only>
0

> <s_lp_Force_Field>
OPLS_2005

> <r_lp_Energy>
13.7816

> <b_lp_Chiralities_Consistent>
1

> <s_lp_Variant>
AV-unprocessed.smi:1475-1

> <Gold.Version>
5.8.1

> <Gold.Id.Protein>
6NUR|6NUR_protein|mol2

> <Gold.PLP.Fitness>
46.7204

> <Gold.PLP.PLP>
-40.9128

> <Gold.PLP.part.hbond>
-2.8204

> <Gold.PLP.part.metal>
0.0000

> <Gold.PLP.part.buried>
-4.1102

> <Gold.PLP.part.nonpolar>
-35.9460

> <Gold.PLP.part.repulsive>
0.3389

> <Gold.PLP.ligand.clash>
0.0000

> <Gold.PLP.ligand.torsion>
1.3906

> <Gold.PLP.Chemscore.Hbond>
2.8500

> <Gold.PLP.Chemscore.CHOScore>
0.0000

> <Gold.PLP.Chemscore.Metal>
0.0000

> <Gold.Chemscore.Hbonds>
donor molecule, donor type, donor heavy atom, donor atom, acceptor molecule, acceptor atom, score
      L1  H    10    31       P1  7957  1.00
      L1  H    13    50       P1 10171  1.00
      P1  H  7989  7998       L1    21  0.57

> <Gold.PLP.Chemscore.Internal.Correction>
0.0388

> <Gold.Rescore>
     Score         DG    S(hbond)    S(metal)    S(lipo)     H(rot)  DE(clash)    DE(int)     intcor
     18.69     -20.36       2.84        0.00      82.10       1.64       0.19       1.48       ----

> <Gold.Chemscore.Fitness>
18.6905

> <Gold.Chemscore.DG>
-20.3605

> <Gold.Chemscore.ZeroCoef>
-5.4800

> <Gold.Chemscore.Hbond>
2.8362

> <Gold.Chemscore.Metal>
0.0000

> <Gold.Chemscore.Lipo>
82.0995

> <Gold.Chemscore.Internal_Hbond>
0.0000

> <Gold.Chemscore.DEClash>
0.1896

> <Gold.Chemscore.DEInternal>
1.4804

> <Gold.Chemscore.Rot>
1.6399

> <Gold.Chemscore.Internal.Correction>
   9.000000E+99

> <Gold.Chemscore.Hbonds>
donor molecule, donor type, donor heavy atom, donor atom, acceptor molecule, acceptor atom, score
      L1  H    10    31       P1  7957  0.98
      L1  H    13    50       P1 10171  1.00
      P1  H  7989  7998       L1    21  0.06

> <Gold.Chemscore.Hbond.Weighted>
-9.4730

> <Gold.Chemscore.Metal.Weighted>
-0.0000

> <Gold.Chemscore.Lipo.Weighted>
-9.6056

> <Gold.Chemscore.Internal_Hbond.Weighted>
0.0000

> <Gold.Chemscore.DEClash.Weighted>
0.1896

> <Gold.Chemscore.DEInternal.Weighted>
1.4804

> <Gold.Chemscore.Rot.Weighted>
4.1982

> <Gold.Chemscore.Internal.Correction.Weighted>
   9.000000E+99

> <Gold.Protein.RotatedTorsions>
[ 6907 6896 6895 6894 ] final   40.35 input  -60.11 | X-H torsion
[ 7974 7965 7964 7962 ] final   20.91 input  175.53 | X-H torsion
[ 8008 7997 7996 7995 ] final   77.76 input   59.86 | X-H torsion
[ 10167 10162 10161 10158 ] final  -30.09 input  -65.29 | X-H torsion
[ 10718 10713 10712 10709 ] final  -40.17 input   66.30 | X-H torsion
[ 10763 10752 10751 10750 ] final  -32.90 input  -60.55 | X-H torsion
[ 11005 11000 10999 10996 ] final   -6.36 input  -57.11 | X-H torsion

> <Gold.Protein.ActiveResidues>
 VAL166  LYS551  ARG553  GLY616  TRP617  ASP618  TYR619  PRO620  LYS621  CYS622 
 ASP623  PHE694  ASN695  SER759  ASP760  ASP761  ALA762  ILE779  LEU786  VAL792 
 PHE793  MET794  SER795  GLU796  ALA797  LYS798  CYS799  TRP800  GLU811  SER814 

> <Gold.Protein.RotatedAtoms>
  152.1814  134.8751  160.0525 H   0  0  0  0  0  0  0  0  0  0  0  0  # atno 6907 bound_to 6896
  151.9674  133.3710  159.4066 H   0  0  0  0  0  0  0  0  0  0  0  0  # atno 6908 bound_to 6896
  150.6918  134.4099  159.5201 H   0  0  0  0  0  0  0  0  0  0  0  0  # atno 6909 bound_to 6896
  146.2093  139.8102  142.8702 H   0  0  0  0  0  0  0  0  0  0  0  0  # atno 7974 bound_to 7965
  155.8462  140.3460  155.5663 H   0  0  0  0  0  0  0  0  0  0  0  0  # atno 8008 bound_to 7997
  155.8087  140.0896  157.1935 H   0  0  0  0  0  0  0  0  0  0  0  0  # atno 8009 bound_to 7997
  154.4006  140.1452  156.3348 H   0  0  0  0  0  0  0  0  0  0  0  0  # atno 8010 bound_to 7997
  140.7253  143.3876  151.1486 H   0  0  0  0  0  0  0  0  0  0  0  0  # atno 10167 bound_to 10162
  156.2843  130.4220  149.8305 H   0  0  0  0  0  0  0  0  0  0  0  0  # atno 10718 bound_to 10713
  153.8213  135.6874  153.4827 H   0  0  0  0  0  0  0  0  0  0  0  0  # atno 10763 bound_to 10752
  153.1567  135.4596  154.9713 H   0  0  0  0  0  0  0  0  0  0  0  0  # atno 10764 bound_to 10752
  154.7926  135.3307  154.7685 H   0  0  0  0  0  0  0  0  0  0  0  0  # atno 10765 bound_to 10752
  140.7011  133.8989  155.8684 H   0  0  0  0  0  0  0  0  0  0  0  0  # atno 11005 bound_to 11000
  145.3203  141.0242  143.3504 LP  0  0  0  0  0  0  0  0  0  0  0  0  # atno 17320 bound_to 7965
  144.8871  139.4824  143.6695 LP  0  0  0  0  0  0  0  0  0  0  0  0  # atno 17321 bound_to 7965
  139.7476  143.8828  152.3068 LP  0  0  0  0  0  0  0  0  0  0  0  0  # atno 17342 bound_to 10162
  139.8670  144.7088  150.9032 LP  0  0  0  0  0  0  0  0  0  0  0  0  # atno 17343 bound_to 10162
  156.5741  130.8437  151.3365 LP  0  0  0  0  0  0  0  0  0  0  0  0  # atno 17370 bound_to 10713
  157.7324  130.9714  150.1925 LP  0  0  0  0  0  0  0  0  0  0  0  0  # atno 17371 bound_to 10713
  141.0163  134.0951  157.4168 LP  0  0  0  0  0  0  0  0  0  0  0  0  # atno 17394 bound_to 11000
  139.8896  135.0106  156.6691 LP  0  0  0  0  0  0  0  0  0  0  0  0  # atno 17395 bound_to 11000

$$$$
