AV-unprocessed.smi:665|AV-procd|sdf|3253|dock8
  -GOLD-   22720 0203D 1   1.00000     0.00000
 Structure written by MMmdl.
 43 44  0  0  0  0  0  0  0  0  1 V2000
  146.1745  130.3111  151.8741 C   0  0  0  0  0  0  0  0  0  0  0  0
  145.6107  131.5749  151.3926 N   0  0  0  0  0  0  0  0  0  0  0  0
  144.4705  131.5080  150.5740 C   0  0  0  0  0  0  0  0  0  0  0  0
  143.8862  132.6129  150.0903 C   0  0  0  0  0  0  0  0  0  0  0  0
  144.4544  133.8950  150.4315 C   0  0  0  0  0  0  0  0  0  0  0  0
  145.5493  133.9834  151.2285 C   0  0  0  0  0  0  0  0  0  0  0  0
  146.1671  135.1881  151.6086 N   0  0  0  0  0  0  0  0  0  0  0  0
  145.6081  136.3575  151.9720 C   0  0  0  0  0  0  0  0  0  0  0  0
  144.4010  136.5837  152.0528 O   0  0  0  0  0  0  0  0  0  0  0  0
  146.5517  137.2640  152.2659 N   0  0  0  0  0  0  0  0  0  0  0  0
  146.3150  138.6264  152.7365 C   0  0  0  0  0  0  0  0  0  0  0  0
  147.0952  139.6270  151.8674 C   0  0  0  0  0  0  0  0  0  0  0  0
  146.9308  141.0677  152.3853 C   0  0  0  0  0  0  0  0  0  0  0  0
  147.3211  141.2366  153.8752 C   0  0  0  0  0  0  0  0  0  0  0  0
  148.8481  141.1035  154.0627 C   0  0  0  0  0  0  0  0  0  0  0  0
  146.9079  142.6460  154.3420 C   0  0  0  0  0  0  0  0  0  0  0  0
  146.5670  140.1860  154.7279 C   0  0  0  0  0  0  0  0  0  0  0  0
  146.7322  138.7454  154.2118 C   0  0  0  0  0  0  0  0  0  0  0  0
  146.1932  132.7597  151.7451 C   0  0  0  0  0  0  0  0  0  0  0  0
  147.1994  132.7881  152.4581 O   0  0  0  0  0  0  0  0  0  0  0  0
  145.6191  129.4407  151.5234 H   0  0  0  0  0  0  0  0  0  0  0  0
  146.1694  130.2813  152.9646 H   0  0  0  0  0  0  0  0  0  0  0  0
  147.2053  130.1966  151.5355 H   0  0  0  0  0  0  0  0  0  0  0  0
  144.1042  130.5131  150.3664 H   0  0  0  0  0  0  0  0  0  0  0  0
  143.0094  132.5462  149.4633 H   0  0  0  0  0  0  0  0  0  0  0  0
  143.9790  134.7683  150.0163 H   0  0  0  0  0  0  0  0  0  0  0  0
  147.1748  135.1430  151.6534 H   0  0  0  0  0  0  0  0  0  0  0  0
  147.5170  136.9842  152.1710 H   0  0  0  0  0  0  0  0  0  0  0  0
  145.2541  138.8739  152.6665 H   0  0  0  0  0  0  0  0  0  0  0  0
  148.1518  139.3582  151.8423 H   0  0  0  0  0  0  0  0  0  0  0  0
  146.7453  139.5712  150.8358 H   0  0  0  0  0  0  0  0  0  0  0  0
  147.5143  141.7480  151.7639 H   0  0  0  0  0  0  0  0  0  0  0  0
  145.8886  141.3608  152.2500 H   0  0  0  0  0  0  0  0  0  0  0  0
  149.1296  141.2361  155.1080 H   0  0  0  0  0  0  0  0  0  0  0  0
  149.3834  141.8570  153.4840 H   0  0  0  0  0  0  0  0  0  0  0  0
  149.2246  140.1304  153.7496 H   0  0  0  0  0  0  0  0  0  0  0  0
  147.1586  142.8066  155.3913 H   0  0  0  0  0  0  0  0  0  0  0  0
  145.8340  142.8040  154.2356 H   0  0  0  0  0  0  0  0  0  0  0  0
  147.4105  143.4205  153.7616 H   0  0  0  0  0  0  0  0  0  0  0  0
  146.8924  140.2410  155.7675 H   0  0  0  0  0  0  0  0  0  0  0  0
  145.5023  140.4245  154.7358 H   0  0  0  0  0  0  0  0  0  0  0  0
  146.1290  138.0713  154.8211 H   0  0  0  0  0  0  0  0  0  0  0  0
  147.7659  138.4216  154.3364 H   0  0  0  0  0  0  0  0  0  0  0  0
  1  2  1  0  0  0  0
  1 21  1  0  0  0  0
  1 22  1  0  0  0  0
  1 23  1  0  0  0  0
  2 19  1  0  0  0  0
  2  3  1  0  0  0  0
  3  4  2  0  0  0  0
  3 24  1  0  0  0  0
  4  5  1  0  0  0  0
  4 25  1  0  0  0  0
  5  6  2  0  0  0  0
  5 26  1  0  0  0  0
  6  7  1  0  0  0  0
  6 19  1  0  0  0  0
  7  8  1  0  0  0  0
  7 27  1  0  0  0  0
  8  9  2  0  0  0  0
  8 10  1  0  0  0  0
 10 11  1  0  0  0  0
 10 28  1  0  0  0  0
 11 18  1  0  0  0  0
 11 12  1  0  0  0  0
 11 29  1  0  0  0  0
 12 13  1  0  0  0  0
 12 30  1  0  0  0  0
 12 31  1  0  0  0  0
 13 14  1  0  0  0  0
 13 32  1  0  0  0  0
 13 33  1  0  0  0  0
 14 15  1  0  0  0  0
 14 16  1  0  0  0  0
 14 17  1  0  0  0  0
 15 34  1  0  0  0  0
 15 35  1  0  0  0  0
 15 36  1  0  0  0  0
 16 37  1  0  0  0  0
 16 38  1  0  0  0  0
 16 39  1  0  0  0  0
 17 18  1  0  0  0  0
 17 40  1  0  0  0  0
 17 41  1  0  0  0  0
 18 42  1  0  0  0  0
 18 43  1  0  0  0  0
 19 20  2  0  0  0  0
M  END
> <s_m_source_file>
AV-unprocessed.smi

> <i_m_source_file_index>
665

> <i_lp_mmshare_version>
43012

> <i_f3d_flags>
0

> <s_epik_input>
W0NIM11uMVtjSF1bY0hdW2NIXWMoYzE9TylbTkhdQyg9TylbTkhdW0NIXShbQ0gyXVtDSDJdMilbQ0gyXVtDSDJdQzIoW0NIM10pW0NIM10=

> <s_epik_cmdline>
J2VwaWtfcHl0aG9uJywgJy1waCcsICc3LjAnLCAnLXRuJywgJzgnLCAnLW1hJywgJzIwMCcsICctbWV0YWxfYmluZGluZycsICctaW1hZScsICc8aW5maWxlLm1hZT4nLCAnLW9tYWUnLCAnPG91dGZpbGUubWFlPic=

> <r_lp_tautomer_probability>
1

> <r_epik_Ionization_Penalty>
2.65253e-05

> <r_epik_Ionization_Penalty_Charging>
5.1221e-06

> <r_epik_Ionization_Penalty_Neutral>
2.14032e-05

> <r_epik_State_Penalty>
-0

> <r_epik_Charging_Adjusted_Penalty>
5.1221e-06

> <i_epik_Tot_Q>
0

> <i_epik_Tot_abs_Q>
0

> <r_epik_Metal_State_Penalty>
-0

> <b_epik_Metal_Only>
0

> <s_lp_Force_Field>
OPLS_2005

> <r_lp_Energy>
25.5106

> <b_lp_Chiralities_Consistent>
1

> <s_lp_Variant>
AV-unprocessed.smi:665-1

> <Gold.Version>
5.8.1

> <Gold.Id.Protein>
6NUR|6NUR_protein|mol2

> <Gold.PLP.Fitness>
40.4098

> <Gold.PLP.PLP>
-35.4441

> <Gold.PLP.part.hbond>
-2.0000

> <Gold.PLP.part.metal>
0.0000

> <Gold.PLP.part.buried>
0.7288

> <Gold.PLP.part.nonpolar>
-34.1718

> <Gold.PLP.part.repulsive>
0.8490

> <Gold.PLP.ligand.clash>
0.0000

> <Gold.PLP.ligand.torsion>
0.3990

> <Gold.PLP.Chemscore.Hbond>
1.9204

> <Gold.PLP.Chemscore.CHOScore>
0.0000

> <Gold.PLP.Chemscore.Metal>
0.0000

> <Gold.Chemscore.Hbonds>
donor molecule, donor type, donor heavy atom, donor atom, acceptor molecule, acceptor atom, score
      L1  H     7    27       P1  7948  0.91
      L1  H    10    28       P1  7948  1.00

> <Gold.PLP.Chemscore.Internal.Correction>
0.0024

> <Gold.Rescore>
     Score         DG    S(hbond)    S(metal)    S(lipo)     H(rot)  DE(clash)    DE(int)     intcor
     18.24     -19.07       1.83        0.00      85.85       1.00       0.30       0.53       ----

> <Gold.Chemscore.Fitness>
18.2429

> <Gold.Chemscore.DG>
-19.0749

> <Gold.Chemscore.ZeroCoef>
-5.4800

> <Gold.Chemscore.Hbond>
1.8295

> <Gold.Chemscore.Metal>
0.0000

> <Gold.Chemscore.Lipo>
85.8488

> <Gold.Chemscore.Internal_Hbond>
0.0000

> <Gold.Chemscore.DEClash>
0.3026

> <Gold.Chemscore.DEInternal>
0.5294

> <Gold.Chemscore.Rot>
1.0000

> <Gold.Chemscore.Internal.Correction>
   9.000000E+99

> <Gold.Chemscore.Hbonds>
donor molecule, donor type, donor heavy atom, donor atom, acceptor molecule, acceptor atom, score
      L1  H     7    27       P1  7948  0.76
      L1  H    10    28       P1  7948  1.00

> <Gold.Chemscore.Hbond.Weighted>
-6.1106

> <Gold.Chemscore.Metal.Weighted>
-0.0000

> <Gold.Chemscore.Lipo.Weighted>
-10.0443

> <Gold.Chemscore.Internal_Hbond.Weighted>
0.0000

> <Gold.Chemscore.DEClash.Weighted>
0.3026

> <Gold.Chemscore.DEInternal.Weighted>
0.5294

> <Gold.Chemscore.Rot.Weighted>
2.5600

> <Gold.Chemscore.Internal.Correction.Weighted>
   9.000000E+99

> <Gold.Protein.RotatedTorsions>
[ 6907 6896 6895 6894 ] final   44.74 input  -60.11 | X-H torsion
[ 7974 7965 7964 7962 ] final -158.10 input  175.53 | X-H torsion
[ 8008 7997 7996 7995 ] final  -36.38 input   59.86 | X-H torsion
[ 10167 10162 10161 10158 ] final  -21.21 input  -65.29 | X-H torsion
[ 10718 10713 10712 10709 ] final  -12.49 input   66.30 | X-H torsion
[ 10763 10752 10751 10750 ] final  -48.86 input  -60.55 | X-H torsion
[ 11005 11000 10999 10996 ] final -179.15 input  -57.11 | X-H torsion

> <Gold.Protein.ActiveResidues>
 VAL166  LYS551  ARG553  GLY616  TRP617  ASP618  TYR619  PRO620  LYS621  CYS622 
 ASP623  PHE694  ASN695  SER759  ASP760  ASP761  ALA762  ILE779  LEU786  VAL792 
 PHE793  MET794  SER795  GLU796  ALA797  LYS798  CYS799  TRP800  GLU811  SER814 

> <Gold.Protein.RotatedAtoms>
  152.2362  134.8274  160.0466 H   0  0  0  0  0  0  0  0  0  0  0  0  # atno 6907 bound_to 6896
  151.9005  133.3532  159.3837 H   0  0  0  0  0  0  0  0  0  0  0  0  # atno 6908 bound_to 6896
  150.7040  134.4759  159.5491 H   0  0  0  0  0  0  0  0  0  0  0  0  # atno 6909 bound_to 6896
  144.7520  140.3875  143.6041 H   0  0  0  0  0  0  0  0  0  0  0  0  # atno 7974 bound_to 7965
  154.4074  140.1632  156.2365 H   0  0  0  0  0  0  0  0  0  0  0  0  # atno 8008 bound_to 7997
  155.9237  140.3419  155.6171 H   0  0  0  0  0  0  0  0  0  0  0  0  # atno 8009 bound_to 7997
  155.7190  140.0766  157.2329 H   0  0  0  0  0  0  0  0  0  0  0  0  # atno 8010 bound_to 7997
  140.7281  143.4650  151.0327 H   0  0  0  0  0  0  0  0  0  0  0  0  # atno 10167 bound_to 10162
  156.6438  130.4935  149.6085 H   0  0  0  0  0  0  0  0  0  0  0  0  # atno 10718 bound_to 10713
  154.0846  135.6586  153.4843 H   0  0  0  0  0  0  0  0  0  0  0  0  # atno 10763 bound_to 10752
  153.0343  135.5188  154.7440 H   0  0  0  0  0  0  0  0  0  0  0  0  # atno 10764 bound_to 10752
  154.6546  135.3006  154.9913 H   0  0  0  0  0  0  0  0  0  0  0  0  # atno 10765 bound_to 10752
  140.4218  134.6598  157.4668 H   0  0  0  0  0  0  0  0  0  0  0  0  # atno 11005 bound_to 11000
  145.6912  139.1639  143.2646 LP  0  0  0  0  0  0  0  0  0  0  0  0  # atno 17320 bound_to 7965
  146.1482  140.6963  142.9335 LP  0  0  0  0  0  0  0  0  0  0  0  0  # atno 17321 bound_to 7965
  139.8337  143.7656  152.3180 LP  0  0  0  0  0  0  0  0  0  0  0  0  # atno 17342 bound_to 10162
  139.7781  144.7454  151.0128 LP  0  0  0  0  0  0  0  0  0  0  0  0  # atno 17343 bound_to 10162
  156.2137  130.6695  151.1297 LP  0  0  0  0  0  0  0  0  0  0  0  0  # atno 17370 bound_to 10713
  157.7162  131.0708  150.6316 LP  0  0  0  0  0  0  0  0  0  0  0  0  # atno 17371 bound_to 10713
  140.0195  134.6569  155.9261 LP  0  0  0  0  0  0  0  0  0  0  0  0  # atno 17394 bound_to 11000
  141.1781  133.6542  156.4908 LP  0  0  0  0  0  0  0  0  0  0  0  0  # atno 17395 bound_to 11000

$$$$
