AV-unprocessed.smi:3111|AV-procd|sdf|11834|dock5
  -GOLD-   2272017213D 1   1.00000     0.00000
 Structure written by MMmdl.
 30 30  0  0  0  0  0  0  0  0  2 V2000
  147.7427  128.1481  150.3939 C   0  0  0  0  0  0  0  0  0  0  0  0
  148.1611  129.2475  151.2498 N   0  0  0  0  0  0  0  0  0  0  0  0
  148.5597  129.1035  152.5212 C   0  0  0  0  0  0  0  0  0  0  0  0
  148.6198  128.0113  153.0882 O   0  0  0  0  0  0  0  0  0  0  0  0
  148.9708  130.3893  153.2498 C   0  0  0  0  0  0  0  0  0  0  0  0
  148.4013  131.5910  152.6443 N   0  0  0  0  0  0  0  0  0  0  0  0
  147.1100  131.9528  152.7134 C   0  0  0  0  0  0  0  0  0  0  0  0
  146.2511  131.2767  153.2806 O   0  0  0  0  0  0  0  0  0  0  0  0
  146.7329  133.2762  152.0302 C   0  0  2  0  0  0  0  0  0  0  0  0
  146.3411  134.3714  153.0403 C   0  0  0  0  0  0  0  0  0  0  0  0
  145.6810  133.0614  151.0226 N   0  0  0  0  0  0  0  0  0  0  0  0
  145.7681  132.2844  149.8947 C   0  0  0  0  0  0  0  0  0  0  0  0
  144.5548  132.3708  149.2619 C   0  0  0  0  0  0  0  0  0  0  0  0
  143.7750  133.1931  150.0295 N   0  3  0  0  0  0  0  0  0  0  0  0
  144.4590  133.6108  151.0993 C   0  0  0  0  0  0  0  0  0  0  0  0
  147.4142  128.5324  149.4279 H   0  0  0  0  0  0  0  0  0  0  0  0
  146.9133  127.5986  150.8414 H   0  0  0  0  0  0  0  0  0  0  0  0
  148.5680  127.4557  150.2229 H   0  0  0  0  0  0  0  0  0  0  0  0
  148.1435  130.1756  150.8521 H   0  0  0  0  0  0  0  0  0  0  0  0
  148.6236  130.3278  154.2812 H   0  0  0  0  0  0  0  0  0  0  0  0
  150.0590  130.4671  153.2895 H   0  0  0  0  0  0  0  0  0  0  0  0
  149.0437  132.2048  152.1648 H   0  0  0  0  0  0  0  0  0  0  0  0
  147.6132  133.6319  151.4917 H   0  0  0  0  0  0  0  0  0  0  0  0
  147.1419  134.5459  153.7600 H   0  0  0  0  0  0  0  0  0  0  0  0
  145.4439  134.1101  153.6027 H   0  0  0  0  0  0  0  0  0  0  0  0
  146.1481  135.3170  152.5328 H   0  0  0  0  0  0  0  0  0  0  0  0
  146.6642  131.7414  149.6312 H   0  0  0  0  0  0  0  0  0  0  0  0
  144.1972  131.9195  148.3477 H   0  0  0  0  0  0  0  0  0  0  0  0
  144.0949  134.2618  151.8746 H   0  0  0  0  0  0  0  0  0  0  0  0
  142.8177  133.4487  149.8214 H   0  0  0  0  0  0  0  0  0  0  0  0
  1  2  1  0  0  0  0
  1 16  1  0  0  0  0
  1 17  1  0  0  0  0
  1 18  1  0  0  0  0
  2  3  1  0  0  0  0
  2 19  1  0  0  0  0
  3  4  2  0  0  0  0
  3  5  1  0  0  0  0
  5  6  1  0  0  0  0
  5 20  1  0  0  0  0
  5 21  1  0  0  0  0
  6  7  1  0  0  0  0
  6 22  1  0  0  0  0
  7  8  2  0  0  0  0
  7  9  1  0  0  0  0
  9 10  1  0  0  0  0
  9 11  1  0  0  0  0
  9 23  1  0  0  0  0
 10 24  1  0  0  0  0
 10 25  1  0  0  0  0
 10 26  1  0  0  0  0
 11 15  1  0  0  0  0
 11 12  1  0  0  0  0
 12 13  2  0  0  0  0
 12 27  1  0  0  0  0
 13 14  1  0  0  0  0
 13 28  1  0  0  0  0
 14 15  2  0  0  0  0
 14 30  1  0  0  0  0
 15 29  1  0  0  0  0
M  CHG  1  14   1
M  END
> <s_m_source_file>
AV-unprocessed.smi

> <i_m_source_file_index>
3111

> <i_lp_mmshare_version>
43012

> <i_f3d_flags>
0

> <s_epik_input>
W0NIM11bTkhdQyg9TylbQ0gyXVtOSF1DKD1PKVtDQEhdKFtDSDNdKW4xW2NIXVtjSF1uW2NIXTE=

> <s_epik_cmdline>
J2VwaWtfcHl0aG9uJywgJy1waCcsICc3LjAnLCAnLXRuJywgJzgnLCAnLW1hJywgJzIwMCcsICctbWV0YWxfYmluZGluZycsICctaW1hZScsICc8aW5maWxlLm1hZT4nLCAnLW9tYWUnLCAnPG91dGZpbGUubWFlPic=

> <r_lp_tautomer_probability>
1

> <r_epik_Ionization_Penalty>
0.581414

> <r_epik_Ionization_Penalty_Charging>
0

> <r_epik_Ionization_Penalty_Neutral>
0.581414

> <r_epik_State_Penalty>
0.594207

> <r_epik_Charging_Adjusted_Penalty>
0.594207

> <i_epik_Tot_Q>
1

> <i_epik_Tot_abs_Q>
1

> <r_epik_Metal_State_Penalty>
0.784638

> <b_epik_Metal_Only>
0

> <s_lp_Force_Field>
OPLS_2005

> <r_lp_Energy>
6.41512

> <b_lp_Chiralities_Consistent>
1

> <s_lp_Variant>
AV-unprocessed.smi:3111-3

> <Gold.Version>
5.8.1

> <Gold.Id.Protein>
6NUR|6NUR_protein|mol2

> <Gold.PLP.Fitness>
37.9025

> <Gold.PLP.PLP>
-27.8325

> <Gold.PLP.part.hbond>
-2.9687

> <Gold.PLP.part.metal>
0.0000

> <Gold.PLP.part.buried>
-4.5667

> <Gold.PLP.part.nonpolar>
-20.6676

> <Gold.PLP.part.repulsive>
0.3590

> <Gold.PLP.ligand.clash>
0.0000

> <Gold.PLP.ligand.torsion>
0.5389

> <Gold.PLP.Chemscore.Hbond>
2.7899

> <Gold.PLP.Chemscore.CHOScore>
0.8982

> <Gold.PLP.Chemscore.Metal>
0.0000

> <Gold.Chemscore.Hbonds>
donor molecule, donor type, donor heavy atom, donor atom, acceptor molecule, acceptor atom, score
      L1  H     2    19       P1 10747  0.10
      L1  H    14    30       P1 10186  1.79
      L1  C    12    27       P1 10747  0.98

> <Gold.PLP.Chemscore.Internal.Correction>
0.0835

> <Gold.Rescore>
     Score         DG    S(hbond)    S(metal)    S(lipo)     H(rot)  DE(clash)    DE(int)     intcor
     10.81     -11.82       1.94        0.00      49.77       2.33       0.49       0.52       ----

> <Gold.Chemscore.Fitness>
10.8071

> <Gold.Chemscore.DG>
-11.8205

> <Gold.Chemscore.ZeroCoef>
-5.4800

> <Gold.Chemscore.Hbond>
1.9416

> <Gold.Chemscore.Metal>
0.0000

> <Gold.Chemscore.Lipo>
49.7697

> <Gold.Chemscore.Internal_Hbond>
0.0000

> <Gold.Chemscore.DEClash>
0.4920

> <Gold.Chemscore.DEInternal>
0.5214

> <Gold.Chemscore.Rot>
2.3311

> <Gold.Chemscore.Internal.Correction>
   9.000000E+99

> <Gold.Chemscore.Hbonds>
donor molecule, donor type, donor heavy atom, donor atom, acceptor molecule, acceptor atom, score
      L1  H     2    19       P1 10747  0.11
      L1  H    14    30       P1 10186  0.87

> <Gold.Chemscore.Hbond.Weighted>
-6.4851

> <Gold.Chemscore.Metal.Weighted>
-0.0000

> <Gold.Chemscore.Lipo.Weighted>
-5.8231

> <Gold.Chemscore.Internal_Hbond.Weighted>
0.0000

> <Gold.Chemscore.DEClash.Weighted>
0.4920

> <Gold.Chemscore.DEInternal.Weighted>
0.5214

> <Gold.Chemscore.Rot.Weighted>
5.9676

> <Gold.Chemscore.Internal.Correction.Weighted>
   9.000000E+99

> <Gold.Protein.RotatedTorsions>
[ 6907 6896 6895 6894 ] final  -51.47 input  -60.11 | X-H torsion
[ 7974 7965 7964 7962 ] final    5.22 input  175.53 | X-H torsion
[ 8008 7997 7996 7995 ] final   -0.61 input   59.86 | X-H torsion
[ 10167 10162 10161 10158 ] final  -67.32 input  -65.29 | X-H torsion
[ 10718 10713 10712 10709 ] final -118.68 input   66.30 | X-H torsion
[ 10763 10752 10751 10750 ] final  139.34 input  -60.55 | X-H torsion
[ 11005 11000 10999 10996 ] final  149.12 input  -57.11 | X-H torsion

> <Gold.Protein.ActiveResidues>
 VAL166  LYS551  ARG553  GLY616  TRP617  ASP618  TYR619  PRO620  LYS621  CYS622 
 ASP623  PHE694  ASN695  SER759  ASP760  ASP761  ALA762  ILE779  LEU786  VAL792 
 PHE793  MET794  SER795  GLU796  ALA797  LYS798  CYS799  TRP800  GLU811  SER814 

> <Gold.Protein.RotatedAtoms>
  150.8608  134.7959  159.7080 H   0  0  0  0  0  0  0  0  0  0  0  0  # atno 6907 bound_to 6896
  152.4645  134.5103  159.9761 H   0  0  0  0  0  0  0  0  0  0  0  0  # atno 6908 bound_to 6896
  151.5207  133.3429  159.2936 H   0  0  0  0  0  0  0  0  0  0  0  0  # atno 6909 bound_to 6896
  146.2441  140.0416  142.8381 H   0  0  0  0  0  0  0  0  0  0  0  0  # atno 7974 bound_to 7965
  154.6561  140.2580  155.7160 H   0  0  0  0  0  0  0  0  0  0  0  0  # atno 8008 bound_to 7997
  156.2597  140.2858  156.0935 H   0  0  0  0  0  0  0  0  0  0  0  0  # atno 8009 bound_to 7997
  155.1379  140.0380  157.2781 H   0  0  0  0  0  0  0  0  0  0  0  0  # atno 8010 bound_to 7997
  140.5591  143.2312  151.6762 H   0  0  0  0  0  0  0  0  0  0  0  0  # atno 10167 bound_to 10162
  156.1125  130.6259  150.9322 H   0  0  0  0  0  0  0  0  0  0  0  0  # atno 10718 bound_to 10713
  153.9046  135.3018  155.3448 H   0  0  0  0  0  0  0  0  0  0  0  0  # atno 10763 bound_to 10752
  154.7653  135.4913  153.9546 H   0  0  0  0  0  0  0  0  0  0  0  0  # atno 10764 bound_to 10752
  153.1226  135.6786  153.9411 H   0  0  0  0  0  0  0  0  0  0  0  0  # atno 10765 bound_to 10752
  140.1018  134.8979  157.1806 H   0  0  0  0  0  0  0  0  0  0  0  0  # atno 11005 bound_to 11000
  145.1064  140.9378  143.4682 LP  0  0  0  0  0  0  0  0  0  0  0  0  # atno 17320 bound_to 7965
  145.0621  139.3097  143.5875 LP  0  0  0  0  0  0  0  0  0  0  0  0  # atno 17321 bound_to 7965
  139.5062  144.3691  152.0488 LP  0  0  0  0  0  0  0  0  0  0  0  0  # atno 17342 bound_to 10162
  140.2816  144.3854  150.6117 LP  0  0  0  0  0  0  0  0  0  0  0  0  # atno 17343 bound_to 10162
  157.6306  131.0921  150.8448 LP  0  0  0  0  0  0  0  0  0  0  0  0  # atno 17370 bound_to 10713
  156.8556  130.5095  149.5308 LP  0  0  0  0  0  0  0  0  0  0  0  0  # atno 17371 bound_to 10713
  140.3210  134.2916  155.7246 LP  0  0  0  0  0  0  0  0  0  0  0  0  # atno 17394 bound_to 11000
  141.2107  133.7710  156.9911 LP  0  0  0  0  0  0  0  0  0  0  0  0  # atno 17395 bound_to 11000

$$$$
