AV-unprocessed.smi:2324|AV-procd|sdf|9291|dock7
  -GOLD-   2272012513D 1   1.00000     0.00000
 Structure written by MMmdl.
 37 39  0  0  0  0  0  0  0  0  1 V2000
  145.4232  137.9324  153.8845 O   0  0  0  0  0  0  0  0  0  0  0  0
  146.3917  137.5258  153.2447 C   0  0  0  0  0  0  0  0  0  0  0  0
  146.2947  136.4309  152.4609 N   0  0  0  0  0  0  0  0  0  0  0  0
  145.2018  135.5578  152.1854 C   0  0  0  0  0  0  0  0  0  0  0  0
  145.4031  134.6877  151.0925 C   0  0  0  0  0  0  0  0  0  0  0  0
  144.3761  133.7912  150.7514 C   0  0  0  0  0  0  0  0  0  0  0  0
  143.2080  133.8245  151.5315 C   0  0  0  0  0  0  0  0  0  0  0  0
  143.0555  134.6735  152.5703 N   0  0  0  0  0  0  0  0  0  0  0  0
  144.0379  135.5231  152.8876 N   0  0  0  0  0  0  0  0  0  0  0  0
  147.5911  138.1297  153.2826 N   0  0  0  0  0  0  0  0  0  0  0  0
  147.9158  139.3199  154.0622 C   0  0  2  0  0  0  0  0  0  0  0  0
  147.3332  140.5645  153.3799 C   0  0  0  0  0  0  0  0  0  0  0  0
  147.7602  141.8393  154.1231 C   0  0  0  0  0  0  0  0  0  0  0  0
  149.1820  141.9150  154.2084 O   0  0  0  0  0  0  0  0  0  0  0  0
  149.8139  140.8201  154.8745 C   0  0  1  0  0  0  0  0  0  0  0  0
  149.5421  140.8316  156.3729 C   0  0  0  0  0  0  0  0  0  0  0  0
  150.2180  141.8414  157.2703 C   0  0  0  0  0  0  0  0  0  0  0  0
  150.6024  140.3833  157.3511 C   0  0  0  0  0  0  0  0  0  0  0  0
  149.4392  139.4868  154.1983 C   0  0  0  0  0  0  0  0  0  0  0  0
  147.1506  136.1864  151.9844 H   0  0  0  0  0  0  0  0  0  0  0  0
  146.3232  134.7037  150.5263 H   0  0  0  0  0  0  0  0  0  0  0  0
  144.4801  133.1044  149.9246 H   0  0  0  0  0  0  0  0  0  0  0  0
  142.3830  133.1600  151.3214 H   0  0  0  0  0  0  0  0  0  0  0  0
  148.3363  137.7312  152.7288 H   0  0  0  0  0  0  0  0  0  0  0  0
  147.4675  139.2276  155.0529 H   0  0  0  0  0  0  0  0  0  0  0  0
  147.6791  140.6189  152.3466 H   0  0  0  0  0  0  0  0  0  0  0  0
  146.2450  140.5019  153.3419 H   0  0  0  0  0  0  0  0  0  0  0  0
  147.3996  142.7175  153.5876 H   0  0  0  0  0  0  0  0  0  0  0  0
  147.3121  141.8786  155.1160 H   0  0  0  0  0  0  0  0  0  0  0  0
  150.8866  140.9663  154.7427 H   0  0  0  0  0  0  0  0  0  0  0  0
  148.5229  140.5691  156.6476 H   0  0  0  0  0  0  0  0  0  0  0  0
  150.9333  142.5247  156.8170 H   0  0  0  0  0  0  0  0  0  0  0  0
  149.6332  142.2547  158.0896 H   0  0  0  0  0  0  0  0  0  0  0  0
  150.2731  139.8226  158.2233 H   0  0  0  0  0  0  0  0  0  0  0  0
  151.5728  140.0960  156.9514 H   0  0  0  0  0  0  0  0  0  0  0  0
  149.8706  138.6522  154.7523 H   0  0  0  0  0  0  0  0  0  0  0  0
  149.8918  139.4607  153.2058 H   0  0  0  0  0  0  0  0  0  0  0  0
  1  2  2  0  0  0  0
  2  3  1  0  0  0  0
  2 10  1  0  0  0  0
  3  4  1  0  0  0  0
  3 20  1  0  0  0  0
  4  9  1  0  0  0  0
  4  5  2  0  0  0  0
  5  6  1  0  0  0  0
  5 21  1  0  0  0  0
  6  7  2  0  0  0  0
  6 22  1  0  0  0  0
  7  8  1  0  0  0  0
  7 23  1  0  0  0  0
  8  9  2  0  0  0  0
 10 11  1  0  0  0  0
 10 24  1  0  0  0  0
 11 19  1  0  0  0  0
 11 12  1  0  0  0  0
 11 25  1  0  0  0  0
 12 13  1  0  0  0  0
 12 26  1  0  0  0  0
 12 27  1  0  0  0  0
 13 14  1  0  0  0  0
 13 28  1  0  0  0  0
 13 29  1  0  0  0  0
 14 15  1  0  0  0  0
 15 16  1  0  0  0  0
 15 19  1  0  0  0  0
 15 30  1  0  0  0  0
 16 18  1  0  0  0  0
 16 17  1  0  0  0  0
 16 31  1  0  0  0  0
 17 18  1  0  0  0  0
 17 32  1  0  0  0  0
 17 33  1  0  0  0  0
 18 34  1  0  0  0  0
 18 35  1  0  0  0  0
 19 36  1  0  0  0  0
 19 37  1  0  0  0  0
M  END
> <s_m_source_file>
AV-unprocessed.smi

> <i_m_source_file_index>
2324

> <i_lp_mmshare_version>
43012

> <i_f3d_flags>
0

> <s_epik_input>
bjFuW2NIXVtjSF1bY0hdYzFbTkhdQyg9TylbTkhdW0NAQEhdMltDSDJdW0NIMl1PW0NASF0oW0NIMl0yKVtDSF0zW0NIMl1bQ0gyXTM=

> <s_epik_cmdline>
J2VwaWtfcHl0aG9uJywgJy1waCcsICc3LjAnLCAnLXRuJywgJzgnLCAnLW1hJywgJzIwMCcsICctbWV0YWxfYmluZGluZycsICctaW1hZScsICc8aW5maWxlLm1hZT4nLCAnLW9tYWUnLCAnPG91dGZpbGUubWFlPic=

> <r_lp_tautomer_probability>
1

> <r_epik_Ionization_Penalty>
0.00521499

> <r_epik_Ionization_Penalty_Charging>
0

> <r_epik_Ionization_Penalty_Neutral>
0.00521499

> <r_epik_State_Penalty>
-0

> <r_epik_Charging_Adjusted_Penalty>
0

> <i_epik_Tot_Q>
0

> <i_epik_Tot_abs_Q>
0

> <r_epik_Metal_State_Penalty>
-0

> <b_epik_Metal_Only>
0

> <s_lp_Force_Field>
OPLS_2005

> <r_lp_Energy>
28.1305

> <b_lp_Chiralities_Consistent>
1

> <s_lp_Variant>
AV-unprocessed.smi:2324-1

> <Gold.Version>
5.8.1

> <Gold.Id.Protein>
6NUR|6NUR_protein|mol2

> <Gold.PLP.Fitness>
36.0220

> <Gold.PLP.PLP>
-27.9594

> <Gold.PLP.part.hbond>
-3.5456

> <Gold.PLP.part.metal>
0.0000

> <Gold.PLP.part.buried>
-0.0364

> <Gold.PLP.part.nonpolar>
-24.5994

> <Gold.PLP.part.repulsive>
0.6831

> <Gold.PLP.ligand.clash>
0.0000

> <Gold.PLP.ligand.torsion>
0.8109

> <Gold.PLP.Chemscore.Hbond>
2.3760

> <Gold.PLP.Chemscore.CHOScore>
0.4928

> <Gold.PLP.Chemscore.Metal>
0.0000

> <Gold.Chemscore.Hbonds>
donor molecule, donor type, donor heavy atom, donor atom, acceptor molecule, acceptor atom, score
      L1  H     3    20       P1  7948  1.00
      L1  H    10    24       P1  7948  0.94
      P1  H  8011  8017       L1    14  0.43
      L1  C     7    23       P1 10186  0.45

> <Gold.PLP.Chemscore.Internal.Correction>
1.0781

> <Gold.Rescore>
     Score         DG    S(hbond)    S(metal)    S(lipo)     H(rot)  DE(clash)    DE(int)     intcor
     15.12     -17.45       2.20        0.00      66.72       1.25       0.29       2.04       ----

> <Gold.Chemscore.Fitness>
15.1241

> <Gold.Chemscore.DG>
-17.4502

> <Gold.Chemscore.ZeroCoef>
-5.4800

> <Gold.Chemscore.Hbond>
2.2027

> <Gold.Chemscore.Metal>
0.0000

> <Gold.Chemscore.Lipo>
66.7246

> <Gold.Chemscore.Internal_Hbond>
0.0000

> <Gold.Chemscore.DEClash>
0.2852

> <Gold.Chemscore.DEInternal>
2.0409

> <Gold.Chemscore.Rot>
1.2476

> <Gold.Chemscore.Internal.Correction>
   9.000000E+99

> <Gold.Chemscore.Hbonds>
donor molecule, donor type, donor heavy atom, donor atom, acceptor molecule, acceptor atom, score
      L1  H     3    20       P1  7948  0.96
      L1  H    10    24       P1  7948  0.91
      P1  H  8011  8017       L1    14  0.20

> <Gold.Chemscore.Hbond.Weighted>
-7.3572

> <Gold.Chemscore.Metal.Weighted>
-0.0000

> <Gold.Chemscore.Lipo.Weighted>
-7.8068

> <Gold.Chemscore.Internal_Hbond.Weighted>
0.0000

> <Gold.Chemscore.DEClash.Weighted>
0.2852

> <Gold.Chemscore.DEInternal.Weighted>
2.0409

> <Gold.Chemscore.Rot.Weighted>
3.1938

> <Gold.Chemscore.Internal.Correction.Weighted>
   9.000000E+99

> <Gold.Protein.RotatedTorsions>
[ 6907 6896 6895 6894 ] final   68.09 input  -60.11 | X-H torsion
[ 7974 7965 7964 7962 ] final  176.85 input  175.53 | X-H torsion
[ 8008 7997 7996 7995 ] final  -59.53 input   59.86 | X-H torsion
[ 10167 10162 10161 10158 ] final -111.55 input  -65.29 | X-H torsion
[ 10718 10713 10712 10709 ] final   -9.52 input   66.30 | X-H torsion
[ 10763 10752 10751 10750 ] final -137.52 input  -60.55 | X-H torsion
[ 11005 11000 10999 10996 ] final -102.82 input  -57.11 | X-H torsion

> <Gold.Protein.ActiveResidues>
 VAL166  LYS551  ARG553  GLY616  TRP617  ASP618  TYR619  PRO620  LYS621  CYS622 
 ASP623  PHE694  ASN695  SER759  ASP760  ASP761  ALA762  ILE779  LEU786  VAL792 
 PHE793  MET794  SER795  GLU796  ALA797  LYS798  CYS799  TRP800  GLU811  SER814 

> <Gold.Protein.RotatedAtoms>
  152.4597  134.5212  159.9782 H   0  0  0  0  0  0  0  0  0  0  0  0  # atno 6907 bound_to 6896
  151.5264  133.3451  159.2918 H   0  0  0  0  0  0  0  0  0  0  0  0  # atno 6908 bound_to 6896
  150.8555  134.7922  159.7104 H   0  0  0  0  0  0  0  0  0  0  0  0  # atno 6909 bound_to 6896
  144.7178  140.0159  143.6440 H   0  0  0  0  0  0  0  0  0  0  0  0  # atno 7974 bound_to 7965
  154.4356  140.1059  156.6130 H   0  0  0  0  0  0  0  0  0  0  0  0  # atno 8008 bound_to 7997
  155.5789  140.3490  155.4516 H   0  0  0  0  0  0  0  0  0  0  0  0  # atno 8009 bound_to 7997
  156.0334  140.1265  157.0223 H   0  0  0  0  0  0  0  0  0  0  0  0  # atno 8010 bound_to 7997
  140.1324  143.4349  152.1618 H   0  0  0  0  0  0  0  0  0  0  0  0  # atno 10167 bound_to 10162
  156.6869  130.5053  149.5955 H   0  0  0  0  0  0  0  0  0  0  0  0  # atno 10718 bound_to 10713
  154.8660  135.3640  154.5236 H   0  0  0  0  0  0  0  0  0  0  0  0  # atno 10763 bound_to 10752
  153.5864  135.7017  153.5446 H   0  0  0  0  0  0  0  0  0  0  0  0  # atno 10764 bound_to 10752
  153.3411  135.4097  155.1535 H   0  0  0  0  0  0  0  0  0  0  0  0  # atno 10765 bound_to 10752
  141.1172  133.8590  157.1409 H   0  0  0  0  0  0  0  0  0  0  0  0  # atno 11005 bound_to 11000
  146.0221  139.3260  143.0807 LP  0  0  0  0  0  0  0  0  0  0  0  0  # atno 17320 bound_to 7965
  145.8556  140.9504  143.0727 LP  0  0  0  0  0  0  0  0  0  0  0  0  # atno 17321 bound_to 7965
  139.5513  144.7339  151.4427 LP  0  0  0  0  0  0  0  0  0  0  0  0  # atno 17342 bound_to 10162
  140.6809  143.8084  150.7120 LP  0  0  0  0  0  0  0  0  0  0  0  0  # atno 17343 bound_to 10162
  156.1826  130.6509  151.0969 LP  0  0  0  0  0  0  0  0  0  0  0  0  # atno 17370 bound_to 10713
  157.7023  131.0771  150.6780 LP  0  0  0  0  0  0  0  0  0  0  0  0  # atno 17371 bound_to 10713
  140.0103  134.9991  157.0381 LP  0  0  0  0  0  0  0  0  0  0  0  0  # atno 17394 bound_to 11000
  140.4611  134.1483  155.7191 LP  0  0  0  0  0  0  0  0  0  0  0  0  # atno 17395 bound_to 11000

$$$$
