AV-unprocessed.smi:1434|AV-procd|sdf|5849|dock6
  -GOLD-   22720 5513D 1   1.00000     0.00000
 Structure written by MMmdl.
 44 45  0  0  0  0  0  0  0  0  1 V2000
  150.0472  136.4555  157.0290 C   0  0  0  0  0  0  0  0  0  0  0  0
  150.3996  136.2813  155.2338 S   0  0  0  0  0  0  0  0  0  0  0  0
  151.6876  136.9306  154.9462 O   0  0  0  0  0  0  0  0  0  0  0  0
  150.1708  134.8851  154.8331 O   0  0  0  0  0  0  0  0  0  0  0  0
  149.1549  137.2356  154.5155 N   0  0  0  0  0  0  0  0  0  0  0  0
  148.9959  138.6235  154.9530 C   0  0  2  0  0  0  0  0  0  0  0  0
  147.9656  139.3525  154.0635 C   0  0  0  0  0  0  0  0  0  0  0  0
  147.9201  140.8627  154.3630 C   0  0  0  0  0  0  0  0  0  0  0  0
  149.3348  141.4681  154.3529 C   0  0  0  0  0  0  0  0  0  0  0  0
  150.1676  140.7382  155.3246 N   0  0  0  0  0  0  0  0  0  0  0  0
  150.6080  141.2043  156.5207 C   0  0  0  0  0  0  0  0  0  0  0  0
  151.1728  140.4941  157.3533 O   0  0  0  0  0  0  0  0  0  0  0  0
  150.3785  142.5122  156.7320 N   0  0  0  0  0  0  0  0  0  0  0  0
  150.7858  143.2764  157.9086 C   0  0  0  0  0  0  0  0  0  0  0  0
  152.3036  143.1920  158.1561 C   0  0  0  0  0  0  0  0  0  0  0  0
  152.6791  143.1561  159.6276 C   0  0  0  0  0  0  0  0  0  0  0  0
  152.2109  144.1480  160.5165 C   0  0  0  0  0  0  0  0  0  0  0  0
  152.6105  144.0823  161.8651 C   0  0  0  0  0  0  0  0  0  0  0  0
  153.4556  143.0319  162.2714 C   0  0  0  0  0  0  0  0  0  0  0  0
  153.8652  142.0897  161.3069 C   0  0  0  0  0  0  0  0  0  0  0  0
  153.4885  142.1436  160.0114 N   0  0  0  0  0  0  0  0  0  0  0  0
  150.3598  139.3414  154.9140 C   0  0  0  0  0  0  0  0  0  0  0  0
  150.7837  135.8891  157.5987 H   0  0  0  0  0  0  0  0  0  0  0  0
  149.0502  136.0721  157.2452 H   0  0  0  0  0  0  0  0  0  0  0  0
  150.1023  137.5069  157.3108 H   0  0  0  0  0  0  0  0  0  0  0  0
  149.1905  137.1764  153.4981 H   0  0  0  0  0  0  0  0  0  0  0  0
  148.6402  138.6230  155.9849 H   0  0  0  0  0  0  0  0  0  0  0  0
  148.2301  139.2113  153.0145 H   0  0  0  0  0  0  0  0  0  0  0  0
  146.9730  138.9202  154.1908 H   0  0  0  0  0  0  0  0  0  0  0  0
  147.2889  141.3685  153.6319 H   0  0  0  0  0  0  0  0  0  0  0  0
  147.4602  141.0284  155.3380 H   0  0  0  0  0  0  0  0  0  0  0  0
  149.7745  141.3657  153.3596 H   0  0  0  0  0  0  0  0  0  0  0  0
  149.2821  142.5421  154.5307 H   0  0  0  0  0  0  0  0  0  0  0  0
  149.8983  143.0236  156.0062 H   0  0  0  0  0  0  0  0  0  0  0  0
  150.5014  144.3163  157.7489 H   0  0  0  0  0  0  0  0  0  0  0  0
  150.2428  142.9478  158.7961 H   0  0  0  0  0  0  0  0  0  0  0  0
  152.7072  142.3063  157.6637 H   0  0  0  0  0  0  0  0  0  0  0  0
  152.7965  144.0456  157.6888 H   0  0  0  0  0  0  0  0  0  0  0  0
  151.5697  144.9461  160.1723 H   0  0  0  0  0  0  0  0  0  0  0  0
  152.2764  144.8254  162.5742 H   0  0  0  0  0  0  0  0  0  0  0  0
  153.7828  142.9498  163.2973 H   0  0  0  0  0  0  0  0  0  0  0  0
  154.5121  141.2705  161.5835 H   0  0  0  0  0  0  0  0  0  0  0  0
  151.0788  138.8130  155.5420 H   0  0  0  0  0  0  0  0  0  0  0  0
  150.7749  139.3167  153.9051 H   0  0  0  0  0  0  0  0  0  0  0  0
  1  2  1  0  0  0  0
  1 23  1  0  0  0  0
  1 24  1  0  0  0  0
  1 25  1  0  0  0  0
  2  3  2  0  0  0  0
  2  4  2  0  0  0  0
  2  5  1  0  0  0  0
  5  6  1  0  0  0  0
  5 26  1  0  0  0  0
  6 22  1  0  0  0  0
  6  7  1  0  0  0  0
  6 27  1  0  0  0  0
  7  8  1  0  0  0  0
  7 28  1  0  0  0  0
  7 29  1  0  0  0  0
  8  9  1  0  0  0  0
  8 30  1  0  0  0  0
  8 31  1  0  0  0  0
  9 10  1  0  0  0  0
  9 32  1  0  0  0  0
  9 33  1  0  0  0  0
 10 11  1  0  0  0  0
 10 22  1  0  0  0  0
 11 12  2  0  0  0  0
 11 13  1  0  0  0  0
 13 14  1  0  0  0  0
 13 34  1  0  0  0  0
 14 15  1  0  0  0  0
 14 35  1  0  0  0  0
 14 36  1  0  0  0  0
 15 16  1  0  0  0  0
 15 37  1  0  0  0  0
 15 38  1  0  0  0  0
 16 21  1  0  0  0  0
 16 17  2  0  0  0  0
 17 18  1  0  0  0  0
 17 39  1  0  0  0  0
 18 19  2  0  0  0  0
 18 40  1  0  0  0  0
 19 20  1  0  0  0  0
 19 41  1  0  0  0  0
 20 21  2  0  0  0  0
 20 42  1  0  0  0  0
 22 43  1  0  0  0  0
 22 44  1  0  0  0  0
M  END
> <s_m_source_file>
AV-unprocessed.smi

> <i_m_source_file_index>
1434

> <i_lp_mmshare_version>
43012

> <i_f3d_flags>
0

> <s_epik_input>
W0NIM11TKD1PKSg9TylbTkhdW0NAQEhdMVtDSDJdW0NIMl1bQ0gyXU4oW0NIMl0xKUMoPU8pW05IXVtDSDJdW0NIMl1jMltjSF1bY0hdW2NIXVtjSF1uMg==

> <s_epik_cmdline>
J2VwaWtfcHl0aG9uJywgJy1waCcsICc3LjAnLCAnLXRuJywgJzgnLCAnLW1hJywgJzIwMCcsICctbWV0YWxfYmluZGluZycsICctaW1hZScsICc8aW5maWxlLm1hZT4nLCAnLW9tYWUnLCAnPG91dGZpbGUubWFlPic=

> <r_epik_Ionization_Penalty>
0.0449488

> <r_epik_Ionization_Penalty_Charging>
0

> <r_epik_Ionization_Penalty_Neutral>
0.0449488

> <r_epik_State_Penalty>
0.0380669

> <r_epik_Charging_Adjusted_Penalty>
0.0380669

> <i_epik_Tot_Q>
0

> <i_epik_Tot_abs_Q>
0

> <r_epik_Metal_State_Penalty>
0.0441384

> <b_epik_Metal_Only>
0

> <s_lp_Force_Field>
OPLS_2005

> <r_lp_Energy>
23.2159

> <b_lp_Chiralities_Consistent>
1

> <s_lp_Variant>
AV-unprocessed.smi:1434-1

> <Gold.Version>
5.8.1

> <Gold.Id.Protein>
6NUR|6NUR_protein|mol2

> <Gold.PLP.Fitness>
52.6518

> <Gold.PLP.PLP>
-45.0072

> <Gold.PLP.part.hbond>
-3.0000

> <Gold.PLP.part.metal>
0.0000

> <Gold.PLP.part.buried>
-6.1584

> <Gold.PLP.part.nonpolar>
-36.3296

> <Gold.PLP.part.repulsive>
0.3535

> <Gold.PLP.ligand.clash>
0.0000

> <Gold.PLP.ligand.torsion>
0.4349

> <Gold.PLP.Chemscore.Hbond>
2.7894

> <Gold.PLP.Chemscore.CHOScore>
0.0000

> <Gold.PLP.Chemscore.Metal>
0.0000

> <Gold.Chemscore.Hbonds>
donor molecule, donor type, donor heavy atom, donor atom, acceptor molecule, acceptor atom, score
      L1  H     5    26       P1  7948  1.00
      L1  H    13    34       P1  8028  0.85
      P1  H 10752 10764       L1     3  1.00

> <Gold.PLP.Chemscore.Internal.Correction>
0.1462

> <Gold.Rescore>
     Score         DG    S(hbond)    S(metal)    S(lipo)     H(rot)  DE(clash)    DE(int)     intcor
     17.58     -19.30       2.06        0.00     103.79       2.03       0.04       1.68       ----

> <Gold.Chemscore.Fitness>
17.5787

> <Gold.Chemscore.DG>
-19.3025

> <Gold.Chemscore.ZeroCoef>
-5.4800

> <Gold.Chemscore.Hbond>
2.0617

> <Gold.Chemscore.Metal>
0.0000

> <Gold.Chemscore.Lipo>
103.7902

> <Gold.Chemscore.Internal_Hbond>
0.0000

> <Gold.Chemscore.DEClash>
0.0426

> <Gold.Chemscore.DEInternal>
1.6812

> <Gold.Chemscore.Rot>
2.0340

> <Gold.Chemscore.Internal.Correction>
   9.000000E+99

> <Gold.Chemscore.Hbonds>
donor molecule, donor type, donor heavy atom, donor atom, acceptor molecule, acceptor atom, score
      L1  H     5    26       P1  7948  0.96
      L1  H    13    34       P1  8028  0.80
      P1  H 10752 10764       L1     3  0.62

> <Gold.Chemscore.Hbond.Weighted>
-6.8861

> <Gold.Chemscore.Metal.Weighted>
-0.0000

> <Gold.Chemscore.Lipo.Weighted>
-12.1434

> <Gold.Chemscore.Internal_Hbond.Weighted>
0.0000

> <Gold.Chemscore.DEClash.Weighted>
0.0426

> <Gold.Chemscore.DEInternal.Weighted>
1.6812

> <Gold.Chemscore.Rot.Weighted>
5.2071

> <Gold.Chemscore.Internal.Correction.Weighted>
   9.000000E+99

> <Gold.Protein.RotatedTorsions>
[ 6907 6896 6895 6894 ] final -120.90 input  -60.11 | X-H torsion
[ 7974 7965 7964 7962 ] final -140.00 input  175.53 | X-H torsion
[ 8008 7997 7996 7995 ] final   46.99 input   59.86 | X-H torsion
[ 10167 10162 10161 10158 ] final  171.77 input  -65.29 | X-H torsion
[ 10718 10713 10712 10709 ] final -106.03 input   66.30 | X-H torsion
[ 10763 10752 10751 10750 ] final  -49.05 input  -60.55 | X-H torsion
[ 11005 11000 10999 10996 ] final  103.00 input  -57.11 | X-H torsion

> <Gold.Protein.ActiveResidues>
 VAL166  LYS551  ARG553  GLY616  TRP617  ASP618  TYR619  PRO620  LYS621  CYS622 
 ASP623  PHE694  ASN695  SER759  ASP760  ASP761  ALA762  ILE779  LEU786  VAL792 
 PHE793  MET794  SER795  GLU796  ALA797  LYS798  CYS799  TRP800  GLU811  SER814 

> <Gold.Protein.RotatedAtoms>
  150.8435  133.7898  159.3051 H   0  0  0  0  0  0  0  0  0  0  0  0  # atno 6907 bound_to 6896
  151.5592  135.1064  159.9978 H   0  0  0  0  0  0  0  0  0  0  0  0  # atno 6908 bound_to 6896
  152.4494  133.7556  159.6774 H   0  0  0  0  0  0  0  0  0  0  0  0  # atno 6909 bound_to 6896
  144.8632  140.6252  143.5315 H   0  0  0  0  0  0  0  0  0  0  0  0  # atno 7974 bound_to 7965
  155.3616  140.3419  155.4241 H   0  0  0  0  0  0  0  0  0  0  0  0  # atno 8008 bound_to 7997
  156.1710  140.1632  156.8481 H   0  0  0  0  0  0  0  0  0  0  0  0  # atno 8009 bound_to 7997
  154.5233  140.0762  156.8195 H   0  0  0  0  0  0  0  0  0  0  0  0  # atno 8010 bound_to 7997
  139.5056  144.3448  151.9982 H   0  0  0  0  0  0  0  0  0  0  0  0  # atno 10167 bound_to 10162
  156.0372  130.5592  150.7622 H   0  0  0  0  0  0  0  0  0  0  0  0  # atno 10718 bound_to 10713
  154.0877  135.6582  153.4847 H   0  0  0  0  0  0  0  0  0  0  0  0  # atno 10763 bound_to 10752
  153.0333  135.5195  154.7411 H   0  0  0  0  0  0  0  0  0  0  0  0  # atno 10764 bound_to 10752
  154.6525  135.3003  154.9937 H   0  0  0  0  0  0  0  0  0  0  0  0  # atno 10765 bound_to 10752
  139.8781  134.9246  156.5143 H   0  0  0  0  0  0  0  0  0  0  0  0  # atno 11005 bound_to 11000
  145.4272  139.1554  143.4042 LP  0  0  0  0  0  0  0  0  0  0  0  0  # atno 17320 bound_to 7965
  146.2876  140.4386  142.8752 LP  0  0  0  0  0  0  0  0  0  0  0  0  # atno 17321 bound_to 7965
  140.2885  144.3780  150.6096 LP  0  0  0  0  0  0  0  0  0  0  0  0  # atno 17342 bound_to 10162
  140.5964  143.2167  151.7156 LP  0  0  0  0  0  0  0  0  0  0  0  0  # atno 17343 bound_to 10162
  157.5139  131.0927  151.0164 LP  0  0  0  0  0  0  0  0  0  0  0  0  # atno 17370 bound_to 10713
  157.0512  130.5788  149.5371 LP  0  0  0  0  0  0  0  0  0  0  0  0  # atno 17371 bound_to 10713
  140.8497  133.8141  155.9157 LP  0  0  0  0  0  0  0  0  0  0  0  0  # atno 17394 bound_to 11000
  140.9156  134.2206  157.4959 LP  0  0  0  0  0  0  0  0  0  0  0  0  # atno 17395 bound_to 11000

$$$$
