AV-unprocessed.smi:844|AV-procd|sdf|3924|dock7
  -GOLD-   22720 1383D 1   1.00000     0.00000
 Structure written by MMmdl.
 32 34  0  0  0  0  0  0  0  0  1 V2000
  149.5256  140.8705  153.4239 O   0  0  0  0  0  0  0  0  0  0  0  0
  150.3493  140.4016  154.4725 C   0  0  1  0  0  0  0  0  0  0  0  0
  150.0365  141.2300  155.7346 C   0  0  0  0  0  0  0  0  0  0  0  0
  151.0607  141.0863  156.7540 N   0  0  0  0  0  0  0  0  0  0  0  0
  151.8839  140.0355  156.9322 C   0  0  0  0  0  0  0  0  0  0  0  0
  152.7467  140.1011  157.9423 N   0  0  0  0  0  0  0  0  0  0  0  0
  152.4485  141.3396  158.4840 C   0  0  0  0  0  0  0  0  0  0  0  0
  153.0064  142.0137  159.5938 C   0  0  0  0  0  0  0  0  0  0  0  0
  152.5311  143.2877  159.9689 C   0  0  0  0  0  0  0  0  0  0  0  0
  151.4943  143.9071  159.2412 C   0  0  0  0  0  0  0  0  0  0  0  0
  150.9242  143.2560  158.1307 C   0  0  0  0  0  0  0  0  0  0  0  0
  151.3997  141.9840  157.7609 C   0  0  0  0  0  0  0  0  0  0  0  0
  150.1886  138.9032  154.7076 C   0  0  0  0  0  0  0  0  0  0  0  0
  148.9163  138.3598  154.9954 C   0  0  0  0  0  0  0  0  0  0  0  0
  148.7686  136.9808  155.2381 C   0  0  0  0  0  0  0  0  0  0  0  0
  149.8921  136.1342  155.1961 C   0  0  0  0  0  0  0  0  0  0  0  0
  149.7502  134.8082  155.4311 F   0  0  0  0  0  0  0  0  0  0  0  0
  151.1633  136.6678  154.9119 C   0  0  0  0  0  0  0  0  0  0  0  0
  151.3137  138.0472  154.6694 C   0  0  0  0  0  0  0  0  0  0  0  0
  152.5470  138.5450  154.4112 F   0  0  0  0  0  0  0  0  0  0  0  0
  149.5518  140.2418  152.7188 H   0  0  0  0  0  0  0  0  0  0  0  0
  151.3747  140.6056  154.1622 H   0  0  0  0  0  0  0  0  0  0  0  0
  149.9659  142.2887  155.4805 H   0  0  0  0  0  0  0  0  0  0  0  0
  149.0719  140.9473  156.1583 H   0  0  0  0  0  0  0  0  0  0  0  0
  151.8443  139.1706  156.2861 H   0  0  0  0  0  0  0  0  0  0  0  0
  153.8005  141.5484  160.1590 H   0  0  0  0  0  0  0  0  0  0  0  0
  152.9642  143.7922  160.8201 H   0  0  0  0  0  0  0  0  0  0  0  0
  151.1364  144.8826  159.5366 H   0  0  0  0  0  0  0  0  0  0  0  0
  150.1279  143.7261  157.5734 H   0  0  0  0  0  0  0  0  0  0  0  0
  148.0481  139.0011  155.0398 H   0  0  0  0  0  0  0  0  0  0  0  0
  147.7932  136.5731  155.4593 H   0  0  0  0  0  0  0  0  0  0  0  0
  152.0257  136.0186  154.8833 H   0  0  0  0  0  0  0  0  0  0  0  0
  1  2  1  0  0  0  0
  1 21  1  0  0  0  0
  2  3  1  0  0  0  0
  2 13  1  0  0  0  0
  2 22  1  0  0  0  0
  3  4  1  0  0  0  0
  3 23  1  0  0  0  0
  3 24  1  0  0  0  0
  4 12  1  0  0  0  0
  4  5  1  0  0  0  0
  5  6  2  0  0  0  0
  5 25  1  0  0  0  0
  6  7  1  0  0  0  0
  7 12  2  0  0  0  0
  7  8  1  0  0  0  0
  8  9  2  0  0  0  0
  8 26  1  0  0  0  0
  9 10  1  0  0  0  0
  9 27  1  0  0  0  0
 10 11  2  0  0  0  0
 10 28  1  0  0  0  0
 11 12  1  0  0  0  0
 11 29  1  0  0  0  0
 13 19  1  0  0  0  0
 13 14  2  0  0  0  0
 14 15  1  0  0  0  0
 14 30  1  0  0  0  0
 15 16  2  0  0  0  0
 15 31  1  0  0  0  0
 16 17  1  0  0  0  0
 16 18  1  0  0  0  0
 18 19  2  0  0  0  0
 18 32  1  0  0  0  0
 19 20  1  0  0  0  0
M  END
> <s_m_source_file>
AV-unprocessed.smi

> <i_m_source_file_index>
844

> <i_lp_mmshare_version>
43012

> <i_f3d_flags>
0

> <s_epik_input>
RmMxW2NIXWMoRilbY0hdW2NIXWMxW0NASF0oW09IXSlbQ0gyXW4oW2NIXW4yKWMoYzIzKVtjSF1bY0hdW2NIXVtjSF0z

> <s_epik_cmdline>
J2VwaWtfcHl0aG9uJywgJy1waCcsICc3LjAnLCAnLXRuJywgJzgnLCAnLW1hJywgJzIwMCcsICctbWV0YWxfYmluZGluZycsICctaW1hZScsICc8aW5maWxlLm1hZT4nLCAnLW9tYWUnLCAnPG91dGZpbGUubWFlPic=

> <r_epik_Ionization_Penalty>
0.0696514

> <r_epik_Ionization_Penalty_Charging>
0

> <r_epik_Ionization_Penalty_Neutral>
0.0696514

> <r_epik_State_Penalty>
0.0610247

> <r_epik_Charging_Adjusted_Penalty>
0.0610247

> <i_epik_Tot_Q>
0

> <i_epik_Tot_abs_Q>
0

> <r_epik_Metal_State_Penalty>
6.42746e-05

> <b_epik_Metal_Only>
0

> <s_lp_Force_Field>
OPLS_2005

> <r_lp_Energy>
12.0275

> <b_lp_Chiralities_Consistent>
1

> <s_lp_Variant>
AV-unprocessed.smi:844-2

> <Gold.Version>
5.8.1

> <Gold.Id.Protein>
6NUR|6NUR_protein|mol2

> <Gold.PLP.Fitness>
49.0986

> <Gold.PLP.PLP>
-41.5934

> <Gold.PLP.part.hbond>
-3.4536

> <Gold.PLP.part.metal>
0.0000

> <Gold.PLP.part.buried>
-2.4646

> <Gold.PLP.part.nonpolar>
-35.5109

> <Gold.PLP.part.repulsive>
0.0000

> <Gold.PLP.ligand.clash>
0.0000

> <Gold.PLP.ligand.torsion>
0.5015

> <Gold.PLP.Chemscore.Hbond>
2.8300

> <Gold.PLP.Chemscore.CHOScore>
0.0000

> <Gold.PLP.Chemscore.Metal>
0.0000

> <Gold.Chemscore.Hbonds>
donor molecule, donor type, donor heavy atom, donor atom, acceptor molecule, acceptor atom, score
      L1  H     1    21       P1  7957  0.91
      P1  H  7997  8010       L1     6  0.77
      P1  H  8011  8017       L1     1  0.80

> <Gold.PLP.Chemscore.Internal.Correction>
0.0181

> <Gold.Rescore>
     Score         DG    S(hbond)    S(metal)    S(lipo)     H(rot)  DE(clash)    DE(int)     intcor
     14.36     -17.00       1.37        0.00     103.09       2.00       1.44       1.20       ----

> <Gold.Chemscore.Fitness>
14.3554

> <Gold.Chemscore.DG>
-16.9965

> <Gold.Chemscore.ZeroCoef>
-5.4800

> <Gold.Chemscore.Hbond>
1.3727

> <Gold.Chemscore.Metal>
0.0000

> <Gold.Chemscore.Lipo>
103.0936

> <Gold.Chemscore.Internal_Hbond>
0.0000

> <Gold.Chemscore.DEClash>
1.4448

> <Gold.Chemscore.DEInternal>
1.1963

> <Gold.Chemscore.Rot>
2.0040

> <Gold.Chemscore.Internal.Correction>
   9.000000E+99

> <Gold.Chemscore.Hbonds>
donor molecule, donor type, donor heavy atom, donor atom, acceptor molecule, acceptor atom, score
      L1  H     1    21       P1  7957  0.85
      P1  H  7997  8010       L1     6  0.09
      P1  H  8011  8017       L1     1  0.12

> <Gold.Chemscore.Hbond.Weighted>
-4.5849

> <Gold.Chemscore.Metal.Weighted>
-0.0000

> <Gold.Chemscore.Lipo.Weighted>
-12.0620

> <Gold.Chemscore.Internal_Hbond.Weighted>
0.0000

> <Gold.Chemscore.DEClash.Weighted>
1.4448

> <Gold.Chemscore.DEInternal.Weighted>
1.1963

> <Gold.Chemscore.Rot.Weighted>
5.1303

> <Gold.Chemscore.Internal.Correction.Weighted>
   9.000000E+99

> <Gold.Protein.RotatedTorsions>
[ 6907 6896 6895 6894 ] final  -34.77 input  -60.11 | X-H torsion
[ 7974 7965 7964 7962 ] final -179.28 input  175.53 | X-H torsion
[ 8008 7997 7996 7995 ] final   52.85 input   59.86 | X-H torsion
[ 10167 10162 10161 10158 ] final   33.66 input  -65.29 | X-H torsion
[ 10718 10713 10712 10709 ] final  -68.39 input   66.30 | X-H torsion
[ 10763 10752 10751 10750 ] final  -77.58 input  -60.55 | X-H torsion
[ 11005 11000 10999 10996 ] final  -25.28 input  -57.11 | X-H torsion

> <Gold.Protein.ActiveResidues>
 VAL166  LYS551  ARG553  GLY616  TRP617  ASP618  TYR619  PRO620  LYS621  CYS622 
 ASP623  PHE694  ASN695  SER759  ASP760  ASP761  ALA762  ILE779  LEU786  VAL792 
 PHE793  MET794  SER795  GLU796  ALA797  LYS798  CYS799  TRP800  GLU811  SER814 

> <Gold.Protein.RotatedAtoms>
  151.0484  134.9655  159.8198 H   0  0  0  0  0  0  0  0  0  0  0  0  # atno 6907 bound_to 6896
  152.5376  134.2569  159.8930 H   0  0  0  0  0  0  0  0  0  0  0  0  # atno 6908 bound_to 6896
  151.2584  133.4272  159.2648 H   0  0  0  0  0  0  0  0  0  0  0  0  # atno 6909 bound_to 6896
  144.7135  140.0741  143.6428 H   0  0  0  0  0  0  0  0  0  0  0  0  # atno 7974 bound_to 7965
  155.4587  140.3461  155.4310 H   0  0  0  0  0  0  0  0  0  0  0  0  # atno 8008 bound_to 7997
  156.1175  140.1478  156.9282 H   0  0  0  0  0  0  0  0  0  0  0  0  # atno 8009 bound_to 7997
  154.4799  140.0873  156.7332 H   0  0  0  0  0  0  0  0  0  0  0  0  # atno 8010 bound_to 7997
  140.4386  144.1220  150.6170 H   0  0  0  0  0  0  0  0  0  0  0  0  # atno 10167 bound_to 10162
  156.0508  130.4294  150.1994 H   0  0  0  0  0  0  0  0  0  0  0  0  # atno 10718 bound_to 10713
  154.5148  135.5759  153.6634 H   0  0  0  0  0  0  0  0  0  0  0  0  # atno 10763 bound_to 10752
  152.9904  135.6167  154.2831 H   0  0  0  0  0  0  0  0  0  0  0  0  # atno 10764 bound_to 10752
  154.2748  135.2852  155.2702 H   0  0  0  0  0  0  0  0  0  0  0  0  # atno 10765 bound_to 10752
  140.8924  133.7579  156.0437 H   0  0  0  0  0  0  0  0  0  0  0  0  # atno 11005 bound_to 11000
  145.9758  139.2904  143.1071 LP  0  0  0  0  0  0  0  0  0  0  0  0  # atno 17320 bound_to 7965
  145.9066  140.9208  143.0476 LP  0  0  0  0  0  0  0  0  0  0  0  0  # atno 17321 bound_to 7965
  140.4344  143.2554  151.9554 LP  0  0  0  0  0  0  0  0  0  0  0  0  # atno 17342 bound_to 10162
  139.4788  144.5713  151.8083 LP  0  0  0  0  0  0  0  0  0  0  0  0  # atno 17343 bound_to 10162
  157.0077  130.9941  151.3374 LP  0  0  0  0  0  0  0  0  0  0  0  0  # atno 17370 bound_to 10713
  157.5431  130.8133  149.8053 LP  0  0  0  0  0  0  0  0  0  0  0  0  # atno 17371 bound_to 10713
  140.8331  134.3155  157.5341 LP  0  0  0  0  0  0  0  0  0  0  0  0  # atno 17394 bound_to 11000
  139.8731  134.9374  156.3687 LP  0  0  0  0  0  0  0  0  0  0  0  0  # atno 17395 bound_to 11000

$$$$
