AV-unprocessed.smi:1434|AV-procd|sdf|5854|dock10
  -GOLD-   22720 5523D 1   1.00000     0.00000
 Structure written by MMmdl.
 43 44  0  0  0  0  0  0  0  0  2 V2000
  150.9780  139.0404  157.0745 C   0  0  0  0  0  0  0  0  0  0  0  0
  152.0260  138.8420  155.5704 S   0  0  0  0  0  0  0  0  0  0  0  0
  153.3127  139.4913  155.8753 O   0  0  0  0  0  0  0  0  0  0  0  0
  152.0584  137.3935  155.3183 O   0  0  0  0  0  0  0  0  0  0  0  0
  151.1471  139.6141  154.4396 N   0  5  0  0  0  0  0  0  0  0  0  0
  149.7156  139.8212  154.6120 C   0  0  1  0  0  0  0  0  0  0  0  0
  149.3971  141.3279  154.7994 C   0  0  0  0  0  0  0  0  0  0  0  0
  147.8782  141.6526  154.7449 C   0  0  0  0  0  0  0  0  0  0  0  0
  147.1798  141.0264  153.5146 C   0  0  0  0  0  0  0  0  0  0  0  0
  147.4861  139.5793  153.5319 N   0  0  0  0  0  0  0  0  0  0  0  0
  146.5906  138.5845  153.7684 C   0  0  0  0  0  0  0  0  0  0  0  0
  145.4740  138.7821  154.2496 O   0  0  0  0  0  0  0  0  0  0  0  0
  146.9766  137.3729  153.3296 N   0  0  0  0  0  0  0  0  0  0  0  0
  146.1170  136.1971  153.2135 C   0  0  0  0  0  0  0  0  0  0  0  0
  145.7956  135.8631  151.7421 C   0  0  0  0  0  0  0  0  0  0  0  0
  145.7231  134.3719  151.4528 C   0  0  0  0  0  0  0  0  0  0  0  0
  144.5374  133.7917  150.9515 C   0  0  0  0  0  0  0  0  0  0  0  0
  144.5058  132.3989  150.7456 C   0  0  0  0  0  0  0  0  0  0  0  0
  145.6560  131.6444  151.0438 C   0  0  0  0  0  0  0  0  0  0  0  0
  146.7917  132.3189  151.5344 C   0  0  0  0  0  0  0  0  0  0  0  0
  146.8338  133.6542  151.7336 N   0  0  0  0  0  0  0  0  0  0  0  0
  148.9325  139.3042  153.3738 C   0  0  0  0  0  0  0  0  0  0  0  0
  151.4292  138.4921  157.9006 H   0  0  0  0  0  0  0  0  0  0  0  0
  149.9826  138.6430  156.8781 H   0  0  0  0  0  0  0  0  0  0  0  0
  150.9029  140.0936  157.3419 H   0  0  0  0  0  0  0  0  0  0  0  0
  149.3365  139.2833  155.4814 H   0  0  0  0  0  0  0  0  0  0  0  0
  149.8149  141.6836  155.7418 H   0  0  0  0  0  0  0  0  0  0  0  0
  149.8938  141.8984  154.0130 H   0  0  0  0  0  0  0  0  0  0  0  0
  147.3914  141.2963  155.6547 H   0  0  0  0  0  0  0  0  0  0  0  0
  147.7371  142.7336  154.7360 H   0  0  0  0  0  0  0  0  0  0  0  0
  146.1155  141.2621  153.5147 H   0  0  0  0  0  0  0  0  0  0  0  0
  147.5776  141.4629  152.5972 H   0  0  0  0  0  0  0  0  0  0  0  0
  147.9043  137.2947  152.9393 H   0  0  0  0  0  0  0  0  0  0  0  0
  146.6248  135.3522  153.6789 H   0  0  0  0  0  0  0  0  0  0  0  0
  145.1908  136.3384  153.7728 H   0  0  0  0  0  0  0  0  0  0  0  0
  144.8444  136.3204  151.4665 H   0  0  0  0  0  0  0  0  0  0  0  0
  146.5450  136.3145  151.0906 H   0  0  0  0  0  0  0  0  0  0  0  0
  143.6652  134.3947  150.7471 H   0  0  0  0  0  0  0  0  0  0  0  0
  143.6127  131.9172  150.3758 H   0  0  0  0  0  0  0  0  0  0  0  0
  145.6648  130.5733  150.9049 H   0  0  0  0  0  0  0  0  0  0  0  0
  147.6905  131.7706  151.7741 H   0  0  0  0  0  0  0  0  0  0  0  0
  149.2877  139.7990  152.4683 H   0  0  0  0  0  0  0  0  0  0  0  0
  149.1387  138.2428  153.2273 H   0  0  0  0  0  0  0  0  0  0  0  0
  1  2  1  0  0  0  0
  1 23  1  0  0  0  0
  1 24  1  0  0  0  0
  1 25  1  0  0  0  0
  2  3  2  0  0  0  0
  2  4  2  0  0  0  0
  2  5  1  0  0  0  0
  5  6  1  0  0  0  0
  6 22  1  0  0  0  0
  6  7  1  0  0  0  0
  6 26  1  0  0  0  0
  7  8  1  0  0  0  0
  7 27  1  0  0  0  0
  7 28  1  0  0  0  0
  8  9  1  0  0  0  0
  8 29  1  0  0  0  0
  8 30  1  0  0  0  0
  9 10  1  0  0  0  0
  9 31  1  0  0  0  0
  9 32  1  0  0  0  0
 10 11  1  0  0  0  0
 10 22  1  0  0  0  0
 11 12  2  0  0  0  0
 11 13  1  0  0  0  0
 13 14  1  0  0  0  0
 13 33  1  0  0  0  0
 14 15  1  0  0  0  0
 14 34  1  0  0  0  0
 14 35  1  0  0  0  0
 15 16  1  0  0  0  0
 15 36  1  0  0  0  0
 15 37  1  0  0  0  0
 16 21  1  0  0  0  0
 16 17  2  0  0  0  0
 17 18  1  0  0  0  0
 17 38  1  0  0  0  0
 18 19  2  0  0  0  0
 18 39  1  0  0  0  0
 19 20  1  0  0  0  0
 19 40  1  0  0  0  0
 20 21  2  0  0  0  0
 20 41  1  0  0  0  0
 22 42  1  0  0  0  0
 22 43  1  0  0  0  0
M  CHG  1   5  -1
M  END
> <s_m_source_file>
AV-unprocessed.smi

> <i_m_source_file_index>
1434

> <i_lp_mmshare_version>
43012

> <i_f3d_flags>
0

> <s_epik_input>
W0NIM11TKD1PKSg9TylbTkhdW0NAQEhdMVtDSDJdW0NIMl1bQ0gyXU4oW0NIMl0xKUMoPU8pW05IXVtDSDJdW0NIMl1jMltjSF1bY0hdW2NIXVtjSF1uMg==

> <s_epik_cmdline>
J2VwaWtfcHl0aG9uJywgJy1waCcsICc3LjAnLCAnLXRuJywgJzgnLCAnLW1hJywgJzIwMCcsICctbWV0YWxfYmluZGluZycsICctaW1hZScsICc8aW5maWxlLm1hZT4nLCAnLW9tYWUnLCAnPG91dGZpbGUubWFlPic=

> <r_epik_Ionization_Penalty>
6.57847

> <r_epik_Ionization_Penalty_Charging>
6.53351

> <r_epik_Ionization_Penalty_Neutral>
0.0449527

> <r_epik_State_Penalty>
6.57157

> <r_epik_Charging_Adjusted_Penalty>
13.1051

> <i_epik_Tot_Q>
-1

> <i_epik_Tot_abs_Q>
1

> <r_epik_Metal_State_Penalty>
2.53928

> <b_epik_Metal_Only>
1

> <s_lp_Force_Field>
OPLS_2005

> <r_lp_Energy>
21.2682

> <b_lp_Chiralities_Consistent>
1

> <s_lp_Variant>
AV-unprocessed.smi:1434-6

> <Gold.Version>
5.8.1

> <Gold.Id.Protein>
6NUR|6NUR_protein|mol2

> <Gold.PLP.Fitness>
49.1111

> <Gold.PLP.PLP>
-35.5284

> <Gold.PLP.part.hbond>
-3.9491

> <Gold.PLP.part.metal>
0.0000

> <Gold.PLP.part.buried>
-2.0551

> <Gold.PLP.part.nonpolar>
-32.3958

> <Gold.PLP.part.repulsive>
2.2395

> <Gold.PLP.ligand.clash>
0.0356

> <Gold.PLP.ligand.torsion>
1.1648

> <Gold.PLP.Chemscore.Hbond>
3.9840

> <Gold.PLP.Chemscore.CHOScore>
1.0000

> <Gold.PLP.Chemscore.Metal>
0.0000

> <Gold.Chemscore.Hbonds>
donor molecule, donor type, donor heavy atom, donor atom, acceptor molecule, acceptor atom, score
      L1  H    13    33       P1  7948  0.86
      P1  H  7989  7998       L1     5  1.00
      P1  H  7997  8010       L1     3  0.32
      P1  H 10752 10763       L1     4  0.65
      L1  C    20    41       P1 10747  0.88

> <Gold.PLP.Chemscore.Internal.Correction>
0.9960

> <Gold.Rescore>
     Score         DG    S(hbond)    S(metal)    S(lipo)     H(rot)  DE(clash)    DE(int)     intcor
     18.66     -23.19       3.47        0.00      89.05       1.68       3.30       1.23       ----

> <Gold.Chemscore.Fitness>
18.6602

> <Gold.Chemscore.DG>
-23.1933

> <Gold.Chemscore.ZeroCoef>
-5.4800

> <Gold.Chemscore.Hbond>
3.4725

> <Gold.Chemscore.Metal>
0.0000

> <Gold.Chemscore.Lipo>
89.0534

> <Gold.Chemscore.Internal_Hbond>
0.0000

> <Gold.Chemscore.DEClash>
3.3012

> <Gold.Chemscore.DEInternal>
1.2320

> <Gold.Chemscore.Rot>
1.6813

> <Gold.Chemscore.Internal.Correction>
   9.000000E+99

> <Gold.Chemscore.Hbonds>
donor molecule, donor type, donor heavy atom, donor atom, acceptor molecule, acceptor atom, score
      L1  H    13    33       P1  7948  0.85
      P1  H  7989  7998       L1     5  0.50
      P1  H  7997  8010       L1     3  0.33
      P1  H 10752 10763       L1     4  0.64

> <Gold.Chemscore.Hbond.Weighted>
-11.5983

> <Gold.Chemscore.Metal.Weighted>
-0.0000

> <Gold.Chemscore.Lipo.Weighted>
-10.4193

> <Gold.Chemscore.Internal_Hbond.Weighted>
0.0000

> <Gold.Chemscore.DEClash.Weighted>
3.3012

> <Gold.Chemscore.DEInternal.Weighted>
1.2320

> <Gold.Chemscore.Rot.Weighted>
4.3042

> <Gold.Chemscore.Internal.Correction.Weighted>
   9.000000E+99

> <Gold.Protein.RotatedTorsions>
[ 6907 6896 6895 6894 ] final -158.57 input  -60.11 | X-H torsion
[ 7974 7965 7964 7962 ] final  124.49 input  175.53 | X-H torsion
[ 8008 7997 7996 7995 ] final   85.76 input   59.86 | X-H torsion
[ 10167 10162 10161 10158 ] final -177.46 input  -65.29 | X-H torsion
[ 10718 10713 10712 10709 ] final  156.31 input   66.30 | X-H torsion
[ 10763 10752 10751 10750 ] final   67.39 input  -60.55 | X-H torsion
[ 11005 11000 10999 10996 ] final -109.04 input  -57.11 | X-H torsion

> <Gold.Protein.ActiveResidues>
 VAL166  LYS551  ARG553  GLY616  TRP617  ASP618  TYR619  PRO620  LYS621  CYS622 
 ASP623  PHE694  ASN695  SER759  ASP760  ASP761  ALA762  ILE779  LEU786  VAL792 
 PHE793  MET794  SER795  GLU796  ALA797  LYS798  CYS799  TRP800  GLU811  SER814 

> <Gold.Protein.RotatedAtoms>
  151.3202  133.4043  159.2653 H   0  0  0  0  0  0  0  0  0  0  0  0  # atno 6907 bound_to 6896
  151.0041  134.9346  159.7980 H   0  0  0  0  0  0  0  0  0  0  0  0  # atno 6908 bound_to 6896
  152.5283  134.3167  159.9186 H   0  0  0  0  0  0  0  0  0  0  0  0  # atno 6909 bound_to 6896
  145.0838  139.3638  143.4896 H   0  0  0  0  0  0  0  0  0  0  0  0  # atno 7974 bound_to 7965
  155.9541  140.3398  155.6433 H   0  0  0  0  0  0  0  0  0  0  0  0  # atno 8008 bound_to 7997
  155.6882  140.0746  157.2476 H   0  0  0  0  0  0  0  0  0  0  0  0  # atno 8009 bound_to 7997
  154.4128  140.1662  156.2045 H   0  0  0  0  0  0  0  0  0  0  0  0  # atno 8010 bound_to 7997
  139.5479  144.2187  152.1022 H   0  0  0  0  0  0  0  0  0  0  0  0  # atno 10167 bound_to 10162
  157.2067  131.0688  151.1993 H   0  0  0  0  0  0  0  0  0  0  0  0  # atno 10718 bound_to 10713
  153.0184  135.5286  154.6972 H   0  0  0  0  0  0  0  0  0  0  0  0  # atno 10763 bound_to 10752
  154.6090  135.2876  155.0455 H   0  0  0  0  0  0  0  0  0  0  0  0  # atno 10764 bound_to 10752
  154.1483  135.6567  153.5010 H   0  0  0  0  0  0  0  0  0  0  0  0  # atno 10765 bound_to 10752
  141.0869  133.9123  157.2165 H   0  0  0  0  0  0  0  0  0  0  0  0  # atno 11005 bound_to 11000
  146.3531  140.0640  142.8627 LP  0  0  0  0  0  0  0  0  0  0  0  0  # atno 17320 bound_to 7965
  145.1147  140.9426  143.4636 LP  0  0  0  0  0  0  0  0  0  0  0  0  # atno 17321 bound_to 7965
  140.1677  144.4966  150.6597 LP  0  0  0  0  0  0  0  0  0  0  0  0  # atno 17342 bound_to 10162
  140.6733  143.2294  151.5571 LP  0  0  0  0  0  0  0  0  0  0  0  0  # atno 17343 bound_to 10162
  157.3713  130.7182  149.6567 LP  0  0  0  0  0  0  0  0  0  0  0  0  # atno 17370 bound_to 10713
  155.9695  130.4198  150.4392 LP  0  0  0  0  0  0  0  0  0  0  0  0  # atno 17371 bound_to 10713
  139.9689  135.0134  156.9459 LP  0  0  0  0  0  0  0  0  0  0  0  0  # atno 17394 bound_to 11000
  140.5342  134.0783  155.7324 LP  0  0  0  0  0  0  0  0  0  0  0  0  # atno 17395 bound_to 11000

$$$$
