AV-unprocessed.smi:2391|AV-procd|sdf|9485|dock2
  -GOLD-   2272013113D 1   1.00000     0.00000
 Structure written by MMmdl.
 34 35  0  0  0  0  0  0  0  0  2 V2000
  150.0997  141.9074  158.6844 O   0  0  0  0  0  0  0  0  0  0  0  0
  150.8451  142.0879  157.7190 C   0  0  0  0  0  0  0  0  0  0  0  0
  150.6725  141.5943  156.4705 N   0  5  0  0  0  0  0  0  0  0  0  0
  151.2042  140.4105  156.1305 C   0  0  0  0  0  0  0  0  0  0  0  0
  150.5951  139.6155  155.1337 C   0  0  0  0  0  0  0  0  0  0  0  0
  151.1796  138.3787  154.8136 C   0  0  0  0  0  0  0  0  0  0  0  0
  152.3380  138.0146  155.5202 C   0  0  0  0  0  0  0  0  0  0  0  0
  152.8836  138.8010  156.4727 N   0  0  0  0  0  0  0  0  0  0  0  0
  152.3199  139.9772  156.7707 N   0  0  0  0  0  0  0  0  0  0  0  0
  151.9525  142.8315  157.8542 N   0  0  0  0  0  0  0  0  0  0  0  0
  152.4112  143.5035  159.0722 C   0  0  2  0  0  0  0  0  0  0  0  0
  152.5966  142.4443  160.1888 C   0  0  0  0  0  0  0  0  0  0  0  0
  153.0757  142.9945  161.5386 C   0  0  0  0  0  0  0  0  0  0  0  0
  153.6968  141.8044  162.2801 C   0  0  0  0  0  0  0  0  0  0  0  0
  153.9950  140.7386  161.2171 C   0  0  0  0  0  0  0  0  0  0  0  0
  153.6526  141.3779  159.8693 C   0  0  0  0  0  0  0  0  0  0  0  0
  151.4234  144.6366  159.4433 C   0  0  0  0  0  0  0  0  0  0  0  0
  150.3364  144.1345  160.0302 F   0  0  0  0  0  0  0  0  0  0  0  0
  151.9968  145.5030  160.2795 F   0  0  0  0  0  0  0  0  0  0  0  0
  151.0223  145.2920  158.3547 F   0  0  0  0  0  0  0  0  0  0  0  0
  149.7028  139.9485  154.6241 H   0  0  0  0  0  0  0  0  0  0  0  0
  150.7560  137.7360  154.0565 H   0  0  0  0  0  0  0  0  0  0  0  0
  152.8350  137.0768  155.3207 H   0  0  0  0  0  0  0  0  0  0  0  0
  152.5308  142.9439  157.0346 H   0  0  0  0  0  0  0  0  0  0  0  0
  153.3871  143.9541  158.8832 H   0  0  0  0  0  0  0  0  0  0  0  0
  151.6471  141.9315  160.3517 H   0  0  0  0  0  0  0  0  0  0  0  0
  153.8388  143.7574  161.3778 H   0  0  0  0  0  0  0  0  0  0  0  0
  152.2697  143.4503  162.1138 H   0  0  0  0  0  0  0  0  0  0  0  0
  154.5990  142.1050  162.8139 H   0  0  0  0  0  0  0  0  0  0  0  0
  152.9992  141.4080  163.0189 H   0  0  0  0  0  0  0  0  0  0  0  0
  155.0309  140.3997  161.2513 H   0  0  0  0  0  0  0  0  0  0  0  0
  153.3602  139.8677  161.3845 H   0  0  0  0  0  0  0  0  0  0  0  0
  153.3034  140.6424  159.1438 H   0  0  0  0  0  0  0  0  0  0  0  0
  154.5435  141.8514  159.4537 H   0  0  0  0  0  0  0  0  0  0  0  0
  1  2  2  0  0  0  0
  2  3  1  0  0  0  0
  2 10  1  0  0  0  0
  3  4  1  0  0  0  0
  4  9  1  0  0  0  0
  4  5  2  0  0  0  0
  5  6  1  0  0  0  0
  5 21  1  0  0  0  0
  6  7  2  0  0  0  0
  6 22  1  0  0  0  0
  7  8  1  0  0  0  0
  7 23  1  0  0  0  0
  8  9  2  0  0  0  0
 10 11  1  0  0  0  0
 10 24  1  0  0  0  0
 11 12  1  0  0  0  0
 11 17  1  0  0  0  0
 11 25  1  0  0  0  0
 12 16  1  0  0  0  0
 12 13  1  0  0  0  0
 12 26  1  0  0  0  0
 13 14  1  0  0  0  0
 13 27  1  0  0  0  0
 13 28  1  0  0  0  0
 14 15  1  0  0  0  0
 14 29  1  0  0  0  0
 14 30  1  0  0  0  0
 15 16  1  0  0  0  0
 15 31  1  0  0  0  0
 15 32  1  0  0  0  0
 16 33  1  0  0  0  0
 16 34  1  0  0  0  0
 17 18  1  0  0  0  0
 17 19  1  0  0  0  0
 17 20  1  0  0  0  0
M  CHG  1   3  -1
M  END
> <s_m_source_file>
AV-unprocessed.smi

> <i_m_source_file_index>
2391

> <i_lp_mmshare_version>
43012

> <i_f3d_flags>
0

> <s_epik_input>
W0NIMl0xW0NIMl1bQ0gyXVtDSDJdW0NIXTFbQ0BIXShDKEYpKEYpRilbTkhdQyg9TylbTkhdYzJbY0hdW2NIXVtjSF1ubjI=

> <s_epik_cmdline>
J2VwaWtfcHl0aG9uJywgJy1waCcsICc3LjAnLCAnLXRuJywgJzgnLCAnLW1hJywgJzIwMCcsICctbWV0YWxfYmluZGluZycsICctaW1hZScsICc8aW5maWxlLm1hZT4nLCAnLW9tYWUnLCAnPG91dGZpbGUubWFlPic=

> <r_lp_tautomer_probability>
1

> <r_epik_Ionization_Penalty>
8.90766

> <r_epik_Ionization_Penalty_Charging>
5.82661

> <r_epik_Ionization_Penalty_Neutral>
3.08106

> <r_epik_State_Penalty>
5.83894

> <r_epik_Charging_Adjusted_Penalty>
11.6655

> <i_epik_Tot_Q>
-1

> <i_epik_Tot_abs_Q>
1

> <r_epik_Metal_State_Penalty>
1.80768

> <b_epik_Metal_Only>
1

> <s_lp_Force_Field>
OPLS_2005

> <r_lp_Energy>
28.0244

> <b_lp_Chiralities_Consistent>
1

> <s_lp_Variant>
AV-unprocessed.smi:2391-5

> <Gold.Version>
5.8.1

> <Gold.Id.Protein>
6NUR|6NUR_protein|mol2

> <Gold.PLP.Fitness>
44.4680

> <Gold.PLP.PLP>
-46.8114

> <Gold.PLP.part.hbond>
-2.0180

> <Gold.PLP.part.metal>
0.0000

> <Gold.PLP.part.buried>
-2.4868

> <Gold.PLP.part.nonpolar>
-41.8018

> <Gold.PLP.part.repulsive>
0.1497

> <Gold.PLP.ligand.clash>
0.0000

> <Gold.PLP.ligand.torsion>
1.3889

> <Gold.PLP.Chemscore.Hbond>
0.0145

> <Gold.PLP.Chemscore.CHOScore>
0.0000

> <Gold.PLP.Chemscore.Metal>
0.0000

> <Gold.Chemscore.Hbonds>
donor molecule, donor type, donor heavy atom, donor atom, acceptor molecule, acceptor atom, score
      P1  H  7997  8008       L1     8  0.01

> <Gold.PLP.Chemscore.Internal.Correction>
0.3910

> <Gold.Rescore>
     Score         DG    S(hbond)    S(metal)    S(lipo)     H(rot)  DE(clash)    DE(int)     intcor
      9.22     -13.58       0.00        0.00      98.09       1.32       0.07       4.30       ----

> <Gold.Chemscore.Fitness>
9.2207

> <Gold.Chemscore.DG>
-13.5825

> <Gold.Chemscore.ZeroCoef>
-5.4800

> <Gold.Chemscore.Hbond>
0.0000

> <Gold.Chemscore.Metal>
0.0000

> <Gold.Chemscore.Lipo>
98.0869

> <Gold.Chemscore.Internal_Hbond>
0.0000

> <Gold.Chemscore.DEClash>
0.0651

> <Gold.Chemscore.DEInternal>
4.2967

> <Gold.Chemscore.Rot>
1.3179

> <Gold.Chemscore.Internal.Correction>
   9.000000E+99

> <Gold.Chemscore.Hbond.Weighted>
-0.0001

> <Gold.Chemscore.Metal.Weighted>
-0.0000

> <Gold.Chemscore.Lipo.Weighted>
-11.4762

> <Gold.Chemscore.Internal_Hbond.Weighted>
0.0000

> <Gold.Chemscore.DEClash.Weighted>
0.0651

> <Gold.Chemscore.DEInternal.Weighted>
4.2967

> <Gold.Chemscore.Rot.Weighted>
3.3737

> <Gold.Chemscore.Internal.Correction.Weighted>
   9.000000E+99

> <Gold.Protein.RotatedTorsions>
[ 6907 6896 6895 6894 ] final  -71.40 input  -60.11 | X-H torsion
[ 7974 7965 7964 7962 ] final    8.12 input  175.53 | X-H torsion
[ 8008 7997 7996 7995 ] final   -2.87 input   59.86 | X-H torsion
[ 10167 10162 10161 10158 ] final   69.84 input  -65.29 | X-H torsion
[ 10718 10713 10712 10709 ] final  -12.27 input   66.30 | X-H torsion
[ 10763 10752 10751 10750 ] final -135.03 input  -60.55 | X-H torsion
[ 11005 11000 10999 10996 ] final   -9.98 input  -57.11 | X-H torsion

> <Gold.Protein.ActiveResidues>
 VAL166  LYS551  ARG553  GLY616  TRP617  ASP618  TYR619  PRO620  LYS621  CYS622 
 ASP623  PHE694  ASN695  SER759  ASP760  ASP761  ALA762  ILE779  LEU786  VAL792 
 PHE793  MET794  SER795  GLU796  ALA797  LYS798  CYS799  TRP800  GLU811  SER814 

> <Gold.Protein.RotatedAtoms>
  150.7214  134.5314  159.5701 H   0  0  0  0  0  0  0  0  0  0  0  0  # atno 6907 bound_to 6896
  152.2846  134.7787  160.0399 H   0  0  0  0  0  0  0  0  0  0  0  0  # atno 6908 bound_to 6896
  151.8421  133.3390  159.3683 H   0  0  0  0  0  0  0  0  0  0  0  0  # atno 6909 bound_to 6896
  146.2420  139.9981  142.8418 H   0  0  0  0  0  0  0  0  0  0  0  0  # atno 7974 bound_to 7965
  154.6310  140.2523  155.7434 H   0  0  0  0  0  0  0  0  0  0  0  0  # atno 8008 bound_to 7997
  156.2479  140.2907  156.0581 H   0  0  0  0  0  0  0  0  0  0  0  0  # atno 8009 bound_to 7997
  155.1745  140.0387  157.2860 H   0  0  0  0  0  0  0  0  0  0  0  0  # atno 8010 bound_to 7997
  140.0634  144.5213  150.7278 H   0  0  0  0  0  0  0  0  0  0  0  0  # atno 10167 bound_to 10162
  156.6471  130.4944  149.6075 H   0  0  0  0  0  0  0  0  0  0  0  0  # atno 10718 bound_to 10713
  154.8710  135.3716  154.4832 H   0  0  0  0  0  0  0  0  0  0  0  0  # atno 10763 bound_to 10752
  153.5484  135.7025  153.5608 H   0  0  0  0  0  0  0  0  0  0  0  0  # atno 10764 bound_to 10752
  153.3738  135.4014  155.1772 H   0  0  0  0  0  0  0  0  0  0  0  0  # atno 10765 bound_to 10752
  140.7399  133.8679  155.8959 H   0  0  0  0  0  0  0  0  0  0  0  0  # atno 11005 bound_to 11000
  145.1440  140.9587  143.4472 LP  0  0  0  0  0  0  0  0  0  0  0  0  # atno 17320 bound_to 7965
  145.0268  139.3375  143.6044 LP  0  0  0  0  0  0  0  0  0  0  0  0  # atno 17321 bound_to 7965
  140.7161  143.2545  151.4431 LP  0  0  0  0  0  0  0  0  0  0  0  0  # atno 17342 bound_to 10162
  139.5879  144.1563  152.2052 LP  0  0  0  0  0  0  0  0  0  0  0  0  # atno 17343 bound_to 10162
  156.2113  130.6681  151.1273 LP  0  0  0  0  0  0  0  0  0  0  0  0  # atno 17370 bound_to 10713
  157.7153  131.0713  150.6351 LP  0  0  0  0  0  0  0  0  0  0  0  0  # atno 17371 bound_to 10713
  140.9846  134.1360  157.4464 LP  0  0  0  0  0  0  0  0  0  0  0  0  # atno 17394 bound_to 11000
  139.8808  135.0021  156.6108 LP  0  0  0  0  0  0  0  0  0  0  0  0  # atno 17395 bound_to 11000

$$$$
