AV-unprocessed.smi:1518|AV-procd|sdf|6127|dock10
  -GOLD-   22720 6273D 1   1.00000     0.00000
 Structure written by MMmdl.
 46 48  0  0  0  0  0  0  0  0  2 V2000
  145.3723  134.7341  162.7263 C   0  0  0  0  0  0  0  0  0  0  0  0
  146.8659  135.0406  162.6266 C   0  0  0  0  0  0  0  0  0  0  0  0
  147.6087  134.6484  163.5258 O   0  0  0  0  0  0  0  0  0  0  0  0
  147.3454  135.8034  161.4377 C   0  0  0  0  0  0  0  0  0  0  0  0
  146.4033  136.2778  160.4972 C   0  0  0  0  0  0  0  0  0  0  0  0
  146.8257  137.0010  159.3673 C   0  0  0  0  0  0  0  0  0  0  0  0
  148.1935  137.2574  159.1663 C   0  0  0  0  0  0  0  0  0  0  0  0
  149.1540  136.7970  160.0880 C   0  0  0  0  0  0  0  0  0  0  0  0
  150.4710  137.0963  159.8124 O   0  0  0  0  0  0  0  0  0  0  0  0
  150.7673  137.8366  158.6346 C   0  0  0  0  0  0  0  0  0  0  0  0
  151.8783  138.8595  158.9231 C   0  0  1  0  0  0  0  0  0  0  0  0
  152.9379  138.2206  159.6068 O   0  0  0  0  0  0  0  0  0  0  0  0
  152.3750  139.6006  157.6651 C   0  0  0  0  0  0  0  0  0  0  0  0
  151.7111  140.8999  157.4705 N   0  0  0  0  0  0  0  0  0  0  0  0
  150.7168  141.2592  156.6076 C   0  0  0  0  0  0  0  0  0  0  0  0
  150.0272  140.3843  155.6129 C   0  0  0  0  0  0  0  0  0  0  0  0
  150.9169  139.8564  154.6544 O   0  0  0  0  0  0  0  0  0  0  0  0
  150.4509  142.5780  156.8246 N   0  3  0  0  0  0  0  0  0  0  0  0
  151.2805  143.0683  157.8334 C   0  0  0  0  0  0  0  0  0  0  0  0
  151.3774  144.3376  158.3953 C   0  0  0  0  0  0  0  0  0  0  0  0
  152.3324  144.5053  159.4194 C   0  0  0  0  0  0  0  0  0  0  0  0
  153.1440  143.4350  159.8481 C   0  0  0  0  0  0  0  0  0  0  0  0
  153.0371  142.1531  159.2700 C   0  0  0  0  0  0  0  0  0  0  0  0
  152.0920  141.9954  158.2559 C   0  0  0  0  0  0  0  0  0  0  0  0
  148.7204  136.0676  161.2247 C   0  0  0  0  0  0  0  0  0  0  0  0
  145.0503  134.1237  161.8826 H   0  0  0  0  0  0  0  0  0  0  0  0
  144.7919  135.6567  162.7351 H   0  0  0  0  0  0  0  0  0  0  0  0
  145.1558  134.1870  163.6441 H   0  0  0  0  0  0  0  0  0  0  0  0
  145.3472  136.0920  160.6317 H   0  0  0  0  0  0  0  0  0  0  0  0
  146.0989  137.3598  158.6536 H   0  0  0  0  0  0  0  0  0  0  0  0
  148.5094  137.8136  158.2958 H   0  0  0  0  0  0  0  0  0  0  0  0
  151.1197  137.1505  157.8627 H   0  0  0  0  0  0  0  0  0  0  0  0
  149.8769  138.3388  158.2519 H   0  0  0  0  0  0  0  0  0  0  0  0
  151.4736  139.5946  159.6192 H   0  0  0  0  0  0  0  0  0  0  0  0
  153.4855  137.7849  158.9713 H   0  0  0  0  0  0  0  0  0  0  0  0
  153.4541  139.7510  157.6895 H   0  0  0  0  0  0  0  0  0  0  0  0
  152.1785  138.9977  156.7784 H   0  0  0  0  0  0  0  0  0  0  0  0
  149.5385  139.5603  156.1334 H   0  0  0  0  0  0  0  0  0  0  0  0
  149.2453  140.9484  155.1050 H   0  0  0  0  0  0  0  0  0  0  0  0
  150.6047  139.0042  154.3907 H   0  0  0  0  0  0  0  0  0  0  0  0
  150.7549  145.1584  158.0702 H   0  0  0  0  0  0  0  0  0  0  0  0
  152.4430  145.4730  159.8868 H   0  0  0  0  0  0  0  0  0  0  0  0
  153.8629  143.5993  160.6378 H   0  0  0  0  0  0  0  0  0  0  0  0
  153.6598  141.3397  159.6118 H   0  0  0  0  0  0  0  0  0  0  0  0
  149.4441  135.7082  161.9388 H   0  0  0  0  0  0  0  0  0  0  0  0
  149.7468  143.1010  156.3200 H   0  0  0  0  0  0  0  0  0  0  0  0
  1  2  1  0  0  0  0
  1 26  1  0  0  0  0
  1 27  1  0  0  0  0
  1 28  1  0  0  0  0
  2  3  2  0  0  0  0
  2  4  1  0  0  0  0
  4 25  1  0  0  0  0
  4  5  2  0  0  0  0
  5  6  1  0  0  0  0
  5 29  1  0  0  0  0
  6  7  2  0  0  0  0
  6 30  1  0  0  0  0
  7  8  1  0  0  0  0
  7 31  1  0  0  0  0
  8  9  1  0  0  0  0
  8 25  2  0  0  0  0
  9 10  1  0  0  0  0
 10 11  1  0  0  0  0
 10 32  1  0  0  0  0
 10 33  1  0  0  0  0
 11 12  1  0  0  0  0
 11 13  1  0  0  0  0
 11 34  1  0  0  0  0
 12 35  1  0  0  0  0
 13 14  1  0  0  0  0
 13 36  1  0  0  0  0
 13 37  1  0  0  0  0
 14 24  1  0  0  0  0
 14 15  1  0  0  0  0
 15 16  1  0  0  0  0
 15 18  2  0  0  0  0
 16 17  1  0  0  0  0
 16 38  1  0  0  0  0
 16 39  1  0  0  0  0
 17 40  1  0  0  0  0
 18 19  1  0  0  0  0
 18 46  1  0  0  0  0
 19 24  2  0  0  0  0
 19 20  1  0  0  0  0
 20 21  2  0  0  0  0
 20 41  1  0  0  0  0
 21 22  1  0  0  0  0
 21 42  1  0  0  0  0
 22 23  2  0  0  0  0
 22 43  1  0  0  0  0
 23 24  1  0  0  0  0
 23 44  1  0  0  0  0
 25 45  1  0  0  0  0
M  CHG  1  18   1
M  END
> <s_m_source_file>
AV-unprocessed.smi

> <i_m_source_file_index>
1518

> <i_lp_mmshare_version>
43012

> <i_f3d_flags>
0

> <s_epik_input>
W0NIM11DKD1PKWMxW2NIXVtjSF1bY0hdYyhbY0hdMSlPW0NIMl1bQ0BIXShbT0hdKVtDSDJdbihjKG4yKVtDSDJdW09IXSljKGMyMylbY0hdW2NIXVtjSF1bY0hdMw==

> <s_epik_cmdline>
J2VwaWtfcHl0aG9uJywgJy1waCcsICc3LjAnLCAnLXRuJywgJzgnLCAnLW1hJywgJzIwMCcsICctbWV0YWxfYmluZGluZycsICctaW1hZScsICc8aW5maWxlLm1hZT4nLCAnLW9tYWUnLCAnPG91dGZpbGUubWFlPic=

> <r_lp_tautomer_probability>
0.99995

> <r_epik_Ionization_Penalty>
1.40416

> <r_epik_Ionization_Penalty_Charging>
1.4033

> <r_epik_Ionization_Penalty_Neutral>
0.000858184

> <r_epik_State_Penalty>
1.48564

> <r_epik_Charging_Adjusted_Penalty>
2.88894

> <i_epik_Tot_Q>
1

> <i_epik_Tot_abs_Q>
1

> <r_epik_Metal_State_Penalty>
5.52809

> <b_epik_Metal_Only>
0

> <s_lp_Force_Field>
OPLS_2005

> <r_lp_Energy>
25.8835

> <b_lp_Chiralities_Consistent>
1

> <s_lp_Variant>
AV-unprocessed.smi:1518-4

> <Gold.Version>
5.8.1

> <Gold.Id.Protein>
6NUR|6NUR_protein|mol2

> <Gold.PLP.Fitness>
57.5871

> <Gold.PLP.PLP>
-50.3300

> <Gold.PLP.part.hbond>
-4.9417

> <Gold.PLP.part.metal>
0.0000

> <Gold.PLP.part.buried>
-7.6744

> <Gold.PLP.part.nonpolar>
-38.6075

> <Gold.PLP.part.repulsive>
0.0679

> <Gold.PLP.ligand.clash>
2.1141

> <Gold.PLP.ligand.torsion>
1.0765

> <Gold.PLP.Chemscore.Hbond>
3.8125

> <Gold.PLP.Chemscore.CHOScore>
0.0000

> <Gold.PLP.Chemscore.Metal>
0.0000

> <Gold.Chemscore.Hbonds>
donor molecule, donor type, donor heavy atom, donor atom, acceptor molecule, acceptor atom, score
      L1  H    18    46       P1  8028  2.00
      P1  H  6896  6907       L1     9  0.74
      P1  H  7989  7998       L1    17  1.00

> <Gold.PLP.Chemscore.Internal.Correction>
0.0865

> <Gold.Rescore>
     Score         DG    S(hbond)    S(metal)    S(lipo)     H(rot)  DE(clash)    DE(int)     intcor
     18.15     -19.54       2.54        0.00     120.77       3.34       0.13       1.26       ----

> <Gold.Chemscore.Fitness>
18.1508

> <Gold.Chemscore.DG>
-19.5398

> <Gold.Chemscore.ZeroCoef>
-5.4800

> <Gold.Chemscore.Hbond>
2.5379

> <Gold.Chemscore.Metal>
0.0000

> <Gold.Chemscore.Lipo>
120.7729

> <Gold.Chemscore.Internal_Hbond>
0.0000

> <Gold.Chemscore.DEClash>
0.1288

> <Gold.Chemscore.DEInternal>
1.2602

> <Gold.Chemscore.Rot>
3.3387

> <Gold.Chemscore.Internal.Correction>
   9.000000E+99

> <Gold.Chemscore.Hbonds>
donor molecule, donor type, donor heavy atom, donor atom, acceptor molecule, acceptor atom, score
      L1  H    18    46       P1  8028  0.97
      P1  H  6896  6907       L1     9  0.16
      P1  H  7989  7998       L1    17  0.95

> <Gold.Chemscore.Hbond.Weighted>
-8.4765

> <Gold.Chemscore.Metal.Weighted>
-0.0000

> <Gold.Chemscore.Lipo.Weighted>
-14.1304

> <Gold.Chemscore.Internal_Hbond.Weighted>
0.0000

> <Gold.Chemscore.DEClash.Weighted>
0.1288

> <Gold.Chemscore.DEInternal.Weighted>
1.2602

> <Gold.Chemscore.Rot.Weighted>
8.5471

> <Gold.Chemscore.Internal.Correction.Weighted>
   9.000000E+99

> <Gold.Protein.RotatedTorsions>
[ 6907 6896 6895 6894 ] final  -17.27 input  -60.11 | X-H torsion
[ 7974 7965 7964 7962 ] final  -96.38 input  175.53 | X-H torsion
[ 8008 7997 7996 7995 ] final   15.48 input   59.86 | X-H torsion
[ 10167 10162 10161 10158 ] final  118.31 input  -65.29 | X-H torsion
[ 10718 10713 10712 10709 ] final  -11.27 input   66.30 | X-H torsion
[ 10763 10752 10751 10750 ] final  170.34 input  -60.55 | X-H torsion
[ 11005 11000 10999 10996 ] final -134.31 input  -57.11 | X-H torsion

> <Gold.Protein.ActiveResidues>
 VAL166  LYS551  ARG553  GLY616  TRP617  ASP618  TYR619  PRO620  LYS621  CYS622 
 ASP623  PHE694  ASN695  SER759  ASP760  ASP761  ALA762  ILE779  LEU786  VAL792 
 PHE793  MET794  SER795  GLU796  ALA797  LYS798  CYS799  TRP800  GLU811  SER814 

> <Gold.Protein.RotatedAtoms>
  151.2959  135.0755  159.9220 H   0  0  0  0  0  0  0  0  0  0  0  0  # atno 6907 bound_to 6896
  152.5307  133.9883  159.7849 H   0  0  0  0  0  0  0  0  0  0  0  0  # atno 6908 bound_to 6896
  151.0161  133.5868  159.2707 H   0  0  0  0  0  0  0  0  0  0  0  0  # atno 6909 bound_to 6896
  145.3476  140.9471  143.2572 H   0  0  0  0  0  0  0  0  0  0  0  0  # atno 7974 bound_to 7965
  154.8633  140.2947  155.5526 H   0  0  0  0  0  0  0  0  0  0  0  0  # atno 8008 bound_to 7997
  156.3020  140.2474  156.3543 H   0  0  0  0  0  0  0  0  0  0  0  0  # atno 8009 bound_to 7997
  154.8895  140.0395  157.1819 H   0  0  0  0  0  0  0  0  0  0  0  0  # atno 8010 bound_to 7997
  139.6120  144.7084  151.2824 H   0  0  0  0  0  0  0  0  0  0  0  0  # atno 10167 bound_to 10162
  156.6615  130.4983  149.6029 H   0  0  0  0  0  0  0  0  0  0  0  0  # atno 10718 bound_to 10713
  154.3962  135.2754  155.2124 H   0  0  0  0  0  0  0  0  0  0  0  0  # atno 10763 bound_to 10752
  154.4170  135.6009  153.5990 H   0  0  0  0  0  0  0  0  0  0  0  0  # atno 10764 bound_to 10752
  152.9831  135.5963  154.4224 H   0  0  0  0  0  0  0  0  0  0  0  0  # atno 10765 bound_to 10752
  140.9001  134.1701  157.4466 H   0  0  0  0  0  0  0  0  0  0  0  0  # atno 11005 bound_to 11000
  144.8742  139.4995  143.6753 LP  0  0  0  0  0  0  0  0  0  0  0  0  # atno 17320 bound_to 7965
  146.2981  139.7341  142.9111 LP  0  0  0  0  0  0  0  0  0  0  0  0  # atno 17321 bound_to 7965
  140.7325  143.6821  150.7992 LP  0  0  0  0  0  0  0  0  0  0  0  0  # atno 17342 bound_to 10162
  140.0417  143.5339  152.2715 LP  0  0  0  0  0  0  0  0  0  0  0  0  # atno 17343 bound_to 10162
  156.2007  130.6618  151.1164 LP  0  0  0  0  0  0  0  0  0  0  0  0  # atno 17370 bound_to 10713
  157.7108  131.0735  150.6507 LP  0  0  0  0  0  0  0  0  0  0  0  0  # atno 17371 bound_to 10713
  139.8741  134.9894  156.5458 LP  0  0  0  0  0  0  0  0  0  0  0  0  # atno 17394 bound_to 11000
  140.8240  133.8331  155.8922 LP  0  0  0  0  0  0  0  0  0  0  0  0  # atno 17395 bound_to 11000

$$$$
