AV-unprocessed.smi:196|AV-procd|sdf|1543|dock7
  -GOLD-   2262019403D 1   1.00000     0.00000
 Structure written by MMmdl.
 47 50  0  0  0  0  0  0  0  0  1 V2000
  150.3509  141.4937  157.0734 C   0  0  0  0  0  0  0  0  0  0  0  0
  150.8413  140.9928  155.7058 C   0  0  1  0  0  0  0  0  0  0  0  0
  151.8797  140.0456  155.9449 O   0  0  0  0  0  0  0  0  0  0  0  0
  151.8646  139.0756  154.9130 C   0  0  0  0  0  0  0  0  0  0  0  0
  150.3760  138.8534  154.6950 C   0  0  0  0  0  0  0  0  0  0  0  0
  149.7988  140.2611  154.8132 C   0  0  2  0  0  0  0  0  0  0  0  0
  149.8416  140.8527  153.5252 O   0  0  0  0  0  0  0  0  0  0  0  0
  148.3263  140.2945  155.3005 C   0  0  0  0  0  0  0  0  0  0  0  0
  147.4350  139.4662  154.5022 N   0  0  0  0  0  0  0  0  0  0  0  0
  147.1173  139.6384  153.1729 C   0  0  0  0  0  0  0  0  0  0  0  0
  146.2947  138.7546  152.6769 N   0  0  0  0  0  0  0  0  0  0  0  0
  146.0141  137.9197  153.7502 C   0  0  0  0  0  0  0  0  0  0  0  0
  145.1971  136.7726  153.9188 C   0  0  0  0  0  0  0  0  0  0  0  0
  144.4788  136.2540  152.8984 N   0  0  0  0  0  0  0  0  0  0  0  0
  145.1568  136.2282  151.6063 C   0  0  0  0  0  0  0  0  0  0  0  0
  144.8296  134.8709  150.9776 C   0  0  1  0  0  0  0  0  0  0  0  0
  145.8214  134.0156  151.2313 F   0  0  0  0  0  0  0  0  0  0  0  0
  143.5738  134.4275  151.7219 C   0  0  0  0  0  0  0  0  0  0  0  0
  143.7984  134.9795  153.1352 C   0  0  2  0  0  0  0  0  0  0  0  0
  142.4794  135.1599  153.9007 C   0  0  0  0  0  0  0  0  0  0  0  0
  142.0548  134.1178  154.6187 N   0  0  0  0  0  0  0  0  0  0  0  0
  141.8462  136.2129  153.8390 O   0  0  0  0  0  0  0  0  0  0  0  0
  145.1589  136.1900  155.1459 N   0  0  0  0  0  0  0  0  0  0  0  0
  145.8732  136.7071  156.1502 C   0  0  0  0  0  0  0  0  0  0  0  0
  146.6754  137.7744  156.1415 N   0  0  0  0  0  0  0  0  0  0  0  0
  146.7177  138.3542  154.9072 C   0  0  0  0  0  0  0  0  0  0  0  0
  144.7012  134.9142  149.8958 H   0  0  0  0  0  0  0  0  0  0  0  0
  144.4504  134.2972  153.6841 H   0  0  0  0  0  0  0  0  0  0  0  0
  149.5567  142.2327  156.9659 H   0  0  0  0  0  0  0  0  0  0  0  0
  151.1650  141.9673  157.6224 H   0  0  0  0  0  0  0  0  0  0  0  0
  149.9767  140.6752  157.6890 H   0  0  0  0  0  0  0  0  0  0  0  0
  151.2791  141.8356  155.1674 H   0  0  0  0  0  0  0  0  0  0  0  0
  152.3389  139.4796  154.0174 H   0  0  0  0  0  0  0  0  0  0  0  0
  152.3902  138.1664  155.2054 H   0  0  0  0  0  0  0  0  0  0  0  0
  150.1476  138.3585  153.7499 H   0  0  0  0  0  0  0  0  0  0  0  0
  149.9974  138.2232  155.5003 H   0  0  0  0  0  0  0  0  0  0  0  0
  149.6747  140.1802  152.8827 H   0  0  0  0  0  0  0  0  0  0  0  0
  148.2563  139.9528  156.3332 H   0  0  0  0  0  0  0  0  0  0  0  0
  147.9433  141.3157  155.2870 H   0  0  0  0  0  0  0  0  0  0  0  0
  147.5234  140.4424  152.5762 H   0  0  0  0  0  0  0  0  0  0  0  0
  144.7403  137.0325  150.9991 H   0  0  0  0  0  0  0  0  0  0  0  0
  146.2340  136.3943  151.6733 H   0  0  0  0  0  0  0  0  0  0  0  0
  142.6961  134.8837  151.2601 H   0  0  0  0  0  0  0  0  0  0  0  0
  143.4362  133.3458  151.7066 H   0  0  0  0  0  0  0  0  0  0  0  0
  141.1925  134.1820  155.1399 H   0  0  0  0  0  0  0  0  0  0  0  0
  142.5985  133.2672  154.6358 H   0  0  0  0  0  0  0  0  0  0  0  0
  145.7908  136.1920  157.0959 H   0  0  0  0  0  0  0  0  0  0  0  0
  1  2  1  0  0  0  0
  1 29  1  0  0  0  0
  1 30  1  0  0  0  0
  1 31  1  0  0  0  0
  2  6  1  0  0  0  0
  2  3  1  0  0  0  0
  2 32  1  0  0  0  0
  3  4  1  0  0  0  0
  4  5  1  0  0  0  0
  4 33  1  0  0  0  0
  4 34  1  0  0  0  0
  5  6  1  0  0  0  0
  5 35  1  0  0  0  0
  5 36  1  0  0  0  0
  6  7  1  0  0  0  0
  6  8  1  0  0  0  0
  7 37  1  0  0  0  0
  8  9  1  0  0  0  0
  8 38  1  0  0  0  0
  8 39  1  0  0  0  0
  9 26  1  0  0  0  0
  9 10  1  0  0  0  0
 10 11  2  0  0  0  0
 10 40  1  0  0  0  0
 11 12  1  0  0  0  0
 12 26  2  0  0  0  0
 12 13  1  0  0  0  0
 13 14  1  0  0  0  0
 13 23  2  0  0  0  0
 14 19  1  0  0  0  0
 14 15  1  0  0  0  0
 15 16  1  0  0  0  0
 15 41  1  0  0  0  0
 15 42  1  0  0  0  0
 16 27  1  0  0  0  0
 16 17  1  0  0  0  0
 16 18  1  0  0  0  0
 18 19  1  0  0  0  0
 18 43  1  0  0  0  0
 18 44  1  0  0  0  0
 19 28  1  0  0  0  0
 19 20  1  0  0  0  0
 20 21  1  0  0  0  0
 20 22  2  0  0  0  0
 21 45  1  0  0  0  0
 21 46  1  0  0  0  0
 23 24  1  0  0  0  0
 24 25  2  0  0  0  0
 24 47  1  0  0  0  0
 25 26  1  0  0  0  0
M  END
> <s_m_source_file>
AV-unprocessed.smi

> <i_m_source_file_index>
196

> <i_lp_mmshare_version>
43012

> <i_f3d_flags>
0

> <s_epik_input>
W0NIMl0xW0NIMl1PW0NAQEhdKFtDSDNdKVtDQEBdMShbT0hdKVtDSDJdbihbY0hdbjIpYyhjMjMpbltjSF1uYzNONFtDSDJdW0NASF0oRilbQ0gyXVtDQEhdNEMoPU8pW05IMl0=

> <s_epik_cmdline>
J2VwaWtfcHl0aG9uJywgJy1waCcsICc3LjAnLCAnLXRuJywgJzgnLCAnLW1hJywgJzIwMCcsICctbWV0YWxfYmluZGluZycsICctaW1hZScsICc8aW5maWxlLm1hZT4nLCAnLW9tYWUnLCAnPG91dGZpbGUubWFlPic=

> <r_lp_tautomer_probability>
1

> <r_epik_Ionization_Penalty>
0.000857933

> <r_epik_Ionization_Penalty_Charging>
0

> <r_epik_Ionization_Penalty_Neutral>
0.000857933

> <r_epik_State_Penalty>
0.000462053

> <r_epik_Charging_Adjusted_Penalty>
0.000462053

> <i_epik_Tot_Q>
0

> <i_epik_Tot_abs_Q>
0

> <r_epik_Metal_State_Penalty>
-0

> <b_epik_Metal_Only>
0

> <s_lp_Force_Field>
OPLS_2005

> <r_lp_Energy>
44.4191

> <b_lp_Chiralities_Consistent>
1

> <s_lp_Variant>
AV-unprocessed.smi:196-16

> <Gold.Version>
5.8.1

> <Gold.Id.Protein>
6NUR|6NUR_protein|mol2

> <Gold.PLP.Fitness>
47.7577

> <Gold.PLP.PLP>
-35.5445

> <Gold.PLP.part.hbond>
-4.3885

> <Gold.PLP.part.metal>
0.0000

> <Gold.PLP.part.buried>
-4.5091

> <Gold.PLP.part.nonpolar>
-27.1920

> <Gold.PLP.part.repulsive>
0.5750

> <Gold.PLP.ligand.clash>
0.0000

> <Gold.PLP.ligand.torsion>
1.0948

> <Gold.PLP.Chemscore.Hbond>
3.8968

> <Gold.PLP.Chemscore.CHOScore>
0.8414

> <Gold.PLP.Chemscore.Metal>
0.0000

> <Gold.Chemscore.Hbonds>
donor molecule, donor type, donor heavy atom, donor atom, acceptor molecule, acceptor atom, score
      L1  H     7    37       P1  7957  0.75
      L1  H    21    45       P1 11000  0.99
      L1  H    21    46       P1 10957  0.90
      P1  H  7989  7998       L1     7  0.25
      P1  H  8011  8017       L1     7  0.90
      L1  C    10    40       P1  7957  0.80

> <Gold.PLP.Chemscore.Internal.Correction>
0.1881

> <Gold.Rescore>
     Score         DG    S(hbond)    S(metal)    S(lipo)     H(rot)  DE(clash)    DE(int)     intcor
     10.75     -14.44       2.84        0.00      62.11       3.04       0.56       3.12       ----

> <Gold.Chemscore.Fitness>
10.7549

> <Gold.Chemscore.DG>
-14.4398

> <Gold.Chemscore.ZeroCoef>
-5.4800

> <Gold.Chemscore.Hbond>
2.8379

> <Gold.Chemscore.Metal>
0.0000

> <Gold.Chemscore.Lipo>
62.1101

> <Gold.Chemscore.Internal_Hbond>
0.0000

> <Gold.Chemscore.DEClash>
0.5603

> <Gold.Chemscore.DEInternal>
3.1247

> <Gold.Chemscore.Rot>
3.0413

> <Gold.Chemscore.Internal.Correction>
   9.000000E+99

> <Gold.Chemscore.Hbonds>
donor molecule, donor type, donor heavy atom, donor atom, acceptor molecule, acceptor atom, score
      L1  H     7    37       P1  7957  0.76
      L1  H    21    45       P1 11000  0.94
      L1  H    21    46       P1 10957  0.82
      P1  H  7989  7998       L1     7  0.01
      P1  H  8011  8017       L1     7  0.17

> <Gold.Chemscore.Hbond.Weighted>
-9.4786

> <Gold.Chemscore.Metal.Weighted>
-0.0000

> <Gold.Chemscore.Lipo.Weighted>
-7.2669

> <Gold.Chemscore.Internal_Hbond.Weighted>
0.0000

> <Gold.Chemscore.DEClash.Weighted>
0.5603

> <Gold.Chemscore.DEInternal.Weighted>
3.1247

> <Gold.Chemscore.Rot.Weighted>
7.7856

> <Gold.Chemscore.Internal.Correction.Weighted>
   9.000000E+99

> <Gold.Protein.RotatedTorsions>
[ 6907 6896 6895 6894 ] final  -95.88 input  -60.11 | X-H torsion
[ 7974 7965 7964 7962 ] final  140.25 input  175.53 | X-H torsion
[ 8008 7997 7996 7995 ] final   58.38 input   59.86 | X-H torsion
[ 10167 10162 10161 10158 ] final   -2.44 input  -65.29 | X-H torsion
[ 10718 10713 10712 10709 ] final -132.83 input   66.30 | X-H torsion
[ 10763 10752 10751 10750 ] final  -41.13 input  -60.55 | X-H torsion
[ 11005 11000 10999 10996 ] final  172.34 input  -57.11 | X-H torsion

> <Gold.Protein.ActiveResidues>
 VAL166  LYS551  ARG553  GLY616  TRP617  ASP618  TYR619  PRO620  LYS621  CYS622 
 ASP623  PHE694  ASN695  SER759  ASP760  ASP761  ALA762  ILE779  LEU786  VAL792 
 PHE793  MET794  SER795  GLU796  ALA797  LYS798  CYS799  TRP800  GLU811  SER814 

> <Gold.Protein.RotatedAtoms>
  150.6974  134.1589  159.4168 H   0  0  0  0  0  0  0  0  0  0  0  0  # atno 6907 bound_to 6896
  151.9570  135.0139  160.0554 H   0  0  0  0  0  0  0  0  0  0  0  0  # atno 6908 bound_to 6896
  152.1960  133.4772  159.5070 H   0  0  0  0  0  0  0  0  0  0  0  0  # atno 6909 bound_to 6896
  144.9203  139.5176  143.5666 H   0  0  0  0  0  0  0  0  0  0  0  0  # atno 7974 bound_to 7965
  155.5491  140.3486  155.4464 H   0  0  0  0  0  0  0  0  0  0  0  0  # atno 8008 bound_to 7997
  156.0596  140.1337  156.9982 H   0  0  0  0  0  0  0  0  0  0  0  0  # atno 8009 bound_to 7997
  154.4473  140.0988  156.6482 H   0  0  0  0  0  0  0  0  0  0  0  0  # atno 8010 bound_to 7997
  140.6851  143.6656  150.8229 H   0  0  0  0  0  0  0  0  0  0  0  0  # atno 10167 bound_to 10162
  156.2387  130.7082  151.0934 H   0  0  0  0  0  0  0  0  0  0  0  0  # atno 10718 bound_to 10713
  153.9575  135.6743  153.4745 H   0  0  0  0  0  0  0  0  0  0  0  0  # atno 10763 bound_to 10752
  153.0854  135.4901  154.8583 H   0  0  0  0  0  0  0  0  0  0  0  0  # atno 10764 bound_to 10752
  154.7291  135.3134  154.8881 H   0  0  0  0  0  0  0  0  0  0  0  0  # atno 10765 bound_to 10752
  140.3286  134.7376  157.4118 H   0  0  0  0  0  0  0  0  0  0  0  0  # atno 11005 bound_to 11000
  146.3201  139.8078  142.8952 LP  0  0  0  0  0  0  0  0  0  0  0  0  # atno 17320 bound_to 7965
  145.3307  141.0265  143.3448 LP  0  0  0  0  0  0  0  0  0  0  0  0  # atno 17321 bound_to 7965
  140.0362  143.5392  152.2738 LP  0  0  0  0  0  0  0  0  0  0  0  0  # atno 17342 bound_to 10162
  139.6203  144.7628  151.2755 LP  0  0  0  0  0  0  0  0  0  0  0  0  # atno 17343 bound_to 10162
  157.7165  131.0706  150.6304 LP  0  0  0  0  0  0  0  0  0  0  0  0  # atno 17370 bound_to 10713
  156.6376  130.4449  149.5764 LP  0  0  0  0  0  0  0  0  0  0  0  0  # atno 17371 bound_to 10713
  140.0880  134.5640  155.8473 LP  0  0  0  0  0  0  0  0  0  0  0  0  # atno 17394 bound_to 11000
  141.2069  133.6659  156.6270 LP  0  0  0  0  0  0  0  0  0  0  0  0  # atno 17395 bound_to 11000

$$$$
