AV-unprocessed.smi:1776|AV-procd|sdf|7174|dock3
  -GOLD-   22720 8413D 1   1.00000     0.00000
 Structure written by MMmdl.
 31 32  0  0  0  0  0  0  0  0  1 V2000
  149.4954  141.9693  158.3841 O   0  0  0  0  0  0  0  0  0  0  0  0
  150.6862  142.0405  158.0809 C   0  0  0  0  0  0  0  0  0  0  0  0
  151.2433  141.4793  156.9884 N   0  0  0  0  0  0  0  0  0  0  0  0
  150.6608  140.7176  155.9600 C   0  0  0  0  0  0  0  0  0  0  0  0
  149.4050  140.8883  155.4682 C   0  0  0  0  0  0  0  0  0  0  0  0
  148.8768  140.0619  154.3955 C   0  0  0  0  0  0  0  0  0  0  0  0
  147.4452  140.2170  153.9058 C   0  0  0  0  0  0  0  0  0  0  0  0
  147.2169  141.4505  153.4528 F   0  0  0  0  0  0  0  0  0  0  0  0
  147.1816  139.3550  152.9236 F   0  0  0  0  0  0  0  0  0  0  0  0
  146.5972  139.9776  154.9050 F   0  0  0  0  0  0  0  0  0  0  0  0
  149.6925  139.1041  153.9176 C   0  0  0  0  0  0  0  0  0  0  0  0
  150.9892  138.9318  154.4057 N   0  0  0  0  0  0  0  0  0  0  0  0
  151.5334  139.6738  155.3959 C   0  0  0  0  0  0  0  0  0  0  0  0
  152.6855  139.4578  155.7707 O   0  0  0  0  0  0  0  0  0  0  0  0
  151.6580  142.8255  158.9749 C   0  0  1  0  0  0  0  0  0  0  0  0
  151.3097  144.3285  159.0844 C   0  0  0  0  0  0  0  0  0  0  0  0
  152.2342  144.9632  159.9587 O   0  0  0  0  0  0  0  0  0  0  0  0
  152.1947  144.3902  161.2583 C   0  0  0  0  0  0  0  0  0  0  0  0
  152.5527  142.8988  161.1553 C   0  0  0  0  0  0  0  0  0  0  0  0
  151.6300  142.2601  160.2833 O   0  0  0  0  0  0  0  0  0  0  0  0
  151.5440  138.1999  153.9857 H   0  0  0  0  0  0  0  0  0  0  0  0
  152.2416  141.6044  156.8960 H   0  0  0  0  0  0  0  0  0  0  0  0
  148.7525  141.6562  155.8473 H   0  0  0  0  0  0  0  0  0  0  0  0
  149.4210  138.4038  153.1416 H   0  0  0  0  0  0  0  0  0  0  0  0
  152.6587  142.7105  158.5543 H   0  0  0  0  0  0  0  0  0  0  0  0
  151.3739  144.8114  158.1086 H   0  0  0  0  0  0  0  0  0  0  0  0
  150.2916  144.4745  159.4502 H   0  0  0  0  0  0  0  0  0  0  0  0
  152.9081  144.9087  161.8992 H   0  0  0  0  0  0  0  0  0  0  0  0
  151.2066  144.5246  161.7014 H   0  0  0  0  0  0  0  0  0  0  0  0
  153.5721  142.7665  160.7894 H   0  0  0  0  0  0  0  0  0  0  0  0
  152.4988  142.4276  162.1368 H   0  0  0  0  0  0  0  0  0  0  0  0
  1  2  2  0  0  0  0
  2  3  1  0  0  0  0
  2 15  1  0  0  0  0
  3  4  1  0  0  0  0
  3 22  1  0  0  0  0
  4 13  1  0  0  0  0
  4  5  2  0  0  0  0
  5  6  1  0  0  0  0
  5 23  1  0  0  0  0
  6  7  1  0  0  0  0
  6 11  2  0  0  0  0
  7  8  1  0  0  0  0
  7  9  1  0  0  0  0
  7 10  1  0  0  0  0
 11 12  1  0  0  0  0
 11 24  1  0  0  0  0
 12 21  1  0  0  0  0
 12 13  1  0  0  0  0
 13 14  2  0  0  0  0
 15 20  1  0  0  0  0
 15 16  1  0  0  0  0
 15 25  1  0  0  0  0
 16 17  1  0  0  0  0
 16 26  1  0  0  0  0
 16 27  1  0  0  0  0
 17 18  1  0  0  0  0
 18 19  1  0  0  0  0
 18 28  1  0  0  0  0
 18 29  1  0  0  0  0
 19 20  1  0  0  0  0
 19 30  1  0  0  0  0
 19 31  1  0  0  0  0
M  END
> <s_m_source_file>
AV-unprocessed.smi

> <i_m_source_file_index>
1776

> <i_lp_mmshare_version>
43012

> <i_f3d_flags>
0

> <s_epik_input>
TzFbQ0gyXVtDSDJdT1tDSDJdW0NASF0xQyg9TylbTkhdYzJbY0hdYyhDKEYpKEYpRilbY0hdW25IXWMyPU8=

> <s_epik_cmdline>
J2VwaWtfcHl0aG9uJywgJy1waCcsICc3LjAnLCAnLXRuJywgJzgnLCAnLW1hJywgJzIwMCcsICctbWV0YWxfYmluZGluZycsICctaW1hZScsICc8aW5maWxlLm1hZT4nLCAnLW9tYWUnLCAnPG91dGZpbGUubWFlPic=

> <r_lp_tautomer_probability>
0.999

> <r_epik_Ionization_Penalty>
0.0100875

> <r_epik_Ionization_Penalty_Charging>
0.0100873

> <r_epik_Ionization_Penalty_Neutral>
1.79075e-07

> <r_epik_State_Penalty>
0.00769562

> <r_epik_Charging_Adjusted_Penalty>
0.017783

> <i_epik_Tot_Q>
0

> <i_epik_Tot_abs_Q>
0

> <r_epik_Metal_State_Penalty>
0.325451

> <b_epik_Metal_Only>
0

> <s_lp_Force_Field>
OPLS_2005

> <r_lp_Energy>
23.697

> <b_lp_Chiralities_Consistent>
1

> <s_lp_Variant>
AV-unprocessed.smi:1776-2

> <Gold.Version>
5.8.1

> <Gold.Id.Protein>
6NUR|6NUR_protein|mol2

> <Gold.PLP.Fitness>
42.3308

> <Gold.PLP.PLP>
-37.1836

> <Gold.PLP.part.hbond>
-2.0000

> <Gold.PLP.part.metal>
0.0000

> <Gold.PLP.part.buried>
-2.8420

> <Gold.PLP.part.nonpolar>
-31.3261

> <Gold.PLP.part.repulsive>
0.3787

> <Gold.PLP.ligand.clash>
1.3652

> <Gold.PLP.ligand.torsion>
0.2655

> <Gold.PLP.Chemscore.Hbond>
1.0000

> <Gold.PLP.Chemscore.CHOScore>
1.3374

> <Gold.PLP.Chemscore.Metal>
0.0000

> <Gold.Chemscore.Hbonds>
donor molecule, donor type, donor heavy atom, donor atom, acceptor molecule, acceptor atom, score
      P1  H  7997  8010       L1    14  1.00
      L1  C    11    24       P1  7948  1.00
      L1  C    11    24       P1  7957  0.33

> <Gold.PLP.Chemscore.Internal.Correction>
0.0311

> <Gold.Rescore>
     Score         DG    S(hbond)    S(metal)    S(lipo)     H(rot)  DE(clash)    DE(int)     intcor
     15.16     -15.57       1.00        0.00      79.60       1.00       0.14       0.27       ----

> <Gold.Chemscore.Fitness>
15.1611

> <Gold.Chemscore.DG>
-15.5734

> <Gold.Chemscore.ZeroCoef>
-5.4800

> <Gold.Chemscore.Hbond>
1.0000

> <Gold.Chemscore.Metal>
0.0000

> <Gold.Chemscore.Lipo>
79.6020

> <Gold.Chemscore.Internal_Hbond>
0.0000

> <Gold.Chemscore.DEClash>
0.1390

> <Gold.Chemscore.DEInternal>
0.2733

> <Gold.Chemscore.Rot>
1.0000

> <Gold.Chemscore.Internal.Correction>
   9.000000E+99

> <Gold.Chemscore.Hbonds>
donor molecule, donor type, donor heavy atom, donor atom, acceptor molecule, acceptor atom, score
      P1  H  7997  8010       L1    14  1.00

> <Gold.Chemscore.Hbond.Weighted>
-3.3399

> <Gold.Chemscore.Metal.Weighted>
-0.0000

> <Gold.Chemscore.Lipo.Weighted>
-9.3134

> <Gold.Chemscore.Internal_Hbond.Weighted>
0.0000

> <Gold.Chemscore.DEClash.Weighted>
0.1390

> <Gold.Chemscore.DEInternal.Weighted>
0.2733

> <Gold.Chemscore.Rot.Weighted>
2.5600

> <Gold.Chemscore.Internal.Correction.Weighted>
   9.000000E+99

> <Gold.Protein.RotatedTorsions>
[ 6907 6896 6895 6894 ] final -166.64 input  -60.11 | X-H torsion
[ 7974 7965 7964 7962 ] final  -44.66 input  175.53 | X-H torsion
[ 8008 7997 7996 7995 ] final   76.45 input   59.86 | X-H torsion
[ 10167 10162 10161 10158 ] final  -26.88 input  -65.29 | X-H torsion
[ 10718 10713 10712 10709 ] final -170.37 input   66.30 | X-H torsion
[ 10763 10752 10751 10750 ] final   59.11 input  -60.55 | X-H torsion
[ 11005 11000 10999 10996 ] final   75.81 input  -57.11 | X-H torsion

> <Gold.Protein.ActiveResidues>
 VAL166  LYS551  ARG553  GLY616  TRP617  ASP618  TYR619  PRO620  LYS621  CYS622 
 ASP623  PHE694  ASN695  SER759  ASP760  ASP761  ALA762  ILE779  LEU786  VAL792 
 PHE793  MET794  SER795  GLU796  ALA797  LYS798  CYS799  TRP800  GLU811  SER814 

> <Gold.Protein.RotatedAtoms>
  151.4469  133.3628  159.2789 H   0  0  0  0  0  0  0  0  0  0  0  0  # atno 6907 bound_to 6896
  150.9118  134.8537  159.7441 H   0  0  0  0  0  0  0  0  0  0  0  0  # atno 6908 bound_to 6896
  152.4936  134.4399  159.9592 H   0  0  0  0  0  0  0  0  0  0  0  0  # atno 6909 bound_to 6896
  145.9898  140.7193  142.9322 H   0  0  0  0  0  0  0  0  0  0  0  0  # atno 7974 bound_to 7965
  155.8276  140.3467  155.5552 H   0  0  0  0  0  0  0  0  0  0  0  0  # atno 8008 bound_to 7997
  155.8276  140.0922  157.1831 H   0  0  0  0  0  0  0  0  0  0  0  0  # atno 8009 bound_to 7997
  154.4004  140.1418  156.3563 H   0  0  0  0  0  0  0  0  0  0  0  0  # atno 8010 bound_to 7997
  140.7280  143.4140  151.1058 H   0  0  0  0  0  0  0  0  0  0  0  0  # atno 10167 bound_to 10162
  156.7252  130.9285  151.3100 H   0  0  0  0  0  0  0  0  0  0  0  0  # atno 10718 bound_to 10713
  152.9886  135.5583  154.5660 H   0  0  0  0  0  0  0  0  0  0  0  0  # atno 10763 bound_to 10752
  154.5070  135.2800  155.1376 H   0  0  0  0  0  0  0  0  0  0  0  0  # atno 10764 bound_to 10752
  154.2784  135.6349  153.5390 H   0  0  0  0  0  0  0  0  0  0  0  0  # atno 10765 bound_to 10752
  139.9326  134.7549  156.1317 H   0  0  0  0  0  0  0  0  0  0  0  0  # atno 11005 bound_to 11000
  144.6885  140.3051  143.7257 LP  0  0  0  0  0  0  0  0  0  0  0  0  # atno 17320 bound_to 7965
  145.7646  139.1836  143.2247 LP  0  0  0  0  0  0  0  0  0  0  0  0  # atno 17321 bound_to 7965
  139.7777  143.8400  152.3132 LP  0  0  0  0  0  0  0  0  0  0  0  0  # atno 17342 bound_to 10162
  139.8341  144.7240  150.9413 LP  0  0  0  0  0  0  0  0  0  0  0  0  # atno 17343 bound_to 10162
  157.6882  130.9206  150.0442 LP  0  0  0  0  0  0  0  0  0  0  0  0  # atno 17370 bound_to 10713
  156.1567  130.3643  149.9358 LP  0  0  0  0  0  0  0  0  0  0  0  0  # atno 17371 bound_to 10713
  141.0924  133.6709  156.2569 LP  0  0  0  0  0  0  0  0  0  0  0  0  # atno 17394 bound_to 11000
  140.6160  134.5410  157.5540 LP  0  0  0  0  0  0  0  0  0  0  0  0  # atno 17395 bound_to 11000

$$$$
