AV-unprocessed.smi:148|AV-procd|sdf|1232|dock9
  -GOLD-   2262018443D 1   1.00000     0.00000
 Structure written by MMmdl.
 63 67  0  0  0  0  0  0  0  0  1 V2000
  148.1550  133.0065  152.2584 O   0  0  0  0  0  0  0  0  0  0  0  0
  148.8722  132.6033  153.4056 C   0  0  0  0  0  0  0  0  0  0  0  0
  148.9632  133.7357  154.4605 C   0  0  2  0  0  0  0  0  0  0  0  0
  149.9144  134.8622  153.9824 C   0  0  0  0  0  0  0  0  0  0  0  0
  149.9315  136.0174  154.8628 N   0  0  0  0  0  0  0  0  0  0  0  0
  149.1651  136.2128  155.9905 C   0  0  0  0  0  0  0  0  0  0  0  0
  149.3616  137.3463  156.6077 N   0  0  0  0  0  0  0  0  0  0  0  0
  150.3282  137.9824  155.8395 C   0  0  0  0  0  0  0  0  0  0  0  0
  150.9856  139.2372  155.9224 C   0  0  0  0  0  0  0  0  0  0  0  0
  150.7244  140.1168  156.9169 N   0  0  0  0  0  0  0  0  0  0  0  0
  151.9494  140.3753  157.6742 C   0  0  0  0  0  0  0  0  0  0  0  0
  151.6666  141.1945  158.9389 C   0  0  0  0  0  0  0  0  0  0  0  0
  150.9441  142.4935  158.5728 C   0  0  0  0  0  0  0  0  0  0  0  0
  149.6547  142.1749  157.8048 C   0  0  0  0  0  0  0  0  0  0  0  0
  149.9234  141.3009  156.5507 C   0  0  2  0  0  0  0  0  0  0  0  0
  148.6192  140.9236  155.7775 C   0  0  1  0  0  0  0  0  0  0  0  0
  147.3132  140.9584  156.5981 C   0  0  0  0  0  0  0  0  0  0  0  0
  146.1968  141.3682  155.6240 C   0  0  0  0  0  0  0  0  0  0  0  0
  146.8419  141.4235  154.2369 C   0  0  0  0  0  0  0  0  0  0  0  0
  148.3067  141.7516  154.5210 C   0  0  2  0  0  0  0  0  0  0  0  0
  149.1344  141.4028  153.4306 O   0  0  0  0  0  0  0  0  0  0  0  0
  151.9080  139.5385  154.9698 N   0  0  0  0  0  0  0  0  0  0  0  0
  152.1573  138.6690  153.9857 C   0  0  0  0  0  0  0  0  0  0  0  0
  151.6134  137.4680  153.7746 N   0  0  0  0  0  0  0  0  0  0  0  0
  150.6970  137.1626  154.7377 C   0  0  0  0  0  0  0  0  0  0  0  0
  149.4039  133.2095  155.8548 C   0  0  1  0  0  0  0  0  0  0  0  0
  148.7847  131.8816  156.2614 C   0  0  0  0  0  0  0  0  0  0  0  0
  149.7058  131.4152  157.3833 C   0  0  0  0  0  0  0  0  0  0  0  0
  150.9918  131.9334  157.0670 O   0  0  0  0  0  0  0  0  0  0  0  0
  150.8906  132.8592  155.9902 C   0  0  0  0  0  0  0  0  0  0  0  0
  148.3440  132.4019  151.5570 H   0  0  0  0  0  0  0  0  0  0  0  0
  148.4093  131.7134  153.8326 H   0  0  0  0  0  0  0  0  0  0  0  0
  149.8585  132.3050  153.0535 H   0  0  0  0  0  0  0  0  0  0  0  0
  147.9701  134.1757  154.5643 H   0  0  0  0  0  0  0  0  0  0  0  0
  150.9412  134.5036  153.9157 H   0  0  0  0  0  0  0  0  0  0  0  0
  149.6354  135.1900  152.9800 H   0  0  0  0  0  0  0  0  0  0  0  0
  148.4539  135.4812  156.3457 H   0  0  0  0  0  0  0  0  0  0  0  0
  152.4202  139.4314  157.9541 H   0  0  0  0  0  0  0  0  0  0  0  0
  152.6603  140.9089  157.0413 H   0  0  0  0  0  0  0  0  0  0  0  0
  151.0547  140.6109  159.6279 H   0  0  0  0  0  0  0  0  0  0  0  0
  152.5995  141.4158  159.4578 H   0  0  0  0  0  0  0  0  0  0  0  0
  150.7142  143.0640  159.4731 H   0  0  0  0  0  0  0  0  0  0  0  0
  151.5945  143.1202  157.9614 H   0  0  0  0  0  0  0  0  0  0  0  0
  148.9621  141.6744  158.4805 H   0  0  0  0  0  0  0  0  0  0  0  0
  149.1872  143.1177  157.5257 H   0  0  0  0  0  0  0  0  0  0  0  0
  150.5377  141.9003  155.8770 H   0  0  0  0  0  0  0  0  0  0  0  0
  148.7179  139.8971  155.4206 H   0  0  0  0  0  0  0  0  0  0  0  0
  147.1124  139.9803  157.0361 H   0  0  0  0  0  0  0  0  0  0  0  0
  147.3594  141.6676  157.4230 H   0  0  0  0  0  0  0  0  0  0  0  0
  145.3515  140.6802  155.6512 H   0  0  0  0  0  0  0  0  0  0  0  0
  145.8222  142.3562  155.8953 H   0  0  0  0  0  0  0  0  0  0  0  0
  146.7608  140.4440  153.7622 H   0  0  0  0  0  0  0  0  0  0  0  0
  146.3658  142.1516  153.5794 H   0  0  0  0  0  0  0  0  0  0  0  0
  148.3891  142.8206  154.7115 H   0  0  0  0  0  0  0  0  0  0  0  0
  148.6616  140.8025  152.8745 H   0  0  0  0  0  0  0  0  0  0  0  0
  152.8978  138.9807  153.2639 H   0  0  0  0  0  0  0  0  0  0  0  0
  149.1535  133.9505  156.6159 H   0  0  0  0  0  0  0  0  0  0  0  0
  147.7496  131.9677  156.5924 H   0  0  0  0  0  0  0  0  0  0  0  0
  148.8204  131.1756  155.4300 H   0  0  0  0  0  0  0  0  0  0  0  0
  149.3875  131.8380  158.3370 H   0  0  0  0  0  0  0  0  0  0  0  0
  149.7249  130.3297  157.4826 H   0  0  0  0  0  0  0  0  0  0  0  0
  151.2562  132.3695  155.0864 H   0  0  0  0  0  0  0  0  0  0  0  0
  151.5119  133.7354  156.1765 H   0  0  0  0  0  0  0  0  0  0  0  0
  1  2  1  0  0  0  0
  1 31  1  0  0  0  0
  2  3  1  0  0  0  0
  2 32  1  0  0  0  0
  2 33  1  0  0  0  0
  3  4  1  0  0  0  0
  3 26  1  0  0  0  0
  3 34  1  0  0  0  0
  4  5  1  0  0  0  0
  4 35  1  0  0  0  0
  4 36  1  0  0  0  0
  5 25  1  0  0  0  0
  5  6  1  0  0  0  0
  6  7  2  0  0  0  0
  6 37  1  0  0  0  0
  7  8  1  0  0  0  0
  8 25  2  0  0  0  0
  8  9  1  0  0  0  0
  9 10  1  0  0  0  0
  9 22  2  0  0  0  0
 10 15  1  0  0  0  0
 10 11  1  0  0  0  0
 11 12  1  0  0  0  0
 11 38  1  0  0  0  0
 11 39  1  0  0  0  0
 12 13  1  0  0  0  0
 12 40  1  0  0  0  0
 12 41  1  0  0  0  0
 13 14  1  0  0  0  0
 13 42  1  0  0  0  0
 13 43  1  0  0  0  0
 14 15  1  0  0  0  0
 14 44  1  0  0  0  0
 14 45  1  0  0  0  0
 15 16  1  0  0  0  0
 15 46  1  0  0  0  0
 16 20  1  0  0  0  0
 16 17  1  0  0  0  0
 16 47  1  0  0  0  0
 17 18  1  0  0  0  0
 17 48  1  0  0  0  0
 17 49  1  0  0  0  0
 18 19  1  0  0  0  0
 18 50  1  0  0  0  0
 18 51  1  0  0  0  0
 19 20  1  0  0  0  0
 19 52  1  0  0  0  0
 19 53  1  0  0  0  0
 20 21  1  0  0  0  0
 20 54  1  0  0  0  0
 21 55  1  0  0  0  0
 22 23  1  0  0  0  0
 23 24  2  0  0  0  0
 23 56  1  0  0  0  0
 24 25  1  0  0  0  0
 26 30  1  0  0  0  0
 26 27  1  0  0  0  0
 26 57  1  0  0  0  0
 27 28  1  0  0  0  0
 27 58  1  0  0  0  0
 27 59  1  0  0  0  0
 28 29  1  0  0  0  0
 28 60  1  0  0  0  0
 28 61  1  0  0  0  0
 29 30  1  0  0  0  0
 30 62  1  0  0  0  0
 30 63  1  0  0  0  0
M  END
> <s_m_source_file>
AV-unprocessed.smi

> <i_m_source_file_index>
148

> <i_lp_mmshare_version>
43012

> <i_f3d_flags>
0

> <s_epik_input>
W0NIMl0xT1tDSDJdW0NIMl1bQ0BIXTFbQ0BIXShbQ0gyXVtPSF0pW0NIMl1uKFtjSF1uMiljKGMyMyluW2NIXW5jM040W0NIMl1bQ0gyXVtDSDJdW0NIMl1bQ0BIXTRbQ0BASF01W0NIMl1bQ0gyXVtDSDJdW0NASF01W09IXQ==

> <s_epik_cmdline>
J2VwaWtfcHl0aG9uJywgJy1waCcsICc3LjAnLCAnLXRuJywgJzgnLCAnLW1hJywgJzIwMCcsICctbWV0YWxfYmluZGluZycsICctaW1hZScsICc8aW5maWxlLm1hZT4nLCAnLW9tYWUnLCAnPG91dGZpbGUubWFlPic=

> <r_lp_tautomer_probability>
1

> <r_epik_Ionization_Penalty>
0.00556303

> <r_epik_Ionization_Penalty_Charging>
0

> <r_epik_Ionization_Penalty_Neutral>
0.00556303

> <r_epik_State_Penalty>
0.00401767

> <r_epik_Charging_Adjusted_Penalty>
0.00401767

> <i_epik_Tot_Q>
0

> <i_epik_Tot_abs_Q>
0

> <r_epik_Metal_State_Penalty>
-0

> <b_epik_Metal_Only>
0

> <s_lp_Force_Field>
OPLS_2005

> <r_lp_Energy>
68.3277

> <b_lp_Chiralities_Consistent>
1

> <s_lp_Variant>
AV-unprocessed.smi:148-31

> <Gold.Version>
5.8.1

> <Gold.Id.Protein>
6NUR|6NUR_protein|mol2

> <Gold.PLP.Fitness>
50.0848

> <Gold.PLP.PLP>
-42.0797

> <Gold.PLP.part.hbond>
-5.7186

> <Gold.PLP.part.metal>
0.0000

> <Gold.PLP.part.buried>
-6.8580

> <Gold.PLP.part.nonpolar>
-29.8487

> <Gold.PLP.part.repulsive>
0.5638

> <Gold.PLP.ligand.clash>
0.0000

> <Gold.PLP.ligand.torsion>
1.6707

> <Gold.PLP.Chemscore.Hbond>
3.6501

> <Gold.PLP.Chemscore.CHOScore>
0.0000

> <Gold.PLP.Chemscore.Metal>
0.0000

> <Gold.Chemscore.Hbonds>
donor molecule, donor type, donor heavy atom, donor atom, acceptor molecule, acceptor atom, score
      L1  H     1    31       P1 10747  0.84
      L1  H    21    55       P1  7957  0.32
      P1  H  7989  7998       L1    22  0.24
      P1  H  8011  8017       L1    21  0.93
      P1  H 10752 10765       L1    24  0.36

> <Gold.PLP.Chemscore.Internal.Correction>
0.3962

> <Gold.Rescore>
     Score         DG    S(hbond)    S(metal)    S(lipo)     H(rot)  DE(clash)    DE(int)     intcor
     14.07     -15.66       2.68        0.00      83.12       3.32       0.05       1.53       ----

> <Gold.Chemscore.Fitness>
14.0683

> <Gold.Chemscore.DG>
-15.6552

> <Gold.Chemscore.ZeroCoef>
-5.4800

> <Gold.Chemscore.Hbond>
2.6796

> <Gold.Chemscore.Metal>
0.0000

> <Gold.Chemscore.Lipo>
83.1221

> <Gold.Chemscore.Internal_Hbond>
0.0000

> <Gold.Chemscore.DEClash>
0.0530

> <Gold.Chemscore.DEInternal>
1.5339

> <Gold.Chemscore.Rot>
3.3203

> <Gold.Chemscore.Internal.Correction>
   9.000000E+99

> <Gold.Chemscore.Hbonds>
donor molecule, donor type, donor heavy atom, donor atom, acceptor molecule, acceptor atom, score
      L1  H     1    31       P1 10747  0.82
      L1  H    21    55       P1  7957  0.31
      P1  H  8011  8017       L1    21  0.27
      P1  H 10752 10765       L1    24  0.05

> <Gold.Chemscore.Hbond.Weighted>
-8.9499

> <Gold.Chemscore.Metal.Weighted>
-0.0000

> <Gold.Chemscore.Lipo.Weighted>
-9.7253

> <Gold.Chemscore.Internal_Hbond.Weighted>
0.0000

> <Gold.Chemscore.DEClash.Weighted>
0.0530

> <Gold.Chemscore.DEInternal.Weighted>
1.5339

> <Gold.Chemscore.Rot.Weighted>
8.5000

> <Gold.Chemscore.Internal.Correction.Weighted>
   9.000000E+99

> <Gold.Protein.RotatedTorsions>
[ 6907 6896 6895 6894 ] final -118.46 input  -60.11 | X-H torsion
[ 7974 7965 7964 7962 ] final  130.45 input  175.53 | X-H torsion
[ 8008 7997 7996 7995 ] final   57.56 input   59.86 | X-H torsion
[ 10167 10162 10161 10158 ] final -148.16 input  -65.29 | X-H torsion
[ 10718 10713 10712 10709 ] final   39.95 input   66.30 | X-H torsion
[ 10763 10752 10751 10750 ] final  151.87 input  -60.55 | X-H torsion
[ 11005 11000 10999 10996 ] final   41.36 input  -57.11 | X-H torsion

> <Gold.Protein.ActiveResidues>
 VAL166  LYS551  ARG553  GLY616  TRP617  ASP618  TYR619  PRO620  LYS621  CYS622 
 ASP623  PHE694  ASN695  SER759  ASP760  ASP761  ALA762  ILE779  LEU786  VAL792 
 PHE793  MET794  SER795  GLU796  ALA797  LYS798  CYS799  TRP800  GLU811  SER814 

> <Gold.Protein.RotatedAtoms>
  150.8222  133.8234  159.3134 H   0  0  0  0  0  0  0  0  0  0  0  0  # atno 6907 bound_to 6896
  151.5989  135.1047  160.0065 H   0  0  0  0  0  0  0  0  0  0  0  0  # atno 6908 bound_to 6896
  152.4310  133.7236  159.6604 H   0  0  0  0  0  0  0  0  0  0  0  0  # atno 6909 bound_to 6896
  145.0178  139.4160  143.5212 H   0  0  0  0  0  0  0  0  0  0  0  0  # atno 7974 bound_to 7965
  155.5357  140.3483  155.4436 H   0  0  0  0  0  0  0  0  0  0  0  0  # atno 8008 bound_to 7997
  156.0687  140.1357  156.9882 H   0  0  0  0  0  0  0  0  0  0  0  0  # atno 8009 bound_to 7997
  154.4516  140.0970  156.6610 H   0  0  0  0  0  0  0  0  0  0  0  0  # atno 8010 bound_to 7997
  139.7557  143.8452  152.2596 H   0  0  0  0  0  0  0  0  0  0  0  0  # atno 10167 bound_to 10162
  157.3765  130.7730  149.7159 H   0  0  0  0  0  0  0  0  0  0  0  0  # atno 10718 bound_to 10713
  154.1107  135.2839  155.3231 H   0  0  0  0  0  0  0  0  0  0  0  0  # atno 10763 bound_to 10752
  154.6491  135.5375  153.7884 H   0  0  0  0  0  0  0  0  0  0  0  0  # atno 10764 bound_to 10752
  153.0346  135.6505  154.1266 H   0  0  0  0  0  0  0  0  0  0  0  0  # atno 10765 bound_to 10752
  140.1842  134.4066  155.8183 H   0  0  0  0  0  0  0  0  0  0  0  0  # atno 11005 bound_to 11000
  146.3480  139.9659  142.8712 LP  0  0  0  0  0  0  0  0  0  0  0  0  # atno 17320 bound_to 7965
  145.1936  140.9823  143.4196 LP  0  0  0  0  0  0  0  0  0  0  0  0  # atno 17321 bound_to 7965
  139.8443  144.7195  150.9292 LP  0  0  0  0  0  0  0  0  0  0  0  0  # atno 17342 bound_to 10162
  140.7802  143.3955  151.1237 LP  0  0  0  0  0  0  0  0  0  0  0  0  # atno 17343 bound_to 10162
  155.9766  130.4073  150.3766 LP  0  0  0  0  0  0  0  0  0  0  0  0  # atno 17370 bound_to 10713
  157.1864  131.0404  151.2722 LP  0  0  0  0  0  0  0  0  0  0  0  0  # atno 17371 bound_to 10713
  141.2224  133.7015  156.7983 LP  0  0  0  0  0  0  0  0  0  0  0  0  # atno 17394 bound_to 11000
  140.2233  134.8741  157.3400 LP  0  0  0  0  0  0  0  0  0  0  0  0  # atno 17395 bound_to 11000

$$$$
