AV-unprocessed.smi:3348|AV-procd|sdf|12919|dock4
  -GOLD-   2272019333D 1   1.00000     0.00000
 Structure written by MMmdl.
 47 48  0  0  0  0  0  0  0  0  2 V2000
  145.8766  135.3886  153.1717 C   0  0  0  0  0  0  0  0  0  0  0  0
  145.3391  136.4174  152.1620 C   0  0  2  0  0  0  0  0  0  0  0  0
  144.8752  135.7703  150.8363 C   0  0  0  0  0  0  0  0  0  0  0  0
  144.9238  134.3191  150.8682 N   0  0  0  0  0  0  0  0  0  0  0  0
  143.8771  133.4256  150.7790 C   0  0  0  0  0  0  0  0  0  0  0  0
  144.4069  132.1696  150.8580 C   0  0  0  0  0  0  0  0  0  0  0  0
  145.8046  132.4000  150.9917 C   0  0  0  0  0  0  0  0  0  0  0  0
  146.1108  133.6877  150.9965 N   0  0  0  0  0  0  0  0  0  0  0  0
  146.3759  137.4460  151.9218 N   0  3  0  0  0  0  0  0  0  0  0  0
  146.5109  138.4768  152.9734 C   0  0  0  0  0  0  0  0  0  0  0  0
  147.2903  137.9294  154.1730 C   0  0  0  0  0  0  0  0  0  0  0  0
  147.9702  139.0084  154.7952 O   0  0  0  0  0  0  0  0  0  0  0  0
  148.9646  139.6298  153.9876 C   0  0  2  0  0  0  0  0  0  0  0  0
  150.3267  138.9278  154.1727 C   0  0  0  0  0  0  0  0  0  0  0  0
  150.8637  139.0940  155.6037 C   0  0  0  0  0  0  0  0  0  0  0  0
  150.9497  140.5766  155.9968 C   0  0  0  0  0  0  0  0  0  0  0  0
  149.5943  141.2801  155.8225 C   0  0  0  0  0  0  0  0  0  0  0  0
  149.0541  141.1196  154.3873 C   0  0  2  0  0  0  0  0  0  0  0  0
  147.7145  141.8486  154.1960 C   0  0  0  0  0  0  0  0  0  0  0  0
  145.1078  134.6742  153.4676 H   0  0  0  0  0  0  0  0  0  0  0  0
  146.2257  135.8769  154.0822 H   0  0  0  0  0  0  0  0  0  0  0  0
  146.7122  134.8243  152.7555 H   0  0  0  0  0  0  0  0  0  0  0  0
  144.4844  136.9098  152.6285 H   0  0  0  0  0  0  0  0  0  0  0  0
  143.8500  136.0574  150.6028 H   0  0  0  0  0  0  0  0  0  0  0  0
  145.4919  136.1243  150.0080 H   0  0  0  0  0  0  0  0  0  0  0  0
  142.8538  133.7539  150.6703 H   0  0  0  0  0  0  0  0  0  0  0  0
  143.8777  131.2289  150.8237 H   0  0  0  0  0  0  0  0  0  0  0  0
  146.5997  131.6748  151.0845 H   0  0  0  0  0  0  0  0  0  0  0  0
  147.2643  136.9708  151.8518 H   0  0  0  0  0  0  0  0  0  0  0  0
  147.0128  139.3610  152.5807 H   0  0  0  0  0  0  0  0  0  0  0  0
  145.5169  138.7860  153.2989 H   0  0  0  0  0  0  0  0  0  0  0  0
  146.6006  137.4618  154.8755 H   0  0  0  0  0  0  0  0  0  0  0  0
  147.9962  137.1640  153.8466 H   0  0  0  0  0  0  0  0  0  0  0  0
  148.6723  139.5782  152.9370 H   0  0  0  0  0  0  0  0  0  0  0  0
  150.2571  137.8697  153.9224 H   0  0  0  0  0  0  0  0  0  0  0  0
  151.0456  139.3533  153.4716 H   0  0  0  0  0  0  0  0  0  0  0  0
  150.2149  138.5662  156.3037 H   0  0  0  0  0  0  0  0  0  0  0  0
  151.8474  138.6309  155.6863 H   0  0  0  0  0  0  0  0  0  0  0  0
  151.2858  140.6688  157.0300 H   0  0  0  0  0  0  0  0  0  0  0  0
  151.7013  141.0741  155.3826 H   0  0  0  0  0  0  0  0  0  0  0  0
  148.8778  140.8732  156.5373 H   0  0  0  0  0  0  0  0  0  0  0  0
  149.7004  142.3384  156.0638 H   0  0  0  0  0  0  0  0  0  0  0  0
  149.7709  141.5941  153.7151 H   0  0  0  0  0  0  0  0  0  0  0  0
  146.9440  141.4508  154.8570 H   0  0  0  0  0  0  0  0  0  0  0  0
  147.3568  141.7509  153.1706 H   0  0  0  0  0  0  0  0  0  0  0  0
  147.8149  142.9131  154.4093 H   0  0  0  0  0  0  0  0  0  0  0  0
  146.1889  137.9003  151.0389 H   0  0  0  0  0  0  0  0  0  0  0  0
  1  2  1  0  0  0  0
  1 20  1  0  0  0  0
  1 21  1  0  0  0  0
  1 22  1  0  0  0  0
  2  3  1  0  0  0  0
  2  9  1  0  0  0  0
  2 23  1  0  0  0  0
  3  4  1  0  0  0  0
  3 24  1  0  0  0  0
  3 25  1  0  0  0  0
  4  8  1  0  0  0  0
  4  5  1  0  0  0  0
  5  6  2  0  0  0  0
  5 26  1  0  0  0  0
  6  7  1  0  0  0  0
  6 27  1  0  0  0  0
  7  8  2  0  0  0  0
  7 28  1  0  0  0  0
  9 10  1  0  0  0  0
  9 29  1  0  0  0  0
  9 47  1  0  0  0  0
 10 11  1  0  0  0  0
 10 30  1  0  0  0  0
 10 31  1  0  0  0  0
 11 12  1  0  0  0  0
 11 32  1  0  0  0  0
 11 33  1  0  0  0  0
 12 13  1  0  0  0  0
 13 18  1  0  0  0  0
 13 14  1  0  0  0  0
 13 34  1  0  0  0  0
 14 15  1  0  0  0  0
 14 35  1  0  0  0  0
 14 36  1  0  0  0  0
 15 16  1  0  0  0  0
 15 37  1  0  0  0  0
 15 38  1  0  0  0  0
 16 17  1  0  0  0  0
 16 39  1  0  0  0  0
 16 40  1  0  0  0  0
 17 18  1  0  0  0  0
 17 41  1  0  0  0  0
 17 42  1  0  0  0  0
 18 19  1  0  0  0  0
 18 43  1  0  0  0  0
 19 44  1  0  0  0  0
 19 45  1  0  0  0  0
 19 46  1  0  0  0  0
M  CHG  1   9   1
M  END
> <s_m_source_file>
AV-unprocessed.smi

> <i_m_source_file_index>
3348

> <i_lp_mmshare_version>
43012

> <i_f3d_flags>
0

> <s_epik_input>
bjFbY0hdW2NIXVtjSF1uMVtDSDJdW0NAQEhdKFtDSDNdKVtOSF1bQ0gyXVtDSDJdT1tDQEBIXTJbQ0gyXVtDSDJdW0NIMl1bQ0gyXVtDQEhdMltDSDNd

> <s_epik_cmdline>
J2VwaWtfcHl0aG9uJywgJy1waCcsICc3LjAnLCAnLXRuJywgJzgnLCAnLW1hJywgJzIwMCcsICctbWV0YWxfYmluZGluZycsICctaW1hZScsICc8aW5maWxlLm1hZT4nLCAnLW9tYWUnLCAnPG91dGZpbGUubWFlPic=

> <r_lp_tautomer_probability>
1

> <r_epik_Ionization_Penalty>
0.00925088

> <r_epik_Ionization_Penalty_Charging>
0.00924645

> <r_epik_Ionization_Penalty_Neutral>
4.42413e-06

> <r_epik_State_Penalty>
0.0070118

> <r_epik_Charging_Adjusted_Penalty>
0.0162583

> <i_epik_Tot_Q>
1

> <i_epik_Tot_abs_Q>
1

> <r_epik_Metal_State_Penalty>
0.00701222

> <b_epik_Metal_Only>
0

> <s_lp_Force_Field>
OPLS_2005

> <r_lp_Energy>
17.0128

> <b_lp_Chiralities_Consistent>
1

> <s_lp_Variant>
AV-unprocessed.smi:3348-5

> <Gold.Version>
5.8.1

> <Gold.Id.Protein>
6NUR|6NUR_protein|mol2

> <Gold.PLP.Fitness>
46.8318

> <Gold.PLP.PLP>
-37.7986

> <Gold.PLP.part.hbond>
-1.0000

> <Gold.PLP.part.metal>
0.0000

> <Gold.PLP.part.buried>
-2.1591

> <Gold.PLP.part.nonpolar>
-35.1333

> <Gold.PLP.part.repulsive>
0.3714

> <Gold.PLP.ligand.clash>
0.0000

> <Gold.PLP.ligand.torsion>
1.5801

> <Gold.PLP.Chemscore.Hbond>
2.0000

> <Gold.PLP.Chemscore.CHOScore>
2.0000

> <Gold.PLP.Chemscore.Metal>
0.0000

> <Gold.Chemscore.Hbonds>
donor molecule, donor type, donor heavy atom, donor atom, acceptor molecule, acceptor atom, score
      L1  H     9    29       P1  7948  2.00
      L1  C     5    26       P1 10186  1.00
      L1  C     7    28       P1 10747  0.73

> <Gold.PLP.Chemscore.Internal.Correction>
0.1934

> <Gold.Rescore>
     Score         DG    S(hbond)    S(metal)    S(lipo)     H(rot)  DE(clash)    DE(int)     intcor
     12.20     -15.30       1.00        0.00      95.19       1.82       0.08       3.02       ----

> <Gold.Chemscore.Fitness>
12.2018

> <Gold.Chemscore.DG>
-15.2958

> <Gold.Chemscore.ZeroCoef>
-5.4800

> <Gold.Chemscore.Hbond>
0.9966

> <Gold.Chemscore.Metal>
0.0000

> <Gold.Chemscore.Lipo>
95.1880

> <Gold.Chemscore.Internal_Hbond>
0.0000

> <Gold.Chemscore.DEClash>
0.0770

> <Gold.Chemscore.DEInternal>
3.0170

> <Gold.Chemscore.Rot>
1.8163

> <Gold.Chemscore.Internal.Correction>
   9.000000E+99

> <Gold.Chemscore.Hbonds>
donor molecule, donor type, donor heavy atom, donor atom, acceptor molecule, acceptor atom, score
      L1  H     9    29       P1  7948  1.00

> <Gold.Chemscore.Hbond.Weighted>
-3.3286

> <Gold.Chemscore.Metal.Weighted>
-0.0000

> <Gold.Chemscore.Lipo.Weighted>
-11.1370

> <Gold.Chemscore.Internal_Hbond.Weighted>
0.0000

> <Gold.Chemscore.DEClash.Weighted>
0.0770

> <Gold.Chemscore.DEInternal.Weighted>
3.0170

> <Gold.Chemscore.Rot.Weighted>
4.6497

> <Gold.Chemscore.Internal.Correction.Weighted>
   9.000000E+99

> <Gold.Protein.RotatedTorsions>
[ 6907 6896 6895 6894 ] final  -93.34 input  -60.11 | X-H torsion
[ 7974 7965 7964 7962 ] final  125.82 input  175.53 | X-H torsion
[ 8008 7997 7996 7995 ] final -163.96 input   59.86 | X-H torsion
[ 10167 10162 10161 10158 ] final  -21.67 input  -65.29 | X-H torsion
[ 10718 10713 10712 10709 ] final  179.68 input   66.30 | X-H torsion
[ 10763 10752 10751 10750 ] final -157.27 input  -60.55 | X-H torsion
[ 11005 11000 10999 10996 ] final -103.74 input  -57.11 | X-H torsion

> <Gold.Protein.ActiveResidues>
 VAL166  LYS551  ARG553  GLY616  TRP617  ASP618  TYR619  PRO620  LYS621  CYS622 
 ASP623  PHE694  ASN695  SER759  ASP760  ASP761  ALA762  ILE779  LEU786  VAL792 
 PHE793  MET794  SER795  GLU796  ALA797  LYS798  CYS799  TRP800  GLU811  SER814 

> <Gold.Protein.RotatedAtoms>
  150.6921  134.1983  159.4311 H   0  0  0  0  0  0  0  0  0  0  0  0  # atno 6907 bound_to 6896
  151.9950  134.9956  160.0572 H   0  0  0  0  0  0  0  0  0  0  0  0  # atno 6908 bound_to 6896
  152.1632  133.4560  159.4908 H   0  0  0  0  0  0  0  0  0  0  0  0  # atno 6909 bound_to 6896
  145.0687  139.3747  143.4969 H   0  0  0  0  0  0  0  0  0  0  0  0  # atno 7974 bound_to 7965
  155.8288  140.0930  157.1805 H   0  0  0  0  0  0  0  0  0  0  0  0  # atno 8008 bound_to 7997
  154.3979  140.1423  156.3650 H   0  0  0  0  0  0  0  0  0  0  0  0  # atno 8009 bound_to 7997
  155.8188  140.3447  155.5504 H   0  0  0  0  0  0  0  0  0  0  0  0  # atno 8010 bound_to 7997
  140.7283  143.4606  151.0385 H   0  0  0  0  0  0  0  0  0  0  0  0  # atno 10167 bound_to 10162
  156.8721  130.9787  151.3072 H   0  0  0  0  0  0  0  0  0  0  0  0  # atno 10718 bound_to 10713
  154.7649  135.3128  154.8306 H   0  0  0  0  0  0  0  0  0  0  0  0  # atno 10763 bound_to 10752
  153.9056  135.6811  153.4757 H   0  0  0  0  0  0  0  0  0  0  0  0  # atno 10764 bound_to 10752
  153.1254  135.4804  154.9196 H   0  0  0  0  0  0  0  0  0  0  0  0  # atno 10765 bound_to 10752
  141.1132  133.8665  157.1524 H   0  0  0  0  0  0  0  0  0  0  0  0  # atno 11005 bound_to 11000
  146.3528  140.0421  142.8642 LP  0  0  0  0  0  0  0  0  0  0  0  0  # atno 17320 bound_to 7965
  145.1319  140.9523  143.4539 LP  0  0  0  0  0  0  0  0  0  0  0  0  # atno 17321 bound_to 7965
  139.8290  143.7716  152.3179 LP  0  0  0  0  0  0  0  0  0  0  0  0  # atno 17342 bound_to 10162
  139.7825  144.7439  151.0068 LP  0  0  0  0  0  0  0  0  0  0  0  0  # atno 17343 bound_to 10162
  157.6189  130.8640  149.9076 LP  0  0  0  0  0  0  0  0  0  0  0  0  # atno 17370 bound_to 10713
  156.0721  130.3684  150.0754 LP  0  0  0  0  0  0  0  0  0  0  0  0  # atno 17371 bound_to 10713
  140.0038  135.0017  157.0247 LP  0  0  0  0  0  0  0  0  0  0  0  0  # atno 17394 bound_to 11000
  140.4718  134.1378  155.7204 LP  0  0  0  0  0  0  0  0  0  0  0  0  # atno 17395 bound_to 11000

$$$$
