AV-unprocessed.smi:1072|AV-procd|sdf|4688|dock9
  -GOLD-   22720 3203D 1   1.00000     0.00000
 Structure written by MMmdl.
 45 46  0  0  0  0  0  0  0  0  2 V2000
  152.4011  130.4794  158.5506 C   0  0  0  0  0  0  0  0  0  0  0  0
  151.7176  131.2073  157.4130 C   0  0  0  0  0  0  0  0  0  0  0  0
  151.2778  130.5368  156.4173 N   0  0  0  0  0  0  0  0  0  0  0  0
  150.6424  131.2075  155.3585 C   0  0  0  0  0  0  0  0  0  0  0  0
  150.1536  130.3325  154.2172 C   0  0  0  0  0  0  0  0  0  0  0  0
  150.4844  132.5622  155.3745 C   0  0  0  0  0  0  0  0  0  0  0  0
  149.8042  133.3359  154.2451 C   0  0  0  0  0  0  0  0  0  0  0  0
  148.3882  132.8825  153.8808 C   0  0  0  0  0  0  0  0  0  0  0  0
  147.8941  131.8973  154.4287 O   0  0  0  0  0  0  0  0  0  0  0  0
  147.7620  133.6190  152.9449 N   0  0  0  0  0  0  0  0  0  0  0  0
  146.4272  133.4420  152.3556 C   0  0  1  0  0  0  0  0  0  0  0  0
  145.4382  133.6047  153.5299 C   0  0  0  0  0  0  0  0  0  0  0  0
  146.1637  134.5312  151.2790 C   0  0  0  0  0  0  0  0  0  0  0  0
  144.8523  134.3121  150.5033 C   0  0  0  0  0  0  0  0  0  0  0  0
  144.7904  132.9084  149.8748 C   0  0  2  0  0  0  0  0  0  0  0  0
  143.4854  132.7013  149.0933 C   0  0  0  0  0  0  0  0  0  0  0  0
  144.9784  131.8277  150.9547 C   0  0  0  0  0  0  0  0  0  0  0  0
  146.2915  132.0246  151.7335 C   0  0  0  0  0  0  0  0  0  0  0  0
  151.0021  133.2977  156.5424 C   0  0  0  0  0  0  0  0  0  0  0  0
  150.8757  134.5196  156.6136 O   0  0  0  0  0  0  0  0  0  0  0  0
  151.6140  132.5758  157.5243 N   0  5  0  0  0  0  0  0  0  0  0  0
  152.2182  129.4054  158.4953 H   0  0  0  0  0  0  0  0  0  0  0  0
  152.0301  130.8373  159.5116 H   0  0  0  0  0  0  0  0  0  0  0  0
  153.4776  130.6472  158.5104 H   0  0  0  0  0  0  0  0  0  0  0  0
  150.6712  130.5868  153.2922 H   0  0  0  0  0  0  0  0  0  0  0  0
  149.0823  130.4623  154.0641 H   0  0  0  0  0  0  0  0  0  0  0  0
  150.3353  129.2771  154.4233 H   0  0  0  0  0  0  0  0  0  0  0  0
  149.7724  134.4025  154.4681 H   0  0  0  0  0  0  0  0  0  0  0  0
  150.4345  133.2595  153.3584 H   0  0  0  0  0  0  0  0  0  0  0  0
  148.2851  134.4030  152.5831 H   0  0  0  0  0  0  0  0  0  0  0  0
  144.3998  133.4926  153.2215 H   0  0  0  0  0  0  0  0  0  0  0  0
  145.5309  134.5888  153.9910 H   0  0  0  0  0  0  0  0  0  0  0  0
  145.6236  132.8628  154.3077 H   0  0  0  0  0  0  0  0  0  0  0  0
  146.1582  135.5206  151.7382 H   0  0  0  0  0  0  0  0  0  0  0  0
  146.9718  134.5499  150.5484 H   0  0  0  0  0  0  0  0  0  0  0  0
  143.9971  134.4642  151.1619 H   0  0  0  0  0  0  0  0  0  0  0  0
  144.7677  135.0686  149.7225 H   0  0  0  0  0  0  0  0  0  0  0  0
  145.6153  132.8209  149.1661 H   0  0  0  0  0  0  0  0  0  0  0  0
  142.6154  132.7771  149.7463 H   0  0  0  0  0  0  0  0  0  0  0  0
  143.4626  131.7193  148.6201 H   0  0  0  0  0  0  0  0  0  0  0  0
  143.3774  133.4479  148.3061 H   0  0  0  0  0  0  0  0  0  0  0  0
  144.1306  131.8331  151.6401 H   0  0  0  0  0  0  0  0  0  0  0  0
  144.9819  130.8406  150.4908 H   0  0  0  0  0  0  0  0  0  0  0  0
  147.1092  131.8323  151.0397 H   0  0  0  0  0  0  0  0  0  0  0  0
  146.3770  131.2628  152.5093 H   0  0  0  0  0  0  0  0  0  0  0  0
  1  2  1  0  0  0  0
  1 22  1  0  0  0  0
  1 23  1  0  0  0  0
  1 24  1  0  0  0  0
  2 21  1  0  0  0  0
  2  3  2  0  0  0  0
  3  4  1  0  0  0  0
  4  5  1  0  0  0  0
  4  6  2  0  0  0  0
  5 25  1  0  0  0  0
  5 26  1  0  0  0  0
  5 27  1  0  0  0  0
  6  7  1  0  0  0  0
  6 19  1  0  0  0  0
  7  8  1  0  0  0  0
  7 28  1  0  0  0  0
  7 29  1  0  0  0  0
  8  9  2  0  0  0  0
  8 10  1  0  0  0  0
 10 11  1  0  0  0  0
 10 30  1  0  0  0  0
 11 18  1  0  0  0  0
 11 12  1  0  0  0  0
 11 13  1  0  0  0  0
 12 31  1  0  0  0  0
 12 32  1  0  0  0  0
 12 33  1  0  0  0  0
 13 14  1  0  0  0  0
 13 34  1  0  0  0  0
 13 35  1  0  0  0  0
 14 15  1  0  0  0  0
 14 36  1  0  0  0  0
 14 37  1  0  0  0  0
 15 16  1  0  0  0  0
 15 17  1  0  0  0  0
 15 38  1  0  0  0  0
 16 39  1  0  0  0  0
 16 40  1  0  0  0  0
 16 41  1  0  0  0  0
 17 18  1  0  0  0  0
 17 42  1  0  0  0  0
 17 43  1  0  0  0  0
 18 44  1  0  0  0  0
 18 45  1  0  0  0  0
 19 20  2  0  0  0  0
 19 21  1  0  0  0  0
M  CHG  1  21  -1
M  END
> <s_m_source_file>
AV-unprocessed.smi

> <i_m_source_file_index>
1072

> <i_lp_mmshare_version>
43012

> <i_f3d_flags>
0

> <s_epik_input>
W0NIM11jMW5jKFtDSDNdKWMoYyg9TylbbkhdMSlbQ0gyXUMoPU8pW05IXVtDQEBdMihbQ0gzXSlbQ0gyXVtDSDJdW0NAQEhdKFtDSDNdKVtDSDJdW0NIMl0y

> <s_epik_cmdline>
J2VwaWtfcHl0aG9uJywgJy1waCcsICc3LjAnLCAnLXRuJywgJzgnLCAnLW1hJywgJzIwMCcsICctbWV0YWxfYmluZGluZycsICctaW1hZScsICc8aW5maWxlLm1hZT4nLCAnLW9tYWUnLCAnPG91dGZpbGUubWFlPic=

> <r_lp_tautomer_probability>
0.839158

> <r_epik_Ionization_Penalty>
6.73882

> <r_epik_Ionization_Penalty_Charging>
8.02239e-08

> <r_epik_Ionization_Penalty_Neutral>
6.73882

> <r_epik_State_Penalty>
4.55873

> <r_epik_Charging_Adjusted_Penalty>
4.55873

> <i_epik_Tot_Q>
-1

> <i_epik_Tot_abs_Q>
1

> <r_epik_Metal_State_Penalty>
0.872514

> <b_epik_Metal_Only>
1

> <s_lp_Force_Field>
OPLS_2005

> <r_lp_Energy>
18.4266

> <b_lp_Chiralities_Consistent>
1

> <s_lp_Variant>
AV-unprocessed.smi:1072-6

> <Gold.Version>
5.8.1

> <Gold.Id.Protein>
6NUR|6NUR_protein|mol2

> <Gold.PLP.Fitness>
43.2703

> <Gold.PLP.PLP>
-34.5185

> <Gold.PLP.part.hbond>
-2.0000

> <Gold.PLP.part.metal>
0.0000

> <Gold.PLP.part.buried>
-3.5804

> <Gold.PLP.part.nonpolar>
-29.1475

> <Gold.PLP.part.repulsive>
0.0258

> <Gold.PLP.ligand.clash>
0.0000

> <Gold.PLP.ligand.torsion>
0.0508

> <Gold.PLP.Chemscore.Hbond>
2.9500

> <Gold.PLP.Chemscore.CHOScore>
0.0000

> <Gold.PLP.Chemscore.Metal>
0.0000

> <Gold.Chemscore.Hbonds>
donor molecule, donor type, donor heavy atom, donor atom, acceptor molecule, acceptor atom, score
      L1  H    10    30       P1  7948  0.90
      P1  H  6896  6907       L1    21  2.00

> <Gold.PLP.Chemscore.Internal.Correction>
0.0033

> <Gold.Rescore>
     Score         DG    S(hbond)    S(metal)    S(lipo)     H(rot)  DE(clash)    DE(int)     intcor
     13.02     -15.14       1.18        0.00      80.14       1.43       0.03       2.09       ----

> <Gold.Chemscore.Fitness>
13.0206

> <Gold.Chemscore.DG>
-15.1354

> <Gold.Chemscore.ZeroCoef>
-5.4800

> <Gold.Chemscore.Hbond>
1.1827

> <Gold.Chemscore.Metal>
0.0000

> <Gold.Chemscore.Lipo>
80.1370

> <Gold.Chemscore.Internal_Hbond>
0.0000

> <Gold.Chemscore.DEClash>
0.0274

> <Gold.Chemscore.DEInternal>
2.0874

> <Gold.Chemscore.Rot>
1.4339

> <Gold.Chemscore.Internal.Correction>
   9.000000E+99

> <Gold.Chemscore.Hbonds>
donor molecule, donor type, donor heavy atom, donor atom, acceptor molecule, acceptor atom, score
      L1  H    10    30       P1  7948  0.17
      P1  H  6896  6907       L1    21  0.88

> <Gold.Chemscore.Hbond.Weighted>
-3.9502

> <Gold.Chemscore.Metal.Weighted>
-0.0000

> <Gold.Chemscore.Lipo.Weighted>
-9.3760

> <Gold.Chemscore.Internal_Hbond.Weighted>
0.0000

> <Gold.Chemscore.DEClash.Weighted>
0.0274

> <Gold.Chemscore.DEInternal.Weighted>
2.0874

> <Gold.Chemscore.Rot.Weighted>
3.6708

> <Gold.Chemscore.Internal.Correction.Weighted>
   9.000000E+99

> <Gold.Protein.RotatedTorsions>
[ 6907 6896 6895 6894 ] final -177.08 input  -60.11 | X-H torsion
[ 7974 7965 7964 7962 ] final  -17.44 input  175.53 | X-H torsion
[ 8008 7997 7996 7995 ] final  155.53 input   59.86 | X-H torsion
[ 10167 10162 10161 10158 ] final  -99.89 input  -65.29 | X-H torsion
[ 10718 10713 10712 10709 ] final -145.06 input   66.30 | X-H torsion
[ 10763 10752 10751 10750 ] final  -59.57 input  -60.55 | X-H torsion
[ 11005 11000 10999 10996 ] final  -13.19 input  -57.11 | X-H torsion

> <Gold.Protein.ActiveResidues>
 VAL166  LYS551  ARG553  GLY616  TRP617  ASP618  TYR619  PRO620  LYS621  CYS622 
 ASP623  PHE694  ASN695  SER759  ASP760  ASP761  ALA762  ILE779  LEU786  VAL792 
 PHE793  MET794  SER795  GLU796  ALA797  LYS798  CYS799  TRP800  GLU811  SER814 

> <Gold.Protein.RotatedAtoms>
  151.6152  133.3344  159.3075 H   0  0  0  0  0  0  0  0  0  0  0  0  # atno 6907 bound_to 6896
  150.8135  134.7308  159.6721 H   0  0  0  0  0  0  0  0  0  0  0  0  # atno 6908 bound_to 6896
  152.4232  134.5922  160.0029 H   0  0  0  0  0  0  0  0  0  0  0  0  # atno 6909 bound_to 6896
  146.1941  140.3779  142.8447 H   0  0  0  0  0  0  0  0  0  0  0  0  # atno 7974 bound_to 7965
  156.2473  140.1937  156.6815 H   0  0  0  0  0  0  0  0  0  0  0  0  # atno 8008 bound_to 7997
  154.6318  140.0595  156.9767 H   0  0  0  0  0  0  0  0  0  0  0  0  # atno 8009 bound_to 7997
  155.1699  140.3267  155.4397 H   0  0  0  0  0  0  0  0  0  0  0  0  # atno 8010 bound_to 7997
  140.2576  143.3429  152.0656 H   0  0  0  0  0  0  0  0  0  0  0  0  # atno 10167 bound_to 10162
  156.3778  130.7821  151.2010 H   0  0  0  0  0  0  0  0  0  0  0  0  # atno 10718 bound_to 10713
  154.2558  135.6317  153.5256 H   0  0  0  0  0  0  0  0  0  0  0  0  # atno 10763 bound_to 10752
  152.9904  135.5576  154.5758 H   0  0  0  0  0  0  0  0  0  0  0  0  # atno 10764 bound_to 10752
  154.5296  135.2887  155.1167 H   0  0  0  0  0  0  0  0  0  0  0  0  # atno 10765 bound_to 10752
  140.7735  133.8419  155.9228 H   0  0  0  0  0  0  0  0  0  0  0  0  # atno 11005 bound_to 11000
  144.8544  140.7049  143.6147 LP  0  0  0  0  0  0  0  0  0  0  0  0  # atno 17320 bound_to 7965
  145.3700  139.1661  143.4337 LP  0  0  0  0  0  0  0  0  0  0  0  0  # atno 17321 bound_to 7965
  139.5026  144.6739  151.6176 LP  0  0  0  0  0  0  0  0  0  0  0  0  # atno 17342 bound_to 10162
  140.5991  143.9642  150.6374 LP  0  0  0  0  0  0  0  0  0  0  0  0  # atno 17343 bound_to 10162
  157.7490  131.0353  150.4357 LP  0  0  0  0  0  0  0  0  0  0  0  0  # atno 17370 bound_to 10713
  156.4596  130.4029  149.6585 LP  0  0  0  0  0  0  0  0  0  0  0  0  # atno 17371 bound_to 10713
  140.9551  134.1729  157.4698 LP  0  0  0  0  0  0  0  0  0  0  0  0  # atno 17394 bound_to 11000
  139.8752  134.9924  156.5593 LP  0  0  0  0  0  0  0  0  0  0  0  0  # atno 17395 bound_to 11000

$$$$
