AV-unprocessed.smi:2780|AV-procd|sdf|10714|dock6
  -GOLD-   2272015153D 1   1.00000     0.00000
 Structure written by MMmdl.
 47 49  0  0  0  0  0  0  0  0  2 V2000
  152.1072  139.6096  158.4198 C   0  0  0  0  0  0  0  0  0  0  0  0
  152.5043  140.8443  159.2123 C   0  0  0  0  0  0  0  0  0  0  0  0
  153.6498  140.8430  159.9204 C   0  0  0  0  0  0  0  0  0  0  0  0
  154.1099  141.9824  160.8001 C   0  0  0  0  0  0  0  0  0  0  0  0
  152.9372  142.8862  161.1867 C   0  0  0  0  0  0  0  0  0  0  0  0
  152.1083  143.2903  159.9563 C   0  0  2  0  0  0  0  0  0  0  0  0
  150.9982  144.2687  160.3876 C   0  0  0  0  0  0  0  0  0  0  0  0
  151.5480  142.0546  159.1857 C   0  0  1  0  0  0  0  0  0  0  0  0
  151.1387  142.4646  157.7460 C   0  0  0  0  0  0  0  0  0  0  0  0
  149.6845  142.6823  157.6018 N   0  3  0  0  0  0  0  0  0  0  0  0
  148.9361  141.4891  157.1635 C   0  0  0  0  0  0  0  0  0  0  0  0
  148.8029  141.4564  155.6351 C   0  0  0  0  0  0  0  0  0  0  0  0
  149.4841  140.3094  155.0631 N   0  0  0  0  0  0  0  0  0  0  0  0
  150.7925  140.0134  155.1033 C   0  0  0  0  0  0  0  0  0  0  0  0
  151.1325  138.8760  154.4994 N   0  0  0  0  0  0  0  0  0  0  0  0
  149.9414  138.3674  154.0211 N   0  0  0  0  0  0  0  0  0  0  0  0
  149.0038  139.2560  154.3701 C   0  0  0  0  0  0  0  0  0  0  0  0
  147.5473  139.0793  154.0798 C   0  0  0  0  0  0  0  0  0  0  0  0
  147.0479  138.8671  152.6675 C   0  0  0  0  0  0  0  0  0  0  0  0
  146.7530  140.1607  153.3808 C   0  0  0  0  0  0  0  0  0  0  0  0
  151.0859  139.3131  158.6596 H   0  0  0  0  0  0  0  0  0  0  0  0
  152.7578  138.7651  158.6502 H   0  0  0  0  0  0  0  0  0  0  0  0
  152.1829  139.7931  157.3482 H   0  0  0  0  0  0  0  0  0  0  0  0
  154.3010  139.9811  159.8918 H   0  0  0  0  0  0  0  0  0  0  0  0
  154.5734  141.5757  161.6995 H   0  0  0  0  0  0  0  0  0  0  0  0
  154.8780  142.5461  160.2698 H   0  0  0  0  0  0  0  0  0  0  0  0
  152.2984  142.3665  161.9024 H   0  0  0  0  0  0  0  0  0  0  0  0
  153.3175  143.7707  161.6994 H   0  0  0  0  0  0  0  0  0  0  0  0
  152.7817  143.8283  159.2871 H   0  0  0  0  0  0  0  0  0  0  0  0
  150.2824  143.7853  161.0531 H   0  0  0  0  0  0  0  0  0  0  0  0
  150.4434  144.6708  159.5414 H   0  0  0  0  0  0  0  0  0  0  0  0
  151.4173  145.1213  160.9229 H   0  0  0  0  0  0  0  0  0  0  0  0
  150.6521  141.7261  159.7149 H   0  0  0  0  0  0  0  0  0  0  0  0
  151.6278  143.3899  157.4459 H   0  0  0  0  0  0  0  0  0  0  0  0
  151.4687  141.7019  157.0389 H   0  0  0  0  0  0  0  0  0  0  0  0
  149.3189  142.9771  158.4962 H   0  0  0  0  0  0  0  0  0  0  0  0
  149.4480  140.5941  157.5176 H   0  0  0  0  0  0  0  0  0  0  0  0
  147.9478  141.4989  157.6254 H   0  0  0  0  0  0  0  0  0  0  0  0
  147.7517  141.4057  155.3478 H   0  0  0  0  0  0  0  0  0  0  0  0
  149.2047  142.3688  155.1934 H   0  0  0  0  0  0  0  0  0  0  0  0
  151.5182  140.6467  155.5925 H   0  0  0  0  0  0  0  0  0  0  0  0
  147.0612  138.5234  154.8791 H   0  0  0  0  0  0  0  0  0  0  0  0
  147.7765  138.8963  151.8594 H   0  0  0  0  0  0  0  0  0  0  0  0
  146.2239  138.1708  152.5266 H   0  0  0  0  0  0  0  0  0  0  0  0
  145.7320  140.3295  153.7162 H   0  0  0  0  0  0  0  0  0  0  0  0
  147.2839  141.0455  153.0359 H   0  0  0  0  0  0  0  0  0  0  0  0
  149.5353  143.4236  156.9322 H   0  0  0  0  0  0  0  0  0  0  0  0
  1  2  1  0  0  0  0
  1 21  1  0  0  0  0
  1 22  1  0  0  0  0
  1 23  1  0  0  0  0
  2  8  1  0  0  0  0
  2  3  2  0  0  0  0
  3  4  1  0  0  0  0
  3 24  1  0  0  0  0
  4  5  1  0  0  0  0
  4 25  1  0  0  0  0
  4 26  1  0  0  0  0
  5  6  1  0  0  0  0
  5 27  1  0  0  0  0
  5 28  1  0  0  0  0
  6  7  1  0  0  0  0
  6  8  1  0  0  0  0
  6 29  1  0  0  0  0
  7 30  1  0  0  0  0
  7 31  1  0  0  0  0
  7 32  1  0  0  0  0
  8  9  1  0  0  0  0
  8 33  1  0  0  0  0
  9 10  1  0  0  0  0
  9 34  1  0  0  0  0
  9 35  1  0  0  0  0
 10 11  1  0  0  0  0
 10 36  1  0  0  0  0
 10 47  1  0  0  0  0
 11 12  1  0  0  0  0
 11 37  1  0  0  0  0
 11 38  1  0  0  0  0
 12 13  1  0  0  0  0
 12 39  1  0  0  0  0
 12 40  1  0  0  0  0
 13 17  1  0  0  0  0
 13 14  1  0  0  0  0
 14 15  2  0  0  0  0
 14 41  1  0  0  0  0
 15 16  1  0  0  0  0
 16 17  2  0  0  0  0
 17 18  1  0  0  0  0
 18 20  1  0  0  0  0
 18 19  1  0  0  0  0
 18 42  1  0  0  0  0
 19 20  1  0  0  0  0
 19 43  1  0  0  0  0
 19 44  1  0  0  0  0
 20 45  1  0  0  0  0
 20 46  1  0  0  0  0
M  CHG  1  10   1
M  END
> <s_m_source_file>
AV-unprocessed.smi

> <i_m_source_file_index>
2780

> <i_lp_mmshare_version>
43012

> <i_f3d_flags>
0

> <s_epik_input>
W0NIM11DMT1bQ0hdW0NIMl1bQ0gyXVtDQEBIXShbQ0gzXSlbQ0BIXTFbQ0gyXVtOSF1bQ0gyXVtDSDJdbjJbY0hdbm5jMltDSF0zW0NIMl1bQ0gyXTM=

> <s_epik_cmdline>
J2VwaWtfcHl0aG9uJywgJy1waCcsICc3LjAnLCAnLXRuJywgJzgnLCAnLW1hJywgJzIwMCcsICctbWV0YWxfYmluZGluZycsICctaW1hZScsICc8aW5maWxlLm1hZT4nLCAnLW9tYWUnLCAnPG91dGZpbGUubWFlPic=

> <r_lp_tautomer_probability>
1

> <r_epik_Ionization_Penalty>
0.00176214

> <r_epik_Ionization_Penalty_Charging>
0.00175191

> <r_epik_Ionization_Penalty_Neutral>
1.02377e-05

> <r_epik_State_Penalty>
-0

> <r_epik_Charging_Adjusted_Penalty>
0.00175191

> <i_epik_Tot_Q>
1

> <i_epik_Tot_abs_Q>
1

> <r_epik_Metal_State_Penalty>
-0

> <b_epik_Metal_Only>
0

> <s_lp_Force_Field>
OPLS_2005

> <r_lp_Energy>
22.2191

> <b_lp_Chiralities_Consistent>
1

> <s_lp_Variant>
AV-unprocessed.smi:2780-2

> <Gold.Version>
5.8.1

> <Gold.Id.Protein>
6NUR|6NUR_protein|mol2

> <Gold.PLP.Fitness>
43.5211

> <Gold.PLP.PLP>
-41.1527

> <Gold.PLP.part.hbond>
-1.0000

> <Gold.PLP.part.metal>
0.0000

> <Gold.PLP.part.buried>
-3.1749

> <Gold.PLP.part.nonpolar>
-38.4342

> <Gold.PLP.part.repulsive>
0.4086

> <Gold.PLP.ligand.clash>
0.0000

> <Gold.PLP.ligand.torsion>
1.4827

> <Gold.PLP.Chemscore.Hbond>
1.6960

> <Gold.PLP.Chemscore.CHOScore>
0.0000

> <Gold.PLP.Chemscore.Metal>
0.0000

> <Gold.Chemscore.Hbonds>
donor molecule, donor type, donor heavy atom, donor atom, acceptor molecule, acceptor atom, score
      L1  H    10    47       P1  8028  2.00

> <Gold.PLP.Chemscore.Internal.Correction>
0.2459

> <Gold.Rescore>
     Score         DG    S(hbond)    S(metal)    S(lipo)     H(rot)  DE(clash)    DE(int)     intcor
     15.26     -16.57       0.91        0.00     112.13       1.98       0.04       1.27       ----

> <Gold.Chemscore.Fitness>
15.2577

> <Gold.Chemscore.DG>
-16.5679

> <Gold.Chemscore.ZeroCoef>
-5.4800

> <Gold.Chemscore.Hbond>
0.9092

> <Gold.Chemscore.Metal>
0.0000

> <Gold.Chemscore.Lipo>
112.1330

> <Gold.Chemscore.Internal_Hbond>
0.0000

> <Gold.Chemscore.DEClash>
0.0431

> <Gold.Chemscore.DEInternal>
1.2671

> <Gold.Chemscore.Rot>
1.9799

> <Gold.Chemscore.Internal.Correction>
   9.000000E+99

> <Gold.Chemscore.Hbonds>
donor molecule, donor type, donor heavy atom, donor atom, acceptor molecule, acceptor atom, score
      L1  H    10    47       P1  8028  0.97

> <Gold.Chemscore.Hbond.Weighted>
-3.0369

> <Gold.Chemscore.Metal.Weighted>
-0.0000

> <Gold.Chemscore.Lipo.Weighted>
-13.1196

> <Gold.Chemscore.Internal_Hbond.Weighted>
0.0000

> <Gold.Chemscore.DEClash.Weighted>
0.0431

> <Gold.Chemscore.DEInternal.Weighted>
1.2671

> <Gold.Chemscore.Rot.Weighted>
5.0685

> <Gold.Chemscore.Internal.Correction.Weighted>
   9.000000E+99

> <Gold.Protein.RotatedTorsions>
[ 6907 6896 6895 6894 ] final   61.46 input  -60.11 | X-H torsion
[ 7974 7965 7964 7962 ] final  178.89 input  175.53 | X-H torsion
[ 8008 7997 7996 7995 ] final   97.64 input   59.86 | X-H torsion
[ 10167 10162 10161 10158 ] final  170.65 input  -65.29 | X-H torsion
[ 10718 10713 10712 10709 ] final  126.13 input   66.30 | X-H torsion
[ 10763 10752 10751 10750 ] final  113.22 input  -60.55 | X-H torsion
[ 11005 11000 10999 10996 ] final -136.98 input  -57.11 | X-H torsion

> <Gold.Protein.ActiveResidues>
 VAL166  LYS551  ARG553  GLY616  TRP617  ASP618  TYR619  PRO620  LYS621  CYS622 
 ASP623  PHE694  ASN695  SER759  ASP760  ASP761  ALA762  ILE779  LEU786  VAL792 
 PHE793  MET794  SER795  GLU796  ALA797  LYS798  CYS799  TRP800  GLU811  SER814 

> <Gold.Protein.RotatedAtoms>
  152.4091  134.6156  160.0037 H   0  0  0  0  0  0  0  0  0  0  0  0  # atno 6907 bound_to 6896
  151.6339  133.3324  159.3123 H   0  0  0  0  0  0  0  0  0  0  0  0  # atno 6908 bound_to 6896
  150.7983  134.7099  159.6643 H   0  0  0  0  0  0  0  0  0  0  0  0  # atno 6909 bound_to 6896
  144.7151  140.0465  143.6436 H   0  0  0  0  0  0  0  0  0  0  0  0  # atno 7974 bound_to 7965
  156.0922  140.3255  155.7831 H   0  0  0  0  0  0  0  0  0  0  0  0  # atno 8008 bound_to 7997
  155.4977  140.0566  157.2961 H   0  0  0  0  0  0  0  0  0  0  0  0  # atno 8009 bound_to 7997
  154.4645  140.1982  156.0172 H   0  0  0  0  0  0  0  0  0  0  0  0  # atno 8010 bound_to 7997
  139.5024  144.3573  151.9861 H   0  0  0  0  0  0  0  0  0  0  0  0  # atno 10167 bound_to 10162
  157.5445  131.1096  150.8805 H   0  0  0  0  0  0  0  0  0  0  0  0  # atno 10718 bound_to 10713
  153.4893  135.3662  155.2483 H   0  0  0  0  0  0  0  0  0  0  0  0  # atno 10763 bound_to 10752
  154.8752  135.3973  154.3608 H   0  0  0  0  0  0  0  0  0  0  0  0  # atno 10764 bound_to 10752
  153.4225  135.7080  153.6350 H   0  0  0  0  0  0  0  0  0  0  0  0  # atno 10765 bound_to 10752
  140.8754  134.1999  157.4625 H   0  0  0  0  0  0  0  0  0  0  0  0  # atno 11005 bound_to 11000
  145.9980  139.3068  143.0945 LP  0  0  0  0  0  0  0  0  0  0  0  0  # atno 17320 bound_to 7965
  145.8827  140.9353  143.0593 LP  0  0  0  0  0  0  0  0  0  0  0  0  # atno 17321 bound_to 7965
  140.3009  144.3648  150.6060 LP  0  0  0  0  0  0  0  0  0  0  0  0  # atno 17342 bound_to 10162
  140.5874  143.2169  151.7316 LP  0  0  0  0  0  0  0  0  0  0  0  0  # atno 17343 bound_to 10162
  156.9348  130.5363  149.5279 LP  0  0  0  0  0  0  0  0  0  0  0  0  # atno 17370 bound_to 10713
  156.0524  130.5591  150.9018 LP  0  0  0  0  0  0  0  0  0  0  0  0  # atno 17371 bound_to 10713
  139.8715  134.9793  156.5031 LP  0  0  0  0  0  0  0  0  0  0  0  0  # atno 17394 bound_to 11000
  140.8525  133.8121  155.9182 LP  0  0  0  0  0  0  0  0  0  0  0  0  # atno 17395 bound_to 11000

$$$$
