AV-unprocessed.smi:1388|AV-procd|sdf|5645|dock2
  -GOLD-   22720 5263D 1   1.00000     0.00000
 Structure written by MMmdl.
 45 46  0  0  0  0  0  0  0  0  3 V2000
  148.3719  132.3314  153.8470 C   0  0  0  0  0  0  0  0  0  0  0  0
  147.9556  133.6464  154.3207 N   0  5  0  0  0  0  0  0  0  0  0  0
  148.7361  134.4456  155.0994 C   0  0  0  0  0  0  0  0  0  0  0  0
  149.8226  134.2266  155.6440 O   0  0  0  0  0  0  0  0  0  0  0  0
  148.0967  135.8272  155.2864 C   0  0  0  0  0  0  0  0  0  0  0  0
  148.9382  136.8888  154.6767 N   0  3  2  0  0  0  0  0  0  0  0  0
  150.2811  136.9754  155.3038 C   0  0  0  0  0  0  0  0  0  0  0  0
  151.1829  137.9766  154.5590 C   0  0  0  0  0  0  0  0  0  0  0  0
  150.5375  139.3691  154.4554 C   0  0  2  0  0  0  0  0  0  0  0  0
  150.5195  140.0211  155.7645 N   0  0  0  0  0  0  0  0  0  0  0  0
  151.5412  140.0499  156.6328 C   0  0  0  0  0  0  0  0  0  0  0  0
  152.6340  139.5281  156.4109 O   0  0  0  0  0  0  0  0  0  0  0  0
  151.2071  140.7175  157.7514 N   0  0  0  0  0  0  0  0  0  0  0  0
  151.9979  140.9568  158.9107 C   0  0  0  0  0  0  0  0  0  0  0  0
  152.4080  139.9606  159.7351 N   0  0  0  0  0  0  0  0  0  0  0  0
  153.1526  140.2584  160.8196 C   0  0  0  0  0  0  0  0  0  0  0  0
  153.5365  141.5692  161.1504 C   0  0  0  0  0  0  0  0  0  0  0  0
  153.1214  142.6130  160.3060 C   0  0  0  0  0  0  0  0  0  0  0  0
  152.3418  142.3107  159.1691 C   0  0  0  0  0  0  0  0  0  0  0  0
  151.8920  143.4388  158.2549 C   0  0  0  0  0  0  0  0  0  0  0  0
  149.1217  139.2410  153.8599 C   0  0  0  0  0  0  0  0  0  0  0  0
  148.2657  138.2143  154.6225 C   0  0  0  0  0  0  0  0  0  0  0  0
  147.5773  131.8305  153.2946 H   0  0  0  0  0  0  0  0  0  0  0  0
  148.6478  131.6632  154.6634 H   0  0  0  0  0  0  0  0  0  0  0  0
  149.2303  132.3834  153.1767 H   0  0  0  0  0  0  0  0  0  0  0  0
  147.0915  135.8489  154.8624 H   0  0  0  0  0  0  0  0  0  0  0  0
  147.9852  135.9991  156.3585 H   0  0  0  0  0  0  0  0  0  0  0  0
  150.1761  137.2614  156.3514 H   0  0  0  0  0  0  0  0  0  0  0  0
  150.7551  135.9932  155.2906 H   0  0  0  0  0  0  0  0  0  0  0  0
  152.1542  138.0449  155.0507 H   0  0  0  0  0  0  0  0  0  0  0  0
  151.3786  137.5983  153.5546 H   0  0  0  0  0  0  0  0  0  0  0  0
  151.1486  139.9753  153.7841 H   0  0  0  0  0  0  0  0  0  0  0  0
  149.6584  140.4736  156.0341 H   0  0  0  0  0  0  0  0  0  0  0  0
  150.2724  141.0959  157.7835 H   0  0  0  0  0  0  0  0  0  0  0  0
  153.4503  139.4269  161.4410 H   0  0  0  0  0  0  0  0  0  0  0  0
  154.1335  141.7681  162.0282 H   0  0  0  0  0  0  0  0  0  0  0  0
  153.3997  143.6319  160.5310 H   0  0  0  0  0  0  0  0  0  0  0  0
  152.2530  144.4047  158.6092 H   0  0  0  0  0  0  0  0  0  0  0  0
  150.8034  143.4838  158.2106 H   0  0  0  0  0  0  0  0  0  0  0  0
  152.2753  143.2879  157.2454 H   0  0  0  0  0  0  0  0  0  0  0  0
  148.6210  140.2099  153.8455 H   0  0  0  0  0  0  0  0  0  0  0  0
  149.2004  138.9292  152.8174 H   0  0  0  0  0  0  0  0  0  0  0  0
  147.2989  138.1239  154.1266 H   0  0  0  0  0  0  0  0  0  0  0  0
  148.0659  138.5658  155.6359 H   0  0  0  0  0  0  0  0  0  0  0  0
  149.0861  136.5932  153.7213 H   0  0  0  0  0  0  0  0  0  0  0  0
  1  2  1  0  0  0  0
  1 23  1  0  0  0  0
  1 24  1  0  0  0  0
  1 25  1  0  0  0  0
  2  3  1  0  0  0  0
  3  4  2  0  0  0  0
  3  5  1  0  0  0  0
  5  6  1  0  0  0  0
  5 26  1  0  0  0  0
  5 27  1  0  0  0  0
  6 22  1  0  0  0  0
  6  7  1  0  0  0  0
  6 45  1  0  0  0  0
  7  8  1  0  0  0  0
  7 28  1  0  0  0  0
  7 29  1  0  0  0  0
  8  9  1  0  0  0  0
  8 30  1  0  0  0  0
  8 31  1  0  0  0  0
  9 10  1  0  0  0  0
  9 21  1  0  0  0  0
  9 32  1  0  0  0  0
 10 11  1  0  0  0  0
 10 33  1  0  0  0  0
 11 12  2  0  0  0  0
 11 13  1  0  0  0  0
 13 14  1  0  0  0  0
 13 34  1  0  0  0  0
 14 19  1  0  0  0  0
 14 15  2  0  0  0  0
 15 16  1  0  0  0  0
 16 17  2  0  0  0  0
 16 35  1  0  0  0  0
 17 18  1  0  0  0  0
 17 36  1  0  0  0  0
 18 19  2  0  0  0  0
 18 37  1  0  0  0  0
 19 20  1  0  0  0  0
 20 38  1  0  0  0  0
 20 39  1  0  0  0  0
 20 40  1  0  0  0  0
 21 22  1  0  0  0  0
 21 41  1  0  0  0  0
 21 42  1  0  0  0  0
 22 43  1  0  0  0  0
 22 44  1  0  0  0  0
M  CHG  1   2  -1
M  CHG  1   6   1
M  END
> <s_m_source_file>
AV-unprocessed.smi

> <i_m_source_file_index>
1388

> <i_lp_mmshare_version>
43012

> <i_f3d_flags>
0

> <s_epik_input>
W0NIM11bTkhdQyg9TylbQ0gyXU4xW0NIMl1bQ0gyXVtDSF0oW0NIMl1bQ0gyXTEpW05IXUMoPU8pW05IXWMybltjSF1bY0hdW2NIXWMyW0NIM10=

> <s_epik_cmdline>
J2VwaWtfcHl0aG9uJywgJy1waCcsICc3LjAnLCAnLXRuJywgJzgnLCAnLW1hJywgJzIwMCcsICctbWV0YWxfYmluZGluZycsICctaW1hZScsICc8aW5maWxlLm1hZT4nLCAnLW9tYWUnLCAnPG91dGZpbGUubWFlPic=

> <r_epik_Ionization_Penalty>
6.13951

> <r_epik_Ionization_Penalty_Charging>
6.13946

> <r_epik_Ionization_Penalty_Neutral>
4.54304e-05

> <r_epik_State_Penalty>
6.9595

> <r_epik_Charging_Adjusted_Penalty>
13.099

> <i_epik_Tot_Q>
0

> <i_epik_Tot_abs_Q>
2

> <r_epik_Metal_State_Penalty>
2.89141

> <b_epik_Metal_Only>
1

> <s_lp_Force_Field>
OPLS_2005

> <r_lp_Energy>
12.9207

> <b_lp_Chiralities_Consistent>
1

> <s_lp_Variant>
AV-unprocessed.smi:1388-5

> <Gold.Version>
5.8.1

> <Gold.Id.Protein>
6NUR|6NUR_protein|mol2

> <Gold.PLP.Fitness>
46.8341

> <Gold.PLP.PLP>
-39.4536

> <Gold.PLP.part.hbond>
-2.0000

> <Gold.PLP.part.metal>
0.0000

> <Gold.PLP.part.buried>
-4.3440

> <Gold.PLP.part.nonpolar>
-33.3145

> <Gold.PLP.part.repulsive>
0.3043

> <Gold.PLP.ligand.clash>
0.0000

> <Gold.PLP.ligand.torsion>
0.8549

> <Gold.PLP.Chemscore.Hbond>
3.0000

> <Gold.PLP.Chemscore.CHOScore>
0.0000

> <Gold.PLP.Chemscore.Metal>
0.0000

> <Gold.Chemscore.Hbonds>
donor molecule, donor type, donor heavy atom, donor atom, acceptor molecule, acceptor atom, score
      L1  H     6    45       P1  7948  2.00
      P1  H  7997  8009       L1    12  1.00

> <Gold.PLP.Chemscore.Internal.Correction>
0.0902

> <Gold.Rescore>
     Score         DG    S(hbond)    S(metal)    S(lipo)     H(rot)  DE(clash)    DE(int)     intcor
     16.08     -18.33       2.00        0.00      88.44       1.63       0.10       2.15       ----

> <Gold.Chemscore.Fitness>
16.0786

> <Gold.Chemscore.DG>
-18.3280

> <Gold.Chemscore.ZeroCoef>
-5.4800

> <Gold.Chemscore.Hbond>
1.9982

> <Gold.Chemscore.Metal>
0.0000

> <Gold.Chemscore.Lipo>
88.4387

> <Gold.Chemscore.Internal_Hbond>
0.0000

> <Gold.Chemscore.DEClash>
0.0982

> <Gold.Chemscore.DEInternal>
2.1512

> <Gold.Chemscore.Rot>
1.6303

> <Gold.Chemscore.Internal.Correction>
   9.000000E+99

> <Gold.Chemscore.Hbonds>
donor molecule, donor type, donor heavy atom, donor atom, acceptor molecule, acceptor atom, score
      L1  H     6    45       P1  7948  0.99
      P1  H  7997  8009       L1    12  1.00

> <Gold.Chemscore.Hbond.Weighted>
-6.6741

> <Gold.Chemscore.Metal.Weighted>
-0.0000

> <Gold.Chemscore.Lipo.Weighted>
-10.3473

> <Gold.Chemscore.Internal_Hbond.Weighted>
0.0000

> <Gold.Chemscore.DEClash.Weighted>
0.0982

> <Gold.Chemscore.DEInternal.Weighted>
2.1512

> <Gold.Chemscore.Rot.Weighted>
4.1735

> <Gold.Chemscore.Internal.Correction.Weighted>
   9.000000E+99

> <Gold.Protein.RotatedTorsions>
[ 6907 6896 6895 6894 ] final  -32.75 input  -60.11 | X-H torsion
[ 7974 7965 7964 7962 ] final  -57.30 input  175.53 | X-H torsion
[ 8008 7997 7996 7995 ] final -164.26 input   59.86 | X-H torsion
[ 10167 10162 10161 10158 ] final  125.46 input  -65.29 | X-H torsion
[ 10718 10713 10712 10709 ] final   -5.81 input   66.30 | X-H torsion
[ 10763 10752 10751 10750 ] final  104.69 input  -60.55 | X-H torsion
[ 11005 11000 10999 10996 ] final   87.84 input  -57.11 | X-H torsion

> <Gold.Protein.ActiveResidues>
 VAL166  LYS551  ARG553  GLY616  TRP617  ASP618  TYR619  PRO620  LYS621  CYS622 
 ASP623  PHE694  ASN695  SER759  ASP760  ASP761  ALA762  ILE779  LEU786  VAL792 
 PHE793  MET794  SER795  GLU796  ALA797  LYS798  CYS799  TRP800  GLU811  SER814 

> <Gold.Protein.RotatedAtoms>
  151.0746  134.9820  159.8325 H   0  0  0  0  0  0  0  0  0  0  0  0  # atno 6907 bound_to 6896
  152.5412  134.2257  159.8815 H   0  0  0  0  0  0  0  0  0  0  0  0  # atno 6908 bound_to 6896
  151.2284  133.4420  159.2636 H   0  0  0  0  0  0  0  0  0  0  0  0  # atno 6909 bound_to 6896
  145.8527  140.8341  142.9977 H   0  0  0  0  0  0  0  0  0  0  0  0  # atno 7974 bound_to 7965
  155.8331  140.0937  157.1780 H   0  0  0  0  0  0  0  0  0  0  0  0  # atno 8008 bound_to 7997
  154.3980  140.1415  156.3699 H   0  0  0  0  0  0  0  0  0  0  0  0  # atno 8009 bound_to 7997
  155.8144  140.3448  155.5479 H   0  0  0  0  0  0  0  0  0  0  0  0  # atno 8010 bound_to 7997
  139.5684  144.6925  151.3846 H   0  0  0  0  0  0  0  0  0  0  0  0  # atno 10167 bound_to 10162
  156.7411  130.5210  149.5824 H   0  0  0  0  0  0  0  0  0  0  0  0  # atno 10718 bound_to 10713
  153.3693  135.3935  155.1777 H   0  0  0  0  0  0  0  0  0  0  0  0  # atno 10763 bound_to 10752
  154.8692  135.3698  154.4998 H   0  0  0  0  0  0  0  0  0  0  0  0  # atno 10764 bound_to 10752
  153.5464  135.7083  153.5672 H   0  0  0  0  0  0  0  0  0  0  0  0  # atno 10765 bound_to 10752
  139.8910  134.8448  156.2916 H   0  0  0  0  0  0  0  0  0  0  0  0  # atno 11005 bound_to 11000
  144.6728  140.0977  143.7462 LP  0  0  0  0  0  0  0  0  0  0  0  0  # atno 17320 bound_to 7965
  145.9339  139.2624  143.1309 LP  0  0  0  0  0  0  0  0  0  0  0  0  # atno 17321 bound_to 7965
  140.6968  143.7728  150.7340 LP  0  0  0  0  0  0  0  0  0  0  0  0  # atno 17342 bound_to 10162
  140.1227  143.4597  152.2303 LP  0  0  0  0  0  0  0  0  0  0  0  0  # atno 17343 bound_to 10162
  156.1464  130.6280  151.0537 LP  0  0  0  0  0  0  0  0  0  0  0  0  # atno 17370 bound_to 10713
  157.6818  131.0836  150.7349 LP  0  0  0  0  0  0  0  0  0  0  0  0  # atno 17371 bound_to 10713
  140.9972  133.7173  156.0904 LP  0  0  0  0  0  0  0  0  0  0  0  0  # atno 17394 bound_to 11000
  140.7546  134.4007  157.5536 LP  0  0  0  0  0  0  0  0  0  0  0  0  # atno 17395 bound_to 11000

$$$$
