AV-unprocessed.smi:3019|AV-procd|sdf|11492|dock1
  -GOLD-   2272016433D 1   1.00000     0.00000
 Structure written by MMmdl.
 30 31  0  0  0  0  0  0  0  0  1 V2000
  153.7236  141.7388  160.5481 C   0  0  0  0  0  0  0  0  0  0  0  0
  153.0009  143.0833  160.3783 C   0  0  0  0  0  0  0  0  0  0  0  0
  152.2129  143.5022  161.6280 C   0  0  0  0  0  0  0  0  0  0  0  0
  152.1416  143.0980  159.1515 C   0  0  0  0  0  0  0  0  0  0  0  0
  151.3381  144.1268  158.8829 N   0  0  0  0  0  0  0  0  0  0  0  0
  150.7664  143.7419  157.7227 N   0  0  0  0  0  0  0  0  0  0  0  0
  151.2381  142.5437  157.3716 C   0  0  0  0  0  0  0  0  0  0  0  0
  150.8019  141.8537  156.1180 C   0  0  1  0  0  0  0  0  0  0  0  0
  151.5119  140.5006  155.9166 C   0  0  0  0  0  0  0  0  0  0  0  0
  150.9877  139.8252  154.7305 N   0  0  0  0  0  0  0  0  0  0  0  0
  149.5345  139.6798  154.8048 C   0  0  0  0  0  0  0  0  0  0  0  0
  148.8705  141.0484  155.0398 C   0  0  0  0  0  0  0  0  0  0  0  0
  149.3972  141.6375  156.2238 O   0  0  0  0  0  0  0  0  0  0  0  0
  152.1261  142.0750  158.2432 N   0  0  0  0  0  0  0  0  0  0  0  0
  150.0881  144.3039  157.2285 H   0  0  0  0  0  0  0  0  0  0  0  0
  154.3273  141.5055  159.6704 H   0  0  0  0  0  0  0  0  0  0  0  0
  153.0148  140.9225  160.6912 H   0  0  0  0  0  0  0  0  0  0  0  0
  154.3883  141.7564  161.4120 H   0  0  0  0  0  0  0  0  0  0  0  0
  153.7789  143.8356  160.2382 H   0  0  0  0  0  0  0  0  0  0  0  0
  151.7696  144.4899  161.4986 H   0  0  0  0  0  0  0  0  0  0  0  0
  152.8596  143.5424  162.5049 H   0  0  0  0  0  0  0  0  0  0  0  0
  151.4062  142.8007  161.8426 H   0  0  0  0  0  0  0  0  0  0  0  0
  151.0039  142.5139  155.2720 H   0  0  0  0  0  0  0  0  0  0  0  0
  152.5870  140.6511  155.8177 H   0  0  0  0  0  0  0  0  0  0  0  0
  151.3624  139.8711  156.7950 H   0  0  0  0  0  0  0  0  0  0  0  0
  151.4161  138.9089  154.6442 H   0  0  0  0  0  0  0  0  0  0  0  0
  149.1550  139.2319  153.8864 H   0  0  0  0  0  0  0  0  0  0  0  0
  149.2703  139.0019  155.6175 H   0  0  0  0  0  0  0  0  0  0  0  0
  149.0267  141.7108  154.1870 H   0  0  0  0  0  0  0  0  0  0  0  0
  147.7934  140.9270  155.1551 H   0  0  0  0  0  0  0  0  0  0  0  0
  1  2  1  0  0  0  0
  1 16  1  0  0  0  0
  1 17  1  0  0  0  0
  1 18  1  0  0  0  0
  2  3  1  0  0  0  0
  2  4  1  0  0  0  0
  2 19  1  0  0  0  0
  3 20  1  0  0  0  0
  3 21  1  0  0  0  0
  3 22  1  0  0  0  0
  4 14  1  0  0  0  0
  4  5  2  0  0  0  0
  5  6  1  0  0  0  0
  6 15  1  0  0  0  0
  6  7  1  0  0  0  0
  7  8  1  0  0  0  0
  7 14  2  0  0  0  0
  8 13  1  0  0  0  0
  8  9  1  0  0  0  0
  8 23  1  0  0  0  0
  9 10  1  0  0  0  0
  9 24  1  0  0  0  0
  9 25  1  0  0  0  0
 10 11  1  0  0  0  0
 10 26  1  0  0  0  0
 11 12  1  0  0  0  0
 11 27  1  0  0  0  0
 11 28  1  0  0  0  0
 12 13  1  0  0  0  0
 12 29  1  0  0  0  0
 12 30  1  0  0  0  0
M  END
> <s_m_source_file>
AV-unprocessed.smi

> <i_m_source_file_index>
3019

> <i_lp_mmshare_version>
43012

> <i_f3d_flags>
0

> <s_epik_input>
W0NIM11bQ0hdKFtDSDNdKWMxbltuSF1jKG4xKVtDQEBIXTJbQ0gyXVtOSF1bQ0gyXVtDSDJdTzI=

> <s_epik_cmdline>
J2VwaWtfcHl0aG9uJywgJy1waCcsICc3LjAnLCAnLXRuJywgJzgnLCAnLW1hJywgJzIwMCcsICctbWV0YWxfYmluZGluZycsICctaW1hZScsICc8aW5maWxlLm1hZT4nLCAnLW9tYWUnLCAnPG91dGZpbGUubWFlPic=

> <r_epik_Ionization_Penalty>
0.981987

> <r_epik_Ionization_Penalty_Charging>
0

> <r_epik_Ionization_Penalty_Neutral>
0.981987

> <r_epik_State_Penalty>
2.09479

> <r_epik_Charging_Adjusted_Penalty>
2.09479

> <i_epik_Tot_Q>
0

> <i_epik_Tot_abs_Q>
0

> <r_epik_Metal_State_Penalty>
2.40362

> <b_epik_Metal_Only>
0

> <s_lp_Force_Field>
OPLS_2005

> <r_lp_Energy>
8.95245

> <b_lp_Chiralities_Consistent>
1

> <s_lp_Variant>
AV-unprocessed.smi:3019-8

> <Gold.Version>
5.8.1

> <Gold.Id.Protein>
6NUR|6NUR_protein|mol2

> <Gold.PLP.Fitness>
37.9893

> <Gold.PLP.PLP>
-32.3203

> <Gold.PLP.part.hbond>
-2.0000

> <Gold.PLP.part.metal>
0.0000

> <Gold.PLP.part.buried>
-5.0473

> <Gold.PLP.part.nonpolar>
-24.6141

> <Gold.PLP.part.repulsive>
0.3279

> <Gold.PLP.ligand.clash>
0.0000

> <Gold.PLP.ligand.torsion>
0.1957

> <Gold.PLP.Chemscore.Hbond>
2.0000

> <Gold.PLP.Chemscore.CHOScore>
0.0000

> <Gold.PLP.Chemscore.Metal>
0.0000

> <Gold.Chemscore.Hbonds>
donor molecule, donor type, donor heavy atom, donor atom, acceptor molecule, acceptor atom, score
      L1  H     6    15       P1  8028  1.00
      P1  H  7989  7998       L1    10  1.00

> <Gold.PLP.Chemscore.Internal.Correction>
0.0604

> <Gold.Rescore>
     Score         DG    S(hbond)    S(metal)    S(lipo)     H(rot)  DE(clash)    DE(int)     intcor
     12.98     -13.26       1.05        0.00      63.94       1.26       0.15       0.12       ----

> <Gold.Chemscore.Fitness>
12.9832

> <Gold.Chemscore.DG>
-13.2551

> <Gold.Chemscore.ZeroCoef>
-5.4800

> <Gold.Chemscore.Hbond>
1.0536

> <Gold.Chemscore.Metal>
0.0000

> <Gold.Chemscore.Lipo>
63.9415

> <Gold.Chemscore.Internal_Hbond>
0.0000

> <Gold.Chemscore.DEClash>
0.1476

> <Gold.Chemscore.DEInternal>
0.1243

> <Gold.Chemscore.Rot>
1.2598

> <Gold.Chemscore.Internal.Correction>
   9.000000E+99

> <Gold.Chemscore.Hbonds>
donor molecule, donor type, donor heavy atom, donor atom, acceptor molecule, acceptor atom, score
      L1  H     6    15       P1  8028  0.62
      P1  H  7989  7998       L1    10  0.17

> <Gold.Chemscore.Hbond.Weighted>
-3.5191

> <Gold.Chemscore.Metal.Weighted>
-0.0000

> <Gold.Chemscore.Lipo.Weighted>
-7.4812

> <Gold.Chemscore.Internal_Hbond.Weighted>
0.0000

> <Gold.Chemscore.DEClash.Weighted>
0.1476

> <Gold.Chemscore.DEInternal.Weighted>
0.1243

> <Gold.Chemscore.Rot.Weighted>
3.2251

> <Gold.Chemscore.Internal.Correction.Weighted>
   9.000000E+99

> <Gold.Protein.RotatedTorsions>
[ 6907 6896 6895 6894 ] final  -33.33 input  -60.11 | X-H torsion
[ 7974 7965 7964 7962 ] final  153.02 input  175.53 | X-H torsion
[ 8008 7997 7996 7995 ] final -143.62 input   59.86 | X-H torsion
[ 10167 10162 10161 10158 ] final  118.94 input  -65.29 | X-H torsion
[ 10718 10713 10712 10709 ] final -171.06 input   66.30 | X-H torsion
[ 10763 10752 10751 10750 ] final  158.86 input  -60.55 | X-H torsion
[ 11005 11000 10999 10996 ] final -101.81 input  -57.11 | X-H torsion

> <Gold.Protein.ActiveResidues>
 VAL166  LYS551  ARG553  GLY616  TRP617  ASP618  TYR619  PRO620  LYS621  CYS622 
 ASP623  PHE694  ASN695  SER759  ASP760  ASP761  ALA762  ILE779  LEU786  VAL792 
 PHE793  MET794  SER795  GLU796  ALA797  LYS798  CYS799  TRP800  GLU811  SER814 

> <Gold.Protein.RotatedAtoms>
  151.0670  134.9773  159.8288 H   0  0  0  0  0  0  0  0  0  0  0  0  # atno 6907 bound_to 6896
  152.5403  134.2347  159.8848 H   0  0  0  0  0  0  0  0  0  0  0  0  # atno 6908 bound_to 6896
  151.2369  133.4377  159.2639 H   0  0  0  0  0  0  0  0  0  0  0  0  # atno 6909 bound_to 6896
  144.8183  139.6745  143.6112 H   0  0  0  0  0  0  0  0  0  0  0  0  # atno 7974 bound_to 7965
  155.5135  140.0585  157.2919 H   0  0  0  0  0  0  0  0  0  0  0  0  # atno 8008 bound_to 7997
  154.4543  140.1965  156.0373 H   0  0  0  0  0  0  0  0  0  0  0  0  # atno 8009 bound_to 7997
  156.0768  140.3252  155.7647 H   0  0  0  0  0  0  0  0  0  0  0  0  # atno 8010 bound_to 7997
  139.6078  144.7074  151.2912 H   0  0  0  0  0  0  0  0  0  0  0  0  # atno 10167 bound_to 10162
  156.7353  130.9322  151.3107 H   0  0  0  0  0  0  0  0  0  0  0  0  # atno 10718 bound_to 10713
  154.2227  135.2781  155.2919 H   0  0  0  0  0  0  0  0  0  0  0  0  # atno 10763 bound_to 10752
  154.5688  135.5624  153.7079 H   0  0  0  0  0  0  0  0  0  0  0  0  # atno 10764 bound_to 10752
  153.0038  135.6316  154.2367 H   0  0  0  0  0  0  0  0  0  0  0  0  # atno 10765 bound_to 10752
  141.1215  133.8508  157.1280 H   0  0  0  0  0  0  0  0  0  0  0  0  # atno 11005 bound_to 11000
  146.2487  139.6153  142.9442 LP  0  0  0  0  0  0  0  0  0  0  0  0  # atno 17320 bound_to 7965
  145.5164  141.0433  143.2459 LP  0  0  0  0  0  0  0  0  0  0  0  0  # atno 17321 bound_to 7965
  140.7298  143.6898  150.7931 LP  0  0  0  0  0  0  0  0  0  0  0  0  # atno 17342 bound_to 10162
  140.0487  143.5271  152.2684 LP  0  0  0  0  0  0  0  0  0  0  0  0  # atno 17343 bound_to 10162
  157.6841  130.9169  150.0343 LP  0  0  0  0  0  0  0  0  0  0  0  0  # atno 17370 bound_to 10713
  156.1501  130.3642  149.9451 LP  0  0  0  0  0  0  0  0  0  0  0  0  # atno 17371 bound_to 10713
  140.0177  134.9960  157.0527 LP  0  0  0  0  0  0  0  0  0  0  0  0  # atno 17394 bound_to 11000
  140.4493  134.1599  155.7180 LP  0  0  0  0  0  0  0  0  0  0  0  0  # atno 17395 bound_to 11000

$$$$
