AV-unprocessed.smi:1406|AV-procd|sdf|5717|dock2
  -GOLD-   22720 5353D 1   1.00000     0.00000
 Structure written by MMmdl.
 41 43  0  0  0  0  0  0  0  0  2 V2000
  147.8252  141.4165  153.8039 C   0  0  0  0  0  0  0  0  0  0  0  0
  148.6950  140.1948  154.1640 C   0  0  2  0  0  0  0  0  0  0  0  0
  147.8851  139.0488  154.7914 C   0  0  0  0  0  0  0  0  0  0  0  0
  147.3009  139.2023  155.8645 O   0  0  0  0  0  0  0  0  0  0  0  0
  147.8512  137.8976  154.1006 N   0  0  0  0  0  0  0  0  0  0  0  0
  147.1725  136.6759  154.5286 C   0  0  2  0  0  0  0  0  0  0  0  0
  148.1495  135.5468  154.9070 C   0  0  0  0  0  0  0  0  0  0  0  0
  147.5005  134.2739  154.3538 C   0  0  0  0  0  0  0  0  0  0  0  0
  146.8311  134.7507  153.1381 N   0  3  1  0  0  0  0  0  0  0  0  0
  145.8873  133.8483  152.4485 C   0  0  0  0  0  0  0  0  0  0  0  0
  145.4755  134.5042  151.1129 C   0  0  0  0  0  0  0  0  0  0  0  0
  144.9588  135.9488  151.3036 C   0  0  0  0  0  0  0  0  0  0  0  0
  145.9322  136.8022  152.1456 C   0  0  0  0  0  0  0  0  0  0  0  0
  146.2379  136.0605  153.4592 C   0  0  2  0  0  0  0  0  0  0  0  0
  149.8147  140.5545  155.0251 N   0  0  0  0  0  0  0  0  0  0  0  0
  149.9178  141.5209  155.9401 C   0  0  0  0  0  0  0  0  0  0  0  0
  151.1097  141.5933  156.5152 N   0  0  0  0  0  0  0  0  0  0  0  0
  151.7425  140.5768  155.8577 C   0  0  0  0  0  0  0  0  0  0  0  0
  151.0159  139.9289  154.9474 N   0  0  0  0  0  0  0  0  0  0  0  0
  147.0272  141.1412  153.1136 H   0  0  0  0  0  0  0  0  0  0  0  0
  148.4230  142.1887  153.3188 H   0  0  0  0  0  0  0  0  0  0  0  0
  147.3611  141.8641  154.6839 H   0  0  0  0  0  0  0  0  0  0  0  0
  149.1175  139.8159  153.2317 H   0  0  0  0  0  0  0  0  0  0  0  0
  148.3564  137.8574  153.2273 H   0  0  0  0  0  0  0  0  0  0  0  0
  146.5734  136.9020  155.4133 H   0  0  0  0  0  0  0  0  0  0  0  0
  149.1128  135.6994  154.4176 H   0  0  0  0  0  0  0  0  0  0  0  0
  148.3314  135.4896  155.9807 H   0  0  0  0  0  0  0  0  0  0  0  0
  148.2264  133.4889  154.1402 H   0  0  0  0  0  0  0  0  0  0  0  0
  146.7604  133.8831  155.0539 H   0  0  0  0  0  0  0  0  0  0  0  0
  146.3654  132.8859  152.2631 H   0  0  0  0  0  0  0  0  0  0  0  0
  145.0157  133.6623  153.0780 H   0  0  0  0  0  0  0  0  0  0  0  0
  146.3369  134.5220  150.4439 H   0  0  0  0  0  0  0  0  0  0  0  0
  144.7166  133.8980  150.6172 H   0  0  0  0  0  0  0  0  0  0  0  0
  144.7919  136.4186  150.3337 H   0  0  0  0  0  0  0  0  0  0  0  0
  143.9877  135.9179  151.7995 H   0  0  0  0  0  0  0  0  0  0  0  0
  146.8515  136.9839  151.5871 H   0  0  0  0  0  0  0  0  0  0  0  0
  145.4839  137.7752  152.3482 H   0  0  0  0  0  0  0  0  0  0  0  0
  145.2865  135.8734  153.9623 H   0  0  0  0  0  0  0  0  0  0  0  0
  149.1053  142.1882  156.1882 H   0  0  0  0  0  0  0  0  0  0  0  0
  152.7712  140.3103  156.0511 H   0  0  0  0  0  0  0  0  0  0  0  0
  147.5752  134.9382  152.4814 H   0  0  0  0  0  0  0  0  0  0  0  0
  1  2  1  0  0  0  0
  1 20  1  0  0  0  0
  1 21  1  0  0  0  0
  1 22  1  0  0  0  0
  2  3  1  0  0  0  0
  2 15  1  0  0  0  0
  2 23  1  0  0  0  0
  3  4  2  0  0  0  0
  3  5  1  0  0  0  0
  5  6  1  0  0  0  0
  5 24  1  0  0  0  0
  6 14  1  0  0  0  0
  6  7  1  0  0  0  0
  6 25  1  0  0  0  0
  7  8  1  0  0  0  0
  7 26  1  0  0  0  0
  7 27  1  0  0  0  0
  8  9  1  0  0  0  0
  8 28  1  0  0  0  0
  8 29  1  0  0  0  0
  9 14  1  0  0  0  0
  9 10  1  0  0  0  0
  9 41  1  0  0  0  0
 10 11  1  0  0  0  0
 10 30  1  0  0  0  0
 10 31  1  0  0  0  0
 11 12  1  0  0  0  0
 11 32  1  0  0  0  0
 11 33  1  0  0  0  0
 12 13  1  0  0  0  0
 12 34  1  0  0  0  0
 12 35  1  0  0  0  0
 13 14  1  0  0  0  0
 13 36  1  0  0  0  0
 13 37  1  0  0  0  0
 14 38  1  0  0  0  0
 15 19  1  0  0  0  0
 15 16  1  0  0  0  0
 16 17  2  0  0  0  0
 16 39  1  0  0  0  0
 17 18  1  0  0  0  0
 18 19  2  0  0  0  0
 18 40  1  0  0  0  0
M  CHG  1   9   1
M  END
> <s_m_source_file>
AV-unprocessed.smi

> <i_m_source_file_index>
1406

> <i_lp_mmshare_version>
43012

> <i_f3d_flags>
0

> <s_epik_input>
bjFbY0hdbltjSF1uMVtDQEhdKFtDSDNdKUMoPU8pW05IXVtDQEhdKFtDSDJdW0NIMl0yKVtDQEBIXShOMjMpW0NIMl1bQ0gyXVtDSDJdW0NIMl0z

> <s_epik_cmdline>
J2VwaWtfcHl0aG9uJywgJy1waCcsICc3LjAnLCAnLXRuJywgJzgnLCAnLW1hJywgJzIwMCcsICctbWV0YWxfYmluZGluZycsICctaW1hZScsICc8aW5maWxlLm1hZT4nLCAnLW9tYWUnLCAnPG91dGZpbGUubWFlPic=

> <r_lp_tautomer_probability>
1

> <r_epik_Ionization_Penalty>
0.00197066

> <r_epik_Ionization_Penalty_Charging>
0.00196223

> <r_epik_Ionization_Penalty_Neutral>
8.43107e-06

> <r_epik_State_Penalty>
0.00133866

> <r_epik_Charging_Adjusted_Penalty>
0.00330089

> <i_epik_Tot_Q>
1

> <i_epik_Tot_abs_Q>
1

> <r_epik_Metal_State_Penalty>
-0

> <b_epik_Metal_Only>
0

> <s_lp_Force_Field>
OPLS_2005

> <r_lp_Energy>
47.4686

> <b_lp_Chiralities_Consistent>
1

> <s_lp_Variant>
AV-unprocessed.smi:1406-9

> <Gold.Version>
5.8.1

> <Gold.Id.Protein>
6NUR|6NUR_protein|mol2

> <Gold.PLP.Fitness>
36.3401

> <Gold.PLP.PLP>
-25.6456

> <Gold.PLP.part.hbond>
-2.9819

> <Gold.PLP.part.metal>
0.0000

> <Gold.PLP.part.buried>
0.0449

> <Gold.PLP.part.nonpolar>
-21.2941

> <Gold.PLP.part.repulsive>
0.1126

> <Gold.PLP.ligand.clash>
0.0000

> <Gold.PLP.ligand.torsion>
0.8271

> <Gold.PLP.Chemscore.Hbond>
3.1542

> <Gold.PLP.Chemscore.CHOScore>
0.9297

> <Gold.PLP.Chemscore.Metal>
0.0000

> <Gold.Chemscore.Hbonds>
donor molecule, donor type, donor heavy atom, donor atom, acceptor molecule, acceptor atom, score
      L1  H     5    24       P1  7948  0.42
      L1  H     9    41       P1  7948  1.92
      P1  H  7989  7998       L1    19  0.64
      L1  C    16    39       P1  8028  0.82

> <Gold.PLP.Chemscore.Internal.Correction>
0.0970

> <Gold.Rescore>
     Score         DG    S(hbond)    S(metal)    S(lipo)     H(rot)  DE(clash)    DE(int)     intcor
     11.73     -12.40       1.85        0.00      47.50       1.89       0.08       0.59       ----

> <Gold.Chemscore.Fitness>
11.7291

> <Gold.Chemscore.DG>
-12.3990

> <Gold.Chemscore.ZeroCoef>
-5.4800

> <Gold.Chemscore.Hbond>
1.8536

> <Gold.Chemscore.Metal>
0.0000

> <Gold.Chemscore.Lipo>
47.5005

> <Gold.Chemscore.Internal_Hbond>
0.0000

> <Gold.Chemscore.DEClash>
0.0821

> <Gold.Chemscore.DEInternal>
0.5878

> <Gold.Chemscore.Rot>
1.8865

> <Gold.Chemscore.Internal.Correction>
   9.000000E+99

> <Gold.Chemscore.Hbonds>
donor molecule, donor type, donor heavy atom, donor atom, acceptor molecule, acceptor atom, score
      L1  H     5    24       P1  7948  0.42
      L1  H     9    41       P1  7948  0.88
      P1  H  7989  7998       L1    19  0.01

> <Gold.Chemscore.Hbond.Weighted>
-6.1910

> <Gold.Chemscore.Metal.Weighted>
-0.0000

> <Gold.Chemscore.Lipo.Weighted>
-5.5576

> <Gold.Chemscore.Internal_Hbond.Weighted>
0.0000

> <Gold.Chemscore.DEClash.Weighted>
0.0821

> <Gold.Chemscore.DEInternal.Weighted>
0.5878

> <Gold.Chemscore.Rot.Weighted>
4.8295

> <Gold.Chemscore.Internal.Correction.Weighted>
   9.000000E+99

> <Gold.Protein.RotatedTorsions>
[ 6907 6896 6895 6894 ] final  -33.86 input  -60.11 | X-H torsion
[ 7974 7965 7964 7962 ] final  146.66 input  175.53 | X-H torsion
[ 8008 7997 7996 7995 ] final -168.86 input   59.86 | X-H torsion
[ 10167 10162 10161 10158 ] final -135.97 input  -65.29 | X-H torsion
[ 10718 10713 10712 10709 ] final    2.64 input   66.30 | X-H torsion
[ 10763 10752 10751 10750 ] final  -14.65 input  -60.55 | X-H torsion
[ 11005 11000 10999 10996 ] final  133.12 input  -57.11 | X-H torsion

> <Gold.Protein.ActiveResidues>
 VAL166  LYS551  ARG553  GLY616  TRP617  ASP618  TYR619  PRO620  LYS621  CYS622 
 ASP623  PHE694  ASN695  SER759  ASP760  ASP761  ALA762  ILE779  LEU786  VAL792 
 PHE793  MET794  SER795  GLU796  ALA797  LYS798  CYS799  TRP800  GLU811  SER814 

> <Gold.Protein.RotatedAtoms>
  151.0601  134.9731  159.8255 H   0  0  0  0  0  0  0  0  0  0  0  0  # atno 6907 bound_to 6896
  152.5394  134.2428  159.8878 H   0  0  0  0  0  0  0  0  0  0  0  0  # atno 6908 bound_to 6896
  151.2448  133.4338  159.2642 H   0  0  0  0  0  0  0  0  0  0  0  0  # atno 6909 bound_to 6896
  144.8653  139.5932  143.5911 H   0  0  0  0  0  0  0  0  0  0  0  0  # atno 7974 bound_to 7965
  155.8972  140.1035  157.1376 H   0  0  0  0  0  0  0  0  0  0  0  0  # atno 8008 bound_to 7997
  154.4022  140.1299  156.4454 H   0  0  0  0  0  0  0  0  0  0  0  0  # atno 8009 bound_to 7997
  155.7465  140.3466  155.5132 H   0  0  0  0  0  0  0  0  0  0  0  0  # atno 8010 bound_to 7997
  139.8725  143.6940  152.2638 H   0  0  0  0  0  0  0  0  0  0  0  0  # atno 10167 bound_to 10162
  156.8661  130.5603  149.5660 H   0  0  0  0  0  0  0  0  0  0  0  0  # atno 10718 bound_to 10713
  153.5315  135.7014  153.5681 H   0  0  0  0  0  0  0  0  0  0  0  0  # atno 10763 bound_to 10752
  153.3686  135.3950  155.1772 H   0  0  0  0  0  0  0  0  0  0  0  0  # atno 10764 bound_to 10752
  154.8684  135.3806  154.4812 H   0  0  0  0  0  0  0  0  0  0  0  0  # atno 10765 bound_to 10752
  139.9832  134.9541  156.9679 H   0  0  0  0  0  0  0  0  0  0  0  0  # atno 11005 bound_to 11000
  146.2891  139.7088  142.9174 LP  0  0  0  0  0  0  0  0  0  0  0  0  # atno 17320 bound_to 7965
  145.4233  141.0408  143.2952 LP  0  0  0  0  0  0  0  0  0  0  0  0  # atno 17321 bound_to 7965
  139.7271  144.7590  151.0862 LP  0  0  0  0  0  0  0  0  0  0  0  0  # atno 17342 bound_to 10162
  140.7758  143.5135  150.9624 LP  0  0  0  0  0  0  0  0  0  0  0  0  # atno 17343 bound_to 10162
  156.0751  130.5775  150.9458 LP  0  0  0  0  0  0  0  0  0  0  0  0  # atno 17370 bound_to 10713
  157.6223  131.0928  150.8600 LP  0  0  0  0  0  0  0  0  0  0  0  0  # atno 17371 bound_to 10713
  140.5055  134.1054  155.7259 LP  0  0  0  0  0  0  0  0  0  0  0  0  # atno 17394 bound_to 11000
  141.1501  133.8984  157.2119 LP  0  0  0  0  0  0  0  0  0  0  0  0  # atno 17395 bound_to 11000

$$$$
