AV-unprocessed.smi:2968|AV-procd|sdf|11328|dock9
  -GOLD-   2272016233D 1   1.00000     0.00000
 Structure written by MMmdl.
 45 46  0  0  0  0  0  0  0  0  1 V2000
  153.0864  139.8965  158.0219 O   0  0  0  0  0  0  0  0  0  0  0  0
  151.7279  140.2627  157.5913 S   0  0  0  0  0  0  0  0  0  0  0  0
  151.4548  140.5186  156.1682 O   0  0  0  0  0  0  0  0  0  0  0  0
  150.6012  138.9967  158.1585 C   0  0  0  0  0  0  0  0  0  0  0  0
  149.2396  139.0385  157.8036 C   0  0  0  0  0  0  0  0  0  0  0  0
  148.3988  138.0026  158.2551 C   0  0  0  0  0  0  0  0  0  0  0  0
  148.9563  136.9614  159.0280 C   0  0  0  0  0  0  0  0  0  0  0  0
  148.1272  135.9039  159.4289 N   0  0  0  0  0  0  0  0  0  0  0  0
  146.6845  136.0431  159.2527 C   0  0  0  0  0  0  0  0  0  0  0  0
  145.9527  136.2732  160.5861 C   0  0  0  0  0  0  0  0  0  0  0  0
  145.5925  137.6403  160.6856 O   0  0  0  0  0  0  0  0  0  0  0  0
  144.6043  137.9015  161.6648 C   0  0  0  0  0  0  0  0  0  0  0  0
  143.3187  137.1710  161.2573 C   0  0  0  0  0  0  0  0  0  0  0  0
  142.3872  137.2001  162.3187 O   0  0  0  0  0  0  0  0  0  0  0  0
  150.2651  136.9326  159.3791 N   0  0  0  0  0  0  0  0  0  0  0  0
  151.0696  137.9241  158.9416 C   0  0  0  0  0  0  0  0  0  0  0  0
  151.2444  141.6734  158.4896 N   0  0  0  0  0  0  0  0  0  0  0  0
  151.9315  142.0098  159.7537 C   0  0  0  0  0  0  0  0  0  0  0  0
  152.9732  143.1257  159.5560 C   0  0  0  0  0  0  0  0  0  0  0  0
  152.3469  144.3575  158.8939 C   0  0  0  0  0  0  0  0  0  0  0  0
  151.6896  143.9527  157.5703 C   0  0  0  0  0  0  0  0  0  0  0  0
  150.6574  142.8301  157.7813 C   0  0  0  0  0  0  0  0  0  0  0  0
  148.8445  139.8423  157.2005 H   0  0  0  0  0  0  0  0  0  0  0  0
  147.3508  137.9996  157.9930 H   0  0  0  0  0  0  0  0  0  0  0  0
  148.4190  135.4041  160.2561 H   0  0  0  0  0  0  0  0  0  0  0  0
  146.4472  136.8287  158.5345 H   0  0  0  0  0  0  0  0  0  0  0  0
  146.3286  135.1121  158.8112 H   0  0  0  0  0  0  0  0  0  0  0  0
  145.0467  135.6672  160.6246 H   0  0  0  0  0  0  0  0  0  0  0  0
  146.5855  135.9676  161.4213 H   0  0  0  0  0  0  0  0  0  0  0  0
  144.9565  137.5214  162.6248 H   0  0  0  0  0  0  0  0  0  0  0  0
  144.4245  138.9717  161.7815 H   0  0  0  0  0  0  0  0  0  0  0  0
  142.8833  137.6061  160.3573 H   0  0  0  0  0  0  0  0  0  0  0  0
  143.5400  136.1263  161.0383 H   0  0  0  0  0  0  0  0  0  0  0  0
  141.8155  136.4518  162.2377 H   0  0  0  0  0  0  0  0  0  0  0  0
  152.1076  137.8600  159.2323 H   0  0  0  0  0  0  0  0  0  0  0  0
  151.1822  142.3354  160.4758 H   0  0  0  0  0  0  0  0  0  0  0  0
  152.4017  141.1233  160.1783 H   0  0  0  0  0  0  0  0  0  0  0  0
  153.4045  143.4022  160.5182 H   0  0  0  0  0  0  0  0  0  0  0  0
  153.7992  142.7638  158.9451 H   0  0  0  0  0  0  0  0  0  0  0  0
  151.6033  144.7991  159.5585 H   0  0  0  0  0  0  0  0  0  0  0  0
  153.1066  145.1200  158.7203 H   0  0  0  0  0  0  0  0  0  0  0  0
  151.2046  144.8180  157.1180 H   0  0  0  0  0  0  0  0  0  0  0  0
  152.4560  143.6315  156.8665 H   0  0  0  0  0  0  0  0  0  0  0  0
  150.2363  142.5173  156.8263 H   0  0  0  0  0  0  0  0  0  0  0  0
  149.8246  143.2090  158.3746 H   0  0  0  0  0  0  0  0  0  0  0  0
  1  2  2  0  0  0  0
  2  3  2  0  0  0  0
  2  4  1  0  0  0  0
  2 17  1  0  0  0  0
  4 16  1  0  0  0  0
  4  5  2  0  0  0  0
  5  6  1  0  0  0  0
  5 23  1  0  0  0  0
  6  7  2  0  0  0  0
  6 24  1  0  0  0  0
  7  8  1  0  0  0  0
  7 15  1  0  0  0  0
  8  9  1  0  0  0  0
  8 25  1  0  0  0  0
  9 10  1  0  0  0  0
  9 26  1  0  0  0  0
  9 27  1  0  0  0  0
 10 11  1  0  0  0  0
 10 28  1  0  0  0  0
 10 29  1  0  0  0  0
 11 12  1  0  0  0  0
 12 13  1  0  0  0  0
 12 30  1  0  0  0  0
 12 31  1  0  0  0  0
 13 14  1  0  0  0  0
 13 32  1  0  0  0  0
 13 33  1  0  0  0  0
 14 34  1  0  0  0  0
 15 16  2  0  0  0  0
 16 35  1  0  0  0  0
 17 22  1  0  0  0  0
 17 18  1  0  0  0  0
 18 19  1  0  0  0  0
 18 36  1  0  0  0  0
 18 37  1  0  0  0  0
 19 20  1  0  0  0  0
 19 38  1  0  0  0  0
 19 39  1  0  0  0  0
 20 21  1  0  0  0  0
 20 40  1  0  0  0  0
 20 41  1  0  0  0  0
 21 22  1  0  0  0  0
 21 42  1  0  0  0  0
 21 43  1  0  0  0  0
 22 44  1  0  0  0  0
 22 45  1  0  0  0  0
M  END
> <s_m_source_file>
AV-unprocessed.smi

> <i_m_source_file_index>
2968

> <i_lp_mmshare_version>
43012

> <i_f3d_flags>
0

> <s_epik_input>
W0NIMl0xW0NIMl1bQ0gyXVtDSDJdW0NIMl1OMVMoPU8pKD1PKWMyW2NIXVtjSF1jKG5bY0hdMilbTkhdW0NIMl1bQ0gyXU9bQ0gyXVtDSDJdW09IXQ==

> <s_epik_cmdline>
J2VwaWtfcHl0aG9uJywgJy1waCcsICc3LjAnLCAnLXRuJywgJzgnLCAnLW1hJywgJzIwMCcsICctbWV0YWxfYmluZGluZycsICctaW1hZScsICc8aW5maWxlLm1hZT4nLCAnLW9tYWUnLCAnPG91dGZpbGUubWFlPic=

> <r_lp_tautomer_probability>
1

> <r_epik_Ionization_Penalty>
0.000398056

> <r_epik_Ionization_Penalty_Charging>
0

> <r_epik_Ionization_Penalty_Neutral>
0.000398056

> <r_epik_State_Penalty>
0.00024364

> <r_epik_Charging_Adjusted_Penalty>
0.00024364

> <i_epik_Tot_Q>
0

> <i_epik_Tot_abs_Q>
0

> <r_epik_Metal_State_Penalty>
-0

> <b_epik_Metal_Only>
0

> <s_lp_Force_Field>
OPLS_2005

> <r_lp_Energy>
3.3881

> <b_lp_Chiralities_Consistent>
1

> <s_lp_Variant>
AV-unprocessed.smi:2968-1

> <Gold.Version>
5.8.1

> <Gold.Id.Protein>
6NUR|6NUR_protein|mol2

> <Gold.PLP.Fitness>
47.9979

> <Gold.PLP.PLP>
-40.0021

> <Gold.PLP.part.hbond>
-5.3123

> <Gold.PLP.part.metal>
0.0000

> <Gold.PLP.part.buried>
-5.1595

> <Gold.PLP.part.nonpolar>
-30.6608

> <Gold.PLP.part.repulsive>
0.1634

> <Gold.PLP.ligand.clash>
0.0000

> <Gold.PLP.ligand.torsion>
2.5784

> <Gold.PLP.Chemscore.Hbond>
2.9920

> <Gold.PLP.Chemscore.CHOScore>
0.0000

> <Gold.PLP.Chemscore.Metal>
0.0000

> <Gold.Chemscore.Hbonds>
donor molecule, donor type, donor heavy atom, donor atom, acceptor molecule, acceptor atom, score
      P1  H  6896  6908       L1    15  0.84
      P1  H  6934  6947       L1    11  0.83
      P1  H  7997  8008       L1     1  1.00

> <Gold.PLP.Chemscore.Internal.Correction>
4.1765

> <Gold.Rescore>
     Score         DG    S(hbond)    S(metal)    S(lipo)     H(rot)  DE(clash)    DE(int)     intcor
     15.29     -18.02       2.74        0.00      85.86       2.60       0.12       2.61       ----

> <Gold.Chemscore.Fitness>
15.2864

> <Gold.Chemscore.DG>
-18.0233

> <Gold.Chemscore.ZeroCoef>
-5.4800

> <Gold.Chemscore.Hbond>
2.7412

> <Gold.Chemscore.Metal>
0.0000

> <Gold.Chemscore.Lipo>
85.8643

> <Gold.Chemscore.Internal_Hbond>
0.0000

> <Gold.Chemscore.DEClash>
0.1229

> <Gold.Chemscore.DEInternal>
2.6141

> <Gold.Chemscore.Rot>
2.6009

> <Gold.Chemscore.Internal.Correction>
   9.000000E+99

> <Gold.Chemscore.Hbonds>
donor molecule, donor type, donor heavy atom, donor atom, acceptor molecule, acceptor atom, score
      P1  H  6896  6908       L1    15  0.77
      P1  H  6934  6947       L1    11  0.49
      P1  H  7997  8008       L1     1  0.94

> <Gold.Chemscore.Hbond.Weighted>
-9.1556

> <Gold.Chemscore.Metal.Weighted>
-0.0000

> <Gold.Chemscore.Lipo.Weighted>
-10.0461

> <Gold.Chemscore.Internal_Hbond.Weighted>
0.0000

> <Gold.Chemscore.DEClash.Weighted>
0.1229

> <Gold.Chemscore.DEInternal.Weighted>
2.6141

> <Gold.Chemscore.Rot.Weighted>
6.6583

> <Gold.Chemscore.Internal.Correction.Weighted>
   9.000000E+99

> <Gold.Protein.RotatedTorsions>
[ 6907 6896 6895 6894 ] final -149.31 input  -60.11 | X-H torsion
[ 7974 7965 7964 7962 ] final -125.66 input  175.53 | X-H torsion
[ 8008 7997 7996 7995 ] final  -94.25 input   59.86 | X-H torsion
[ 10167 10162 10161 10158 ] final   11.71 input  -65.29 | X-H torsion
[ 10718 10713 10712 10709 ] final  -63.43 input   66.30 | X-H torsion
[ 10763 10752 10751 10750 ] final  -28.76 input  -60.55 | X-H torsion
[ 11005 11000 10999 10996 ] final  100.99 input  -57.11 | X-H torsion

> <Gold.Protein.ActiveResidues>
 VAL166  LYS551  ARG553  GLY616  TRP617  ASP618  TYR619  PRO620  LYS621  CYS622 
 ASP623  PHE694  ASN695  SER759  ASP760  ASP761  ALA762  ILE779  LEU786  VAL792 
 PHE793  MET794  SER795  GLU796  ALA797  LYS798  CYS799  TRP800  GLU811  SER814 

> <Gold.Protein.RotatedAtoms>
  151.1822  133.4718  159.2593 H   0  0  0  0  0  0  0  0  0  0  0  0  # atno 6907 bound_to 6896
  151.1247  135.0098  159.8565 H   0  0  0  0  0  0  0  0  0  0  0  0  # atno 6908 bound_to 6896
  152.5457  134.1730  159.8658 H   0  0  0  0  0  0  0  0  0  0  0  0  # atno 6909 bound_to 6896
  144.9953  140.7770  143.4529 H   0  0  0  0  0  0  0  0  0  0  0  0  # atno 7974 bound_to 7965
  154.7460  140.0491  157.0852 H   0  0  0  0  0  0  0  0  0  0  0  0  # atno 8008 bound_to 7997
  155.0117  140.3137  155.4808 H   0  0  0  0  0  0  0  0  0  0  0  0  # atno 8009 bound_to 7997
  156.2875  140.2183  156.5232 H   0  0  0  0  0  0  0  0  0  0  0  0  # atno 8010 bound_to 7997
  140.6114  143.8399  150.7070 H   0  0  0  0  0  0  0  0  0  0  0  0  # atno 10167 bound_to 10162
  156.0792  130.4220  150.1276 H   0  0  0  0  0  0  0  0  0  0  0  0  # atno 10718 bound_to 10713
  153.7536  135.6924  153.4940 H   0  0  0  0  0  0  0  0  0  0  0  0  # atno 10763 bound_to 10752
  153.1986  135.4445  155.0237 H   0  0  0  0  0  0  0  0  0  0  0  0  # atno 10764 bound_to 10752
  154.8178  135.3407  154.7056 H   0  0  0  0  0  0  0  0  0  0  0  0  # atno 10765 bound_to 10752
  139.8772  134.9164  156.4839 H   0  0  0  0  0  0  0  0  0  0  0  0  # atno 11005 bound_to 11000
  145.2228  139.2151  143.5084 LP  0  0  0  0  0  0  0  0  0  0  0  0  # atno 17320 bound_to 7965
  146.3440  140.2090  142.8590 LP  0  0  0  0  0  0  0  0  0  0  0  0  # atno 17321 bound_to 7965
  140.1968  143.3991  152.1821 LP  0  0  0  0  0  0  0  0  0  0  0  0  # atno 17342 bound_to 10162
  139.5364  144.7214  151.4878 LP  0  0  0  0  0  0  0  0  0  0  0  0  # atno 17343 bound_to 10162
  156.9311  130.9714  151.3533 LP  0  0  0  0  0  0  0  0  0  0  0  0  # atno 17370 bound_to 10713
  157.5901  130.8437  149.8646 LP  0  0  0  0  0  0  0  0  0  0  0  0  # atno 17371 bound_to 10713
  140.8707  133.7990  155.9362 LP  0  0  0  0  0  0  0  0  0  0  0  0  # atno 17394 bound_to 11000
  140.8955  134.2443  157.5071 LP  0  0  0  0  0  0  0  0  0  0  0  0  # atno 17395 bound_to 11000

$$$$
