AV-unprocessed.smi:175|AV-procd|sdf|1430|dock5
  -GOLD-   2262019203D 1   1.00000     0.00000
 Structure written by MMmdl.
 47 50  0  0  0  0  0  0  0  0  1 V2000
  144.5430  141.4982  155.7080 C   0  0  0  0  0  0  0  0  0  0  0  0
  144.0137  140.0921  156.0325 C   0  0  1  0  0  0  0  0  0  0  0  0
  142.6431  139.9801  155.6776 O   0  0  0  0  0  0  0  0  0  0  0  0
  142.3402  138.5980  155.6296 C   0  0  0  0  0  0  0  0  0  0  0  0
  143.5371  138.0183  154.8856 C   0  0  0  0  0  0  0  0  0  0  0  0
  144.7111  138.8946  155.3332 C   0  0  1  0  0  0  0  0  0  0  0  0
  145.4224  139.3022  154.1757 O   0  0  0  0  0  0  0  0  0  0  0  0
  145.6894  138.1299  156.2591 C   0  0  0  0  0  0  0  0  0  0  0  0
  146.9102  138.8673  156.5499 N   0  0  0  0  0  0  0  0  0  0  0  0
  147.2202  139.5193  157.7230 C   0  0  0  0  0  0  0  0  0  0  0  0
  148.3858  140.1050  157.7440 N   0  0  0  0  0  0  0  0  0  0  0  0
  148.9164  139.8450  156.4869 C   0  0  0  0  0  0  0  0  0  0  0  0
  150.1386  140.1771  155.8365 C   0  0  0  0  0  0  0  0  0  0  0  0
  151.1346  140.8991  156.3965 N   0  0  0  0  0  0  0  0  0  0  0  0
  151.7716  140.2548  157.5465 C   0  0  0  0  0  0  0  0  0  0  0  0
  151.6372  141.2953  158.6404 C   0  0  0  0  0  0  0  0  0  0  0  0
  152.0205  141.1160  159.7952 O   0  0  0  0  0  0  0  0  0  0  0  0
  151.0477  142.3897  158.1577 N   0  0  0  0  0  0  0  0  0  0  0  0
  150.7247  143.6087  158.8946 C   0  0  0  0  0  0  0  0  0  0  0  0
  151.9849  144.3593  159.3615 C   0  0  0  0  0  0  0  0  0  0  0  0
  152.7420  144.6356  158.3007 F   0  0  0  0  0  0  0  0  0  0  0  0
  151.6492  145.5058  159.9532 F   0  0  0  0  0  0  0  0  0  0  0  0
  152.6997  143.6214  160.2106 F   0  0  0  0  0  0  0  0  0  0  0  0
  150.7626  142.2737  156.7375 C   0  0  0  0  0  0  0  0  0  0  0  0
  150.3232  139.7444  154.5660 N   0  0  0  0  0  0  0  0  0  0  0  0
  149.3697  139.0288  153.9613 C   0  0  0  0  0  0  0  0  0  0  0  0
  148.1837  138.6437  154.4389 N   0  0  0  0  0  0  0  0  0  0  0  0
  147.9985  139.0755  155.7197 C   0  0  0  0  0  0  0  0  0  0  0  0
  145.5998  141.5889  155.9597 H   0  0  0  0  0  0  0  0  0  0  0  0
  144.0020  142.2536  156.2777 H   0  0  0  0  0  0  0  0  0  0  0  0
  144.4241  141.7374  154.6511 H   0  0  0  0  0  0  0  0  0  0  0  0
  144.0519  139.9509  157.1131 H   0  0  0  0  0  0  0  0  0  0  0  0
  142.2760  138.1984  156.6432 H   0  0  0  0  0  0  0  0  0  0  0  0
  141.3946  138.4085  155.1217 H   0  0  0  0  0  0  0  0  0  0  0  0
  143.6797  136.9578  155.0956 H   0  0  0  0  0  0  0  0  0  0  0  0
  143.3619  138.1158  153.8128 H   0  0  0  0  0  0  0  0  0  0  0  0
  144.8197  139.7324  153.5888 H   0  0  0  0  0  0  0  0  0  0  0  0
  145.2000  137.8924  157.2046 H   0  0  0  0  0  0  0  0  0  0  0  0
  145.9665  137.1734  155.8134 H   0  0  0  0  0  0  0  0  0  0  0  0
  146.5531  139.5407  158.5725 H   0  0  0  0  0  0  0  0  0  0  0  0
  151.3000  139.3172  157.8471 H   0  0  0  0  0  0  0  0  0  0  0  0
  152.8236  140.0625  157.3349 H   0  0  0  0  0  0  0  0  0  0  0  0
  150.1121  144.2602  158.2696 H   0  0  0  0  0  0  0  0  0  0  0  0
  150.1099  143.3499  159.7578 H   0  0  0  0  0  0  0  0  0  0  0  0
  151.3800  142.9718  156.1712 H   0  0  0  0  0  0  0  0  0  0  0  0
  149.7157  142.5068  156.5341 H   0  0  0  0  0  0  0  0  0  0  0  0
  149.5885  138.7194  152.9499 H   0  0  0  0  0  0  0  0  0  0  0  0
  1  2  1  0  0  0  0
  1 29  1  0  0  0  0
  1 30  1  0  0  0  0
  1 31  1  0  0  0  0
  2  6  1  0  0  0  0
  2  3  1  0  0  0  0
  2 32  1  0  0  0  0
  3  4  1  0  0  0  0
  4  5  1  0  0  0  0
  4 33  1  0  0  0  0
  4 34  1  0  0  0  0
  5  6  1  0  0  0  0
  5 35  1  0  0  0  0
  5 36  1  0  0  0  0
  6  7  1  0  0  0  0
  6  8  1  0  0  0  0
  7 37  1  0  0  0  0
  8  9  1  0  0  0  0
  8 38  1  0  0  0  0
  8 39  1  0  0  0  0
  9 28  1  0  0  0  0
  9 10  1  0  0  0  0
 10 11  2  0  0  0  0
 10 40  1  0  0  0  0
 11 12  1  0  0  0  0
 12 28  2  0  0  0  0
 12 13  1  0  0  0  0
 13 14  1  0  0  0  0
 13 25  2  0  0  0  0
 14 24  1  0  0  0  0
 14 15  1  0  0  0  0
 15 16  1  0  0  0  0
 15 41  1  0  0  0  0
 15 42  1  0  0  0  0
 16 17  2  0  0  0  0
 16 18  1  0  0  0  0
 18 19  1  0  0  0  0
 18 24  1  0  0  0  0
 19 20  1  0  0  0  0
 19 43  1  0  0  0  0
 19 44  1  0  0  0  0
 20 21  1  0  0  0  0
 20 22  1  0  0  0  0
 20 23  1  0  0  0  0
 24 45  1  0  0  0  0
 24 46  1  0  0  0  0
 25 26  1  0  0  0  0
 26 27  2  0  0  0  0
 26 47  1  0  0  0  0
 27 28  1  0  0  0  0
M  END
> <s_m_source_file>
AV-unprocessed.smi

> <i_m_source_file_index>
175

> <i_lp_mmshare_version>
43012

> <i_f3d_flags>
0

> <s_epik_input>
W0NIMl0xW0NIMl1PW0NAQEhdKFtDSDNdKVtDQEBdMShbT0hdKVtDSDJdbihbY0hdbjIpYyhjMjMpbltjSF1uYzNONFtDSDJdQyg9TylOKFtDSDJdNClbQ0gyXUMoRikoRilG

> <s_epik_cmdline>
J2VwaWtfcHl0aG9uJywgJy1waCcsICc3LjAnLCAnLXRuJywgJzgnLCAnLW1hJywgJzIwMCcsICctbWV0YWxfYmluZGluZycsICctaW1hZScsICc8aW5maWxlLm1hZT4nLCAnLW9tYWUnLCAnPG91dGZpbGUubWFlPic=

> <r_lp_tautomer_probability>
1

> <r_epik_Ionization_Penalty>
0.000307802

> <r_epik_Ionization_Penalty_Charging>
0

> <r_epik_Ionization_Penalty_Neutral>
0.000307802

> <r_epik_State_Penalty>
-0

> <r_epik_Charging_Adjusted_Penalty>
0

> <i_epik_Tot_Q>
0

> <i_epik_Tot_abs_Q>
0

> <r_epik_Metal_State_Penalty>
-0

> <b_epik_Metal_Only>
0

> <s_epik_Chemistry_Notes>
This compound contains an acetal/aminal-like group ( X-CH(R)-Y where X, Y are N, S, or O) that may be acid/base labile, releasing an aldehyde.

> <s_lp_Force_Field>
OPLS_2005

> <r_lp_Energy>
36.8699

> <b_lp_Chiralities_Consistent>
1

> <s_lp_Variant>
AV-unprocessed.smi:175-2

> <Gold.Version>
5.8.1

> <Gold.Id.Protein>
6NUR|6NUR_protein|mol2

> <Gold.PLP.Fitness>
47.1200

> <Gold.PLP.PLP>
-37.4427

> <Gold.PLP.part.hbond>
-2.0000

> <Gold.PLP.part.metal>
0.0000

> <Gold.PLP.part.buried>
-5.2787

> <Gold.PLP.part.nonpolar>
-32.1521

> <Gold.PLP.part.repulsive>
0.3916

> <Gold.PLP.ligand.clash>
0.0000

> <Gold.PLP.ligand.torsion>
0.3509

> <Gold.PLP.Chemscore.Hbond>
1.9913

> <Gold.PLP.Chemscore.CHOScore>
1.4019

> <Gold.PLP.Chemscore.Metal>
0.0000

> <Gold.Chemscore.Hbonds>
donor molecule, donor type, donor heavy atom, donor atom, acceptor molecule, acceptor atom, score
      L1  H     7    37       P1 10175  1.00
      P1  H  7989  7998       L1    25  1.00
      L1  C    26    47       P1  7948  0.43
      L1  C    26    47       P1  7957  0.94

> <Gold.PLP.Chemscore.Internal.Correction>
0.1996

> <Gold.Rescore>
     Score         DG    S(hbond)    S(metal)    S(lipo)     H(rot)  DE(clash)    DE(int)     intcor
      4.43      -6.64       1.61        0.00      30.61       3.05       0.00       2.21       ----

> <Gold.Chemscore.Fitness>
4.4283

> <Gold.Chemscore.DG>
-6.6421

> <Gold.Chemscore.ZeroCoef>
-5.4800

> <Gold.Chemscore.Hbond>
1.6124

> <Gold.Chemscore.Metal>
0.0000

> <Gold.Chemscore.Lipo>
30.6105

> <Gold.Chemscore.Internal_Hbond>
0.0000

> <Gold.Chemscore.DEClash>
0.0032

> <Gold.Chemscore.DEInternal>
2.2106

> <Gold.Chemscore.Rot>
3.0487

> <Gold.Chemscore.Internal.Correction>
   9.000000E+99

> <Gold.Chemscore.Hbonds>
donor molecule, donor type, donor heavy atom, donor atom, acceptor molecule, acceptor atom, score
      L1  H     7    37       P1 10175  1.00
      P1  H  7989  7998       L1    25  0.81

> <Gold.Chemscore.Hbond.Weighted>
-5.3853

> <Gold.Chemscore.Metal.Weighted>
-0.0000

> <Gold.Chemscore.Lipo.Weighted>
-3.5814

> <Gold.Chemscore.Internal_Hbond.Weighted>
0.0000

> <Gold.Chemscore.DEClash.Weighted>
0.0032

> <Gold.Chemscore.DEInternal.Weighted>
2.2106

> <Gold.Chemscore.Rot.Weighted>
7.8046

> <Gold.Chemscore.Internal.Correction.Weighted>
   9.000000E+99

> <Gold.Protein.RotatedTorsions>
[ 6907 6896 6895 6894 ] final -147.38 input  -60.11 | X-H torsion
[ 7974 7965 7964 7962 ] final -121.23 input  175.53 | X-H torsion
[ 8008 7997 7996 7995 ] final   61.47 input   59.86 | X-H torsion
[ 10167 10162 10161 10158 ] final -163.19 input  -65.29 | X-H torsion
[ 10718 10713 10712 10709 ] final -141.96 input   66.30 | X-H torsion
[ 10763 10752 10751 10750 ] final -175.14 input  -60.55 | X-H torsion
[ 11005 11000 10999 10996 ] final -121.44 input  -57.11 | X-H torsion

> <Gold.Protein.ActiveResidues>
 VAL166  LYS551  ARG553  GLY616  TRP617  ASP618  TYR619  PRO620  LYS621  CYS622 
 ASP623  PHE694  ASN695  SER759  ASP760  ASP761  ALA762  ILE779  LEU786  VAL792 
 PHE793  MET794  SER795  GLU796  ALA797  LYS798  CYS799  TRP800  GLU811  SER814 

> <Gold.Protein.RotatedAtoms>
  151.1549  133.4883  159.2594 H   0  0  0  0  0  0  0  0  0  0  0  0  # atno 6907 bound_to 6896
  151.1515  135.0229  159.8680 H   0  0  0  0  0  0  0  0  0  0  0  0  # atno 6908 bound_to 6896
  152.5463  134.1433  159.8541 H   0  0  0  0  0  0  0  0  0  0  0  0  # atno 6909 bound_to 6896
  145.0426  140.8156  143.4257 H   0  0  0  0  0  0  0  0  0  0  0  0  # atno 7974 bound_to 7965
  155.5989  140.3493  155.4588 H   0  0  0  0  0  0  0  0  0  0  0  0  # atno 8008 bound_to 7997
  156.0244  140.1260  157.0349 H   0  0  0  0  0  0  0  0  0  0  0  0  # atno 8009 bound_to 7997
  154.4327  140.1056  156.5995 H   0  0  0  0  0  0  0  0  0  0  0  0  # atno 8010 bound_to 7997
  139.6338  144.0389  152.2037 H   0  0  0  0  0  0  0  0  0  0  0  0  # atno 10167 bound_to 10162
  156.3403  130.7633  151.1768 H   0  0  0  0  0  0  0  0  0  0  0  0  # atno 10718 bound_to 10713
  154.5879  135.2842  155.0665 H   0  0  0  0  0  0  0  0  0  0  0  0  # atno 10763 bound_to 10752
  154.1977  135.6430  153.5082 H   0  0  0  0  0  0  0  0  0  0  0  0  # atno 10764 bound_to 10752
  153.0111  135.5461  154.6555 H   0  0  0  0  0  0  0  0  0  0  0  0  # atno 10765 bound_to 10752
  141.0070  134.0320  157.3464 H   0  0  0  0  0  0  0  0  0  0  0  0  # atno 11005 bound_to 11000
  145.1629  139.2448  143.5382 LP  0  0  0  0  0  0  0  0  0  0  0  0  # atno 17320 bound_to 7965
  146.3511  140.1360  142.8596 LP  0  0  0  0  0  0  0  0  0  0  0  0  # atno 17321 bound_to 7965
  140.0061  144.6258  150.7688 LP  0  0  0  0  0  0  0  0  0  0  0  0  # atno 17342 bound_to 10162
  140.7454  143.2875  151.3423 LP  0  0  0  0  0  0  0  0  0  0  0  0  # atno 17343 bound_to 10162
  157.7445  131.0456  150.4853 LP  0  0  0  0  0  0  0  0  0  0  0  0  # atno 17370 bound_to 10713
  156.5032  130.4122  149.6341 LP  0  0  0  0  0  0  0  0  0  0  0  0  # atno 17371 bound_to 10713
  139.9069  135.0181  156.7523 LP  0  0  0  0  0  0  0  0  0  0  0  0  # atno 17394 bound_to 11000
  140.6796  133.9486  155.7903 LP  0  0  0  0  0  0  0  0  0  0  0  0  # atno 17395 bound_to 11000

$$$$
