AV-unprocessed.smi:2084|AV-procd|sdf|8515|dock4
  -GOLD-   2272011233D 1   1.00000     0.00000
 Structure written by MMmdl.
 38 39  0  0  0  0  0  0  0  0  3 V2000
  146.5012  138.7647  153.9231 C   0  0  0  0  0  0  0  0  0  0  0  0
  146.5150  140.1516  153.3798 N   0  3  0  0  0  0  0  0  0  0  0  0
  147.0044  140.1458  151.9765 C   0  0  0  0  0  0  0  0  0  0  0  0
  147.1281  141.2075  154.2665 C   0  0  0  0  0  0  0  0  0  0  0  0
  148.6719  140.9851  154.3591 C   0  0  0  0  0  0  0  0  0  0  0  0
  149.3705  142.0134  155.1316 N   0  0  0  0  0  0  0  0  0  0  0  0
  150.2982  141.8149  156.0785 C   0  0  0  0  0  0  0  0  0  0  0  0
  150.6276  140.6686  156.3913 O   0  0  0  0  0  0  0  0  0  0  0  0
  150.7967  142.9614  156.5917 N   0  5  0  0  0  0  0  0  0  0  0  0
  151.5890  142.9231  157.6753 C   0  0  0  0  0  0  0  0  0  0  0  0
  151.8016  141.8097  158.3861 N   0  0  0  0  0  0  0  0  0  0  0  0
  152.6547  142.0010  159.4746 C   0  0  0  0  0  0  0  0  0  0  0  0
  153.0942  143.2921  159.6008 C   0  0  0  0  0  0  0  0  0  0  0  0
  152.4471  144.3120  158.3477 S   0  0  0  0  0  0  0  0  0  0  0  0
  146.8358  142.6330  153.7033 C   0  0  0  0  0  0  0  0  0  0  0  0
  145.8527  143.2966  154.6701 C   0  0  0  0  0  0  0  0  0  0  0  0
  146.1820  142.6732  156.0210 C   0  0  0  0  0  0  0  0  0  0  0  0
  146.4984  141.2134  155.6906 C   0  0  0  0  0  0  0  0  0  0  0  0
  147.4965  138.3232  153.9513 H   0  0  0  0  0  0  0  0  0  0  0  0
  145.8881  138.1261  153.2865 H   0  0  0  0  0  0  0  0  0  0  0  0
  146.0730  138.6928  154.9204 H   0  0  0  0  0  0  0  0  0  0  0  0
  148.0896  140.0507  151.9320 H   0  0  0  0  0  0  0  0  0  0  0  0
  146.7088  141.0452  151.4382 H   0  0  0  0  0  0  0  0  0  0  0  0
  146.5762  139.3114  151.4199 H   0  0  0  0  0  0  0  0  0  0  0  0
  148.9005  140.0574  154.8811 H   0  0  0  0  0  0  0  0  0  0  0  0
  149.0947  140.8807  153.3586 H   0  0  0  0  0  0  0  0  0  0  0  0
  149.1384  142.9725  154.9187 H   0  0  0  0  0  0  0  0  0  0  0  0
  152.8941  141.1610  160.1094 H   0  0  0  0  0  0  0  0  0  0  0  0
  153.7540  143.7041  160.3491 H   0  0  0  0  0  0  0  0  0  0  0  0
  147.7336  143.2472  153.6765 H   0  0  0  0  0  0  0  0  0  0  0  0
  146.4790  142.6413  152.6737 H   0  0  0  0  0  0  0  0  0  0  0  0
  145.9439  144.3831  154.6782 H   0  0  0  0  0  0  0  0  0  0  0  0
  144.8275  143.0512  154.3914 H   0  0  0  0  0  0  0  0  0  0  0  0
  147.0618  143.1591  156.4453 H   0  0  0  0  0  0  0  0  0  0  0  0
  145.3685  142.7743  156.7398 H   0  0  0  0  0  0  0  0  0  0  0  0
  145.5710  140.6455  155.7327 H   0  0  0  0  0  0  0  0  0  0  0  0
  147.1504  140.7678  156.4427 H   0  0  0  0  0  0  0  0  0  0  0  0
  145.5406  140.4098  153.3159 H   0  0  0  0  0  0  0  0  0  0  0  0
  1  2  1  0  0  0  0
  1 19  1  0  0  0  0
  1 20  1  0  0  0  0
  1 21  1  0  0  0  0
  2  3  1  0  0  0  0
  2  4  1  0  0  0  0
  2 38  1  0  0  0  0
  3 22  1  0  0  0  0
  3 23  1  0  0  0  0
  3 24  1  0  0  0  0
  4 18  1  0  0  0  0
  4  5  1  0  0  0  0
  4 15  1  0  0  0  0
  5  6  1  0  0  0  0
  5 25  1  0  0  0  0
  5 26  1  0  0  0  0
  6  7  1  0  0  0  0
  6 27  1  0  0  0  0
  7  8  2  0  0  0  0
  7  9  1  0  0  0  0
  9 10  1  0  0  0  0
 10 14  1  0  0  0  0
 10 11  2  0  0  0  0
 11 12  1  0  0  0  0
 12 13  2  0  0  0  0
 12 28  1  0  0  0  0
 13 14  1  0  0  0  0
 13 29  1  0  0  0  0
 15 16  1  0  0  0  0
 15 30  1  0  0  0  0
 15 31  1  0  0  0  0
 16 17  1  0  0  0  0
 16 32  1  0  0  0  0
 16 33  1  0  0  0  0
 17 18  1  0  0  0  0
 17 34  1  0  0  0  0
 17 35  1  0  0  0  0
 18 36  1  0  0  0  0
 18 37  1  0  0  0  0
M  CHG  1   2   1
M  CHG  1   9  -1
M  END
> <s_m_source_file>
AV-unprocessed.smi

> <i_m_source_file_index>
2084

> <i_lp_mmshare_version>
43012

> <i_f3d_flags>
0

> <s_epik_input>
W0NIMl0xW0NIMl1bQ0gyXVtDSDJdQzEoTihbQ0gzXSlbQ0gzXSlbQ0gyXVtOSF1DKD1PKVtOSF1jMm5bY0hdW2NIXXMy

> <s_epik_cmdline>
J2VwaWtfcHl0aG9uJywgJy1waCcsICc3LjAnLCAnLXRuJywgJzgnLCAnLW1hJywgJzIwMCcsICctbWV0YWxfYmluZGluZycsICctaW1hZScsICc8aW5maWxlLm1hZT4nLCAnLW9tYWUnLCAnPG91dGZpbGUubWFlPic=

> <r_lp_tautomer_probability>
1

> <r_epik_Ionization_Penalty>
7.73928

> <r_epik_Ionization_Penalty_Charging>
6.33943

> <r_epik_Ionization_Penalty_Neutral>
1.39985

> <r_epik_State_Penalty>
6.33766

> <r_epik_Charging_Adjusted_Penalty>
12.6771

> <i_epik_Tot_Q>
0

> <i_epik_Tot_abs_Q>
2

> <r_epik_Metal_State_Penalty>
2.27131

> <b_epik_Metal_Only>
1

> <s_lp_Force_Field>
OPLS_2005

> <r_lp_Energy>
28.85

> <b_lp_Chiralities_Consistent>
1

> <s_lp_Variant>
AV-unprocessed.smi:2084-2

> <Gold.Version>
5.8.1

> <Gold.Id.Protein>
6NUR|6NUR_protein|mol2

> <Gold.PLP.Fitness>
42.1681

> <Gold.PLP.PLP>
-33.4224

> <Gold.PLP.part.hbond>
-2.0000

> <Gold.PLP.part.metal>
0.0000

> <Gold.PLP.part.buried>
-4.2579

> <Gold.PLP.part.nonpolar>
-29.1825

> <Gold.PLP.part.repulsive>
2.0893

> <Gold.PLP.ligand.clash>
0.0000

> <Gold.PLP.ligand.torsion>
0.1951

> <Gold.PLP.Chemscore.Hbond>
3.0000

> <Gold.PLP.Chemscore.CHOScore>
0.0000

> <Gold.PLP.Chemscore.Metal>
0.0000

> <Gold.Chemscore.Hbonds>
donor molecule, donor type, donor heavy atom, donor atom, acceptor molecule, acceptor atom, score
      L1  H     2    38       P1 10175  1.95
      L1  H     6    27       P1  8028  0.91

> <Gold.PLP.Chemscore.Internal.Correction>
0.1359

> <Gold.Rescore>
     Score         DG    S(hbond)    S(metal)    S(lipo)     H(rot)  DE(clash)    DE(int)     intcor
     13.83     -17.16       1.91        0.00      79.28       1.55       1.45       1.88       ----

> <Gold.Chemscore.Fitness>
13.8302

> <Gold.Chemscore.DG>
-17.1598

> <Gold.Chemscore.ZeroCoef>
-5.4800

> <Gold.Chemscore.Hbond>
1.9112

> <Gold.Chemscore.Metal>
0.0000

> <Gold.Chemscore.Lipo>
79.2845

> <Gold.Chemscore.Internal_Hbond>
0.0000

> <Gold.Chemscore.DEClash>
1.4527

> <Gold.Chemscore.DEInternal>
1.8769

> <Gold.Chemscore.Rot>
1.5546

> <Gold.Chemscore.Internal.Correction>
   9.000000E+99

> <Gold.Chemscore.Hbonds>
donor molecule, donor type, donor heavy atom, donor atom, acceptor molecule, acceptor atom, score
      L1  H     2    38       P1 10175  0.88
      L1  H     6    27       P1  8028  0.89

> <Gold.Chemscore.Hbond.Weighted>
-6.3833

> <Gold.Chemscore.Metal.Weighted>
-0.0000

> <Gold.Chemscore.Lipo.Weighted>
-9.2763

> <Gold.Chemscore.Internal_Hbond.Weighted>
0.0000

> <Gold.Chemscore.DEClash.Weighted>
1.4527

> <Gold.Chemscore.DEInternal.Weighted>
1.8769

> <Gold.Chemscore.Rot.Weighted>
3.9798

> <Gold.Chemscore.Internal.Correction.Weighted>
   9.000000E+99

> <Gold.Protein.RotatedTorsions>
[ 6907 6896 6895 6894 ] final  -73.96 input  -60.11 | X-H torsion
[ 7974 7965 7964 7962 ] final   14.45 input  175.53 | X-H torsion
[ 8008 7997 7996 7995 ] final  -73.10 input   59.86 | X-H torsion
[ 10167 10162 10161 10158 ] final -127.68 input  -65.29 | X-H torsion
[ 10718 10713 10712 10709 ] final  -12.44 input   66.30 | X-H torsion
[ 10763 10752 10751 10750 ] final  130.24 input  -60.55 | X-H torsion
[ 11005 11000 10999 10996 ] final  -90.72 input  -57.11 | X-H torsion

> <Gold.Protein.ActiveResidues>
 VAL166  LYS551  ARG553  GLY616  TRP617  ASP618  TYR619  PRO620  LYS621  CYS622 
 ASP623  PHE694  ASN695  SER759  ASP760  ASP761  ALA762  ILE779  LEU786  VAL792 
 PHE793  MET794  SER795  GLU796  ALA797  LYS798  CYS799  TRP800  GLU811  SER814 

> <Gold.Protein.RotatedAtoms>
  150.7111  134.4940  159.5528 H   0  0  0  0  0  0  0  0  0  0  0  0  # atno 6907 bound_to 6896
  152.2551  134.8089  160.0449 H   0  0  0  0  0  0  0  0  0  0  0  0  # atno 6908 bound_to 6896
  151.8823  133.3462  159.3807 H   0  0  0  0  0  0  0  0  0  0  0  0  # atno 6909 bound_to 6896
  146.2304  139.9039  142.8535 H   0  0  0  0  0  0  0  0  0  0  0  0  # atno 7974 bound_to 7965
  154.5220  140.0785  156.8188 H   0  0  0  0  0  0  0  0  0  0  0  0  # atno 8008 bound_to 7997
  155.3557  140.3415  155.4222 H   0  0  0  0  0  0  0  0  0  0  0  0  # atno 8009 bound_to 7997
  156.1691  140.1613  156.8467 H   0  0  0  0  0  0  0  0  0  0  0  0  # atno 8010 bound_to 7997
  139.9582  143.5979  152.2453 H   0  0  0  0  0  0  0  0  0  0  0  0  # atno 10167 bound_to 10162
  156.6446  130.4937  149.6083 H   0  0  0  0  0  0  0  0  0  0  0  0  # atno 10718 bound_to 10713
  153.7548  135.3204  155.3327 H   0  0  0  0  0  0  0  0  0  0  0  0  # atno 10763 bound_to 10752
  154.8250  135.4576  154.0896 H   0  0  0  0  0  0  0  0  0  0  0  0  # atno 10764 bound_to 10752
  153.2109  135.6935  153.8198 H   0  0  0  0  0  0  0  0  0  0  0  0  # atno 10765 bound_to 10752
  141.1560  133.7710  156.9777 H   0  0  0  0  0  0  0  0  0  0  0  0  # atno 11005 bound_to 11000
  145.2296  140.9968  143.3998 LP  0  0  0  0  0  0  0  0  0  0  0  0  # atno 17320 bound_to 7965
  144.9541  139.4050  143.6388 LP  0  0  0  0  0  0  0  0  0  0  0  0  # atno 17321 bound_to 7965
  139.6574  144.7662  151.2028 LP  0  0  0  0  0  0  0  0  0  0  0  0  # atno 17342 bound_to 10162
  140.7561  143.6063  150.8649 LP  0  0  0  0  0  0  0  0  0  0  0  0  # atno 17343 bound_to 10162
  156.2132  130.6691  151.1291 LP  0  0  0  0  0  0  0  0  0  0  0  0  # atno 17370 bound_to 10713
  157.7160  131.0709  150.6324 LP  0  0  0  0  0  0  0  0  0  0  0  0  # atno 17371 bound_to 10713
  140.1087  134.9490  157.2032 LP  0  0  0  0  0  0  0  0  0  0  0  0  # atno 17394 bound_to 11000
  140.3223  134.2903  155.7244 LP  0  0  0  0  0  0  0  0  0  0  0  0  # atno 17395 bound_to 11000

$$$$
