AV-unprocessed.smi:1885|AV-procd|sdf|7650|dock10
  -GOLD-   22720 9383D 1   1.00000     0.00000
 Structure written by MMmdl.
 43 45  0  0  0  0  0  0  0  0  1 V2000
  144.9976  134.8472  150.3242 C   0  0  0  0  0  0  0  0  0  0  0  0
  145.0091  135.2370  151.6899 O   0  0  0  0  0  0  0  0  0  0  0  0
  145.5417  136.4679  152.0085 C   0  0  0  0  0  0  0  0  0  0  0  0
  146.0919  137.3673  151.0608 C   0  0  0  0  0  0  0  0  0  0  0  0
  146.6171  138.6070  151.4748 C   0  0  0  0  0  0  0  0  0  0  0  0
  146.5955  138.9721  152.8358 C   0  0  0  0  0  0  0  0  0  0  0  0
  147.1820  140.3014  153.2734 C   0  0  0  0  0  0  0  0  0  0  0  0
  148.1544  140.1470  154.2943 O   0  0  0  0  0  0  0  0  0  0  0  0
  148.8954  141.3309  154.5383 C   0  0  0  0  0  0  0  0  0  0  0  0
  149.3490  141.3380  156.0052 C   0  0  2  0  0  0  0  0  0  0  0  0
  148.4329  142.1067  156.7597 O   0  0  0  0  0  0  0  0  0  0  0  0
  150.7720  141.9036  156.1794 C   0  0  0  0  0  0  0  0  0  0  0  0
  151.3777  141.4937  157.4332 N   0  0  0  0  0  0  0  0  0  0  0  0
  151.8054  140.2617  157.7705 C   0  0  0  0  0  0  0  0  0  0  0  0
  152.3334  140.1112  158.9823 N   0  0  0  0  0  0  0  0  0  0  0  0
  152.2377  141.3955  159.4907 C   0  0  0  0  0  0  0  0  0  0  0  0
  152.6251  141.9176  160.7454 C   0  0  0  0  0  0  0  0  0  0  0  0
  152.4255  143.2816  161.0449 C   0  0  0  0  0  0  0  0  0  0  0  0
  152.8029  143.7655  162.2521 F   0  0  0  0  0  0  0  0  0  0  0  0
  151.8358  144.1427  160.0957 C   0  0  0  0  0  0  0  0  0  0  0  0
  151.6478  145.4506  160.3916 F   0  0  0  0  0  0  0  0  0  0  0  0
  151.4411  143.6451  158.8390 C   0  0  0  0  0  0  0  0  0  0  0  0
  151.6429  142.2842  158.5453 C   0  0  0  0  0  0  0  0  0  0  0  0
  146.0575  138.0773  153.7834 C   0  0  0  0  0  0  0  0  0  0  0  0
  145.5332  136.8381  153.3689 C   0  0  0  0  0  0  0  0  0  0  0  0
  144.5456  133.8595  150.2358 H   0  0  0  0  0  0  0  0  0  0  0  0
  146.0084  134.7843  149.9189 H   0  0  0  0  0  0  0  0  0  0  0  0
  144.4067  135.5353  149.7182 H   0  0  0  0  0  0  0  0  0  0  0  0
  146.1250  137.1287  150.0087 H   0  0  0  0  0  0  0  0  0  0  0  0
  147.0371  139.2787  150.7407 H   0  0  0  0  0  0  0  0  0  0  0  0
  147.6294  140.7811  152.4016 H   0  0  0  0  0  0  0  0  0  0  0  0
  146.3800  140.9505  153.6288 H   0  0  0  0  0  0  0  0  0  0  0  0
  149.7570  141.3893  153.8710 H   0  0  0  0  0  0  0  0  0  0  0  0
  148.2629  142.1973  154.3367 H   0  0  0  0  0  0  0  0  0  0  0  0
  149.3122  140.3173  156.3887 H   0  0  0  0  0  0  0  0  0  0  0  0
  148.5146  143.0116  156.5007 H   0  0  0  0  0  0  0  0  0  0  0  0
  151.4165  141.5626  155.3682 H   0  0  0  0  0  0  0  0  0  0  0  0
  150.7628  142.9936  156.1311 H   0  0  0  0  0  0  0  0  0  0  0  0
  151.7267  139.4289  157.0868 H   0  0  0  0  0  0  0  0  0  0  0  0
  153.0780  141.2682  161.4796 H   0  0  0  0  0  0  0  0  0  0  0  0
  150.9899  144.3009  158.1093 H   0  0  0  0  0  0  0  0  0  0  0  0
  146.0435  138.3351  154.8323 H   0  0  0  0  0  0  0  0  0  0  0  0
  145.1214  136.1624  154.1042 H   0  0  0  0  0  0  0  0  0  0  0  0
  1  2  1  0  0  0  0
  1 26  1  0  0  0  0
  1 27  1  0  0  0  0
  1 28  1  0  0  0  0
  2  3  1  0  0  0  0
  3 25  1  0  0  0  0
  3  4  2  0  0  0  0
  4  5  1  0  0  0  0
  4 29  1  0  0  0  0
  5  6  2  0  0  0  0
  5 30  1  0  0  0  0
  6  7  1  0  0  0  0
  6 24  1  0  0  0  0
  7  8  1  0  0  0  0
  7 31  1  0  0  0  0
  7 32  1  0  0  0  0
  8  9  1  0  0  0  0
  9 10  1  0  0  0  0
  9 33  1  0  0  0  0
  9 34  1  0  0  0  0
 10 11  1  0  0  0  0
 10 12  1  0  0  0  0
 10 35  1  0  0  0  0
 11 36  1  0  0  0  0
 12 13  1  0  0  0  0
 12 37  1  0  0  0  0
 12 38  1  0  0  0  0
 13 23  1  0  0  0  0
 13 14  1  0  0  0  0
 14 15  2  0  0  0  0
 14 39  1  0  0  0  0
 15 16  1  0  0  0  0
 16 23  2  0  0  0  0
 16 17  1  0  0  0  0
 17 18  2  0  0  0  0
 17 40  1  0  0  0  0
 18 19  1  0  0  0  0
 18 20  1  0  0  0  0
 20 21  1  0  0  0  0
 20 22  2  0  0  0  0
 22 23  1  0  0  0  0
 22 41  1  0  0  0  0
 24 25  2  0  0  0  0
 24 42  1  0  0  0  0
 25 43  1  0  0  0  0
M  END
> <s_m_source_file>
AV-unprocessed.smi

> <i_m_source_file_index>
1885

> <i_lp_mmshare_version>
43012

> <i_f3d_flags>
0

> <s_epik_input>
W0NIM11PYzFbY0hdW2NIXWMoW2NIXVtjSF0xKVtDSDJdT1tDSDJdW0NASF0oW09IXSlbQ0gyXW4oW2NIXW4yKWMoYzIzKVtjSF1jKEYpYyhGKVtjSF0z

> <s_epik_cmdline>
J2VwaWtfcHl0aG9uJywgJy1waCcsICc3LjAnLCAnLXRuJywgJzgnLCAnLW1hJywgJzIwMCcsICctbWV0YWxfYmluZGluZycsICctaW1hZScsICc8aW5maWxlLm1hZT4nLCAnLW9tYWUnLCAnPG91dGZpbGUubWFlPic=

> <r_lp_tautomer_probability>
1

> <r_epik_Ionization_Penalty>
0.0160256

> <r_epik_Ionization_Penalty_Charging>
0

> <r_epik_Ionization_Penalty_Neutral>
0.0160256

> <r_epik_State_Penalty>
0.0126263

> <r_epik_Charging_Adjusted_Penalty>
0.0126263

> <i_epik_Tot_Q>
0

> <i_epik_Tot_abs_Q>
0

> <r_epik_Metal_State_Penalty>
1.27616e-05

> <b_epik_Metal_Only>
0

> <s_lp_Force_Field>
OPLS_2005

> <r_lp_Energy>
16.1682

> <b_lp_Chiralities_Consistent>
1

> <s_lp_Variant>
AV-unprocessed.smi:1885-1

> <Gold.Version>
5.8.1

> <Gold.Id.Protein>
6NUR|6NUR_protein|mol2

> <Gold.PLP.Fitness>
54.1192

> <Gold.PLP.PLP>
-53.1204

> <Gold.PLP.part.hbond>
-1.0000

> <Gold.PLP.part.metal>
0.0000

> <Gold.PLP.part.buried>
-1.8710

> <Gold.PLP.part.nonpolar>
-51.0299

> <Gold.PLP.part.repulsive>
0.2590

> <Gold.PLP.ligand.clash>
0.0000

> <Gold.PLP.ligand.torsion>
1.0527

> <Gold.PLP.Chemscore.Hbond>
1.0000

> <Gold.PLP.Chemscore.CHOScore>
0.0000

> <Gold.PLP.Chemscore.Metal>
0.0000

> <Gold.Chemscore.Hbonds>
donor molecule, donor type, donor heavy atom, donor atom, acceptor molecule, acceptor atom, score
      L1  H    11    36       P1  8028  1.00

> <Gold.PLP.Chemscore.Internal.Correction>
0.1043

> <Gold.Rescore>
     Score         DG    S(hbond)    S(metal)    S(lipo)     H(rot)  DE(clash)    DE(int)     intcor
     13.90     -16.47       0.91        0.00     132.23       2.93       1.09       1.48       ----

> <Gold.Chemscore.Fitness>
13.8980

> <Gold.Chemscore.DG>
-16.4672

> <Gold.Chemscore.ZeroCoef>
-5.4800

> <Gold.Chemscore.Hbond>
0.9061

> <Gold.Chemscore.Metal>
0.0000

> <Gold.Chemscore.Lipo>
132.2254

> <Gold.Chemscore.Internal_Hbond>
0.0000

> <Gold.Chemscore.DEClash>
1.0906

> <Gold.Chemscore.DEInternal>
1.4786

> <Gold.Chemscore.Rot>
2.9335

> <Gold.Chemscore.Internal.Correction>
   9.000000E+99

> <Gold.Chemscore.Hbonds>
donor molecule, donor type, donor heavy atom, donor atom, acceptor molecule, acceptor atom, score
      L1  H    11    36       P1  8028  0.82

> <Gold.Chemscore.Hbond.Weighted>
-3.0265

> <Gold.Chemscore.Metal.Weighted>
-0.0000

> <Gold.Chemscore.Lipo.Weighted>
-15.4704

> <Gold.Chemscore.Internal_Hbond.Weighted>
0.0000

> <Gold.Chemscore.DEClash.Weighted>
1.0906

> <Gold.Chemscore.DEInternal.Weighted>
1.4786

> <Gold.Chemscore.Rot.Weighted>
7.5097

> <Gold.Chemscore.Internal.Correction.Weighted>
   9.000000E+99

> <Gold.Protein.RotatedTorsions>
[ 6907 6896 6895 6894 ] final  133.33 input  -60.11 | X-H torsion
[ 7974 7965 7964 7962 ] final  -45.94 input  175.53 | X-H torsion
[ 8008 7997 7996 7995 ] final  118.50 input   59.86 | X-H torsion
[ 10167 10162 10161 10158 ] final  -67.91 input  -65.29 | X-H torsion
[ 10718 10713 10712 10709 ] final -153.63 input   66.30 | X-H torsion
[ 10763 10752 10751 10750 ] final -150.99 input  -60.55 | X-H torsion
[ 11005 11000 10999 10996 ] final  -97.87 input  -57.11 | X-H torsion

> <Gold.Protein.ActiveResidues>
 VAL166  LYS551  ARG553  GLY616  TRP617  ASP618  TYR619  PRO620  LYS621  CYS622 
 ASP623  PHE694  ASN695  SER759  ASP760  ASP761  ALA762  ILE779  LEU786  VAL792 
 PHE793  MET794  SER795  GLU796  ALA797  LYS798  CYS799  TRP800  GLU811  SER814 

> <Gold.Protein.RotatedAtoms>
  152.3231  133.5875  159.5757 H   0  0  0  0  0  0  0  0  0  0  0  0  # atno 6907 bound_to 6896
  150.7382  133.9981  159.3638 H   0  0  0  0  0  0  0  0  0  0  0  0  # atno 6908 bound_to 6896
  151.7863  135.0748  160.0432 H   0  0  0  0  0  0  0  0  0  0  0  0  # atno 6909 bound_to 6896
  145.9769  140.7324  142.9382 H   0  0  0  0  0  0  0  0  0  0  0  0  # atno 7974 bound_to 7965
  156.2549  140.2873  156.0845 H   0  0  0  0  0  0  0  0  0  0  0  0  # atno 8008 bound_to 7997
  155.1530  140.0398  157.2843 H   0  0  0  0  0  0  0  0  0  0  0  0  # atno 8009 bound_to 7997
  154.6447  140.2530  155.7288 H   0  0  0  0  0  0  0  0  0  0  0  0  # atno 8010 bound_to 7997
  140.5547  143.2312  151.6843 H   0  0  0  0  0  0  0  0  0  0  0  0  # atno 10167 bound_to 10162
  156.4884  130.8336  151.2560 H   0  0  0  0  0  0  0  0  0  0  0  0  # atno 10718 bound_to 10713
  154.8085  135.3271  154.7367 H   0  0  0  0  0  0  0  0  0  0  0  0  # atno 10763 bound_to 10752
  153.8021  135.6902  153.4858 H   0  0  0  0  0  0  0  0  0  0  0  0  # atno 10764 bound_to 10752
  153.1847  135.4573  155.0019 H   0  0  0  0  0  0  0  0  0  0  0  0  # atno 10765 bound_to 10752
  141.1364  133.8203  157.0764 H   0  0  0  0  0  0  0  0  0  0  0  0  # atno 11005 bound_to 11000
  144.6851  140.2843  143.7287 LP  0  0  0  0  0  0  0  0  0  0  0  0  # atno 17320 bound_to 7965
  145.7825  139.1896  143.2149 LP  0  0  0  0  0  0  0  0  0  0  0  0  # atno 17321 bound_to 7965
  139.5043  144.3760  152.0423 LP  0  0  0  0  0  0  0  0  0  0  0  0  # atno 17342 bound_to 10162
  140.2881  144.3785  150.6097 LP  0  0  0  0  0  0  0  0  0  0  0  0  # atno 17343 bound_to 10162
  157.7476  131.0021  150.2990 LP  0  0  0  0  0  0  0  0  0  0  0  0  # atno 17370 bound_to 10713
  156.3451  130.3821  149.7376 LP  0  0  0  0  0  0  0  0  0  0  0  0  # atno 17371 bound_to 10713
  140.0479  134.9821  157.1082 LP  0  0  0  0  0  0  0  0  0  0  0  0  # atno 17394 bound_to 11000
  140.4035  134.2057  155.7163 LP  0  0  0  0  0  0  0  0  0  0  0  0  # atno 17395 bound_to 11000

$$$$
