AV-unprocessed.smi:1390|AV-procd|sdf|5656|dock9
  -GOLD-   22720 5283D 1   1.00000     0.00000
 Structure written by MMmdl.
 44 45  0  0  0  0  0  0  0  0  1 V2000
  151.9098  145.5202  159.4643 C   0  0  0  0  0  0  0  0  0  0  0  0
  152.4800  144.1015  159.3677 C   0  0  2  0  0  0  0  0  0  0  0  0
  151.7683  143.2628  158.2885 C   0  0  0  0  0  0  0  0  0  0  0  0
  152.2842  141.9002  158.2951 N   0  0  0  0  0  0  0  0  0  0  0  0
  151.7721  141.1032  157.2627 C   0  0  0  0  0  0  0  0  0  0  0  0
  150.5707  141.4359  156.5951 C   0  0  0  0  0  0  0  0  0  0  0  0
  150.1083  140.5860  155.5724 C   0  0  0  0  0  0  0  0  0  0  0  0
  150.8527  139.4330  155.2511 C   0  0  0  0  0  0  0  0  0  0  0  0
  150.3778  138.5023  154.1458 C   0  0  0  0  0  0  0  0  0  0  0  0
  149.9078  137.2130  154.6375 N   0  0  0  0  0  0  0  0  0  0  0  0
  150.6609  136.3150  155.2898 C   0  0  0  0  0  0  0  0  0  0  0  0
  151.8606  136.4719  155.5148 O   0  0  0  0  0  0  0  0  0  0  0  0
  149.9591  135.0361  155.7457 C   0  0  0  0  0  0  0  0  0  0  0  0
  149.4487  134.3528  154.6108 O   0  0  0  0  0  0  0  0  0  0  0  0
  149.2108  132.9763  154.8578 C   0  0  0  0  0  0  0  0  0  0  0  0
  148.3008  132.4110  153.7604 C   0  0  0  0  0  0  0  0  0  0  0  0
  148.5902  133.0024  152.6020 F   0  0  0  0  0  0  0  0  0  0  0  0
  148.4936  131.0988  153.6311 F   0  0  0  0  0  0  0  0  0  0  0  0
  147.0228  132.6493  154.0549 F   0  0  0  0  0  0  0  0  0  0  0  0
  152.0460  139.1963  155.9706 C   0  0  0  0  0  0  0  0  0  0  0  0
  152.4955  140.0055  156.9529 N   0  0  0  0  0  0  0  0  0  0  0  0
  152.1991  141.2735  159.6076 C   0  0  0  0  0  0  0  0  0  0  0  0
  152.8900  142.1588  160.6584 C   0  0  0  0  0  0  0  0  0  0  0  0
  152.3179  143.4638  160.6330 O   0  0  0  0  0  0  0  0  0  0  0  0
  152.0286  146.0553  158.5217 H   0  0  0  0  0  0  0  0  0  0  0  0
  152.4212  146.0933  160.2380 H   0  0  0  0  0  0  0  0  0  0  0  0
  150.8474  145.5031  159.7087 H   0  0  0  0  0  0  0  0  0  0  0  0
  153.5446  144.1700  159.1368 H   0  0  0  0  0  0  0  0  0  0  0  0
  150.6934  143.2518  158.4748 H   0  0  0  0  0  0  0  0  0  0  0  0
  151.9213  143.7079  157.3043 H   0  0  0  0  0  0  0  0  0  0  0  0
  150.0113  142.3216  156.8589 H   0  0  0  0  0  0  0  0  0  0  0  0
  149.1937  140.8172  155.0463 H   0  0  0  0  0  0  0  0  0  0  0  0
  149.5688  138.9787  153.5904 H   0  0  0  0  0  0  0  0  0  0  0  0
  151.2049  138.3601  153.4482 H   0  0  0  0  0  0  0  0  0  0  0  0
  148.9325  136.9945  154.4917 H   0  0  0  0  0  0  0  0  0  0  0  0
  150.6745  134.4099  156.2804 H   0  0  0  0  0  0  0  0  0  0  0  0
  149.1499  135.2856  156.4341 H   0  0  0  0  0  0  0  0  0  0  0  0
  150.1558  132.4308  154.8732 H   0  0  0  0  0  0  0  0  0  0  0  0
  148.7421  132.8475  155.8349 H   0  0  0  0  0  0  0  0  0  0  0  0
  152.6645  138.3370  155.7570 H   0  0  0  0  0  0  0  0  0  0  0  0
  151.1539  141.1249  159.8811 H   0  0  0  0  0  0  0  0  0  0  0  0
  152.6693  140.2897  159.5779 H   0  0  0  0  0  0  0  0  0  0  0  0
  152.7600  141.7324  161.6531 H   0  0  0  0  0  0  0  0  0  0  0  0
  153.9638  142.2173  160.4741 H   0  0  0  0  0  0  0  0  0  0  0  0
  1  2  1  0  0  0  0
  1 25  1  0  0  0  0
  1 26  1  0  0  0  0
  1 27  1  0  0  0  0
  2 24  1  0  0  0  0
  2  3  1  0  0  0  0
  2 28  1  0  0  0  0
  3  4  1  0  0  0  0
  3 29  1  0  0  0  0
  3 30  1  0  0  0  0
  4  5  1  0  0  0  0
  4 22  1  0  0  0  0
  5 21  1  0  0  0  0
  5  6  2  0  0  0  0
  6  7  1  0  0  0  0
  6 31  1  0  0  0  0
  7  8  2  0  0  0  0
  7 32  1  0  0  0  0
  8  9  1  0  0  0  0
  8 20  1  0  0  0  0
  9 10  1  0  0  0  0
  9 33  1  0  0  0  0
  9 34  1  0  0  0  0
 10 11  1  0  0  0  0
 10 35  1  0  0  0  0
 11 12  2  0  0  0  0
 11 13  1  0  0  0  0
 13 14  1  0  0  0  0
 13 36  1  0  0  0  0
 13 37  1  0  0  0  0
 14 15  1  0  0  0  0
 15 16  1  0  0  0  0
 15 38  1  0  0  0  0
 15 39  1  0  0  0  0
 16 17  1  0  0  0  0
 16 18  1  0  0  0  0
 16 19  1  0  0  0  0
 20 21  2  0  0  0  0
 20 40  1  0  0  0  0
 22 23  1  0  0  0  0
 22 41  1  0  0  0  0
 22 42  1  0  0  0  0
 23 24  1  0  0  0  0
 23 43  1  0  0  0  0
 23 44  1  0  0  0  0
M  END
> <s_m_source_file>
AV-unprocessed.smi

> <i_m_source_file_index>
1390

> <i_lp_mmshare_version>
43012

> <i_f3d_flags>
0

> <s_epik_input>
W0NIM11bQ0BASF0xW0NIMl1OKFtDSDJdW0NIMl1PMSljMltjSF1bY0hdYyhbY0hdbjIpW0NIMl1bTkhdQyg9TylbQ0gyXU9bQ0gyXUMoRikoRilG

> <s_epik_cmdline>
J2VwaWtfcHl0aG9uJywgJy1waCcsICc3LjAnLCAnLXRuJywgJzgnLCAnLW1hJywgJzIwMCcsICctbWV0YWxfYmluZGluZycsICctaW1hZScsICc8aW5maWxlLm1hZT4nLCAnLW9tYWUnLCAnPG91dGZpbGUubWFlPic=

> <r_lp_tautomer_probability>
1

> <r_epik_Ionization_Penalty>
0.00481831

> <r_epik_Ionization_Penalty_Charging>
0

> <r_epik_Ionization_Penalty_Neutral>
0.00481831

> <r_epik_State_Penalty>
0.00349373

> <r_epik_Charging_Adjusted_Penalty>
0.00349373

> <i_epik_Tot_Q>
0

> <i_epik_Tot_abs_Q>
0

> <r_epik_Metal_State_Penalty>
-0

> <b_epik_Metal_Only>
0

> <s_lp_Force_Field>
OPLS_2005

> <r_lp_Energy>
18.3567

> <b_lp_Chiralities_Consistent>
1

> <s_lp_Variant>
AV-unprocessed.smi:1390-1

> <Gold.Version>
5.8.1

> <Gold.Id.Protein>
6NUR|6NUR_protein|mol2

> <Gold.PLP.Fitness>
52.9967

> <Gold.PLP.PLP>
-48.8769

> <Gold.PLP.part.hbond>
-2.8877

> <Gold.PLP.part.metal>
0.0000

> <Gold.PLP.part.buried>
-5.3275

> <Gold.PLP.part.nonpolar>
-41.2953

> <Gold.PLP.part.repulsive>
0.3020

> <Gold.PLP.ligand.clash>
0.0000

> <Gold.PLP.ligand.torsion>
1.0523

> <Gold.PLP.Chemscore.Hbond>
2.0000

> <Gold.PLP.Chemscore.CHOScore>
0.0000

> <Gold.PLP.Chemscore.Metal>
0.0000

> <Gold.Chemscore.Hbonds>
donor molecule, donor type, donor heavy atom, donor atom, acceptor molecule, acceptor atom, score
      P1  H  7997  8008       L1    21  1.00
      P1  H 10752 10765       L1    12  1.00

> <Gold.PLP.Chemscore.Internal.Correction>
0.2244

> <Gold.Rescore>
     Score         DG    S(hbond)    S(metal)    S(lipo)     H(rot)  DE(clash)    DE(int)     intcor
     14.54     -17.53       1.90        0.00     104.83       2.57       0.37       2.63       ----

> <Gold.Chemscore.Fitness>
14.5361

> <Gold.Chemscore.DG>
-17.5338

> <Gold.Chemscore.ZeroCoef>
-5.4800

> <Gold.Chemscore.Hbond>
1.9033

> <Gold.Chemscore.Metal>
0.0000

> <Gold.Chemscore.Lipo>
104.8299

> <Gold.Chemscore.Internal_Hbond>
0.0000

> <Gold.Chemscore.DEClash>
0.3690

> <Gold.Chemscore.DEInternal>
2.6287

> <Gold.Chemscore.Rot>
2.5657

> <Gold.Chemscore.Internal.Correction>
   9.000000E+99

> <Gold.Chemscore.Hbonds>
donor molecule, donor type, donor heavy atom, donor atom, acceptor molecule, acceptor atom, score
      P1  H  7997  8008       L1    21  0.34
      P1  H 10752 10765       L1    12  0.94

> <Gold.Chemscore.Hbond.Weighted>
-6.3569

> <Gold.Chemscore.Metal.Weighted>
-0.0000

> <Gold.Chemscore.Lipo.Weighted>
-12.2651

> <Gold.Chemscore.Internal_Hbond.Weighted>
0.0000

> <Gold.Chemscore.DEClash.Weighted>
0.3690

> <Gold.Chemscore.DEInternal.Weighted>
2.6287

> <Gold.Chemscore.Rot.Weighted>
6.5682

> <Gold.Chemscore.Internal.Correction.Weighted>
   9.000000E+99

> <Gold.Protein.RotatedTorsions>
[ 6907 6896 6895 6894 ] final -174.77 input  -60.11 | X-H torsion
[ 7974 7965 7964 7962 ] final  -37.88 input  175.53 | X-H torsion
[ 8008 7997 7996 7995 ] final  -55.24 input   59.86 | X-H torsion
[ 10167 10162 10161 10158 ] final  162.02 input  -65.29 | X-H torsion
[ 10718 10713 10712 10709 ] final -137.58 input   66.30 | X-H torsion
[ 10763 10752 10751 10750 ] final  178.52 input  -60.55 | X-H torsion
[ 11005 11000 10999 10996 ] final -119.20 input  -57.11 | X-H torsion

> <Gold.Protein.ActiveResidues>
 VAL166  LYS551  ARG553  GLY616  TRP617  ASP618  TYR619  PRO620  LYS621  CYS622 
 ASP623  PHE694  ASN695  SER759  ASP760  ASP761  ALA762  ILE779  LEU786  VAL792 
 PHE793  MET794  SER795  GLU796  ALA797  LYS798  CYS799  TRP800  GLU811  SER814 

> <Gold.Protein.RotatedAtoms>
  151.5777  133.3381  159.3001 H   0  0  0  0  0  0  0  0  0  0  0  0  # atno 6907 bound_to 6896
  150.8331  134.7596  159.6882 H   0  0  0  0  0  0  0  0  0  0  0  0  # atno 6908 bound_to 6896
  152.4412  134.5594  159.9941 H   0  0  0  0  0  0  0  0  0  0  0  0  # atno 6909 bound_to 6896
  146.0536  140.6447  142.9030 H   0  0  0  0  0  0  0  0  0  0  0  0  # atno 7974 bound_to 7965
  154.4188  140.1157  156.5445 H   0  0  0  0  0  0  0  0  0  0  0  0  # atno 8008 bound_to 7997
  155.6473  140.3496  155.4717 H   0  0  0  0  0  0  0  0  0  0  0  0  # atno 8009 bound_to 7997
  155.9821  140.1162  157.0706 H   0  0  0  0  0  0  0  0  0  0  0  0  # atno 8010 bound_to 7997
  139.4856  144.4479  151.8868 H   0  0  0  0  0  0  0  0  0  0  0  0  # atno 10167 bound_to 10162
  156.2897  130.7368  151.1390 H   0  0  0  0  0  0  0  0  0  0  0  0  # atno 10718 bound_to 10713
  154.5088  135.2787  155.1360 H   0  0  0  0  0  0  0  0  0  0  0  0  # atno 10763 bound_to 10752
  154.2964  135.6257  153.5410 H   0  0  0  0  0  0  0  0  0  0  0  0  # atno 10764 bound_to 10752
  152.9915  135.5686  154.5548 H   0  0  0  0  0  0  0  0  0  0  0  0  # atno 10765 bound_to 10752
  141.0232  134.0092  157.3252 H   0  0  0  0  0  0  0  0  0  0  0  0  # atno 11005 bound_to 11000
  144.7136  140.4128  143.7062 LP  0  0  0  0  0  0  0  0  0  0  0  0  # atno 17320 bound_to 7965
  145.6682  139.1594  143.2770 LP  0  0  0  0  0  0  0  0  0  0  0  0  # atno 17321 bound_to 7965
  140.3934  144.2587  150.5898 LP  0  0  0  0  0  0  0  0  0  0  0  0  # atno 17342 bound_to 10162
  140.5125  143.2287  151.8513 LP  0  0  0  0  0  0  0  0  0  0  0  0  # atno 17343 bound_to 10162
  157.7339  131.0587  150.5554 LP  0  0  0  0  0  0  0  0  0  0  0  0  # atno 17370 bound_to 10713
  156.5668  130.4269  149.6037 LP  0  0  0  0  0  0  0  0  0  0  0  0  # atno 17371 bound_to 10713
  139.9159  135.0196  156.7880 LP  0  0  0  0  0  0  0  0  0  0  0  0  # atno 17394 bound_to 11000
  140.6536  133.9709  155.7768 LP  0  0  0  0  0  0  0  0  0  0  0  0  # atno 17395 bound_to 11000

$$$$
