AV-unprocessed.smi:35|AV-procd|sdf|250|dock9
  -GOLD-   2262016 13D 1   1.00000     0.00000
 Structure written by MMmdl.
 29 30  0  0  0  0  0  0  0  0  1 V2000
  151.4929  136.9721  159.5130 O   0  0  0  0  0  0  0  0  0  0  0  0
  151.1485  137.6089  158.5199 C   0  0  0  0  0  0  0  0  0  0  0  0
  152.1080  138.2019  157.6939 N   0  0  0  0  0  0  0  0  0  0  0  0
  151.8387  138.9436  156.5420 C   0  0  0  0  0  0  0  0  0  0  0  0
  152.7625  139.4360  155.8955 O   0  0  0  0  0  0  0  0  0  0  0  0
  150.4836  139.1010  156.1759 N   0  0  0  0  0  0  0  0  0  0  0  0
  150.1589  139.9030  154.9304 C   0  0  1  0  0  0  0  0  0  0  0  0
  149.1547  139.2496  154.2058 O   0  0  0  0  0  0  0  0  0  0  0  0
  147.9740  140.0437  154.1978 C   0  0  2  0  0  0  0  0  0  0  0  0
  147.0782  139.6779  153.0009 C   0  0  0  0  0  0  0  0  0  0  0  0
  147.6450  138.6574  152.2053 O   0  0  0  0  0  0  0  0  0  0  0  0
  148.4961  141.4792  154.2692 C   0  0  1  0  0  0  0  0  0  0  0  0
  147.5159  142.4128  154.6835 O   0  0  0  0  0  0  0  0  0  0  0  0
  149.6598  141.3363  155.2452 C   0  0  1  0  0  0  0  0  0  0  0  0
  149.2521  141.5069  156.5953 O   0  0  0  0  0  0  0  0  0  0  0  0
  149.4938  138.5396  156.9736 C   0  0  0  0  0  0  0  0  0  0  0  0
  149.7716  137.8261  158.0900 C   0  0  0  0  0  0  0  0  0  0  0  0
  148.2195  137.1118  159.0925 Br  0  0  0  0  0  0  0  0  0  0  0  0
  153.0766  138.0866  157.9543 H   0  0  0  0  0  0  0  0  0  0  0  0
  151.0588  139.8858  154.3126 H   0  0  0  0  0  0  0  0  0  0  0  0
  147.4309  139.8161  155.1167 H   0  0  0  0  0  0  0  0  0  0  0  0
  146.0897  139.3704  153.3427 H   0  0  0  0  0  0  0  0  0  0  0  0
  146.9382  140.5536  152.3671 H   0  0  0  0  0  0  0  0  0  0  0  0
  148.5311  138.9034  151.9868 H   0  0  0  0  0  0  0  0  0  0  0  0
  148.8918  141.7899  153.3019 H   0  0  0  0  0  0  0  0  0  0  0  0
  147.9508  143.2138  154.9326 H   0  0  0  0  0  0  0  0  0  0  0  0
  150.4524  142.0547  155.0337 H   0  0  0  0  0  0  0  0  0  0  0  0
  148.6654  140.8012  156.8201 H   0  0  0  0  0  0  0  0  0  0  0  0
  148.4549  138.6703  156.7129 H   0  0  0  0  0  0  0  0  0  0  0  0
  1  2  2  0  0  0  0
  2 17  1  0  0  0  0
  2  3  1  0  0  0  0
  3 19  1  0  0  0  0
  3  4  1  0  0  0  0
  4  5  2  0  0  0  0
  4  6  1  0  0  0  0
  6  7  1  0  0  0  0
  6 16  1  0  0  0  0
  7 14  1  0  0  0  0
  7  8  1  0  0  0  0
  7 20  1  0  0  0  0
  8  9  1  0  0  0  0
  9 10  1  0  0  0  0
  9 12  1  0  0  0  0
  9 21  1  0  0  0  0
 10 11  1  0  0  0  0
 10 22  1  0  0  0  0
 10 23  1  0  0  0  0
 11 24  1  0  0  0  0
 12 13  1  0  0  0  0
 12 14  1  0  0  0  0
 12 25  1  0  0  0  0
 13 26  1  0  0  0  0
 14 15  1  0  0  0  0
 14 27  1  0  0  0  0
 15 28  1  0  0  0  0
 16 17  2  0  0  0  0
 16 29  1  0  0  0  0
 17 18  1  0  0  0  0
M  END
> <s_m_source_file>
AV-unprocessed.smi

> <i_m_source_file_index>
35

> <i_lp_mmshare_version>
43012

> <i_f3d_flags>
0

> <s_epik_input>
Tz1jMVtuSF1jKD1PKW4oW2NIXWMxQnIpW0NAQEhdMk9bQ0BASF0oW0NIMl1bT0hdKVtDQEBIXShbT0hdKVtDQEhdMltPSF0=

> <s_epik_cmdline>
J2VwaWtfcHl0aG9uJywgJy1waCcsICc3LjAnLCAnLXRuJywgJzgnLCAnLW1hJywgJzIwMCcsICctbWV0YWxfYmluZGluZycsICctaW1hZScsICc8aW5maWxlLm1hZT4nLCAnLW9tYWUnLCAnPG91dGZpbGUubWFlPic=

> <r_lp_tautomer_probability>
0.999537

> <r_epik_Ionization_Penalty>
0.10812

> <r_epik_Ionization_Penalty_Charging>
0.108119

> <r_epik_Ionization_Penalty_Neutral>
4.93006e-07

> <r_epik_State_Penalty>
0.0979238

> <r_epik_Charging_Adjusted_Penalty>
0.206043

> <i_epik_Tot_Q>
0

> <i_epik_Tot_abs_Q>
0

> <r_epik_Metal_State_Penalty>
3.07911

> <b_epik_Metal_Only>
0

> <s_epik_Chemistry_Notes>
This compound contains an acetal/aminal-like group ( X-CH(R)-Y where X, Y are N, S, or O) that may be acid/base labile, releasing an aldehyde.

> <s_lp_Force_Field>
OPLS_2005

> <r_lp_Energy>
39.8494

> <b_lp_Chiralities_Consistent>
1

> <s_lp_Variant>
AV-unprocessed.smi:35-4

> <Gold.Version>
5.8.1

> <Gold.Id.Protein>
6NUR|6NUR_protein|mol2

> <Gold.PLP.Fitness>
36.3683

> <Gold.PLP.PLP>
-26.7727

> <Gold.PLP.part.hbond>
-5.1098

> <Gold.PLP.part.metal>
0.0000

> <Gold.PLP.part.buried>
-3.4658

> <Gold.PLP.part.nonpolar>
-17.9784

> <Gold.PLP.part.repulsive>
0.4492

> <Gold.PLP.ligand.clash>
0.0000

> <Gold.PLP.ligand.torsion>
1.2067

> <Gold.PLP.Chemscore.Hbond>
3.9920

> <Gold.PLP.Chemscore.CHOScore>
0.0000

> <Gold.PLP.Chemscore.Metal>
0.0000

> <Gold.Chemscore.Hbonds>
donor molecule, donor type, donor heavy atom, donor atom, acceptor molecule, acceptor atom, score
      L1  H    11    24       P1  7957  0.94
      L1  H    13    26       P1  8028  1.00
      P1  H  6896  6909       L1     1  1.00
      P1  H  7997  8009       L1     5  1.00

> <Gold.PLP.Chemscore.Internal.Correction>
0.0331

> <Gold.Rescore>
     Score         DG    S(hbond)    S(metal)    S(lipo)     H(rot)  DE(clash)    DE(int)     intcor
     12.21     -13.51       3.98        0.00      35.46       3.67       0.00       1.30       ----

> <Gold.Chemscore.Fitness>
12.2074

> <Gold.Chemscore.DG>
-13.5107

> <Gold.Chemscore.ZeroCoef>
-5.4800

> <Gold.Chemscore.Hbond>
3.9754

> <Gold.Chemscore.Metal>
0.0000

> <Gold.Chemscore.Lipo>
35.4559

> <Gold.Chemscore.Internal_Hbond>
0.0000

> <Gold.Chemscore.DEClash>
0.0000

> <Gold.Chemscore.DEInternal>
1.3033

> <Gold.Chemscore.Rot>
3.6701

> <Gold.Chemscore.Internal.Correction>
   9.000000E+99

> <Gold.Chemscore.Hbonds>
donor molecule, donor type, donor heavy atom, donor atom, acceptor molecule, acceptor atom, score
      L1  H    11    24       P1  7957  0.84
      L1  H    13    26       P1  8028  0.82
      P1  H  6896  6909       L1     1  1.00
      P1  H  7997  8009       L1     5  1.00

> <Gold.Chemscore.Hbond.Weighted>
-13.2778

> <Gold.Chemscore.Metal.Weighted>
-0.0000

> <Gold.Chemscore.Lipo.Weighted>
-4.1483

> <Gold.Chemscore.Internal_Hbond.Weighted>
0.0000

> <Gold.Chemscore.DEClash.Weighted>
0.0000

> <Gold.Chemscore.DEInternal.Weighted>
1.3033

> <Gold.Chemscore.Rot.Weighted>
9.3955

> <Gold.Chemscore.Internal.Correction.Weighted>
   9.000000E+99

> <Gold.Protein.RotatedTorsions>
[ 6907 6896 6895 6894 ] final  120.19 input  -60.11 | X-H torsion
[ 7974 7965 7964 7962 ] final -113.24 input  175.53 | X-H torsion
[ 8008 7997 7996 7995 ] final -165.61 input   59.86 | X-H torsion
[ 10167 10162 10161 10158 ] final -102.72 input  -65.29 | X-H torsion
[ 10718 10713 10712 10709 ] final -113.14 input   66.30 | X-H torsion
[ 10763 10752 10751 10750 ] final   64.69 input  -60.55 | X-H torsion
[ 11005 11000 10999 10996 ] final   29.47 input  -57.11 | X-H torsion

> <Gold.Protein.ActiveResidues>
 VAL166  LYS551  ARG553  GLY616  TRP617  ASP618  TYR619  PRO620  LYS621  CYS622 
 ASP623  PHE694  ASN695  SER759  ASP760  ASP761  ALA762  ILE779  LEU786  VAL792 
 PHE793  MET794  SER795  GLU796  ALA797  LYS798  CYS799  TRP800  GLU811  SER814 

> <Gold.Protein.RotatedAtoms>
  152.4416  133.7459  159.6666 H   0  0  0  0  0  0  0  0  0  0  0  0  # atno 6907 bound_to 6896
  150.8308  133.8083  159.3105 H   0  0  0  0  0  0  0  0  0  0  0  0  # atno 6908 bound_to 6896
  151.5738  135.1064  160.0053 H   0  0  0  0  0  0  0  0  0  0  0  0  # atno 6909 bound_to 6896
  145.1344  140.8743  143.3739 H   0  0  0  0  0  0  0  0  0  0  0  0  # atno 7974 bound_to 7965
  155.8522  140.0965  157.1667 H   0  0  0  0  0  0  0  0  0  0  0  0  # atno 8008 bound_to 7997
  154.3986  140.1381  156.3920 H   0  0  0  0  0  0  0  0  0  0  0  0  # atno 8009 bound_to 7997
  155.7948  140.3454  155.5372 H   0  0  0  0  0  0  0  0  0  0  0  0  # atno 8010 bound_to 7997
  140.2276  143.3630  152.0915 H   0  0  0  0  0  0  0  0  0  0  0  0  # atno 10167 bound_to 10162
  156.0748  130.5957  150.8603 H   0  0  0  0  0  0  0  0  0  0  0  0  # atno 10718 bound_to 10713
  153.0066  135.5384  154.6550 H   0  0  0  0  0  0  0  0  0  0  0  0  # atno 10763 bound_to 10752
  154.5773  135.2847  155.0770 H   0  0  0  0  0  0  0  0  0  0  0  0  # atno 10764 bound_to 10752
  154.1913  135.6499  153.5113 H   0  0  0  0  0  0  0  0  0  0  0  0  # atno 10765 bound_to 10752
  140.3046  134.2717  155.7746 H   0  0  0  0  0  0  0  0  0  0  0  0  # atno 11005 bound_to 11000
  145.0600  139.3113  143.5885 LP  0  0  0  0  0  0  0  0  0  0  0  0  # atno 17320 bound_to 7965
  146.3511  140.0038  142.8673 LP  0  0  0  0  0  0  0  0  0  0  0  0  # atno 17321 bound_to 7965
  139.5121  144.6912  151.5755 LP  0  0  0  0  0  0  0  0  0  0  0  0  # atno 17342 bound_to 10162
  140.6209  143.9260  150.6525 LP  0  0  0  0  0  0  0  0  0  0  0  0  # atno 17343 bound_to 10162
  157.5838  131.0946  150.9228 LP  0  0  0  0  0  0  0  0  0  0  0  0  # atno 17370 bound_to 10713
  156.9418  130.5387  149.5280 LP  0  0  0  0  0  0  0  0  0  0  0  0  # atno 17371 bound_to 10713
  141.2121  133.7669  156.9818 LP  0  0  0  0  0  0  0  0  0  0  0  0  # atno 17394 bound_to 11000
  140.1078  134.9495  157.2020 LP  0  0  0  0  0  0  0  0  0  0  0  0  # atno 17395 bound_to 11000

$$$$
