AV-unprocessed.smi:1379|AV-procd|sdf|5599|dock10
  -GOLD-   22720 5203D 1   1.00000     0.00000
 Structure written by MMmdl.
 35 36  0  0  0  0  0  0  0  0  2 V2000
  146.7992  142.2676  154.0838 C   0  0  0  0  0  0  0  0  0  0  0  0
  147.7669  141.6692  154.9279 O   0  0  0  0  0  0  0  0  0  0  0  0
  149.0654  141.6777  154.3531 C   0  0  0  0  0  0  0  0  0  0  0  0
  150.1144  141.4749  155.4480 C   0  0  0  0  0  0  0  0  0  0  0  0
  150.8813  140.5165  155.3708 O   0  0  0  0  0  0  0  0  0  0  0  0
  150.0969  142.3636  156.4597 N   0  0  0  0  0  0  0  0  0  0  0  0
  150.9389  142.4380  157.6029 C   0  0  0  0  0  0  0  0  0  0  0  0
  151.6011  141.2577  158.0044 C   0  0  0  0  0  0  0  0  0  0  0  0
  152.4391  141.2741  159.1380 C   0  0  0  0  0  0  0  0  0  0  0  0
  152.5973  142.4764  159.8654 C   0  0  0  0  0  0  0  0  0  0  0  0
  153.4070  142.6017  161.0030 N   0  0  0  0  0  0  0  0  0  0  0  0
  152.7667  143.2151  162.1546 C   0  0  0  0  0  0  0  0  0  0  0  0
  153.6561  142.8679  163.3513 C   0  0  0  0  0  0  0  0  0  0  0  0
  154.4534  141.6360  162.9062 C   0  0  0  0  0  0  0  0  0  0  0  0
  153.9768  141.3526  161.4792 C   0  0  0  0  0  0  0  0  0  0  0  0
  151.9396  143.5825  159.4561 N   0  3  0  0  0  0  0  0  0  0  0  0
  151.1289  143.6100  158.3759 C   0  0  0  0  0  0  0  0  0  0  0  0
  145.8202  142.2258  154.5607 H   0  0  0  0  0  0  0  0  0  0  0  0
  146.7314  141.7450  153.1287 H   0  0  0  0  0  0  0  0  0  0  0  0
  147.0368  143.3151  153.8938 H   0  0  0  0  0  0  0  0  0  0  0  0
  149.1620  140.8784  153.6167 H   0  0  0  0  0  0  0  0  0  0  0  0
  149.2472  142.6261  153.8447 H   0  0  0  0  0  0  0  0  0  0  0  0
  149.3653  143.0584  156.4136 H   0  0  0  0  0  0  0  0  0  0  0  0
  151.4735  140.3422  157.4451 H   0  0  0  0  0  0  0  0  0  0  0  0
  152.9518  140.3720  159.4388 H   0  0  0  0  0  0  0  0  0  0  0  0
  152.6761  144.2938  162.0236 H   0  0  0  0  0  0  0  0  0  0  0  0
  151.7652  142.8094  162.3028 H   0  0  0  0  0  0  0  0  0  0  0  0
  154.3373  143.6913  163.5698 H   0  0  0  0  0  0  0  0  0  0  0  0
  153.0658  142.6786  164.2484 H   0  0  0  0  0  0  0  0  0  0  0  0
  155.5203  141.8624  162.9125 H   0  0  0  0  0  0  0  0  0  0  0  0
  154.2924  140.7785  163.5603 H   0  0  0  0  0  0  0  0  0  0  0  0
  153.2224  140.5647  161.4844 H   0  0  0  0  0  0  0  0  0  0  0  0
  154.7984  141.0276  160.8402 H   0  0  0  0  0  0  0  0  0  0  0  0
  150.6631  144.5652  158.1882 H   0  0  0  0  0  0  0  0  0  0  0  0
  152.0584  144.4422  159.9927 H   0  0  0  0  0  0  0  0  0  0  0  0
  1  2  1  0  0  0  0
  1 18  1  0  0  0  0
  1 19  1  0  0  0  0
  1 20  1  0  0  0  0
  2  3  1  0  0  0  0
  3  4  1  0  0  0  0
  3 21  1  0  0  0  0
  3 22  1  0  0  0  0
  4  5  2  0  0  0  0
  4  6  1  0  0  0  0
  6  7  1  0  0  0  0
  6 23  1  0  0  0  0
  7 17  1  0  0  0  0
  7  8  2  0  0  0  0
  8  9  1  0  0  0  0
  8 24  1  0  0  0  0
  9 10  2  0  0  0  0
  9 25  1  0  0  0  0
 10 11  1  0  0  0  0
 10 16  1  0  0  0  0
 11 15  1  0  0  0  0
 11 12  1  0  0  0  0
 12 13  1  0  0  0  0
 12 26  1  0  0  0  0
 12 27  1  0  0  0  0
 13 14  1  0  0  0  0
 13 28  1  0  0  0  0
 13 29  1  0  0  0  0
 14 15  1  0  0  0  0
 14 30  1  0  0  0  0
 14 31  1  0  0  0  0
 15 32  1  0  0  0  0
 15 33  1  0  0  0  0
 16 17  2  0  0  0  0
 16 35  1  0  0  0  0
 17 34  1  0  0  0  0
M  CHG  1  16   1
M  END
> <s_m_source_file>
AV-unprocessed.smi

> <i_m_source_file_index>
1379

> <i_lp_mmshare_version>
43012

> <i_f3d_flags>
0

> <s_epik_input>
W0NIM11PW0NIMl1DKD1PKVtOSF1jMVtjSF1bY0hdYyhuW2NIXTEpTjJbQ0gyXVtDSDJdW0NIMl1bQ0gyXTI=

> <s_epik_cmdline>
J2VwaWtfcHl0aG9uJywgJy1waCcsICc3LjAnLCAnLXRuJywgJzgnLCAnLW1hJywgJzIwMCcsICctbWV0YWxfYmluZGluZycsICctaW1hZScsICc8aW5maWxlLm1hZT4nLCAnLW9tYWUnLCAnPG91dGZpbGUubWFlPic=

> <r_lp_tautomer_probability>
0.999994

> <r_epik_Ionization_Penalty>
1.86748

> <r_epik_Ionization_Penalty_Charging>
1.86748

> <r_epik_Ionization_Penalty_Neutral>
2.87909e-06

> <r_epik_State_Penalty>
1.98622

> <r_epik_Charging_Adjusted_Penalty>
3.8537

> <i_epik_Tot_Q>
1

> <i_epik_Tot_abs_Q>
1

> <r_epik_Metal_State_Penalty>
2.01386

> <b_epik_Metal_Only>
0

> <s_lp_Force_Field>
OPLS_2005

> <r_lp_Energy>
42.4744

> <b_lp_Chiralities_Consistent>
1

> <s_lp_Variant>
AV-unprocessed.smi:1379-2

> <Gold.Version>
5.8.1

> <Gold.Id.Protein>
6NUR|6NUR_protein|mol2

> <Gold.PLP.Fitness>
43.7707

> <Gold.PLP.PLP>
-39.0444

> <Gold.PLP.part.hbond>
-2.0000

> <Gold.PLP.part.metal>
0.0000

> <Gold.PLP.part.buried>
-1.1139

> <Gold.PLP.part.nonpolar>
-33.6387

> <Gold.PLP.part.repulsive>
0.2876

> <Gold.PLP.ligand.clash>
0.0000

> <Gold.PLP.ligand.torsion>
0.3218

> <Gold.PLP.Chemscore.Hbond>
1.7840

> <Gold.PLP.Chemscore.CHOScore>
0.0000

> <Gold.PLP.Chemscore.Metal>
0.0000

> <Gold.Chemscore.Hbonds>
donor molecule, donor type, donor heavy atom, donor atom, acceptor molecule, acceptor atom, score
      L1  H     6    23       P1  8028  0.88
      P1  H  7989  7998       L1     5  0.84

> <Gold.PLP.Chemscore.Internal.Correction>
0.0179

> <Gold.Rescore>
     Score         DG    S(hbond)    S(metal)    S(lipo)     H(rot)  DE(clash)    DE(int)     intcor
     14.61     -16.21       1.00        0.00      94.76       1.44       0.09       1.50       ----

> <Gold.Chemscore.Fitness>
14.6140

> <Gold.Chemscore.DG>
-16.2081

> <Gold.Chemscore.ZeroCoef>
-5.4800

> <Gold.Chemscore.Hbond>
0.9986

> <Gold.Chemscore.Metal>
0.0000

> <Gold.Chemscore.Lipo>
94.7569

> <Gold.Chemscore.Internal_Hbond>
0.0000

> <Gold.Chemscore.DEClash>
0.0896

> <Gold.Chemscore.DEInternal>
1.5044

> <Gold.Chemscore.Rot>
1.4428

> <Gold.Chemscore.Internal.Correction>
   9.000000E+99

> <Gold.Chemscore.Hbonds>
donor molecule, donor type, donor heavy atom, donor atom, acceptor molecule, acceptor atom, score
      L1  H     6    23       P1  8028  0.86
      P1  H  7989  7998       L1     5  0.15

> <Gold.Chemscore.Hbond.Weighted>
-3.3352

> <Gold.Chemscore.Metal.Weighted>
-0.0000

> <Gold.Chemscore.Lipo.Weighted>
-11.0866

> <Gold.Chemscore.Internal_Hbond.Weighted>
0.0000

> <Gold.Chemscore.DEClash.Weighted>
0.0896

> <Gold.Chemscore.DEInternal.Weighted>
1.5044

> <Gold.Chemscore.Rot.Weighted>
3.6937

> <Gold.Chemscore.Internal.Correction.Weighted>
   9.000000E+99

> <Gold.Protein.RotatedTorsions>
[ 6907 6896 6895 6894 ] final  -53.34 input  -60.11 | X-H torsion
[ 7974 7965 7964 7962 ] final  -76.90 input  175.53 | X-H torsion
[ 8008 7997 7996 7995 ] final  -32.04 input   59.86 | X-H torsion
[ 10167 10162 10161 10158 ] final   63.13 input  -65.29 | X-H torsion
[ 10718 10713 10712 10709 ] final  102.93 input   66.30 | X-H torsion
[ 10763 10752 10751 10750 ] final  124.76 input  -60.55 | X-H torsion
[ 11005 11000 10999 10996 ] final   73.28 input  -57.11 | X-H torsion

> <Gold.Protein.ActiveResidues>
 VAL166  LYS551  ARG553  GLY616  TRP617  ASP618  TYR619  PRO620  LYS621  CYS622 
 ASP623  PHE694  ASN695  SER759  ASP760  ASP761  ALA762  ILE779  LEU786  VAL792 
 PHE793  MET794  SER795  GLU796  ALA797  LYS798  CYS799  TRP800  GLU811  SER814 

> <Gold.Protein.RotatedAtoms>
  150.8435  134.7736  159.6951 H   0  0  0  0  0  0  0  0  0  0  0  0  # atno 6907 bound_to 6896
  152.4517  134.5375  159.9839 H   0  0  0  0  0  0  0  0  0  0  0  0  # atno 6908 bound_to 6896
  151.5510  133.3379  159.2989 H   0  0  0  0  0  0  0  0  0  0  0  0  # atno 6909 bound_to 6896
  145.6068  140.9396  143.1211 H   0  0  0  0  0  0  0  0  0  0  0  0  # atno 7974 bound_to 7965
  154.4193  140.1748  156.1663 H   0  0  0  0  0  0  0  0  0  0  0  0  # atno 8008 bound_to 7997
  155.9796  140.3378  155.6627 H   0  0  0  0  0  0  0  0  0  0  0  0  # atno 8009 bound_to 7997
  155.6517  140.0691  157.2575 H   0  0  0  0  0  0  0  0  0  0  0  0  # atno 8010 bound_to 7997
  140.1364  144.4595  150.6836 H   0  0  0  0  0  0  0  0  0  0  0  0  # atno 10167 bound_to 10162
  157.6788  131.0766  150.5478 H   0  0  0  0  0  0  0  0  0  0  0  0  # atno 10718 bound_to 10713
  153.6666  135.3337  155.3142 H   0  0  0  0  0  0  0  0  0  0  0  0  # atno 10763 bound_to 10752
  154.8501  135.4376  154.1749 H   0  0  0  0  0  0  0  0  0  0  0  0  # atno 10764 bound_to 10752
  153.2729  135.7002  153.7538 H   0  0  0  0  0  0  0  0  0  0  0  0  # atno 10765 bound_to 10752
  139.9448  134.7333  156.1007 H   0  0  0  0  0  0  0  0  0  0  0  0  # atno 11005 bound_to 11000
  144.7286  139.7795  143.7355 LP  0  0  0  0  0  0  0  0  0  0  0  0  # atno 17320 bound_to 7965
  146.1535  139.4625  143.0034 LP  0  0  0  0  0  0  0  0  0  0  0  0  # atno 17321 bound_to 7965
  140.6787  143.2316  151.5441 LP  0  0  0  0  0  0  0  0  0  0  0  0  # atno 17342 bound_to 10162
  139.5494  144.2436  152.1502 LP  0  0  0  0  0  0  0  0  0  0  0  0  # atno 17343 bound_to 10162
  156.5784  130.4298  149.5988 LP  0  0  0  0  0  0  0  0  0  0  0  0  # atno 17370 bound_to 10713
  156.2682  130.7002  151.1791 LP  0  0  0  0  0  0  0  0  0  0  0  0  # atno 17371 bound_to 10713
  141.1095  133.6648  156.2943 LP  0  0  0  0  0  0  0  0  0  0  0  0  # atno 17394 bound_to 11000
  140.5862  134.5696  157.5490 LP  0  0  0  0  0  0  0  0  0  0  0  0  # atno 17395 bound_to 11000

$$$$
