AV-unprocessed.smi:252|AV-procd|sdf|1938|dock8
  -GOLD-   2262021 63D 1   1.00000     0.00000
 Structure written by MMmdl.
 56 59  0  0  0  0  0  0  0  0  1 V2000
  147.8996  127.2167  151.6220 C   0  0  0  0  0  0  0  0  0  0  0  0
  147.8985  128.3461  152.6645 C   0  0  0  0  0  0  0  0  0  0  0  0
  146.6009  129.1606  152.6926 C   0  0  0  0  0  0  0  0  0  0  0  0
  145.5623  128.6858  153.1537 O   0  0  0  0  0  0  0  0  0  0  0  0
  146.6813  130.4012  152.1884 N   0  0  0  0  0  0  0  0  0  0  0  0
  145.5821  131.3587  152.1222 C   0  0  2  0  0  0  0  0  0  0  0  0
  144.7706  131.1728  150.8244 C   0  0  0  0  0  0  0  0  0  0  0  0
  143.6842  132.2530  150.7119 C   0  0  0  0  0  0  0  0  0  0  0  0
  144.2911  133.6602  150.8299 C   0  0  0  0  0  0  0  0  0  0  0  0
  145.0824  133.7825  152.0551 N   0  0  0  0  0  0  0  0  0  0  0  0
  145.4107  135.0307  152.4740 C   0  0  0  0  0  0  0  0  0  0  0  0
  144.7228  136.1071  152.0072 N   0  0  0  0  0  0  0  0  0  0  0  0
  145.0443  137.3400  152.4096 C   0  0  0  0  0  0  0  0  0  0  0  0
  146.0012  137.7173  153.2594 N   0  0  0  0  0  0  0  0  0  0  0  0
  146.6939  136.6429  153.7343 C   0  0  0  0  0  0  0  0  0  0  0  0
  146.4637  135.2781  153.3996 C   0  0  0  0  0  0  0  0  0  0  0  0
  147.3495  134.4648  154.0968 N   0  0  0  0  0  0  0  0  0  0  0  0
  148.0649  135.3005  154.7981 C   0  0  0  0  0  0  0  0  0  0  0  0
  147.7480  136.6299  154.6315 N   0  0  0  0  0  0  0  0  0  0  0  0
  148.3791  137.7627  155.2919 C   0  0  0  0  0  0  0  0  0  0  0  0
  149.2898  138.6203  154.3713 C   0  0  2  0  0  0  0  0  0  0  0  0
  148.5768  138.9131  153.1825 O   0  0  0  0  0  0  0  0  0  0  0  0
  150.6074  137.9478  153.9986 C   0  0  0  0  0  0  0  0  0  0  0  0
  151.4984  138.3128  155.1746 C   0  0  0  0  0  0  0  0  0  0  0  0
  151.1479  139.6610  155.4463 O   0  0  0  0  0  0  0  0  0  0  0  0
  149.7794  139.8946  155.1089 C   0  0  1  0  0  0  0  0  0  0  0  0
  149.7402  141.1997  154.2954 C   0  0  0  0  0  0  0  0  0  0  0  0
  146.1447  132.7892  152.2083 C   0  0  0  0  0  0  0  0  0  0  0  0
  148.8459  126.6760  151.6430 H   0  0  0  0  0  0  0  0  0  0  0  0
  147.7655  127.6057  150.6120 H   0  0  0  0  0  0  0  0  0  0  0  0
  147.1050  126.4947  151.8147 H   0  0  0  0  0  0  0  0  0  0  0  0
  148.0653  127.9254  153.6567 H   0  0  0  0  0  0  0  0  0  0  0  0
  148.7307  129.0226  152.4663 H   0  0  0  0  0  0  0  0  0  0  0  0
  147.5737  130.7091  151.8303 H   0  0  0  0  0  0  0  0  0  0  0  0
  144.9222  131.2049  152.9786 H   0  0  0  0  0  0  0  0  0  0  0  0
  145.4332  131.2326  149.9597 H   0  0  0  0  0  0  0  0  0  0  0  0
  144.3115  130.1840  150.7986 H   0  0  0  0  0  0  0  0  0  0  0  0
  143.1532  132.1538  149.7650 H   0  0  0  0  0  0  0  0  0  0  0  0
  142.9440  132.1081  151.5000 H   0  0  0  0  0  0  0  0  0  0  0  0
  144.9276  133.8644  149.9678 H   0  0  0  0  0  0  0  0  0  0  0  0
  143.4904  134.4010  150.8241 H   0  0  0  0  0  0  0  0  0  0  0  0
  144.4505  138.1384  151.9897 H   0  0  0  0  0  0  0  0  0  0  0  0
  148.8533  134.9687  155.4581 H   0  0  0  0  0  0  0  0  0  0  0  0
  147.5933  138.3854  155.7221 H   0  0  0  0  0  0  0  0  0  0  0  0
  148.9499  137.3782  156.1380 H   0  0  0  0  0  0  0  0  0  0  0  0
  149.1017  139.4939  152.6533 H   0  0  0  0  0  0  0  0  0  0  0  0
  150.5414  136.8747  153.8259 H   0  0  0  0  0  0  0  0  0  0  0  0
  151.0208  138.3965  153.0936 H   0  0  0  0  0  0  0  0  0  0  0  0
  151.2744  137.6932  156.0438 H   0  0  0  0  0  0  0  0  0  0  0  0
  152.5599  138.2134  154.9468 H   0  0  0  0  0  0  0  0  0  0  0  0
  149.2151  140.0428  156.0308 H   0  0  0  0  0  0  0  0  0  0  0  0
  148.7185  141.4729  154.0303 H   0  0  0  0  0  0  0  0  0  0  0  0
  150.3182  141.1123  153.3749 H   0  0  0  0  0  0  0  0  0  0  0  0
  150.1594  142.0252  154.8710 H   0  0  0  0  0  0  0  0  0  0  0  0
  146.6716  132.9139  153.1540 H   0  0  0  0  0  0  0  0  0  0  0  0
  146.8811  132.9498  151.4192 H   0  0  0  0  0  0  0  0  0  0  0  0
  1  2  1  0  0  0  0
  1 29  1  0  0  0  0
  1 30  1  0  0  0  0
  1 31  1  0  0  0  0
  2  3  1  0  0  0  0
  2 32  1  0  0  0  0
  2 33  1  0  0  0  0
  3  4  2  0  0  0  0
  3  5  1  0  0  0  0
  5  6  1  0  0  0  0
  5 34  1  0  0  0  0
  6 28  1  0  0  0  0
  6  7  1  0  0  0  0
  6 35  1  0  0  0  0
  7  8  1  0  0  0  0
  7 36  1  0  0  0  0
  7 37  1  0  0  0  0
  8  9  1  0  0  0  0
  8 38  1  0  0  0  0
  8 39  1  0  0  0  0
  9 10  1  0  0  0  0
  9 40  1  0  0  0  0
  9 41  1  0  0  0  0
 10 11  1  0  0  0  0
 10 28  1  0  0  0  0
 11 16  1  0  0  0  0
 11 12  2  0  0  0  0
 12 13  1  0  0  0  0
 13 14  2  0  0  0  0
 13 42  1  0  0  0  0
 14 15  1  0  0  0  0
 15 19  1  0  0  0  0
 15 16  2  0  0  0  0
 16 17  1  0  0  0  0
 17 18  2  0  0  0  0
 18 19  1  0  0  0  0
 18 43  1  0  0  0  0
 19 20  1  0  0  0  0
 20 21  1  0  0  0  0
 20 44  1  0  0  0  0
 20 45  1  0  0  0  0
 21 26  1  0  0  0  0
 21 22  1  0  0  0  0
 21 23  1  0  0  0  0
 22 46  1  0  0  0  0
 23 24  1  0  0  0  0
 23 47  1  0  0  0  0
 23 48  1  0  0  0  0
 24 25  1  0  0  0  0
 24 49  1  0  0  0  0
 24 50  1  0  0  0  0
 25 26  1  0  0  0  0
 26 27  1  0  0  0  0
 26 51  1  0  0  0  0
 27 52  1  0  0  0  0
 27 53  1  0  0  0  0
 27 54  1  0  0  0  0
 28 55  1  0  0  0  0
 28 56  1  0  0  0  0
M  END
> <s_m_source_file>
AV-unprocessed.smi

> <i_m_source_file_index>
252

> <i_lp_mmshare_version>
43012

> <i_f3d_flags>
0

> <s_epik_input>
W0NIM11bQ0gyXUMoPU8pW05IXVtDQEBIXTFbQ0gyXVtDSDJdW0NIMl1OKFtDSDJdMSljKG5bY0hdbjIpYyhjMjMpbltjSF1uM1tDSDJdW0NAQF00KFtPSF0pW0NIMl1bQ0gyXU9bQ0BIXTRbQ0gzXQ==

> <s_epik_cmdline>
J2VwaWtfcHl0aG9uJywgJy1waCcsICc3LjAnLCAnLXRuJywgJzgnLCAnLW1hJywgJzIwMCcsICctbWV0YWxfYmluZGluZycsICctaW1hZScsICc8aW5maWxlLm1hZT4nLCAnLW9tYWUnLCAnPG91dGZpbGUubWFlPic=

> <r_lp_tautomer_probability>
1

> <r_epik_Ionization_Penalty>
0.00182575

> <r_epik_Ionization_Penalty_Charging>
0

> <r_epik_Ionization_Penalty_Neutral>
0.00182575

> <r_epik_State_Penalty>
0.00104524

> <r_epik_Charging_Adjusted_Penalty>
0.00104524

> <i_epik_Tot_Q>
0

> <i_epik_Tot_abs_Q>
0

> <r_epik_Metal_State_Penalty>
-0

> <b_epik_Metal_Only>
0

> <s_lp_Force_Field>
OPLS_2005

> <r_lp_Energy>
36.3421

> <b_lp_Chiralities_Consistent>
1

> <s_lp_Variant>
AV-unprocessed.smi:252-3

> <Gold.Version>
5.8.1

> <Gold.Id.Protein>
6NUR|6NUR_protein|mol2

> <Gold.PLP.Fitness>
49.7974

> <Gold.PLP.PLP>
-39.2857

> <Gold.PLP.part.hbond>
-2.9120

> <Gold.PLP.part.metal>
0.0000

> <Gold.PLP.part.buried>
0.6442

> <Gold.PLP.part.nonpolar>
-35.4665

> <Gold.PLP.part.repulsive>
0.6687

> <Gold.PLP.ligand.clash>
0.0000

> <Gold.PLP.ligand.torsion>
1.3021

> <Gold.PLP.Chemscore.Hbond>
2.4150

> <Gold.PLP.Chemscore.CHOScore>
1.8174

> <Gold.PLP.Chemscore.Metal>
0.0000

> <Gold.Chemscore.Hbonds>
donor molecule, donor type, donor heavy atom, donor atom, acceptor molecule, acceptor atom, score
      L1  H     5    34       P1 10747  0.84
      L1  H    22    46       P1  7957  0.99
      P1  H  7989  7998       L1    25  0.07
      L1  C    13    42       P1 10171  1.00
      L1  C    13    42       P1 10175  1.00

> <Gold.PLP.Chemscore.Internal.Correction>
0.4189

> <Gold.Rescore>
     Score         DG    S(hbond)    S(metal)    S(lipo)     H(rot)  DE(clash)    DE(int)     intcor
     12.75     -16.05       1.98        0.00      93.08       2.70       0.38       2.92       ----

> <Gold.Chemscore.Fitness>
12.7511

> <Gold.Chemscore.DG>
-16.0492

> <Gold.Chemscore.ZeroCoef>
-5.4800

> <Gold.Chemscore.Hbond>
1.9765

> <Gold.Chemscore.Metal>
0.0000

> <Gold.Chemscore.Lipo>
93.0774

> <Gold.Chemscore.Internal_Hbond>
0.0000

> <Gold.Chemscore.DEClash>
0.3798

> <Gold.Chemscore.DEInternal>
2.9182

> <Gold.Chemscore.Rot>
2.7041

> <Gold.Chemscore.Internal.Correction>
   9.000000E+99

> <Gold.Chemscore.Hbonds>
donor molecule, donor type, donor heavy atom, donor atom, acceptor molecule, acceptor atom, score
      L1  H     5    34       P1 10747  0.78
      L1  H    22    46       P1  7957  0.94

> <Gold.Chemscore.Hbond.Weighted>
-6.6016

> <Gold.Chemscore.Metal.Weighted>
-0.0000

> <Gold.Chemscore.Lipo.Weighted>
-10.8901

> <Gold.Chemscore.Internal_Hbond.Weighted>
0.0000

> <Gold.Chemscore.DEClash.Weighted>
0.3798

> <Gold.Chemscore.DEInternal.Weighted>
2.9182

> <Gold.Chemscore.Rot.Weighted>
6.9225

> <Gold.Chemscore.Internal.Correction.Weighted>
   9.000000E+99

> <Gold.Protein.RotatedTorsions>
[ 6907 6896 6895 6894 ] final  118.48 input  -60.11 | X-H torsion
[ 7974 7965 7964 7962 ] final -126.60 input  175.53 | X-H torsion
[ 8008 7997 7996 7995 ] final  167.33 input   59.86 | X-H torsion
[ 10167 10162 10161 10158 ] final  112.20 input  -65.29 | X-H torsion
[ 10718 10713 10712 10709 ] final  122.67 input   66.30 | X-H torsion
[ 10763 10752 10751 10750 ] final   92.83 input  -60.55 | X-H torsion
[ 11005 11000 10999 10996 ] final   43.30 input  -57.11 | X-H torsion

> <Gold.Protein.ActiveResidues>
 VAL166  LYS551  ARG553  GLY616  TRP617  ASP618  TYR619  PRO620  LYS621  CYS622 
 ASP623  PHE694  ASN695  SER759  ASP760  ASP761  ALA762  ILE779  LEU786  VAL792 
 PHE793  MET794  SER795  GLU796  ALA797  LYS798  CYS799  TRP800  GLU811  SER814 

> <Gold.Protein.RotatedAtoms>
  152.4540  133.7686  159.6785 H   0  0  0  0  0  0  0  0  0  0  0  0  # atno 6907 bound_to 6896
  150.8460  133.7850  159.3049 H   0  0  0  0  0  0  0  0  0  0  0  0  # atno 6908 bound_to 6896
  151.5460  135.1071  159.9990 H   0  0  0  0  0  0  0  0  0  0  0  0  # atno 6909 bound_to 6896
  144.9856  140.7682  143.4585 H   0  0  0  0  0  0  0  0  0  0  0  0  # atno 7974 bound_to 7965
  156.1643  140.1620  156.8558 H   0  0  0  0  0  0  0  0  0  0  0  0  # atno 8008 bound_to 7997
  154.5192  140.0782  156.8174 H   0  0  0  0  0  0  0  0  0  0  0  0  # atno 8009 bound_to 7997
  155.3643  140.3397  155.4244 H   0  0  0  0  0  0  0  0  0  0  0  0  # atno 8010 bound_to 7997
  139.6553  144.7129  151.1969 H   0  0  0  0  0  0  0  0  0  0  0  0  # atno 10167 bound_to 10162
  157.5724  131.1082  150.8342 H   0  0  0  0  0  0  0  0  0  0  0  0  # atno 10718 bound_to 10713
  153.2235  135.4347  155.0516 H   0  0  0  0  0  0  0  0  0  0  0  0  # atno 10763 bound_to 10752
  154.8262  135.3362  154.6891 H   0  0  0  0  0  0  0  0  0  0  0  0  # atno 10764 bound_to 10752
  153.7322  135.7010  153.5042 H   0  0  0  0  0  0  0  0  0  0  0  0  # atno 10765 bound_to 10752
  140.1657  134.4285  155.8289 H   0  0  0  0  0  0  0  0  0  0  0  0  # atno 11005 bound_to 11000
  145.2359  139.2094  143.5018 LP  0  0  0  0  0  0  0  0  0  0  0  0  # atno 17320 bound_to 7965
  146.3419  140.2245  142.8592 LP  0  0  0  0  0  0  0  0  0  0  0  0  # atno 17321 bound_to 7965
  140.7556  143.6082  150.8631 LP  0  0  0  0  0  0  0  0  0  0  0  0  # atno 17342 bound_to 10162
  139.9734  143.6031  152.2966 LP  0  0  0  0  0  0  0  0  0  0  0  0  # atno 17343 bound_to 10162
  156.8810  130.5179  149.5291 LP  0  0  0  0  0  0  0  0  0  0  0  0  # atno 17370 bound_to 10713
  156.0769  130.5789  150.9491 LP  0  0  0  0  0  0  0  0  0  0  0  0  # atno 17371 bound_to 10713
  141.2213  133.6933  156.7674 LP  0  0  0  0  0  0  0  0  0  0  0  0  # atno 17394 bound_to 11000
  140.2436  134.8594  157.3598 LP  0  0  0  0  0  0  0  0  0  0  0  0  # atno 17395 bound_to 11000

$$$$
