AV-unprocessed.smi:3255|AV-procd|sdf|12463|dock3
  -GOLD-   2272018363D 1   1.00000     0.00000
 Structure written by MMmdl.
 38 39  0  0  0  0  0  0  0  0  1 V2000
  144.0938  135.0066  151.5265 C   0  0  0  0  0  0  0  0  0  0  0  0
  145.3345  134.6961  152.3763 C   0  0  2  0  0  0  0  0  0  0  0  0
  146.2407  135.8427  152.3260 N   0  0  0  0  0  0  0  0  0  0  0  0
  145.9003  137.1176  152.5629 C   0  0  0  0  0  0  0  0  0  0  0  0
  144.7581  137.4909  152.8304 O   0  0  0  0  0  0  0  0  0  0  0  0
  146.9610  137.9350  152.5005 N   0  0  0  0  0  0  0  0  0  0  0  0
  146.9335  139.3675  152.7832 C   0  0  0  0  0  0  0  0  0  0  0  0
  147.4255  139.6842  154.2083 C   0  0  0  0  0  0  0  0  0  0  0  0
  148.8687  139.5973  154.3376 N   0  0  0  0  0  0  0  0  0  0  0  0
  149.6616  138.4744  154.1386 C   0  0  0  0  0  0  0  0  0  0  0  0
  150.9600  138.8614  154.3821 C   0  0  0  0  0  0  0  0  0  0  0  0
  150.9909  140.2122  154.7200 N   0  0  0  0  0  0  0  0  0  0  0  0
  149.7170  140.5803  154.6699 C   0  0  0  0  0  0  0  0  0  0  0  0
  146.0532  133.4163  151.8989 C   0  0  1  0  0  0  0  0  0  0  0  0
  145.3154  132.1071  152.1955 C   0  0  0  0  0  0  0  0  0  0  0  0
  145.8471  131.1971  151.1139 C   0  0  0  0  0  0  0  0  0  0  0  0
  145.9218  132.1520  149.9285 C   0  0  0  0  0  0  0  0  0  0  0  0
  146.2141  133.4327  150.4809 O   0  0  0  0  0  0  0  0  0  0  0  0
  143.3739  134.1887  151.5666 H   0  0  0  0  0  0  0  0  0  0  0  0
  144.3572  135.1661  150.4803 H   0  0  0  0  0  0  0  0  0  0  0  0
  143.5883  135.9042  151.8842 H   0  0  0  0  0  0  0  0  0  0  0  0
  144.9974  134.5369  153.4022 H   0  0  0  0  0  0  0  0  0  0  0  0
  147.2081  135.6429  152.1173 H   0  0  0  0  0  0  0  0  0  0  0  0
  147.8581  137.5333  152.2710 H   0  0  0  0  0  0  0  0  0  0  0  0
  147.5880  139.8561  152.0615 H   0  0  0  0  0  0  0  0  0  0  0  0
  145.9384  139.7839  152.6170 H   0  0  0  0  0  0  0  0  0  0  0  0
  147.1029  140.6815  154.5103 H   0  0  0  0  0  0  0  0  0  0  0  0
  146.9813  138.9841  154.9168 H   0  0  0  0  0  0  0  0  0  0  0  0
  149.2480  137.5172  153.8573 H   0  0  0  0  0  0  0  0  0  0  0  0
  151.8666  138.2758  154.3403 H   0  0  0  0  0  0  0  0  0  0  0  0
  149.3919  141.5870  154.8877 H   0  0  0  0  0  0  0  0  0  0  0  0
  147.0500  133.3616  152.3396 H   0  0  0  0  0  0  0  0  0  0  0  0
  145.5064  131.7311  153.2006 H   0  0  0  0  0  0  0  0  0  0  0  0
  144.2382  132.2328  152.0754 H   0  0  0  0  0  0  0  0  0  0  0  0
  146.8441  130.8417  151.3780 H   0  0  0  0  0  0  0  0  0  0  0  0
  145.2104  130.3318  150.9276 H   0  0  0  0  0  0  0  0  0  0  0  0
  146.6710  131.8513  149.1958 H   0  0  0  0  0  0  0  0  0  0  0  0
  144.9564  132.2062  149.4240 H   0  0  0  0  0  0  0  0  0  0  0  0
  1  2  1  0  0  0  0
  1 19  1  0  0  0  0
  1 20  1  0  0  0  0
  1 21  1  0  0  0  0
  2  3  1  0  0  0  0
  2 14  1  0  0  0  0
  2 22  1  0  0  0  0
  3  4  1  0  0  0  0
  3 23  1  0  0  0  0
  4  5  2  0  0  0  0
  4  6  1  0  0  0  0
  6  7  1  0  0  0  0
  6 24  1  0  0  0  0
  7  8  1  0  0  0  0
  7 25  1  0  0  0  0
  7 26  1  0  0  0  0
  8  9  1  0  0  0  0
  8 27  1  0  0  0  0
  8 28  1  0  0  0  0
  9 13  1  0  0  0  0
  9 10  1  0  0  0  0
 10 11  2  0  0  0  0
 10 29  1  0  0  0  0
 11 12  1  0  0  0  0
 11 30  1  0  0  0  0
 12 13  2  0  0  0  0
 13 31  1  0  0  0  0
 14 18  1  0  0  0  0
 14 15  1  0  0  0  0
 14 32  1  0  0  0  0
 15 16  1  0  0  0  0
 15 33  1  0  0  0  0
 15 34  1  0  0  0  0
 16 17  1  0  0  0  0
 16 35  1  0  0  0  0
 16 36  1  0  0  0  0
 17 18  1  0  0  0  0
 17 37  1  0  0  0  0
 17 38  1  0  0  0  0
M  END
> <s_m_source_file>
AV-unprocessed.smi

> <i_m_source_file_index>
3255

> <i_lp_mmshare_version>
43012

> <i_f3d_flags>
0

> <s_epik_input>
TzFbQ0gyXVtDSDJdW0NIMl1bQ0BIXTFbQ0BIXShbQ0gzXSlbTkhdQyg9TylbTkhdW0NIMl1bQ0gyXW4yW2NIXVtjSF1uW2NIXTI=

> <s_epik_cmdline>
J2VwaWtfcHl0aG9uJywgJy1waCcsICc3LjAnLCAnLXRuJywgJzgnLCAnLW1hJywgJzIwMCcsICctbWV0YWxfYmluZGluZycsICctaW1hZScsICc8aW5maWxlLm1hZT4nLCAnLW9tYWUnLCAnPG91dGZpbGUubWFlPic=

> <r_lp_tautomer_probability>
1

> <r_epik_Ionization_Penalty>
0.620274

> <r_epik_Ionization_Penalty_Charging>
0.620225

> <r_epik_Ionization_Penalty_Neutral>
4.91362e-05

> <r_epik_State_Penalty>
0.636186

> <r_epik_Charging_Adjusted_Penalty>
1.25641

> <i_epik_Tot_Q>
0

> <i_epik_Tot_abs_Q>
0

> <r_epik_Metal_State_Penalty>
0.306491

> <b_epik_Metal_Only>
0

> <s_lp_Force_Field>
OPLS_2005

> <r_lp_Energy>
16.3443

> <b_lp_Chiralities_Consistent>
1

> <s_lp_Variant>
AV-unprocessed.smi:3255-7

> <Gold.Version>
5.8.1

> <Gold.Id.Protein>
6NUR|6NUR_protein|mol2

> <Gold.PLP.Fitness>
42.7139

> <Gold.PLP.PLP>
-31.5229

> <Gold.PLP.part.hbond>
-3.0000

> <Gold.PLP.part.metal>
0.0000

> <Gold.PLP.part.buried>
-3.6910

> <Gold.PLP.part.nonpolar>
-25.2040

> <Gold.PLP.part.repulsive>
0.5731

> <Gold.PLP.ligand.clash>
0.0000

> <Gold.PLP.ligand.torsion>
0.4383

> <Gold.PLP.Chemscore.Hbond>
3.0000

> <Gold.PLP.Chemscore.CHOScore>
1.0000

> <Gold.PLP.Chemscore.Metal>
0.0000

> <Gold.Chemscore.Hbonds>
donor molecule, donor type, donor heavy atom, donor atom, acceptor molecule, acceptor atom, score
      L1  H     3    23       P1  7948  1.00
      L1  H     6    24       P1  7948  1.00
      P1  H  7989  7998       L1    12  0.99
      L1  C    10    29       P1  7948  1.00

> <Gold.PLP.Chemscore.Internal.Correction>
0.0676

> <Gold.Rescore>
     Score         DG    S(hbond)    S(metal)    S(lipo)     H(rot)  DE(clash)    DE(int)     intcor
     13.88     -15.71       2.41        0.00      66.47       2.18       0.08       1.75       ----

> <Gold.Chemscore.Fitness>
13.8793

> <Gold.Chemscore.DG>
-15.7050

> <Gold.Chemscore.ZeroCoef>
-5.4800

> <Gold.Chemscore.Hbond>
2.4060

> <Gold.Chemscore.Metal>
0.0000

> <Gold.Chemscore.Lipo>
66.4716

> <Gold.Chemscore.Internal_Hbond>
0.0000

> <Gold.Chemscore.DEClash>
0.0806

> <Gold.Chemscore.DEInternal>
1.7452

> <Gold.Chemscore.Rot>
2.1828

> <Gold.Chemscore.Internal.Correction>
   9.000000E+99

> <Gold.Chemscore.Hbonds>
donor molecule, donor type, donor heavy atom, donor atom, acceptor molecule, acceptor atom, score
      L1  H     3    23       P1  7948  0.95
      L1  H     6    24       P1  7948  0.99
      P1  H  7989  7998       L1    12  0.21

> <Gold.Chemscore.Hbond.Weighted>
-8.0359

> <Gold.Chemscore.Metal.Weighted>
-0.0000

> <Gold.Chemscore.Lipo.Weighted>
-7.7772

> <Gold.Chemscore.Internal_Hbond.Weighted>
0.0000

> <Gold.Chemscore.DEClash.Weighted>
0.0806

> <Gold.Chemscore.DEInternal.Weighted>
1.7452

> <Gold.Chemscore.Rot.Weighted>
5.5881

> <Gold.Chemscore.Internal.Correction.Weighted>
   9.000000E+99

> <Gold.Protein.RotatedTorsions>
[ 6907 6896 6895 6894 ] final  -17.82 input  -60.11 | X-H torsion
[ 7974 7965 7964 7962 ] final   45.21 input  175.53 | X-H torsion
[ 8008 7997 7996 7995 ] final  -69.42 input   59.86 | X-H torsion
[ 10167 10162 10161 10158 ] final   51.50 input  -65.29 | X-H torsion
[ 10718 10713 10712 10709 ] final   33.55 input   66.30 | X-H torsion
[ 10763 10752 10751 10750 ] final   35.05 input  -60.55 | X-H torsion
[ 11005 11000 10999 10996 ] final   54.23 input  -57.11 | X-H torsion

> <Gold.Protein.ActiveResidues>
 VAL166  LYS551  ARG553  GLY616  TRP617  ASP618  TYR619  PRO620  LYS621  CYS622 
 ASP623  PHE694  ASN695  SER759  ASP760  ASP761  ALA762  ILE779  LEU786  VAL792 
 PHE793  MET794  SER795  GLU796  ALA797  LYS798  CYS799  TRP800  GLU811  SER814 

> <Gold.Protein.RotatedAtoms>
  151.2875  135.0732  159.9191 H   0  0  0  0  0  0  0  0  0  0  0  0  # atno 6907 bound_to 6896
  152.5322  133.9966  159.7886 H   0  0  0  0  0  0  0  0  0  0  0  0  # atno 6908 bound_to 6896
  151.0231  133.5808  159.2699 H   0  0  0  0  0  0  0  0  0  0  0  0  # atno 6909 bound_to 6896
  146.0500  139.4989  142.9724 H   0  0  0  0  0  0  0  0  0  0  0  0  # atno 7974 bound_to 7965
  154.4937  140.0854  156.7650 H   0  0  0  0  0  0  0  0  0  0  0  0  # atno 8008 bound_to 7997
  155.4168  140.3444  155.4250 H   0  0  0  0  0  0  0  0  0  0  0  0  # atno 8009 bound_to 7997
  156.1365  140.1516  156.8975 H   0  0  0  0  0  0  0  0  0  0  0  0  # atno 8010 bound_to 7997
  140.2612  144.3371  150.6317 H   0  0  0  0  0  0  0  0  0  0  0  0  # atno 10167 bound_to 10162
  157.2992  130.7342  149.6657 H   0  0  0  0  0  0  0  0  0  0  0  0  # atno 10718 bound_to 10713
  153.0136  135.6344  154.1765 H   0  0  0  0  0  0  0  0  0  0  0  0  # atno 10763 bound_to 10752
  154.1506  135.2829  155.3138 H   0  0  0  0  0  0  0  0  0  0  0  0  # atno 10764 bound_to 10752
  154.6056  135.5573  153.7481 H   0  0  0  0  0  0  0  0  0  0  0  0  # atno 10765 bound_to 10752
  140.0703  134.5479  155.9054 H   0  0  0  0  0  0  0  0  0  0  0  0  # atno 11005 bound_to 11000
  145.6740  141.0209  143.1642 LP  0  0  0  0  0  0  0  0  0  0  0  0  # atno 17320 bound_to 7965
  144.7118  139.8343  143.7412 LP  0  0  0  0  0  0  0  0  0  0  0  0  # atno 17321 bound_to 7965
  140.5964  143.2167  151.7156 LP  0  0  0  0  0  0  0  0  0  0  0  0  # atno 17342 bound_to 10162
  139.5016  144.3860  152.0328 LP  0  0  0  0  0  0  0  0  0  0  0  0  # atno 17343 bound_to 10162
  155.9670  130.4285  150.4791 LP  0  0  0  0  0  0  0  0  0  0  0  0  # atno 17370 bound_to 10713
  157.2768  131.0598  151.2224 LP  0  0  0  0  0  0  0  0  0  0  0  0  # atno 17371 bound_to 10713
  141.2009  133.6615  156.5922 LP  0  0  0  0  0  0  0  0  0  0  0  0  # atno 17394 bound_to 11000
  140.3637  134.7665  157.4551 LP  0  0  0  0  0  0  0  0  0  0  0  0  # atno 17395 bound_to 11000

$$$$
