AV-unprocessed.smi:694|AV-procd|sdf|3378|dock4
  -GOLD-   22720 0363D 1   1.00000     0.00000
 Structure written by MMmdl.
 43 44  0  0  0  0  0  0  0  0  2 V2000
  152.1131  142.3614  158.9825 C   0  0  0  0  0  0  0  0  0  0  0  0
  151.5658  142.8803  157.7340 N   0  0  0  0  0  0  0  0  0  0  0  0
  151.5798  144.3117  157.4622 C   0  0  0  0  0  0  0  0  0  0  0  0
  150.9901  141.9932  156.7990 C   0  0  0  0  0  0  0  0  0  0  0  0
  151.3850  140.6395  156.6680 C   0  0  0  0  0  0  0  0  0  0  0  0
  150.7606  139.8162  155.7084 C   0  0  0  0  0  0  0  0  0  0  0  0
  149.7487  140.3438  154.8790 C   0  0  0  0  0  0  0  0  0  0  0  0
  149.1427  139.4661  153.9381 N   0  0  0  0  0  0  0  0  0  0  0  0
  147.9227  139.5400  153.3778 C   0  0  0  0  0  0  0  0  0  0  0  0
  147.1076  140.4434  153.5601 O   0  0  0  0  0  0  0  0  0  0  0  0
  147.6974  138.4978  152.5653 N   0  0  0  0  0  0  0  0  0  0  0  0
  146.4701  138.2817  151.8046 C   0  0  0  0  0  0  0  0  0  0  0  0
  145.8563  136.8900  152.0675 C   0  0  2  0  0  0  0  0  0  0  0  0
  145.6032  136.0632  150.8022 C   0  0  0  0  0  0  0  0  0  0  0  0
  144.5436  135.0212  151.1922 C   0  0  0  0  0  0  0  0  0  0  0  0
  143.9971  135.4431  152.5660 C   0  0  0  0  0  0  0  0  0  0  0  0
  144.5079  136.8676  152.8047 C   0  0  2  0  0  0  0  0  0  0  0  0
  143.5904  137.7847  152.2370 O   0  0  0  0  0  0  0  0  0  0  0  0
  149.3839  141.7005  155.0542 C   0  0  0  0  0  0  0  0  0  0  0  0
  150.0081  142.4528  155.9859 N   0  3  0  0  0  0  0  0  0  0  0  0
  152.9276  141.6645  158.7824 H   0  0  0  0  0  0  0  0  0  0  0  0
  151.3427  141.8409  159.5523 H   0  0  0  0  0  0  0  0  0  0  0  0
  152.5060  143.1632  159.6080 H   0  0  0  0  0  0  0  0  0  0  0  0
  150.5638  144.6892  157.3416 H   0  0  0  0  0  0  0  0  0  0  0  0
  152.1422  144.5240  156.5523 H   0  0  0  0  0  0  0  0  0  0  0  0
  152.0453  144.8651  158.2782 H   0  0  0  0  0  0  0  0  0  0  0  0
  152.1582  140.2152  157.2909 H   0  0  0  0  0  0  0  0  0  0  0  0
  151.0629  138.7834  155.6120 H   0  0  0  0  0  0  0  0  0  0  0  0
  149.7176  138.6922  153.6387 H   0  0  0  0  0  0  0  0  0  0  0  0
  148.4210  137.8004  152.4695 H   0  0  0  0  0  0  0  0  0  0  0  0
  145.7626  139.0675  152.0705 H   0  0  0  0  0  0  0  0  0  0  0  0
  146.6714  138.4061  150.7391 H   0  0  0  0  0  0  0  0  0  0  0  0
  146.5613  136.3210  152.6765 H   0  0  0  0  0  0  0  0  0  0  0  0
  145.2090  136.7022  150.0107 H   0  0  0  0  0  0  0  0  0  0  0  0
  146.5166  135.6026  150.4246 H   0  0  0  0  0  0  0  0  0  0  0  0
  143.7478  134.9953  150.4470 H   0  0  0  0  0  0  0  0  0  0  0  0
  144.9738  134.0203  151.2439 H   0  0  0  0  0  0  0  0  0  0  0  0
  142.9111  135.3620  152.6311 H   0  0  0  0  0  0  0  0  0  0  0  0
  144.4131  134.7840  153.3293 H   0  0  0  0  0  0  0  0  0  0  0  0
  144.6171  137.0869  153.8673 H   0  0  0  0  0  0  0  0  0  0  0  0
  143.8992  138.6618  152.4039 H   0  0  0  0  0  0  0  0  0  0  0  0
  148.6155  142.2196  154.5022 H   0  0  0  0  0  0  0  0  0  0  0  0
  149.7196  143.4264  156.0841 H   0  0  0  0  0  0  0  0  0  0  0  0
  1  2  1  0  0  0  0
  1 21  1  0  0  0  0
  1 22  1  0  0  0  0
  1 23  1  0  0  0  0
  2  3  1  0  0  0  0
  2  4  1  0  0  0  0
  3 24  1  0  0  0  0
  3 25  1  0  0  0  0
  3 26  1  0  0  0  0
  4 20  1  0  0  0  0
  4  5  2  0  0  0  0
  5  6  1  0  0  0  0
  5 27  1  0  0  0  0
  6  7  2  0  0  0  0
  6 28  1  0  0  0  0
  7  8  1  0  0  0  0
  7 19  1  0  0  0  0
  8  9  1  0  0  0  0
  8 29  1  0  0  0  0
  9 10  2  0  0  0  0
  9 11  1  0  0  0  0
 11 12  1  0  0  0  0
 11 30  1  0  0  0  0
 12 13  1  0  0  0  0
 12 31  1  0  0  0  0
 12 32  1  0  0  0  0
 13 17  1  0  0  0  0
 13 14  1  0  0  0  0
 13 33  1  0  0  0  0
 14 15  1  0  0  0  0
 14 34  1  0  0  0  0
 14 35  1  0  0  0  0
 15 16  1  0  0  0  0
 15 36  1  0  0  0  0
 15 37  1  0  0  0  0
 16 17  1  0  0  0  0
 16 38  1  0  0  0  0
 16 39  1  0  0  0  0
 17 18  1  0  0  0  0
 17 40  1  0  0  0  0
 18 41  1  0  0  0  0
 19 20  2  0  0  0  0
 19 42  1  0  0  0  0
 20 43  1  0  0  0  0
M  CHG  1  20   1
M  END
> <s_m_source_file>
AV-unprocessed.smi

> <i_m_source_file_index>
694

> <i_lp_mmshare_version>
43012

> <i_f3d_flags>
0

> <s_epik_input>
W0NIM11OKFtDSDNdKWMxW2NIXVtjSF1jKFtjSF1uMSlbTkhdQyg9TylbTkhdW0NIMl1bQ0BASF0yW0NIMl1bQ0gyXVtDSDJdW0NASF0yW09IXQ==

> <s_epik_cmdline>
J2VwaWtfcHl0aG9uJywgJy1waCcsICc3LjAnLCAnLXRuJywgJzgnLCAnLW1hJywgJzIwMCcsICctbWV0YWxfYmluZGluZycsICctaW1hZScsICc8aW5maWxlLm1hZT4nLCAnLW9tYWUnLCAnPG91dGZpbGUubWFlPic=

> <r_lp_tautomer_probability>
0.999994

> <r_epik_Ionization_Penalty>
0.266135

> <r_epik_Ionization_Penalty_Charging>
0.266113

> <r_epik_Ionization_Penalty_Neutral>
2.14137e-05

> <r_epik_State_Penalty>
0.258052

> <r_epik_Charging_Adjusted_Penalty>
0.524165

> <i_epik_Tot_Q>
1

> <i_epik_Tot_abs_Q>
1

> <r_epik_Metal_State_Penalty>
0.544313

> <b_epik_Metal_Only>
0

> <s_lp_Force_Field>
OPLS_2005

> <r_lp_Energy>
36.5329

> <b_lp_Chiralities_Consistent>
1

> <s_lp_Variant>
AV-unprocessed.smi:694-3

> <Gold.Version>
5.8.1

> <Gold.Id.Protein>
6NUR|6NUR_protein|mol2

> <Gold.PLP.Fitness>
51.7369

> <Gold.PLP.PLP>
-42.1239

> <Gold.PLP.part.hbond>
-6.0000

> <Gold.PLP.part.metal>
0.0000

> <Gold.PLP.part.buried>
-0.5754

> <Gold.PLP.part.nonpolar>
-36.4486

> <Gold.PLP.part.repulsive>
0.4629

> <Gold.PLP.ligand.clash>
0.0000

> <Gold.PLP.ligand.torsion>
1.1994

> <Gold.PLP.Chemscore.Hbond>
4.0000

> <Gold.PLP.Chemscore.CHOScore>
0.0000

> <Gold.PLP.Chemscore.Metal>
0.0000

> <Gold.Chemscore.Hbonds>
donor molecule, donor type, donor heavy atom, donor atom, acceptor molecule, acceptor atom, score
      L1  H    11    30       P1  7948  1.00
      L1  H    18    41       P1 10175  1.00
      L1  H    20    43       P1  8028  2.00

> <Gold.PLP.Chemscore.Internal.Correction>
0.0119

> <Gold.Rescore>
     Score         DG    S(hbond)    S(metal)    S(lipo)     H(rot)  DE(clash)    DE(int)     intcor
     18.01     -20.41       2.92        0.00      82.51       1.75       0.07       2.33       ----

> <Gold.Chemscore.Fitness>
18.0083

> <Gold.Chemscore.DG>
-20.4133

> <Gold.Chemscore.ZeroCoef>
-5.4800

> <Gold.Chemscore.Hbond>
2.9210

> <Gold.Chemscore.Metal>
0.0000

> <Gold.Chemscore.Lipo>
82.5080

> <Gold.Chemscore.Internal_Hbond>
0.0000

> <Gold.Chemscore.DEClash>
0.0704

> <Gold.Chemscore.DEInternal>
2.3346

> <Gold.Chemscore.Rot>
1.7485

> <Gold.Chemscore.Internal.Correction>
   9.000000E+99

> <Gold.Chemscore.Hbonds>
donor molecule, donor type, donor heavy atom, donor atom, acceptor molecule, acceptor atom, score
      L1  H    11    30       P1  7948  0.94
      L1  H    18    41       P1 10175  0.95
      L1  H    20    43       P1  8028  0.96

> <Gold.Chemscore.Hbond.Weighted>
-9.7560

> <Gold.Chemscore.Metal.Weighted>
-0.0000

> <Gold.Chemscore.Lipo.Weighted>
-9.6534

> <Gold.Chemscore.Internal_Hbond.Weighted>
0.0000

> <Gold.Chemscore.DEClash.Weighted>
0.0704

> <Gold.Chemscore.DEInternal.Weighted>
2.3346

> <Gold.Chemscore.Rot.Weighted>
4.4762

> <Gold.Chemscore.Internal.Correction.Weighted>
   9.000000E+99

> <Gold.Protein.RotatedTorsions>
[ 6907 6896 6895 6894 ] final   46.71 input  -60.11 | X-H torsion
[ 7974 7965 7964 7962 ] final -145.28 input  175.53 | X-H torsion
[ 8008 7997 7996 7995 ] final  118.16 input   59.86 | X-H torsion
[ 10167 10162 10161 10158 ] final  152.06 input  -65.29 | X-H torsion
[ 10718 10713 10712 10709 ] final   86.97 input   66.30 | X-H torsion
[ 10763 10752 10751 10750 ] final -172.47 input  -60.55 | X-H torsion
[ 11005 11000 10999 10996 ] final  120.00 input  -57.11 | X-H torsion

> <Gold.Protein.ActiveResidues>
 VAL166  LYS551  ARG553  GLY616  TRP617  ASP618  TYR619  PRO620  LYS621  CYS622 
 ASP623  PHE694  ASN695  SER759  ASP760  ASP761  ALA762  ILE779  LEU786  VAL792 
 PHE793  MET794  SER795  GLU796  ALA797  LYS798  CYS799  TRP800  GLU811  SER814 

> <Gold.Protein.RotatedAtoms>
  152.2596  134.8047  160.0432 H   0  0  0  0  0  0  0  0  0  0  0  0  # atno 6907 bound_to 6896
  151.8698  133.3468  159.3739 H   0  0  0  0  0  0  0  0  0  0  0  0  # atno 6908 bound_to 6896
  150.7112  134.5051  159.5624 H   0  0  0  0  0  0  0  0  0  0  0  0  # atno 6909 bound_to 6896
  144.8238  140.5603  143.5560 H   0  0  0  0  0  0  0  0  0  0  0  0  # atno 7974 bound_to 7965
  156.2532  140.2880  156.0792 H   0  0  0  0  0  0  0  0  0  0  0  0  # atno 8008 bound_to 7997
  155.1586  140.0399  157.2855 H   0  0  0  0  0  0  0  0  0  0  0  0  # atno 8009 bound_to 7997
  154.6409  140.2522  155.7330 H   0  0  0  0  0  0  0  0  0  0  0  0  # atno 8010 bound_to 7997
  139.4835  144.5389  151.7597 H   0  0  0  0  0  0  0  0  0  0  0  0  # atno 10167 bound_to 10162
  157.6935  131.0237  150.3053 H   0  0  0  0  0  0  0  0  0  0  0  0  # atno 10718 bound_to 10713
  154.6189  135.2873  155.0348 H   0  0  0  0  0  0  0  0  0  0  0  0  # atno 10763 bound_to 10752
  154.1550  135.6497  153.4976 H   0  0  0  0  0  0  0  0  0  0  0  0  # atno 10764 bound_to 10752
  153.0227  135.5364  154.6971 H   0  0  0  0  0  0  0  0  0  0  0  0  # atno 10765 bound_to 10752
  139.9168  134.9632  156.7741 H   0  0  0  0  0  0  0  0  0  0  0  0  # atno 11005 bound_to 11000
  145.5045  139.1482  143.3639 LP  0  0  0  0  0  0  0  0  0  0  0  0  # atno 17320 bound_to 7965
  146.2544  140.5185  142.8880 LP  0  0  0  0  0  0  0  0  0  0  0  0  # atno 17321 bound_to 7965
  140.4926  144.1288  150.5953 LP  0  0  0  0  0  0  0  0  0  0  0  0  # atno 17342 bound_to 10162
  140.4154  143.2637  151.9782 LP  0  0  0  0  0  0  0  0  0  0  0  0  # atno 17343 bound_to 10162
  156.3563  130.3839  149.7288 LP  0  0  0  0  0  0  0  0  0  0  0  0  # atno 17370 bound_to 10713
  156.4749  130.8014  151.3030 LP  0  0  0  0  0  0  0  0  0  0  0  0  # atno 17371 bound_to 10713
  140.6597  133.9656  155.7798 LP  0  0  0  0  0  0  0  0  0  0  0  0  # atno 17394 bound_to 11000
  141.0652  134.0287  157.3604 LP  0  0  0  0  0  0  0  0  0  0  0  0  # atno 17395 bound_to 11000

$$$$
