AV-unprocessed.smi:1576|AV-procd|sdf|6343|dock6
  -GOLD-   22720 6563D 1   1.00000     0.00000
 Structure written by MMmdl.
 45 47  0  0  0  0  0  0  0  0  1 V2000
  150.0529  135.2588  156.0727 O   0  0  0  0  0  0  0  0  0  0  0  0
  149.7757  135.6472  154.9384 C   0  0  0  0  0  0  0  0  0  0  0  0
  149.9421  136.9000  154.4814 N   0  0  0  0  0  0  0  0  0  0  0  0
  150.3794  138.0510  155.1908 C   0  0  0  0  0  0  0  0  0  0  0  0
  150.7148  137.9023  156.5504 C   0  0  0  0  0  0  0  0  0  0  0  0
  151.1746  139.0192  157.2730 C   0  0  0  0  0  0  0  0  0  0  0  0
  151.2972  140.2643  156.6134 C   0  0  0  0  0  0  0  0  0  0  0  0
  151.7583  141.3968  157.3186 N   0  0  0  0  0  0  0  0  0  0  0  0
  150.8768  142.5659  157.3788 C   0  0  0  0  0  0  0  0  0  0  0  0
  151.6456  143.8195  157.8298 C   0  0  0  0  0  0  0  0  0  0  0  0
  152.3826  143.5678  159.1533 C   0  0  0  0  0  0  0  0  0  0  0  0
  153.2924  142.3371  159.0221 C   0  0  0  0  0  0  0  0  0  0  0  0
  152.4971  141.1080  158.5495 C   0  0  0  0  0  0  0  0  0  0  0  0
  150.9903  140.4040  155.3005 N   0  0  0  0  0  0  0  0  0  0  0  0
  150.5465  139.3314  154.6116 C   0  0  0  0  0  0  0  0  0  0  0  0
  149.2834  134.8454  153.9836 N   0  0  0  0  0  0  0  0  0  0  0  0
  148.9888  133.4230  154.1454 C   0  0  2  0  0  0  0  0  0  0  0  0
  149.4255  132.6290  152.8957 C   0  0  0  0  0  0  0  0  0  0  0  0
  148.3744  132.8076  151.7926 C   0  0  0  0  0  0  0  0  0  0  0  0
  146.7701  133.0179  152.6533 S   0  0  0  0  0  0  0  0  0  0  0  0
  146.1623  134.2868  152.2245 O   0  0  0  0  0  0  0  0  0  0  0  0
  146.0120  131.7587  152.5993 O   0  0  0  0  0  0  0  0  0  0  0  0
  147.4778  133.2176  154.3334 C   0  0  0  0  0  0  0  0  0  0  0  0
  149.7599  137.0416  153.4986 H   0  0  0  0  0  0  0  0  0  0  0  0
  150.6231  136.9428  157.0383 H   0  0  0  0  0  0  0  0  0  0  0  0
  151.4423  138.9068  158.3131 H   0  0  0  0  0  0  0  0  0  0  0  0
  150.4338  142.7539  156.3998 H   0  0  0  0  0  0  0  0  0  0  0  0
  150.0582  142.3616  158.0702 H   0  0  0  0  0  0  0  0  0  0  0  0
  152.3647  144.1026  157.0598 H   0  0  0  0  0  0  0  0  0  0  0  0
  150.9586  144.6596  157.9357 H   0  0  0  0  0  0  0  0  0  0  0  0
  152.9696  144.4439  159.4311 H   0  0  0  0  0  0  0  0  0  0  0  0
  151.6588  143.4079  159.9533 H   0  0  0  0  0  0  0  0  0  0  0  0
  154.0925  142.5482  158.3112 H   0  0  0  0  0  0  0  0  0  0  0  0
  153.7740  142.1243  159.9767 H   0  0  0  0  0  0  0  0  0  0  0  0
  151.7843  140.8098  159.3194 H   0  0  0  0  0  0  0  0  0  0  0  0
  153.1831  140.2719  158.4206 H   0  0  0  0  0  0  0  0  0  0  0  0
  150.3481  139.5192  153.5682 H   0  0  0  0  0  0  0  0  0  0  0  0
  149.0953  135.2475  153.0767 H   0  0  0  0  0  0  0  0  0  0  0  0
  149.5145  133.0557  155.0289 H   0  0  0  0  0  0  0  0  0  0  0  0
  150.4229  132.9045  152.5512 H   0  0  0  0  0  0  0  0  0  0  0  0
  149.4713  131.5719  153.1602 H   0  0  0  0  0  0  0  0  0  0  0  0
  148.5689  133.7128  151.2172 H   0  0  0  0  0  0  0  0  0  0  0  0
  148.3279  131.9617  151.1067 H   0  0  0  0  0  0  0  0  0  0  0  0
  147.2870  132.2952  154.8825 H   0  0  0  0  0  0  0  0  0  0  0  0
  146.9836  134.0345  154.8601 H   0  0  0  0  0  0  0  0  0  0  0  0
  1  2  2  0  0  0  0
  2  3  1  0  0  0  0
  2 16  1  0  0  0  0
  3  4  1  0  0  0  0
  3 24  1  0  0  0  0
  4 15  1  0  0  0  0
  4  5  2  0  0  0  0
  5  6  1  0  0  0  0
  5 25  1  0  0  0  0
  6  7  2  0  0  0  0
  6 26  1  0  0  0  0
  7  8  1  0  0  0  0
  7 14  1  0  0  0  0
  8 13  1  0  0  0  0
  8  9  1  0  0  0  0
  9 10  1  0  0  0  0
  9 27  1  0  0  0  0
  9 28  1  0  0  0  0
 10 11  1  0  0  0  0
 10 29  1  0  0  0  0
 10 30  1  0  0  0  0
 11 12  1  0  0  0  0
 11 31  1  0  0  0  0
 11 32  1  0  0  0  0
 12 13  1  0  0  0  0
 12 33  1  0  0  0  0
 12 34  1  0  0  0  0
 13 35  1  0  0  0  0
 13 36  1  0  0  0  0
 14 15  2  0  0  0  0
 15 37  1  0  0  0  0
 16 17  1  0  0  0  0
 16 38  1  0  0  0  0
 17 23  1  0  0  0  0
 17 18  1  0  0  0  0
 17 39  1  0  0  0  0
 18 19  1  0  0  0  0
 18 40  1  0  0  0  0
 18 41  1  0  0  0  0
 19 20  1  0  0  0  0
 19 42  1  0  0  0  0
 19 43  1  0  0  0  0
 20 21  2  0  0  0  0
 20 22  2  0  0  0  0
 20 23  1  0  0  0  0
 23 44  1  0  0  0  0
 23 45  1  0  0  0  0
M  END
> <s_m_source_file>
AV-unprocessed.smi

> <i_m_source_file_index>
1576

> <i_lp_mmshare_version>
43012

> <i_f3d_flags>
0

> <s_epik_input>
Tz1TMSg9TylbQ0gyXVtDSDJdW0NASF0oW0NIMl0xKVtOSF1DKD1PKVtOSF1jMltjSF1bY0hdYyhuW2NIXTIpTjNbQ0gyXVtDSDJdW0NIMl1bQ0gyXVtDSDJdMw==

> <s_epik_cmdline>
J2VwaWtfcHl0aG9uJywgJy1waCcsICc3LjAnLCAnLXRuJywgJzgnLCAnLW1hJywgJzIwMCcsICctbWV0YWxfYmluZGluZycsICctaW1hZScsICc8aW5maWxlLm1hZT4nLCAnLW9tYWUnLCAnPG91dGZpbGUubWFlPic=

> <r_lp_tautomer_probability>
1

> <r_epik_Ionization_Penalty>
0.0900267

> <r_epik_Ionization_Penalty_Charging>
0

> <r_epik_Ionization_Penalty_Neutral>
0.0900267

> <r_epik_State_Penalty>
0.0748882

> <r_epik_Charging_Adjusted_Penalty>
0.0748882

> <i_epik_Tot_Q>
0

> <i_epik_Tot_abs_Q>
0

> <r_epik_Metal_State_Penalty>
0.0662821

> <b_epik_Metal_Only>
0

> <s_lp_Force_Field>
OPLS_2005

> <r_lp_Energy>
21.2293

> <b_lp_Chiralities_Consistent>
1

> <s_lp_Variant>
AV-unprocessed.smi:1576-1

> <Gold.Version>
5.8.1

> <Gold.Id.Protein>
6NUR|6NUR_protein|mol2

> <Gold.PLP.Fitness>
42.4665

> <Gold.PLP.PLP>
-34.4905

> <Gold.PLP.part.hbond>
-2.9786

> <Gold.PLP.part.metal>
0.0000

> <Gold.PLP.part.buried>
-1.5344

> <Gold.PLP.part.nonpolar>
-29.5847

> <Gold.PLP.part.repulsive>
0.3729

> <Gold.PLP.ligand.clash>
0.0000

> <Gold.PLP.ligand.torsion>
0.5408

> <Gold.PLP.Chemscore.Hbond>
2.0780

> <Gold.PLP.Chemscore.CHOScore>
0.8019

> <Gold.PLP.Chemscore.Metal>
0.0000

> <Gold.Chemscore.Hbonds>
donor molecule, donor type, donor heavy atom, donor atom, acceptor molecule, acceptor atom, score
      L1  H     3    24       P1  7948  0.91
      L1  H    16    38       P1  7948  0.89
      P1  H  7989  7998       L1    14  0.05
      L1  C    15    37       P1  7957  0.92

> <Gold.PLP.Chemscore.Internal.Correction>
0.4180

> <Gold.Rescore>
     Score         DG    S(hbond)    S(metal)    S(lipo)     H(rot)  DE(clash)    DE(int)     intcor
     16.64     -18.88       1.87        0.00      88.38       1.24       0.07       2.17       ----

> <Gold.Chemscore.Fitness>
16.6430

> <Gold.Chemscore.DG>
-18.8845

> <Gold.Chemscore.ZeroCoef>
-5.4800

> <Gold.Chemscore.Hbond>
1.8650

> <Gold.Chemscore.Metal>
0.0000

> <Gold.Chemscore.Lipo>
88.3846

> <Gold.Chemscore.Internal_Hbond>
0.0000

> <Gold.Chemscore.DEClash>
0.0705

> <Gold.Chemscore.DEInternal>
2.1709

> <Gold.Chemscore.Rot>
1.2366

> <Gold.Chemscore.Internal.Correction>
   9.000000E+99

> <Gold.Chemscore.Hbonds>
donor molecule, donor type, donor heavy atom, donor atom, acceptor molecule, acceptor atom, score
      L1  H     3    24       P1  7948  0.52
      L1  H    16    38       P1  7948  0.17

> <Gold.Chemscore.Hbond.Weighted>
-6.2292

> <Gold.Chemscore.Metal.Weighted>
-0.0000

> <Gold.Chemscore.Lipo.Weighted>
-10.3410

> <Gold.Chemscore.Internal_Hbond.Weighted>
0.0000

> <Gold.Chemscore.DEClash.Weighted>
0.0705

> <Gold.Chemscore.DEInternal.Weighted>
2.1709

> <Gold.Chemscore.Rot.Weighted>
3.1657

> <Gold.Chemscore.Internal.Correction.Weighted>
   9.000000E+99

> <Gold.Protein.RotatedTorsions>
[ 6907 6896 6895 6894 ] final  -77.82 input  -60.11 | X-H torsion
[ 7974 7965 7964 7962 ] final -179.13 input  175.53 | X-H torsion
[ 8008 7997 7996 7995 ] final   -0.09 input   59.86 | X-H torsion
[ 10167 10162 10161 10158 ] final   68.10 input  -65.29 | X-H torsion
[ 10718 10713 10712 10709 ] final -149.32 input   66.30 | X-H torsion
[ 10763 10752 10751 10750 ] final   -7.42 input  -60.55 | X-H torsion
[ 11005 11000 10999 10996 ] final   12.99 input  -57.11 | X-H torsion

> <Gold.Protein.ActiveResidues>
 VAL166  LYS551  ARG553  GLY616  TRP617  ASP618  TYR619  PRO620  LYS621  CYS622 
 ASP623  PHE694  ASN695  SER759  ASP760  ASP761  ALA762  ILE779  LEU786  VAL792 
 PHE793  MET794  SER795  GLU796  ALA797  LYS798  CYS799  TRP800  GLU811  SER814 

> <Gold.Protein.RotatedAtoms>
  150.6988  134.4365  159.5272 H   0  0  0  0  0  0  0  0  0  0  0  0  # atno 6907 bound_to 6896
  152.2082  134.8523  160.0509 H   0  0  0  0  0  0  0  0  0  0  0  0  # atno 6908 bound_to 6896
  151.9418  133.3605  159.4004 H   0  0  0  0  0  0  0  0  0  0  0  0  # atno 6909 bound_to 6896
  144.7134  140.0764  143.6427 H   0  0  0  0  0  0  0  0  0  0  0  0  # atno 7974 bound_to 7965
  154.6620  140.2593  155.7098 H   0  0  0  0  0  0  0  0  0  0  0  0  # atno 8008 bound_to 7997
  156.2622  140.2846  156.1018 H   0  0  0  0  0  0  0  0  0  0  0  0  # atno 8009 bound_to 7997
  155.1294  140.0378  157.2761 H   0  0  0  0  0  0  0  0  0  0  0  0  # atno 8010 bound_to 7997
  140.0824  144.5059  150.7153 H   0  0  0  0  0  0  0  0  0  0  0  0  # atno 10167 bound_to 10162
  156.4316  130.8078  151.2305 H   0  0  0  0  0  0  0  0  0  0  0  0  # atno 10718 bound_to 10713
  153.4261  135.7011  153.6262 H   0  0  0  0  0  0  0  0  0  0  0  0  # atno 10763 bound_to 10752
  153.4696  135.3718  155.2384 H   0  0  0  0  0  0  0  0  0  0  0  0  # atno 10764 bound_to 10752
  154.8724  135.4040  154.3637 H   0  0  0  0  0  0  0  0  0  0  0  0  # atno 10765 bound_to 10752
  140.4857  134.0890  155.7760 H   0  0  0  0  0  0  0  0  0  0  0  0  # atno 11005 bound_to 11000
  145.9740  139.2891  143.1082 LP  0  0  0  0  0  0  0  0  0  0  0  0  # atno 17320 bound_to 7965
  145.9085  140.9196  143.0466 LP  0  0  0  0  0  0  0  0  0  0  0  0  # atno 17321 bound_to 7965
  140.7071  143.2476  151.4694 LP  0  0  0  0  0  0  0  0  0  0  0  0  # atno 17342 bound_to 10162
  139.5772  144.1792  152.1919 LP  0  0  0  0  0  0  0  0  0  0  0  0  # atno 17343 bound_to 10162
  157.7508  131.0196  150.3675 LP  0  0  0  0  0  0  0  0  0  0  0  0  # atno 17370 bound_to 10713
  156.4014  130.3916  149.6957 LP  0  0  0  0  0  0  0  0  0  0  0  0  # atno 17371 bound_to 10713
  141.1509  133.8970  157.2100 LP  0  0  0  0  0  0  0  0  0  0  0  0  # atno 17394 bound_to 11000
  139.9799  135.0101  156.9724 LP  0  0  0  0  0  0  0  0  0  0  0  0  # atno 17395 bound_to 11000

$$$$
