AV-unprocessed.smi:2954|AV-procd|sdf|11299|dock10
  -GOLD-   2272016193D 1   1.00000     0.00000
 Structure written by MMmdl.
 43 45  0  0  0  0  0  0  0  0  2 V2000
  146.7601  135.2869  156.0755 C   0  0  0  0  0  0  0  0  0  0  0  0
  146.8700  136.4463  155.0759 C   0  0  2  0  0  0  0  0  0  0  0  0
  146.8644  135.9253  153.7143 N   0  0  0  0  0  0  0  0  0  0  0  0
  145.8993  135.1438  153.2141 C   0  0  0  0  0  0  0  0  0  0  0  0
  144.9210  134.7862  153.8645 O   0  0  0  0  0  0  0  0  0  0  0  0
  148.0928  137.2697  155.3588 C   0  0  0  0  0  0  0  0  0  0  0  0
  149.1188  137.4968  154.4890 N   0  3  0  0  0  0  0  0  0  0  0  0
  150.0996  138.2747  155.1033 C   0  0  0  0  0  0  0  0  0  0  0  0
  151.3172  138.7485  154.6249 C   0  0  0  0  0  0  0  0  0  0  0  0
  152.0965  139.5090  155.5209 C   0  0  0  0  0  0  0  0  0  0  0  0
  151.6561  139.7738  156.8337 C   0  0  0  0  0  0  0  0  0  0  0  0
  150.4174  139.2919  157.3052 C   0  0  0  0  0  0  0  0  0  0  0  0
  149.6518  138.5399  156.4133 C   0  0  0  0  0  0  0  0  0  0  0  0
  148.4082  137.9042  156.5260 N   0  0  0  0  0  0  0  0  0  0  0  0
  147.6778  137.9705  157.8025 C   0  0  0  0  0  0  0  0  0  0  0  0
  148.4400  137.2664  158.9340 C   0  0  0  0  0  0  0  0  0  0  0  0
  147.5988  137.1894  160.0768 O   0  0  0  0  0  0  0  0  0  0  0  0
  147.2843  135.9478  160.5845 C   0  0  0  0  0  0  0  0  0  0  0  0
  147.4763  134.7340  159.8772 C   0  0  0  0  0  0  0  0  0  0  0  0
  147.1285  133.5029  160.4657 C   0  0  0  0  0  0  0  0  0  0  0  0
  146.5848  133.4682  161.7628 C   0  0  0  0  0  0  0  0  0  0  0  0
  146.3887  134.6673  162.4718 C   0  0  0  0  0  0  0  0  0  0  0  0
  146.7363  135.9002  161.8858 C   0  0  0  0  0  0  0  0  0  0  0  0
  146.4943  137.3588  162.7798 Cl  0  0  0  0  0  0  0  0  0  0  0  0
  146.7173  135.6562  157.1007 H   0  0  0  0  0  0  0  0  0  0  0  0
  147.6140  134.6124  156.0015 H   0  0  0  0  0  0  0  0  0  0  0  0
  145.8571  134.7013  155.9000 H   0  0  0  0  0  0  0  0  0  0  0  0
  145.9855  137.0727  155.1970 H   0  0  0  0  0  0  0  0  0  0  0  0
  147.6435  136.1668  153.1189 H   0  0  0  0  0  0  0  0  0  0  0  0
  146.0966  134.8665  152.1666 H   0  0  0  0  0  0  0  0  0  0  0  0
  151.6588  138.5431  153.6211 H   0  0  0  0  0  0  0  0  0  0  0  0
  153.0524  139.8940  155.1959 H   0  0  0  0  0  0  0  0  0  0  0  0
  152.2823  140.3553  157.4949 H   0  0  0  0  0  0  0  0  0  0  0  0
  150.0981  139.4944  158.3166 H   0  0  0  0  0  0  0  0  0  0  0  0
  147.4851  139.0129  158.0546 H   0  0  0  0  0  0  0  0  0  0  0  0
  146.6991  137.5124  157.6598 H   0  0  0  0  0  0  0  0  0  0  0  0
  148.7401  136.2675  158.6143 H   0  0  0  0  0  0  0  0  0  0  0  0
  149.3432  137.8326  159.1662 H   0  0  0  0  0  0  0  0  0  0  0  0
  147.8860  134.7213  158.8788 H   0  0  0  0  0  0  0  0  0  0  0  0
  147.2783  132.5829  159.9200 H   0  0  0  0  0  0  0  0  0  0  0  0
  146.3181  132.5234  162.2130 H   0  0  0  0  0  0  0  0  0  0  0  0
  145.9722  134.6402  163.4681 H   0  0  0  0  0  0  0  0  0  0  0  0
  149.1450  137.1369  153.5437 H   0  0  0  0  0  0  0  0  0  0  0  0
  1  2  1  0  0  0  0
  1 25  1  0  0  0  0
  1 26  1  0  0  0  0
  1 27  1  0  0  0  0
  2  3  1  0  0  0  0
  2  6  1  0  0  0  0
  2 28  1  0  0  0  0
  3  4  1  0  0  0  0
  3 29  1  0  0  0  0
  4  5  2  0  0  0  0
  4 30  1  0  0  0  0
  6 14  1  0  0  0  0
  6  7  2  0  0  0  0
  7  8  1  0  0  0  0
  7 43  1  0  0  0  0
  8 13  2  0  0  0  0
  8  9  1  0  0  0  0
  9 10  2  0  0  0  0
  9 31  1  0  0  0  0
 10 11  1  0  0  0  0
 10 32  1  0  0  0  0
 11 12  2  0  0  0  0
 11 33  1  0  0  0  0
 12 13  1  0  0  0  0
 12 34  1  0  0  0  0
 13 14  1  0  0  0  0
 14 15  1  0  0  0  0
 15 16  1  0  0  0  0
 15 35  1  0  0  0  0
 15 36  1  0  0  0  0
 16 17  1  0  0  0  0
 16 37  1  0  0  0  0
 16 38  1  0  0  0  0
 17 18  1  0  0  0  0
 18 23  1  0  0  0  0
 18 19  2  0  0  0  0
 19 20  1  0  0  0  0
 19 39  1  0  0  0  0
 20 21  2  0  0  0  0
 20 40  1  0  0  0  0
 21 22  1  0  0  0  0
 21 41  1  0  0  0  0
 22 23  2  0  0  0  0
 22 42  1  0  0  0  0
 23 24  1  0  0  0  0
M  CHG  1   7   1
M  END
> <s_m_source_file>
AV-unprocessed.smi

> <i_m_source_file_index>
2954

> <i_lp_mmshare_version>
43012

> <i_f3d_flags>
0

> <s_epik_input>
Tz1bQ0hdW05IXVtDQEBIXShbQ0gzXSljKG4xKW4oYyhjMTIpW2NIXVtjSF1bY0hdW2NIXTIpW0NIMl1bQ0gyXU9jM1tjSF1bY0hdW2NIXVtjSF1jM0Ns

> <s_epik_cmdline>
J2VwaWtfcHl0aG9uJywgJy1waCcsICc3LjAnLCAnLXRuJywgJzgnLCAnLW1hJywgJzIwMCcsICctbWV0YWxfYmluZGluZycsICctaW1hZScsICc8aW5maWxlLm1hZT4nLCAnLW9tYWUnLCAnPG91dGZpbGUubWFlPic=

> <r_lp_tautomer_probability>
1

> <r_epik_Ionization_Penalty>
1.18508

> <r_epik_Ionization_Penalty_Charging>
1.18508

> <r_epik_Ionization_Penalty_Neutral>
5.5802e-08

> <r_epik_State_Penalty>
1.24934

> <r_epik_Charging_Adjusted_Penalty>
2.43443

> <i_epik_Tot_Q>
1

> <i_epik_Tot_abs_Q>
1

> <r_epik_Metal_State_Penalty>
1.32564

> <b_epik_Metal_Only>
0

> <s_lp_Force_Field>
OPLS_2005

> <r_lp_Energy>
16.9753

> <b_lp_Chiralities_Consistent>
1

> <s_lp_Variant>
AV-unprocessed.smi:2954-3

> <Gold.Version>
5.8.1

> <Gold.Id.Protein>
6NUR|6NUR_protein|mol2

> <Gold.PLP.Fitness>
48.3875

> <Gold.PLP.PLP>
-36.8011

> <Gold.PLP.part.hbond>
-3.9893

> <Gold.PLP.part.metal>
0.0000

> <Gold.PLP.part.buried>
-1.2614

> <Gold.PLP.part.nonpolar>
-31.7202

> <Gold.PLP.part.repulsive>
0.0670

> <Gold.PLP.ligand.clash>
0.0000

> <Gold.PLP.ligand.torsion>
0.6285

> <Gold.PLP.Chemscore.Hbond>
4.2583

> <Gold.PLP.Chemscore.CHOScore>
0.0000

> <Gold.PLP.Chemscore.Metal>
0.0000

> <Gold.Chemscore.Hbonds>
donor molecule, donor type, donor heavy atom, donor atom, acceptor molecule, acceptor atom, score
      L1  H     3    29       P1  7948  1.00
      L1  H     7    43       P1  7948  2.00
      P1  H  6934  6947       L1    17  0.84

> <Gold.PLP.Chemscore.Internal.Correction>
0.0685

> <Gold.Rescore>
     Score         DG    S(hbond)    S(metal)    S(lipo)     H(rot)  DE(clash)    DE(int)     intcor
     18.44     -19.26       2.68        0.00      92.47       2.35       0.21       0.61       ----

> <Gold.Chemscore.Fitness>
18.4396

> <Gold.Chemscore.DG>
-19.2581

> <Gold.Chemscore.ZeroCoef>
-5.4800

> <Gold.Chemscore.Hbond>
2.6847

> <Gold.Chemscore.Metal>
0.0000

> <Gold.Chemscore.Lipo>
92.4687

> <Gold.Chemscore.Internal_Hbond>
0.0000

> <Gold.Chemscore.DEClash>
0.2106

> <Gold.Chemscore.DEInternal>
0.6079

> <Gold.Chemscore.Rot>
2.3467

> <Gold.Chemscore.Internal.Correction>
   9.000000E+99

> <Gold.Chemscore.Hbonds>
donor molecule, donor type, donor heavy atom, donor atom, acceptor molecule, acceptor atom, score
      L1  H     3    29       P1  7948  1.00
      L1  H     7    43       P1  7948  1.00
      P1  H  6934  6947       L1    17  0.68

> <Gold.Chemscore.Hbond.Weighted>
-8.9669

> <Gold.Chemscore.Metal.Weighted>
-0.0000

> <Gold.Chemscore.Lipo.Weighted>
-10.8188

> <Gold.Chemscore.Internal_Hbond.Weighted>
0.0000

> <Gold.Chemscore.DEClash.Weighted>
0.2106

> <Gold.Chemscore.DEInternal.Weighted>
0.6079

> <Gold.Chemscore.Rot.Weighted>
6.0077

> <Gold.Chemscore.Internal.Correction.Weighted>
   9.000000E+99

> <Gold.Protein.RotatedTorsions>
[ 6907 6896 6895 6894 ] final -149.97 input  -60.11 | X-H torsion
[ 7974 7965 7964 7962 ] final   85.62 input  175.53 | X-H torsion
[ 8008 7997 7996 7995 ] final  -64.40 input   59.86 | X-H torsion
[ 10167 10162 10161 10158 ] final  111.75 input  -65.29 | X-H torsion
[ 10718 10713 10712 10709 ] final  133.61 input   66.30 | X-H torsion
[ 10763 10752 10751 10750 ] final  175.10 input  -60.55 | X-H torsion
[ 11005 11000 10999 10996 ] final -136.12 input  -57.11 | X-H torsion

> <Gold.Protein.ActiveResidues>
 VAL166  LYS551  ARG553  GLY616  TRP617  ASP618  TYR619  PRO620  LYS621  CYS622 
 ASP623  PHE694  ASN695  SER759  ASP760  ASP761  ALA762  ILE779  LEU786  VAL792 
 PHE793  MET794  SER795  GLU796  ALA797  LYS798  CYS799  TRP800  GLU811  SER814 

> <Gold.Protein.RotatedAtoms>
  151.1917  133.4663  159.2594 H   0  0  0  0  0  0  0  0  0  0  0  0  # atno 6907 bound_to 6896
  151.1156  135.0051  159.8525 H   0  0  0  0  0  0  0  0  0  0  0  0  # atno 6908 bound_to 6896
  152.5453  134.1833  159.8697 H   0  0  0  0  0  0  0  0  0  0  0  0  # atno 6909 bound_to 6896
  145.5831  139.2328  143.2341 H   0  0  0  0  0  0  0  0  0  0  0  0  # atno 7974 bound_to 7965
  154.4610  140.0954  156.6891 H   0  0  0  0  0  0  0  0  0  0  0  0  # atno 8008 bound_to 7997
  155.4996  140.3473  155.4350 H   0  0  0  0  0  0  0  0  0  0  0  0  # atno 8009 bound_to 7997
  156.0869  140.1387  156.9630 H   0  0  0  0  0  0  0  0  0  0  0  0  # atno 8010 bound_to 7997
  139.6587  144.7129  151.1906 H   0  0  0  0  0  0  0  0  0  0  0  0  # atno 10167 bound_to 10162
  157.4755  131.1083  150.9748 H   0  0  0  0  0  0  0  0  0  0  0  0  # atno 10718 bound_to 10713
  154.4630  135.2768  155.1699 H   0  0  0  0  0  0  0  0  0  0  0  0  # atno 10763 bound_to 10752
  154.3479  135.6156  153.5632 H   0  0  0  0  0  0  0  0  0  0  0  0  # atno 10764 bound_to 10752
  152.9856  135.5804  154.4996 H   0  0  0  0  0  0  0  0  0  0  0  0  # atno 10765 bound_to 10752
  140.8835  134.1902  157.4575 H   0  0  0  0  0  0  0  0  0  0  0  0  # atno 11005 bound_to 11000
  146.1702  140.6658  142.9237 LP  0  0  0  0  0  0  0  0  0  0  0  0  # atno 17320 bound_to 7965
  144.7385  140.4876  143.6886 LP  0  0  0  0  0  0  0  0  0  0  0  0  # atno 17321 bound_to 7965
  140.7571  143.6029  150.8682 LP  0  0  0  0  0  0  0  0  0  0  0  0  # atno 17342 bound_to 10162
  139.9684  143.6084  152.2981 LP  0  0  0  0  0  0  0  0  0  0  0  0  # atno 17343 bound_to 10162
  157.0499  130.5783  149.5368 LP  0  0  0  0  0  0  0  0  0  0  0  0  # atno 17370 bound_to 10713
  156.0095  130.5185  150.7941 LP  0  0  0  0  0  0  0  0  0  0  0  0  # atno 17371 bound_to 10713
  139.8722  134.9827  156.5169 LP  0  0  0  0  0  0  0  0  0  0  0  0  # atno 17394 bound_to 11000
  140.8433  133.8188  155.9096 LP  0  0  0  0  0  0  0  0  0  0  0  0  # atno 17395 bound_to 11000

$$$$
