AV-unprocessed.smi:2784|AV-procd|sdf|10730|dock1
  -GOLD-   2272015163D 1   1.00000     0.00000
 Structure written by MMmdl.
 32 33  0  0  0  0  0  0  0  0  2 V2000
  148.1087  127.3873  151.6425 C   0  0  0  0  0  0  0  0  0  0  0  0
  148.9202  127.4848  152.8022 O   0  0  0  0  0  0  0  0  0  0  0  0
  149.3696  128.8048  153.0750 C   0  0  2  0  0  0  0  0  0  0  0  0
  150.3650  128.7735  154.2383 C   0  0  0  0  0  0  0  0  0  0  0  0
  150.2191  130.1391  154.9005 C   0  0  0  0  0  0  0  0  0  0  0  0
  148.7200  130.4252  154.8220 C   0  0  0  0  0  0  0  0  0  0  0  0
  148.2300  129.7469  153.5285 C   0  0  1  0  0  0  0  0  0  0  0  0
  147.9482  130.7434  152.4974 N   0  0  0  0  0  0  0  0  0  0  0  0
  147.0256  131.7121  152.5895 C   0  0  0  0  0  0  0  0  0  0  0  0
  146.3074  131.8828  153.5748 O   0  0  0  0  0  0  0  0  0  0  0  0
  146.9875  132.4639  151.4791 N   0  0  0  0  0  0  0  0  0  0  0  0
  146.1028  133.5409  151.2415 C   0  0  0  0  0  0  0  0  0  0  0  0
  146.4806  134.8170  151.1839 N   0  3  0  0  0  0  0  0  0  0  0  0
  145.3761  135.5925  150.9316 C   0  0  0  0  0  0  0  0  0  0  0  0
  144.3191  134.7189  150.8412 C   0  0  0  0  0  0  0  0  0  0  0  0
  144.7602  133.4251  151.0340 O   0  0  0  0  0  0  0  0  0  0  0  0
  147.8195  126.3481  151.4868 H   0  0  0  0  0  0  0  0  0  0  0  0
  148.6475  127.7221  150.7554 H   0  0  0  0  0  0  0  0  0  0  0  0
  147.1955  127.9753  151.7387 H   0  0  0  0  0  0  0  0  0  0  0  0
  149.8878  129.2126  152.2041 H   0  0  0  0  0  0  0  0  0  0  0  0
  150.0822  127.9973  154.9509 H   0  0  0  0  0  0  0  0  0  0  0  0
  151.3852  128.5684  153.9121 H   0  0  0  0  0  0  0  0  0  0  0  0
  150.5970  130.1539  155.9232 H   0  0  0  0  0  0  0  0  0  0  0  0
  150.7694  130.8873  154.3286 H   0  0  0  0  0  0  0  0  0  0  0  0
  148.2232  129.9654  155.6775 H   0  0  0  0  0  0  0  0  0  0  0  0
  148.5031  131.4936  154.8640 H   0  0  0  0  0  0  0  0  0  0  0  0
  147.3346  129.1643  153.7539 H   0  0  0  0  0  0  0  0  0  0  0  0
  148.4960  130.6817  151.6517 H   0  0  0  0  0  0  0  0  0  0  0  0
  147.4131  135.1935  151.2995 H   0  0  0  0  0  0  0  0  0  0  0  0
  145.4501  136.6670  150.8426 H   0  0  0  0  0  0  0  0  0  0  0  0
  143.2619  134.8435  150.6569 H   0  0  0  0  0  0  0  0  0  0  0  0
  147.6338  132.2384  150.7375 H   0  0  0  0  0  0  0  0  0  0  0  0
  1  2  1  0  0  0  0
  1 17  1  0  0  0  0
  1 18  1  0  0  0  0
  1 19  1  0  0  0  0
  2  3  1  0  0  0  0
  3  7  1  0  0  0  0
  3  4  1  0  0  0  0
  3 20  1  0  0  0  0
  4  5  1  0  0  0  0
  4 21  1  0  0  0  0
  4 22  1  0  0  0  0
  5  6  1  0  0  0  0
  5 23  1  0  0  0  0
  5 24  1  0  0  0  0
  6  7  1  0  0  0  0
  6 25  1  0  0  0  0
  6 26  1  0  0  0  0
  7  8  1  0  0  0  0
  7 27  1  0  0  0  0
  8 28  1  0  0  0  0
  8  9  1  0  0  0  0
  9 11  1  0  0  0  0
  9 10  2  0  0  0  0
 11 12  1  0  0  0  0
 11 32  1  0  0  0  0
 12 16  1  0  0  0  0
 12 13  2  0  0  0  0
 13 29  1  0  0  0  0
 13 14  1  0  0  0  0
 14 30  1  0  0  0  0
 14 15  2  0  0  0  0
 15 31  1  0  0  0  0
 15 16  1  0  0  0  0
M  CHG  1  13   1
M  END
> <s_m_source_file>
AV-unprocessed.smi

> <i_m_source_file_index>
2784

> <i_lp_mmshare_version>
43012

> <i_f3d_flags>
0

> <s_epik_input>
W0NIM11PW0NAQEhdMVtDSDJdW0NIMl1bQ0gyXVtDQEhdMVtOSF1DKD1PKVtOSF1jMm5bY0hdW2NIXW8y

> <s_epik_cmdline>
J2VwaWtfcHl0aG9uJywgJy1waCcsICc3LjAnLCAnLXRuJywgJzgnLCAnLW1hJywgJzIwMCcsICctbWV0YWxfYmluZGluZycsICctaW1hZScsICc8aW5maWxlLm1hZT4nLCAnLW9tYWUnLCAnPG91dGZpbGUubWFlPic=

> <r_epik_Ionization_Penalty>
6.73843

> <r_epik_Ionization_Penalty_Charging>
6.66704

> <r_epik_Ionization_Penalty_Neutral>
0.0713889

> <r_epik_State_Penalty>
1.94951

> <r_epik_Charging_Adjusted_Penalty>
8.61656

> <i_epik_Tot_Q>
1

> <i_epik_Tot_abs_Q>
1

> <r_epik_Metal_State_Penalty>
1.97013

> <b_epik_Metal_Only>
0

> <s_lp_Force_Field>
OPLS_2005

> <r_lp_Energy>
26.9129

> <b_lp_Chiralities_Consistent>
1

> <s_lp_Variant>
AV-unprocessed.smi:2784-5

> <Gold.Version>
5.8.1

> <Gold.Id.Protein>
6NUR|6NUR_protein|mol2

> <Gold.PLP.Fitness>
37.9434

> <Gold.PLP.PLP>
-24.7367

> <Gold.PLP.part.hbond>
-3.0000

> <Gold.PLP.part.metal>
0.0000

> <Gold.PLP.part.buried>
-4.0185

> <Gold.PLP.part.nonpolar>
-18.7461

> <Gold.PLP.part.repulsive>
0.5366

> <Gold.PLP.ligand.clash>
0.0000

> <Gold.PLP.ligand.torsion>
0.6942

> <Gold.PLP.Chemscore.Hbond>
3.8640

> <Gold.PLP.Chemscore.CHOScore>
0.9991

> <Gold.PLP.Chemscore.Metal>
0.0000

> <Gold.Chemscore.Hbonds>
donor molecule, donor type, donor heavy atom, donor atom, acceptor molecule, acceptor atom, score
      L1  H     8    28       P1 10747  0.80
      L1  H    11    32       P1 10747  0.80
      L1  H    13    29       P1  7948  2.00
      L1  C    15    31       P1 10186  0.99

> <Gold.PLP.Chemscore.Internal.Correction>
0.0059

> <Gold.Rescore>
     Score         DG    S(hbond)    S(metal)    S(lipo)     H(rot)  DE(clash)    DE(int)     intcor
     14.86     -15.57       2.59        0.00      41.38       1.34       0.04       0.66       ----

> <Gold.Chemscore.Fitness>
14.8638

> <Gold.Chemscore.DG>
-15.5654

> <Gold.Chemscore.ZeroCoef>
-5.4800

> <Gold.Chemscore.Hbond>
2.5932

> <Gold.Chemscore.Metal>
0.0000

> <Gold.Chemscore.Lipo>
41.3823

> <Gold.Chemscore.Internal_Hbond>
0.0000

> <Gold.Chemscore.DEClash>
0.0402

> <Gold.Chemscore.DEInternal>
0.6613

> <Gold.Chemscore.Rot>
1.3351

> <Gold.Chemscore.Internal.Correction>
   9.000000E+99

> <Gold.Chemscore.Hbonds>
donor molecule, donor type, donor heavy atom, donor atom, acceptor molecule, acceptor atom, score
      L1  H     8    28       P1 10747  0.75
      L1  H    11    32       P1 10747  0.78
      L1  H    13    29       P1  7948  0.65

> <Gold.Chemscore.Hbond.Weighted>
-8.6614

> <Gold.Chemscore.Metal.Weighted>
-0.0000

> <Gold.Chemscore.Lipo.Weighted>
-4.8417

> <Gold.Chemscore.Internal_Hbond.Weighted>
0.0000

> <Gold.Chemscore.DEClash.Weighted>
0.0402

> <Gold.Chemscore.DEInternal.Weighted>
0.6613

> <Gold.Chemscore.Rot.Weighted>
3.4177

> <Gold.Chemscore.Internal.Correction.Weighted>
   9.000000E+99

> <Gold.Protein.RotatedTorsions>
[ 6907 6896 6895 6894 ] final -179.37 input  -60.11 | X-H torsion
[ 7974 7965 7964 7962 ] final  112.07 input  175.53 | X-H torsion
[ 8008 7997 7996 7995 ] final   70.96 input   59.86 | X-H torsion
[ 10167 10162 10161 10158 ] final -122.85 input  -65.29 | X-H torsion
[ 10718 10713 10712 10709 ] final -158.12 input   66.30 | X-H torsion
[ 10763 10752 10751 10750 ] final  112.81 input  -60.55 | X-H torsion
[ 11005 11000 10999 10996 ] final -121.09 input  -57.11 | X-H torsion

> <Gold.Protein.ActiveResidues>
 VAL166  LYS551  ARG553  GLY616  TRP617  ASP618  TYR619  PRO620  LYS621  CYS622 
 ASP623  PHE694  ASN695  SER759  ASP760  ASP761  ALA762  ILE779  LEU786  VAL792 
 PHE793  MET794  SER795  GLU796  ALA797  LYS798  CYS799  TRP800  GLU811  SER814 

> <Gold.Protein.RotatedAtoms>
  151.6524  133.3320  159.3154 H   0  0  0  0  0  0  0  0  0  0  0  0  # atno 6907 bound_to 6896
  150.7954  134.7013  159.6561 H   0  0  0  0  0  0  0  0  0  0  0  0  # atno 6908 bound_to 6896
  152.4040  134.6243  160.0110 H   0  0  0  0  0  0  0  0  0  0  0  0  # atno 6909 bound_to 6896
  145.2343  139.2806  143.4152 H   0  0  0  0  0  0  0  0  0  0  0  0  # atno 7974 bound_to 7965
  155.7467  140.3489  155.5130 H   0  0  0  0  0  0  0  0  0  0  0  0  # atno 8008 bound_to 7997
  155.9043  140.1039  157.1348 H   0  0  0  0  0  0  0  0  0  0  0  0  # atno 8009 bound_to 7997
  154.4048  140.1280  156.4463 H   0  0  0  0  0  0  0  0  0  0  0  0  # atno 8010 bound_to 7997
  140.0098  143.5454  152.2268 H   0  0  0  0  0  0  0  0  0  0  0  0  # atno 10167 bound_to 10162
  156.5498  130.8600  151.2776 H   0  0  0  0  0  0  0  0  0  0  0  0  # atno 10718 bound_to 10713
  153.4833  135.3674  155.2453 H   0  0  0  0  0  0  0  0  0  0  0  0  # atno 10763 bound_to 10752
  154.8754  135.3959  154.3674 H   0  0  0  0  0  0  0  0  0  0  0  0  # atno 10764 bound_to 10752
  153.4282  135.7082  153.6314 H   0  0  0  0  0  0  0  0  0  0  0  0  # atno 10765 bound_to 10752
  141.0096  134.0284  157.3431 H   0  0  0  0  0  0  0  0  0  0  0  0  # atno 11005 bound_to 11000
  146.3345  140.2687  142.8605 LP  0  0  0  0  0  0  0  0  0  0  0  0  # atno 17320 bound_to 7965
  144.9648  140.8311  143.5491 LP  0  0  0  0  0  0  0  0  0  0  0  0  # atno 17321 bound_to 7965
  139.6213  144.7629  151.2734 LP  0  0  0  0  0  0  0  0  0  0  0  0  # atno 17342 bound_to 10162
  140.7386  143.6643  150.8136 LP  0  0  0  0  0  0  0  0  0  0  0  0  # atno 17343 bound_to 10162
  157.7390  130.9823  150.2284 LP  0  0  0  0  0  0  0  0  0  0  0  0  # atno 17370 bound_to 10713
  156.2895  130.3744  149.7855 LP  0  0  0  0  0  0  0  0  0  0  0  0  # atno 17371 bound_to 10713
  139.9082  135.0184  156.7580 LP  0  0  0  0  0  0  0  0  0  0  0  0  # atno 17394 bound_to 11000
  140.6755  133.9521  155.7881 LP  0  0  0  0  0  0  0  0  0  0  0  0  # atno 17395 bound_to 11000

$$$$
