AV-unprocessed.smi:513|AV-procd|sdf|2773|dock9
  -GOLD-   2262023243D 1   1.00000     0.00000
 Structure written by MMmdl.
 42 44  0  0  0  0  0  0  0  0  1 V2000
  153.9558  140.7420  161.6046 C   0  0  0  0  0  0  0  0  0  0  0  0
  153.8290  139.6120  160.7612 O   0  0  0  0  0  0  0  0  0  0  0  0
  152.8534  139.7925  159.7475 C   0  0  0  0  0  0  0  0  0  0  0  0
  153.1474  141.0879  158.9789 C   0  0  0  0  0  0  0  0  0  0  0  0
  152.1121  141.3774  157.9884 N   0  0  0  0  0  0  0  0  0  0  0  0
  151.2782  142.4520  157.9003 C   0  0  0  0  0  0  0  0  0  0  0  0
  151.3412  143.5259  158.7892 N   0  0  0  0  0  0  0  0  0  0  0  0
  150.3302  144.5748  158.8887 C   0  0  0  0  0  0  0  0  0  0  0  0
  149.9492  144.8351  160.3604 C   0  0  0  0  0  0  0  0  0  0  0  0
  151.1261  145.2637  161.1092 N   0  0  0  0  0  0  0  0  0  0  0  0
  152.1372  144.2151  161.0283 C   0  0  0  0  0  0  0  0  0  0  0  0
  152.5054  143.9727  159.5511 C   0  0  0  0  0  0  0  0  0  0  0  0
  150.3699  142.3713  156.9231 N   0  0  0  0  0  0  0  0  0  0  0  0
  150.6673  141.1609  156.3181 C   0  0  0  0  0  0  0  0  0  0  0  0
  151.7036  140.5483  156.9423 C   0  0  0  0  0  0  0  0  0  0  0  0
  152.2018  139.2304  156.5271 C   0  0  0  0  0  0  0  0  0  0  0  0
  153.1287  138.6481  157.0861 O   0  0  0  0  0  0  0  0  0  0  0  0
  151.5299  138.7184  155.4673 N   0  0  0  0  0  0  0  0  0  0  0  0
  150.4829  139.2845  154.7924 C   0  0  0  0  0  0  0  0  0  0  0  0
  149.9736  138.6858  153.8455 O   0  0  0  0  0  0  0  0  0  0  0  0
  150.0434  140.5147  155.2152 N   0  0  0  0  0  0  0  0  0  0  0  0
  148.9269  141.2043  154.5660 C   0  0  0  0  0  0  0  0  0  0  0  0
  151.8342  137.8128  155.1403 H   0  0  0  0  0  0  0  0  0  0  0  0
  154.7171  140.5496  162.3605 H   0  0  0  0  0  0  0  0  0  0  0  0
  153.0178  140.9580  162.1176 H   0  0  0  0  0  0  0  0  0  0  0  0
  154.2586  141.6241  161.0388 H   0  0  0  0  0  0  0  0  0  0  0  0
  152.8663  138.9446  159.0614 H   0  0  0  0  0  0  0  0  0  0  0  0
  151.8577  139.8377  160.1914 H   0  0  0  0  0  0  0  0  0  0  0  0
  153.2443  141.9084  159.6819 H   0  0  0  0  0  0  0  0  0  0  0  0
  154.1133  141.0258  158.4795 H   0  0  0  0  0  0  0  0  0  0  0  0
  150.6993  145.4877  158.4186 H   0  0  0  0  0  0  0  0  0  0  0  0
  149.4415  144.2747  158.3327 H   0  0  0  0  0  0  0  0  0  0  0  0
  149.1891  145.6143  160.4195 H   0  0  0  0  0  0  0  0  0  0  0  0
  149.5253  143.9383  160.8146 H   0  0  0  0  0  0  0  0  0  0  0  0
  150.8762  145.4215  162.0750 H   0  0  0  0  0  0  0  0  0  0  0  0
  153.0174  144.5300  161.5893 H   0  0  0  0  0  0  0  0  0  0  0  0
  151.7661  143.3016  161.4950 H   0  0  0  0  0  0  0  0  0  0  0  0
  153.3159  143.2499  159.4672 H   0  0  0  0  0  0  0  0  0  0  0  0
  152.8888  144.8927  159.1073 H   0  0  0  0  0  0  0  0  0  0  0  0
  148.5298  140.6844  153.6935 H   0  0  0  0  0  0  0  0  0  0  0  0
  149.2419  142.1951  154.2371 H   0  0  0  0  0  0  0  0  0  0  0  0
  148.1072  141.3315  155.2737 H   0  0  0  0  0  0  0  0  0  0  0  0
  1  2  1  0  0  0  0
  1 24  1  0  0  0  0
  1 25  1  0  0  0  0
  1 26  1  0  0  0  0
  2  3  1  0  0  0  0
  3  4  1  0  0  0  0
  3 27  1  0  0  0  0
  3 28  1  0  0  0  0
  4  5  1  0  0  0  0
  4 29  1  0  0  0  0
  4 30  1  0  0  0  0
  5 15  1  0  0  0  0
  5  6  1  0  0  0  0
  6  7  1  0  0  0  0
  6 13  2  0  0  0  0
  7 12  1  0  0  0  0
  7  8  1  0  0  0  0
  8  9  1  0  0  0  0
  8 31  1  0  0  0  0
  8 32  1  0  0  0  0
  9 10  1  0  0  0  0
  9 33  1  0  0  0  0
  9 34  1  0  0  0  0
 10 11  1  0  0  0  0
 10 35  1  0  0  0  0
 11 12  1  0  0  0  0
 11 36  1  0  0  0  0
 11 37  1  0  0  0  0
 12 38  1  0  0  0  0
 12 39  1  0  0  0  0
 13 14  1  0  0  0  0
 14 21  1  0  0  0  0
 14 15  2  0  0  0  0
 15 16  1  0  0  0  0
 16 17  2  0  0  0  0
 16 18  1  0  0  0  0
 18 23  1  0  0  0  0
 18 19  1  0  0  0  0
 19 20  2  0  0  0  0
 19 21  1  0  0  0  0
 21 22  1  0  0  0  0
 22 40  1  0  0  0  0
 22 41  1  0  0  0  0
 22 42  1  0  0  0  0
M  END
> <s_m_source_file>
AV-unprocessed.smi

> <i_m_source_file_index>
513

> <i_lp_mmshare_version>
43012

> <i_f3d_flags>
0

> <s_epik_input>
W0NIM11uMWMoPU8pW25IXWMoPU8pYyhjMTIpbihbQ0gyXVtDSDJdT1tDSDNdKWMobjIpTjNbQ0gyXVtDSDJdW05IXVtDSDJdW0NIMl0z

> <s_epik_cmdline>
J2VwaWtfcHl0aG9uJywgJy1waCcsICc3LjAnLCAnLXRuJywgJzgnLCAnLW1hJywgJzIwMCcsICctbWV0YWxfYmluZGluZycsICctaW1hZScsICc8aW5maWxlLm1hZT4nLCAnLW9tYWUnLCAnPG91dGZpbGUubWFlPic=

> <r_epik_Ionization_Penalty>
2.51416

> <r_epik_Ionization_Penalty_Charging>
1.6225e-05

> <r_epik_Ionization_Penalty_Neutral>
2.51414

> <r_epik_State_Penalty>
2.67993

> <r_epik_Charging_Adjusted_Penalty>
2.67995

> <i_epik_Tot_Q>
0

> <i_epik_Tot_abs_Q>
0

> <r_epik_Metal_State_Penalty>
2.70812

> <b_epik_Metal_Only>
0

> <s_lp_Force_Field>
OPLS_2005

> <r_lp_Energy>
48.0947

> <b_lp_Chiralities_Consistent>
1

> <s_lp_Variant>
AV-unprocessed.smi:513-2

> <Gold.Version>
5.8.1

> <Gold.Id.Protein>
6NUR|6NUR_protein|mol2

> <Gold.PLP.Fitness>
43.7619

> <Gold.PLP.PLP>
-40.8085

> <Gold.PLP.part.hbond>
-2.0000

> <Gold.PLP.part.metal>
0.0000

> <Gold.PLP.part.buried>
-6.5713

> <Gold.PLP.part.nonpolar>
-33.3537

> <Gold.PLP.part.repulsive>
1.9508

> <Gold.PLP.ligand.clash>
0.0000

> <Gold.PLP.ligand.torsion>
0.1776

> <Gold.PLP.Chemscore.Hbond>
1.0000

> <Gold.PLP.Chemscore.CHOScore>
0.0000

> <Gold.PLP.Chemscore.Metal>
0.0000

> <Gold.Chemscore.Hbonds>
donor molecule, donor type, donor heavy atom, donor atom, acceptor molecule, acceptor atom, score
      P1  H  7997  8009       L1    17  0.90

> <Gold.PLP.Chemscore.Internal.Correction>
0.3086

> <Gold.Rescore>
     Score         DG    S(hbond)    S(metal)    S(lipo)     H(rot)  DE(clash)    DE(int)     intcor
      8.55     -12.07       0.20        0.00      84.60       1.55       2.21       1.31       ----

> <Gold.Chemscore.Fitness>
8.5482

> <Gold.Chemscore.DG>
-12.0703

> <Gold.Chemscore.ZeroCoef>
-5.4800

> <Gold.Chemscore.Hbond>
0.1995

> <Gold.Chemscore.Metal>
0.0000

> <Gold.Chemscore.Lipo>
84.6033

> <Gold.Chemscore.Internal_Hbond>
0.0000

> <Gold.Chemscore.DEClash>
2.2091

> <Gold.Chemscore.DEInternal>
1.3130

> <Gold.Chemscore.Rot>
1.5526

> <Gold.Chemscore.Internal.Correction>
   9.000000E+99

> <Gold.Chemscore.Hbonds>
donor molecule, donor type, donor heavy atom, donor atom, acceptor molecule, acceptor atom, score
      P1  H  7997  8009       L1    17  0.17

> <Gold.Chemscore.Hbond.Weighted>
-0.6663

> <Gold.Chemscore.Metal.Weighted>
-0.0000

> <Gold.Chemscore.Lipo.Weighted>
-9.8986

> <Gold.Chemscore.Internal_Hbond.Weighted>
0.0000

> <Gold.Chemscore.DEClash.Weighted>
2.2091

> <Gold.Chemscore.DEInternal.Weighted>
1.3130

> <Gold.Chemscore.Rot.Weighted>
3.9745

> <Gold.Chemscore.Internal.Correction.Weighted>
   9.000000E+99

> <Gold.Protein.RotatedTorsions>
[ 6907 6896 6895 6894 ] final   77.35 input  -60.11 | X-H torsion
[ 7974 7965 7964 7962 ] final   69.41 input  175.53 | X-H torsion
[ 8008 7997 7996 7995 ] final  164.52 input   59.86 | X-H torsion
[ 10167 10162 10161 10158 ] final   46.60 input  -65.29 | X-H torsion
[ 10718 10713 10712 10709 ] final   -9.48 input   66.30 | X-H torsion
[ 10763 10752 10751 10750 ] final   38.07 input  -60.55 | X-H torsion
[ 11005 11000 10999 10996 ] final   16.19 input  -57.11 | X-H torsion

> <Gold.Protein.ActiveResidues>
 VAL166  LYS551  ARG553  GLY616  TRP617  ASP618  TYR619  PRO620  LYS621  CYS622 
 ASP623  PHE694  ASN695  SER759  ASP760  ASP761  ALA762  ILE779  LEU786  VAL792 
 PHE793  MET794  SER795  GLU796  ALA797  LYS798  CYS799  TRP800  GLU811  SER814 

> <Gold.Protein.RotatedAtoms>
  152.5113  134.3831  159.9357 H   0  0  0  0  0  0  0  0  0  0  0  0  # atno 6907 bound_to 6896
  151.3788  133.3822  159.2715 H   0  0  0  0  0  0  0  0  0  0  0  0  # atno 6908 bound_to 6896
  150.9520  134.8939  159.7737 H   0  0  0  0  0  0  0  0  0  0  0  0  # atno 6909 bound_to 6896
  145.7907  139.2932  143.1212 H   0  0  0  0  0  0  0  0  0  0  0  0  # atno 7974 bound_to 7965
  156.1874  140.1694  156.8159 H   0  0  0  0  0  0  0  0  0  0  0  0  # atno 8008 bound_to 7997
  154.5430  140.0733  156.8574 H   0  0  0  0  0  0  0  0  0  0  0  0  # atno 8009 bound_to 7997
  155.3177  140.3371  155.4244 H   0  0  0  0  0  0  0  0  0  0  0  0  # atno 8010 bound_to 7997
  140.3122  144.2806  150.6197 H   0  0  0  0  0  0  0  0  0  0  0  0  # atno 10167 bound_to 10162
  156.6875  130.5055  149.5953 H   0  0  0  0  0  0  0  0  0  0  0  0  # atno 10718 bound_to 10713
  153.0014  135.6260  154.2247 H   0  0  0  0  0  0  0  0  0  0  0  0  # atno 10763 bound_to 10752
  154.1989  135.2805  155.2999 H   0  0  0  0  0  0  0  0  0  0  0  0  # atno 10764 bound_to 10752
  154.5699  135.5679  153.7145 H   0  0  0  0  0  0  0  0  0  0  0  0  # atno 10765 bound_to 10752
  140.4499  134.1235  155.7701 H   0  0  0  0  0  0  0  0  0  0  0  0  # atno 11005 bound_to 11000
  145.9980  140.8545  143.0033 LP  0  0  0  0  0  0  0  0  0  0  0  0  # atno 17320 bound_to 7965
  144.6782  140.2311  143.7355 LP  0  0  0  0  0  0  0  0  0  0  0  0  # atno 17321 bound_to 7965
  140.5558  143.2199  151.7850 LP  0  0  0  0  0  0  0  0  0  0  0  0  # atno 17342 bound_to 10162
  139.4891  144.4416  151.9758 LP  0  0  0  0  0  0  0  0  0  0  0  0  # atno 17343 bound_to 10162
  156.1822  130.6506  151.0965 LP  0  0  0  0  0  0  0  0  0  0  0  0  # atno 17370 bound_to 10713
  157.7021  131.0771  150.6786 LP  0  0  0  0  0  0  0  0  0  0  0  0  # atno 17371 bound_to 10713
  141.1669  133.8686  157.1688 LP  0  0  0  0  0  0  0  0  0  0  0  0  # atno 17394 bound_to 11000
  140.0014  135.0026  157.0198 LP  0  0  0  0  0  0  0  0  0  0  0  0  # atno 17395 bound_to 11000

$$$$
