AV-unprocessed.smi:2060|AV-procd|sdf|8358|dock9
  -GOLD-   2272011 33D 1   1.00000     0.00000
 Structure written by MMmdl.
 45 46  0  0  0  0  0  0  0  0  3 V2000
  149.7967  131.9153  155.0212 C   0  0  0  0  0  0  0  0  0  0  0  0
  149.0121  132.5653  153.8554 C   0  0  0  0  0  0  0  0  0  0  0  0
  147.9352  133.6780  154.1712 C   0  0  1  0  0  0  0  0  0  0  0  0
  146.9673  133.0839  155.2375 C   0  0  0  0  0  0  0  0  0  0  0  0
  148.6297  134.9741  154.7319 C   0  0  0  0  0  0  0  0  0  0  0  0
  149.0532  134.7810  156.1229 N   0  5  0  0  0  0  0  0  0  0  0  0
  148.9257  135.7139  157.1051 C   0  0  0  0  0  0  0  0  0  0  0  0
  149.4426  136.8362  157.1491 O   0  0  0  0  0  0  0  0  0  0  0  0
  148.1331  135.2896  158.1063 N   0  0  0  0  0  0  0  0  0  0  0  0
  147.7515  135.9746  159.2899 C   0  0  0  0  0  0  0  0  0  0  0  0
  147.4938  135.2584  160.4892 C   0  0  0  0  0  0  0  0  0  0  0  0
  147.1601  136.2457  161.3731 C   0  0  0  0  0  0  0  0  0  0  0  0
  146.7689  136.2308  162.8109 C   0  0  0  0  0  0  0  0  0  0  0  0
  147.2119  137.4624  160.7663 O   0  0  0  0  0  0  0  0  0  0  0  0
  147.5916  137.2821  159.4312 N   0  0  0  0  0  0  0  0  0  0  0  0
  147.1615  134.0813  152.9246 N   0  3  0  0  0  0  0  0  0  0  0  0
  146.6153  132.9922  152.0638 C   0  0  0  0  0  0  0  0  0  0  0  0
  146.0764  133.5608  150.7387 C   0  0  0  0  0  0  0  0  0  0  0  0
  145.0973  134.5584  150.9882 O   0  0  0  0  0  0  0  0  0  0  0  0
  145.6380  135.6452  151.7242 C   0  0  0  0  0  0  0  0  0  0  0  0
  146.1131  135.1359  153.0922 C   0  0  0  0  0  0  0  0  0  0  0  0
  150.4689  131.1493  154.6344 H   0  0  0  0  0  0  0  0  0  0  0  0
  149.1412  131.4235  155.7383 H   0  0  0  0  0  0  0  0  0  0  0  0
  150.4182  132.6299  155.5606 H   0  0  0  0  0  0  0  0  0  0  0  0
  149.7472  132.9372  153.1386 H   0  0  0  0  0  0  0  0  0  0  0  0
  148.5183  131.7298  153.3589 H   0  0  0  0  0  0  0  0  0  0  0  0
  147.4811  132.7750  156.1486 H   0  0  0  0  0  0  0  0  0  0  0  0
  146.4609  132.1999  154.8482 H   0  0  0  0  0  0  0  0  0  0  0  0
  146.1916  133.7787  155.5629 H   0  0  0  0  0  0  0  0  0  0  0  0
  149.4849  135.2189  154.1016 H   0  0  0  0  0  0  0  0  0  0  0  0
  147.9522  135.8211  154.6234 H   0  0  0  0  0  0  0  0  0  0  0  0
  147.7506  134.3622  157.9988 H   0  0  0  0  0  0  0  0  0  0  0  0
  147.5437  134.1955  160.6729 H   0  0  0  0  0  0  0  0  0  0  0  0
  146.6824  135.2088  163.1806 H   0  0  0  0  0  0  0  0  0  0  0  0
  145.8082  136.7248  162.9552 H   0  0  0  0  0  0  0  0  0  0  0  0
  147.5113  136.7488  163.4181 H   0  0  0  0  0  0  0  0  0  0  0  0
  147.3793  132.2661  151.7923 H   0  0  0  0  0  0  0  0  0  0  0  0
  145.8279  132.4597  152.5992 H   0  0  0  0  0  0  0  0  0  0  0  0
  146.8879  133.9768  150.1391 H   0  0  0  0  0  0  0  0  0  0  0  0
  145.6233  132.7650  150.1473 H   0  0  0  0  0  0  0  0  0  0  0  0
  146.4560  136.1135  151.1738 H   0  0  0  0  0  0  0  0  0  0  0  0
  144.8645  136.4023  151.8532 H   0  0  0  0  0  0  0  0  0  0  0  0
  145.2592  134.7325  153.6383 H   0  0  0  0  0  0  0  0  0  0  0  0
  146.4847  135.9857  153.6638 H   0  0  0  0  0  0  0  0  0  0  0  0
  147.8799  134.5098  152.3559 H   0  0  0  0  0  0  0  0  0  0  0  0
  1  2  1  0  0  0  0
  1 22  1  0  0  0  0
  1 23  1  0  0  0  0
  1 24  1  0  0  0  0
  2  3  1  0  0  0  0
  2 25  1  0  0  0  0
  2 26  1  0  0  0  0
  3  4  1  0  0  0  0
  3  5  1  0  0  0  0
  3 16  1  0  0  0  0
  4 27  1  0  0  0  0
  4 28  1  0  0  0  0
  4 29  1  0  0  0  0
  5  6  1  0  0  0  0
  5 30  1  0  0  0  0
  5 31  1  0  0  0  0
  6  7  1  0  0  0  0
  7  8  2  0  0  0  0
  7  9  1  0  0  0  0
  9 10  1  0  0  0  0
  9 32  1  0  0  0  0
 10 15  2  0  0  0  0
 10 11  1  0  0  0  0
 11 12  2  0  0  0  0
 11 33  1  0  0  0  0
 12 13  1  0  0  0  0
 12 14  1  0  0  0  0
 13 34  1  0  0  0  0
 13 35  1  0  0  0  0
 13 36  1  0  0  0  0
 14 15  1  0  0  0  0
 16 21  1  0  0  0  0
 16 17  1  0  0  0  0
 16 45  1  0  0  0  0
 17 18  1  0  0  0  0
 17 37  1  0  0  0  0
 17 38  1  0  0  0  0
 18 19  1  0  0  0  0
 18 39  1  0  0  0  0
 18 40  1  0  0  0  0
 19 20  1  0  0  0  0
 20 21  1  0  0  0  0
 20 41  1  0  0  0  0
 20 42  1  0  0  0  0
 21 43  1  0  0  0  0
 21 44  1  0  0  0  0
M  CHG  1   6  -1
M  CHG  1  16   1
M  END
> <s_m_source_file>
AV-unprocessed.smi

> <i_m_source_file_index>
2060

> <i_lp_mmshare_version>
43012

> <i_f3d_flags>
0

> <s_epik_input>
W0NIMl0xW0NIMl1PW0NIMl1bQ0gyXU4xW0NAQF0oW0NIM10pKFtDSDJdW0NIM10pW0NIMl1bTkhdQyg9TylbTkhdYzJbY0hdYyhbQ0gzXSlvbjI=

> <s_epik_cmdline>
J2VwaWtfcHl0aG9uJywgJy1waCcsICc3LjAnLCAnLXRuJywgJzgnLCAnLW1hJywgJzIwMCcsICctbWV0YWxfYmluZGluZycsICctaW1hZScsICc8aW5maWxlLm1hZT4nLCAnLW9tYWUnLCAnPG91dGZpbGUubWFlPic=

> <r_epik_Ionization_Penalty>
6.79469

> <r_epik_Ionization_Penalty_Charging>
6.79469

> <r_epik_Ionization_Penalty_Neutral>
5.68576e-06

> <r_epik_State_Penalty>
7.33145

> <r_epik_Charging_Adjusted_Penalty>
14.1261

> <i_epik_Tot_Q>
0

> <i_epik_Tot_abs_Q>
2

> <r_epik_Metal_State_Penalty>
3.24803

> <b_epik_Metal_Only>
1

> <s_lp_Force_Field>
OPLS_2005

> <r_lp_Energy>
29.3309

> <b_lp_Chiralities_Consistent>
1

> <s_lp_Variant>
AV-unprocessed.smi:2060-5

> <Gold.Version>
5.8.1

> <Gold.Id.Protein>
6NUR|6NUR_protein|mol2

> <Gold.PLP.Fitness>
39.3998

> <Gold.PLP.PLP>
-30.3209

> <Gold.PLP.part.hbond>
-3.0230

> <Gold.PLP.part.metal>
0.0000

> <Gold.PLP.part.buried>
-3.3475

> <Gold.PLP.part.nonpolar>
-23.9917

> <Gold.PLP.part.repulsive>
0.2644

> <Gold.PLP.ligand.clash>
0.0000

> <Gold.PLP.ligand.torsion>
1.2412

> <Gold.PLP.Chemscore.Hbond>
3.7760

> <Gold.PLP.Chemscore.CHOScore>
0.0000

> <Gold.PLP.Chemscore.Metal>
0.0000

> <Gold.Chemscore.Hbonds>
donor molecule, donor type, donor heavy atom, donor atom, acceptor molecule, acceptor atom, score
      L1  H    16    45       P1  7948  1.93
      P1  H  6931  6943       L1    14  0.20
      P1  H  6934  6947       L1    14  1.00

> <Gold.PLP.Chemscore.Internal.Correction>
0.2332

> <Gold.Rescore>
     Score         DG    S(hbond)    S(metal)    S(lipo)     H(rot)  DE(clash)    DE(int)     intcor
     12.37     -14.78       1.93        0.00      62.24       1.73       0.01       2.40       ----

> <Gold.Chemscore.Fitness>
12.3737

> <Gold.Chemscore.DG>
-14.7821

> <Gold.Chemscore.ZeroCoef>
-5.4800

> <Gold.Chemscore.Hbond>
1.9304

> <Gold.Chemscore.Metal>
0.0000

> <Gold.Chemscore.Lipo>
62.2362

> <Gold.Chemscore.Internal_Hbond>
0.0000

> <Gold.Chemscore.DEClash>
0.0126

> <Gold.Chemscore.DEInternal>
2.3957

> <Gold.Chemscore.Rot>
1.7294

> <Gold.Chemscore.Internal.Correction>
   9.000000E+99

> <Gold.Chemscore.Hbonds>
donor molecule, donor type, donor heavy atom, donor atom, acceptor molecule, acceptor atom, score
      L1  H    16    45       P1  7948  0.39
      P1  H  6931  6943       L1    14  0.02
      P1  H  6934  6947       L1    14  0.38

> <Gold.Chemscore.Hbond.Weighted>
-6.4476

> <Gold.Chemscore.Metal.Weighted>
-0.0000

> <Gold.Chemscore.Lipo.Weighted>
-7.2816

> <Gold.Chemscore.Internal_Hbond.Weighted>
0.0000

> <Gold.Chemscore.DEClash.Weighted>
0.0126

> <Gold.Chemscore.DEInternal.Weighted>
2.3957

> <Gold.Chemscore.Rot.Weighted>
4.4272

> <Gold.Chemscore.Internal.Correction.Weighted>
   9.000000E+99

> <Gold.Protein.RotatedTorsions>
[ 6907 6896 6895 6894 ] final  -13.86 input  -60.11 | X-H torsion
[ 7974 7965 7964 7962 ] final  -41.68 input  175.53 | X-H torsion
[ 8008 7997 7996 7995 ] final -169.05 input   59.86 | X-H torsion
[ 10167 10162 10161 10158 ] final -151.27 input  -65.29 | X-H torsion
[ 10718 10713 10712 10709 ] final  143.77 input   66.30 | X-H torsion
[ 10763 10752 10751 10750 ] final  142.86 input  -60.55 | X-H torsion
[ 11005 11000 10999 10996 ] final   55.83 input  -57.11 | X-H torsion

> <Gold.Protein.ActiveResidues>
 VAL166  LYS551  ARG553  GLY616  TRP617  ASP618  TYR619  PRO620  LYS621  CYS622 
 ASP623  PHE694  ASN695  SER759  ASP760  ASP761  ALA762  ILE779  LEU786  VAL792 
 PHE793  MET794  SER795  GLU796  ALA797  LYS798  CYS799  TRP800  GLU811  SER814 

> <Gold.Protein.RotatedAtoms>
  151.3484  135.0879  159.9394 H   0  0  0  0  0  0  0  0  0  0  0  0  # atno 6907 bound_to 6896
  152.5193  133.9377  159.7621 H   0  0  0  0  0  0  0  0  0  0  0  0  # atno 6908 bound_to 6896
  150.9748  133.6253  159.2761 H   0  0  0  0  0  0  0  0  0  0  0  0  # atno 6909 bound_to 6896
  146.0188  140.6875  142.9188 H   0  0  0  0  0  0  0  0  0  0  0  0  # atno 7974 bound_to 7965
  155.8997  140.1039  157.1359 H   0  0  0  0  0  0  0  0  0  0  0  0  # atno 8008 bound_to 7997
  154.4025  140.1295  156.4484 H   0  0  0  0  0  0  0  0  0  0  0  0  # atno 8009 bound_to 7997
  155.7438  140.3466  155.5119 H   0  0  0  0  0  0  0  0  0  0  0  0  # atno 8010 bound_to 7997
  139.7281  143.8851  152.2526 H   0  0  0  0  0  0  0  0  0  0  0  0  # atno 10167 bound_to 10162
  157.3651  131.0971  151.0880 H   0  0  0  0  0  0  0  0  0  0  0  0  # atno 10718 bound_to 10713
  153.9627  135.2958  155.3432 H   0  0  0  0  0  0  0  0  0  0  0  0  # atno 10763 bound_to 10752
  154.7366  135.5044  153.9054 H   0  0  0  0  0  0  0  0  0  0  0  0  # atno 10764 bound_to 10752
  153.0938  135.6715  153.9912 H   0  0  0  0  0  0  0  0  0  0  0  0  # atno 10765 bound_to 10752
  140.0576  134.5648  155.9189 H   0  0  0  0  0  0  0  0  0  0  0  0  # atno 11005 bound_to 11000
  144.6981  140.3529  143.7178 LP  0  0  0  0  0  0  0  0  0  0  0  0  # atno 17320 bound_to 7965
  145.7226  139.1714  143.2476 LP  0  0  0  0  0  0  0  0  0  0  0  0  # atno 17321 bound_to 7965
  139.8766  144.7040  150.8926 LP  0  0  0  0  0  0  0  0  0  0  0  0  # atno 17342 bound_to 10162
  140.7766  143.3695  151.1676 LP  0  0  0  0  0  0  0  0  0  0  0  0  # atno 17343 bound_to 10162
  157.2005  130.6392  149.5737 LP  0  0  0  0  0  0  0  0  0  0  0  0  # atno 17370 bound_to 10713
  155.9744  130.4692  150.6388 LP  0  0  0  0  0  0  0  0  0  0  0  0  # atno 17371 bound_to 10713
  141.1959  133.6589  156.5665 LP  0  0  0  0  0  0  0  0  0  0  0  0  # atno 17394 bound_to 11000
  140.3819  134.7515  157.4667 LP  0  0  0  0  0  0  0  0  0  0  0  0  # atno 17395 bound_to 11000

$$$$
