AV-unprocessed.smi:1969|AV-procd|sdf|7959|dock1
  -GOLD-   2272010123D 1   1.00000     0.00000
 Structure written by MMmdl.
 44 45  0  0  0  0  0  0  0  0  1 V2000
  153.7073  141.3812  160.4616 C   0  0  0  0  0  0  0  0  0  0  0  0
  152.8897  141.6153  159.1871 C   0  0  1  0  0  0  0  0  0  0  0  0
  152.4283  140.2925  158.5491 C   0  0  0  0  0  0  0  0  0  0  0  0
  151.5695  140.5651  157.4055 N   0  0  0  0  0  0  0  0  0  0  0  0
  151.2357  139.4187  156.6707 C   0  0  0  0  0  0  0  0  0  0  0  0
  150.5058  139.5637  155.4735 C   0  0  0  0  0  0  0  0  0  0  0  0
  150.1747  138.4092  154.7394 C   0  0  0  0  0  0  0  0  0  0  0  0
  150.5887  137.1490  155.2151 C   0  0  0  0  0  0  0  0  0  0  0  0
  150.2237  135.9998  154.4640 N   0  0  0  0  0  0  0  0  0  0  0  0
  150.1452  134.7187  154.8713 C   0  0  0  0  0  0  0  0  0  0  0  0
  150.3947  134.3308  156.0118 O   0  0  0  0  0  0  0  0  0  0  0  0
  149.7152  133.6995  153.8147 C   0  0  0  0  0  0  0  0  0  0  0  0
  148.3329  133.8608  153.5334 O   0  0  0  0  0  0  0  0  0  0  0  0
  147.9456  133.2457  152.3153 C   0  0  0  0  0  0  0  0  0  0  0  0
  146.4209  133.3200  152.1701 C   0  0  0  0  0  0  0  0  0  0  0  0
  146.0444  132.6044  151.1112 F   0  0  0  0  0  0  0  0  0  0  0  0
  145.8306  132.8212  153.2560 F   0  0  0  0  0  0  0  0  0  0  0  0
  146.0366  134.5836  151.9920 F   0  0  0  0  0  0  0  0  0  0  0  0
  151.3069  137.1082  156.4351 C   0  0  0  0  0  0  0  0  0  0  0  0
  151.6258  138.2118  157.1446 N   0  0  0  0  0  0  0  0  0  0  0  0
  150.4175  141.3838  157.7613 C   0  0  0  0  0  0  0  0  0  0  0  0
  150.8670  142.6920  158.4416 C   0  0  2  0  0  0  0  0  0  0  0  0
  151.4710  143.7167  157.4648 C   0  0  0  0  0  0  0  0  0  0  0  0
  151.7481  142.4019  159.5308 O   0  0  0  0  0  0  0  0  0  0  0  0
  154.5998  140.7914  160.2518 H   0  0  0  0  0  0  0  0  0  0  0  0
  153.1231  140.8497  161.2135 H   0  0  0  0  0  0  0  0  0  0  0  0
  154.0295  142.3273  160.8971 H   0  0  0  0  0  0  0  0  0  0  0  0
  153.5136  142.1636  158.4811 H   0  0  0  0  0  0  0  0  0  0  0  0
  153.2918  139.7074  158.2298 H   0  0  0  0  0  0  0  0  0  0  0  0
  151.8850  139.6933  159.2817 H   0  0  0  0  0  0  0  0  0  0  0  0
  150.2043  140.5400  155.1230 H   0  0  0  0  0  0  0  0  0  0  0  0
  149.6141  138.4945  153.8197 H   0  0  0  0  0  0  0  0  0  0  0  0
  150.0707  136.1557  153.4780 H   0  0  0  0  0  0  0  0  0  0  0  0
  150.3045  133.8419  152.9072 H   0  0  0  0  0  0  0  0  0  0  0  0
  149.9143  132.6946  154.1900 H   0  0  0  0  0  0  0  0  0  0  0  0
  148.4254  133.7488  151.4742 H   0  0  0  0  0  0  0  0  0  0  0  0
  148.2700  132.2038  152.3020 H   0  0  0  0  0  0  0  0  0  0  0  0
  151.6241  136.1786  156.8808 H   0  0  0  0  0  0  0  0  0  0  0  0
  149.8225  141.6010  156.8732 H   0  0  0  0  0  0  0  0  0  0  0  0
  149.7774  140.8232  158.4441 H   0  0  0  0  0  0  0  0  0  0  0  0
  149.9840  143.1576  158.8800 H   0  0  0  0  0  0  0  0  0  0  0  0
  150.7358  144.0171  156.7181 H   0  0  0  0  0  0  0  0  0  0  0  0
  152.3324  143.3199  156.9283 H   0  0  0  0  0  0  0  0  0  0  0  0
  151.7897  144.6155  157.9928 H   0  0  0  0  0  0  0  0  0  0  0  0
  1  2  1  0  0  0  0
  1 25  1  0  0  0  0
  1 26  1  0  0  0  0
  1 27  1  0  0  0  0
  2 24  1  0  0  0  0
  2  3  1  0  0  0  0
  2 28  1  0  0  0  0
  3  4  1  0  0  0  0
  3 29  1  0  0  0  0
  3 30  1  0  0  0  0
  4  5  1  0  0  0  0
  4 21  1  0  0  0  0
  5 20  1  0  0  0  0
  5  6  2  0  0  0  0
  6  7  1  0  0  0  0
  6 31  1  0  0  0  0
  7  8  2  0  0  0  0
  7 32  1  0  0  0  0
  8  9  1  0  0  0  0
  8 19  1  0  0  0  0
  9 10  1  0  0  0  0
  9 33  1  0  0  0  0
 10 11  2  0  0  0  0
 10 12  1  0  0  0  0
 12 13  1  0  0  0  0
 12 34  1  0  0  0  0
 12 35  1  0  0  0  0
 13 14  1  0  0  0  0
 14 15  1  0  0  0  0
 14 36  1  0  0  0  0
 14 37  1  0  0  0  0
 15 16  1  0  0  0  0
 15 17  1  0  0  0  0
 15 18  1  0  0  0  0
 19 20  2  0  0  0  0
 19 38  1  0  0  0  0
 21 22  1  0  0  0  0
 21 39  1  0  0  0  0
 21 40  1  0  0  0  0
 22 23  1  0  0  0  0
 22 24  1  0  0  0  0
 22 41  1  0  0  0  0
 23 42  1  0  0  0  0
 23 43  1  0  0  0  0
 23 44  1  0  0  0  0
M  END
> <s_m_source_file>
AV-unprocessed.smi

> <i_m_source_file_index>
1969

> <i_lp_mmshare_version>
43012

> <i_f3d_flags>
0

> <s_epik_input>
W0NIM11bQ0BASF0xW0NIMl1OKFtDSDJdW0NASF0oTzEpW0NIM10pYzJbY0hdW2NIXWMoW2NIXW4yKVtOSF1DKD1PKVtDSDJdT1tDSDJdQyhGKShGKUY=

> <s_epik_cmdline>
J2VwaWtfcHl0aG9uJywgJy1waCcsICc3LjAnLCAnLXRuJywgJzgnLCAnLW1hJywgJzIwMCcsICctbWV0YWxfYmluZGluZycsICctaW1hZScsICc8aW5maWxlLm1hZT4nLCAnLW9tYWUnLCAnPG91dGZpbGUubWFlPic=

> <r_lp_tautomer_probability>
1

> <r_epik_Ionization_Penalty>
0.000531129

> <r_epik_Ionization_Penalty_Charging>
0

> <r_epik_Ionization_Penalty_Neutral>
0.000531129

> <r_epik_State_Penalty>
0.000331002

> <r_epik_Charging_Adjusted_Penalty>
0.000331002

> <i_epik_Tot_Q>
0

> <i_epik_Tot_abs_Q>
0

> <r_epik_Metal_State_Penalty>
-0

> <b_epik_Metal_Only>
0

> <s_lp_Force_Field>
OPLS_2005

> <r_lp_Energy>
27.2534

> <b_lp_Chiralities_Consistent>
1

> <s_lp_Variant>
AV-unprocessed.smi:1969-3

> <Gold.Version>
5.8.1

> <Gold.Id.Protein>
6NUR|6NUR_protein|mol2

> <Gold.PLP.Fitness>
40.1902

> <Gold.PLP.PLP>
-38.7972

> <Gold.PLP.part.hbond>
-1.3494

> <Gold.PLP.part.metal>
0.0000

> <Gold.PLP.part.buried>
-6.3472

> <Gold.PLP.part.nonpolar>
-32.0044

> <Gold.PLP.part.repulsive>
1.3564

> <Gold.PLP.ligand.clash>
0.0000

> <Gold.PLP.ligand.torsion>
0.3963

> <Gold.PLP.Chemscore.Hbond>
0.6500

> <Gold.PLP.Chemscore.CHOScore>
0.0000

> <Gold.PLP.Chemscore.Metal>
0.0000

> <Gold.Chemscore.Hbonds>
donor molecule, donor type, donor heavy atom, donor atom, acceptor molecule, acceptor atom, score
      L1  H     9    33       P1  7948  0.50

> <Gold.PLP.Chemscore.Internal.Correction>
0.2356

> <Gold.Rescore>
     Score         DG    S(hbond)    S(metal)    S(lipo)     H(rot)  DE(clash)    DE(int)     intcor
     11.47     -13.21       0.78        0.00      86.20       1.94       0.18       1.56       ----

> <Gold.Chemscore.Fitness>
11.4679

> <Gold.Chemscore.DG>
-13.2091

> <Gold.Chemscore.ZeroCoef>
-5.4800

> <Gold.Chemscore.Hbond>
0.7843

> <Gold.Chemscore.Metal>
0.0000

> <Gold.Chemscore.Lipo>
86.2028

> <Gold.Chemscore.Internal_Hbond>
0.0000

> <Gold.Chemscore.DEClash>
0.1771

> <Gold.Chemscore.DEInternal>
1.5642

> <Gold.Chemscore.Rot>
1.9438

> <Gold.Chemscore.Internal.Correction>
   9.000000E+99

> <Gold.Chemscore.Hbonds>
donor molecule, donor type, donor heavy atom, donor atom, acceptor molecule, acceptor atom, score
      L1  H     9    33       P1  7948  0.02

> <Gold.Chemscore.Hbond.Weighted>
-2.6195

> <Gold.Chemscore.Metal.Weighted>
-0.0000

> <Gold.Chemscore.Lipo.Weighted>
-10.0857

> <Gold.Chemscore.Internal_Hbond.Weighted>
0.0000

> <Gold.Chemscore.DEClash.Weighted>
0.1771

> <Gold.Chemscore.DEInternal.Weighted>
1.5642

> <Gold.Chemscore.Rot.Weighted>
4.9761

> <Gold.Chemscore.Internal.Correction.Weighted>
   9.000000E+99

> <Gold.Protein.RotatedTorsions>
[ 6907 6896 6895 6894 ] final -101.97 input  -60.11 | X-H torsion
[ 7974 7965 7964 7962 ] final  -91.49 input  175.53 | X-H torsion
[ 8008 7997 7996 7995 ] final  -80.08 input   59.86 | X-H torsion
[ 10167 10162 10161 10158 ] final -123.39 input  -65.29 | X-H torsion
[ 10718 10713 10712 10709 ] final -141.15 input   66.30 | X-H torsion
[ 10763 10752 10751 10750 ] final   21.73 input  -60.55 | X-H torsion
[ 11005 11000 10999 10996 ] final  145.58 input  -57.11 | X-H torsion

> <Gold.Protein.ActiveResidues>
 VAL166  LYS551  ARG553  GLY616  TRP617  ASP618  TYR619  PRO620  LYS621  CYS622 
 ASP623  PHE694  ASN695  SER759  ASP760  ASP761  ALA762  ILE779  LEU786  VAL792 
 PHE793  MET794  SER795  GLU796  ALA797  LYS798  CYS799  TRP800  GLU811  SER814 

> <Gold.Protein.RotatedAtoms>
  150.7176  134.0653  159.3845 H   0  0  0  0  0  0  0  0  0  0  0  0  # atno 6907 bound_to 6896
  151.8634  135.0514  160.0481 H   0  0  0  0  0  0  0  0  0  0  0  0  # atno 6908 bound_to 6896
  152.2700  133.5338  159.5470 H   0  0  0  0  0  0  0  0  0  0  0  0  # atno 6909 bound_to 6896
  145.4125  140.9546  143.2226 H   0  0  0  0  0  0  0  0  0  0  0  0  # atno 7974 bound_to 7965
  154.5847  140.0668  156.9155 H   0  0  0  0  0  0  0  0  0  0  0  0  # atno 8008 bound_to 7997
  155.2400  140.3344  155.4275 H   0  0  0  0  0  0  0  0  0  0  0  0  # atno 8009 bound_to 7997
  156.2214  140.1800  156.7451 H   0  0  0  0  0  0  0  0  0  0  0  0  # atno 8010 bound_to 7997
  140.0040  143.5511  152.2291 H   0  0  0  0  0  0  0  0  0  0  0  0  # atno 10167 bound_to 10162
  156.3306  130.7584  151.1701 H   0  0  0  0  0  0  0  0  0  0  0  0  # atno 10718 bound_to 10713
  153.0971  135.6663  153.9742 H   0  0  0  0  0  0  0  0  0  0  0  0  # atno 10763 bound_to 10752
  153.9322  135.3003  155.3446 H   0  0  0  0  0  0  0  0  0  0  0  0  # atno 10764 bound_to 10752
  154.7391  135.5088  153.9166 H   0  0  0  0  0  0  0  0  0  0  0  0  # atno 10765 bound_to 10752
  140.0723  134.9144  157.1366 H   0  0  0  0  0  0  0  0  0  0  0  0  # atno 11005 bound_to 11000
  144.8300  139.5645  143.6948 LP  0  0  0  0  0  0  0  0  0  0  0  0  # atno 17320 bound_to 7965
  146.2698  139.6607  142.9304 LP  0  0  0  0  0  0  0  0  0  0  0  0  # atno 17321 bound_to 7965
  139.6251  144.7636  151.2655 LP  0  0  0  0  0  0  0  0  0  0  0  0  # atno 17342 bound_to 10162
  140.7407  143.6578  150.8191 LP  0  0  0  0  0  0  0  0  0  0  0  0  # atno 17343 bound_to 10162
  157.7429  131.0482  150.4984 LP  0  0  0  0  0  0  0  0  0  0  0  0  # atno 17370 bound_to 10713
  156.5150  130.4148  149.6281 LP  0  0  0  0  0  0  0  0  0  0  0  0  # atno 17371 bound_to 10713
  140.3608  134.2496  155.7187 LP  0  0  0  0  0  0  0  0  0  0  0  0  # atno 17394 bound_to 11000
  141.2016  133.7957  157.0430 LP  0  0  0  0  0  0  0  0  0  0  0  0  # atno 17395 bound_to 11000

$$$$
