AV-unprocessed.smi:3330|AV-procd|sdf|12809|dock7
  -GOLD-   2272019173D 1   1.00000     0.00000
 Structure written by MMmdl.
 38 39  0  0  0  0  0  0  0  0  3 V2000
  150.5330  135.6367  155.1996 C   0  0  0  0  0  0  0  0  0  0  0  0
  149.6737  136.9073  155.0913 C   0  0  2  0  0  0  0  0  0  0  0  0
  148.3868  136.5434  154.4565 N   0  3  0  0  0  0  0  0  0  0  0  0
  147.7326  135.3355  155.0023 C   0  0  0  0  0  0  0  0  0  0  0  0
  146.3401  135.1098  154.3854 C   0  0  0  0  0  0  0  0  0  0  0  0
  146.4116  134.6268  153.0002 N   0  0  0  0  0  0  0  0  0  0  0  0
  147.0282  133.5033  152.6190 C   0  0  0  0  0  0  0  0  0  0  0  0
  147.6257  132.6932  153.3274 O   0  0  0  0  0  0  0  0  0  0  0  0
  146.8363  133.3616  151.1275 C   0  0  0  0  0  0  0  0  0  0  0  0
  146.0440  134.5270  150.8077 N   0  5  0  0  0  0  0  0  0  0  0  0
  145.8318  135.2290  151.9445 C   0  0  0  0  0  0  0  0  0  0  0  0
  145.1926  136.2742  152.0570 O   0  0  0  0  0  0  0  0  0  0  0  0
  150.3728  138.0403  154.2918 C   0  0  2  0  0  0  0  0  0  0  0  0
  151.8468  138.2474  154.6910 C   0  0  0  0  0  0  0  0  0  0  0  0
  149.6489  139.3017  154.4048 N   0  0  0  0  0  0  0  0  0  0  0  0
  148.3218  139.5521  154.1211 C   0  0  0  0  0  0  0  0  0  0  0  0
  148.0894  140.8718  154.3830 C   0  0  0  0  0  0  0  0  0  0  0  0
  149.3513  141.3559  154.8267 C   0  0  0  0  0  0  0  0  0  0  0  0
  150.2814  140.4151  154.8399 N   0  0  0  0  0  0  0  0  0  0  0  0
  151.4460  135.8121  155.7679 H   0  0  0  0  0  0  0  0  0  0  0  0
  150.8160  135.2616  154.2154 H   0  0  0  0  0  0  0  0  0  0  0  0
  149.9892  134.8423  155.7123 H   0  0  0  0  0  0  0  0  0  0  0  0
  149.4842  137.2581  156.1076 H   0  0  0  0  0  0  0  0  0  0  0  0
  147.7506  137.3232  154.5397 H   0  0  0  0  0  0  0  0  0  0  0  0
  148.3684  134.4715  154.8047 H   0  0  0  0  0  0  0  0  0  0  0  0
  147.6434  135.4227  156.0850 H   0  0  0  0  0  0  0  0  0  0  0  0
  145.7797  134.3965  154.9916 H   0  0  0  0  0  0  0  0  0  0  0  0
  145.7699  136.0392  154.4303 H   0  0  0  0  0  0  0  0  0  0  0  0
  147.8055  133.3476  150.6275 H   0  0  0  0  0  0  0  0  0  0  0  0
  146.3286  132.4221  150.9065 H   0  0  0  0  0  0  0  0  0  0  0  0
  150.3608  137.7646  153.2359 H   0  0  0  0  0  0  0  0  0  0  0  0
  152.4578  137.3806  154.4407 H   0  0  0  0  0  0  0  0  0  0  0  0
  151.9506  138.4313  155.7608 H   0  0  0  0  0  0  0  0  0  0  0  0
  152.2775  139.1004  154.1652 H   0  0  0  0  0  0  0  0  0  0  0  0
  147.6589  138.7791  153.7605 H   0  0  0  0  0  0  0  0  0  0  0  0
  147.1601  141.4109  154.2721 H   0  0  0  0  0  0  0  0  0  0  0  0
  149.6170  142.3554  155.1380 H   0  0  0  0  0  0  0  0  0  0  0  0
  148.5592  136.3779  153.4751 H   0  0  0  0  0  0  0  0  0  0  0  0
  1  2  1  0  0  0  0
  1 20  1  0  0  0  0
  1 21  1  0  0  0  0
  1 22  1  0  0  0  0
  2  3  1  0  0  0  0
  2 13  1  0  0  0  0
  2 23  1  0  0  0  0
  3  4  1  0  0  0  0
  3 24  1  0  0  0  0
  3 38  1  0  0  0  0
  4  5  1  0  0  0  0
  4 25  1  0  0  0  0
  4 26  1  0  0  0  0
  5  6  1  0  0  0  0
  5 27  1  0  0  0  0
  5 28  1  0  0  0  0
  6 11  1  0  0  0  0
  6  7  1  0  0  0  0
  7  8  2  0  0  0  0
  7  9  1  0  0  0  0
  9 10  1  0  0  0  0
  9 29  1  0  0  0  0
  9 30  1  0  0  0  0
 10 11  1  0  0  0  0
 11 12  2  0  0  0  0
 13 14  1  0  0  0  0
 13 15  1  0  0  0  0
 13 31  1  0  0  0  0
 14 32  1  0  0  0  0
 14 33  1  0  0  0  0
 14 34  1  0  0  0  0
 15 19  1  0  0  0  0
 15 16  1  0  0  0  0
 16 17  2  0  0  0  0
 16 35  1  0  0  0  0
 17 18  1  0  0  0  0
 17 36  1  0  0  0  0
 18 19  2  0  0  0  0
 18 37  1  0  0  0  0
M  CHG  1   3   1
M  CHG  1  10  -1
M  END
> <s_m_source_file>
AV-unprocessed.smi

> <i_m_source_file_index>
3330

> <i_lp_mmshare_version>
43012

> <i_f3d_flags>
0

> <s_epik_input>
bjFbY0hdW2NIXVtjSF1uMVtDQEBIXShbQ0gzXSlbQ0BIXShbQ0gzXSlbTkhdW0NIMl1bQ0gyXU4yQyg9TylbQ0gyXVtOSF1DMj1P

> <s_epik_cmdline>
J2VwaWtfcHl0aG9uJywgJy1waCcsICc3LjAnLCAnLXRuJywgJzgnLCAnLW1hJywgJzIwMCcsICctbWV0YWxfYmluZGluZycsICctaW1hZScsICc8aW5maWxlLm1hZT4nLCAnLW9tYWUnLCAnPG91dGZpbGUubWFlPic=

> <r_lp_tautomer_probability>
1

> <r_epik_Ionization_Penalty>
5.18149

> <r_epik_Ionization_Penalty_Charging>
5.18148

> <r_epik_Ionization_Penalty_Neutral>
9.83265e-06

> <r_epik_State_Penalty>
5.18201

> <r_epik_Charging_Adjusted_Penalty>
10.3635

> <i_epik_Tot_Q>
0

> <i_epik_Tot_abs_Q>
2

> <r_epik_Metal_State_Penalty>
1.25422

> <b_epik_Metal_Only>
1

> <s_lp_Force_Field>
OPLS_2005

> <r_lp_Energy>
23.9108

> <b_lp_Chiralities_Consistent>
1

> <s_lp_Variant>
AV-unprocessed.smi:3330-9

> <Gold.Version>
5.8.1

> <Gold.Id.Protein>
6NUR|6NUR_protein|mol2

> <Gold.PLP.Fitness>
40.8358

> <Gold.PLP.PLP>
-29.2922

> <Gold.PLP.part.hbond>
-2.0000

> <Gold.PLP.part.metal>
0.0000

> <Gold.PLP.part.buried>
-3.0897

> <Gold.PLP.part.nonpolar>
-24.7283

> <Gold.PLP.part.repulsive>
0.5598

> <Gold.PLP.ligand.clash>
0.0000

> <Gold.PLP.ligand.torsion>
0.2922

> <Gold.PLP.Chemscore.Hbond>
3.0000

> <Gold.PLP.Chemscore.CHOScore>
0.9972

> <Gold.PLP.Chemscore.Metal>
0.0000

> <Gold.Chemscore.Hbonds>
donor molecule, donor type, donor heavy atom, donor atom, acceptor molecule, acceptor atom, score
      L1  H     3    38       P1  7948  2.00
      P1  H  7989  7998       L1    19  1.00
      L1  C    18    37       P1  8028  1.00

> <Gold.PLP.Chemscore.Internal.Correction>
0.1363

> <Gold.Rescore>
     Score         DG    S(hbond)    S(metal)    S(lipo)     H(rot)  DE(clash)    DE(int)     intcor
     10.15     -11.47       1.74        0.00      58.16       2.59       0.21       1.12       ----

> <Gold.Chemscore.Fitness>
10.1466

> <Gold.Chemscore.DG>
-11.4698

> <Gold.Chemscore.ZeroCoef>
-5.4800

> <Gold.Chemscore.Hbond>
1.7413

> <Gold.Chemscore.Metal>
0.0000

> <Gold.Chemscore.Lipo>
58.1607

> <Gold.Chemscore.Internal_Hbond>
0.0000

> <Gold.Chemscore.DEClash>
0.2077

> <Gold.Chemscore.DEInternal>
1.1155

> <Gold.Chemscore.Rot>
2.5903

> <Gold.Chemscore.Internal.Correction>
   9.000000E+99

> <Gold.Chemscore.Hbonds>
donor molecule, donor type, donor heavy atom, donor atom, acceptor molecule, acceptor atom, score
      L1  H     3    38       P1  7948  1.00
      P1  H  7989  7998       L1    19  0.37

> <Gold.Chemscore.Hbond.Weighted>
-5.8161

> <Gold.Chemscore.Metal.Weighted>
-0.0000

> <Gold.Chemscore.Lipo.Weighted>
-6.8048

> <Gold.Chemscore.Internal_Hbond.Weighted>
0.0000

> <Gold.Chemscore.DEClash.Weighted>
0.2077

> <Gold.Chemscore.DEInternal.Weighted>
1.1155

> <Gold.Chemscore.Rot.Weighted>
6.6311

> <Gold.Chemscore.Internal.Correction.Weighted>
   9.000000E+99

> <Gold.Protein.RotatedTorsions>
[ 6907 6896 6895 6894 ] final  -15.45 input  -60.11 | X-H torsion
[ 7974 7965 7964 7962 ] final  127.16 input  175.53 | X-H torsion
[ 8008 7997 7996 7995 ] final -174.89 input   59.86 | X-H torsion
[ 10167 10162 10161 10158 ] final   59.15 input  -65.29 | X-H torsion
[ 10718 10713 10712 10709 ] final   72.65 input   66.30 | X-H torsion
[ 10763 10752 10751 10750 ] final   -6.98 input  -60.55 | X-H torsion
[ 11005 11000 10999 10996 ] final  161.01 input  -57.11 | X-H torsion

> <Gold.Protein.ActiveResidues>
 VAL166  LYS551  ARG553  GLY616  TRP617  ASP618  TYR619  PRO620  LYS621  CYS622 
 ASP623  PHE694  ASN695  SER759  ASP760  ASP761  ALA762  ILE779  LEU786  VAL792 
 PHE793  MET794  SER795  GLU796  ALA797  LYS798  CYS799  TRP800  GLU811  SER814 

> <Gold.Protein.RotatedAtoms>
  151.3237  135.0825  159.9314 H   0  0  0  0  0  0  0  0  0  0  0  0  # atno 6907 bound_to 6896
  152.5251  133.9613  159.7728 H   0  0  0  0  0  0  0  0  0  0  0  0  # atno 6908 bound_to 6896
  150.9938  133.6070  159.2734 H   0  0  0  0  0  0  0  0  0  0  0  0  # atno 6909 bound_to 6896
  145.0536  139.3862  143.5041 H   0  0  0  0  0  0  0  0  0  0  0  0  # atno 7974 bound_to 7965
  155.9758  140.1172  157.0771 H   0  0  0  0  0  0  0  0  0  0  0  0  # atno 8008 bound_to 7997
  154.4169  140.1154  156.5436 H   0  0  0  0  0  0  0  0  0  0  0  0  # atno 8009 bound_to 7997
  155.6536  140.3473  155.4759 H   0  0  0  0  0  0  0  0  0  0  0  0  # atno 8010 bound_to 7997
  140.1796  144.4196  150.6622 H   0  0  0  0  0  0  0  0  0  0  0  0  # atno 10167 bound_to 10162
  157.6511  130.9589  150.0958 H   0  0  0  0  0  0  0  0  0  0  0  0  # atno 10718 bound_to 10713
  153.4200  135.7010  153.6301 H   0  0  0  0  0  0  0  0  0  0  0  0  # atno 10763 bound_to 10752
  153.4759  135.3704  155.2416 H   0  0  0  0  0  0  0  0  0  0  0  0  # atno 10764 bound_to 10752
  154.8721  135.4054  154.3566 H   0  0  0  0  0  0  0  0  0  0  0  0  # atno 10765 bound_to 10752
  140.2116  134.8263  157.3126 H   0  0  0  0  0  0  0  0  0  0  0  0  # atno 11005 bound_to 11000
  146.3520  140.0199  142.8659 LP  0  0  0  0  0  0  0  0  0  0  0  0  # atno 17320 bound_to 7965
  145.1496  140.9616  143.4440 LP  0  0  0  0  0  0  0  0  0  0  0  0  # atno 17321 bound_to 7965
  140.6529  143.2229  151.6036 LP  0  0  0  0  0  0  0  0  0  0  0  0  # atno 17342 bound_to 10162
  139.5302  144.2938  152.1130 LP  0  0  0  0  0  0  0  0  0  0  0  0  # atno 17343 bound_to 10162
  156.1894  130.3654  149.8929 LP  0  0  0  0  0  0  0  0  0  0  0  0  # atno 17370 bound_to 10713
  156.6861  130.8877  151.3582 LP  0  0  0  0  0  0  0  0  0  0  0  0  # atno 17371 bound_to 10713
  140.1945  134.4331  155.7697 LP  0  0  0  0  0  0  0  0  0  0  0  0  # atno 17394 bound_to 11000
  141.2226  133.7042  156.8082 LP  0  0  0  0  0  0  0  0  0  0  0  0  # atno 17395 bound_to 11000

$$$$
