AV-unprocessed.smi:35|AV-procd|sdf|271|dock1
  -GOLD-   2262016 43D 1   1.00000     0.00000
 Structure written by MMmdl.
 28 29  0  0  0  0  0  0  0  0  2 V2000
  150.0444  131.9052  156.4367 O   0  0  0  0  0  0  0  0  0  0  0  0
  150.0830  133.1306  156.3417 C   0  0  0  0  0  0  0  0  0  0  0  0
  150.6211  133.9314  157.3066 N   0  5  0  0  0  0  0  0  0  0  0  0
  150.6659  135.2915  157.1941 C   0  0  0  0  0  0  0  0  0  0  0  0
  151.1617  136.0222  158.0521 O   0  0  0  0  0  0  0  0  0  0  0  0
  150.1302  135.9057  156.0284 N   0  0  0  0  0  0  0  0  0  0  0  0
  150.1801  137.4192  155.9124 C   0  0  2  0  0  0  0  0  0  0  0  0
  148.9415  137.9013  155.4775 O   0  0  0  0  0  0  0  0  0  0  0  0
  149.0250  138.3072  154.1151 C   0  0  1  0  0  0  0  0  0  0  0  0
  147.9012  139.2951  153.7579 C   0  0  0  0  0  0  0  0  0  0  0  0
  147.5243  139.1342  152.4068 O   0  0  0  0  0  0  0  0  0  0  0  0
  150.4501  138.8638  154.0145 C   0  0  1  0  0  0  0  0  0  0  0  0
  150.5180  140.1904  154.5060 O   0  0  0  0  0  0  0  0  0  0  0  0
  151.2478  137.9223  154.9076 C   0  0  2  0  0  0  0  0  0  0  0  0
  151.8239  136.8980  154.1155 O   0  0  0  0  0  0  0  0  0  0  0  0
  149.5729  135.1176  155.0344 C   0  0  0  0  0  0  0  0  0  0  0  0
  149.5343  133.7749  155.1516 C   0  0  0  0  0  0  0  0  0  0  0  0
  148.7107  132.7741  153.6525 Br  0  0  0  0  0  0  0  0  0  0  0  0
  150.3370  137.7828  156.9292 H   0  0  0  0  0  0  0  0  0  0  0  0
  148.9644  137.4258  153.4742 H   0  0  0  0  0  0  0  0  0  0  0  0
  147.0364  139.1669  154.4098 H   0  0  0  0  0  0  0  0  0  0  0  0
  148.2513  140.3207  153.8785 H   0  0  0  0  0  0  0  0  0  0  0  0
  148.2825  139.2863  151.8639 H   0  0  0  0  0  0  0  0  0  0  0  0
  150.8086  138.8710  152.9840 H   0  0  0  0  0  0  0  0  0  0  0  0
  149.6997  140.3916  154.9335 H   0  0  0  0  0  0  0  0  0  0  0  0
  152.0475  138.4325  155.4461 H   0  0  0  0  0  0  0  0  0  0  0  0
  151.3747  136.8818  153.2835 H   0  0  0  0  0  0  0  0  0  0  0  0
  149.1573  135.5671  154.1461 H   0  0  0  0  0  0  0  0  0  0  0  0
  1  2  2  0  0  0  0
  2 17  1  0  0  0  0
  2  3  1  0  0  0  0
  3  4  1  0  0  0  0
  4  5  2  0  0  0  0
  4  6  1  0  0  0  0
  6  7  1  0  0  0  0
  6 16  1  0  0  0  0
  7 14  1  0  0  0  0
  7  8  1  0  0  0  0
  7 19  1  0  0  0  0
  8  9  1  0  0  0  0
  9 10  1  0  0  0  0
  9 12  1  0  0  0  0
  9 20  1  0  0  0  0
 10 11  1  0  0  0  0
 10 21  1  0  0  0  0
 10 22  1  0  0  0  0
 11 23  1  0  0  0  0
 12 13  1  0  0  0  0
 12 14  1  0  0  0  0
 12 24  1  0  0  0  0
 13 25  1  0  0  0  0
 14 15  1  0  0  0  0
 14 26  1  0  0  0  0
 15 27  1  0  0  0  0
 16 17  2  0  0  0  0
 16 28  1  0  0  0  0
 17 18  1  0  0  0  0
M  CHG  1   3  -1
M  END
> <s_m_source_file>
AV-unprocessed.smi

> <i_m_source_file_index>
35

> <i_lp_mmshare_version>
43012

> <i_f3d_flags>
0

> <s_epik_input>
Tz1jMVtuSF1jKD1PKW4oW2NIXWMxQnIpW0NAQEhdMk9bQ0BASF0oW0NIMl1bT0hdKVtDQEBIXShbT0hdKVtDQEhdMltPSF0=

> <s_epik_cmdline>
J2VwaWtfcHl0aG9uJywgJy1waCcsICc3LjAnLCAnLXRuJywgJzgnLCAnLW1hJywgJzIwMCcsICctbWV0YWxfYmluZGluZycsICctaW1hZScsICc8aW5maWxlLm1hZT4nLCAnLW9tYWUnLCAnPG91dGZpbGUubWFlPic=

> <r_epik_Ionization_Penalty>
1.06112

> <r_epik_Ionization_Penalty_Charging>
2.1796e-09

> <r_epik_Ionization_Penalty_Neutral>
1.06112

> <r_epik_State_Penalty>
1.11484

> <r_epik_Charging_Adjusted_Penalty>
1.11484

> <i_epik_Tot_Q>
-1

> <i_epik_Tot_abs_Q>
1

> <r_epik_Metal_State_Penalty>
0.0032876

> <b_epik_Metal_Only>
0

> <s_epik_Chemistry_Notes>
This compound contains an acetal/aminal-like group ( X-CH(R)-Y where X, Y are N, S, or O) that may be acid/base labile, releasing an aldehyde.

> <s_lp_Force_Field>
OPLS_2005

> <r_lp_Energy>
42.0802

> <b_lp_Chiralities_Consistent>
1

> <s_lp_Variant>
AV-unprocessed.smi:35-25

> <Gold.Version>
5.8.1

> <Gold.Id.Protein>
6NUR|6NUR_protein|mol2

> <Gold.PLP.Fitness>
44.3673

> <Gold.PLP.PLP>
-26.1649

> <Gold.PLP.part.hbond>
-6.3639

> <Gold.PLP.part.metal>
0.0000

> <Gold.PLP.part.buried>
-2.1915

> <Gold.PLP.part.nonpolar>
-18.4270

> <Gold.PLP.part.repulsive>
0.0597

> <Gold.PLP.ligand.clash>
0.0000

> <Gold.PLP.ligand.torsion>
0.7888

> <Gold.PLP.Chemscore.Hbond>
5.5571

> <Gold.PLP.Chemscore.CHOScore>
1.0000

> <Gold.PLP.Chemscore.Metal>
0.0000

> <Gold.Chemscore.Hbonds>
donor molecule, donor type, donor heavy atom, donor atom, acceptor molecule, acceptor atom, score
      L1  H    11    23       P1  7957  1.00
      L1  H    15    27       P1  7949  0.94
      P1  H  6896  6907       L1     3  1.31
      P1  H  6896  6908       L1     5  0.40
      P1  H  7989  7998       L1    13  1.00
      P1  H 10752 10765       L1    15  1.00
      L1  C    16    28       P1  7948  1.00

> <Gold.PLP.Chemscore.Internal.Correction>
0.1088

> <Gold.Rescore>
     Score         DG    S(hbond)    S(metal)    S(lipo)     H(rot)  DE(clash)    DE(int)     intcor
     12.40     -14.68       3.98        0.00      44.37       3.63       0.45       1.83       ----

> <Gold.Chemscore.Fitness>
12.4003

> <Gold.Chemscore.DG>
-14.6833

> <Gold.Chemscore.ZeroCoef>
-5.4800

> <Gold.Chemscore.Hbond>
3.9804

> <Gold.Chemscore.Metal>
0.0000

> <Gold.Chemscore.Lipo>
44.3732

> <Gold.Chemscore.Internal_Hbond>
0.0000

> <Gold.Chemscore.DEClash>
0.4489

> <Gold.Chemscore.DEInternal>
1.8341

> <Gold.Chemscore.Rot>
3.6261

> <Gold.Chemscore.Internal.Correction>
   9.000000E+99

> <Gold.Chemscore.Hbonds>
donor molecule, donor type, donor heavy atom, donor atom, acceptor molecule, acceptor atom, score
      L1  H    11    23       P1  7957  0.99
      L1  H    15    27       P1  7949  0.68
      P1  H  6896  6907       L1     3  0.31
      P1  H  6896  6908       L1     5  0.31
      P1  H  7989  7998       L1    13  0.34
      P1  H 10752 10765       L1    15  0.82

> <Gold.Chemscore.Hbond.Weighted>
-13.2945

> <Gold.Chemscore.Metal.Weighted>
-0.0000

> <Gold.Chemscore.Lipo.Weighted>
-5.1917

> <Gold.Chemscore.Internal_Hbond.Weighted>
0.0000

> <Gold.Chemscore.DEClash.Weighted>
0.4489

> <Gold.Chemscore.DEInternal.Weighted>
1.8341

> <Gold.Chemscore.Rot.Weighted>
9.2828

> <Gold.Chemscore.Internal.Correction.Weighted>
   9.000000E+99

> <Gold.Protein.RotatedTorsions>
[ 6907 6896 6895 6894 ] final -139.47 input  -60.11 | X-H torsion
[ 7974 7965 7964 7962 ] final   -2.18 input  175.53 | X-H torsion
[ 8008 7997 7996 7995 ] final   35.37 input   59.86 | X-H torsion
[ 10167 10162 10161 10158 ] final -114.25 input  -65.29 | X-H torsion
[ 10718 10713 10712 10709 ] final  122.96 input   66.30 | X-H torsion
[ 10763 10752 10751 10750 ] final  158.13 input  -60.55 | X-H torsion
[ 11005 11000 10999 10996 ] final   50.26 input  -57.11 | X-H torsion

> <Gold.Protein.ActiveResidues>
 VAL166  LYS551  ARG553  GLY616  TRP617  ASP618  TYR619  PRO620  LYS621  CYS622 
 ASP623  PHE694  ASN695  SER759  ASP760  ASP761  ALA762  ILE779  LEU786  VAL792 
 PHE793  MET794  SER795  GLU796  ALA797  LYS798  CYS799  TRP800  GLU811  SER814 

> <Gold.Protein.RotatedAtoms>
  151.0483  133.5646  159.2644 H   0  0  0  0  0  0  0  0  0  0  0  0  # atno 6907 bound_to 6896
  151.2667  135.0671  159.9128 H   0  0  0  0  0  0  0  0  0  0  0  0  # atno 6908 bound_to 6896
  152.5377  134.0219  159.8039 H   0  0  0  0  0  0  0  0  0  0  0  0  # atno 6909 bound_to 6896
  146.2408  140.1532  142.8333 H   0  0  0  0  0  0  0  0  0  0  0  0  # atno 7974 bound_to 7965
  155.1699  140.3291  155.4395 H   0  0  0  0  0  0  0  0  0  0  0  0  # atno 8008 bound_to 7997
  156.2514  140.1945  156.6753 H   0  0  0  0  0  0  0  0  0  0  0  0  # atno 8009 bound_to 7997
  154.6345  140.0578  156.9758 H   0  0  0  0  0  0  0  0  0  0  0  0  # atno 8010 bound_to 7997
  140.1030  143.4595  152.1800 H   0  0  0  0  0  0  0  0  0  0  0  0  # atno 10167 bound_to 10162
  157.5702  131.1084  150.8381 H   0  0  0  0  0  0  0  0  0  0  0  0  # atno 10718 bound_to 10713
  154.2112  135.2786  155.2957 H   0  0  0  0  0  0  0  0  0  0  0  0  # atno 10763 bound_to 10752
  154.5777  135.5599  153.7158 H   0  0  0  0  0  0  0  0  0  0  0  0  # atno 10764 bound_to 10752
  153.0064  135.6337  154.2251 H   0  0  0  0  0  0  0  0  0  0  0  0  # atno 10765 bound_to 10752
  140.1033  134.5052  155.8743 H   0  0  0  0  0  0  0  0  0  0  0  0  # atno 11005 bound_to 11000
  145.0150  140.8746  143.5201 LP  0  0  0  0  0  0  0  0  0  0  0  0  # atno 17320 bound_to 7965
  145.1572  139.2480  143.5410 LP  0  0  0  0  0  0  0  0  0  0  0  0  # atno 17321 bound_to 7965
  139.5660  144.7435  151.4020 LP  0  0  0  0  0  0  0  0  0  0  0  0  # atno 17342 bound_to 10162
  140.6967  143.7731  150.7338 LP  0  0  0  0  0  0  0  0  0  0  0  0  # atno 17343 bound_to 10162
  156.8855  130.5194  149.5288 LP  0  0  0  0  0  0  0  0  0  0  0  0  # atno 17370 bound_to 10713
  156.0747  130.5772  150.9452 LP  0  0  0  0  0  0  0  0  0  0  0  0  # atno 17371 bound_to 10713
  141.2111  133.6703  156.6560 LP  0  0  0  0  0  0  0  0  0  0  0  0  # atno 17394 bound_to 11000
  140.3190  134.8023  157.4237 LP  0  0  0  0  0  0  0  0  0  0  0  0  # atno 17395 bound_to 11000

$$$$
