AV-unprocessed.smi:1994|AV-procd|sdf|8072|dock3
  -GOLD-   2272010283D 1   1.00000     0.00000
 Structure written by MMmdl.
 39 41  0  0  0  0  0  0  0  0  1 V2000
  153.6734  143.3025  163.1431 C   0  0  0  0  0  0  0  0  0  0  0  0
  152.9031  143.3856  161.8635 C   0  0  0  0  0  0  0  0  0  0  0  0
  152.2793  144.4998  161.4803 N   0  0  0  0  0  0  0  0  0  0  0  0
  151.7048  144.1277  160.2801 C   0  0  0  0  0  0  0  0  0  0  0  0
  150.9068  144.8651  159.3763 C   0  0  0  0  0  0  0  0  0  0  0  0
  150.4237  144.2633  158.1956 C   0  0  0  0  0  0  0  0  0  0  0  0
  150.7326  142.9194  157.9015 C   0  0  0  0  0  0  0  0  0  0  0  0
  151.5279  142.1675  158.7874 C   0  0  0  0  0  0  0  0  0  0  0  0
  152.0061  142.7720  159.9655 C   0  0  0  0  0  0  0  0  0  0  0  0
  152.7934  142.3272  161.0236 N   0  0  0  0  0  0  0  0  0  0  0  0
  153.3659  140.9967  161.1802 C   0  0  0  0  0  0  0  0  0  0  0  0
  154.4761  140.6998  160.1517 C   0  0  2  0  0  0  0  0  0  0  0  0
  154.0090  139.7725  159.1921 O   0  0  0  0  0  0  0  0  0  0  0  0
  155.7407  140.1233  160.8045 C   0  0  0  0  0  0  0  0  0  0  0  0
  155.4747  138.7956  161.2373 O   0  0  0  0  0  0  0  0  0  0  0  0
  155.4363  138.5449  162.5927 C   0  0  0  0  0  0  0  0  0  0  0  0
  156.0462  139.3704  163.5717 C   0  0  0  0  0  0  0  0  0  0  0  0
  155.9568  139.0418  164.9385 C   0  0  0  0  0  0  0  0  0  0  0  0
  155.2609  137.8883  165.3441 C   0  0  0  0  0  0  0  0  0  0  0  0
  154.6530  137.0629  164.3804 C   0  0  0  0  0  0  0  0  0  0  0  0
  154.7405  137.3911  163.0135 C   0  0  0  0  0  0  0  0  0  0  0  0
  154.1505  136.5882  162.0958 F   0  0  0  0  0  0  0  0  0  0  0  0
  153.6666  144.2650  163.6559 H   0  0  0  0  0  0  0  0  0  0  0  0
  154.7092  143.0268  162.9477 H   0  0  0  0  0  0  0  0  0  0  0  0
  153.2274  142.5596  163.8046 H   0  0  0  0  0  0  0  0  0  0  0  0
  150.6650  145.8953  159.5924 H   0  0  0  0  0  0  0  0  0  0  0  0
  149.8133  144.8359  157.5125 H   0  0  0  0  0  0  0  0  0  0  0  0
  150.3584  142.4660  156.9952 H   0  0  0  0  0  0  0  0  0  0  0  0
  151.7685  141.1388  158.5638 H   0  0  0  0  0  0  0  0  0  0  0  0
  153.7516  140.8995  162.1952 H   0  0  0  0  0  0  0  0  0  0  0  0
  152.5647  140.2617  161.0933 H   0  0  0  0  0  0  0  0  0  0  0  0
  154.7396  141.6138  159.6190 H   0  0  0  0  0  0  0  0  0  0  0  0
  153.1280  139.5206  159.4236 H   0  0  0  0  0  0  0  0  0  0  0  0
  156.5689  140.1394  160.0937 H   0  0  0  0  0  0  0  0  0  0  0  0
  156.0197  140.7349  161.6643 H   0  0  0  0  0  0  0  0  0  0  0  0
  156.5881  140.2637  163.3008 H   0  0  0  0  0  0  0  0  0  0  0  0
  156.4232  139.6773  165.6772 H   0  0  0  0  0  0  0  0  0  0  0  0
  155.1932  137.6371  166.3924 H   0  0  0  0  0  0  0  0  0  0  0  0
  154.1181  136.1768  164.6892 H   0  0  0  0  0  0  0  0  0  0  0  0
  1  2  1  0  0  0  0
  1 23  1  0  0  0  0
  1 24  1  0  0  0  0
  1 25  1  0  0  0  0
  2 10  1  0  0  0  0
  2  3  2  0  0  0  0
  3  4  1  0  0  0  0
  4  9  2  0  0  0  0
  4  5  1  0  0  0  0
  5  6  2  0  0  0  0
  5 26  1  0  0  0  0
  6  7  1  0  0  0  0
  6 27  1  0  0  0  0
  7  8  2  0  0  0  0
  7 28  1  0  0  0  0
  8  9  1  0  0  0  0
  8 29  1  0  0  0  0
  9 10  1  0  0  0  0
 10 11  1  0  0  0  0
 11 12  1  0  0  0  0
 11 30  1  0  0  0  0
 11 31  1  0  0  0  0
 12 13  1  0  0  0  0
 12 14  1  0  0  0  0
 12 32  1  0  0  0  0
 13 33  1  0  0  0  0
 14 15  1  0  0  0  0
 14 34  1  0  0  0  0
 14 35  1  0  0  0  0
 15 16  1  0  0  0  0
 16 21  1  0  0  0  0
 16 17  2  0  0  0  0
 17 18  1  0  0  0  0
 17 36  1  0  0  0  0
 18 19  2  0  0  0  0
 18 37  1  0  0  0  0
 19 20  1  0  0  0  0
 19 38  1  0  0  0  0
 20 21  2  0  0  0  0
 20 39  1  0  0  0  0
 21 22  1  0  0  0  0
M  END
> <s_m_source_file>
AV-unprocessed.smi

> <i_m_source_file_index>
1994

> <i_lp_mmshare_version>
43012

> <i_f3d_flags>
0

> <s_epik_input>
W2NIXTFbY0hdW2NIXVtjSF1jKGMxMiluKGMobjIpW0NIM10pW0NIMl1bQ0BIXShbT0hdKVtDSDJdT2MzW2NIXVtjSF1bY0hdW2NIXWMzRg==

> <s_epik_cmdline>
J2VwaWtfcHl0aG9uJywgJy1waCcsICc3LjAnLCAnLXRuJywgJzgnLCAnLW1hJywgJzIwMCcsICctbWV0YWxfYmluZGluZycsICctaW1hZScsICc8aW5maWxlLm1hZT4nLCAnLW9tYWUnLCAnPG91dGZpbGUubWFlPic=

> <r_lp_tautomer_probability>
1

> <r_epik_Ionization_Penalty>
0.112614

> <r_epik_Ionization_Penalty_Charging>
0

> <r_epik_Ionization_Penalty_Neutral>
0.112614

> <r_epik_State_Penalty>
0.10231

> <r_epik_Charging_Adjusted_Penalty>
0.10231

> <i_epik_Tot_Q>
0

> <i_epik_Tot_abs_Q>
0

> <r_epik_Metal_State_Penalty>
0.000111664

> <b_epik_Metal_Only>
0

> <s_lp_Force_Field>
OPLS_2005

> <r_lp_Energy>
14.6988

> <b_lp_Chiralities_Consistent>
1

> <s_lp_Variant>
AV-unprocessed.smi:1994-1

> <Gold.Version>
5.8.1

> <Gold.Id.Protein>
6NUR|6NUR_protein|mol2

> <Gold.PLP.Fitness>
55.8127

> <Gold.PLP.PLP>
-55.7056

> <Gold.PLP.part.hbond>
-1.0000

> <Gold.PLP.part.metal>
0.0000

> <Gold.PLP.part.buried>
-1.8362

> <Gold.PLP.part.nonpolar>
-52.8929

> <Gold.PLP.part.repulsive>
0.1882

> <Gold.PLP.ligand.clash>
0.0000

> <Gold.PLP.ligand.torsion>
1.4641

> <Gold.PLP.Chemscore.Hbond>
0.9920

> <Gold.PLP.Chemscore.CHOScore>
0.0000

> <Gold.PLP.Chemscore.Metal>
0.0000

> <Gold.Chemscore.Hbonds>
donor molecule, donor type, donor heavy atom, donor atom, acceptor molecule, acceptor atom, score
      P1  H  7997  8008       L1    13  0.61

> <Gold.PLP.Chemscore.Internal.Correction>
0.0594

> <Gold.Rescore>
     Score         DG    S(hbond)    S(metal)    S(lipo)     H(rot)  DE(clash)    DE(int)     intcor
     16.59     -18.71       0.46        0.00     147.88       2.19       1.03       1.08       ----

> <Gold.Chemscore.Fitness>
16.5916

> <Gold.Chemscore.DG>
-18.7055

> <Gold.Chemscore.ZeroCoef>
-5.4800

> <Gold.Chemscore.Hbond>
0.4570

> <Gold.Chemscore.Metal>
0.0000

> <Gold.Chemscore.Lipo>
147.8789

> <Gold.Chemscore.Internal_Hbond>
0.0000

> <Gold.Chemscore.DEClash>
1.0348

> <Gold.Chemscore.DEInternal>
1.0792

> <Gold.Chemscore.Rot>
2.1886

> <Gold.Chemscore.Internal.Correction>
   9.000000E+99

> <Gold.Chemscore.Hbonds>
donor molecule, donor type, donor heavy atom, donor atom, acceptor molecule, acceptor atom, score
      P1  H  7997  8008       L1    13  0.40

> <Gold.Chemscore.Hbond.Weighted>
-1.5265

> <Gold.Chemscore.Metal.Weighted>
-0.0000

> <Gold.Chemscore.Lipo.Weighted>
-17.3018

> <Gold.Chemscore.Internal_Hbond.Weighted>
0.0000

> <Gold.Chemscore.DEClash.Weighted>
1.0348

> <Gold.Chemscore.DEInternal.Weighted>
1.0792

> <Gold.Chemscore.Rot.Weighted>
5.6028

> <Gold.Chemscore.Internal.Correction.Weighted>
   9.000000E+99

> <Gold.Protein.RotatedTorsions>
[ 6907 6896 6895 6894 ] final -156.43 input  -60.11 | X-H torsion
[ 7974 7965 7964 7962 ] final  159.40 input  175.53 | X-H torsion
[ 8008 7997 7996 7995 ] final -123.97 input   59.86 | X-H torsion
[ 10167 10162 10161 10158 ] final  102.77 input  -65.29 | X-H torsion
[ 10718 10713 10712 10709 ] final  166.50 input   66.30 | X-H torsion
[ 10763 10752 10751 10750 ] final -156.86 input  -60.55 | X-H torsion
[ 11005 11000 10999 10996 ] final  161.82 input  -57.11 | X-H torsion

> <Gold.Protein.ActiveResidues>
 VAL166  LYS551  ARG553  GLY616  TRP617  ASP618  TYR619  PRO620  LYS621  CYS622 
 ASP623  PHE694  ASN695  SER759  ASP760  ASP761  ALA762  ILE779  LEU786  VAL792 
 PHE793  MET794  SER795  GLU796  ALA797  LYS798  CYS799  TRP800  GLU811  SER814 

> <Gold.Protein.RotatedAtoms>
  151.2874  133.4181  159.2630 H   0  0  0  0  0  0  0  0  0  0  0  0  # atno 6907 bound_to 6896
  151.0307  134.9537  159.8120 H   0  0  0  0  0  0  0  0  0  0  0  0  # atno 6908 bound_to 6896
  152.5345  134.2835  159.9069 H   0  0  0  0  0  0  0  0  0  0  0  0  # atno 6909 bound_to 6896
  144.7792  139.7611  143.6266 H   0  0  0  0  0  0  0  0  0  0  0  0  # atno 7974 bound_to 7965
  155.1892  140.0412  157.2897 H   0  0  0  0  0  0  0  0  0  0  0  0  # atno 8008 bound_to 7997
  154.6150  140.2486  155.7592 H   0  0  0  0  0  0  0  0  0  0  0  0  # atno 8009 bound_to 7997
  156.2401  140.2907  156.0431 H   0  0  0  0  0  0  0  0  0  0  0  0  # atno 8010 bound_to 7997
  139.7321  144.7033  151.0706 H   0  0  0  0  0  0  0  0  0  0  0  0  # atno 10167 bound_to 10162
  157.0650  131.0350  151.2633 H   0  0  0  0  0  0  0  0  0  0  0  0  # atno 10718 bound_to 10713
  154.7680  135.3137  154.8246 H   0  0  0  0  0  0  0  0  0  0  0  0  # atno 10763 bound_to 10752
  153.8989  135.6818  153.4760 H   0  0  0  0  0  0  0  0  0  0  0  0  # atno 10764 bound_to 10752
  153.1289  135.4789  154.9251 H   0  0  0  0  0  0  0  0  0  0  0  0  # atno 10765 bound_to 10752
  140.2196  134.8206  157.3206 H   0  0  0  0  0  0  0  0  0  0  0  0  # atno 11005 bound_to 11000
  146.1991  139.5275  142.9755 LP  0  0  0  0  0  0  0  0  0  0  0  0  # atno 17320 bound_to 7965
  145.6097  141.0341  143.1973 LP  0  0  0  0  0  0  0  0  0  0  0  0  # atno 17321 bound_to 7965
  140.7773  143.5031  150.9747 LP  0  0  0  0  0  0  0  0  0  0  0  0  # atno 17342 bound_to 10162
  139.8719  143.7182  152.3165 LP  0  0  0  0  0  0  0  0  0  0  0  0  # atno 17343 bound_to 10162
  157.4924  130.7830  149.7521 LP  0  0  0  0  0  0  0  0  0  0  0  0  # atno 17370 bound_to 10713
  155.9967  130.3904  150.2769 LP  0  0  0  0  0  0  0  0  0  0  0  0  # atno 17371 bound_to 10713
  140.1864  134.4426  155.7741 LP  0  0  0  0  0  0  0  0  0  0  0  0  # atno 17394 bound_to 11000
  141.2223  133.7007  156.7954 LP  0  0  0  0  0  0  0  0  0  0  0  0  # atno 17395 bound_to 11000

$$$$
