AV-unprocessed.smi:2838|AV-procd|sdf|10928|dock1
  -GOLD-   2272015373D 1   1.00000     0.00000
 Structure written by MMmdl.
 48 49  0  0  0  0  0  0  0  0  1 V2000
  146.4465  142.5432  154.0718 C   0  0  0  0  0  0  0  0  0  0  0  0
  147.1965  141.3120  153.5347 C   0  0  2  0  0  0  0  0  0  0  0  0
  146.1969  140.3108  153.1585 N   0  0  0  0  0  0  0  0  0  0  0  0
  146.4474  139.0383  152.8151 C   0  0  0  0  0  0  0  0  0  0  0  0
  147.5736  138.5420  152.8066 O   0  0  0  0  0  0  0  0  0  0  0  0
  145.3179  138.3973  152.4711 N   0  0  0  0  0  0  0  0  0  0  0  0
  145.1705  137.0421  152.0734 C   0  0  0  0  0  0  0  0  0  0  0  0
  144.0591  136.2236  152.3844 C   0  0  0  0  0  0  0  0  0  0  0  0
  143.9794  134.9458  151.9562 N   0  0  0  0  0  0  0  0  0  0  0  0
  144.9749  134.4791  151.1909 C   0  0  0  0  0  0  0  0  0  0  0  0
  144.9487  132.9795  150.8465 C   0  0  0  0  0  0  0  0  0  0  0  0
  146.1629  132.5842  149.9729 C   0  0  0  0  0  0  0  0  0  0  0  0
  143.6922  132.6229  150.0181 C   0  0  0  0  0  0  0  0  0  0  0  0
  144.9638  132.1556  152.1473 C   0  0  0  0  0  0  0  0  0  0  0  0
  146.0799  135.1628  150.8651 N   0  0  0  0  0  0  0  0  0  0  0  0
  146.1708  136.4430  151.2824 C   0  0  0  0  0  0  0  0  0  0  0  0
  148.2186  140.7278  154.5487 C   0  0  0  0  0  0  0  0  0  0  0  0
  147.5928  140.4722  155.9357 C   0  0  0  0  0  0  0  0  0  0  0  0
  148.6406  139.9645  156.9393 C   0  0  0  0  0  0  0  0  0  0  0  0
  149.7113  140.8945  157.0391 O   0  0  0  0  0  0  0  0  0  0  0  0
  150.4052  141.0619  155.8096 C   0  0  0  0  0  0  0  0  0  0  0  0
  149.4558  141.6311  154.7432 C   0  0  0  0  0  0  0  0  0  0  0  0
  147.1160  143.3879  154.2308 H   0  0  0  0  0  0  0  0  0  0  0  0
  145.9493  142.3250  155.0176 H   0  0  0  0  0  0  0  0  0  0  0  0
  145.6843  142.8749  153.3658 H   0  0  0  0  0  0  0  0  0  0  0  0
  147.7428  141.6317  152.6455 H   0  0  0  0  0  0  0  0  0  0  0  0
  145.2373  140.6232  153.1340 H   0  0  0  0  0  0  0  0  0  0  0  0
  144.4776  138.9559  152.4377 H   0  0  0  0  0  0  0  0  0  0  0  0
  143.2188  136.5767  152.9618 H   0  0  0  0  0  0  0  0  0  0  0  0
  146.1205  131.5328  149.6861 H   0  0  0  0  0  0  0  0  0  0  0  0
  147.1078  132.7282  150.4979 H   0  0  0  0  0  0  0  0  0  0  0  0
  146.2008  133.1726  149.0553 H   0  0  0  0  0  0  0  0  0  0  0  0
  143.6390  133.2143  149.1030 H   0  0  0  0  0  0  0  0  0  0  0  0
  142.7715  132.7941  150.5767 H   0  0  0  0  0  0  0  0  0  0  0  0
  143.6922  131.5717  149.7284 H   0  0  0  0  0  0  0  0  0  0  0  0
  144.9441  131.0849  151.9418 H   0  0  0  0  0  0  0  0  0  0  0  0
  144.1005  132.3866  152.7724 H   0  0  0  0  0  0  0  0  0  0  0  0
  145.8591  132.3619  152.7351 H   0  0  0  0  0  0  0  0  0  0  0  0
  147.0576  136.9871  150.9923 H   0  0  0  0  0  0  0  0  0  0  0  0
  148.5684  139.7703  154.1593 H   0  0  0  0  0  0  0  0  0  0  0  0
  147.1456  141.3920  156.3149 H   0  0  0  0  0  0  0  0  0  0  0  0
  146.7900  139.7386  155.8702 H   0  0  0  0  0  0  0  0  0  0  0  0
  148.1878  139.8445  157.9236 H   0  0  0  0  0  0  0  0  0  0  0  0
  149.0204  138.9855  156.6431 H   0  0  0  0  0  0  0  0  0  0  0  0
  151.2414  141.7430  155.9680 H   0  0  0  0  0  0  0  0  0  0  0  0
  150.8283  140.1099  155.4853 H   0  0  0  0  0  0  0  0  0  0  0  0
  150.0063  141.7418  153.8093 H   0  0  0  0  0  0  0  0  0  0  0  0
  149.1390  142.6323  155.0379 H   0  0  0  0  0  0  0  0  0  0  0  0
  1  2  1  0  0  0  0
  1 23  1  0  0  0  0
  1 24  1  0  0  0  0
  1 25  1  0  0  0  0
  2  3  1  0  0  0  0
  2 17  1  0  0  0  0
  2 26  1  0  0  0  0
  3  4  1  0  0  0  0
  3 27  1  0  0  0  0
  4  5  2  0  0  0  0
  4  6  1  0  0  0  0
  6  7  1  0  0  0  0
  6 28  1  0  0  0  0
  7 16  1  0  0  0  0
  7  8  2  0  0  0  0
  8  9  1  0  0  0  0
  8 29  1  0  0  0  0
  9 10  2  0  0  0  0
 10 11  1  0  0  0  0
 10 15  1  0  0  0  0
 11 12  1  0  0  0  0
 11 13  1  0  0  0  0
 11 14  1  0  0  0  0
 12 30  1  0  0  0  0
 12 31  1  0  0  0  0
 12 32  1  0  0  0  0
 13 33  1  0  0  0  0
 13 34  1  0  0  0  0
 13 35  1  0  0  0  0
 14 36  1  0  0  0  0
 14 37  1  0  0  0  0
 14 38  1  0  0  0  0
 15 16  2  0  0  0  0
 16 39  1  0  0  0  0
 17 22  1  0  0  0  0
 17 18  1  0  0  0  0
 17 40  1  0  0  0  0
 18 19  1  0  0  0  0
 18 41  1  0  0  0  0
 18 42  1  0  0  0  0
 19 20  1  0  0  0  0
 19 43  1  0  0  0  0
 19 44  1  0  0  0  0
 20 21  1  0  0  0  0
 21 22  1  0  0  0  0
 21 45  1  0  0  0  0
 21 46  1  0  0  0  0
 22 47  1  0  0  0  0
 22 48  1  0  0  0  0
M  END
> <s_m_source_file>
AV-unprocessed.smi

> <i_m_source_file_index>
2838

> <i_lp_mmshare_version>
43012

> <i_f3d_flags>
0

> <s_epik_input>
W0NIMl0xW0NIMl1PW0NIMl1bQ0gyXVtDSF0xW0NASF0oW0NIM10pW05IXUMoPU8pW05IXWMyW2NIXW5jKEMoW0NIM10pKFtDSDNdKVtDSDNdKW5bY0hdMg==

> <s_epik_cmdline>
J2VwaWtfcHl0aG9uJywgJy1waCcsICc3LjAnLCAnLXRuJywgJzgnLCAnLW1hJywgJzIwMCcsICctbWV0YWxfYmluZGluZycsICctaW1hZScsICc8aW5maWxlLm1hZT4nLCAnLW9tYWUnLCAnPG91dGZpbGUubWFlPic=

> <r_lp_tautomer_probability>
1

> <r_epik_Ionization_Penalty>
2.74753e-05

> <r_epik_Ionization_Penalty_Charging>
0

> <r_epik_Ionization_Penalty_Neutral>
2.74753e-05

> <r_epik_State_Penalty>
-0

> <r_epik_Charging_Adjusted_Penalty>
0

> <i_epik_Tot_Q>
0

> <i_epik_Tot_abs_Q>
0

> <r_epik_Metal_State_Penalty>
-0

> <b_epik_Metal_Only>
0

> <s_lp_Force_Field>
OPLS_2005

> <r_lp_Energy>
9.68517

> <b_lp_Chiralities_Consistent>
1

> <s_lp_Variant>
AV-unprocessed.smi:2838-1

> <Gold.Version>
5.8.1

> <Gold.Id.Protein>
6NUR|6NUR_protein|mol2

> <Gold.PLP.Fitness>
39.9279

> <Gold.PLP.PLP>
-32.7647

> <Gold.PLP.part.hbond>
-2.9212

> <Gold.PLP.part.metal>
0.0000

> <Gold.PLP.part.buried>
0.4925

> <Gold.PLP.part.nonpolar>
-32.2887

> <Gold.PLP.part.repulsive>
3.4945

> <Gold.PLP.ligand.clash>
0.0000

> <Gold.PLP.ligand.torsion>
0.5887

> <Gold.PLP.Chemscore.Hbond>
2.0000

> <Gold.PLP.Chemscore.CHOScore>
0.7283

> <Gold.PLP.Chemscore.Metal>
0.0000

> <Gold.Chemscore.Hbonds>
donor molecule, donor type, donor heavy atom, donor atom, acceptor molecule, acceptor atom, score
      L1  H     3    27       P1 10175  0.99
      L1  H     6    28       P1 10175  1.00
      L1  C    16    39       P1  7948  0.72

> <Gold.PLP.Chemscore.Internal.Correction>
0.1556

> <Gold.Rescore>
     Score         DG    S(hbond)    S(metal)    S(lipo)     H(rot)  DE(clash)    DE(int)     intcor
     12.96     -17.86       1.75        0.00      85.00       1.34       2.45       2.45       ----

> <Gold.Chemscore.Fitness>
12.9639

> <Gold.Chemscore.DG>
-17.8633

> <Gold.Chemscore.ZeroCoef>
-5.4800

> <Gold.Chemscore.Hbond>
1.7534

> <Gold.Chemscore.Metal>
0.0000

> <Gold.Chemscore.Lipo>
85.0034

> <Gold.Chemscore.Internal_Hbond>
0.0000

> <Gold.Chemscore.DEClash>
2.4479

> <Gold.Chemscore.DEInternal>
2.4516

> <Gold.Chemscore.Rot>
1.3354

> <Gold.Chemscore.Internal.Correction>
   9.000000E+99

> <Gold.Chemscore.Hbonds>
donor molecule, donor type, donor heavy atom, donor atom, acceptor molecule, acceptor atom, score
      L1  H     3    27       P1 10175  0.80
      L1  H     6    28       P1 10175  0.96

> <Gold.Chemscore.Hbond.Weighted>
-5.8564

> <Gold.Chemscore.Metal.Weighted>
-0.0000

> <Gold.Chemscore.Lipo.Weighted>
-9.9454

> <Gold.Chemscore.Internal_Hbond.Weighted>
0.0000

> <Gold.Chemscore.DEClash.Weighted>
2.4479

> <Gold.Chemscore.DEInternal.Weighted>
2.4516

> <Gold.Chemscore.Rot.Weighted>
3.4185

> <Gold.Chemscore.Internal.Correction.Weighted>
   9.000000E+99

> <Gold.Protein.RotatedTorsions>
[ 6907 6896 6895 6894 ] final   -0.92 input  -60.11 | X-H torsion
[ 7974 7965 7964 7962 ] final   81.79 input  175.53 | X-H torsion
[ 8008 7997 7996 7995 ] final  -66.65 input   59.86 | X-H torsion
[ 10167 10162 10161 10158 ] final -131.16 input  -65.29 | X-H torsion
[ 10718 10713 10712 10709 ] final  129.83 input   66.30 | X-H torsion
[ 10763 10752 10751 10750 ] final -146.25 input  -60.55 | X-H torsion
[ 11005 11000 10999 10996 ] final  -23.52 input  -57.11 | X-H torsion

> <Gold.Protein.ActiveResidues>
 VAL166  LYS551  ARG553  GLY616  TRP617  ASP618  TYR619  PRO620  LYS621  CYS622 
 ASP623  PHE694  ASN695  SER759  ASP760  ASP761  ALA762  ILE779  LEU786  VAL792 
 PHE793  MET794  SER795  GLU796  ALA797  LYS798  CYS799  TRP800  GLU811  SER814 

> <Gold.Protein.RotatedAtoms>
  151.5545  135.1067  159.9957 H   0  0  0  0  0  0  0  0  0  0  0  0  # atno 6907 bound_to 6896
  152.4476  133.7562  159.6732 H   0  0  0  0  0  0  0  0  0  0  0  0  # atno 6908 bound_to 6896
  150.8395  133.7891  159.3090 H   0  0  0  0  0  0  0  0  0  0  0  0  # atno 6909 bound_to 6896
  145.6335  139.2410  143.2071 H   0  0  0  0  0  0  0  0  0  0  0  0  # atno 7974 bound_to 7965
  154.4748  140.0908  156.7235 H   0  0  0  0  0  0  0  0  0  0  0  0  # atno 8008 bound_to 7997
  155.4626  140.3461  155.4296 H   0  0  0  0  0  0  0  0  0  0  0  0  # atno 8009 bound_to 7997
  156.1098  140.1445  156.9342 H   0  0  0  0  0  0  0  0  0  0  0  0  # atno 8010 bound_to 7997
  139.9218  143.6374  152.2552 H   0  0  0  0  0  0  0  0  0  0  0  0  # atno 10167 bound_to 10162
  157.5118  131.1097  150.9282 H   0  0  0  0  0  0  0  0  0  0  0  0  # atno 10718 bound_to 10713
  154.8345  135.3391  154.6633 H   0  0  0  0  0  0  0  0  0  0  0  0  # atno 10763 bound_to 10752
  153.7249  135.6956  153.5008 H   0  0  0  0  0  0  0  0  0  0  0  0  # atno 10764 bound_to 10752
  153.2354  135.4402  155.0593 H   0  0  0  0  0  0  0  0  0  0  0  0  # atno 10765 bound_to 10752
  140.8759  133.7688  156.0243 H   0  0  0  0  0  0  0  0  0  0  0  0  # atno 11005 bound_to 11000
  146.1338  140.7150  142.9399 LP  0  0  0  0  0  0  0  0  0  0  0  0  # atno 17320 bound_to 7965
  144.7184  140.4291  143.7026 LP  0  0  0  0  0  0  0  0  0  0  0  0  # atno 17321 bound_to 7965
  139.6855  144.7652  151.1531 LP  0  0  0  0  0  0  0  0  0  0  0  0  # atno 17342 bound_to 10162
  140.7660  143.5663  150.9044 LP  0  0  0  0  0  0  0  0  0  0  0  0  # atno 17343 bound_to 10162
  156.9920  130.5567  149.5304 LP  0  0  0  0  0  0  0  0  0  0  0  0  # atno 17370 bound_to 10713
  156.0294  130.5386  150.8494 LP  0  0  0  0  0  0  0  0  0  0  0  0  # atno 17371 bound_to 10713
  140.8518  134.2944  157.5272 LP  0  0  0  0  0  0  0  0  0  0  0  0  # atno 17394 bound_to 11000
  139.8715  134.9472  156.3960 LP  0  0  0  0  0  0  0  0  0  0  0  0  # atno 17395 bound_to 11000

$$$$
