AV-unprocessed.smi:3030|AV-procd|sdf|11533|dock3
  -GOLD-   2272016483D 1   1.00000     0.00000
 Structure written by MMmdl.
 52 53  0  0  0  0  0  0  0  0  1 V2000
  147.3940  140.9767  154.5959 C   0  0  0  0  0  0  0  0  0  0  0  0
  148.8787  141.1411  154.2521 C   0  0  0  0  0  0  0  0  0  0  0  0
  149.6718  140.0227  154.7410 N   0  0  0  0  0  0  0  0  0  0  0  0
  150.7222  140.2158  155.6325 C   0  0  0  0  0  0  0  0  0  0  0  0
  151.4681  139.2193  156.1475 C   0  0  0  0  0  0  0  0  0  0  0  0
  151.1733  137.8233  155.7661 C   0  0  0  0  0  0  0  0  0  0  0  0
  151.8422  136.8891  156.2078 O   0  0  0  0  0  0  0  0  0  0  0  0
  150.0370  137.6158  154.8302 C   0  0  0  0  0  0  0  0  0  0  0  0
  149.7637  136.2886  154.4638 N   0  0  0  0  0  0  0  0  0  0  0  0
  149.7067  135.1915  155.2398 C   0  0  0  0  0  0  0  0  0  0  0  0
  149.9459  135.1512  156.4463 O   0  0  0  0  0  0  0  0  0  0  0  0
  149.3575  134.1180  154.5158 N   0  0  0  0  0  0  0  0  0  0  0  0
  149.2144  132.7488  155.0104 C   0  0  2  0  0  0  0  0  0  0  0  0
  150.4874  132.4001  155.8111 C   0  0  0  0  0  0  0  0  0  0  0  0
  150.5130  130.9447  156.3125 C   0  0  1  0  0  0  0  0  0  0  0  0
  149.5426  130.7005  157.4819 C   0  0  0  0  0  0  0  0  0  0  0  0
  150.2895  129.9754  155.1388 C   0  0  0  0  0  0  0  0  0  0  0  0
  149.0058  130.2943  154.3566 C   0  0  0  0  0  0  0  0  0  0  0  0
  148.9845  131.7520  153.8375 C   0  0  1  0  0  0  0  0  0  0  0  0
  147.7294  132.0695  152.9691 C   0  0  0  0  0  0  0  0  0  0  0  0
  147.1254  130.8408  152.2637 C   0  0  0  0  0  0  0  0  0  0  0  0
  147.9858  133.1999  151.9573 C   0  0  0  0  0  0  0  0  0  0  0  0
  149.3718  138.7104  154.3810 C   0  0  0  0  0  0  0  0  0  0  0  0
  146.8143  141.8213  154.2236 H   0  0  0  0  0  0  0  0  0  0  0  0
  147.2435  140.9190  155.6743 H   0  0  0  0  0  0  0  0  0  0  0  0
  146.9848  140.0695  154.1503 H   0  0  0  0  0  0  0  0  0  0  0  0
  149.0012  141.2294  153.1721 H   0  0  0  0  0  0  0  0  0  0  0  0
  149.2576  142.0701  154.6794 H   0  0  0  0  0  0  0  0  0  0  0  0
  150.9077  141.2499  155.8855 H   0  0  0  0  0  0  0  0  0  0  0  0
  152.2777  139.4174  156.8345 H   0  0  0  0  0  0  0  0  0  0  0  0
  149.6109  136.1497  153.4756 H   0  0  0  0  0  0  0  0  0  0  0  0
  149.1825  134.2565  153.5311 H   0  0  0  0  0  0  0  0  0  0  0  0
  148.3691  132.6882  155.6961 H   0  0  0  0  0  0  0  0  0  0  0  0
  151.3616  132.5633  155.1786 H   0  0  0  0  0  0  0  0  0  0  0  0
  150.5978  133.0837  156.6542 H   0  0  0  0  0  0  0  0  0  0  0  0
  151.5135  130.7548  156.7032 H   0  0  0  0  0  0  0  0  0  0  0  0
  148.5039  130.8669  157.1978 H   0  0  0  0  0  0  0  0  0  0  0  0
  149.7643  131.3646  158.3177 H   0  0  0  0  0  0  0  0  0  0  0  0
  149.6239  129.6768  157.8480 H   0  0  0  0  0  0  0  0  0  0  0  0
  151.1410  130.0338  154.4596 H   0  0  0  0  0  0  0  0  0  0  0  0
  150.2612  128.9466  155.4993 H   0  0  0  0  0  0  0  0  0  0  0  0
  148.9278  129.5938  153.5260 H   0  0  0  0  0  0  0  0  0  0  0  0
  148.1418  130.1067  154.9934 H   0  0  0  0  0  0  0  0  0  0  0  0
  149.8470  131.8569  153.1769 H   0  0  0  0  0  0  0  0  0  0  0  0
  146.9580  132.4563  153.6344 H   0  0  0  0  0  0  0  0  0  0  0  0
  147.8026  130.4297  151.5157 H   0  0  0  0  0  0  0  0  0  0  0  0
  146.2011  131.1072  151.7507 H   0  0  0  0  0  0  0  0  0  0  0  0
  146.8808  130.0461  152.9671 H   0  0  0  0  0  0  0  0  0  0  0  0
  148.6736  132.8934  151.1694 H   0  0  0  0  0  0  0  0  0  0  0  0
  148.4040  134.0807  152.4448 H   0  0  0  0  0  0  0  0  0  0  0  0
  147.0574  133.5053  151.4738 H   0  0  0  0  0  0  0  0  0  0  0  0
  148.5564  138.6518  153.6770 H   0  0  0  0  0  0  0  0  0  0  0  0
  1  2  1  0  0  0  0
  1 24  1  0  0  0  0
  1 25  1  0  0  0  0
  1 26  1  0  0  0  0
  2  3  1  0  0  0  0
  2 27  1  0  0  0  0
  2 28  1  0  0  0  0
  3 23  1  0  0  0  0
  3  4  1  0  0  0  0
  4  5  2  0  0  0  0
  4 29  1  0  0  0  0
  5  6  1  0  0  0  0
  5 30  1  0  0  0  0
  6  7  2  0  0  0  0
  6  8  1  0  0  0  0
  8  9  1  0  0  0  0
  8 23  2  0  0  0  0
  9 10  1  0  0  0  0
  9 31  1  0  0  0  0
 10 11  2  0  0  0  0
 10 12  1  0  0  0  0
 12 13  1  0  0  0  0
 12 32  1  0  0  0  0
 13 19  1  0  0  0  0
 13 14  1  0  0  0  0
 13 33  1  0  0  0  0
 14 15  1  0  0  0  0
 14 34  1  0  0  0  0
 14 35  1  0  0  0  0
 15 16  1  0  0  0  0
 15 17  1  0  0  0  0
 15 36  1  0  0  0  0
 16 37  1  0  0  0  0
 16 38  1  0  0  0  0
 16 39  1  0  0  0  0
 17 18  1  0  0  0  0
 17 40  1  0  0  0  0
 17 41  1  0  0  0  0
 18 19  1  0  0  0  0
 18 42  1  0  0  0  0
 18 43  1  0  0  0  0
 19 20  1  0  0  0  0
 19 44  1  0  0  0  0
 20 21  1  0  0  0  0
 20 22  1  0  0  0  0
 20 45  1  0  0  0  0
 21 46  1  0  0  0  0
 21 47  1  0  0  0  0
 21 48  1  0  0  0  0
 22 49  1  0  0  0  0
 22 50  1  0  0  0  0
 22 51  1  0  0  0  0
 23 52  1  0  0  0  0
M  END
> <s_m_source_file>
AV-unprocessed.smi

> <i_m_source_file_index>
3030

> <i_lp_mmshare_version>
43012

> <i_f3d_flags>
0

> <s_epik_input>
W0NIM11bQ0gyXW4xW2NIXVtjSF1jKD1PKWMoW2NIXTEpW05IXUMoPU8pW05IXVtDQEBIXTJbQ0gyXVtDQEBIXShbQ0gzXSlbQ0gyXVtDSDJdW0NASF0yW0NIXShbQ0gzXSlbQ0gzXQ==

> <s_epik_cmdline>
J2VwaWtfcHl0aG9uJywgJy1waCcsICc3LjAnLCAnLXRuJywgJzgnLCAnLW1hJywgJzIwMCcsICctbWV0YWxfYmluZGluZycsICctaW1hZScsICc8aW5maWxlLm1hZT4nLCAnLW9tYWUnLCAnPG91dGZpbGUubWFlPic=

> <r_lp_tautomer_probability>
1

> <r_epik_Ionization_Penalty>
0.00147933

> <r_epik_Ionization_Penalty_Charging>
0.00145753

> <r_epik_Ionization_Penalty_Neutral>
2.17987e-05

> <r_epik_State_Penalty>
0.00097457

> <r_epik_Charging_Adjusted_Penalty>
0.0024321

> <i_epik_Tot_Q>
0

> <i_epik_Tot_abs_Q>
0

> <r_epik_Metal_State_Penalty>
-0

> <b_epik_Metal_Only>
0

> <s_lp_Force_Field>
OPLS_2005

> <r_lp_Energy>
11.9489

> <b_lp_Chiralities_Consistent>
1

> <s_lp_Variant>
AV-unprocessed.smi:3030-1

> <Gold.Version>
5.8.1

> <Gold.Id.Protein>
6NUR|6NUR_protein|mol2

> <Gold.PLP.Fitness>
45.4140

> <Gold.PLP.PLP>
-41.6518

> <Gold.PLP.part.hbond>
-2.6126

> <Gold.PLP.part.metal>
0.0000

> <Gold.PLP.part.buried>
-0.3093

> <Gold.PLP.part.nonpolar>
-38.3114

> <Gold.PLP.part.repulsive>
0.1144

> <Gold.PLP.ligand.clash>
0.0000

> <Gold.PLP.ligand.torsion>
1.0571

> <Gold.PLP.Chemscore.Hbond>
1.9280

> <Gold.PLP.Chemscore.CHOScore>
0.0000

> <Gold.PLP.Chemscore.Metal>
0.0000

> <Gold.Chemscore.Hbonds>
donor molecule, donor type, donor heavy atom, donor atom, acceptor molecule, acceptor atom, score
      L1  H     9    31       P1  7948  1.00
      P1  H 10752 10763       L1     7  0.49

> <Gold.PLP.Chemscore.Internal.Correction>
0.0924

> <Gold.Rescore>
     Score         DG    S(hbond)    S(metal)    S(lipo)     H(rot)  DE(clash)    DE(int)     intcor
     13.01     -17.85       1.77        0.00      82.86       1.27       0.06       4.78       ----

> <Gold.Chemscore.Fitness>
13.0130

> <Gold.Chemscore.DG>
-17.8500

> <Gold.Chemscore.ZeroCoef>
-5.4800

> <Gold.Chemscore.Hbond>
1.7732

> <Gold.Chemscore.Metal>
0.0000

> <Gold.Chemscore.Lipo>
82.8633

> <Gold.Chemscore.Internal_Hbond>
0.0000

> <Gold.Chemscore.DEClash>
0.0605

> <Gold.Chemscore.DEInternal>
4.7766

> <Gold.Chemscore.Rot>
1.2685

> <Gold.Chemscore.Internal.Correction>
   9.000000E+99

> <Gold.Chemscore.Hbonds>
donor molecule, donor type, donor heavy atom, donor atom, acceptor molecule, acceptor atom, score
      L1  H     9    31       P1  7948  0.35
      P1  H 10752 10763       L1     7  0.49

> <Gold.Chemscore.Hbond.Weighted>
-5.9224

> <Gold.Chemscore.Metal.Weighted>
-0.0000

> <Gold.Chemscore.Lipo.Weighted>
-9.6950

> <Gold.Chemscore.Internal_Hbond.Weighted>
0.0000

> <Gold.Chemscore.DEClash.Weighted>
0.0605

> <Gold.Chemscore.DEInternal.Weighted>
4.7766

> <Gold.Chemscore.Rot.Weighted>
3.2474

> <Gold.Chemscore.Internal.Correction.Weighted>
   9.000000E+99

> <Gold.Protein.RotatedTorsions>
[ 6907 6896 6895 6894 ] final  -14.04 input  -60.11 | X-H torsion
[ 7974 7965 7964 7962 ] final -100.53 input  175.53 | X-H torsion
[ 8008 7997 7996 7995 ] final  108.48 input   59.86 | X-H torsion
[ 10167 10162 10161 10158 ] final  104.53 input  -65.29 | X-H torsion
[ 10718 10713 10712 10709 ] final -178.46 input   66.30 | X-H torsion
[ 10763 10752 10751 10750 ] final   81.28 input  -60.55 | X-H torsion
[ 11005 11000 10999 10996 ] final   97.64 input  -57.11 | X-H torsion

> <Gold.Protein.ActiveResidues>
 VAL166  LYS551  ARG553  GLY616  TRP617  ASP618  TYR619  PRO620  LYS621  CYS622 
 ASP623  PHE694  ASN695  SER759  ASP760  ASP761  ALA762  ILE779  LEU786  VAL792 
 PHE793  MET794  SER795  GLU796  ALA797  LYS798  CYS799  TRP800  GLU811  SER814 

> <Gold.Protein.RotatedAtoms>
  151.3455  135.0873  159.9385 H   0  0  0  0  0  0  0  0  0  0  0  0  # atno 6907 bound_to 6896
  152.5200  133.9404  159.7634 H   0  0  0  0  0  0  0  0  0  0  0  0  # atno 6908 bound_to 6896
  150.9770  133.6231  159.2758 H   0  0  0  0  0  0  0  0  0  0  0  0  # atno 6909 bound_to 6896
  145.2933  140.9358  143.2865 H   0  0  0  0  0  0  0  0  0  0  0  0  # atno 7974 bound_to 7965
  156.1906  140.3075  155.9325 H   0  0  0  0  0  0  0  0  0  0  0  0  # atno 8008 bound_to 7997
  155.3181  140.0454  157.3055 H   0  0  0  0  0  0  0  0  0  0  0  0  # atno 8009 bound_to 7997
  154.5448  140.2273  155.8591 H   0  0  0  0  0  0  0  0  0  0  0  0  # atno 8010 bound_to 7997
  139.7169  144.7066  151.0935 H   0  0  0  0  0  0  0  0  0  0  0  0  # atno 10167 bound_to 10162
  156.8446  130.9698  151.3097 H   0  0  0  0  0  0  0  0  0  0  0  0  # atno 10718 bound_to 10713
  153.1104  135.4771  154.9024 H   0  0  0  0  0  0  0  0  0  0  0  0  # atno 10763 bound_to 10752
  154.7474  135.3097  154.8622 H   0  0  0  0  0  0  0  0  0  0  0  0  # atno 10764 bound_to 10752
  153.9213  135.6854  153.4801 H   0  0  0  0  0  0  0  0  0  0  0  0  # atno 10765 bound_to 10752
  139.8775  134.9010  156.4337 H   0  0  0  0  0  0  0  0  0  0  0  0  # atno 11005 bound_to 11000
  144.9154  139.4477  143.6567 LP  0  0  0  0  0  0  0  0  0  0  0  0  # atno 17320 bound_to 7965
  146.3177  139.7985  142.8970 LP  0  0  0  0  0  0  0  0  0  0  0  0  # atno 17321 bound_to 7965
  140.7745  143.5217  150.9528 LP  0  0  0  0  0  0  0  0  0  0  0  0  # atno 17342 bound_to 10162
  139.8904  143.6961  152.3146 LP  0  0  0  0  0  0  0  0  0  0  0  0  # atno 17343 bound_to 10162
  157.6337  130.8749  149.9319 LP  0  0  0  0  0  0  0  0  0  0  0  0  # atno 17370 bound_to 10713
  156.0861  130.3668  150.0484 LP  0  0  0  0  0  0  0  0  0  0  0  0  # atno 17371 bound_to 10713
  140.9049  133.7753  155.9723 LP  0  0  0  0  0  0  0  0  0  0  0  0  # atno 17394 bound_to 11000
  140.8611  134.2840  157.5234 LP  0  0  0  0  0  0  0  0  0  0  0  0  # atno 17395 bound_to 11000

$$$$
