AV-unprocessed.smi:2947|AV-procd|sdf|11282|dock10
  -GOLD-   2272016173D 1   1.00000     0.00000
 Structure written by MMmdl.
 33 34  0  0  0  0  0  0  0  0  1 V2000
  150.7278  140.6641  156.5052 O   0  0  0  0  0  0  0  0  0  0  0  0
  150.1892  141.7438  156.2592 C   0  0  0  0  0  0  0  0  0  0  0  0
  149.1827  141.9307  155.3872 N   0  0  0  0  0  0  0  0  0  0  0  0
  148.5338  140.9633  154.5742 C   0  0  0  0  0  0  0  0  0  0  0  0
  147.5013  141.4684  153.7519 C   0  0  0  0  0  0  0  0  0  0  0  0
  146.7956  140.5898  152.9071 C   0  0  0  0  0  0  0  0  0  0  0  0
  147.1411  139.2265  152.9059 C   0  0  0  0  0  0  0  0  0  0  0  0
  148.1813  138.8057  153.7549 C   0  0  0  0  0  0  0  0  0  0  0  0
  148.8587  139.6459  154.5654 N   0  0  0  0  0  0  0  0  0  0  0  0
  150.5443  142.8976  156.8437 N   0  0  0  0  0  0  0  0  0  0  0  0
  151.6035  143.0492  157.8371 C   0  0  0  0  0  0  0  0  0  0  0  0
  151.5857  141.8732  158.8360 C   0  0  0  0  0  0  0  0  0  0  0  0
  152.6431  142.0545  159.9370 C   0  0  0  0  0  0  0  0  0  0  0  0
  152.4678  143.3970  160.6640 C   0  0  0  0  0  0  0  0  0  0  0  0
  152.4920  144.5709  159.6727 C   0  0  0  0  0  0  0  0  0  0  0  0
  151.4338  144.3928  158.5716 C   0  0  0  0  0  0  0  0  0  0  0  0
  148.8412  142.8757  155.2929 H   0  0  0  0  0  0  0  0  0  0  0  0
  147.2490  142.5187  153.7649 H   0  0  0  0  0  0  0  0  0  0  0  0
  146.0036  140.9566  152.2711 H   0  0  0  0  0  0  0  0  0  0  0  0
  146.6234  138.5221  152.2720 H   0  0  0  0  0  0  0  0  0  0  0  0
  148.4775  137.7675  153.7842 H   0  0  0  0  0  0  0  0  0  0  0  0
  150.0466  143.7358  156.5816 H   0  0  0  0  0  0  0  0  0  0  0  0
  152.5689  143.0632  157.3268 H   0  0  0  0  0  0  0  0  0  0  0  0
  150.5985  141.7915  159.2933 H   0  0  0  0  0  0  0  0  0  0  0  0
  151.7623  140.9318  158.3143 H   0  0  0  0  0  0  0  0  0  0  0  0
  152.5798  141.2332  160.6515 H   0  0  0  0  0  0  0  0  0  0  0  0
  153.6397  142.0047  159.4968 H   0  0  0  0  0  0  0  0  0  0  0  0
  151.5228  143.3974  161.2086 H   0  0  0  0  0  0  0  0  0  0  0  0
  153.2546  143.5224  161.4086 H   0  0  0  0  0  0  0  0  0  0  0  0
  152.3228  145.5085  160.2029 H   0  0  0  0  0  0  0  0  0  0  0  0
  153.4813  144.6464  159.2194 H   0  0  0  0  0  0  0  0  0  0  0  0
  151.5015  145.2184  157.8623 H   0  0  0  0  0  0  0  0  0  0  0  0
  150.4391  144.4486  159.0167 H   0  0  0  0  0  0  0  0  0  0  0  0
  1  2  2  0  0  0  0
  2  3  1  0  0  0  0
  2 10  1  0  0  0  0
  3  4  1  0  0  0  0
  3 17  1  0  0  0  0
  4  9  1  0  0  0  0
  4  5  2  0  0  0  0
  5  6  1  0  0  0  0
  5 18  1  0  0  0  0
  6  7  2  0  0  0  0
  6 19  1  0  0  0  0
  7  8  1  0  0  0  0
  7 20  1  0  0  0  0
  8  9  2  0  0  0  0
  8 21  1  0  0  0  0
 10 11  1  0  0  0  0
 10 22  1  0  0  0  0
 11 16  1  0  0  0  0
 11 12  1  0  0  0  0
 11 23  1  0  0  0  0
 12 13  1  0  0  0  0
 12 24  1  0  0  0  0
 12 25  1  0  0  0  0
 13 14  1  0  0  0  0
 13 26  1  0  0  0  0
 13 27  1  0  0  0  0
 14 15  1  0  0  0  0
 14 28  1  0  0  0  0
 14 29  1  0  0  0  0
 15 16  1  0  0  0  0
 15 30  1  0  0  0  0
 15 31  1  0  0  0  0
 16 32  1  0  0  0  0
 16 33  1  0  0  0  0
M  END
> <s_m_source_file>
AV-unprocessed.smi

> <i_m_source_file_index>
2947

> <i_lp_mmshare_version>
43012

> <i_f3d_flags>
0

> <s_epik_input>
W0NIMl0xW0NIMl1bQ0gyXVtDSDJdW0NIMl1bQ0hdMVtOSF1DKD1PKVtOSF1jMltjSF1bY0hdW2NIXVtjSF1uMg==

> <s_epik_cmdline>
J2VwaWtfcHl0aG9uJywgJy1waCcsICc3LjAnLCAnLXRuJywgJzgnLCAnLW1hJywgJzIwMCcsICctbWV0YWxfYmluZGluZycsICctaW1hZScsICc8aW5maWxlLm1hZT4nLCAnLW9tYWUnLCAnPG91dGZpbGUubWFlPic=

> <r_lp_tautomer_probability>
1

> <r_epik_Ionization_Penalty>
5.26121e-05

> <r_epik_Ionization_Penalty_Charging>
0

> <r_epik_Ionization_Penalty_Neutral>
5.26121e-05

> <r_epik_State_Penalty>
-0

> <r_epik_Charging_Adjusted_Penalty>
0

> <i_epik_Tot_Q>
0

> <i_epik_Tot_abs_Q>
0

> <r_epik_Metal_State_Penalty>
-0

> <b_epik_Metal_Only>
0

> <s_lp_Force_Field>
OPLS_2005

> <r_lp_Energy>
11.3585

> <b_lp_Chiralities_Consistent>
1

> <s_lp_Variant>
AV-unprocessed.smi:2947-1

> <Gold.Version>
5.8.1

> <Gold.Id.Protein>
6NUR|6NUR_protein|mol2

> <Gold.PLP.Fitness>
43.8543

> <Gold.PLP.PLP>
-35.4684

> <Gold.PLP.part.hbond>
-2.0000

> <Gold.PLP.part.metal>
0.0000

> <Gold.PLP.part.buried>
-3.3606

> <Gold.PLP.part.nonpolar>
-30.6809

> <Gold.PLP.part.repulsive>
0.3305

> <Gold.PLP.ligand.clash>
0.0000

> <Gold.PLP.ligand.torsion>
0.2482

> <Gold.PLP.Chemscore.Hbond>
2.0000

> <Gold.PLP.Chemscore.CHOScore>
0.9598

> <Gold.PLP.Chemscore.Metal>
0.0000

> <Gold.Chemscore.Hbonds>
donor molecule, donor type, donor heavy atom, donor atom, acceptor molecule, acceptor atom, score
      L1  H     3    17       P1  8028  1.00
      L1  H    10    22       P1  8028  1.00
      L1  C     8    21       P1  7948  0.96

> <Gold.PLP.Chemscore.Internal.Correction>
0.0031

> <Gold.Rescore>
     Score         DG    S(hbond)    S(metal)    S(lipo)     H(rot)  DE(clash)    DE(int)     intcor
     17.76     -20.74       1.94        0.00      97.04       1.00       0.05       2.92       ----

> <Gold.Chemscore.Fitness>
17.7644

> <Gold.Chemscore.DG>
-20.7393

> <Gold.Chemscore.ZeroCoef>
-5.4800

> <Gold.Chemscore.Hbond>
1.9359

> <Gold.Chemscore.Metal>
0.0000

> <Gold.Chemscore.Lipo>
97.0363

> <Gold.Chemscore.Internal_Hbond>
0.0000

> <Gold.Chemscore.DEClash>
0.0541

> <Gold.Chemscore.DEInternal>
2.9207

> <Gold.Chemscore.Rot>
1.0000

> <Gold.Chemscore.Internal.Correction>
   9.000000E+99

> <Gold.Chemscore.Hbonds>
donor molecule, donor type, donor heavy atom, donor atom, acceptor molecule, acceptor atom, score
      L1  H     3    17       P1  8028  0.98
      L1  H    10    22       P1  8028  0.99

> <Gold.Chemscore.Hbond.Weighted>
-6.4660

> <Gold.Chemscore.Metal.Weighted>
-0.0000

> <Gold.Chemscore.Lipo.Weighted>
-11.3532

> <Gold.Chemscore.Internal_Hbond.Weighted>
0.0000

> <Gold.Chemscore.DEClash.Weighted>
0.0541

> <Gold.Chemscore.DEInternal.Weighted>
2.9207

> <Gold.Chemscore.Rot.Weighted>
2.5600

> <Gold.Chemscore.Internal.Correction.Weighted>
   9.000000E+99

> <Gold.Protein.RotatedTorsions>
[ 6907 6896 6895 6894 ] final  -49.55 input  -60.11 | X-H torsion
[ 7974 7965 7964 7962 ] final   48.20 input  175.53 | X-H torsion
[ 8008 7997 7996 7995 ] final  -31.17 input   59.86 | X-H torsion
[ 10167 10162 10161 10158 ] final -135.45 input  -65.29 | X-H torsion
[ 10718 10713 10712 10709 ] final  -64.54 input   66.30 | X-H torsion
[ 10763 10752 10751 10750 ] final -172.14 input  -60.55 | X-H torsion
[ 11005 11000 10999 10996 ] final -138.30 input  -57.11 | X-H torsion

> <Gold.Protein.ActiveResidues>
 VAL166  LYS551  ARG553  GLY616  TRP617  ASP618  TYR619  PRO620  LYS621  CYS622 
 ASP623  PHE694  ASN695  SER759  ASP760  ASP761  ALA762  ILE779  LEU786  VAL792 
 PHE793  MET794  SER795  GLU796  ALA797  LYS798  CYS799  TRP800  GLU811  SER814 

> <Gold.Protein.RotatedAtoms>
  150.8795  134.8183  159.7213 H   0  0  0  0  0  0  0  0  0  0  0  0  # atno 6907 bound_to 6896
  152.4768  134.4819  159.9678 H   0  0  0  0  0  0  0  0  0  0  0  0  # atno 6908 bound_to 6896
  151.4896  133.3489  159.2886 H   0  0  0  0  0  0  0  0  0  0  0  0  # atno 6909 bound_to 6896
  146.0226  139.4669  142.9887 H   0  0  0  0  0  0  0  0  0  0  0  0  # atno 7974 bound_to 7965
  154.4223  140.1771  156.1523 H   0  0  0  0  0  0  0  0  0  0  0  0  # atno 8008 bound_to 7997
  155.9905  140.3369  155.6724 H   0  0  0  0  0  0  0  0  0  0  0  0  # atno 8009 bound_to 7997
  155.6379  140.0677  157.2619 H   0  0  0  0  0  0  0  0  0  0  0  0  # atno 8010 bound_to 7997
  139.8777  143.6878  152.2631 H   0  0  0  0  0  0  0  0  0  0  0  0  # atno 10167 bound_to 10162
  156.0723  130.4235  150.1434 H   0  0  0  0  0  0  0  0  0  0  0  0  # atno 10718 bound_to 10713
  154.6226  135.2877  155.0308 H   0  0  0  0  0  0  0  0  0  0  0  0  # atno 10763 bound_to 10752
  154.1498  135.6505  153.4965 H   0  0  0  0  0  0  0  0  0  0  0  0  # atno 10764 bound_to 10752
  153.0243  135.5353  154.7022 H   0  0  0  0  0  0  0  0  0  0  0  0  # atno 10765 bound_to 10752
  140.8629  134.2147  157.4697 H   0  0  0  0  0  0  0  0  0  0  0  0  # atno 11005 bound_to 11000
  145.7168  141.0088  143.1424 LP  0  0  0  0  0  0  0  0  0  0  0  0  # atno 17320 bound_to 7965
  144.6996  139.8823  143.7448 LP  0  0  0  0  0  0  0  0  0  0  0  0  # atno 17321 bound_to 7965
  139.7225  144.7600  151.0933 LP  0  0  0  0  0  0  0  0  0  0  0  0  # atno 17342 bound_to 10162
  140.7750  143.5190  150.9559 LP  0  0  0  0  0  0  0  0  0  0  0  0  # atno 17343 bound_to 10162
  156.9483  130.9766  151.3503 LP  0  0  0  0  0  0  0  0  0  0  0  0  # atno 17370 bound_to 10713
  157.5800  130.8370  149.8510 LP  0  0  0  0  0  0  0  0  0  0  0  0  # atno 17371 bound_to 10713
  139.8708  134.9738  156.4822 LP  0  0  0  0  0  0  0  0  0  0  0  0  # atno 17394 bound_to 11000
  140.8662  133.8022  155.9317 LP  0  0  0  0  0  0  0  0  0  0  0  0  # atno 17395 bound_to 11000

$$$$
