AV-unprocessed.smi:1675|AV-procd|sdf|6717|dock8
  -GOLD-   22720 7463D 1   1.00000     0.00000
 Structure written by MMmdl.
 40 42  0  0  0  0  0  0  0  0  1 V2000
  149.8682  142.3294  155.8447 N   0  0  0  0  0  0  0  0  0  0  0  0
  149.5432  141.3802  154.9634 C   0  0  0  0  0  0  0  0  0  0  0  0
  150.2665  140.4086  154.7524 O   0  0  0  0  0  0  0  0  0  0  0  0
  148.2186  141.5487  154.2127 C   0  0  0  0  0  0  0  0  0  0  0  0
  147.5131  140.2851  154.0848 N   0  0  0  0  0  0  0  0  0  0  0  0
  147.9368  139.1320  153.4525 C   0  0  0  0  0  0  0  0  0  0  0  0
  146.9181  138.2337  153.5993 C   0  0  0  0  0  0  0  0  0  0  0  0
  146.8190  136.9005  153.1276 N   0  0  0  0  0  0  0  0  0  0  0  0
  145.7179  136.1306  153.0722 C   0  0  0  0  0  0  0  0  0  0  0  0
  144.5975  136.4970  153.4261 O   0  0  0  0  0  0  0  0  0  0  0  0
  145.9232  134.7101  152.5337 C   0  0  0  0  0  0  0  0  0  0  0  0
  145.0151  134.3766  151.3286 C   0  0  2  0  0  0  0  0  0  0  0  0
  143.6462  133.7439  151.6697 C   0  0  0  0  0  0  0  0  0  0  0  0
  143.5979  132.5097  150.7492 C   0  0  2  0  0  0  0  0  0  0  0  0
  144.5489  131.4336  151.3037 C   0  0  0  0  0  0  0  0  0  0  0  0
  145.9382  132.0162  150.9863 C   0  0  0  0  0  0  0  0  0  0  0  0
  145.6007  133.3645  150.3160 C   0  0  1  0  0  0  0  0  0  0  0  0
  144.3549  132.9937  149.5172 C   0  0  0  0  0  0  0  0  0  0  0  0
  145.9066  138.9110  154.3284 C   0  0  0  0  0  0  0  0  0  0  0  0
  146.2758  140.1477  154.6244 N   0  0  0  0  0  0  0  0  0  0  0  0
  150.7340  142.2574  156.3592 H   0  0  0  0  0  0  0  0  0  0  0  0
  149.2521  143.1153  155.9935 H   0  0  0  0  0  0  0  0  0  0  0  0
  147.5688  142.2562  154.7303 H   0  0  0  0  0  0  0  0  0  0  0  0
  148.4150  141.9590  153.2210 H   0  0  0  0  0  0  0  0  0  0  0  0
  148.8979  139.0662  152.9642 H   0  0  0  0  0  0  0  0  0  0  0  0
  147.6754  136.4899  152.7849 H   0  0  0  0  0  0  0  0  0  0  0  0
  146.9670  134.5820  152.2429 H   0  0  0  0  0  0  0  0  0  0  0  0
  145.7453  134.0147  153.3541 H   0  0  0  0  0  0  0  0  0  0  0  0
  144.8319  135.3049  150.7836 H   0  0  0  0  0  0  0  0  0  0  0  0
  143.5531  133.4654  152.7202 H   0  0  0  0  0  0  0  0  0  0  0  0
  142.8367  134.4373  151.4389 H   0  0  0  0  0  0  0  0  0  0  0  0
  142.5883  132.1447  150.5584 H   0  0  0  0  0  0  0  0  0  0  0  0
  144.4029  131.2618  152.3708 H   0  0  0  0  0  0  0  0  0  0  0  0
  144.4052  130.4830  150.7889 H   0  0  0  0  0  0  0  0  0  0  0  0
  146.5661  132.1160  151.8709 H   0  0  0  0  0  0  0  0  0  0  0  0
  146.4667  131.3666  150.2875 H   0  0  0  0  0  0  0  0  0  0  0  0
  146.4178  133.7703  149.7189 H   0  0  0  0  0  0  0  0  0  0  0  0
  144.5295  132.2081  148.7801 H   0  0  0  0  0  0  0  0  0  0  0  0
  143.8816  133.8457  149.0255 H   0  0  0  0  0  0  0  0  0  0  0  0
  144.9383  138.5544  154.6473 H   0  0  0  0  0  0  0  0  0  0  0  0
  1  2  1  0  0  0  0
  1 21  1  0  0  0  0
  1 22  1  0  0  0  0
  2  3  2  0  0  0  0
  2  4  1  0  0  0  0
  4  5  1  0  0  0  0
  4 23  1  0  0  0  0
  4 24  1  0  0  0  0
  5 20  1  0  0  0  0
  5  6  1  0  0  0  0
  6  7  2  0  0  0  0
  6 25  1  0  0  0  0
  7  8  1  0  0  0  0
  7 19  1  0  0  0  0
  8  9  1  0  0  0  0
  8 26  1  0  0  0  0
  9 10  2  0  0  0  0
  9 11  1  0  0  0  0
 11 12  1  0  0  0  0
 11 27  1  0  0  0  0
 11 28  1  0  0  0  0
 12 17  1  0  0  0  0
 12 13  1  0  0  0  0
 12 29  1  0  0  0  0
 13 14  1  0  0  0  0
 13 30  1  0  0  0  0
 13 31  1  0  0  0  0
 14 18  1  0  0  0  0
 14 15  1  0  0  0  0
 14 32  1  0  0  0  0
 15 16  1  0  0  0  0
 15 33  1  0  0  0  0
 15 34  1  0  0  0  0
 16 17  1  0  0  0  0
 16 35  1  0  0  0  0
 16 36  1  0  0  0  0
 17 18  1  0  0  0  0
 17 37  1  0  0  0  0
 18 38  1  0  0  0  0
 18 39  1  0  0  0  0
 19 20  2  0  0  0  0
 19 40  1  0  0  0  0
M  END
> <s_m_source_file>
AV-unprocessed.smi

> <i_m_source_file_index>
1675

> <i_lp_mmshare_version>
43012

> <i_f3d_flags>
0

> <s_epik_input>
W05IMl1DKD1PKVtDSDJdbjFbY0hdYyhbY0hdbjEpW05IXUMoPU8pW0NIMl1bQ0BIXShbQ0gyXVtDQEBIXTIzKVtDQEBIXShbQ0gyXTMpW0NIMl1bQ0gyXTI=

> <s_epik_cmdline>
J2VwaWtfcHl0aG9uJywgJy1waCcsICc3LjAnLCAnLXRuJywgJzgnLCAnLW1hJywgJzIwMCcsICctbWV0YWxfYmluZGluZycsICctaW1hZScsICc8aW5maWxlLm1hZT4nLCAnLW9tYWUnLCAnPG91dGZpbGUubWFlPic=

> <r_lp_tautomer_probability>
1

> <r_epik_Ionization_Penalty>
2.17494e-05

> <r_epik_Ionization_Penalty_Charging>
0

> <r_epik_Ionization_Penalty_Neutral>
2.17494e-05

> <r_epik_State_Penalty>
-0

> <r_epik_Charging_Adjusted_Penalty>
0

> <i_epik_Tot_Q>
0

> <i_epik_Tot_abs_Q>
0

> <r_epik_Metal_State_Penalty>
-0

> <b_epik_Metal_Only>
0

> <s_lp_Force_Field>
OPLS_2005

> <r_lp_Energy>
53.8438

> <b_lp_Chiralities_Consistent>
1

> <s_lp_Variant>
AV-unprocessed.smi:1675-3

> <Gold.Version>
5.8.1

> <Gold.Id.Protein>
6NUR|6NUR_protein|mol2

> <Gold.PLP.Fitness>
44.7532

> <Gold.PLP.PLP>
-34.1575

> <Gold.PLP.part.hbond>
-3.0000

> <Gold.PLP.part.metal>
0.0000

> <Gold.PLP.part.buried>
-2.9001

> <Gold.PLP.part.nonpolar>
-28.6168

> <Gold.PLP.part.repulsive>
0.4596

> <Gold.PLP.ligand.clash>
0.0000

> <Gold.PLP.ligand.torsion>
0.7060

> <Gold.PLP.Chemscore.Hbond>
3.0000

> <Gold.PLP.Chemscore.CHOScore>
1.0000

> <Gold.PLP.Chemscore.Metal>
0.0000

> <Gold.Chemscore.Hbonds>
donor molecule, donor type, donor heavy atom, donor atom, acceptor molecule, acceptor atom, score
      L1  H     1    22       P1  8028  0.96
      L1  H     8    26       P1  7948  1.00
      P1  H  7989  7998       L1     3  1.00
      L1  C     6    25       P1  7957  1.00

> <Gold.PLP.Chemscore.Internal.Correction>
0.0077

> <Gold.Rescore>
     Score         DG    S(hbond)    S(metal)    S(lipo)     H(rot)  DE(clash)    DE(int)     intcor
     14.84     -17.22       2.47        0.00      76.79       2.15       0.52       1.86       ----

> <Gold.Chemscore.Fitness>
14.8381

> <Gold.Chemscore.DG>
-17.2183

> <Gold.Chemscore.ZeroCoef>
-5.4800

> <Gold.Chemscore.Hbond>
2.4715

> <Gold.Chemscore.Metal>
0.0000

> <Gold.Chemscore.Lipo>
76.7858

> <Gold.Chemscore.Internal_Hbond>
0.0000

> <Gold.Chemscore.DEClash>
0.5223

> <Gold.Chemscore.DEInternal>
1.8579

> <Gold.Chemscore.Rot>
2.1486

> <Gold.Chemscore.Internal.Correction>
   9.000000E+99

> <Gold.Chemscore.Hbonds>
donor molecule, donor type, donor heavy atom, donor atom, acceptor molecule, acceptor atom, score
      L1  H     1    22       P1  8028  0.92
      L1  H     8    26       P1  7948  0.98
      P1  H  7989  7998       L1     3  0.67

> <Gold.Chemscore.Hbond.Weighted>
-8.2547

> <Gold.Chemscore.Metal.Weighted>
-0.0000

> <Gold.Chemscore.Lipo.Weighted>
-8.9839

> <Gold.Chemscore.Internal_Hbond.Weighted>
0.0000

> <Gold.Chemscore.DEClash.Weighted>
0.5223

> <Gold.Chemscore.DEInternal.Weighted>
1.8579

> <Gold.Chemscore.Rot.Weighted>
5.5004

> <Gold.Chemscore.Internal.Correction.Weighted>
   9.000000E+99

> <Gold.Protein.RotatedTorsions>
[ 6907 6896 6895 6894 ] final   76.12 input  -60.11 | X-H torsion
[ 7974 7965 7964 7962 ] final   22.27 input  175.53 | X-H torsion
[ 8008 7997 7996 7995 ] final   62.56 input   59.86 | X-H torsion
[ 10167 10162 10161 10158 ] final   99.15 input  -65.29 | X-H torsion
[ 10718 10713 10712 10709 ] final   71.53 input   66.30 | X-H torsion
[ 10763 10752 10751 10750 ] final  -72.93 input  -60.55 | X-H torsion
[ 11005 11000 10999 10996 ] final  152.07 input  -57.11 | X-H torsion

> <Gold.Protein.ActiveResidues>
 VAL166  LYS551  ARG553  GLY616  TRP617  ASP618  TYR619  PRO620  LYS621  CYS622 
 ASP623  PHE694  ASN695  SER759  ASP760  ASP761  ALA762  ILE779  LEU786  VAL792 
 PHE793  MET794  SER795  GLU796  ALA797  LYS798  CYS799  TRP800  GLU811  SER814 

> <Gold.Protein.RotatedAtoms>
  152.5058  134.4018  159.9418 H   0  0  0  0  0  0  0  0  0  0  0  0  # atno 6907 bound_to 6896
  151.3982  133.3760  159.2737 H   0  0  0  0  0  0  0  0  0  0  0  0  # atno 6908 bound_to 6896
  150.9381  134.8814  159.7654 H   0  0  0  0  0  0  0  0  0  0  0  0  # atno 6909 bound_to 6896
  146.2036  139.7910  142.8743 H   0  0  0  0  0  0  0  0  0  0  0  0  # atno 7974 bound_to 7965
  155.6162  140.3495  155.4638 H   0  0  0  0  0  0  0  0  0  0  0  0  # atno 8008 bound_to 7997
  156.0115  140.1234  157.0473 H   0  0  0  0  0  0  0  0  0  0  0  0  # atno 8009 bound_to 7997
  154.4282  140.1080  156.5822 H   0  0  0  0  0  0  0  0  0  0  0  0  # atno 8010 bound_to 7997
  139.7644  144.6944  151.0246 H   0  0  0  0  0  0  0  0  0  0  0  0  # atno 10167 bound_to 10162
  157.6456  130.9533  150.0802 H   0  0  0  0  0  0  0  0  0  0  0  0  # atno 10718 bound_to 10713
  154.4524  135.5914  153.6201 H   0  0  0  0  0  0  0  0  0  0  0  0  # atno 10763 bound_to 10752
  152.9815  135.6024  154.3587 H   0  0  0  0  0  0  0  0  0  0  0  0  # atno 10764 bound_to 10752
  154.3450  135.2841  155.2381 H   0  0  0  0  0  0  0  0  0  0  0  0  # atno 10765 bound_to 10752
  140.1275  134.8823  157.2158 H   0  0  0  0  0  0  0  0  0  0  0  0  # atno 11005 bound_to 11000
  145.3398  141.0285  143.3399 LP  0  0  0  0  0  0  0  0  0  0  0  0  # atno 17320 bound_to 7965
  144.8740  139.4997  143.6754 LP  0  0  0  0  0  0  0  0  0  0  0  0  # atno 17321 bound_to 7965
  140.7809  143.4660  151.0211 LP  0  0  0  0  0  0  0  0  0  0  0  0  # atno 17342 bound_to 10162
  139.8346  143.7645  152.3180 LP  0  0  0  0  0  0  0  0  0  0  0  0  # atno 17343 bound_to 10162
  156.1780  130.3649  149.9073 LP  0  0  0  0  0  0  0  0  0  0  0  0  # atno 17370 bound_to 10713
  156.7032  130.8941  151.3601 LP  0  0  0  0  0  0  0  0  0  0  0  0  # atno 17371 bound_to 10713
  140.2885  134.3268  155.7322 LP  0  0  0  0  0  0  0  0  0  0  0  0  # atno 17394 bound_to 11000
  141.2164  133.7520  156.9468 LP  0  0  0  0  0  0  0  0  0  0  0  0  # atno 17395 bound_to 11000

$$$$
