AV-unprocessed.smi:129|AV-procd|sdf|1157|dock5
  -GOLD-   2262018293D 1   1.00000     0.00000
 Structure written by MMmdl.
 58 61  0  0  0  0  0  0  0  0  1 V2000
  150.3262  141.9299  156.4454 C   0  0  0  0  0  0  0  0  0  0  0  0
  151.1385  141.6126  157.5662 O   0  0  0  0  0  0  0  0  0  0  0  0
  151.4424  142.6186  158.4621 C   0  0  0  0  0  0  0  0  0  0  0  0
  150.9143  143.9321  158.3703 C   0  0  0  0  0  0  0  0  0  0  0  0
  151.2599  144.9116  159.3193 C   0  0  0  0  0  0  0  0  0  0  0  0
  152.1294  144.5920  160.3756 C   0  0  0  0  0  0  0  0  0  0  0  0
  152.6604  143.2941  160.4794 C   0  0  0  0  0  0  0  0  0  0  0  0
  152.3337  142.3072  159.5176 C   0  0  0  0  0  0  0  0  0  0  0  0
  152.8308  140.9756  159.5875 N   0  0  0  0  0  0  0  0  0  0  0  0
  153.6940  140.4453  160.4750 C   0  0  0  0  0  0  0  0  0  0  0  0
  154.1643  141.0431  161.4430 O   0  0  0  0  0  0  0  0  0  0  0  0
  154.0344  138.9999  160.2432 C   0  0  0  0  0  0  0  0  0  0  0  0
  154.1141  138.4987  158.9256 C   0  0  0  0  0  0  0  0  0  0  0  0
  154.4011  137.1403  158.6936 C   0  0  0  0  0  0  0  0  0  0  0  0
  154.6144  136.2579  159.7717 C   0  0  0  0  0  0  0  0  0  0  0  0
  154.8705  134.8965  159.4534 N   0  0  0  0  0  0  0  0  0  0  0  0
  154.5265  134.2053  158.3516 C   0  0  0  0  0  0  0  0  0  0  0  0
  153.8640  134.6615  157.4189 O   0  0  0  0  0  0  0  0  0  0  0  0
  155.0009  132.7431  158.3319 C   0  0  0  0  0  0  0  0  0  0  0  0
  154.3197  131.9102  157.3165 N   0  0  0  0  0  0  0  0  0  0  0  0
  155.1041  131.2656  156.3280 C   0  0  0  0  0  0  0  0  0  0  0  0
  156.3290  131.3930  156.3012 O   0  0  0  0  0  0  0  0  0  0  0  0
  154.3647  130.4534  155.3686 C   0  0  0  0  0  0  0  0  0  0  0  0
  155.0257  129.8189  154.3855 F   0  0  0  0  0  0  0  0  0  0  0  0
  153.0240  130.3287  155.4498 C   0  0  0  0  0  0  0  0  0  0  0  0
  152.2725  130.9476  156.4330 N   0  0  0  0  0  0  0  0  0  0  0  0
  150.7684  130.7907  156.5164 C   0  0  2  0  0  0  0  0  0  0  0  0
  150.2576  129.8577  155.4015 C   0  0  0  0  0  0  0  0  0  0  0  0
  149.1611  130.6786  154.7517 C   0  0  0  0  0  0  0  0  0  0  0  0
  149.6409  132.1004  155.0002 C   0  0  0  0  0  0  0  0  0  0  0  0
  150.1489  132.0310  156.3260 O   0  0  0  0  0  0  0  0  0  0  0  0
  152.9140  131.7635  157.3901 C   0  0  0  0  0  0  0  0  0  0  0  0
  152.2619  132.3271  158.2720 O   0  0  0  0  0  0  0  0  0  0  0  0
  154.5137  136.7514  161.0945 C   0  0  0  0  0  0  0  0  0  0  0  0
  154.2272  138.1111  161.3260 C   0  0  0  0  0  0  0  0  0  0  0  0
  150.1795  141.0335  155.8433 H   0  0  0  0  0  0  0  0  0  0  0  0
  150.7989  142.6798  155.8098 H   0  0  0  0  0  0  0  0  0  0  0  0
  149.3415  142.2842  156.7532 H   0  0  0  0  0  0  0  0  0  0  0  0
  150.2375  144.2160  157.5790 H   0  0  0  0  0  0  0  0  0  0  0  0
  150.8506  145.9080  159.2404 H   0  0  0  0  0  0  0  0  0  0  0  0
  152.3854  145.3405  161.1110 H   0  0  0  0  0  0  0  0  0  0  0  0
  153.3064  143.0735  161.3151 H   0  0  0  0  0  0  0  0  0  0  0  0
  152.5782  140.3808  158.8115 H   0  0  0  0  0  0  0  0  0  0  0  0
  153.9549  139.1535  158.0809 H   0  0  0  0  0  0  0  0  0  0  0  0
  154.4566  136.7779  157.6774 H   0  0  0  0  0  0  0  0  0  0  0  0
  155.3307  134.3649  160.1780 H   0  0  0  0  0  0  0  0  0  0  0  0
  156.0813  132.7324  158.1793 H   0  0  0  0  0  0  0  0  0  0  0  0
  154.8729  132.3248  159.3315 H   0  0  0  0  0  0  0  0  0  0  0  0
  152.5388  129.7157  154.7060 H   0  0  0  0  0  0  0  0  0  0  0  0
  150.5645  130.4337  157.5274 H   0  0  0  0  0  0  0  0  0  0  0  0
  151.0546  129.6513  154.6851 H   0  0  0  0  0  0  0  0  0  0  0  0
  149.8997  128.9144  155.8149 H   0  0  0  0  0  0  0  0  0  0  0  0
  149.0274  130.4516  153.6938 H   0  0  0  0  0  0  0  0  0  0  0  0
  148.2122  130.5104  155.2624 H   0  0  0  0  0  0  0  0  0  0  0  0
  150.4363  132.3690  154.3038 H   0  0  0  0  0  0  0  0  0  0  0  0
  148.8429  132.8378  154.9134 H   0  0  0  0  0  0  0  0  0  0  0  0
  154.6314  136.1035  161.9491 H   0  0  0  0  0  0  0  0  0  0  0  0
  154.1440  138.4578  162.3460 H   0  0  0  0  0  0  0  0  0  0  0  0
  1  2  1  0  0  0  0
  1 36  1  0  0  0  0
  1 37  1  0  0  0  0
  1 38  1  0  0  0  0
  2  3  1  0  0  0  0
  3  8  1  0  0  0  0
  3  4  2  0  0  0  0
  4  5  1  0  0  0  0
  4 39  1  0  0  0  0
  5  6  2  0  0  0  0
  5 40  1  0  0  0  0
  6  7  1  0  0  0  0
  6 41  1  0  0  0  0
  7  8  2  0  0  0  0
  7 42  1  0  0  0  0
  8  9  1  0  0  0  0
  9 10  1  0  0  0  0
  9 43  1  0  0  0  0
 10 11  2  0  0  0  0
 10 12  1  0  0  0  0
 12 35  1  0  0  0  0
 12 13  2  0  0  0  0
 13 14  1  0  0  0  0
 13 44  1  0  0  0  0
 14 15  2  0  0  0  0
 14 45  1  0  0  0  0
 15 16  1  0  0  0  0
 15 34  1  0  0  0  0
 16 17  1  0  0  0  0
 16 46  1  0  0  0  0
 17 18  2  0  0  0  0
 17 19  1  0  0  0  0
 19 20  1  0  0  0  0
 19 47  1  0  0  0  0
 19 48  1  0  0  0  0
 20 32  1  0  0  0  0
 20 21  1  0  0  0  0
 21 22  2  0  0  0  0
 21 23  1  0  0  0  0
 23 24  1  0  0  0  0
 23 25  2  0  0  0  0
 25 26  1  0  0  0  0
 25 49  1  0  0  0  0
 26 27  1  0  0  0  0
 26 32  1  0  0  0  0
 27 31  1  0  0  0  0
 27 28  1  0  0  0  0
 27 50  1  0  0  0  0
 28 29  1  0  0  0  0
 28 51  1  0  0  0  0
 28 52  1  0  0  0  0
 29 30  1  0  0  0  0
 29 53  1  0  0  0  0
 29 54  1  0  0  0  0
 30 31  1  0  0  0  0
 30 55  1  0  0  0  0
 30 56  1  0  0  0  0
 32 33  2  0  0  0  0
 34 35  2  0  0  0  0
 34 57  1  0  0  0  0
 35 58  1  0  0  0  0
M  END
> <s_m_source_file>
AV-unprocessed.smi

> <i_m_source_file_index>
129

> <i_lp_mmshare_version>
43012

> <i_f3d_flags>
0

> <s_epik_input>
W0NIM11PYzFbY0hdW2NIXVtjSF1bY0hdYzFbTkhdQyg9TyljMltjSF1bY0hdYyhbY0hdW2NIXTIpW05IXUMoPU8pW0NIMl1uM2MoPU8pYyhGKVtjSF1uKGMzPU8pW0NAQEhdNFtDSDJdW0NIMl1bQ0gyXU80

> <s_epik_cmdline>
J2VwaWtfcHl0aG9uJywgJy1waCcsICc3LjAnLCAnLXRuJywgJzgnLCAnLW1hJywgJzIwMCcsICctbWV0YWxfYmluZGluZycsICctaW1hZScsICc8aW5maWxlLm1hZT4nLCAnLW9tYWUnLCAnPG91dGZpbGUubWFlPic=

> <r_lp_tautomer_probability>
1

> <r_epik_Ionization_Penalty>
2.57954e-06

> <r_epik_Ionization_Penalty_Charging>
3.88729e-08

> <r_epik_Ionization_Penalty_Neutral>
2.54066e-06

> <r_epik_State_Penalty>
-0

> <r_epik_Charging_Adjusted_Penalty>
3.88729e-08

> <i_epik_Tot_Q>
0

> <i_epik_Tot_abs_Q>
0

> <r_epik_Metal_State_Penalty>
-0

> <b_epik_Metal_Only>
0

> <s_epik_Chemistry_Notes>
This compound contains an acetal/aminal-like group ( X-CH(R)-Y where X, Y are N, S, or O) that may be acid/base labile, releasing an aldehyde.

> <s_lp_Force_Field>
OPLS_2005

> <r_lp_Energy>
50.6218

> <b_lp_Chiralities_Consistent>
1

> <s_lp_Variant>
AV-unprocessed.smi:129-1

> <Gold.Version>
5.8.1

> <Gold.Id.Protein>
6NUR|6NUR_protein|mol2

> <Gold.PLP.Fitness>
60.9814

> <Gold.PLP.PLP>
-56.5815

> <Gold.PLP.part.hbond>
-2.0000

> <Gold.PLP.part.metal>
0.0000

> <Gold.PLP.part.buried>
-8.5301

> <Gold.PLP.part.nonpolar>
-46.3493

> <Gold.PLP.part.repulsive>
0.2299

> <Gold.PLP.ligand.clash>
0.0000

> <Gold.PLP.ligand.torsion>
0.8426

> <Gold.PLP.Chemscore.Hbond>
2.0000

> <Gold.PLP.Chemscore.CHOScore>
0.0000

> <Gold.PLP.Chemscore.Metal>
0.0000

> <Gold.Chemscore.Hbonds>
donor molecule, donor type, donor heavy atom, donor atom, acceptor molecule, acceptor atom, score
      P1  H  6896  6908       L1    33  0.99
      P1  H 10752 10765       L1    18  0.73

> <Gold.PLP.Chemscore.Internal.Correction>
0.0851

> <Gold.Rescore>
     Score         DG    S(hbond)    S(metal)    S(lipo)     H(rot)  DE(clash)    DE(int)     intcor
     17.04     -22.82       1.96        0.00     134.75       1.94       0.03       5.75       ----

> <Gold.Chemscore.Fitness>
17.0364

> <Gold.Chemscore.DG>
-22.8166

> <Gold.Chemscore.ZeroCoef>
-5.4800

> <Gold.Chemscore.Hbond>
1.9596

> <Gold.Chemscore.Metal>
0.0000

> <Gold.Chemscore.Lipo>
134.7490

> <Gold.Chemscore.Internal_Hbond>
0.0000

> <Gold.Chemscore.DEClash>
0.0255

> <Gold.Chemscore.DEInternal>
5.7547

> <Gold.Chemscore.Rot>
1.9430

> <Gold.Chemscore.Internal.Correction>
   9.000000E+99

> <Gold.Chemscore.Hbonds>
donor molecule, donor type, donor heavy atom, donor atom, acceptor molecule, acceptor atom, score
      P1  H  6896  6908       L1    33  0.91
      P1  H 10752 10765       L1    18  0.68

> <Gold.Chemscore.Hbond.Weighted>
-6.5451

> <Gold.Chemscore.Metal.Weighted>
-0.0000

> <Gold.Chemscore.Lipo.Weighted>
-15.7656

> <Gold.Chemscore.Internal_Hbond.Weighted>
0.0000

> <Gold.Chemscore.DEClash.Weighted>
0.0255

> <Gold.Chemscore.DEInternal.Weighted>
5.7547

> <Gold.Chemscore.Rot.Weighted>
4.9741

> <Gold.Chemscore.Internal.Correction.Weighted>
   9.000000E+99

> <Gold.Protein.RotatedTorsions>
[ 6907 6896 6895 6894 ] final   35.34 input  -60.11 | X-H torsion
[ 7974 7965 7964 7962 ] final  153.81 input  175.53 | X-H torsion
[ 8008 7997 7996 7995 ] final  106.54 input   59.86 | X-H torsion
[ 10167 10162 10161 10158 ] final   50.91 input  -65.29 | X-H torsion
[ 10718 10713 10712 10709 ] final  131.02 input   66.30 | X-H torsion
[ 10763 10752 10751 10750 ] final  -87.99 input  -60.55 | X-H torsion
[ 11005 11000 10999 10996 ] final  -32.87 input  -57.11 | X-H torsion

> <Gold.Protein.ActiveResidues>
 VAL166  LYS551  ARG553  GLY616  TRP617  ASP618  TYR619  PRO620  LYS621  CYS622 
 ASP623  PHE694  ASN695  SER759  ASP760  ASP761  ALA762  ILE779  LEU786  VAL792 
 PHE793  MET794  SER795  GLU796  ALA797  LYS798  CYS799  TRP800  GLU811  SER814 

> <Gold.Protein.RotatedAtoms>
  152.1148  134.9248  160.0565 H   0  0  0  0  0  0  0  0  0  0  0  0  # atno 6907 bound_to 6896
  152.0411  133.3973  159.4345 H   0  0  0  0  0  0  0  0  0  0  0  0  # atno 6908 bound_to 6896
  150.6845  134.3334  159.4880 H   0  0  0  0  0  0  0  0  0  0  0  0  # atno 6909 bound_to 6896
  144.8129  139.6850  143.6133 H   0  0  0  0  0  0  0  0  0  0  0  0  # atno 7974 bound_to 7965
  156.1751  140.3111  155.9045 H   0  0  0  0  0  0  0  0  0  0  0  0  # atno 8008 bound_to 7997
  155.3504  140.0470  157.3063 H   0  0  0  0  0  0  0  0  0  0  0  0  # atno 8009 bound_to 7997
  154.5282  140.2221  155.8862 H   0  0  0  0  0  0  0  0  0  0  0  0  # atno 8010 bound_to 7997
  140.2675  144.3304  150.6300 H   0  0  0  0  0  0  0  0  0  0  0  0  # atno 10167 bound_to 10162
  157.5007  131.1094  150.9431 H   0  0  0  0  0  0  0  0  0  0  0  0  # atno 10718 bound_to 10713
  154.6397  135.5393  153.7775 H   0  0  0  0  0  0  0  0  0  0  0  0  # atno 10763 bound_to 10752
  153.0327  135.6456  154.1179 H   0  0  0  0  0  0  0  0  0  0  0  0  # atno 10764 bound_to 10752
  154.1104  135.2927  155.3212 H   0  0  0  0  0  0  0  0  0  0  0  0  # atno 10765 bound_to 10752
  140.9588  133.7177  156.1336 H   0  0  0  0  0  0  0  0  0  0  0  0  # atno 11005 bound_to 11000
  146.2430  139.6040  142.9478 LP  0  0  0  0  0  0  0  0  0  0  0  0  # atno 17320 bound_to 7965
  145.5281  141.0428  143.2398 LP  0  0  0  0  0  0  0  0  0  0  0  0  # atno 17321 bound_to 7965
  140.5917  143.2168  151.7241 LP  0  0  0  0  0  0  0  0  0  0  0  0  # atno 17342 bound_to 10162
  139.4998  144.3929  152.0261 LP  0  0  0  0  0  0  0  0  0  0  0  0  # atno 17343 bound_to 10162
  157.0102  130.5634  149.5320 LP  0  0  0  0  0  0  0  0  0  0  0  0  # atno 17370 bound_to 10713
  156.0227  130.5322  150.8322 LP  0  0  0  0  0  0  0  0  0  0  0  0  # atno 17371 bound_to 10713
  140.7497  134.4058  157.5543 LP  0  0  0  0  0  0  0  0  0  0  0  0  # atno 17394 bound_to 11000
  139.8871  134.8892  156.2547 LP  0  0  0  0  0  0  0  0  0  0  0  0  # atno 17395 bound_to 11000

$$$$
