AV-unprocessed.smi:1278|AV-procd|sdf|5352|dock1
  -GOLD-   22720 4483D 1   1.00000     0.00000
 Structure written by MMmdl.
 38 39  0  0  0  0  0  0  0  0  3 V2000
  145.6667  136.3164  151.2869 C   0  0  0  0  0  0  0  0  0  0  0  0
  145.0800  135.0937  152.0140 C   0  0  1  0  0  0  0  0  0  0  0  0
  144.7398  133.9362  151.0567 C   0  0  0  0  0  0  0  0  0  0  0  0
  146.0093  133.2200  150.5746 C   0  0  0  0  0  0  0  0  0  0  0  0
  146.8808  132.7803  151.7617 C   0  0  0  0  0  0  0  0  0  0  0  0
  147.2173  133.9331  152.6363 N   0  3  2  0  0  0  0  0  0  0  0  0
  148.1817  133.5660  153.7026 C   0  0  0  0  0  0  0  0  0  0  0  0
  148.3441  134.6813  154.7531 C   0  0  0  0  0  0  0  0  0  0  0  0
  149.4582  135.5620  154.4232 N   0  0  0  0  0  0  0  0  0  0  0  0
  150.5047  135.8291  155.2176 C   0  0  0  0  0  0  0  0  0  0  0  0
  150.5803  135.3035  156.3309 O   0  0  0  0  0  0  0  0  0  0  0  0
  151.3927  136.6916  154.6751 N   0  5  0  0  0  0  0  0  0  0  0  0
  151.2552  138.0121  154.8776 C   0  0  0  0  0  0  0  0  0  0  0  0
  152.2051  138.7661  155.4424 N   0  0  0  0  0  0  0  0  0  0  0  0
  151.8529  140.1126  155.5528 C   0  0  0  0  0  0  0  0  0  0  0  0
  150.6090  140.3918  155.0521 C   0  0  0  0  0  0  0  0  0  0  0  0
  149.8391  138.9639  154.4215 S   0  0  0  0  0  0  0  0  0  0  0  0
  145.9931  134.6013  153.1560 C   0  0  0  0  0  0  0  0  0  0  0  0
  146.6264  136.0924  150.8216 H   0  0  0  0  0  0  0  0  0  0  0  0
  145.8229  137.1443  151.9792 H   0  0  0  0  0  0  0  0  0  0  0  0
  144.9926  136.6677  150.5053 H   0  0  0  0  0  0  0  0  0  0  0  0
  144.1442  135.4263  152.4652 H   0  0  0  0  0  0  0  0  0  0  0  0
  144.1021  133.2181  151.5742 H   0  0  0  0  0  0  0  0  0  0  0  0
  144.1622  134.2989  150.2055 H   0  0  0  0  0  0  0  0  0  0  0  0
  145.7385  132.3519  149.9728 H   0  0  0  0  0  0  0  0  0  0  0  0
  146.5830  133.8772  149.9204 H   0  0  0  0  0  0  0  0  0  0  0  0
  146.3669  132.0156  152.3463 H   0  0  0  0  0  0  0  0  0  0  0  0
  147.7956  132.3256  151.3794 H   0  0  0  0  0  0  0  0  0  0  0  0
  147.8789  132.6291  154.1730 H   0  0  0  0  0  0  0  0  0  0  0  0
  149.1558  133.3793  153.2485 H   0  0  0  0  0  0  0  0  0  0  0  0
  147.4241  135.2612  154.8439 H   0  0  0  0  0  0  0  0  0  0  0  0
  148.5457  134.2636  155.7386 H   0  0  0  0  0  0  0  0  0  0  0  0
  149.4396  136.0081  153.5173 H   0  0  0  0  0  0  0  0  0  0  0  0
  152.5503  140.8040  156.0016 H   0  0  0  0  0  0  0  0  0  0  0  0
  150.1023  141.3442  155.0138 H   0  0  0  0  0  0  0  0  0  0  0  0
  146.2556  135.4452  153.7931 H   0  0  0  0  0  0  0  0  0  0  0  0
  145.4462  133.8980  153.7864 H   0  0  0  0  0  0  0  0  0  0  0  0
  147.6919  134.6020  152.0468 H   0  0  0  0  0  0  0  0  0  0  0  0
  1  2  1  0  0  0  0
  1 19  1  0  0  0  0
  1 20  1  0  0  0  0
  1 21  1  0  0  0  0
  2 18  1  0  0  0  0
  2  3  1  0  0  0  0
  2 22  1  0  0  0  0
  3  4  1  0  0  0  0
  3 23  1  0  0  0  0
  3 24  1  0  0  0  0
  4  5  1  0  0  0  0
  4 25  1  0  0  0  0
  4 26  1  0  0  0  0
  5  6  1  0  0  0  0
  5 27  1  0  0  0  0
  5 28  1  0  0  0  0
  6  7  1  0  0  0  0
  6 18  1  0  0  0  0
  6 38  1  0  0  0  0
  7  8  1  0  0  0  0
  7 29  1  0  0  0  0
  7 30  1  0  0  0  0
  8  9  1  0  0  0  0
  8 31  1  0  0  0  0
  8 32  1  0  0  0  0
  9 10  1  0  0  0  0
  9 33  1  0  0  0  0
 10 11  2  0  0  0  0
 10 12  1  0  0  0  0
 12 13  1  0  0  0  0
 13 17  1  0  0  0  0
 13 14  2  0  0  0  0
 14 15  1  0  0  0  0
 15 16  2  0  0  0  0
 15 34  1  0  0  0  0
 16 17  1  0  0  0  0
 16 35  1  0  0  0  0
 18 36  1  0  0  0  0
 18 37  1  0  0  0  0
M  CHG  1   6   1
M  CHG  1  12  -1
M  END
> <s_m_source_file>
AV-unprocessed.smi

> <i_m_source_file_index>
1278

> <i_lp_mmshare_version>
43012

> <i_f3d_flags>
0

> <s_epik_input>
W0NIM11bQ0BASF0xW0NIMl1bQ0gyXVtDSDJdTihbQ0gyXTEpW0NIMl1bQ0gyXVtOSF1DKD1PKVtOSF1jMm5bY0hdW2NIXXMy

> <s_epik_cmdline>
J2VwaWtfcHl0aG9uJywgJy1waCcsICc3LjAnLCAnLXRuJywgJzgnLCAnLW1hJywgJzIwMCcsICctbWV0YWxfYmluZGluZycsICctaW1hZScsICc8aW5maWxlLm1hZT4nLCAnLW9tYWUnLCAnPG91dGZpbGUubWFlPic=

> <r_lp_tautomer_probability>
0.999

> <r_epik_Ionization_Penalty>
6.22019

> <r_epik_Ionization_Penalty_Charging>
5.38911

> <r_epik_Ionization_Penalty_Neutral>
0.831074

> <r_epik_State_Penalty>
5.38904

> <r_epik_Charging_Adjusted_Penalty>
10.7782

> <i_epik_Tot_Q>
0

> <i_epik_Tot_abs_Q>
2

> <r_epik_Metal_State_Penalty>
1.41502

> <b_epik_Metal_Only>
1

> <s_lp_Force_Field>
OPLS_2005

> <r_lp_Energy>
8.87374

> <b_lp_Chiralities_Consistent>
1

> <s_lp_Variant>
AV-unprocessed.smi:1278-6

> <Gold.Version>
5.8.1

> <Gold.Id.Protein>
6NUR|6NUR_protein|mol2

> <Gold.PLP.Fitness>
43.0592

> <Gold.PLP.PLP>
-30.9929

> <Gold.PLP.part.hbond>
-3.0000

> <Gold.PLP.part.metal>
0.0000

> <Gold.PLP.part.buried>
-2.0009

> <Gold.PLP.part.nonpolar>
-25.9778

> <Gold.PLP.part.repulsive>
0.2054

> <Gold.PLP.ligand.clash>
0.0000

> <Gold.PLP.ligand.torsion>
1.6202

> <Gold.PLP.Chemscore.Hbond>
5.0000

> <Gold.PLP.Chemscore.CHOScore>
0.0000

> <Gold.PLP.Chemscore.Metal>
0.0000

> <Gold.Chemscore.Hbonds>
donor molecule, donor type, donor heavy atom, donor atom, acceptor molecule, acceptor atom, score
      L1  H     6    38       P1  7948  2.00
      L1  H     9    33       P1  7948  1.00
      P1  H 10752 10764       L1    12  2.00

> <Gold.PLP.Chemscore.Internal.Correction>
0.3067

> <Gold.Rescore>
     Score         DG    S(hbond)    S(metal)    S(lipo)     H(rot)  DE(clash)    DE(int)     intcor
     14.80     -16.78       2.55        0.00      58.22       1.57       0.38       1.61       ----

> <Gold.Chemscore.Fitness>
14.7985

> <Gold.Chemscore.DG>
-16.7811

> <Gold.Chemscore.ZeroCoef>
-5.4800

> <Gold.Chemscore.Hbond>
2.5457

> <Gold.Chemscore.Metal>
0.0000

> <Gold.Chemscore.Lipo>
58.2186

> <Gold.Chemscore.Internal_Hbond>
0.0000

> <Gold.Chemscore.DEClash>
0.3756

> <Gold.Chemscore.DEInternal>
1.6070

> <Gold.Chemscore.Rot>
1.5676

> <Gold.Chemscore.Internal.Correction>
   9.000000E+99

> <Gold.Chemscore.Hbonds>
donor molecule, donor type, donor heavy atom, donor atom, acceptor molecule, acceptor atom, score
      L1  H     6    38       P1  7948  0.45
      L1  H     9    33       P1  7948  0.49
      P1  H 10752 10764       L1    12  0.50

> <Gold.Chemscore.Hbond.Weighted>
-8.5025

> <Gold.Chemscore.Metal.Weighted>
-0.0000

> <Gold.Chemscore.Lipo.Weighted>
-6.8116

> <Gold.Chemscore.Internal_Hbond.Weighted>
0.0000

> <Gold.Chemscore.DEClash.Weighted>
0.3756

> <Gold.Chemscore.DEInternal.Weighted>
1.6070

> <Gold.Chemscore.Rot.Weighted>
4.0130

> <Gold.Chemscore.Internal.Correction.Weighted>
   9.000000E+99

> <Gold.Protein.RotatedTorsions>
[ 6907 6896 6895 6894 ] final  168.30 input  -60.11 | X-H torsion
[ 7974 7965 7964 7962 ] final  -85.45 input  175.53 | X-H torsion
[ 8008 7997 7996 7995 ] final  158.67 input   59.86 | X-H torsion
[ 10167 10162 10161 10158 ] final  -49.38 input  -65.29 | X-H torsion
[ 10718 10713 10712 10709 ] final -176.58 input   66.30 | X-H torsion
[ 10763 10752 10751 10750 ] final  -76.55 input  -60.55 | X-H torsion
[ 11005 11000 10999 10996 ] final -178.83 input  -57.11 | X-H torsion

> <Gold.Protein.ActiveResidues>
 VAL166  LYS551  ARG553  GLY616  TRP617  ASP618  TYR619  PRO620  LYS621  CYS622 
 ASP623  PHE694  ASN695  SER759  ASP760  ASP761  ALA762  ILE779  LEU786  VAL792 
 PHE793  MET794  SER795  GLU796  ALA797  LYS798  CYS799  TRP800  GLU811  SER814 

> <Gold.Protein.RotatedAtoms>
  151.8498  133.3438  159.3669 H   0  0  0  0  0  0  0  0  0  0  0  0  # atno 6907 bound_to 6896
  150.7210  134.5310  159.5710 H   0  0  0  0  0  0  0  0  0  0  0  0  # atno 6908 bound_to 6896
  152.2801  134.7838  160.0449 H   0  0  0  0  0  0  0  0  0  0  0  0  # atno 6909 bound_to 6896
  145.4931  140.9551  143.1801 H   0  0  0  0  0  0  0  0  0  0  0  0  # atno 7974 bound_to 7965
  156.2288  140.1852  156.7295 H   0  0  0  0  0  0  0  0  0  0  0  0  # atno 8008 bound_to 7997
  154.5987  140.0639  156.9366 H   0  0  0  0  0  0  0  0  0  0  0  0  # atno 8009 bound_to 7997
  155.2212  140.3307  155.4318 H   0  0  0  0  0  0  0  0  0  0  0  0  # atno 8010 bound_to 7997
  140.6688  143.2700  151.4206 H   0  0  0  0  0  0  0  0  0  0  0  0  # atno 10167 bound_to 10162
  156.8167  130.9605  151.3113 H   0  0  0  0  0  0  0  0  0  0  0  0  # atno 10718 bound_to 10713
  154.5013  135.5794  153.6533 H   0  0  0  0  0  0  0  0  0  0  0  0  # atno 10763 bound_to 10752
  152.9879  135.6136  154.2999 H   0  0  0  0  0  0  0  0  0  0  0  0  # atno 10764 bound_to 10752
  154.2907  135.2849  155.2635 H   0  0  0  0  0  0  0  0  0  0  0  0  # atno 10765 bound_to 10752
  140.4254  134.6568  157.4685 H   0  0  0  0  0  0  0  0  0  0  0  0  # atno 11005 bound_to 11000
  144.7822  139.6501  143.7149 LP  0  0  0  0  0  0  0  0  0  0  0  0  # atno 17320 bound_to 7965
  146.2272  139.5745  142.9579 LP  0  0  0  0  0  0  0  0  0  0  0  0  # atno 17321 bound_to 7965
  139.5947  144.1423  152.2130 LP  0  0  0  0  0  0  0  0  0  0  0  0  # atno 17342 bound_to 10162
  140.0788  144.5718  150.7137 LP  0  0  0  0  0  0  0  0  0  0  0  0  # atno 17343 bound_to 10162
  157.6478  130.8859  149.9572 LP  0  0  0  0  0  0  0  0  0  0  0  0  # atno 17370 bound_to 10713
  156.1012  130.3655  150.0214 LP  0  0  0  0  0  0  0  0  0  0  0  0  # atno 17371 bound_to 10713
  140.0171  134.6602  155.9293 LP  0  0  0  0  0  0  0  0  0  0  0  0  # atno 17394 bound_to 11000
  141.1767  133.6541  156.4858 LP  0  0  0  0  0  0  0  0  0  0  0  0  # atno 17395 bound_to 11000

$$$$
