AV-unprocessed.smi:1278|AV-procd|sdf|5351|dock4
  -GOLD-   22720 4483D 1   1.00000     0.00000
 Structure written by MMmdl.
 38 39  0  0  0  0  0  0  0  0  3 V2000
  143.8284  135.8400  151.3941 C   0  0  0  0  0  0  0  0  0  0  0  0
  145.2415  135.2428  151.4484 C   0  0  2  0  0  0  0  0  0  0  0  0
  145.3063  133.8869  150.7255 C   0  0  0  0  0  0  0  0  0  0  0  0
  146.7211  133.3021  150.8188 C   0  0  0  0  0  0  0  0  0  0  0  0
  147.1806  133.2056  152.2823 C   0  0  0  0  0  0  0  0  0  0  0  0
  147.1124  134.5292  152.9535 N   0  3  2  0  0  0  0  0  0  0  0  0
  147.6740  134.4895  154.3262 C   0  0  0  0  0  0  0  0  0  0  0  0
  149.0481  133.7951  154.3774 C   0  0  0  0  0  0  0  0  0  0  0  0
  150.1306  134.7704  154.4219 N   0  0  0  0  0  0  0  0  0  0  0  0
  150.6235  135.3387  155.5314 C   0  0  0  0  0  0  0  0  0  0  0  0
  150.1429  135.0555  156.6315 O   0  0  0  0  0  0  0  0  0  0  0  0
  151.6437  136.1937  155.2969 N   0  5  0  0  0  0  0  0  0  0  0  0
  151.3887  137.4806  155.0096 C   0  0  0  0  0  0  0  0  0  0  0  0
  150.4092  137.8624  154.1818 N   0  0  0  0  0  0  0  0  0  0  0  0
  150.3185  139.2473  154.0306 C   0  0  0  0  0  0  0  0  0  0  0  0
  151.2466  139.9362  154.7656 C   0  0  0  0  0  0  0  0  0  0  0  0
  152.2653  138.8598  155.6786 S   0  0  0  0  0  0  0  0  0  0  0  0
  145.7379  135.0973  152.9014 C   0  0  0  0  0  0  0  0  0  0  0  0
  143.1064  135.1980  151.9000 H   0  0  0  0  0  0  0  0  0  0  0  0
  143.4952  135.9682  150.3638 H   0  0  0  0  0  0  0  0  0  0  0  0
  143.7968  136.8186  151.8741 H   0  0  0  0  0  0  0  0  0  0  0  0
  145.9098  135.9338  150.9322 H   0  0  0  0  0  0  0  0  0  0  0  0
  144.5927  133.1922  151.1710 H   0  0  0  0  0  0  0  0  0  0  0  0
  145.0198  134.0004  149.6793 H   0  0  0  0  0  0  0  0  0  0  0  0
  146.7478  132.3164  150.3540 H   0  0  0  0  0  0  0  0  0  0  0  0
  147.4153  133.9282  150.2566 H   0  0  0  0  0  0  0  0  0  0  0  0
  146.5636  132.4882  152.8259 H   0  0  0  0  0  0  0  0  0  0  0  0
  148.2039  132.8290  152.3097 H   0  0  0  0  0  0  0  0  0  0  0  0
  147.7257  135.5026  154.7283 H   0  0  0  0  0  0  0  0  0  0  0  0
  146.9966  133.9366  154.9788 H   0  0  0  0  0  0  0  0  0  0  0  0
  149.1170  133.1728  155.2701 H   0  0  0  0  0  0  0  0  0  0  0  0
  149.1994  133.1320  153.5253 H   0  0  0  0  0  0  0  0  0  0  0  0
  150.5500  135.0335  153.5418 H   0  0  0  0  0  0  0  0  0  0  0  0
  149.5622  139.6572  153.3778 H   0  0  0  0  0  0  0  0  0  0  0  0
  151.3916  141.0040  154.8280 H   0  0  0  0  0  0  0  0  0  0  0  0
  145.7190  136.0755  153.3805 H   0  0  0  0  0  0  0  0  0  0  0  0
  145.0598  134.4582  153.4700 H   0  0  0  0  0  0  0  0  0  0  0  0
  147.7085  135.1462  152.4207 H   0  0  0  0  0  0  0  0  0  0  0  0
  1  2  1  0  0  0  0
  1 19  1  0  0  0  0
  1 20  1  0  0  0  0
  1 21  1  0  0  0  0
  2 18  1  0  0  0  0
  2  3  1  0  0  0  0
  2 22  1  0  0  0  0
  3  4  1  0  0  0  0
  3 23  1  0  0  0  0
  3 24  1  0  0  0  0
  4  5  1  0  0  0  0
  4 25  1  0  0  0  0
  4 26  1  0  0  0  0
  5  6  1  0  0  0  0
  5 27  1  0  0  0  0
  5 28  1  0  0  0  0
  6  7  1  0  0  0  0
  6 18  1  0  0  0  0
  6 38  1  0  0  0  0
  7  8  1  0  0  0  0
  7 29  1  0  0  0  0
  7 30  1  0  0  0  0
  8  9  1  0  0  0  0
  8 31  1  0  0  0  0
  8 32  1  0  0  0  0
  9 10  1  0  0  0  0
  9 33  1  0  0  0  0
 10 11  2  0  0  0  0
 10 12  1  0  0  0  0
 12 13  1  0  0  0  0
 13 17  1  0  0  0  0
 13 14  2  0  0  0  0
 14 15  1  0  0  0  0
 15 16  2  0  0  0  0
 15 34  1  0  0  0  0
 16 17  1  0  0  0  0
 16 35  1  0  0  0  0
 18 36  1  0  0  0  0
 18 37  1  0  0  0  0
M  CHG  1   6   1
M  CHG  1  12  -1
M  END
> <s_m_source_file>
AV-unprocessed.smi

> <i_m_source_file_index>
1278

> <i_lp_mmshare_version>
43012

> <i_f3d_flags>
0

> <s_epik_input>
W0NIM11bQ0BASF0xW0NIMl1bQ0gyXVtDSDJdTihbQ0gyXTEpW0NIMl1bQ0gyXVtOSF1DKD1PKVtOSF1jMm5bY0hdW2NIXXMy

> <s_epik_cmdline>
J2VwaWtfcHl0aG9uJywgJy1waCcsICc3LjAnLCAnLXRuJywgJzgnLCAnLW1hJywgJzIwMCcsICctbWV0YWxfYmluZGluZycsICctaW1hZScsICc8aW5maWxlLm1hZT4nLCAnLW9tYWUnLCAnPG91dGZpbGUubWFlPic=

> <r_lp_tautomer_probability>
0.999

> <r_epik_Ionization_Penalty>
6.22019

> <r_epik_Ionization_Penalty_Charging>
5.38911

> <r_epik_Ionization_Penalty_Neutral>
0.831074

> <r_epik_State_Penalty>
5.38904

> <r_epik_Charging_Adjusted_Penalty>
10.7782

> <i_epik_Tot_Q>
0

> <i_epik_Tot_abs_Q>
2

> <r_epik_Metal_State_Penalty>
1.41502

> <b_epik_Metal_Only>
1

> <s_lp_Force_Field>
OPLS_2005

> <r_lp_Energy>
5.98005

> <b_lp_Chiralities_Consistent>
1

> <s_lp_Variant>
AV-unprocessed.smi:1278-5

> <Gold.Version>
5.8.1

> <Gold.Id.Protein>
6NUR|6NUR_protein|mol2

> <Gold.PLP.Fitness>
41.0428

> <Gold.PLP.PLP>
-29.3453

> <Gold.PLP.part.hbond>
-2.4438

> <Gold.PLP.part.metal>
0.0000

> <Gold.PLP.part.buried>
-2.3942

> <Gold.PLP.part.nonpolar>
-24.9728

> <Gold.PLP.part.repulsive>
0.3769

> <Gold.PLP.ligand.clash>
0.0000

> <Gold.PLP.ligand.torsion>
1.5993

> <Gold.PLP.Chemscore.Hbond>
4.0228

> <Gold.PLP.Chemscore.CHOScore>
0.9173

> <Gold.PLP.Chemscore.Metal>
0.0000

> <Gold.Chemscore.Hbonds>
donor molecule, donor type, donor heavy atom, donor atom, acceptor molecule, acceptor atom, score
      L1  H     6    38       P1  7948  2.00
      L1  H     9    33       P1  7949  0.04
      P1  H 10752 10763       L1    12  2.00
      L1  C    15    34       P1  7957  1.00

> <Gold.PLP.Chemscore.Internal.Correction>
0.0759

> <Gold.Rescore>
     Score         DG    S(hbond)    S(metal)    S(lipo)     H(rot)  DE(clash)    DE(int)     intcor
     13.49     -15.08       1.86        0.00      63.40       1.57       0.05       1.53       ----

> <Gold.Chemscore.Fitness>
13.4934

> <Gold.Chemscore.DG>
-15.0808

> <Gold.Chemscore.ZeroCoef>
-5.4800

> <Gold.Chemscore.Hbond>
1.8551

> <Gold.Chemscore.Metal>
0.0000

> <Gold.Chemscore.Lipo>
63.3997

> <Gold.Chemscore.Internal_Hbond>
0.0000

> <Gold.Chemscore.DEClash>
0.0524

> <Gold.Chemscore.DEInternal>
1.5350

> <Gold.Chemscore.Rot>
1.5676

> <Gold.Chemscore.Internal.Correction>
   9.000000E+99

> <Gold.Chemscore.Hbonds>
donor molecule, donor type, donor heavy atom, donor atom, acceptor molecule, acceptor atom, score
      L1  H     6    38       P1  7948  0.98
      P1  H 10752 10763       L1    12  0.87

> <Gold.Chemscore.Hbond.Weighted>
-6.1961

> <Gold.Chemscore.Metal.Weighted>
-0.0000

> <Gold.Chemscore.Lipo.Weighted>
-7.4178

> <Gold.Chemscore.Internal_Hbond.Weighted>
0.0000

> <Gold.Chemscore.DEClash.Weighted>
0.0524

> <Gold.Chemscore.DEInternal.Weighted>
1.5350

> <Gold.Chemscore.Rot.Weighted>
4.0130

> <Gold.Chemscore.Internal.Correction.Weighted>
   9.000000E+99

> <Gold.Protein.RotatedTorsions>
[ 6907 6896 6895 6894 ] final   75.76 input  -60.11 | X-H torsion
[ 7974 7965 7964 7962 ] final   19.09 input  175.53 | X-H torsion
[ 8008 7997 7996 7995 ] final   94.71 input   59.86 | X-H torsion
[ 10167 10162 10161 10158 ] final  166.60 input  -65.29 | X-H torsion
[ 10718 10713 10712 10709 ] final  115.76 input   66.30 | X-H torsion
[ 10763 10752 10751 10750 ] final   71.11 input  -60.55 | X-H torsion
[ 11005 11000 10999 10996 ] final  160.41 input  -57.11 | X-H torsion

> <Gold.Protein.ActiveResidues>
 VAL166  LYS551  ARG553  GLY616  TRP617  ASP618  TYR619  PRO620  LYS621  CYS622 
 ASP623  PHE694  ASN695  SER759  ASP760  ASP761  ALA762  ILE779  LEU786  VAL792 
 PHE793  MET794  SER795  GLU796  ALA797  LYS798  CYS799  TRP800  GLU811  SER814 

> <Gold.Protein.RotatedAtoms>
  152.5041  134.4071  159.9435 H   0  0  0  0  0  0  0  0  0  0  0  0  # atno 6907 bound_to 6896
  151.4037  133.3743  159.2743 H   0  0  0  0  0  0  0  0  0  0  0  0  # atno 6908 bound_to 6896
  150.9342  134.8777  159.7630 H   0  0  0  0  0  0  0  0  0  0  0  0  # atno 6909 bound_to 6896
  146.2162  139.8363  142.8650 H   0  0  0  0  0  0  0  0  0  0  0  0  # atno 7974 bound_to 7965
  156.0609  140.3296  155.7461 H   0  0  0  0  0  0  0  0  0  0  0  0  # atno 8008 bound_to 7997
  155.5456  140.0605  157.2878 H   0  0  0  0  0  0  0  0  0  0  0  0  # atno 8009 bound_to 7997
  154.4481  140.1903  156.0623 H   0  0  0  0  0  0  0  0  0  0  0  0  # atno 8010 bound_to 7997
  139.4928  144.4010  151.9409 H   0  0  0  0  0  0  0  0  0  0  0  0  # atno 10167 bound_to 10162
  157.6202  131.1017  150.7376 H   0  0  0  0  0  0  0  0  0  0  0  0  # atno 10718 bound_to 10713
  153.0380  135.5149  154.7543 H   0  0  0  0  0  0  0  0  0  0  0  0  # atno 10763 bound_to 10752
  154.6504  135.2924  154.9996 H   0  0  0  0  0  0  0  0  0  0  0  0  # atno 10764 bound_to 10752
  154.0882  135.6654  153.4901 H   0  0  0  0  0  0  0  0  0  0  0  0  # atno 10765 bound_to 10752
  140.2057  134.8305  157.3066 H   0  0  0  0  0  0  0  0  0  0  0  0  # atno 11005 bound_to 11000
  145.2945  141.0177  143.3644 LP  0  0  0  0  0  0  0  0  0  0  0  0  # atno 17320 bound_to 7965
  144.9052  139.4598  143.6613 LP  0  0  0  0  0  0  0  0  0  0  0  0  # atno 17321 bound_to 7965
  140.3450  144.3158  150.5960 LP  0  0  0  0  0  0  0  0  0  0  0  0  # atno 17342 bound_to 10162
  140.5534  143.2203  151.7888 LP  0  0  0  0  0  0  0  0  0  0  0  0  # atno 17343 bound_to 10162
  156.7735  130.4836  149.5414 LP  0  0  0  0  0  0  0  0  0  0  0  0  # atno 17370 bound_to 10713
  156.1344  130.6200  151.0379 LP  0  0  0  0  0  0  0  0  0  0  0  0  # atno 17371 bound_to 10713
  140.2005  134.4260  155.7665 LP  0  0  0  0  0  0  0  0  0  0  0  0  # atno 17394 bound_to 11000
  141.2227  133.7070  156.8176 LP  0  0  0  0  0  0  0  0  0  0  0  0  # atno 17395 bound_to 11000

$$$$
