AV-unprocessed.smi:1982|AV-procd|sdf|8020|dock4
  -GOLD-   2272010213D 1   1.00000     0.00000
 Structure written by MMmdl.
 36 37  0  0  0  0  0  0  0  0  1 V2000
  150.8305  145.2955  160.0906 C   0  0  0  0  0  0  0  0  0  0  0  0
  151.4841  143.9089  160.2286 C   0  0  2  0  0  0  0  0  0  0  0  0
  152.2071  143.8065  161.5878 C   0  0  0  0  0  0  0  0  0  0  0  0
  152.8670  142.4361  161.7911 C   0  0  0  0  0  0  0  0  0  0  0  0
  153.8396  142.1200  160.6461 C   0  0  0  0  0  0  0  0  0  0  0  0
  153.1514  142.2070  159.2705 C   0  0  1  0  0  0  0  0  0  0  0  0
  152.1977  141.1120  159.0994 N   0  0  0  0  0  0  0  0  0  0  0  0
  152.4991  139.8390  158.8010 C   0  0  0  0  0  0  0  0  0  0  0  0
  153.6503  139.4177  158.6955 O   0  0  0  0  0  0  0  0  0  0  0  0
  151.3147  138.8961  158.5819 C   0  0  0  0  0  0  0  0  0  0  0  0
  151.7274  137.6961  157.8763 N   0  0  0  0  0  0  0  0  0  0  0  0
  152.2664  137.5324  156.6664 C   0  0  0  0  0  0  0  0  0  0  0  0
  152.4680  136.2529  156.3905 N   0  0  0  0  0  0  0  0  0  0  0  0
  152.0123  135.6093  157.5292 N   0  0  0  0  0  0  0  0  0  0  0  0
  151.5723  136.4603  158.4148 N   0  0  0  0  0  0  0  0  0  0  0  0
  152.4567  143.5780  159.0618 C   0  0  1  0  0  0  0  0  0  0  0  0
  151.7829  143.6554  157.6758 C   0  0  0  0  0  0  0  0  0  0  0  0
  151.5811  146.0830  160.0154 H   0  0  0  0  0  0  0  0  0  0  0  0
  150.2025  145.5189  160.9534 H   0  0  0  0  0  0  0  0  0  0  0  0
  150.1903  145.3556  159.2108 H   0  0  0  0  0  0  0  0  0  0  0  0
  150.6802  143.1714  160.2247 H   0  0  0  0  0  0  0  0  0  0  0  0
  152.9665  144.5864  161.6601 H   0  0  0  0  0  0  0  0  0  0  0  0
  151.5022  143.9894  162.3996 H   0  0  0  0  0  0  0  0  0  0  0  0
  153.3983  142.4185  162.7430 H   0  0  0  0  0  0  0  0  0  0  0  0
  152.1001  141.6631  161.8530 H   0  0  0  0  0  0  0  0  0  0  0  0
  154.6690  142.8275  160.6768 H   0  0  0  0  0  0  0  0  0  0  0  0
  154.2796  141.1324  160.7900 H   0  0  0  0  0  0  0  0  0  0  0  0
  153.9242  142.1123  158.5055 H   0  0  0  0  0  0  0  0  0  0  0  0
  151.2202  141.3559  159.1707 H   0  0  0  0  0  0  0  0  0  0  0  0
  150.8816  138.6060  159.5400 H   0  0  0  0  0  0  0  0  0  0  0  0
  150.5354  139.4053  158.0130 H   0  0  0  0  0  0  0  0  0  0  0  0
  152.5011  138.3427  155.9916 H   0  0  0  0  0  0  0  0  0  0  0  0
  153.2439  144.3336  159.0706 H   0  0  0  0  0  0  0  0  0  0  0  0
  150.8961  143.0230  157.6213 H   0  0  0  0  0  0  0  0  0  0  0  0
  152.4674  143.3330  156.8904 H   0  0  0  0  0  0  0  0  0  0  0  0
  151.4801  144.6732  157.4318 H   0  0  0  0  0  0  0  0  0  0  0  0
  1  2  1  0  0  0  0
  1 18  1  0  0  0  0
  1 19  1  0  0  0  0
  1 20  1  0  0  0  0
  2 16  1  0  0  0  0
  2  3  1  0  0  0  0
  2 21  1  0  0  0  0
  3  4  1  0  0  0  0
  3 22  1  0  0  0  0
  3 23  1  0  0  0  0
  4  5  1  0  0  0  0
  4 24  1  0  0  0  0
  4 25  1  0  0  0  0
  5  6  1  0  0  0  0
  5 26  1  0  0  0  0
  5 27  1  0  0  0  0
  6  7  1  0  0  0  0
  6 16  1  0  0  0  0
  6 28  1  0  0  0  0
  7  8  1  0  0  0  0
  7 29  1  0  0  0  0
  8  9  2  0  0  0  0
  8 10  1  0  0  0  0
 10 11  1  0  0  0  0
 10 30  1  0  0  0  0
 10 31  1  0  0  0  0
 11 15  1  0  0  0  0
 11 12  1  0  0  0  0
 12 13  2  0  0  0  0
 12 32  1  0  0  0  0
 13 14  1  0  0  0  0
 14 15  2  0  0  0  0
 16 17  1  0  0  0  0
 16 33  1  0  0  0  0
 17 34  1  0  0  0  0
 17 35  1  0  0  0  0
 17 36  1  0  0  0  0
M  END
> <s_m_source_file>
AV-unprocessed.smi

> <i_m_source_file_index>
1982

> <i_lp_mmshare_version>
43012

> <i_f3d_flags>
0

> <s_epik_input>
W0NIM11bQ0BASF0xW0NIMl1bQ0gyXVtDSDJdW0NASF0oW0NASF0xW0NIM10pW05IXUMoPU8pW0NIMl1uMltjSF1ubm4y

> <s_epik_cmdline>
J2VwaWtfcHl0aG9uJywgJy1waCcsICc3LjAnLCAnLXRuJywgJzgnLCAnLW1hJywgJzIwMCcsICctbWV0YWxfYmluZGluZycsICctaW1hZScsICc8aW5maWxlLm1hZT4nLCAnLW9tYWUnLCAnPG91dGZpbGUubWFlPic=

> <r_lp_tautomer_probability>
1

> <r_epik_Ionization_Penalty>
5.03816e-07

> <r_epik_Ionization_Penalty_Charging>
0

> <r_epik_Ionization_Penalty_Neutral>
5.03816e-07

> <r_epik_State_Penalty>
-0

> <r_epik_Charging_Adjusted_Penalty>
0

> <i_epik_Tot_Q>
0

> <i_epik_Tot_abs_Q>
0

> <r_epik_Metal_State_Penalty>
-0

> <b_epik_Metal_Only>
0

> <s_lp_Force_Field>
OPLS_2005

> <r_lp_Energy>
12.4205

> <b_lp_Chiralities_Consistent>
1

> <s_lp_Variant>
AV-unprocessed.smi:1982-1

> <Gold.Version>
5.8.1

> <Gold.Id.Protein>
6NUR|6NUR_protein|mol2

> <Gold.PLP.Fitness>
44.4713

> <Gold.PLP.PLP>
-38.0449

> <Gold.PLP.part.hbond>
-4.0000

> <Gold.PLP.part.metal>
0.0000

> <Gold.PLP.part.buried>
-5.7830

> <Gold.PLP.part.nonpolar>
-29.1620

> <Gold.PLP.part.repulsive>
0.1285

> <Gold.PLP.ligand.clash>
0.0000

> <Gold.PLP.ligand.torsion>
0.5133

> <Gold.PLP.Chemscore.Hbond>
2.4800

> <Gold.PLP.Chemscore.CHOScore>
0.0000

> <Gold.PLP.Chemscore.Metal>
0.0000

> <Gold.Chemscore.Hbonds>
donor molecule, donor type, donor heavy atom, donor atom, acceptor molecule, acceptor atom, score
      P1  H  6896  6909       L1    15  0.49
      P1  H  7997  8010       L1     9  1.00
      P1  H 10752 10765       L1    13  1.00

> <Gold.PLP.Chemscore.Internal.Correction>
0.0131

> <Gold.Rescore>
     Score         DG    S(hbond)    S(metal)    S(lipo)     H(rot)  DE(clash)    DE(int)     intcor
     18.28     -18.88       2.18        0.00      94.06       1.91       0.02       0.58       ----

> <Gold.Chemscore.Fitness>
18.2758

> <Gold.Chemscore.DG>
-18.8817

> <Gold.Chemscore.ZeroCoef>
-5.4800

> <Gold.Chemscore.Hbond>
2.1782

> <Gold.Chemscore.Metal>
0.0000

> <Gold.Chemscore.Lipo>
94.0631

> <Gold.Chemscore.Internal_Hbond>
0.0000

> <Gold.Chemscore.DEClash>
0.0234

> <Gold.Chemscore.DEInternal>
0.5825

> <Gold.Chemscore.Rot>
1.9058

> <Gold.Chemscore.Internal.Correction>
   9.000000E+99

> <Gold.Chemscore.Hbonds>
donor molecule, donor type, donor heavy atom, donor atom, acceptor molecule, acceptor atom, score
      P1  H  6896  6909       L1    15  0.07
      P1  H  7997  8010       L1     9  0.96
      P1  H 10752 10765       L1    13  0.98

> <Gold.Chemscore.Hbond.Weighted>
-7.2751

> <Gold.Chemscore.Metal.Weighted>
-0.0000

> <Gold.Chemscore.Lipo.Weighted>
-11.0054

> <Gold.Chemscore.Internal_Hbond.Weighted>
0.0000

> <Gold.Chemscore.DEClash.Weighted>
0.0234

> <Gold.Chemscore.DEInternal.Weighted>
0.5825

> <Gold.Chemscore.Rot.Weighted>
4.8788

> <Gold.Chemscore.Internal.Correction.Weighted>
   9.000000E+99

> <Gold.Protein.RotatedTorsions>
[ 6907 6896 6895 6894 ] final  103.81 input  -60.11 | X-H torsion
[ 7974 7965 7964 7962 ] final   17.57 input  175.53 | X-H torsion
[ 8008 7997 7996 7995 ] final   20.68 input   59.86 | X-H torsion
[ 10167 10162 10161 10158 ] final  -39.85 input  -65.29 | X-H torsion
[ 10718 10713 10712 10709 ] final  -77.15 input   66.30 | X-H torsion
[ 10763 10752 10751 10750 ] final -154.44 input  -60.55 | X-H torsion
[ 11005 11000 10999 10996 ] final   94.29 input  -57.11 | X-H torsion

> <Gold.Protein.ActiveResidues>
 VAL166  LYS551  ARG553  GLY616  TRP617  ASP618  TYR619  PRO620  LYS621  CYS622 
 ASP623  PHE694  ASN695  SER759  ASP760  ASP761  ALA762  ILE779  LEU786  VAL792 
 PHE793  MET794  SER795  GLU796  ALA797  LYS798  CYS799  TRP800  GLU811  SER814 

> <Gold.Protein.RotatedAtoms>
  152.5284  133.9770  159.7788 H   0  0  0  0  0  0  0  0  0  0  0  0  # atno 6907 bound_to 6896
  151.0031  133.6029  159.2699 H   0  0  0  0  0  0  0  0  0  0  0  0  # atno 6908 bound_to 6896
  151.3130  135.0805  159.9332 H   0  0  0  0  0  0  0  0  0  0  0  0  # atno 6909 bound_to 6896
  146.2214  139.8583  142.8609 H   0  0  0  0  0  0  0  0  0  0  0  0  # atno 7974 bound_to 7965
  154.9392  140.3051  155.5129 H   0  0  0  0  0  0  0  0  0  0  0  0  # atno 8008 bound_to 7997
  156.2997  140.2339  156.4396 H   0  0  0  0  0  0  0  0  0  0  0  0  # atno 8009 bound_to 7997
  154.8162  140.0426  157.1367 H   0  0  0  0  0  0  0  0  0  0  0  0  # atno 8010 bound_to 7997
  140.7052  143.3189  151.2841 H   0  0  0  0  0  0  0  0  0  0  0  0  # atno 10167 bound_to 10162
  156.0153  130.4484  150.3301 H   0  0  0  0  0  0  0  0  0  0  0  0  # atno 10718 bound_to 10713
  154.7858  135.3190  154.7888 H   0  0  0  0  0  0  0  0  0  0  0  0  # atno 10763 bound_to 10752
  153.8589  135.6855  153.4789 H   0  0  0  0  0  0  0  0  0  0  0  0  # atno 10764 bound_to 10752
  153.1510  135.4699  154.9575 H   0  0  0  0  0  0  0  0  0  0  0  0  # atno 10765 bound_to 10752
  139.8800  134.8837  156.3842 H   0  0  0  0  0  0  0  0  0  0  0  0  # atno 11005 bound_to 11000
  145.2730  141.0115  143.3761 LP  0  0  0  0  0  0  0  0  0  0  0  0  # atno 17320 bound_to 7965
  144.9209  139.4413  143.6542 LP  0  0  0  0  0  0  0  0  0  0  0  0  # atno 17321 bound_to 7965
  139.6636  144.0145  152.2708 LP  0  0  0  0  0  0  0  0  0  0  0  0  # atno 17342 bound_to 10162
  139.9720  144.6487  150.7980 LP  0  0  0  0  0  0  0  0  0  0  0  0  # atno 17343 bound_to 10162
  157.1399  131.0294  151.2932 LP  0  0  0  0  0  0  0  0  0  0  0  0  # atno 17370 bound_to 10713
  157.4480  130.7582  149.7127 LP  0  0  0  0  0  0  0  0  0  0  0  0  # atno 17371 bound_to 10713
  140.9377  133.7535  156.0106 LP  0  0  0  0  0  0  0  0  0  0  0  0  # atno 17394 bound_to 11000
  140.8256  134.3238  157.5367 LP  0  0  0  0  0  0  0  0  0  0  0  0  # atno 17395 bound_to 11000

$$$$
