AV-unprocessed.smi:275|AV-procd|sdf|2062|dock2
  -GOLD-   2262021303D 1   1.00000     0.00000
 Structure written by MMmdl.
 65 69  0  0  0  0  0  0  0  0  1 V2000
  152.4099  138.6669  159.3023 C   0  0  0  0  0  0  0  0  0  0  0  0
  152.7170  140.1622  159.0764 C   0  0  0  0  0  0  0  0  0  0  0  0
  153.1916  140.8042  160.3905 C   0  0  0  0  0  0  0  0  0  0  0  0
  151.5895  141.0035  158.4373 C   0  0  2  0  0  0  0  0  0  0  0  0
  151.6081  141.0476  156.9800 N   0  0  0  0  0  0  0  0  0  0  0  0
  150.8923  140.0109  156.3246 C   0  0  0  0  0  0  0  0  0  0  0  0
  151.0603  139.9219  154.9812 N   0  0  0  0  0  0  0  0  0  0  0  0
  150.4416  138.9775  154.2670 C   0  0  0  0  0  0  0  0  0  0  0  0
  149.6117  138.0240  154.6893 N   0  0  0  0  0  0  0  0  0  0  0  0
  149.4316  138.0974  156.0377 C   0  0  0  0  0  0  0  0  0  0  0  0
  150.0251  139.0453  156.9206 C   0  0  0  0  0  0  0  0  0  0  0  0
  149.6019  138.7953  158.2221 N   0  0  0  0  0  0  0  0  0  0  0  0
  148.8093  137.7645  158.1145 C   0  0  0  0  0  0  0  0  0  0  0  0
  148.6445  137.2869  156.8351 N   0  0  0  0  0  0  0  0  0  0  0  0
  147.8202  136.1651  156.4206 C   0  0  0  0  0  0  0  0  0  0  0  0
  148.4240  135.3716  155.2349 C   0  0  2  0  0  0  0  0  0  0  0  0
  147.3988  134.4218  154.5690 C   0  0  0  0  0  0  0  0  0  0  0  0
  147.6643  134.2588  153.1907 O   0  0  0  0  0  0  0  0  0  0  0  0
  149.7266  134.6374  155.6421 C   0  0  2  0  0  0  0  0  0  0  0  0
  149.8959  133.2565  155.0333 C   0  0  0  0  0  0  0  0  0  0  0  0
  150.9488  132.6298  155.9411 C   0  0  0  0  0  0  0  0  0  0  0  0
  150.7389  133.2010  157.2276 O   0  0  0  0  0  0  0  0  0  0  0  0
  149.8333  134.2958  157.1321 C   0  0  0  0  0  0  0  0  0  0  0  0
  150.9578  142.3497  156.9844 C   0  0  0  0  0  0  0  0  0  0  0  0
  151.5429  142.5507  158.3949 C   0  0  0  0  0  0  0  0  0  0  0  0
  150.6010  143.1789  159.4366 C   0  0  0  0  0  0  0  0  0  0  0  0
  150.3714  144.6831  159.2204 C   0  0  0  0  0  0  0  0  0  0  0  0
  151.6979  145.4496  159.2410 C   0  0  0  0  0  0  0  0  0  0  0  0
  152.6872  144.8526  158.2344 C   0  0  0  0  0  0  0  0  0  0  0  0
  152.8685  143.3395  158.4483 C   0  0  0  0  0  0  0  0  0  0  0  0
  151.5196  138.5201  159.9142 H   0  0  0  0  0  0  0  0  0  0  0  0
  153.2367  138.1817  159.8215 H   0  0  0  0  0  0  0  0  0  0  0  0
  152.2784  138.1212  158.3718 H   0  0  0  0  0  0  0  0  0  0  0  0
  153.5722  140.2029  158.4008 H   0  0  0  0  0  0  0  0  0  0  0  0
  152.4086  140.7827  161.1490 H   0  0  0  0  0  0  0  0  0  0  0  0
  153.4798  141.8449  160.2403 H   0  0  0  0  0  0  0  0  0  0  0  0
  154.0583  140.2813  160.7953 H   0  0  0  0  0  0  0  0  0  0  0  0
  150.6189  140.6583  158.7954 H   0  0  0  0  0  0  0  0  0  0  0  0
  150.6405  138.9888  153.2055 H   0  0  0  0  0  0  0  0  0  0  0  0
  148.3129  137.3272  158.9687 H   0  0  0  0  0  0  0  0  0  0  0  0
  147.6860  135.5186  157.2878 H   0  0  0  0  0  0  0  0  0  0  0  0
  146.8296  136.5405  156.1604 H   0  0  0  0  0  0  0  0  0  0  0  0
  148.6969  136.1040  154.4735 H   0  0  0  0  0  0  0  0  0  0  0  0
  147.4054  133.4416  155.0454 H   0  0  0  0  0  0  0  0  0  0  0  0
  146.3842  134.8019  154.6865 H   0  0  0  0  0  0  0  0  0  0  0  0
  148.3364  134.8739  152.9390 H   0  0  0  0  0  0  0  0  0  0  0  0
  150.5907  135.2425  155.3626 H   0  0  0  0  0  0  0  0  0  0  0  0
  148.9637  132.6933  155.0975 H   0  0  0  0  0  0  0  0  0  0  0  0
  150.2095  133.2797  153.9896 H   0  0  0  0  0  0  0  0  0  0  0  0
  150.8800  131.5423  155.9703 H   0  0  0  0  0  0  0  0  0  0  0  0
  151.9506  132.8975  155.6029 H   0  0  0  0  0  0  0  0  0  0  0  0
  150.1775  135.1399  157.7302 H   0  0  0  0  0  0  0  0  0  0  0  0
  148.8678  133.9748  157.5257 H   0  0  0  0  0  0  0  0  0  0  0  0
  151.3490  143.0312  156.2289 H   0  0  0  0  0  0  0  0  0  0  0  0
  149.8685  142.3091  156.9674 H   0  0  0  0  0  0  0  0  0  0  0  0
  149.6336  142.6753  159.4234 H   0  0  0  0  0  0  0  0  0  0  0  0
  150.9993  143.0179  160.4392 H   0  0  0  0  0  0  0  0  0  0  0  0
  149.8681  144.8441  158.2663 H   0  0  0  0  0  0  0  0  0  0  0  0
  149.7063  145.0730  159.9914 H   0  0  0  0  0  0  0  0  0  0  0  0
  151.5269  146.5036  159.0201 H   0  0  0  0  0  0  0  0  0  0  0  0
  152.1275  145.4074  160.2426 H   0  0  0  0  0  0  0  0  0  0  0  0
  152.3299  145.0381  157.2209 H   0  0  0  0  0  0  0  0  0  0  0  0
  153.6500  145.3576  158.3170 H   0  0  0  0  0  0  0  0  0  0  0  0
  153.3699  143.1672  159.4014 H   0  0  0  0  0  0  0  0  0  0  0  0
  153.5496  142.9879  157.6741 H   0  0  0  0  0  0  0  0  0  0  0  0
  1  2  1  0  0  0  0
  1 31  1  0  0  0  0
  1 32  1  0  0  0  0
  1 33  1  0  0  0  0
  2  3  1  0  0  0  0
  2  4  1  0  0  0  0
  2 34  1  0  0  0  0
  3 35  1  0  0  0  0
  3 36  1  0  0  0  0
  3 37  1  0  0  0  0
  4 25  1  0  0  0  0
  4  5  1  0  0  0  0
  4 38  1  0  0  0  0
  5  6  1  0  0  0  0
  5 24  1  0  0  0  0
  6 11  1  0  0  0  0
  6  7  2  0  0  0  0
  7  8  1  0  0  0  0
  8  9  2  0  0  0  0
  8 39  1  0  0  0  0
  9 10  1  0  0  0  0
 10 14  1  0  0  0  0
 10 11  2  0  0  0  0
 11 12  1  0  0  0  0
 12 13  2  0  0  0  0
 13 14  1  0  0  0  0
 13 40  1  0  0  0  0
 14 15  1  0  0  0  0
 15 16  1  0  0  0  0
 15 41  1  0  0  0  0
 15 42  1  0  0  0  0
 16 17  1  0  0  0  0
 16 19  1  0  0  0  0
 16 43  1  0  0  0  0
 17 18  1  0  0  0  0
 17 44  1  0  0  0  0
 17 45  1  0  0  0  0
 18 46  1  0  0  0  0
 19 23  1  0  0  0  0
 19 20  1  0  0  0  0
 19 47  1  0  0  0  0
 20 21  1  0  0  0  0
 20 48  1  0  0  0  0
 20 49  1  0  0  0  0
 21 22  1  0  0  0  0
 21 50  1  0  0  0  0
 21 51  1  0  0  0  0
 22 23  1  0  0  0  0
 23 52  1  0  0  0  0
 23 53  1  0  0  0  0
 24 25  1  0  0  0  0
 24 54  1  0  0  0  0
 24 55  1  0  0  0  0
 25 30  1  0  0  0  0
 25 26  1  0  0  0  0
 26 27  1  0  0  0  0
 26 56  1  0  0  0  0
 26 57  1  0  0  0  0
 27 28  1  0  0  0  0
 27 58  1  0  0  0  0
 27 59  1  0  0  0  0
 28 29  1  0  0  0  0
 28 60  1  0  0  0  0
 28 61  1  0  0  0  0
 29 30  1  0  0  0  0
 29 62  1  0  0  0  0
 29 63  1  0  0  0  0
 30 64  1  0  0  0  0
 30 65  1  0  0  0  0
M  END
> <s_m_source_file>
AV-unprocessed.smi

> <i_m_source_file_index>
275

> <i_lp_mmshare_version>
43012

> <i_f3d_flags>
0

> <s_epik_input>
W0NIMl0xW0NIMl1bQ0gyXVtDSDJdW0NIMl1DMTJbQ0BIXShbQ0hdKFtDSDNdKVtDSDNdKU4oW0NIMl0yKWMobltjSF1uMyljKGMzNCluW2NIXW40W0NIMl1bQ0BIXShbQ0gyXVtPSF0pW0NAQEhdNVtDSDJdW0NIMl1PW0NIMl01

> <s_epik_cmdline>
J2VwaWtfcHl0aG9uJywgJy1waCcsICc3LjAnLCAnLXRuJywgJzgnLCAnLW1hJywgJzIwMCcsICctbWV0YWxfYmluZGluZycsICctaW1hZScsICc8aW5maWxlLm1hZT4nLCAnLW9tYWUnLCAnPG91dGZpbGUubWFlPic=

> <r_lp_tautomer_probability>
1

> <r_epik_Ionization_Penalty>
0.00375122

> <r_epik_Ionization_Penalty_Charging>
0

> <r_epik_Ionization_Penalty_Neutral>
0.00375122

> <r_epik_State_Penalty>
0.00260593

> <r_epik_Charging_Adjusted_Penalty>
0.00260593

> <i_epik_Tot_Q>
0

> <i_epik_Tot_abs_Q>
0

> <r_epik_Metal_State_Penalty>
-0

> <b_epik_Metal_Only>
0

> <s_lp_Force_Field>
OPLS_2005

> <r_lp_Energy>
69.4255

> <b_lp_Chiralities_Consistent>
1

> <s_lp_Variant>
AV-unprocessed.smi:275-1

> <Gold.Version>
5.8.1

> <Gold.Id.Protein>
6NUR|6NUR_protein|mol2

> <Gold.PLP.Fitness>
48.7609

> <Gold.PLP.PLP>
-43.0673

> <Gold.PLP.part.hbond>
-3.0000

> <Gold.PLP.part.metal>
0.0000

> <Gold.PLP.part.buried>
-6.2683

> <Gold.PLP.part.nonpolar>
-35.4630

> <Gold.PLP.part.repulsive>
0.2380

> <Gold.PLP.ligand.clash>
0.0000

> <Gold.PLP.ligand.torsion>
2.8520

> <Gold.PLP.Chemscore.Hbond>
2.5492

> <Gold.PLP.Chemscore.CHOScore>
1.0000

> <Gold.PLP.Chemscore.Metal>
0.0000

> <Gold.Chemscore.Hbonds>
donor molecule, donor type, donor heavy atom, donor atom, acceptor molecule, acceptor atom, score
      L1  H    18    46       P1  7948  1.00
      P1  H  6896  6907       L1    22  0.79
      P1  H  7989  7998       L1     7  0.75
      L1  C     8    39       P1  7957  1.00

> <Gold.PLP.Chemscore.Internal.Correction>
0.7500

> <Gold.Rescore>
     Score         DG    S(hbond)    S(metal)    S(lipo)     H(rot)  DE(clash)    DE(int)     intcor
     12.55     -18.68       1.46        0.00     126.60       2.54       0.20       5.93       ----

> <Gold.Chemscore.Fitness>
12.5515

> <Gold.Chemscore.DG>
-18.6808

> <Gold.Chemscore.ZeroCoef>
-5.4800

> <Gold.Chemscore.Hbond>
1.4625

> <Gold.Chemscore.Metal>
0.0000

> <Gold.Chemscore.Lipo>
126.6033

> <Gold.Chemscore.Internal_Hbond>
0.0000

> <Gold.Chemscore.DEClash>
0.2017

> <Gold.Chemscore.DEInternal>
5.9276

> <Gold.Chemscore.Rot>
2.5377

> <Gold.Chemscore.Internal.Correction>
   9.000000E+99

> <Gold.Chemscore.Hbonds>
donor molecule, donor type, donor heavy atom, donor atom, acceptor molecule, acceptor atom, score
      L1  H    18    46       P1  7948  0.67
      P1  H  6896  6907       L1    22  0.19
      P1  H  7989  7998       L1     7  0.09

> <Gold.Chemscore.Hbond.Weighted>
-4.8848

> <Gold.Chemscore.Metal.Weighted>
-0.0000

> <Gold.Chemscore.Lipo.Weighted>
-14.8126

> <Gold.Chemscore.Internal_Hbond.Weighted>
0.0000

> <Gold.Chemscore.DEClash.Weighted>
0.2017

> <Gold.Chemscore.DEInternal.Weighted>
5.9276

> <Gold.Chemscore.Rot.Weighted>
6.4966

> <Gold.Chemscore.Internal.Correction.Weighted>
   9.000000E+99

> <Gold.Protein.RotatedTorsions>
[ 6907 6896 6895 6894 ] final -158.66 input  -60.11 | X-H torsion
[ 7974 7965 7964 7962 ] final  -16.04 input  175.53 | X-H torsion
[ 8008 7997 7996 7995 ] final   26.73 input   59.86 | X-H torsion
[ 10167 10162 10161 10158 ] final  134.48 input  -65.29 | X-H torsion
[ 10718 10713 10712 10709 ] final  -32.61 input   66.30 | X-H torsion
[ 10763 10752 10751 10750 ] final -122.74 input  -60.55 | X-H torsion
[ 11005 11000 10999 10996 ] final   66.47 input  -57.11 | X-H torsion

> <Gold.Protein.ActiveResidues>
 VAL166  LYS551  ARG553  GLY616  TRP617  ASP618  TYR619  PRO620  LYS621  CYS622 
 ASP623  PHE694  ASN695  SER759  ASP760  ASP761  ALA762  ILE779  LEU786  VAL792 
 PHE793  MET794  SER795  GLU796  ALA797  LYS798  CYS799  TRP800  GLU811  SER814 

> <Gold.Protein.RotatedAtoms>
  151.3217  133.4037  159.2654 H   0  0  0  0  0  0  0  0  0  0  0  0  # atno 6907 bound_to 6896
  151.0029  134.9337  159.7974 H   0  0  0  0  0  0  0  0  0  0  0  0  # atno 6908 bound_to 6896
  152.5280  134.3181  159.9191 H   0  0  0  0  0  0  0  0  0  0  0  0  # atno 6909 bound_to 6896
  146.2005  140.3579  142.8425 H   0  0  0  0  0  0  0  0  0  0  0  0  # atno 7974 bound_to 7965
  155.0318  140.3159  155.4756 H   0  0  0  0  0  0  0  0  0  0  0  0  # atno 8008 bound_to 7997
  156.2872  140.2179  156.5382 H   0  0  0  0  0  0  0  0  0  0  0  0  # atno 8009 bound_to 7997
  154.7364  140.0477  157.0760 H   0  0  0  0  0  0  0  0  0  0  0  0  # atno 8010 bound_to 7997
  139.5254  144.6565  151.5146 H   0  0  0  0  0  0  0  0  0  0  0  0  # atno 10167 bound_to 10162
  156.3728  130.4342  149.7531 H   0  0  0  0  0  0  0  0  0  0  0  0  # atno 10718 bound_to 10713
  154.8695  135.4122  154.2830 H   0  0  0  0  0  0  0  0  0  0  0  0  # atno 10763 bound_to 10752
  153.3719  135.7008  153.6636 H   0  0  0  0  0  0  0  0  0  0  0  0  # atno 10764 bound_to 10752
  153.5495  135.3632  155.2725 H   0  0  0  0  0  0  0  0  0  0  0  0  # atno 10765 bound_to 10752
  139.9830  134.6714  156.0228 H   0  0  0  0  0  0  0  0  0  0  0  0  # atno 11005 bound_to 11000
  144.8674  140.7225  143.6069 LP  0  0  0  0  0  0  0  0  0  0  0  0  # atno 17320 bound_to 7965
  145.3498  139.1709  143.4440 LP  0  0  0  0  0  0  0  0  0  0  0  0  # atno 17321 bound_to 7965
  140.6393  143.8921  150.6677 LP  0  0  0  0  0  0  0  0  0  0  0  0  # atno 17342 bound_to 10162
  140.2250  143.3779  152.1612 LP  0  0  0  0  0  0  0  0  0  0  0  0  # atno 17343 bound_to 10162
  156.4652  130.7970  151.2990 LP  0  0  0  0  0  0  0  0  0  0  0  0  # atno 17370 bound_to 10713
  157.7485  131.0053  150.3109 LP  0  0  0  0  0  0  0  0  0  0  0  0  # atno 17371 bound_to 10713
  141.1499  133.6550  156.3981 LP  0  0  0  0  0  0  0  0  0  0  0  0  # atno 17394 bound_to 11000
  140.5059  134.6441  157.5266 LP  0  0  0  0  0  0  0  0  0  0  0  0  # atno 17395 bound_to 11000

$$$$
