AV-unprocessed.smi:2617|AV-procd|sdf|10217|dock10
  -GOLD-   2272014223D 1   1.00000     0.00000
 Structure written by MMmdl.
 35 35  0  0  0  0  0  0  0  0  1 V2000
  147.8866  141.7003  154.0863 C   0  0  0  0  0  0  0  0  0  0  0  0
  148.8885  141.4558  155.2187 C   0  0  0  0  0  0  0  0  0  0  0  0
  150.1510  140.7231  154.7344 C   0  0  0  0  0  0  0  0  0  0  0  0
  150.2878  139.4025  155.3158 N   0  0  0  0  0  0  0  0  0  0  0  0
  150.0956  138.2170  154.6008 C   0  0  0  0  0  0  0  0  0  0  0  0
  149.7319  138.3082  153.2655 N   0  0  0  0  0  0  0  0  0  0  0  0
  150.2251  136.9902  155.1829 C   0  0  0  0  0  0  0  0  0  0  0  0
  150.0387  135.8162  154.4599 N   0  0  0  0  0  0  0  0  0  0  0  0
  150.1504  134.4587  154.9737 C   0  0  0  0  0  0  0  0  0  0  0  0
  149.5749  133.4433  153.9808 C   0  0  0  0  0  0  0  0  0  0  0  0
  148.2213  133.7727  153.7142 O   0  0  0  0  0  0  0  0  0  0  0  0
  147.6979  133.0640  152.6050 C   0  0  0  0  0  0  0  0  0  0  0  0
  150.5979  136.8798  156.6008 C   0  0  0  0  0  0  0  0  0  0  0  0
  150.7935  135.8345  157.2200 O   0  0  0  0  0  0  0  0  0  0  0  0
  150.7439  138.0952  157.2658 N   0  0  0  0  0  0  0  0  0  0  0  0
  150.5916  139.3541  156.6966 C   0  0  0  0  0  0  0  0  0  0  0  0
  150.7265  140.3561  157.4000 O   0  0  0  0  0  0  0  0  0  0  0  0
  150.9813  138.0579  158.2463 H   0  0  0  0  0  0  0  0  0  0  0  0
  147.0016  142.2188  154.4557 H   0  0  0  0  0  0  0  0  0  0  0  0
  147.5601  140.7605  153.6402 H   0  0  0  0  0  0  0  0  0  0  0  0
  148.3263  142.3120  153.2981 H   0  0  0  0  0  0  0  0  0  0  0  0
  149.1626  142.4120  155.6656 H   0  0  0  0  0  0  0  0  0  0  0  0
  148.4062  140.8751  156.0057 H   0  0  0  0  0  0  0  0  0  0  0  0
  150.1495  140.5956  153.6523 H   0  0  0  0  0  0  0  0  0  0  0  0
  151.0613  141.2854  154.9507 H   0  0  0  0  0  0  0  0  0  0  0  0
  149.6075  139.2035  152.8157 H   0  0  0  0  0  0  0  0  0  0  0  0
  149.7847  137.5079  152.6522 H   0  0  0  0  0  0  0  0  0  0  0  0
  149.3483  135.8907  153.7272 H   0  0  0  0  0  0  0  0  0  0  0  0
  151.2059  134.2499  155.1490 H   0  0  0  0  0  0  0  0  0  0  0  0
  149.6414  134.3547  155.9324 H   0  0  0  0  0  0  0  0  0  0  0  0
  150.1609  133.4332  153.0602 H   0  0  0  0  0  0  0  0  0  0  0  0
  149.6260  132.4424  154.4119 H   0  0  0  0  0  0  0  0  0  0  0  0
  146.6588  133.3508  152.4444 H   0  0  0  0  0  0  0  0  0  0  0  0
  147.7282  131.9870  152.7751 H   0  0  0  0  0  0  0  0  0  0  0  0
  148.2541  133.2909  151.6944 H   0  0  0  0  0  0  0  0  0  0  0  0
  1  2  1  0  0  0  0
  1 19  1  0  0  0  0
  1 20  1  0  0  0  0
  1 21  1  0  0  0  0
  2  3  1  0  0  0  0
  2 22  1  0  0  0  0
  2 23  1  0  0  0  0
  3  4  1  0  0  0  0
  3 24  1  0  0  0  0
  3 25  1  0  0  0  0
  4 16  1  0  0  0  0
  4  5  1  0  0  0  0
  5  6  1  0  0  0  0
  5  7  2  0  0  0  0
  6 26  1  0  0  0  0
  6 27  1  0  0  0  0
  7  8  1  0  0  0  0
  7 13  1  0  0  0  0
  8  9  1  0  0  0  0
  8 28  1  0  0  0  0
  9 10  1  0  0  0  0
  9 29  1  0  0  0  0
  9 30  1  0  0  0  0
 10 11  1  0  0  0  0
 10 31  1  0  0  0  0
 10 32  1  0  0  0  0
 11 12  1  0  0  0  0
 12 33  1  0  0  0  0
 12 34  1  0  0  0  0
 12 35  1  0  0  0  0
 13 14  2  0  0  0  0
 13 15  1  0  0  0  0
 15 18  1  0  0  0  0
 15 16  1  0  0  0  0
 16 17  2  0  0  0  0
M  END
> <s_m_source_file>
AV-unprocessed.smi

> <i_m_source_file_index>
2617

> <i_lp_mmshare_version>
43012

> <i_f3d_flags>
0

> <s_epik_input>
W0NIM11bQ0gyXVtDSDJdbjFjKFtOSDJdKWMoYyg9TylbbkhdYzE9TylbTkhdW0NIMl1bQ0gyXU9bQ0gzXQ==

> <s_epik_cmdline>
J2VwaWtfcHl0aG9uJywgJy1waCcsICc3LjAnLCAnLXRuJywgJzgnLCAnLW1hJywgJzIwMCcsICctbWV0YWxfYmluZGluZycsICctaW1hZScsICc8aW5maWxlLm1hZT4nLCAnLW9tYWUnLCAnPG91dGZpbGUubWFlPic=

> <r_lp_tautomer_probability>
1

> <r_epik_Ionization_Penalty>
1.06398e-05

> <r_epik_Ionization_Penalty_Charging>
2.62604e-06

> <r_epik_Ionization_Penalty_Neutral>
8.01376e-06

> <r_epik_State_Penalty>
-0

> <r_epik_Charging_Adjusted_Penalty>
2.62604e-06

> <i_epik_Tot_Q>
0

> <i_epik_Tot_abs_Q>
0

> <r_epik_Metal_State_Penalty>
-0

> <b_epik_Metal_Only>
0

> <s_epik_Chemistry_Notes>
This compound has an imine and may undergo hydrolysis.

> <s_lp_Force_Field>
OPLS_2005

> <r_lp_Energy>
15.6594

> <b_lp_Chiralities_Consistent>
1

> <s_lp_Variant>
AV-unprocessed.smi:2617-1

> <Gold.Version>
5.8.1

> <Gold.Id.Protein>
6NUR|6NUR_protein|mol2

> <Gold.PLP.Fitness>
32.2875

> <Gold.PLP.PLP>
-25.0895

> <Gold.PLP.part.hbond>
-4.0494

> <Gold.PLP.part.metal>
0.0000

> <Gold.PLP.part.buried>
-1.3486

> <Gold.PLP.part.nonpolar>
-20.3185

> <Gold.PLP.part.repulsive>
0.3538

> <Gold.PLP.ligand.clash>
1.3886

> <Gold.PLP.ligand.torsion>
0.5878

> <Gold.PLP.Chemscore.Hbond>
2.7840

> <Gold.PLP.Chemscore.CHOScore>
0.0000

> <Gold.PLP.Chemscore.Metal>
0.0000

> <Gold.Chemscore.Hbonds>
donor molecule, donor type, donor heavy atom, donor atom, acceptor molecule, acceptor atom, score
      L1  H     6    26       P1  7957  0.83
      L1  H     6    27       P1  7948  0.99
      L1  H     8    28       P1  7948  0.94

> <Gold.PLP.Chemscore.Internal.Correction>
1.4102

> <Gold.Rescore>
     Score         DG    S(hbond)    S(metal)    S(lipo)     H(rot)  DE(clash)    DE(int)     intcor
      9.45     -11.67       2.03        0.00      42.59       2.17       0.05       2.17       ----

> <Gold.Chemscore.Fitness>
9.4479

> <Gold.Chemscore.DG>
-11.6702

> <Gold.Chemscore.ZeroCoef>
-5.4800

> <Gold.Chemscore.Hbond>
2.0271

> <Gold.Chemscore.Metal>
0.0000

> <Gold.Chemscore.Lipo>
42.5867

> <Gold.Chemscore.Internal_Hbond>
0.0000

> <Gold.Chemscore.DEClash>
0.0479

> <Gold.Chemscore.DEInternal>
2.1745

> <Gold.Chemscore.Rot>
2.1730

> <Gold.Chemscore.Internal.Correction>
   9.000000E+99

> <Gold.Chemscore.Hbonds>
donor molecule, donor type, donor heavy atom, donor atom, acceptor molecule, acceptor atom, score
      L1  H     6    26       P1  7957  0.82
      L1  H     6    27       P1  7948  0.24
      L1  H     8    28       P1  7948  0.59

> <Gold.Chemscore.Hbond.Weighted>
-6.7704

> <Gold.Chemscore.Metal.Weighted>
-0.0000

> <Gold.Chemscore.Lipo.Weighted>
-4.9826

> <Gold.Chemscore.Internal_Hbond.Weighted>
0.0000

> <Gold.Chemscore.DEClash.Weighted>
0.0479

> <Gold.Chemscore.DEInternal.Weighted>
2.1745

> <Gold.Chemscore.Rot.Weighted>
5.5628

> <Gold.Chemscore.Internal.Correction.Weighted>
   9.000000E+99

> <Gold.Protein.RotatedTorsions>
[ 6907 6896 6895 6894 ] final   95.90 input  -60.11 | X-H torsion
[ 7974 7965 7964 7962 ] final   98.89 input  175.53 | X-H torsion
[ 8008 7997 7996 7995 ] final  -65.91 input   59.86 | X-H torsion
[ 10167 10162 10161 10158 ] final    9.99 input  -65.29 | X-H torsion
[ 10718 10713 10712 10709 ] final  168.51 input   66.30 | X-H torsion
[ 10763 10752 10751 10750 ] final  -27.44 input  -60.55 | X-H torsion
[ 11005 11000 10999 10996 ] final   33.35 input  -57.11 | X-H torsion

> <Gold.Protein.ActiveResidues>
 VAL166  LYS551  ARG553  GLY616  TRP617  ASP618  TYR619  PRO620  LYS621  CYS622 
 ASP623  PHE694  ASN695  SER759  ASP760  ASP761  ALA762  ILE779  LEU786  VAL792 
 PHE793  MET794  SER795  GLU796  ALA797  LYS798  CYS799  TRP800  GLU811  SER814 

> <Gold.Protein.RotatedAtoms>
  152.5440  134.0969  159.8300 H   0  0  0  0  0  0  0  0  0  0  0  0  # atno 6907 bound_to 6896
  151.1051  133.5207  159.2615 H   0  0  0  0  0  0  0  0  0  0  0  0  # atno 6908 bound_to 6896
  151.1947  135.0426  159.8901 H   0  0  0  0  0  0  0  0  0  0  0  0  # atno 6909 bound_to 6896
  145.4062  139.2340  143.3273 H   0  0  0  0  0  0  0  0  0  0  0  0  # atno 7974 bound_to 7965
  154.4701  140.0923  156.7123 H   0  0  0  0  0  0  0  0  0  0  0  0  # atno 8008 bound_to 7997
  155.4747  140.3465  155.4312 H   0  0  0  0  0  0  0  0  0  0  0  0  # atno 8009 bound_to 7997
  156.1025  140.1426  156.9437 H   0  0  0  0  0  0  0  0  0  0  0  0  # atno 8010 bound_to 7997
  140.6222  143.8180  150.7188 H   0  0  0  0  0  0  0  0  0  0  0  0  # atno 10167 bound_to 10162
  157.0361  131.0273  151.2729 H   0  0  0  0  0  0  0  0  0  0  0  0  # atno 10718 bound_to 10713
  153.7321  135.6938  153.4987 H   0  0  0  0  0  0  0  0  0  0  0  0  # atno 10763 bound_to 10752
  153.2129  135.4396  155.0399 H   0  0  0  0  0  0  0  0  0  0  0  0  # atno 10764 bound_to 10752
  154.8249  135.3441  154.6850 H   0  0  0  0  0  0  0  0  0  0  0  0  # atno 10765 bound_to 10752
  140.2640  134.3159  155.7848 H   0  0  0  0  0  0  0  0  0  0  0  0  # atno 11005 bound_to 11000
  146.2727  140.4767  142.8808 LP  0  0  0  0  0  0  0  0  0  0  0  0  # atno 17320 bound_to 7965
  144.8340  140.6752  143.6272 LP  0  0  0  0  0  0  0  0  0  0  0  0  # atno 17321 bound_to 7965
  140.1773  143.4144  152.1958 LP  0  0  0  0  0  0  0  0  0  0  0  0  # atno 17342 bound_to 10162
  139.5448  144.7289  151.4618 LP  0  0  0  0  0  0  0  0  0  0  0  0  # atno 17343 bound_to 10162
  157.5140  130.7956  149.7736 LP  0  0  0  0  0  0  0  0  0  0  0  0  # atno 17370 bound_to 10713
  156.0053  130.3858  150.2453 LP  0  0  0  0  0  0  0  0  0  0  0  0  # atno 17371 bound_to 10713
  141.2186  133.7427  156.9231 LP  0  0  0  0  0  0  0  0  0  0  0  0  # atno 17394 bound_to 11000
  140.1437  134.9276  157.2501 LP  0  0  0  0  0  0  0  0  0  0  0  0  # atno 17395 bound_to 11000

$$$$
