AV-unprocessed.smi:148|AV-procd|sdf|1207|dock4
  -GOLD-   2262018373D 1   1.00000     0.00000
 Structure written by MMmdl.
 63 67  0  0  0  0  0  0  0  0  1 V2000
  147.4450  135.1514  153.8718 O   0  0  0  0  0  0  0  0  0  0  0  0
  148.2044  134.7200  154.9825 C   0  0  0  0  0  0  0  0  0  0  0  0
  149.6400  134.2953  154.5777 C   0  0  1  0  0  0  0  0  0  0  0  0
  150.6607  134.5061  155.7293 C   0  0  0  0  0  0  0  0  0  0  0  0
  150.7359  135.8778  156.1972 N   0  0  0  0  0  0  0  0  0  0  0  0
  150.3379  136.3590  157.4243 C   0  0  0  0  0  0  0  0  0  0  0  0
  150.4895  137.6445  157.5928 N   0  0  0  0  0  0  0  0  0  0  0  0
  151.0412  138.0786  156.3932 C   0  0  0  0  0  0  0  0  0  0  0  0
  151.4302  139.3467  155.8768 C   0  0  0  0  0  0  0  0  0  0  0  0
  151.3107  140.5163  156.5405 N   0  0  0  0  0  0  0  0  0  0  0  0
  152.1086  140.4568  157.7666 C   0  0  0  0  0  0  0  0  0  0  0  0
  152.2546  141.8404  158.4072 C   0  0  0  0  0  0  0  0  0  0  0  0
  150.8723  142.4428  158.6609 C   0  0  0  0  0  0  0  0  0  0  0  0
  150.0702  142.4795  157.3539 C   0  0  0  0  0  0  0  0  0  0  0  0
  149.9523  141.0853  156.6778 C   0  0  1  0  0  0  0  0  0  0  0  0
  149.1687  141.2050  155.3230 C   0  0  1  0  0  0  0  0  0  0  0  0
  148.7569  139.8886  154.6265 C   0  0  0  0  0  0  0  0  0  0  0  0
  147.5499  140.2053  153.7323 C   0  0  0  0  0  0  0  0  0  0  0  0
  147.1482  141.6466  154.0550 C   0  0  0  0  0  0  0  0  0  0  0  0
  147.8257  141.9636  155.3888 C   0  0  1  0  0  0  0  0  0  0  0  0
  147.0069  141.4739  156.4361 O   0  0  0  0  0  0  0  0  0  0  0  0
  151.9639  139.3933  154.6312 N   0  0  0  0  0  0  0  0  0  0  0  0
  152.0860  138.2703  153.9168 C   0  0  0  0  0  0  0  0  0  0  0  0
  151.7431  137.0245  154.2527 N   0  0  0  0  0  0  0  0  0  0  0  0
  151.2200  136.9766  155.5117 C   0  0  0  0  0  0  0  0  0  0  0  0
  149.6809  132.8230  154.0893 C   0  0  2  0  0  0  0  0  0  0  0  0
  148.4966  132.4121  153.2141 C   0  0  0  0  0  0  0  0  0  0  0  0
  148.2242  130.9486  153.5748 C   0  0  0  0  0  0  0  0  0  0  0  0
  149.2384  130.5900  154.5002 O   0  0  0  0  0  0  0  0  0  0  0  0
  149.6195  131.7644  155.1941 C   0  0  0  0  0  0  0  0  0  0  0  0
  148.0011  135.6696  153.3102 H   0  0  0  0  0  0  0  0  0  0  0  0
  148.2309  135.5075  155.7364 H   0  0  0  0  0  0  0  0  0  0  0  0
  147.6505  133.8903  155.4174 H   0  0  0  0  0  0  0  0  0  0  0  0
  149.9440  134.9161  153.7332 H   0  0  0  0  0  0  0  0  0  0  0  0
  150.4091  133.8650  156.5751 H   0  0  0  0  0  0  0  0  0  0  0  0
  151.6652  134.2201  155.4176 H   0  0  0  0  0  0  0  0  0  0  0  0
  149.9136  135.7253  158.1894 H   0  0  0  0  0  0  0  0  0  0  0  0
  151.6367  139.7755  158.4759 H   0  0  0  0  0  0  0  0  0  0  0  0
  153.0997  140.0536  157.5513 H   0  0  0  0  0  0  0  0  0  0  0  0
  152.8103  141.7653  159.3421 H   0  0  0  0  0  0  0  0  0  0  0  0
  152.8305  142.4932  157.7501 H   0  0  0  0  0  0  0  0  0  0  0  0
  150.3395  141.8500  159.4054 H   0  0  0  0  0  0  0  0  0  0  0  0
  150.9696  143.4486  159.0710 H   0  0  0  0  0  0  0  0  0  0  0  0
  149.0875  142.8897  157.5815 H   0  0  0  0  0  0  0  0  0  0  0  0
  150.5424  143.1797  156.6635 H   0  0  0  0  0  0  0  0  0  0  0  0
  149.3858  140.4392  157.3496 H   0  0  0  0  0  0  0  0  0  0  0  0
  149.8016  141.7569  154.6254 H   0  0  0  0  0  0  0  0  0  0  0  0
  149.5616  139.4593  154.0313 H   0  0  0  0  0  0  0  0  0  0  0  0
  148.4646  139.1464  155.3701 H   0  0  0  0  0  0  0  0  0  0  0  0
  147.7944  140.0982  152.6749 H   0  0  0  0  0  0  0  0  0  0  0  0
  146.7329  139.5164  153.9497 H   0  0  0  0  0  0  0  0  0  0  0  0
  147.5479  142.3085  153.2853 H   0  0  0  0  0  0  0  0  0  0  0  0
  146.0671  141.7908  154.0753 H   0  0  0  0  0  0  0  0  0  0  0  0
  147.9610  143.0387  155.5125 H   0  0  0  0  0  0  0  0  0  0  0  0
  147.3143  140.6137  156.6778 H   0  0  0  0  0  0  0  0  0  0  0  0
  152.5131  138.3880  152.9318 H   0  0  0  0  0  0  0  0  0  0  0  0
  150.5977  132.6583  153.5209 H   0  0  0  0  0  0  0  0  0  0  0  0
  147.6108  133.0105  153.4320 H   0  0  0  0  0  0  0  0  0  0  0  0
  148.7265  132.5330  152.1550 H   0  0  0  0  0  0  0  0  0  0  0  0
  147.2479  130.8465  154.0508 H   0  0  0  0  0  0  0  0  0  0  0  0
  148.2482  130.2927  152.7046 H   0  0  0  0  0  0  0  0  0  0  0  0
  150.5743  131.6156  155.6984 H   0  0  0  0  0  0  0  0  0  0  0  0
  148.8649  132.0115  155.9429 H   0  0  0  0  0  0  0  0  0  0  0  0
  1  2  1  0  0  0  0
  1 31  1  0  0  0  0
  2  3  1  0  0  0  0
  2 32  1  0  0  0  0
  2 33  1  0  0  0  0
  3  4  1  0  0  0  0
  3 26  1  0  0  0  0
  3 34  1  0  0  0  0
  4  5  1  0  0  0  0
  4 35  1  0  0  0  0
  4 36  1  0  0  0  0
  5 25  1  0  0  0  0
  5  6  1  0  0  0  0
  6  7  2  0  0  0  0
  6 37  1  0  0  0  0
  7  8  1  0  0  0  0
  8 25  2  0  0  0  0
  8  9  1  0  0  0  0
  9 10  1  0  0  0  0
  9 22  2  0  0  0  0
 10 15  1  0  0  0  0
 10 11  1  0  0  0  0
 11 12  1  0  0  0  0
 11 38  1  0  0  0  0
 11 39  1  0  0  0  0
 12 13  1  0  0  0  0
 12 40  1  0  0  0  0
 12 41  1  0  0  0  0
 13 14  1  0  0  0  0
 13 42  1  0  0  0  0
 13 43  1  0  0  0  0
 14 15  1  0  0  0  0
 14 44  1  0  0  0  0
 14 45  1  0  0  0  0
 15 16  1  0  0  0  0
 15 46  1  0  0  0  0
 16 20  1  0  0  0  0
 16 17  1  0  0  0  0
 16 47  1  0  0  0  0
 17 18  1  0  0  0  0
 17 48  1  0  0  0  0
 17 49  1  0  0  0  0
 18 19  1  0  0  0  0
 18 50  1  0  0  0  0
 18 51  1  0  0  0  0
 19 20  1  0  0  0  0
 19 52  1  0  0  0  0
 19 53  1  0  0  0  0
 20 21  1  0  0  0  0
 20 54  1  0  0  0  0
 21 55  1  0  0  0  0
 22 23  1  0  0  0  0
 23 24  2  0  0  0  0
 23 56  1  0  0  0  0
 24 25  1  0  0  0  0
 26 30  1  0  0  0  0
 26 27  1  0  0  0  0
 26 57  1  0  0  0  0
 27 28  1  0  0  0  0
 27 58  1  0  0  0  0
 27 59  1  0  0  0  0
 28 29  1  0  0  0  0
 28 60  1  0  0  0  0
 28 61  1  0  0  0  0
 29 30  1  0  0  0  0
 30 62  1  0  0  0  0
 30 63  1  0  0  0  0
M  END
> <s_m_source_file>
AV-unprocessed.smi

> <i_m_source_file_index>
148

> <i_lp_mmshare_version>
43012

> <i_f3d_flags>
0

> <s_epik_input>
W0NIMl0xT1tDSDJdW0NIMl1bQ0BIXTFbQ0BIXShbQ0gyXVtPSF0pW0NIMl1uKFtjSF1uMiljKGMyMyluW2NIXW5jM040W0NIMl1bQ0gyXVtDSDJdW0NIMl1bQ0BIXTRbQ0BASF01W0NIMl1bQ0gyXVtDSDJdW0NASF01W09IXQ==

> <s_epik_cmdline>
J2VwaWtfcHl0aG9uJywgJy1waCcsICc3LjAnLCAnLXRuJywgJzgnLCAnLW1hJywgJzIwMCcsICctbWV0YWxfYmluZGluZycsICctaW1hZScsICc8aW5maWxlLm1hZT4nLCAnLW9tYWUnLCAnPG91dGZpbGUubWFlPic=

> <r_lp_tautomer_probability>
1

> <r_epik_Ionization_Penalty>
0.00556303

> <r_epik_Ionization_Penalty_Charging>
0

> <r_epik_Ionization_Penalty_Neutral>
0.00556303

> <r_epik_State_Penalty>
0.00401767

> <r_epik_Charging_Adjusted_Penalty>
0.00401767

> <i_epik_Tot_Q>
0

> <i_epik_Tot_abs_Q>
0

> <r_epik_Metal_State_Penalty>
-0

> <b_epik_Metal_Only>
0

> <s_lp_Force_Field>
OPLS_2005

> <r_lp_Energy>
70.4735

> <b_lp_Chiralities_Consistent>
1

> <s_lp_Variant>
AV-unprocessed.smi:148-6

> <Gold.Version>
5.8.1

> <Gold.Id.Protein>
6NUR|6NUR_protein|mol2

> <Gold.PLP.Fitness>
50.9031

> <Gold.PLP.PLP>
-43.3789

> <Gold.PLP.part.hbond>
-3.0000

> <Gold.PLP.part.metal>
0.0000

> <Gold.PLP.part.buried>
-3.1263

> <Gold.PLP.part.nonpolar>
-37.8174

> <Gold.PLP.part.repulsive>
0.4168

> <Gold.PLP.ligand.clash>
0.0000

> <Gold.PLP.ligand.torsion>
0.8558

> <Gold.PLP.Chemscore.Hbond>
2.9120

> <Gold.PLP.Chemscore.CHOScore>
0.0000

> <Gold.PLP.Chemscore.Metal>
0.0000

> <Gold.Chemscore.Hbonds>
donor molecule, donor type, donor heavy atom, donor atom, acceptor molecule, acceptor atom, score
      L1  H     1    31       P1  7948  1.00
      P1  H  7989  7998       L1    22  0.93
      P1  H 10752 10765       L1    24  1.00

> <Gold.PLP.Chemscore.Internal.Correction>
0.4997

> <Gold.Rescore>
     Score         DG    S(hbond)    S(metal)    S(lipo)     H(rot)  DE(clash)    DE(int)     intcor
     13.40     -17.10       2.39        0.00     103.71       3.32       2.77       0.93       ----

> <Gold.Chemscore.Fitness>
13.3990

> <Gold.Chemscore.DG>
-17.1006

> <Gold.Chemscore.ZeroCoef>
-5.4800

> <Gold.Chemscore.Hbond>
2.3912

> <Gold.Chemscore.Metal>
0.0000

> <Gold.Chemscore.Lipo>
103.7093

> <Gold.Chemscore.Internal_Hbond>
0.0000

> <Gold.Chemscore.DEClash>
2.7732

> <Gold.Chemscore.DEInternal>
0.9284

> <Gold.Chemscore.Rot>
3.3203

> <Gold.Chemscore.Internal.Correction>
   9.000000E+99

> <Gold.Chemscore.Hbonds>
donor molecule, donor type, donor heavy atom, donor atom, acceptor molecule, acceptor atom, score
      L1  H     1    31       P1  7948  1.00
      P1  H  7989  7998       L1    22  0.67
      P1  H 10752 10765       L1    24  0.54

> <Gold.Chemscore.Hbond.Weighted>
-7.9866

> <Gold.Chemscore.Metal.Weighted>
-0.0000

> <Gold.Chemscore.Lipo.Weighted>
-12.1340

> <Gold.Chemscore.Internal_Hbond.Weighted>
0.0000

> <Gold.Chemscore.DEClash.Weighted>
2.7732

> <Gold.Chemscore.DEInternal.Weighted>
0.9284

> <Gold.Chemscore.Rot.Weighted>
8.5000

> <Gold.Chemscore.Internal.Correction.Weighted>
   9.000000E+99

> <Gold.Protein.RotatedTorsions>
[ 6907 6896 6895 6894 ] final  -90.83 input  -60.11 | X-H torsion
[ 7974 7965 7964 7962 ] final   28.15 input  175.53 | X-H torsion
[ 8008 7997 7996 7995 ] final   25.85 input   59.86 | X-H torsion
[ 10167 10162 10161 10158 ] final  167.91 input  -65.29 | X-H torsion
[ 10718 10713 10712 10709 ] final -135.45 input   66.30 | X-H torsion
[ 10763 10752 10751 10750 ] final  153.92 input  -60.55 | X-H torsion
[ 11005 11000 10999 10996 ] final   25.96 input  -57.11 | X-H torsion

> <Gold.Protein.ActiveResidues>
 VAL166  LYS551  ARG553  GLY616  TRP617  ASP618  TYR619  PRO620  LYS621  CYS622 
 ASP623  PHE694  ASN695  SER759  ASP760  ASP761  ALA762  ILE779  LEU786  VAL792 
 PHE793  MET794  SER795  GLU796  ALA797  LYS798  CYS799  TRP800  GLU811  SER814 

> <Gold.Protein.RotatedAtoms>
  150.6886  134.2371  159.4457 H   0  0  0  0  0  0  0  0  0  0  0  0  # atno 6907 bound_to 6896
  152.0318  134.9761  160.0582 H   0  0  0  0  0  0  0  0  0  0  0  0  # atno 6908 bound_to 6896
  152.1297  133.4366  159.4752 H   0  0  0  0  0  0  0  0  0  0  0  0  # atno 6909 bound_to 6896
  146.1745  139.7094  142.8944 H   0  0  0  0  0  0  0  0  0  0  0  0  # atno 7974 bound_to 7965
  155.0181  140.3144  155.4804 H   0  0  0  0  0  0  0  0  0  0  0  0  # atno 8008 bound_to 7997
  156.2897  140.2202  156.5240 H   0  0  0  0  0  0  0  0  0  0  0  0  # atno 8009 bound_to 7997
  154.7475  140.0468  157.0853 H   0  0  0  0  0  0  0  0  0  0  0  0  # atno 8010 bound_to 7997
  139.4956  144.3871  151.9558 H   0  0  0  0  0  0  0  0  0  0  0  0  # atno 10167 bound_to 10162
  156.2663  130.7239  151.1191 H   0  0  0  0  0  0  0  0  0  0  0  0  # atno 10718 bound_to 10713
  154.1440  135.2819  155.3153 H   0  0  0  0  0  0  0  0  0  0  0  0  # atno 10763 bound_to 10752
  154.6266  135.5449  153.7637 H   0  0  0  0  0  0  0  0  0  0  0  0  # atno 10764 bound_to 10752
  153.0241  135.6452  154.1586 H   0  0  0  0  0  0  0  0  0  0  0  0  # atno 10765 bound_to 10752
  140.3421  134.2321  155.7689 H   0  0  0  0  0  0  0  0  0  0  0  0  # atno 11005 bound_to 11000
  145.4250  141.0410  143.2942 LP  0  0  0  0  0  0  0  0  0  0  0  0  # atno 17320 bound_to 7965
  144.8214  139.5785  143.6985 LP  0  0  0  0  0  0  0  0  0  0  0  0  # atno 17321 bound_to 7965
  140.3308  144.3318  150.5988 LP  0  0  0  0  0  0  0  0  0  0  0  0  # atno 17342 bound_to 10162
  140.5646  143.2188  151.7705 LP  0  0  0  0  0  0  0  0  0  0  0  0  # atno 17343 bound_to 10162
  157.7268  131.0643  150.5892 LP  0  0  0  0  0  0  0  0  0  0  0  0  # atno 17370 bound_to 10713
  156.5984  130.4348  149.5907 LP  0  0  0  0  0  0  0  0  0  0  0  0  # atno 17371 bound_to 10713
  141.2035  133.7909  157.0334 LP  0  0  0  0  0  0  0  0  0  0  0  0  # atno 17394 bound_to 11000
  140.0772  134.9669  157.1565 LP  0  0  0  0  0  0  0  0  0  0  0  0  # atno 17395 bound_to 11000

$$$$
